=
 OpenBabel11042422573D

 62 71  0  0  1  0  0  0  0  0999 V2000
  159.5640  213.2600  152.2340 C   0  0  0  0  0  2  0  0  0  0  0  0
  161.6030  210.5330  153.2090 C   0  0  2  0  0  0  0  0  0  0  0  0
  162.5540  211.3220  151.1050 O   0  0  0  0  0  0  0  0  0  0  0  0
  161.9470  209.5130  155.8660 C   0  0  2  0  0  3  0  0  0  0  0  0
  161.9760  209.5210  157.2610 O   0  0  0  0  0  1  0  0  0  0  0  0
  162.6460  210.7450  155.3340 C   0  0  0  0  0  2  0  0  0  0  0  0
  159.4020  211.7920  152.6320 C   0  0  1  0  0  3  0  0  0  0  0  0
  161.9990  211.7940  149.8960 C   0  0  0  0  0  2  0  0  0  0  0  0
  160.7960  213.4790  151.3700 C   0  0  0  0  0  2  0  0  0  0  0  0
  160.7190  212.5970  150.1170 C   0  0  1  0  0  3  0  0  0  0  0  0
  160.4220  211.3850  153.6970 C   0  0  1  0  0  3  0  0  0  0  0  0
  160.5110  209.5660  155.3850 C   0  0  0  0  0  2  0  0  0  0  0  0
  162.8270  210.6200  153.9430 O   0  0  0  0  0  0  0  0  0  0  0  0
  161.8220  210.2580  151.7050 C   0  0  2  0  0  3  0  0  0  0  0  0
  160.3930  209.8570  153.8820 C   0  0  2  0  0  3  0  0  0  0  0  0
  160.2630  213.2920  148.8290 C   0  0  1  0  0  3  0  0  0  0  0  0
  160.3400  212.3520  147.6520 C   0  0  1  0  0  3  0  0  0  0  0  0
  158.9430  212.3490  147.4790 O   0  0  0  0  0  0  0  0  0  0  0  0
  158.7770  213.2020  148.5840 C   0  0  0  0  0  2  0  0  0  0  0  0
  161.2150  214.4510  146.5060 C   0  0  0  0  0  1  0  0  0  0  0  0
  162.4890  212.3560  146.3720 C   0  0  0  0  0  1  0  0  0  0  0  0
  161.0790  212.9320  146.4240 C   0  0  0  0  0  0  0  0  0  0  0  0
  162.5030  213.6160  141.1810 O   0  0  0  0  0  0  0  0  0  0  0  0
  160.2410  212.7490  141.1800 C   0  0  0  0  0  2  0  0  0  0  0  0
  160.2380  213.6070  142.4480 C   0  0  1  0  0  3  0  0  0  0  0  0
  158.9420  213.3900  143.2300 C   0  0  0  0  0  2  0  0  0  0  0  0
  161.2490  212.2520  144.0430 O   0  0  0  0  0  0  0  0  0  0  0  0
  159.2110  213.5090  144.7230 C   0  0  0  0  0  2  0  0  0  0  0  0
  161.6470  212.6860  140.5720 C   0  0  0  0  0  2  0  0  0  0  0  0
  162.6580  213.1770  142.5070 C   0  0  0  0  0  2  0  0  0  0  0  0
  161.4340  213.3820  143.3000 N   0  0  1  0  0  0  0  0  0  0  0  0
  160.3600  212.5570  145.1120 C   0  0  2  0  0  3  0  0  0  0  0  0
  156.1170  212.2180  154.2720 N   0  0  0  0  0  2  0  0  0  0  0  0
  158.0380  211.5490  153.0910 N   0  0  0  0  0  2  0  0  0  0  0  0
  157.3280  212.4750  153.9090 C   0  0  0  0  0  3  0  0  0  0  0  0
  160.6620  209.6080  150.9290 C   0  0  0  0  0  2  0  0  0  0  0  0
  160.8620  208.1100  150.8600 C   0  0  1  0  0  3  0  0  0  0  0  0
  161.6060  207.7640  149.5810 C   0  0  1  0  0  3  0  0  0  0  0  0
  162.3430  207.8030  150.9050 C   0  0  0  0  0  2  0  0  0  0  0  0
  159.8880  206.2890  148.8530 C   0  0  0  0  0  1  0  0  0  0  0  0
  161.2990  206.3770  149.2160 N   0  0  0  0  0  0  0  0  0  0  0  0
  161.6120  205.3570  150.2510 C   0  0  2  0  0  3  0  0  0  0  0  0
  160.5970  204.2090  150.2620 C   0  0  2  0  0  3  0  0  0  0  0  0
  160.5910  205.2540  151.3860 C   0  0  1  0  0  3  0  0  0  0  0  0
  161.2470  202.8710  150.6460 C   0  0  0  0  0  2  0  0  0  0  0  0
  160.8680  201.7310  149.7070 C   0  0  0  0  0  2  0  0  0  0  0  0
  161.6770  201.7740  148.4220 C   0  0  0  0  0  2  0  0  0  0  0  0
  159.9650  199.6090  145.0880 C   0  0  0  0  0  1  0  0  0  0  0  0
  160.8220  200.6910  145.5590 N   0  0  0  0  0  0  0  0  0  0  0  0
  161.8630  203.2170  146.4010 C   0  0  2  0  0  3  0  0  0  0  0  0
  160.6110  204.2340  144.5860 O   0  0  0  0  0  1  0  0  0  0  0  0
  161.2530  203.0610  144.9970 C   0  0  2  0  0  3  0  0  0  0  0  0
  158.7970  201.2050  146.8620 O   0  0  0  0  0  1  0  0  0  0  0  0
  160.0870  201.5920  146.4750 C   0  0  2  0  0  0  0  0  0  0  0  0
  160.2100  201.9490  145.0730 C   0  0  2  0  0  3  0  0  0  0  0  0
  160.9050  202.5310  147.3470 C   0  0  1  0  0  3  0  0  0  0  0  0
  163.5890  204.9830  146.7580 C   0  0  0  0  0  1  0  0  0  0  0  0
  162.1100  204.6580  146.8280 C   0  0  0  0  0  2  0  0  0  0  0  0
  161.3010  204.8340  152.6690 C   0  0  0  0  0  2  0  0  0  0  0  0
  160.0400  206.3790  154.2100 N   0  0  0  0  0  1  0  0  0  0  0  0
  161.2800  205.9440  153.6650 C   0  0  0  0  0  0  0  0  0  0  0  0
  162.3470  206.5200  154.0000 O   0  0  0  0  0  0  0  0  0  0  0  0
  1  7  1  0  0  0  0
  2 11  1  0  0  0  0
  2 15  1  0  0  0  0
  2 13  1  1  0  0  0
  3 14  1  0  0  0  0
  4  5  1  1  0  0  0
  6  4  1  0  0  0  0
  7 34  1  1  0  0  0
  7 11  1  0  0  0  0
  8  3  1  0  0  0  0
  9  1  1  0  0  0  0
 10  8  1  6  0  0  0
 10  9  1  0  0  0  0
 11 15  1  0  0  0  0
 12  4  1  0  0  0  0
 13  6  1  0  0  0  0
 14  2  1  0  0  0  0
 15 12  1  0  0  0  0
 16 10  1  0  0  0  0
 17 16  1  0  0  0  0
 18 17  1  0  0  0  0
 18 19  1  0  0  0  0
 19 16  1  0  0  0  0
 21 22  1  0  0  0  0
 22 20  1  0  0  0  0
 22 17  1  0  0  0  0
 23 30  1  0  0  0  0
 24 25  1  0  0  0  0
 25 26  1  0  0  0  0
 25 31  1  0  0  0  0
 26 28  1  0  0  0  0
 27 32  1  0  0  0  0
 28 32  1  0  0  0  0
 29 24  1  0  0  0  0
 29 23  1  0  0  0  0
 30 31  1  0  0  0  0
 31 27  1  0  0  0  0
 32 22  1  0  0  0  0
 34 35  1  0  0  0  0
 35 33  2  0  0  0  0
 36 14  1  0  0  0  0
 37 39  1  0  0  0  0
 37 36  1  0  0  0  0
 38 37  1  0  0  0  0
 38 39  1  0  0  0  0
 40 41  1  0  0  0  0
 41 38  1  0  0  0  0
 41 42  1  0  0  0  0
 42 43  1  0  0  0  0
 42 44  1  0  0  0  0
 43 45  1  0  0  0  0
 43 44  1  0  0  0  0
 44 59  1  0  0  0  0
 46 45  1  0  0  0  0
 47 46  1  0  0  0  0
 48 49  1  0  0  0  0
 49 54  1  0  0  0  0
 50 58  1  0  0  0  0
 50 56  1  0  0  0  0
 51 52  1  0  0  0  0
 52 55  1  0  0  0  0
 52 50  1  0  0  0  0
 54 53  1  0  0  0  0
 54 56  1  0  0  0  0
 55 49  1  0  0  0  0
 55 54  1  0  0  0  0
 56 47  1  0  0  0  0
 57 58  1  0  0  0  0
 59 61  1  0  0  0  0
 61 62  2  0  0  0  0
 61 60  1  0  0  0  0
M  END
>  <MODEL>
1

>  <REMARK>
 VINA RESULT:      -2.8      0.000      0.000
  Name = 
  15 active torsions:
  status: ('A' for Active; 'I' for Inactive)
    1  A    between atoms: C_4  and  C_33
    2  A    between atoms: C_7  and  C_37
    3  A    between atoms: C_8  and  N_27
    4  A    between atoms: C_13  and  N_27
    5  A    between atoms: C_18  and  C_22
    6  A    between atoms: C_22  and  C_26
    7  A    between atoms: C_25  and  C_55
    8  A    between atoms: C_26  and  C_60
    9  A    between atoms: C_28  and  C_37
   10  A    between atoms: C_30  and  N_41
   11  A    between atoms: C_33  and  C_49
   12  A    between atoms: C_34  and  C_45
   13  A    between atoms: C_47  and  C_51
   14  A    between atoms: C_51  and  C_59
   15  A    between atoms: C_60  and  C_62
                            x       y       z     vdW  Elec       q    Type
                         _______ _______ _______ _____ _____    ______ ____

>  <TORSDO>
F 15

$$$$
=
 OpenBabel11042422573D

 62 71  0  0  1  0  0  0  0  0999 V2000
  159.5860  212.7730  152.1360 C   0  0  0  0  0  2  0  0  0  0  0  0
  161.9890  210.3910  153.1830 C   0  0  2  0  0  0  0  0  0  0  0  0
  162.8210  211.2450  151.0540 O   0  0  0  0  0  0  0  0  0  0  0  0
  162.4710  209.5080  155.8670 C   0  0  2  0  0  3  0  0  0  0  0  0
  162.4970  209.5590  157.2610 O   0  0  0  0  0  1  0  0  0  0  0  0
  162.9890  210.8090  155.2980 C   0  0  0  0  0  2  0  0  0  0  0  0
  159.6330  211.3090  152.5760 C   0  0  1  0  0  3  0  0  0  0  0  0
  162.2070  211.5990  149.8330 C   0  0  0  0  0  2  0  0  0  0  0  0
  160.7760  213.1390  151.2620 C   0  0  0  0  0  2  0  0  0  0  0  0
  160.8260  212.2190  150.0350 C   0  0  1  0  0  3  0  0  0  0  0  0
  160.6990  211.0820  153.6490 C   0  0  1  0  0  3  0  0  0  0  0  0
  161.0420  209.3430  155.3890 C   0  0  0  0  0  2  0  0  0  0  0  0
  163.1870  210.6720  153.9110 O   0  0  0  0  0  0  0  0  0  0  0  0
  162.2460  210.1060  151.6870 C   0  0  2  0  0  3  0  0  0  0  0  0
  160.8860  209.5710  153.8780 C   0  0  2  0  0  3  0  0  0  0  0  0
  160.2780  212.8050  148.7280 C   0  0  1  0  0  3  0  0  0  0  0  0
  160.7790  212.0280  147.5370 C   0  0  1  0  0  3  0  0  0  0  0  0
  159.4900  211.5650  147.2130 O   0  0  0  0  0  0  0  0  0  0  0  0
  158.9420  212.2350  148.3220 C   0  0  0  0  0  2  0  0  0  0  0  0
  160.9670  214.3690  146.5520 C   0  0  0  0  0  1  0  0  0  0  0  0
  162.9030  212.8600  146.5090 C   0  0  0  0  0  1  0  0  0  0  0  0
  161.3830  212.9060  146.4150 C   0  0  0  0  0  0  0  0  0  0  0  0
  162.8920  214.4520  141.3840 O   0  0  0  0  0  0  0  0  0  0  0  0
  161.1280  212.8140  141.1090 C   0  0  0  0  0  2  0  0  0  0  0  0
  160.6950  213.5140  142.4000 C   0  0  1  0  0  3  0  0  0  0  0  0
  159.5130  212.7770  143.0300 C   0  0  0  0  0  2  0  0  0  0  0  0
  161.9990  212.5140  144.0430 O   0  0  0  0  0  0  0  0  0  0  0  0
  159.5880  212.8760  144.5460 C   0  0  0  0  0  2  0  0  0  0  0  0
  162.5020  213.3190  140.6530 C   0  0  0  0  0  2  0  0  0  0  0  0
  163.0850  214.0040  142.7020 C   0  0  0  0  0  2  0  0  0  0  0  0
  161.8100  213.6840  143.3670 N   0  0  1  0  0  0  0  0  0  0  0  0
  160.9720  212.3890  145.0210 C   0  0  2  0  0  3  0  0  0  0  0  0
  156.5360  211.0410  154.5750 N   0  0  0  0  0  2  0  0  0  0  0  0
  158.3160  210.8890  153.0450 N   0  0  0  0  0  2  0  0  0  0  0  0
  157.7090  211.4350  154.2140 C   0  0  0  0  0  3  0  0  0  0  0  0
  161.1910  209.2770  150.9330 C   0  0  0  0  0  2  0  0  0  0  0  0
  161.4880  207.8010  151.0870 C   0  0  1  0  0  3  0  0  0  0  0  0
  160.2660  207.1030  151.6610 C   0  0  1  0  0  3  0  0  0  0  0  0
  160.5700  207.0110  150.1790 C   0  0  0  0  0  2  0  0  0  0  0  0
  161.6350  206.2340  153.4010 C   0  0  0  0  0  1  0  0  0  0  0  0
  160.6980  205.8770  152.3410 N   0  0  0  0  0  0  0  0  0  0  0  0
  161.3070  204.8390  151.4670 C   0  0  2  0  0  3  0  0  0  0  0  0
  160.4620  204.5620  150.2190 C   0  0  2  0  0  3  0  0  0  0  0  0
  160.5100  203.5370  151.3600 C   0  0  1  0  0  3  0  0  0  0  0  0
  161.3330  204.2000  149.0060 C   0  0  0  0  0  2  0  0  0  0  0  0
  160.5380  203.5800  147.8610 C   0  0  0  0  0  2  0  0  0  0  0  0
  161.4340  202.7900  146.9240 C   0  0  0  0  0  2  0  0  0  0  0  0
  162.9850  206.7950  147.4630 C   0  0  0  0  0  1  0  0  0  0  0  0
  161.9880  205.9200  146.8580 N   0  0  0  0  0  0  0  0  0  0  0  0
  160.5280  204.2120  145.0900 C   0  0  2  0  0  3  0  0  0  0  0  0
  161.1340  205.7160  143.2830 O   0  0  0  0  0  1  0  0  0  0  0  0
  160.8890  205.6430  144.6580 C   0  0  2  0  0  3  0  0  0  0  0  0
  164.0270  204.7260  146.1640 O   0  0  0  0  0  1  0  0  0  0  0  0
  162.6330  204.8390  146.0780 C   0  0  2  0  0  0  0  0  0  0  0  0
  162.1700  206.0330  145.3920 C   0  0  2  0  0  3  0  0  0  0  0  0
  161.7840  203.6360  145.7040 C   0  0  1  0  0  3  0  0  0  0  0  0
  158.9690  202.3590  144.4890 C   0  0  0  0  0  1  0  0  0  0  0  0
  160.0160  203.3210  143.9650 C   0  0  0  0  0  2  0  0  0  0  0  0
  161.4720  202.3720  151.1490 C   0  0  0  0  0  2  0  0  0  0  0  0
  161.6600  200.4870  149.4870 N   0  0  0  0  0  1  0  0  0  0  0  0
  160.8430  201.3230  150.2960 C   0  0  0  0  0  0  0  0  0  0  0  0
  159.5920  201.1960  150.2620 O   0  0  0  0  0  0  0  0  0  0  0  0
  1  7  1  0  0  0  0
  2 11  1  0  0  0  0
  2 15  1  0  0  0  0
  2 13  1  1  0  0  0
  3 14  1  0  0  0  0
  4  5  1  1  0  0  0
  6  4  1  0  0  0  0
  7 34  1  1  0  0  0
  7 11  1  0  0  0  0
  8  3  1  0  0  0  0
  9  1  1  0  0  0  0
 10  8  1  6  0  0  0
 10  9  1  0  0  0  0
 11 15  1  0  0  0  0
 12  4  1  0  0  0  0
 13  6  1  0  0  0  0
 14  2  1  0  0  0  0
 15 12  1  0  0  0  0
 16 10  1  0  0  0  0
 17 16  1  0  0  0  0
 18 17  1  0  0  0  0
 18 19  1  0  0  0  0
 19 16  1  0  0  0  0
 22 21  1  0  0  0  0
 22 20  1  0  0  0  0
 22 17  1  0  0  0  0
 23 30  1  0  0  0  0
 24 25  1  0  0  0  0
 25 26  1  0  0  0  0
 25 31  1  0  0  0  0
 26 28  1  0  0  0  0
 27 32  1  0  0  0  0
 28 32  1  0  0  0  0
 29 24  1  0  0  0  0
 29 23  1  0  0  0  0
 30 31  1  0  0  0  0
 31 27  1  0  0  0  0
 32 22  1  0  0  0  0
 34 35  1  0  0  0  0
 35 33  2  0  0  0  0
 36 37  1  0  0  0  0
 36 14  1  0  0  0  0
 37 38  1  0  0  0  0
 38 41  1  0  0  0  0
 39 37  1  0  0  0  0
 39 38  1  0  0  0  0
 41 40  1  0  0  0  0
 42 41  1  0  0  0  0
 43 44  1  0  0  0  0
 43 42  1  0  0  0  0
 44 42  1  0  0  0  0
 45 43  1  0  0  0  0
 46 45  1  0  0  0  0
 47 46  1  0  0  0  0
 49 48  1  0  0  0  0
 50 56  1  0  0  0  0
 51 52  1  0  0  0  0
 52 50  1  0  0  0  0
 52 55  1  0  0  0  0
 54 53  1  0  0  0  0
 54 49  1  0  0  0  0
 55 54  1  0  0  0  0
 55 49  1  0  0  0  0
 56 54  1  0  0  0  0
 56 47  1  0  0  0  0
 58 57  1  0  0  0  0
 58 50  1  0  0  0  0
 59 44  1  0  0  0  0
 60 61  1  0  0  0  0
 61 59  1  0  0  0  0
 62 61  2  0  0  0  0
M  END
>  <MODEL>
2

>  <REMARK>
 VINA RESULT:      -0.7      1.337      2.769
  Name = 
  15 active torsions:
  status: ('A' for Active; 'I' for Inactive)
    1  A    between atoms: C_4  and  C_33
    2  A    between atoms: C_7  and  C_37
    3  A    between atoms: C_8  and  N_27
    4  A    between atoms: C_13  and  N_27
    5  A    between atoms: C_18  and  C_22
    6  A    between atoms: C_22  and  C_26
    7  A    between atoms: C_25  and  C_55
    8  A    between atoms: C_26  and  C_60
    9  A    between atoms: C_28  and  C_37
   10  A    between atoms: C_30  and  N_41
   11  A    between atoms: C_33  and  C_49
   12  A    between atoms: C_34  and  C_45
   13  A    between atoms: C_47  and  C_51
   14  A    between atoms: C_51  and  C_59
   15  A    between atoms: C_60  and  C_62
                            x       y       z     vdW  Elec       q    Type
                         _______ _______ _______ _____ _____    ______ ____

>  <TORSDO>
F 15

$$$$
=
 OpenBabel11042422573D

 62 71  0  0  1  0  0  0  0  0999 V2000
  161.8280  204.2100  151.2470 C   0  0  0  0  0  2  0  0  0  0  0  0
  162.4730  205.8740  148.1870 C   0  0  2  0  0  0  0  0  0  0  0  0
  163.3940  207.3320  149.9140 O   0  0  0  0  0  0  0  0  0  0  0  0
  162.6530  204.6760  145.5890 C   0  0  2  0  0  3  0  0  0  0  0  0
  162.8660  203.6800  144.6360 O   0  0  0  0  0  1  0  0  0  0  0  0
  163.7670  204.6510  146.6120 C   0  0  0  0  0  2  0  0  0  0  0  0
  161.0560  204.6840  150.0140 C   0  0  1  0  0  3  0  0  0  0  0  0
  162.9670  207.7100  151.2060 C   0  0  0  0  0  2  0  0  0  0  0  0
  162.8930  205.2110  151.6650 C   0  0  0  0  0  2  0  0  0  0  0  0
  162.2500  206.5770  151.9360 C   0  0  1  0  0  3  0  0  0  0  0  0
  161.9010  204.5620  148.7440 C   0  0  1  0  0  3  0  0  0  0  0  0
  161.3560  204.4070  146.3260 C   0  0  0  0  0  2  0  0  0  0  0  0
  163.6830  205.7950  147.4280 O   0  0  0  0  0  0  0  0  0  0  0  0
  162.3380  207.1990  148.9670 C   0  0  2  0  0  3  0  0  0  0  0  0
  161.1890  205.2770  147.5810 C   0  0  2  0  0  3  0  0  0  0  0  0
  162.0030  206.9270  153.4090 C   0  0  1  0  0  3  0  0  0  0  0  0
  160.7840  207.8020  153.5580 C   0  0  1  0  0  3  0  0  0  0  0  0
  160.0750  206.8080  154.2580 O   0  0  0  0  0  0  0  0  0  0  0  0
  161.1550  205.9160  154.1390 C   0  0  0  0  0  2  0  0  0  0  0  0
  161.8550  208.7740  155.6540 C   0  0  0  0  0  1  0  0  0  0  0  0
  161.7740  210.1000  153.5890 C   0  0  0  0  0  1  0  0  0  0  0  0
  161.0130  209.0700  154.4150 C   0  0  0  0  0  0  0  0  0  0  0  0
  158.8930  214.0440  153.5540 O   0  0  0  0  0  0  0  0  0  0  0  0
  157.3840  212.8960  155.0630 C   0  0  0  0  0  2  0  0  0  0  0  0
  158.7390  212.3290  155.4960 C   0  0  1  0  0  3  0  0  0  0  0  0
  158.5390  211.1930  156.5000 C   0  0  0  0  0  2  0  0  0  0  0  0
  159.1760  210.6670  153.9320 O   0  0  0  0  0  0  0  0  0  0  0  0
  159.6310  210.1480  156.3240 C   0  0  0  0  0  2  0  0  0  0  0  0
  157.5390  213.7820  153.8220 C   0  0  0  0  0  2  0  0  0  0  0  0
  159.4530  212.8060  153.1930 C   0  0  0  0  0  2  0  0  0  0  0  0
  159.5800  211.9020  154.3490 N   0  0  1  0  0  0  0  0  0  0  0  0
  159.6730  209.6980  154.8490 C   0  0  2  0  0  3  0  0  0  0  0  0
  158.6510  201.9170  149.5420 N   0  0  0  0  0  2  0  0  0  0  0  0
  159.8100  203.9340  149.8900 N   0  0  0  0  0  2  0  0  0  0  0  0
  159.7810  202.5340  149.6250 C   0  0  0  0  0  3  0  0  0  0  0  0
  160.9170  207.6500  149.3540 C   0  0  0  0  0  2  0  0  0  0  0  0
  160.8010  209.1540  149.2280 C   0  0  1  0  0  3  0  0  0  0  0  0
  162.1290  209.7190  148.7540 C   0  0  1  0  0  3  0  0  0  0  0  0
  160.9820  209.5470  147.7780 C   0  0  0  0  0  2  0  0  0  0  0  0
  161.6060  211.2560  150.4910 C   0  0  0  0  0  1  0  0  0  0  0  0
  162.2250  211.1200  149.1760 N   0  0  0  0  0  0  0  0  0  0  0  0
  161.6330  212.1150  148.2420 C   0  0  2  0  0  3  0  0  0  0  0  0
  162.6390  213.1940  147.8290 C   0  0  2  0  0  3  0  0  0  0  0  0
  161.5040  213.5320  148.8050 C   0  0  1  0  0  3  0  0  0  0  0  0
  162.4010  213.6780  146.3900 C   0  0  0  0  0  2  0  0  0  0  0  0
  162.9590  212.7250  145.3380 C   0  0  0  0  0  2  0  0  0  0  0  0
  162.9200  213.3420  143.9510 C   0  0  0  0  0  2  0  0  0  0  0  0
  163.0280  213.2810  139.6250 C   0  0  0  0  0  1  0  0  0  0  0  0
  162.3410  213.6880  140.8440 N   0  0  0  0  0  0  0  0  0  0  0  0
  160.6210  213.8280  143.1240 C   0  0  2  0  0  3  0  0  0  0  0  0
  158.8260  213.0150  141.7060 O   0  0  0  0  0  1  0  0  0  0  0  0
  160.0230  213.7380  141.7100 C   0  0  2  0  0  3  0  0  0  0  0  0
  162.6420  211.2960  141.3460 O   0  0  0  0  0  1  0  0  0  0  0  0
  162.0790  212.5230  141.7210 C   0  0  2  0  0  0  0  0  0  0  0  0
  161.0310  212.9960  140.8340 C   0  0  2  0  0  3  0  0  0  0  0  0
  161.7260  212.7980  143.1730 C   0  0  1  0  0  3  0  0  0  0  0  0
  159.5270  212.1290  144.5860 C   0  0  0  0  0  1  0  0  0  0  0  0
  159.6200  213.6040  144.2500 C   0  0  0  0  0  2  0  0  0  0  0  0
  160.2900  214.2140  148.1810 C   0  0  0  0  0  2  0  0  0  0  0  0
  158.4550  213.7560  149.8460 N   0  0  0  0  0  1  0  0  0  0  0  0
  159.0360  213.5080  148.5730 C   0  0  0  0  0  0  0  0  0  0  0  0
  158.5090  212.6710  147.7960 O   0  0  0  0  0  0  0  0  0  0  0  0
  1  9  1  0  0  0  0
  2 13  1  6  0  0  0
  2 11  1  0  0  0  0
  2 14  1  0  0  0  0
  3  8  1  0  0  0  0
  4  5  1  6  0  0  0
  4 12  1  0  0  0  0
  4  6  1  0  0  0  0
  6 13  1  0  0  0  0
  7 34  1  6  0  0  0
  7  1  1  0  0  0  0
  9 10  1  0  0  0  0
 10  8  1  1  0  0  0
 10 16  1  0  0  0  0
 11  7  1  0  0  0  0
 12 15  1  0  0  0  0
 14 36  1  0  0  0  0
 14  3  1  0  0  0  0
 15  2  1  0  0  0  0
 15 11  1  0  0  0  0
 16 17  1  0  0  0  0
 16 19  1  0  0  0  0
 17 18  1  0  0  0  0
 17 22  1  0  0  0  0
 19 18  1  0  0  0  0
 21 22  1  0  0  0  0
 22 32  1  0  0  0  0
 22 20  1  0  0  0  0
 23 29  1  0  0  0  0
 24 25  1  0  0  0  0
 25 26  1  0  0  0  0
 27 31  1  0  0  0  0
 27 32  1  0  0  0  0
 28 26  1  0  0  0  0
 29 24  1  0  0  0  0
 30 23  1  0  0  0  0
 30 31  1  0  0  0  0
 31 25  1  0  0  0  0
 32 28  1  0  0  0  0
 33 35  2  0  0  0  0
 35 34  1  0  0  0  0
 37 36  1  0  0  0  0
 38 41  1  0  0  0  0
 38 37  1  0  0  0  0
 39 38  1  0  0  0  0
 39 37  1  0  0  0  0
 41 40  1  0  0  0  0
 42 44  1  0  0  0  0
 42 41  1  0  0  0  0
 43 42  1  0  0  0  0
 43 44  1  0  0  0  0
 45 43  1  0  0  0  0
 46 45  1  0  0  0  0
 47 46  1  0  0  0  0
 48 49  1  0  0  0  0
 49 54  1  0  0  0  0
 50 56  1  0  0  0  0
 50 58  1  0  0  0  0
 51 52  1  0  0  0  0
 52 50  1  0  0  0  0
 53 54  1  0  0  0  0
 54 56  1  0  0  0  0
 55 49  1  0  0  0  0
 55 52  1  0  0  0  0
 55 54  1  0  0  0  0
 56 47  1  0  0  0  0
 58 57  1  0  0  0  0
 59 61  1  0  0  0  0
 59 44  1  0  0  0  0
 61 60  1  0  0  0  0
 62 61  2  0  0  0  0
M  END
>  <MODEL>
3

>  <REMARK>
 VINA RESULT:      -0.3      2.231      9.910
  Name = 
  15 active torsions:
  status: ('A' for Active; 'I' for Inactive)
    1  A    between atoms: C_4  and  C_33
    2  A    between atoms: C_7  and  C_37
    3  A    between atoms: C_8  and  N_27
    4  A    between atoms: C_13  and  N_27
    5  A    between atoms: C_18  and  C_22
    6  A    between atoms: C_22  and  C_26
    7  A    between atoms: C_25  and  C_55
    8  A    between atoms: C_26  and  C_60
    9  A    between atoms: C_28  and  C_37
   10  A    between atoms: C_30  and  N_41
   11  A    between atoms: C_33  and  C_49
   12  A    between atoms: C_34  and  C_45
   13  A    between atoms: C_47  and  C_51
   14  A    between atoms: C_51  and  C_59
   15  A    between atoms: C_60  and  C_62
                            x       y       z     vdW  Elec       q    Type
                         _______ _______ _______ _____ _____    ______ ____

>  <TORSDO>
F 15

$$$$
=
 OpenBabel11042422573D

 62 71  0  0  1  0  0  0  0  0999 V2000
  160.1210  214.4000  146.1490 C   0  0  0  0  0  2  0  0  0  0  0  0
  160.8450  213.0070  149.3240 C   0  0  2  0  0  0  0  0  0  0  0  0
  162.9250  212.8330  148.0610 O   0  0  0  0  0  0  0  0  0  0  0  0
  159.4630  213.5300  151.7810 C   0  0  2  0  0  3  0  0  0  0  0  0
  158.6890  214.2300  152.7050 O   0  0  0  0  0  1  0  0  0  0  0  0
  160.4990  214.4530  151.1780 C   0  0  0  0  0  2  0  0  0  0  0  0
  159.5650  213.3230  147.0820 C   0  0  1  0  0  3  0  0  0  0  0  0
  163.2330  212.5190  146.7190 C   0  0  0  0  0  2  0  0  0  0  0  0
  161.6410  214.4160  146.1480 C   0  0  0  0  0  2  0  0  0  0  0  0
  162.1790  213.0370  145.7430 C   0  0  1  0  0  3  0  0  0  0  0  0
  159.7250  213.7190  148.5510 C   0  0  1  0  0  3  0  0  0  0  0  0
  158.5850  213.0360  150.6490 C   0  0  0  0  0  2  0  0  0  0  0  0
  161.4250  213.6990  150.4320 O   0  0  0  0  0  0  0  0  0  0  0  0
  161.8460  212.0780  148.6030 C   0  0  2  0  0  3  0  0  0  0  0  0
  159.3910  212.5140  149.4490 C   0  0  2  0  0  3  0  0  0  0  0  0
  162.6420  212.8930  144.2890 C   0  0  1  0  0  3  0  0  0  0  0  0
  161.5490  213.2990  143.3320 C   0  0  1  0  0  3  0  0  0  0  0  0
  162.2790  214.4070  142.8640 O   0  0  0  0  0  0  0  0  0  0  0  0
  163.3350  214.1180  143.7480 C   0  0  0  0  0  2  0  0  0  0  0  0
  162.5210  211.4750  141.8450 C   0  0  0  0  0  1  0  0  0  0  0  0
  160.2290  211.2680  142.7020 C   0  0  0  0  0  1  0  0  0  0  0  0
  161.2700  212.2680  142.2120 C   0  0  0  0  0  0  0  0  0  0  0  0
  158.2890  210.3390  138.0450 O   0  0  0  0  0  0  0  0  0  0  0  0
  158.8830  212.6190  137.4780 C   0  0  0  0  0  2  0  0  0  0  0  0
  160.1200  212.1660  138.2590 C   0  0  1  0  0  3  0  0  0  0  0  0
  161.0530  213.3520  138.5040 C   0  0  0  0  0  2  0  0  0  0  0  0
  159.4930  212.3930  140.4840 O   0  0  0  0  0  0  0  0  0  0  0  0
  161.7630  213.1860  139.8400 C   0  0  0  0  0  2  0  0  0  0  0  0
  157.7910  211.5430  137.5220 C   0  0  0  0  0  2  0  0  0  0  0  0
  158.5920  210.6070  139.3900 C   0  0  0  0  0  2  0  0  0  0  0  0
  159.7810  211.4670  139.5250 N   0  0  1  0  0  0  0  0  0  0  0  0
  160.7160  212.9570  140.9480 C   0  0  2  0  0  3  0  0  0  0  0  0
  156.0960  213.7440  145.8770 N   0  0  0  0  0  2  0  0  0  0  0  0
  158.1670  213.0580  146.7580 N   0  0  0  0  0  2  0  0  0  0  0  0
  157.3210  214.0360  146.1580 C   0  0  0  0  0  3  0  0  0  0  0  0
  161.2660  210.9040  147.7940 C   0  0  0  0  0  2  0  0  0  0  0  0
  161.0470  209.7110  148.7010 C   0  0  1  0  0  3  0  0  0  0  0  0
  161.7420  208.4980  148.1050 C   0  0  1  0  0  3  0  0  0  0  0  0
  162.3810  209.2550  149.2530 C   0  0  0  0  0  2  0  0  0  0  0  0
  161.6530  206.9480  149.9070 C   0  0  0  0  0  1  0  0  0  0  0  0
  161.0860  207.2850  148.6050 N   0  0  0  0  0  0  0  0  0  0  0  0
  161.1590  206.1000  147.7090 C   0  0  2  0  0  3  0  0  0  0  0  0
  162.3460  206.1730  146.7440 C   0  0  2  0  0  3  0  0  0  0  0  0
  160.9190  206.3960  146.2270 C   0  0  1  0  0  3  0  0  0  0  0  0
  162.9210  204.7820  146.4350 C   0  0  0  0  0  2  0  0  0  0  0  0
  162.1010  203.6480  147.0400 C   0  0  0  0  0  2  0  0  0  0  0  0
  162.0180  203.7640  148.5520 C   0  0  0  0  0  2  0  0  0  0  0  0
  160.0200  200.7790  146.1380 C   0  0  0  0  0  1  0  0  0  0  0  0
  160.0440  201.5780  147.3580 N   0  0  0  0  0  0  0  0  0  0  0  0
  160.4390  202.5250  150.0260 C   0  0  2  0  0  3  0  0  0  0  0  0
  159.7960  200.3180  150.8070 O   0  0  0  0  0  1  0  0  0  0  0  0
  159.6260  201.2440  149.7730 C   0  0  2  0  0  3  0  0  0  0  0  0
  162.3180  200.6380  147.4630 O   0  0  0  0  0  1  0  0  0  0  0  0
  161.3160  201.3880  148.0930 C   0  0  2  0  0  0  0  0  0  0  0  0
  160.1470  200.6190  148.4820 C   0  0  2  0  0  3  0  0  0  0  0  0
  161.6730  202.4100  149.1600 C   0  0  1  0  0  3  0  0  0  0  0  0
  161.2860  204.1840  151.6860 C   0  0  0  0  0  1  0  0  0  0  0  0
  160.8190  202.7560  151.4830 C   0  0  0  0  0  2  0  0  0  0  0  0
  160.2680  205.1830  145.5680 C   0  0  0  0  0  2  0  0  0  0  0  0
  161.4510  206.1280  143.5540 N   0  0  0  0  0  1  0  0  0  0  0  0
  160.6520  205.1020  144.1300 C   0  0  0  0  0  0  0  0  0  0  0  0
  160.2450  204.1500  143.4150 O   0  0  0  0  0  0  0  0  0  0  0  0
  1  7  1  0  0  0  0
  2 15  1  0  0  0  0
  2 13  1  1  0  0  0
  3 14  1  0  0  0  0
  4  5  1  1  0  0  0
  6  4  1  0  0  0  0
  7 34  1  6  0  0  0
  7 11  1  0  0  0  0
  8  3  1  0  0  0  0
  9  1  1  0  0  0  0
 10  9  1  1  0  0  0
 10  8  1  0  0  0  0
 11  2  1  0  0  0  0
 11 15  1  0  0  0  0
 12  4  1  0  0  0  0
 13  6  1  0  0  0  0
 14  2  1  0  0  0  0
 15 12  1  0  0  0  0
 16 10  1  0  0  0  0
 17 16  1  0  0  0  0
 18 17  1  0  0  0  0
 18 19  1  0  0  0  0
 19 16  1  0  0  0  0
 20 22  1  0  0  0  0
 22 21  1  0  0  0  0
 22 17  1  0  0  0  0
 23 30  1  0  0  0  0
 24 29  1  0  0  0  0
 24 25  1  0  0  0  0
 25 26  1  0  0  0  0
 25 31  1  0  0  0  0
 26 28  1  0  0  0  0
 27 32  1  0  0  0  0
 28 32  1  0  0  0  0
 29 23  1  0  0  0  0
 30 31  1  0  0  0  0
 31 27  1  0  0  0  0
 32 22  1  0  0  0  0
 33 35  2  0  0  0  0
 35 34  1  0  0  0  0
 36 14  1  0  0  0  0
 36 37  1  0  0  0  0
 37 39  1  0  0  0  0
 38 41  1  0  0  0  0
 38 37  1  0  0  0  0
 38 39  1  0  0  0  0
 41 40  1  0  0  0  0
 42 41  1  0  0  0  0
 43 42  1  0  0  0  0
 44 43  1  0  0  0  0
 44 42  1  0  0  0  0
 45 43  1  0  0  0  0
 45 46  1  0  0  0  0
 46 47  1  0  0  0  0
 47 56  1  0  0  0  0
 48 49  1  0  0  0  0
 49 54  1  0  0  0  0
 49 55  1  0  0  0  0
 50 58  1  0  0  0  0
 52 50  1  0  0  0  0
 52 51  1  0  0  0  0
 53 54  1  0  0  0  0
 54 55  1  0  0  0  0
 54 56  1  0  0  0  0
 55 52  1  0  0  0  0
 56 50  1  0  0  0  0
 58 57  1  0  0  0  0
 59 44  1  0  0  0  0
 60 61  1  0  0  0  0
 61 59  1  0  0  0  0
 62 61  2  0  0  0  0
M  END
>  <MODEL>
4

>  <REMARK>
 VINA RESULT:       0.1      3.074      5.326
  Name = 
  15 active torsions:
  status: ('A' for Active; 'I' for Inactive)
    1  A    between atoms: C_4  and  C_33
    2  A    between atoms: C_7  and  C_37
    3  A    between atoms: C_8  and  N_27
    4  A    between atoms: C_13  and  N_27
    5  A    between atoms: C_18  and  C_22
    6  A    between atoms: C_22  and  C_26
    7  A    between atoms: C_25  and  C_55
    8  A    between atoms: C_26  and  C_60
    9  A    between atoms: C_28  and  C_37
   10  A    between atoms: C_30  and  N_41
   11  A    between atoms: C_33  and  C_49
   12  A    between atoms: C_34  and  C_45
   13  A    between atoms: C_47  and  C_51
   14  A    between atoms: C_51  and  C_59
   15  A    between atoms: C_60  and  C_62
                            x       y       z     vdW  Elec       q    Type
                         _______ _______ _______ _____ _____    ______ ____

>  <TORSDO>
F 15

$$$$
