=
 OpenBabel11042422293D

 34 39  0  0  1  0  0  0  0  0999 V2000
  158.1570  212.7350  154.6550 N   0  0  2  0  0  0  0  0  0  0  0  0
  156.1980  212.0840  155.9880 C   0  0  0  0  0  2  0  0  0  0  0  0
  156.9240  211.6570  157.2590 C   0  0  0  0  0  2  0  0  0  0  0  0
  156.9390  213.2230  155.2950 C   0  0  0  0  0  2  0  0  0  0  0  0
  159.2210  212.5710  155.6460 C   0  0  0  0  0  2  0  0  0  0  0  0
  158.1080  210.7840  156.9550 C   0  0  0  0  0  3  0  0  0  0  0  0
  159.1650  211.1920  156.2310 C   0  0  0  0  0  0  0  0  0  0  0  0
  156.7560  214.1440  149.2780 C   0  0  0  0  0  3  0  0  0  0  0  0
  158.5530  213.3490  151.2010 C   0  0  0  0  0  0  0  0  0  0  0  0
  159.4110  213.0550  152.3760 C   0  0  1  0  0  3  0  0  0  0  0  0
  157.4320  214.0330  151.5710 C   0  0  0  0  0  0  0  0  0  0  0  0
  158.8180  213.0680  149.8990 N   0  0  0  0  0  0  0  0  0  0  0  0
  157.9330  213.4500  148.9320 C   0  0  0  0  0  3  0  0  0  0  0  0
  156.5000  214.4470  150.6240 C   0  0  0  0  0  3  0  0  0  0  0  0
  157.3670  214.2550  152.9650 N   0  0  0  0  0  2  0  0  0  0  0  0
  158.5550  213.6400  153.5630 C   0  0  1  0  0  3  0  0  0  0  0  0
  159.7670  211.5980  152.4230 C   0  0  0  0  0  3  0  0  0  0  0  0
  160.7520  211.1840  151.8360 O   0  0  0  0  0  0  0  0  0  0  0  0
  160.3200  210.2670  155.9730 C   0  0  1  0  0  3  0  0  0  0  0  0
  159.5830  207.7920  155.6690 C   0  0  1  0  0  3  0  0  0  0  0  0
  159.7300  207.8360  157.0590 O   0  0  0  0  0  1  0  0  0  0  0  0
  159.9300  209.1360  154.9930 C   0  0  2  0  0  3  0  0  0  0  0  0
  162.0350  208.0850  155.8230 O   0  0  0  0  0  1  0  0  0  0  0  0
  160.9250  207.9800  154.9780 C   0  0  1  0  0  0  0  0  0  0  0  0
  161.1080  207.2680  153.6770 C   0  0  0  0  0  0  0  0  0  0  0  0
  161.3690  205.9210  151.2340 C   0  0  0  0  0  0  0  0  0  0  0  0
  161.0830  207.9830  152.4720 C   0  0  0  0  0  3  0  0  0  0  0  0
  161.2410  205.8730  153.6510 C   0  0  0  0  0  3  0  0  0  0  0  0
  161.2180  207.3110  151.2530 C   0  0  0  0  0  3  0  0  0  0  0  0
  161.3770  205.2020  152.4330 C   0  0  0  0  0  3  0  0  0  0  0  0
  161.5050  205.2550  150.0240 O   0  0  0  0  0  1  0  0  0  0  0  0
  162.0870  211.8220  156.7910 N   0  0  0  0  0  2  0  0  0  0  0  0
  161.5890  211.0760  155.6240 C   0  0  1  0  0  3  0  0  0  0  0  0
  162.7890  210.6150  156.3240 C   0  0  0  0  0  2  0  0  0  0  0  0
  1  4  1  1  0  0  0
  1  5  1  0  0  0  0
  2  3  1  0  0  0  0
  4  2  1  0  0  0  0
  5  7  1  0  0  0  0
  6  3  1  0  0  0  0
  7  6  2  0  0  0  0
  8 14  1  0  0  0  0
  9 11  1  0  0  0  0
  9 10  1  0  0  0  0
 10 17  1  1  0  0  0
 10 16  1  0  0  0  0
 11 15  1  0  0  0  0
 12  9  2  0  0  0  0
 13  8  2  0  0  0  0
 13 12  1  0  0  0  0
 14 11  2  0  0  0  0
 16 15  1  6  0  0  0
 16  1  1  0  0  0  0
 18 17  2  0  0  0  0
 19  7  1  6  0  0  0
 20 21  1  1  0  0  0
 22 20  1  0  0  0  0
 22 19  1  1  0  0  0
 24 22  1  0  0  0  0
 24 20  1  0  0  0  0
 24 23  1  1  0  0  0
 25 24  1  0  0  0  0
 26 29  2  0  0  0  0
 26 30  1  0  0  0  0
 27 25  2  0  0  0  0
 28 25  1  0  0  0  0
 29 27  1  0  0  0  0
 30 28  2  0  0  0  0
 31 26  1  0  0  0  0
 33 19  1  1  0  0  0
 33 34  1  0  0  0  0
 33 32  1  0  0  0  0
 34 32  1  0  0  0  0
M  END
>  <MODEL>
1

>  <REMARK>
 VINA RESULT:      -5.9      0.000      0.000
  Name = 
  6 active torsions:
  status: ('A' for Active; 'I' for Inactive)
    1  A    between atoms: C_1  and  C_32
    2  A    between atoms: N_2  and  C_33
    3  A    between atoms: C_9  and  C_19
    4  A    between atoms: C_10  and  C_29
    5  A    between atoms: C_26  and  C_29
    6  A    between atoms: C_29  and  C_34
                            x       y       z     vdW  Elec       q    Type
                         _______ _______ _______ _____ _____    ______ ____

>  <TORSDO>
F 6

$$$$
=
 OpenBabel11042422293D

 34 39  0  0  1  0  0  0  0  0999 V2000
  160.0780  209.6500  154.9420 N   0  0  2  0  0  0  0  0  0  0  0  0
  159.0910  207.5480  155.7470 C   0  0  0  0  0  2  0  0  0  0  0  0
  160.2070  206.6000  155.3240 C   0  0  0  0  0  2  0  0  0  0  0  0
  159.6520  208.9140  156.1300 C   0  0  0  0  0  2  0  0  0  0  0  0
  161.3860  209.1750  154.4920 C   0  0  0  0  0  2  0  0  0  0  0  0
  160.6650  206.8730  153.9200 C   0  0  0  0  0  3  0  0  0  0  0  0
  161.2140  208.0370  153.5310 C   0  0  0  0  0  0  0  0  0  0  0  0
  156.6740  213.8480  156.8510 C   0  0  0  0  0  3  0  0  0  0  0  0
  158.3740  212.7410  154.9960 C   0  0  0  0  0  0  0  0  0  0  0  0
  159.4030  212.0610  154.1690 C   0  0  1  0  0  3  0  0  0  0  0  0
  158.4440  212.3360  156.2970 C   0  0  0  0  0  0  0  0  0  0  0  0
  157.4980  213.6980  154.5940 N   0  0  0  0  0  0  0  0  0  0  0  0
  156.6420  214.2530  155.5020 C   0  0  0  0  0  3  0  0  0  0  0  0
  157.5950  212.8720  157.2610 C   0  0  0  0  0  3  0  0  0  0  0  0
  159.4460  211.3640  156.5100 N   0  0  0  0  0  2  0  0  0  0  0  0
  160.0810  211.0970  155.2160 C   0  0  1  0  0  3  0  0  0  0  0  0
  158.7810  211.4440  152.9510 C   0  0  0  0  0  3  0  0  0  0  0  0
  158.5270  212.1280  151.9750 O   0  0  0  0  0  0  0  0  0  0  0  0
  161.6570  208.2390  152.1100 C   0  0  1  0  0  3  0  0  0  0  0  0
  161.8090  205.7510  151.3700 C   0  0  1  0  0  3  0  0  0  0  0  0
  162.8350  205.7880  152.3210 O   0  0  0  0  0  1  0  0  0  0  0  0
  161.1200  207.1200  151.1860 C   0  0  2  0  0  3  0  0  0  0  0  0
  163.4100  207.2320  150.2030 O   0  0  0  0  0  1  0  0  0  0  0  0
  162.1490  206.6280  150.1750 C   0  0  1  0  0  0  0  0  0  0  0  0
  161.6250  206.1770  148.8490 C   0  0  0  0  0  0  0  0  0  0  0  0
  160.7230  205.3420  146.3330 C   0  0  0  0  0  0  0  0  0  0  0  0
  161.6340  204.8170  148.5140 C   0  0  0  0  0  3  0  0  0  0  0  0
  161.1850  207.1180  147.9090 C   0  0  0  0  0  3  0  0  0  0  0  0
  161.1790  204.3990  147.2590 C   0  0  0  0  0  3  0  0  0  0  0  0
  160.7290  206.7010  146.6560 C   0  0  0  0  0  3  0  0  0  0  0  0
  160.2690  204.9260  145.0880 O   0  0  0  0  0  1  0  0  0  0  0  0
  162.6420  210.4240  151.4300 N   0  0  0  0  0  2  0  0  0  0  0  0
  161.3870  209.6930  151.6630 C   0  0  1  0  0  3  0  0  0  0  0  0
  161.8200  209.9750  150.2950 C   0  0  0  0  0  2  0  0  0  0  0  0
  1  5  1  1  0  0  0
  1 16  1  0  0  0  0
  1  4  1  0  0  0  0
  2  4  1  0  0  0  0
  3  2  1  0  0  0  0
  6  3  1  0  0  0  0
  7  6  2  0  0  0  0
  7  5  1  0  0  0  0
  8 14  1  0  0  0  0
  9 11  1  0  0  0  0
 10 17  1  6  0  0  0
 10  9  1  0  0  0  0
 10 16  1  0  0  0  0
 11 15  1  0  0  0  0
 11 14  2  0  0  0  0
 12  9  2  0  0  0  0
 12 13  1  0  0  0  0
 13  8  2  0  0  0  0
 16 15  1  1  0  0  0
 18 17  2  0  0  0  0
 19  7  1  1  0  0  0
 20 21  1  1  0  0  0
 22 20  1  0  0  0  0
 22 19  1  1  0  0  0
 24 23  1  1  0  0  0
 24 22  1  0  0  0  0
 24 20  1  0  0  0  0
 25 24  1  0  0  0  0
 26 30  2  0  0  0  0
 26 29  1  0  0  0  0
 27 25  1  0  0  0  0
 28 25  2  0  0  0  0
 29 27  2  0  0  0  0
 30 28  1  0  0  0  0
 31 26  1  0  0  0  0
 32 33  1  0  0  0  0
 33 19  1  6  0  0  0
 34 32  1  0  0  0  0
 34 33  1  0  0  0  0
M  END
>  <MODEL>
2

>  <REMARK>
 VINA RESULT:      -5.6      2.575      5.120
  Name = 
  6 active torsions:
  status: ('A' for Active; 'I' for Inactive)
    1  A    between atoms: C_1  and  C_32
    2  A    between atoms: N_2  and  C_33
    3  A    between atoms: C_9  and  C_19
    4  A    between atoms: C_10  and  C_29
    5  A    between atoms: C_26  and  C_29
    6  A    between atoms: C_29  and  C_34
                            x       y       z     vdW  Elec       q    Type
                         _______ _______ _______ _____ _____    ______ ____

>  <TORSDO>
F 6

$$$$
=
 OpenBabel11042422293D

 34 39  0  0  1  0  0  0  0  0999 V2000
  160.8990  207.5910  149.6110 N   0  0  2  0  0  0  0  0  0  0  0  0
  161.8830  209.6200  148.6350 C   0  0  0  0  0  2  0  0  0  0  0  0
  162.9190  209.9090  149.7160 C   0  0  0  0  0  2  0  0  0  0  0  0
  161.6590  208.1190  148.4820 C   0  0  0  0  0  2  0  0  0  0  0  0
  161.7730  207.4010  150.7690 C   0  0  0  0  0  2  0  0  0  0  0  0
  162.3310  209.7940  151.0930 C   0  0  0  0  0  3  0  0  0  0  0  0
  161.8160  208.6550  151.5880 C   0  0  0  0  0  0  0  0  0  0  0  0
  161.3030  201.9030  150.1920 C   0  0  0  0  0  3  0  0  0  0  0  0
  161.0650  204.1900  148.6830 C   0  0  0  0  0  0  0  0  0  0  0  0
  160.8090  205.5000  148.0350 C   0  0  1  0  0  3  0  0  0  0  0  0
  160.6540  204.1970  149.9840 C   0  0  0  0  0  0  0  0  0  0  0  0
  161.5710  203.0700  148.1030 N   0  0  0  0  0  0  0  0  0  0  0  0
  161.7020  201.9280  148.8400 C   0  0  0  0  0  3  0  0  0  0  0  0
  160.7640  203.0590  150.7770 C   0  0  0  0  0  3  0  0  0  0  0  0
  160.1240  205.4460  150.3790 N   0  0  0  0  0  2  0  0  0  0  0  0
  160.2150  206.3450  149.2250 C   0  0  1  0  0  3  0  0  0  0  0  0
  162.0490  206.0120  147.3640 C   0  0  0  0  0  3  0  0  0  0  0  0
  162.2600  205.7690  146.1890 O   0  0  0  0  0  0  0  0  0  0  0  0
  161.2510  208.6100  152.9790 C   0  0  1  0  0  3  0  0  0  0  0  0
  161.1930  211.0130  153.9720 C   0  0  1  0  0  3  0  0  0  0  0  0
  162.5260  210.6740  154.2270 O   0  0  0  0  0  1  0  0  0  0  0  0
  160.4100  209.8710  153.2880 C   0  0  2  0  0  3  0  0  0  0  0  0
  160.8590  209.2350  155.6590 O   0  0  0  0  0  1  0  0  0  0  0  0
  160.2490  210.1380  154.7810 C   0  0  1  0  0  0  0  0  0  0  0  0
  158.9660  210.7690  155.2160 C   0  0  0  0  0  0  0  0  0  0  0  0
  156.5980  212.0280  156.0250 C   0  0  0  0  0  0  0  0  0  0  0  0
  157.9960  211.1190  154.2680 C   0  0  0  0  0  3  0  0  0  0  0  0
  158.7540  211.0730  156.5680 C   0  0  0  0  0  3  0  0  0  0  0  0
  156.8120  211.7440  154.6730 C   0  0  0  0  0  3  0  0  0  0  0  0
  157.5710  211.6960  156.9710 C   0  0  0  0  0  3  0  0  0  0  0  0
  155.4210  212.6450  156.4260 O   0  0  0  0  0  1  0  0  0  0  0  0
  161.5690  206.1970  153.5140 N   0  0  0  0  0  2  0  0  0  0  0  0
  160.5740  207.2460  153.2410 C   0  0  1  0  0  3  0  0  0  0  0  0
  160.7560  206.7550  154.6070 C   0  0  0  0  0  2  0  0  0  0  0  0
  1  4  1  6  0  0  0
  1  5  1  0  0  0  0
  2  3  1  0  0  0  0
  3  6  1  0  0  0  0
  4  2  1  0  0  0  0
  5  7  1  0  0  0  0
  6  7  2  0  0  0  0
  8 14  1  0  0  0  0
  9 11  1  0  0  0  0
 10 17  1  1  0  0  0
 10  9  1  0  0  0  0
 10 16  1  0  0  0  0
 11 15  1  0  0  0  0
 11 14  2  0  0  0  0
 12  9  2  0  0  0  0
 12 13  1  0  0  0  0
 13  8  2  0  0  0  0
 16  1  1  0  0  0  0
 16 15  1  1  0  0  0
 18 17  2  0  0  0  0
 19  7  1  6  0  0  0
 20 21  1  1  0  0  0
 20 24  1  0  0  0  0
 22 19  1  1  0  0  0
 22 20  1  0  0  0  0
 22 24  1  0  0  0  0
 24 25  1  0  0  0  0
 24 23  1  1  0  0  0
 25 28  1  0  0  0  0
 26 31  1  0  0  0  0
 26 30  1  0  0  0  0
 27 29  1  0  0  0  0
 27 25  2  0  0  0  0
 28 30  2  0  0  0  0
 29 26  2  0  0  0  0
 32 34  1  0  0  0  0
 33 19  1  1  0  0  0
 33 32  1  0  0  0  0
 33 34  1  0  0  0  0
M  END
>  <MODEL>
3

>  <REMARK>
 VINA RESULT:      -5.4      3.722      8.077
  Name = 
  6 active torsions:
  status: ('A' for Active; 'I' for Inactive)
    1  A    between atoms: C_1  and  C_32
    2  A    between atoms: N_2  and  C_33
    3  A    between atoms: C_9  and  C_19
    4  A    between atoms: C_10  and  C_29
    5  A    between atoms: C_26  and  C_29
    6  A    between atoms: C_29  and  C_34
                            x       y       z     vdW  Elec       q    Type
                         _______ _______ _______ _____ _____    ______ ____

>  <TORSDO>
F 6

$$$$
=
 OpenBabel11042422293D

 34 39  0  0  1  0  0  0  0  0999 V2000
  160.9490  205.5560  150.4200 N   0  0  2  0  0  0  0  0  0  0  0  0
  161.7090  203.6540  151.7770 C   0  0  0  0  0  2  0  0  0  0  0  0
  161.2030  204.1300  153.1340 C   0  0  0  0  0  2  0  0  0  0  0  0
  160.7870  204.1240  150.6560 C   0  0  0  0  0  2  0  0  0  0  0  0
  160.2120  206.3240  151.4240 C   0  0  0  0  0  2  0  0  0  0  0  0
  161.5430  205.5730  153.3770 C   0  0  0  0  0  3  0  0  0  0  0  0
  161.0890  206.5820  152.6130 C   0  0  0  0  0  0  0  0  0  0  0  0
  162.0140  204.2080  144.9510 C   0  0  0  0  0  3  0  0  0  0  0  0
  161.7530  206.0080  147.0120 C   0  0  0  0  0  0  0  0  0  0  0  0
  161.4470  206.8500  148.1960 C   0  0  1  0  0  3  0  0  0  0  0  0
  161.1070  204.8090  147.0820 C   0  0  0  0  0  0  0  0  0  0  0  0
  162.5090  206.3480  145.9360 N   0  0  0  0  0  0  0  0  0  0  0  0
  162.6540  205.4620  144.9060 C   0  0  0  0  0  3  0  0  0  0  0  0
  161.2200  203.8730  146.0590 C   0  0  0  0  0  3  0  0  0  0  0  0
  160.3450  204.6710  148.2640 N   0  0  0  0  0  2  0  0  0  0  0  0
  160.5280  205.8960  149.0490 C   0  0  1  0  0  3  0  0  0  0  0  0
  162.7100  207.3550  148.8300 C   0  0  0  0  0  3  0  0  0  0  0  0
  163.2130  208.4000  148.4540 O   0  0  0  0  0  0  0  0  0  0  0  0
  161.4620  208.0040  152.9200 C   0  0  1  0  0  3  0  0  0  0  0  0
  161.3300  209.8540  151.0970 C   0  0  1  0  0  3  0  0  0  0  0  0
  162.7040  209.5900  151.0810 O   0  0  0  0  0  1  0  0  0  0  0  0
  160.5750  209.0020  152.1400 C   0  0  2  0  0  3  0  0  0  0  0  0
  161.9470  210.7090  153.3350 O   0  0  0  0  0  1  0  0  0  0  0  0
  160.9120  210.4610  152.4270 C   0  0  1  0  0  0  0  0  0  0  0  0
  159.7780  211.4340  152.3860 C   0  0  0  0  0  0  0  0  0  0  0  0
  157.6970  213.3090  152.3600 C   0  0  0  0  0  0  0  0  0  0  0  0
  159.7300  212.4190  151.3910 C   0  0  0  0  0  3  0  0  0  0  0  0
  158.7910  211.4070  153.3810 C   0  0  0  0  0  3  0  0  0  0  0  0
  158.6890  213.3520  151.3760 C   0  0  0  0  0  3  0  0  0  0  0  0
  157.7500  212.3390  153.3640 C   0  0  0  0  0  3  0  0  0  0  0  0
  156.6620  214.2340  152.3420 O   0  0  0  0  0  1  0  0  0  0  0  0
  160.2830  208.6730  155.0100 N   0  0  0  0  0  2  0  0  0  0  0  0
  161.5630  208.2160  154.4470 C   0  0  1  0  0  3  0  0  0  0  0  0
  160.7370  207.2900  155.2220 C   0  0  0  0  0  2  0  0  0  0  0  0
  1  4  1  1  0  0  0
  1  5  1  0  0  0  0
  2  3  1  0  0  0  0
  3  6  1  0  0  0  0
  4  2  1  0  0  0  0
  5  7  1  0  0  0  0
  7  6  2  0  0  0  0
  8 14  1  0  0  0  0
  9 11  1  0  0  0  0
  9 10  1  0  0  0  0
 10 17  1  1  0  0  0
 10 16  1  0  0  0  0
 11 15  1  0  0  0  0
 12  9  2  0  0  0  0
 13  8  2  0  0  0  0
 13 12  1  0  0  0  0
 14 11  2  0  0  0  0
 16 15  1  6  0  0  0
 16  1  1  0  0  0  0
 18 17  2  0  0  0  0
 19  7  1  1  0  0  0
 20 21  1  1  0  0  0
 20 22  1  0  0  0  0
 20 24  1  0  0  0  0
 22 24  1  0  0  0  0
 22 19  1  1  0  0  0
 24 23  1  1  0  0  0
 25 24  1  0  0  0  0
 25 28  1  0  0  0  0
 26 30  1  0  0  0  0
 27 25  2  0  0  0  0
 29 27  1  0  0  0  0
 29 26  2  0  0  0  0
 30 28  2  0  0  0  0
 31 26  1  0  0  0  0
 32 34  1  0  0  0  0
 33 19  1  6  0  0  0
 33 32  1  0  0  0  0
 33 34  1  0  0  0  0
M  END
>  <MODEL>
4

>  <REMARK>
 VINA RESULT:      -4.8      3.779      7.858
  Name = 
  6 active torsions:
  status: ('A' for Active; 'I' for Inactive)
    1  A    between atoms: C_1  and  C_32
    2  A    between atoms: N_2  and  C_33
    3  A    between atoms: C_9  and  C_19
    4  A    between atoms: C_10  and  C_29
    5  A    between atoms: C_26  and  C_29
    6  A    between atoms: C_29  and  C_34
                            x       y       z     vdW  Elec       q    Type
                         _______ _______ _______ _____ _____    ______ ____

>  <TORSDO>
F 6

$$$$
=
 OpenBabel11042422293D

 34 39  0  0  1  0  0  0  0  0999 V2000
  161.6210  210.2790  151.7200 N   0  0  2  0  0  0  0  0  0  0  0  0
  160.8280  211.1830  153.8630 C   0  0  0  0  0  2  0  0  0  0  0  0
  159.6490  211.9970  153.3400 C   0  0  0  0  0  2  0  0  0  0  0  0
  161.0450  209.9330  153.0160 C   0  0  0  0  0  2  0  0  0  0  0  0
  160.5810  210.7780  150.8190 C   0  0  0  0  0  2  0  0  0  0  0  0
  160.0250  212.8060  152.1320 C   0  0  0  0  0  3  0  0  0  0  0  0
  160.4410  212.2620  150.9740 C   0  0  0  0  0  0  0  0  0  0  0  0
  160.9220  205.9990  147.9720 C   0  0  0  0  0  3  0  0  0  0  0  0
  161.5480  206.9810  150.4620 C   0  0  0  0  0  0  0  0  0  0  0  0
  161.9780  207.6830  151.6980 C   0  0  1  0  0  3  0  0  0  0  0  0
  161.6730  207.7900  149.3700 C   0  0  0  0  0  0  0  0  0  0  0  0
  161.1420  205.6900  150.3490 N   0  0  0  0  0  0  0  0  0  0  0  0
  160.8210  205.1890  149.1200 C   0  0  0  0  0  3  0  0  0  0  0  0
  161.3600  207.3260  148.0960 C   0  0  0  0  0  3  0  0  0  0  0  0
  162.1460  209.0790  149.7000 N   0  0  0  0  0  2  0  0  0  0  0  0
  162.3310  209.1190  151.1540 C   0  0  1  0  0  3  0  0  0  0  0  0
  160.9250  207.5780  152.7610 C   0  0  0  0  0  3  0  0  0  0  0  0
  160.9580  206.6700  153.5740 O   0  0  0  0  0  0  0  0  0  0  0  0
  160.7930  213.1320  149.8010 C   0  0  1  0  0  3  0  0  0  0  0  0
  162.2330  211.8260  148.0750 C   0  0  1  0  0  3  0  0  0  0  0  0
  163.2320  212.2480  148.9590 O   0  0  0  0  0  1  0  0  0  0  0  0
  160.8290  212.3190  148.4860 C   0  0  2  0  0  3  0  0  0  0  0  0
  162.1570  214.2640  147.6610 O   0  0  0  0  0  1  0  0  0  0  0  0
  161.5990  213.0140  147.3680 C   0  0  1  0  0  0  0  0  0  0  0  0
  161.1180  212.7790  145.9730 C   0  0  0  0  0  0  0  0  0  0  0  0
  160.1890  212.4180  143.3550 C   0  0  0  0  0  0  0  0  0  0  0  0
  161.9710  213.0100  144.8860 C   0  0  0  0  0  3  0  0  0  0  0  0
  159.7920  212.3890  145.7420 C   0  0  0  0  0  3  0  0  0  0  0  0
  161.5080  212.8250  143.5790 C   0  0  0  0  0  3  0  0  0  0  0  0
  159.3310  212.2030  144.4360 C   0  0  0  0  0  3  0  0  0  0  0  0
  159.7320  212.2330  142.0580 O   0  0  0  0  0  1  0  0  0  0  0  0
  159.0350  214.4530  148.6290 N   0  0  0  0  0  2  0  0  0  0  0  0
  159.9250  214.4100  149.8000 C   0  0  1  0  0  3  0  0  0  0  0  0
  158.4950  214.1470  149.9640 C   0  0  0  0  0  2  0  0  0  0  0  0
  1  5  1  6  0  0  0
  1  4  1  0  0  0  0
  3  2  1  0  0  0  0
  4  2  1  0  0  0  0
  5  7  1  0  0  0  0
  6  3  1  0  0  0  0
  7  6  2  0  0  0  0
  8 14  2  0  0  0  0
  8 13  1  0  0  0  0
  9 10  1  0  0  0  0
 10 17  1  1  0  0  0
 11 15  1  0  0  0  0
 11  9  2  0  0  0  0
 12  9  1  0  0  0  0
 13 12  2  0  0  0  0
 14 11  1  0  0  0  0
 16 15  1  6  0  0  0
 16 10  1  0  0  0  0
 16  1  1  0  0  0  0
 17 18  2  0  0  0  0
 19  7  1  1  0  0  0
 20 22  1  0  0  0  0
 20 21  1  1  0  0  0
 22 19  1  1  0  0  0
 24 23  1  1  0  0  0
 24 20  1  0  0  0  0
 24 22  1  0  0  0  0
 25 24  1  0  0  0  0
 26 29  2  0  0  0  0
 26 30  1  0  0  0  0
 27 25  2  0  0  0  0
 28 25  1  0  0  0  0
 29 27  1  0  0  0  0
 30 28  2  0  0  0  0
 31 26  1  0  0  0  0
 32 33  1  0  0  0  0
 32 34  1  0  0  0  0
 33 19  1  6  0  0  0
 33 34  1  0  0  0  0
M  END
>  <MODEL>
5

>  <REMARK>
 VINA RESULT:      -4.7      4.000      7.985
  Name = 
  6 active torsions:
  status: ('A' for Active; 'I' for Inactive)
    1  A    between atoms: C_1  and  C_32
    2  A    between atoms: N_2  and  C_33
    3  A    between atoms: C_9  and  C_19
    4  A    between atoms: C_10  and  C_29
    5  A    between atoms: C_26  and  C_29
    6  A    between atoms: C_29  and  C_34
                            x       y       z     vdW  Elec       q    Type
                         _______ _______ _______ _____ _____    ______ ____

>  <TORSDO>
F 6

$$$$
=
 OpenBabel11042422293D

 34 39  0  0  1  0  0  0  0  0999 V2000
  160.9310  209.3750  152.7680 N   0  0  2  0  0  0  0  0  0  0  0  0
  162.8390  210.3290  151.5490 C   0  0  0  0  0  2  0  0  0  0  0  0
  162.7020  209.5310  150.2580 C   0  0  0  0  0  2  0  0  0  0  0  0
  161.4730  210.5930  152.1730 C   0  0  0  0  0  2  0  0  0  0  0  0
  160.3550  208.5170  151.7320 C   0  0  0  0  0  2  0  0  0  0  0  0
  162.4770  208.0710  150.5290 C   0  0  0  0  0  3  0  0  0  0  0  0
  161.4060  207.5960  151.1900 C   0  0  0  0  0  0  0  0  0  0  0  0
  159.3120  213.7090  156.1520 C   0  0  0  0  0  3  0  0  0  0  0  0
  160.1130  211.1130  155.7300 C   0  0  0  0  0  0  0  0  0  0  0  0
  160.4240  209.7220  155.3150 C   0  0  1  0  0  3  0  0  0  0  0  0
  159.5100  211.8030  154.7190 C   0  0  0  0  0  0  0  0  0  0  0  0
  160.3100  211.6690  156.9530 N   0  0  0  0  0  0  0  0  0  0  0  0
  159.9240  212.9600  157.1770 C   0  0  0  0  0  3  0  0  0  0  0  0
  159.0960  213.1190  154.8980 C   0  0  0  0  0  3  0  0  0  0  0  0
  159.3660  211.0310  153.5450 N   0  0  0  0  0  2  0  0  0  0  0  0
  159.9490  209.7120  153.8130 C   0  0  1  0  0  3  0  0  0  0  0  0
  161.8600  209.3920  155.5960 C   0  0  0  0  0  3  0  0  0  0  0  0
  162.1550  208.6670  156.5310 O   0  0  0  0  0  0  0  0  0  0  0  0
  161.2390  206.1200  151.4190 C   0  0  1  0  0  3  0  0  0  0  0  0
  160.6900  205.6400  148.9230 C   0  0  1  0  0  3  0  0  0  0  0  0
  159.7090  206.5940  149.2110 O   0  0  0  0  0  1  0  0  0  0  0  0
  161.5740  205.3090  150.1450 C   0  0  2  0  0  3  0  0  0  0  0  0
  159.3020  204.3470  150.5100 O   0  0  0  0  0  1  0  0  0  0  0  0
  160.4560  204.3660  149.7190 C   0  0  1  0  0  0  0  0  0  0  0  0
  160.8680  203.0870  149.0630 C   0  0  0  0  0  0  0  0  0  0  0  0
  161.5580  200.6760  147.8160 C   0  0  0  0  0  0  0  0  0  0  0  0
  161.2070  203.0690  147.7040 C   0  0  0  0  0  3  0  0  0  0  0  0
  160.8530  201.8880  149.7890 C   0  0  0  0  0  3  0  0  0  0  0  0
  161.5560  201.8660  147.0830 C   0  0  0  0  0  3  0  0  0  0  0  0
  161.2040  200.6860  149.1680 C   0  0  0  0  0  3  0  0  0  0  0  0
  161.9080  199.4820  147.2000 O   0  0  0  0  0  1  0  0  0  0  0  0
  161.2150  206.1330  153.9100 N   0  0  0  0  0  2  0  0  0  0  0  0
  161.9570  205.6930  152.7180 C   0  0  1  0  0  3  0  0  0  0  0  0
  161.2070  204.7170  153.5080 C   0  0  0  0  0  2  0  0  0  0  0  0
  1  5  1  6  0  0  0
  1 16  1  0  0  0  0
  2  4  1  0  0  0  0
  3  6  1  0  0  0  0
  3  2  1  0  0  0  0
  4  1  1  0  0  0  0
  6  7  2  0  0  0  0
  7  5  1  0  0  0  0
  8 13  1  0  0  0  0
  9 12  1  0  0  0  0
 10 17  1  6  0  0  0
 10  9  1  0  0  0  0
 11 14  1  0  0  0  0
 11  9  2  0  0  0  0
 12 13  2  0  0  0  0
 14  8  2  0  0  0  0
 15 11  1  0  0  0  0
 16 15  1  6  0  0  0
 16 10  1  0  0  0  0
 17 18  2  0  0  0  0
 19  7  1  6  0  0  0
 20 21  1  1  0  0  0
 20 24  1  0  0  0  0
 20 22  1  0  0  0  0
 22 19  1  1  0  0  0
 24 22  1  0  0  0  0
 24 23  1  1  0  0  0
 25 24  1  0  0  0  0
 25 28  1  0  0  0  0
 26 30  1  0  0  0  0
 27 25  2  0  0  0  0
 29 27  1  0  0  0  0
 29 26  2  0  0  0  0
 30 28  2  0  0  0  0
 31 26  1  0  0  0  0
 33 19  1  6  0  0  0
 33 34  1  0  0  0  0
 33 32  1  0  0  0  0
 34 32  1  0  0  0  0
M  END
>  <MODEL>
6

>  <REMARK>
 VINA RESULT:      -4.6      3.146      6.414
  Name = 
  6 active torsions:
  status: ('A' for Active; 'I' for Inactive)
    1  A    between atoms: C_1  and  C_32
    2  A    between atoms: N_2  and  C_33
    3  A    between atoms: C_9  and  C_19
    4  A    between atoms: C_10  and  C_29
    5  A    between atoms: C_26  and  C_29
    6  A    between atoms: C_29  and  C_34
                            x       y       z     vdW  Elec       q    Type
                         _______ _______ _______ _____ _____    ______ ____

>  <TORSDO>
F 6

$$$$
=
 OpenBabel11042422293D

 34 39  0  0  1  0  0  0  0  0999 V2000
  160.9280  209.6700  153.9140 N   0  0  2  0  0  0  0  0  0  0  0  0
  159.8140  207.6330  154.7160 C   0  0  0  0  0  2  0  0  0  0  0  0
  160.8500  206.6140  154.2530 C   0  0  0  0  0  2  0  0  0  0  0  0
  160.4810  208.9490  155.1020 C   0  0  0  0  0  2  0  0  0  0  0  0
  162.1880  209.1110  153.4240 C   0  0  0  0  0  2  0  0  0  0  0  0
  161.2910  206.8740  152.8410 C   0  0  0  0  0  3  0  0  0  0  0  0
  161.9120  208.0030  152.4540 C   0  0  0  0  0  0  0  0  0  0  0  0
  158.6800  213.7450  157.2600 C   0  0  0  0  0  3  0  0  0  0  0  0
  159.4000  212.7230  154.8110 C   0  0  0  0  0  0  0  0  0  0  0  0
  159.9640  212.0860  153.5950 C   0  0  1  0  0  3  0  0  0  0  0  0
  160.0370  212.2860  155.9350 C   0  0  0  0  0  0  0  0  0  0  0  0
  158.4290  213.6720  154.8670 N   0  0  0  0  0  0  0  0  0  0  0  0
  158.0550  214.1850  156.0760 C   0  0  0  0  0  3  0  0  0  0  0  0
  159.6940  212.7790  157.1910 C   0  0  0  0  0  3  0  0  0  0  0  0
  161.0380  211.3290  155.6550 N   0  0  0  0  0  2  0  0  0  0  0  0
  161.0410  211.1100  154.2050 C   0  0  1  0  0  3  0  0  0  0  0  0
  158.8750  211.4890  152.7540 C   0  0  0  0  0  3  0  0  0  0  0  0
  158.5130  212.0430  151.7300 O   0  0  0  0  0  0  0  0  0  0  0  0
  162.3340  208.1930  151.0240 C   0  0  1  0  0  3  0  0  0  0  0  0
  162.7120  206.9180  148.7900 C   0  0  1  0  0  3  0  0  0  0  0  0
  162.5130  208.2150  148.3030 O   0  0  0  0  0  1  0  0  0  0  0  0
  162.5960  206.8370  150.3270 C   0  0  2  0  0  3  0  0  0  0  0  0
  160.3250  207.2220  149.3670 O   0  0  0  0  0  1  0  0  0  0  0  0
  161.4440  206.3840  149.4370 C   0  0  1  0  0  0  0  0  0  0  0  0
  161.2140  204.9110  149.3340 C   0  0  0  0  0  0  0  0  0  0  0  0
  160.8680  202.1370  149.1460 C   0  0  0  0  0  0  0  0  0  0  0  0
  160.9880  204.1500  150.4880 C   0  0  0  0  0  3  0  0  0  0  0  0
  161.2900  204.2720  148.0880 C   0  0  0  0  0  3  0  0  0  0  0  0
  160.8100  202.7660  150.3930 C   0  0  0  0  0  3  0  0  0  0  0  0
  161.1110  202.8900  147.9940 C   0  0  0  0  0  3  0  0  0  0  0  0
  160.6880  200.7640  149.0530 O   0  0  0  0  0  1  0  0  0  0  0  0
  161.4790  210.5270  150.8510 N   0  0  0  0  0  2  0  0  0  0  0  0
  161.3730  209.1650  150.3050 C   0  0  1  0  0  3  0  0  0  0  0  0
  162.0580  210.2050  149.5370 C   0  0  0  0  0  2  0  0  0  0  0  0
  1  5  1  1  0  0  0
  1 16  1  0  0  0  0
  1  4  1  0  0  0  0
  2  4  1  0  0  0  0
  3  2  1  0  0  0  0
  6  3  1  0  0  0  0
  7  6  2  0  0  0  0
  7  5  1  0  0  0  0
  9 12  2  0  0  0  0
  9 11  1  0  0  0  0
 10 17  1  1  0  0  0
 10 16  1  0  0  0  0
 10  9  1  0  0  0  0
 11 14  2  0  0  0  0
 12 13  1  0  0  0  0
 13  8  2  0  0  0  0
 14  8  1  0  0  0  0
 15 11  1  0  0  0  0
 16 15  1  1  0  0  0
 18 17  2  0  0  0  0
 19  7  1  1  0  0  0
 20 21  1  1  0  0  0
 20 24  1  0  0  0  0
 20 22  1  0  0  0  0
 22 19  1  1  0  0  0
 24 23  1  6  0  0  0
 24 22  1  0  0  0  0
 25 24  1  0  0  0  0
 25 27  1  0  0  0  0
 26 29  1  0  0  0  0
 28 25  2  0  0  0  0
 29 27  2  0  0  0  0
 30 28  1  0  0  0  0
 30 26  2  0  0  0  0
 31 26  1  0  0  0  0
 33 32  1  0  0  0  0
 33 19  1  1  0  0  0
 34 33  1  0  0  0  0
 34 32  1  0  0  0  0
M  END
>  <MODEL>
7

>  <REMARK>
 VINA RESULT:      -4.5      2.792      5.679
  Name = 
  6 active torsions:
  status: ('A' for Active; 'I' for Inactive)
    1  A    between atoms: C_1  and  C_32
    2  A    between atoms: N_2  and  C_33
    3  A    between atoms: C_9  and  C_19
    4  A    between atoms: C_10  and  C_29
    5  A    between atoms: C_26  and  C_29
    6  A    between atoms: C_29  and  C_34
                            x       y       z     vdW  Elec       q    Type
                         _______ _______ _______ _____ _____    ______ ____

>  <TORSDO>
F 6

$$$$
=
 OpenBabel11042422293D

 34 39  0  0  1  0  0  0  0  0999 V2000
  161.9420  208.9940  150.4660 N   0  0  2  0  0  0  0  0  0  0  0  0
  161.1510  210.4970  148.6910 C   0  0  0  0  0  2  0  0  0  0  0  0
  161.4870  211.8270  149.3560 C   0  0  0  0  0  2  0  0  0  0  0  0
  162.1560  209.4210  149.0870 C   0  0  0  0  0  2  0  0  0  0  0  0
  162.5280  209.9620  151.3940 C   0  0  0  0  0  2  0  0  0  0  0  0
  161.0450  211.8560  150.7920 C   0  0  0  0  0  3  0  0  0  0  0  0
  161.5200  211.0200  151.7310 C   0  0  0  0  0  0  0  0  0  0  0  0
  160.7250  203.4900  149.4270 C   0  0  0  0  0  3  0  0  0  0  0  0
  161.4020  205.5640  151.1000 C   0  0  0  0  0  0  0  0  0  0  0  0
  161.8890  206.7590  151.8340 C   0  0  1  0  0  3  0  0  0  0  0  0
  161.6930  205.6510  149.7700 C   0  0  0  0  0  0  0  0  0  0  0  0
  160.8030  204.4640  151.6270 N   0  0  0  0  0  0  0  0  0  0  0  0
  160.4550  203.4280  150.8080 C   0  0  0  0  0  3  0  0  0  0  0  0
  161.3610  204.6220  148.8940 C   0  0  0  0  0  3  0  0  0  0  0  0
  162.3490  206.8570  149.4370 N   0  0  0  0  0  2  0  0  0  0  0  0
  162.4830  207.6390  150.6690 C   0  0  1  0  0  3  0  0  0  0  0  0
  160.7930  207.3530  152.6680 C   0  0  0  0  0  3  0  0  0  0  0  0
  160.5690  206.9240  153.7870 O   0  0  0  0  0  0  0  0  0  0  0  0
  161.0400  211.1110  153.1520 C   0  0  1  0  0  3  0  0  0  0  0  0
  158.8060  212.3820  152.7630 C   0  0  1  0  0  3  0  0  0  0  0  0
  159.7200  213.3740  152.3930 O   0  0  0  0  0  1  0  0  0  0  0  0
  159.4960  211.0820  153.2290 C   0  0  2  0  0  3  0  0  0  0  0  0
  159.8380  212.8420  154.9640 O   0  0  0  0  0  1  0  0  0  0  0  0
  158.9240  212.0640  154.2450 C   0  0  1  0  0  0  0  0  0  0  0  0
  157.6650  211.6560  154.9400 C   0  0  0  0  0  0  0  0  0  0  0  0
  155.3440  210.8190  156.2680 C   0  0  0  0  0  0  0  0  0  0  0  0
  157.4410  212.0320  156.2700 C   0  0  0  0  0  3  0  0  0  0  0  0
  156.7320  210.8390  154.2850 C   0  0  0  0  0  3  0  0  0  0  0  0
  156.2800  211.6180  156.9320 C   0  0  0  0  0  3  0  0  0  0  0  0
  155.5720  210.4270  154.9460 C   0  0  0  0  0  3  0  0  0  0  0  0
  154.1910  210.4120  156.9240 O   0  0  0  0  0  1  0  0  0  0  0  0
  162.4020  210.7560  155.2080 N   0  0  0  0  0  2  0  0  0  0  0  0
  161.7950  210.0980  154.0410 C   0  0  1  0  0  3  0  0  0  0  0  0
  161.1990  209.9230  155.3660 C   0  0  0  0  0  2  0  0  0  0  0  0
  1  4  1  6  0  0  0
  1 16  1  0  0  0  0
  1  5  1  0  0  0  0
  2  4  1  0  0  0  0
  2  3  1  0  0  0  0
  3  6  1  0  0  0  0
  5  7  1  0  0  0  0
  6  7  2  0  0  0  0
  8 13  1  0  0  0  0
  9 12  1  0  0  0  0
  9 10  1  0  0  0  0
 10 17  1  6  0  0  0
 11  9  2  0  0  0  0
 13 12  2  0  0  0  0
 14  8  2  0  0  0  0
 14 11  1  0  0  0  0
 15 11  1  0  0  0  0
 16 15  1  6  0  0  0
 16 10  1  0  0  0  0
 17 18  2  0  0  0  0
 19  7  1  6  0  0  0
 20 21  1  1  0  0  0
 20 22  1  0  0  0  0
 20 24  1  0  0  0  0
 22 19  1  1  0  0  0
 22 24  1  0  0  0  0
 24 25  1  0  0  0  0
 24 23  1  1  0  0  0
 25 27  1  0  0  0  0
 26 31  1  0  0  0  0
 26 29  1  0  0  0  0
 27 29  2  0  0  0  0
 28 25  2  0  0  0  0
 28 30  1  0  0  0  0
 30 26  2  0  0  0  0
 32 34  1  0  0  0  0
 33 19  1  6  0  0  0
 33 32  1  0  0  0  0
 33 34  1  0  0  0  0
M  END
>  <MODEL>
8

>  <REMARK>
 VINA RESULT:      -4.5      3.158      7.435
  Name = 
  6 active torsions:
  status: ('A' for Active; 'I' for Inactive)
    1  A    between atoms: C_1  and  C_32
    2  A    between atoms: N_2  and  C_33
    3  A    between atoms: C_9  and  C_19
    4  A    between atoms: C_10  and  C_29
    5  A    between atoms: C_26  and  C_29
    6  A    between atoms: C_29  and  C_34
                            x       y       z     vdW  Elec       q    Type
                         _______ _______ _______ _____ _____    ______ ____

>  <TORSDO>
F 6

$$$$
=
 OpenBabel11042422293D

 34 39  0  0  1  0  0  0  0  0999 V2000
  162.0040  206.5120  149.3050 N   0  0  2  0  0  0  0  0  0  0  0  0
  161.3790  208.4160  147.8820 C   0  0  0  0  0  2  0  0  0  0  0  0
  161.9480  209.5370  148.7450 C   0  0  0  0  0  2  0  0  0  0  0  0
  162.2210  207.1500  148.0100 C   0  0  0  0  0  2  0  0  0  0  0  0
  162.7730  207.1970  150.3440 C   0  0  0  0  0  2  0  0  0  0  0  0
  161.5800  209.3650  150.1910 C   0  0  0  0  0  3  0  0  0  0  0  0
  161.9590  208.3090  150.9330 C   0  0  0  0  0  0  0  0  0  0  0  0
  160.5250  201.7230  146.5240 C   0  0  0  0  0  3  0  0  0  0  0  0
  160.9740  203.1720  148.8170 C   0  0  0  0  0  0  0  0  0  0  0  0
  161.3830  204.0480  149.9430 C   0  0  1  0  0  3  0  0  0  0  0  0
  161.5940  203.5380  147.6590 C   0  0  0  0  0  0  0  0  0  0  0  0
  160.1530  202.0900  148.8740 N   0  0  0  0  0  0  0  0  0  0  0  0
  159.9140  201.3640  147.7420 C   0  0  0  0  0  3  0  0  0  0  0  0
  161.3860  202.8300  146.4790 C   0  0  0  0  0  3  0  0  0  0  0  0
  162.4330  204.6630  147.8250 N   0  0  0  0  0  2  0  0  0  0  0  0
  162.3360  205.0790  149.2270 C   0  0  1  0  0  3  0  0  0  0  0  0
  160.1810  204.5880  150.6600 C   0  0  0  0  0  3  0  0  0  0  0  0
  159.7530  204.0280  151.6550 O   0  0  0  0  0  0  0  0  0  0  0  0
  161.5620  208.2050  152.3780 C   0  0  1  0  0  3  0  0  0  0  0  0
  161.5090  210.7010  153.1060 C   0  0  1  0  0  3  0  0  0  0  0  0
  162.8880  210.5170  152.9570 O   0  0  0  0  0  1  0  0  0  0  0  0
  160.7040  209.4160  152.8160 C   0  0  2  0  0  3  0  0  0  0  0  0
  161.9270  209.1320  154.9730 O   0  0  0  0  0  1  0  0  0  0  0  0
  160.9720  209.8570  154.2510 C   0  0  1  0  0  0  0  0  0  0  0  0
  159.8140  210.4230  155.0070 C   0  0  0  0  0  0  0  0  0  0  0  0
  157.6860  211.5550  156.4360 C   0  0  0  0  0  0  0  0  0  0  0  0
  158.7960  211.1060  154.3300 C   0  0  0  0  0  3  0  0  0  0  0  0
  159.7730  210.3300  156.4060 C   0  0  0  0  0  3  0  0  0  0  0  0
  157.7310  211.6680  155.0430 C   0  0  0  0  0  3  0  0  0  0  0  0
  158.7090  210.8900  157.1170 C   0  0  0  0  0  3  0  0  0  0  0  0
  156.6280  212.1100  157.1420 O   0  0  0  0  0  1  0  0  0  0  0  0
  161.9540  205.9670  153.3990 N   0  0  0  0  0  2  0  0  0  0  0  0
  160.9830  206.8040  152.6780 C   0  0  1  0  0  3  0  0  0  0  0  0
  160.7960  206.5410  154.1040 C   0  0  0  0  0  2  0  0  0  0  0  0
  1  4  1  6  0  0  0
  1  5  1  0  0  0  0
  2  4  1  0  0  0  0
  2  3  1  0  0  0  0
  3  6  1  0  0  0  0
  5  7  1  0  0  0  0
  6  7  2  0  0  0  0
  8 13  1  0  0  0  0
  9 12  1  0  0  0  0
  9 10  1  0  0  0  0
 10 17  1  6  0  0  0
 11 15  1  0  0  0  0
 11  9  2  0  0  0  0
 13 12  2  0  0  0  0
 14  8  2  0  0  0  0
 14 11  1  0  0  0  0
 16 15  1  6  0  0  0
 16  1  1  0  0  0  0
 16 10  1  0  0  0  0
 17 18  2  0  0  0  0
 19  7  1  6  0  0  0
 20 21  1  1  0  0  0
 20 24  1  0  0  0  0
 22 19  1  1  0  0  0
 22 20  1  0  0  0  0
 22 24  1  0  0  0  0
 24 23  1  1  0  0  0
 24 25  1  0  0  0  0
 25 28  1  0  0  0  0
 26 30  1  0  0  0  0
 26 31  1  0  0  0  0
 27 25  2  0  0  0  0
 27 29  1  0  0  0  0
 28 30  2  0  0  0  0
 29 26  2  0  0  0  0
 32 34  1  0  0  0  0
 33 19  1  1  0  0  0
 33 32  1  0  0  0  0
 33 34  1  0  0  0  0
M  END
>  <MODEL>
9

>  <REMARK>
 VINA RESULT:      -4.4      4.114      8.499
  Name = 
  6 active torsions:
  status: ('A' for Active; 'I' for Inactive)
    1  A    between atoms: C_1  and  C_32
    2  A    between atoms: N_2  and  C_33
    3  A    between atoms: C_9  and  C_19
    4  A    between atoms: C_10  and  C_29
    5  A    between atoms: C_26  and  C_29
    6  A    between atoms: C_29  and  C_34
                            x       y       z     vdW  Elec       q    Type
                         _______ _______ _______ _____ _____    ______ ____

>  <TORSDO>
F 6

$$$$
