=
 OpenBabel11052411483D

 40 45  0  0  1  0  0  0  0  0999 V2000
  162.8700  203.5130  146.6190 C   0  0  0  0  0  2  0  0  0  0  0  0
  161.3490  206.3660  149.3630 C   0  0  1  0  0  0  0  0  0  0  0  0
  161.0840  202.0820  149.2520 C   0  0  0  0  0  2  0  0  0  0  0  0
  162.6120  211.1130  148.5770 C   0  0  0  0  0  2  0  0  0  0  0  0
  161.5770  207.9710  151.2870 C   0  0  0  0  0  0  0  0  0  0  0  0
  160.3360  204.0930  149.7730 C   0  0  0  0  0  2  0  0  0  0  0  0
  160.1340  205.4590  149.1320 C   0  0  1  0  0  3  0  0  0  0  0  0
  161.9680  205.8680  146.9500 C   0  0  0  0  0  2  0  0  0  0  0  0
  162.0180  208.7590  149.0330 C   0  0  1  0  0  3  0  0  0  0  0  0
  161.8040  206.5680  150.8380 C   0  0  2  0  0  3  0  0  0  0  0  0
  161.5820  203.0280  146.0120 C   0  0  0  0  0  0  0  0  0  0  0  0
  162.3180  206.5650  148.2630 C   0  0  1  0  0  3  0  0  0  0  0  0
  161.1050  209.7840  152.4530 C   0  0  0  0  0  0  0  0  0  0  0  0
  161.6510  208.9980  150.4310 N   0  0  0  0  0  0  0  0  0  0  0  0
  161.3000  211.5120  150.6370 C   0  0  0  0  0  3  0  0  0  0  0  0
  161.2690  203.4060  144.8480 O   0  0  0  0  0  0  0  0  0  0  0  0
  161.2900  207.5940  148.5110 N   0  0  1  0  0  0  0  0  0  0  0  0
  160.7170  202.1300  146.7300 N   0  0  0  0  0  0  0  0  0  0  0  0
  161.8100  211.9770  149.4940 C   0  0  0  0  0  0  0  0  0  0  0  0
  161.3780  210.1260  151.1400 C   0  0  0  0  0  0  0  0  0  0  0  0
  163.2470  206.1530  151.0680 C   0  0  0  0  0  1  0  0  0  0  0  0
  161.2450  208.4060  152.5530 C   0  0  0  0  0  0  0  0  0  0  0  0
  161.7670  209.9470  148.1220 C   0  0  0  0  0  2  0  0  0  0  0  0
  161.1600  201.4390  147.9030 C   0  0  0  0  0  0  0  0  0  0  0  0
  161.4060  203.4350  149.1680 O   0  0  0  0  0  0  0  0  0  0  0  0
  164.3520  205.3910  146.8430 O   0  0  0  0  0  1  0  0  0  0  0  0
  163.0940  205.0040  146.3720 C   0  0  1  0  0  3  0  0  0  0  0  0
  161.5020  200.2300  147.8230 O   0  0  0  0  0  0  0  0  0  0  0  0
  158.9870  206.0520  149.6610 O   0  0  0  0  0  1  0  0  0  0  0  0
  160.9600  207.5400  153.7370 C   0  0  0  0  0  2  0  0  0  0  0  0
  161.5350  208.1060  154.8730 O   0  0  0  0  0  1  0  0  0  0  0  0
  159.4260  201.7610  146.1660 C   0  0  0  0  0  2  0  0  0  0  0  0
  159.6130  200.9840  145.0230 O   0  0  0  0  0  1  0  0  0  0  0  0
  161.5640  213.3430  149.1520 N   0  0  0  0  0  2  0  0  0  0  0  0
  159.6880  213.0090  147.6560 C   0  0  0  0  0  2  0  0  0  0  0  0
  159.6820  214.4520  148.1060 C   0  0  0  0  0  2  0  0  0  0  0  0
  160.9990  213.7370  147.8720 C   0  0  0  0  0  3  0  0  0  0  0  0
  160.7530  210.6930  153.4570 O   0  0  0  0  0  0  0  0  0  0  0  0
  158.5800  211.6640  153.0990 C   0  0  0  0  0  1  0  0  0  0  0  0
  159.4410  210.7970  153.9930 C   0  0  0  0  0  2  0  0  0  0  0  0
  2 10  1  0  0  0  0
  4 19  1  0  0  0  0
  5 22  2  0  0  0  0
  7  2  1  0  0  0  0
  7 29  1  0  0  0  0
  7  6  1  0  0  0  0
  8 12  1  0  0  0  0
  9 14  1  0  0  0  0
 10 21  1  0  0  0  0
 10  5  1  0  0  0  0
 11  1  1  0  0  0  0
 11 18  1  0  0  0  0
 12 17  1  0  0  0  0
 12  2  1  0  0  0  0
 13 22  1  0  0  0  0
 13 38  1  0  0  0  0
 14 20  1  0  0  0  0
 14  5  1  0  0  0  0
 15 20  1  0  0  0  0
 16 11  2  0  0  0  0
 17  9  1  0  0  0  0
 17  2  1  0  0  0  0
 18 24  1  0  0  0  0
 19 15  2  0  0  0  0
 20 13  2  0  0  0  0
 22 30  1  0  0  0  0
 23  4  1  0  0  0  0
 23  9  1  0  0  0  0
 24  3  1  0  0  0  0
 25  3  1  0  0  0  0
 25  6  1  0  0  0  0
 27  1  1  0  0  0  0
 27 26  1  0  0  0  0
 27  8  1  0  0  0  0
 28 24  2  0  0  0  0
 30 31  1  0  0  0  0
 32 18  1  0  0  0  0
 33 32  1  0  0  0  0
 34 19  1  0  0  0  0
 35 37  1  0  0  0  0
 35 36  1  0  0  0  0
 37 36  1  0  0  0  0
 37 34  1  0  0  0  0
 38 40  1  0  0  0  0
 39 40  1  0  0  0  0
M  END
>  <MODEL>
1

>  <REMARK>
 VINA RESULT:      -2.6      0.000      0.000
  Name = 
  6 active torsions:
  status: ('A' for Active; 'I' for Inactive)
    1  A    between atoms: N_5  and  C_24
    2  A    between atoms: N_5  and  C_36
    3  A    between atoms: C_15  and  O_29
    4  A    between atoms: C_18  and  C_31
    5  A    between atoms: N_23  and  C_27
    6  A    between atoms: C_25  and  O_29
                            x       y       z     vdW  Elec       q    Type
                         _______ _______ _______ _____ _____    ______ ____

>  <TORSDO>
F 6

$$$$
=
 OpenBabel11052411483D

 40 45  0  0  1  0  0  0  0  0999 V2000
  160.5120  210.8140  156.5430 C   0  0  0  0  0  2  0  0  0  0  0  0
  160.6680  209.5390  152.5020 C   0  0  1  0  0  0  0  0  0  0  0  0
  160.0490  213.4080  154.2580 C   0  0  0  0  0  2  0  0  0  0  0  0
  161.7860  204.7560  151.7120 C   0  0  0  0  0  2  0  0  0  0  0  0
  161.8880  208.8310  150.4190 C   0  0  0  0  0  0  0  0  0  0  0  0
  159.7870  211.8970  152.6700 C   0  0  0  0  0  2  0  0  0  0  0  0
  159.4180  210.4280  152.5140 C   0  0  1  0  0  3  0  0  0  0  0  0
  160.0540  208.9350  154.8910 C   0  0  0  0  0  2  0  0  0  0  0  0
  161.2910  207.1510  152.0660 C   0  0  1  0  0  3  0  0  0  0  0  0
  161.7700  209.8910  151.4610 C   0  0  2  0  0  3  0  0  0  0  0  0
  159.0570  211.1790  156.6420 C   0  0  0  0  0  0  0  0  0  0  0  0
  161.0270  208.7870  153.7240 C   0  0  1  0  0  3  0  0  0  0  0  0
  162.1540  207.7230  148.5300 C   0  0  0  0  0  0  0  0  0  0  0  0
  161.6350  207.5460  150.6980 N   0  0  0  0  0  0  0  0  0  0  0  0
  161.6170  205.4000  149.3280 C   0  0  0  0  0  3  0  0  0  0  0  0
  158.2690  210.4080  157.2610 O   0  0  0  0  0  0  0  0  0  0  0  0
  160.3150  208.0910  152.6340 N   0  0  1  0  0  0  0  0  0  0  0  0
  158.5570  212.3960  156.0600 N   0  0  0  0  0  0  0  0  0  0  0  0
  161.5720  204.4510  150.2650 C   0  0  0  0  0  0  0  0  0  0  0  0
  161.8110  206.8480  149.5450 C   0  0  0  0  0  0  0  0  0  0  0  0
  163.1180  210.1680  152.1050 C   0  0  0  0  0  1  0  0  0  0  0  0
  162.2170  208.9930  149.0890 C   0  0  0  0  0  0  0  0  0  0  0  0
  160.7380  205.7410  152.1750 C   0  0  0  0  0  2  0  0  0  0  0  0
  159.4390  213.4360  155.6230 C   0  0  0  0  0  0  0  0  0  0  0  0
  160.3990  212.1070  153.9050 O   0  0  0  0  0  0  0  0  0  0  0  0
  162.0700  209.0070  156.2530 O   0  0  0  0  0  1  0  0  0  0  0  0
  160.7110  209.3340  156.2170 C   0  0  1  0  0  3  0  0  0  0  0  0
  159.6100  214.4530  156.3460 O   0  0  0  0  0  0  0  0  0  0  0  0
  158.6990  210.2560  151.3300 O   0  0  0  0  0  1  0  0  0  0  0  0
  162.4480  210.2910  148.3880 C   0  0  0  0  0  2  0  0  0  0  0  0
  161.2280  210.8050  147.9530 O   0  0  0  0  0  1  0  0  0  0  0  0
  157.1280  212.6740  156.0750 C   0  0  0  0  0  2  0  0  0  0  0  0
  156.6680  212.8650  154.7730 O   0  0  0  0  0  1  0  0  0  0  0  0
  161.3020  203.1080  149.8540 N   0  0  0  0  0  2  0  0  0  0  0  0
  160.7470  201.6120  148.0320 C   0  0  0  0  0  2  0  0  0  0  0  0
  159.7490  201.3900  149.1450 C   0  0  0  0  0  2  0  0  0  0  0  0
  160.2810  202.7830  148.8710 C   0  0  0  0  0  3  0  0  0  0  0  0
  162.3800  207.3510  147.1990 O   0  0  0  0  0  0  0  0  0  0  0  0
  162.7200  205.3880  145.8490 C   0  0  0  0  0  1  0  0  0  0  0  0
  161.7160  206.2670  146.5660 C   0  0  0  0  0  2  0  0  0  0  0  0
  1 11  1  0  0  0  0
  2  7  1  0  0  0  0
  2 17  1  0  0  0  0
  2 12  1  0  0  0  0
  3 24  1  0  0  0  0
  4 23  1  0  0  0  0
  5 14  1  0  0  0  0
  5 10  1  0  0  0  0
  6 25  1  0  0  0  0
  7  6  1  0  0  0  0
  8 27  1  0  0  0  0
  9 23  1  0  0  0  0
  9 17  1  0  0  0  0
 10 21  1  0  0  0  0
 10  2  1  0  0  0  0
 11 16  2  0  0  0  0
 12  8  1  0  0  0  0
 13 22  1  0  0  0  0
 13 20  2  0  0  0  0
 14  9  1  0  0  0  0
 15 20  1  0  0  0  0
 15 19  2  0  0  0  0
 17 12  1  0  0  0  0
 18 32  1  0  0  0  0
 18 11  1  0  0  0  0
 19  4  1  0  0  0  0
 20 14  1  0  0  0  0
 22  5  2  0  0  0  0
 24 18  1  0  0  0  0
 24 28  2  0  0  0  0
 25  3  1  0  0  0  0
 27 26  1  0  0  0  0
 27  1  1  0  0  0  0
 29  7  1  0  0  0  0
 30 22  1  0  0  0  0
 31 30  1  0  0  0  0
 33 32  1  0  0  0  0
 34 19  1  0  0  0  0
 35 37  1  0  0  0  0
 35 36  1  0  0  0  0
 37 36  1  0  0  0  0
 37 34  1  0  0  0  0
 38 13  1  0  0  0  0
 39 40  1  0  0  0  0
 40 38  1  0  0  0  0
M  END
>  <MODEL>
2

>  <REMARK>
 VINA RESULT:      -1.9      2.908      9.494
  Name = 
  6 active torsions:
  status: ('A' for Active; 'I' for Inactive)
    1  A    between atoms: N_5  and  C_24
    2  A    between atoms: N_5  and  C_36
    3  A    between atoms: C_15  and  O_29
    4  A    between atoms: C_18  and  C_31
    5  A    between atoms: N_23  and  C_27
    6  A    between atoms: C_25  and  O_29
                            x       y       z     vdW  Elec       q    Type
                         _______ _______ _______ _____ _____    ______ ____

>  <TORSDO>
F 6

$$$$
=
 OpenBabel11052411483D

 40 45  0  0  1  0  0  0  0  0999 V2000
  162.7550  203.3940  146.5020 C   0  0  0  0  0  2  0  0  0  0  0  0
  161.3690  205.9540  149.5850 C   0  0  1  0  0  0  0  0  0  0  0  0
  161.3060  201.6800  149.1720 C   0  0  0  0  0  2  0  0  0  0  0  0
  162.3150  210.8080  149.0490 C   0  0  0  0  0  2  0  0  0  0  0  0
  161.7030  207.4280  151.5960 C   0  0  0  0  0  0  0  0  0  0  0  0
  160.5130  203.6040  149.9120 C   0  0  0  0  0  2  0  0  0  0  0  0
  160.1840  204.9990  149.3990 C   0  0  1  0  0  3  0  0  0  0  0  0
  161.7750  205.6650  147.0940 C   0  0  0  0  0  2  0  0  0  0  0  0
  161.8840  208.3980  149.3780 C   0  0  1  0  0  3  0  0  0  0  0  0
  161.9540  206.0750  151.0220 C   0  0  2  0  0  3  0  0  0  0  0  0
  161.4400  202.8820  145.9820 C   0  0  0  0  0  0  0  0  0  0  0  0
  162.2160  206.2850  148.4180 C   0  0  1  0  0  3  0  0  0  0  0  0
  161.2570  209.1240  152.9360 C   0  0  0  0  0  0  0  0  0  0  0  0
  161.6430  208.5160  150.8180 N   0  0  0  0  0  0  0  0  0  0  0  0
  161.1910  210.9850  151.2470 C   0  0  0  0  0  3  0  0  0  0  0  0
  160.9980  203.3240  144.8840 O   0  0  0  0  0  0  0  0  0  0  0  0
  161.1670  207.2340  148.8380 N   0  0  1  0  0  0  0  0  0  0  0  0
  160.6950  201.8880  146.7060 N   0  0  0  0  0  0  0  0  0  0  0  0
  161.5640  211.5580  150.1010 C   0  0  0  0  0  0  0  0  0  0  0  0
  161.3840  209.5730  151.6330 C   0  0  0  0  0  0  0  0  0  0  0  0
  163.4320  205.7270  151.0850 C   0  0  0  0  0  1  0  0  0  0  0  0
  161.4740  207.7520  152.9170 C   0  0  0  0  0  0  0  0  0  0  0  0
  161.4880  209.6320  148.5870 C   0  0  0  0  0  2  0  0  0  0  0  0
  161.2820  201.1410  147.7770 C   0  0  0  0  0  0  0  0  0  0  0  0
  161.5510  203.0520  149.1620 O   0  0  0  0  0  0  0  0  0  0  0  0
  164.1580  205.3320  146.7300 O   0  0  0  0  0  1  0  0  0  0  0  0
  162.8810  204.9090  146.3500 C   0  0  1  0  0  3  0  0  0  0  0  0
  161.6740  199.9620  147.5740 O   0  0  0  0  0  0  0  0  0  0  0  0
  159.0660  205.4880  150.0760 O   0  0  0  0  0  1  0  0  0  0  0  0
  161.3480  206.7900  154.0530 C   0  0  0  0  0  2  0  0  0  0  0  0
  160.4530  205.7800  153.7050 O   0  0  0  0  0  1  0  0  0  0  0  0
  159.3750  201.4870  146.2380 C   0  0  0  0  0  2  0  0  0  0  0  0
  159.4930  200.7500  145.0600 O   0  0  0  0  0  1  0  0  0  0  0  0
  161.2190  212.9300  149.8880 N   0  0  0  0  0  2  0  0  0  0  0  0
  159.2770  214.3230  149.4950 C   0  0  0  0  0  2  0  0  0  0  0  0
  158.7980  212.9670  149.9590 C   0  0  0  0  0  2  0  0  0  0  0  0
  160.0740  213.5550  150.5290 C   0  0  0  0  0  3  0  0  0  0  0  0
  160.9590  209.9380  154.0350 O   0  0  0  0  0  0  0  0  0  0  0  0
  160.3550  209.5090  156.3240 C   0  0  0  0  0  1  0  0  0  0  0  0
  161.4840  209.7180  155.3370 C   0  0  0  0  0  2  0  0  0  0  0  0
  2 10  1  0  0  0  0
  4 19  1  0  0  0  0
  5 22  2  0  0  0  0
  7  2  1  0  0  0  0
  7  6  1  0  0  0  0
  7 29  1  0  0  0  0
  8 12  1  0  0  0  0
  9 14  1  0  0  0  0
 10 21  1  0  0  0  0
 10  5  1  0  0  0  0
 11  1  1  0  0  0  0
 11 18  1  0  0  0  0
 12 17  1  0  0  0  0
 12  2  1  0  0  0  0
 13 38  1  0  0  0  0
 14  5  1  0  0  0  0
 14 20  1  0  0  0  0
 15 20  1  0  0  0  0
 16 11  2  0  0  0  0
 17  9  1  0  0  0  0
 17  2  1  0  0  0  0
 18 24  1  0  0  0  0
 19 15  2  0  0  0  0
 20 13  2  0  0  0  0
 22 13  1  0  0  0  0
 22 30  1  0  0  0  0
 23  4  1  0  0  0  0
 23  9  1  0  0  0  0
 24  3  1  0  0  0  0
 25  3  1  0  0  0  0
 25  6  1  0  0  0  0
 27  1  1  0  0  0  0
 27 26  1  0  0  0  0
 27  8  1  0  0  0  0
 28 24  2  0  0  0  0
 31 30  1  0  0  0  0
 32 18  1  0  0  0  0
 33 32  1  0  0  0  0
 34 19  1  0  0  0  0
 34 37  1  0  0  0  0
 35 36  1  0  0  0  0
 35 37  1  0  0  0  0
 36 37  1  0  0  0  0
 38 40  1  0  0  0  0
 40 39  1  0  0  0  0
M  END
>  <MODEL>
3

>  <REMARK>
 VINA RESULT:      -0.6      1.091      1.264
  Name = 
  6 active torsions:
  status: ('A' for Active; 'I' for Inactive)
    1  A    between atoms: N_5  and  C_24
    2  A    between atoms: N_5  and  C_36
    3  A    between atoms: C_15  and  O_29
    4  A    between atoms: C_18  and  C_31
    5  A    between atoms: N_23  and  C_27
    6  A    between atoms: C_25  and  O_29
                            x       y       z     vdW  Elec       q    Type
                         _______ _______ _______ _____ _____    ______ ____

>  <TORSDO>
F 6

$$$$
