=
 OpenBabel11042420403D

 45 50  0  0  1  0  0  0  0  0999 V2000
  158.8450  213.3640  150.9140 C   0  0  0  0  0  2  0  0  0  0  0  0
  161.3570  210.7960  153.1390 C   0  0  0  0  0  2  0  0  0  0  0  0
  162.1070  209.2650  151.2220 C   0  0  0  0  0  0  0  0  0  0  0  0
  159.6560  212.4760  150.1860 O   0  0  0  0  0  0  0  0  0  0  0  0
  160.2560  211.2670  152.1840 C   0  0  1  0  0  3  0  0  0  0  0  0
  161.6190  210.8400  147.9500 O   0  0  0  0  0  0  0  0  0  0  0  0
  159.1940  212.0210  152.9770 C   0  0  0  0  0  2  0  0  0  0  0  0
  161.9120  211.5400  150.1940 C   0  0  2  0  0  3  0  0  0  0  0  0
  161.5870  209.7070  148.7360 C   0  0  0  0  0  0  0  0  0  0  0  0
  160.7520  212.1560  151.0150 C   0  0  1  0  0  3  0  0  0  0  0  0
  161.9080  212.0040  148.7180 C   0  0  1  0  0  3  0  0  0  0  0  0
  158.1410  212.6080  152.0430 C   0  0  1  0  0  3  0  0  0  0  0  0
  161.8530  210.0370  150.1320 C   0  0  0  0  0  0  0  0  0  0  0  0
  162.4930  209.9890  152.4890 C   0  0  0  0  0  2  0  0  0  0  0  0
  161.3210  208.5740  148.2630 O   0  0  0  0  0  0  0  0  0  0  0  0
  160.8610  206.9380  151.2060 C   0  0  1  0  0  3  0  0  0  0  0  0
  161.6010  207.0950  152.5420 C   0  0  0  0  0  2  0  0  0  0  0  0
  162.1440  207.7480  151.3010 C   0  0  2  0  0  0  0  0  0  0  0  0
  163.3070  207.1210  150.8360 O   0  0  0  0  0  1  0  0  0  0  0  0
  161.0880  205.5610  150.6800 C   0  0  0  0  0  3  0  0  0  0  0  0
  160.8810  205.2940  149.3970 C   0  0  0  0  0  3  0  0  0  0  0  0
  161.1010  203.9530  148.8460 C   0  0  0  0  0  0  0  0  0  0  0  0
  160.8200  202.9440  149.5420 O   0  0  0  0  0  0  0  0  0  0  0  0
  161.6280  203.7770  147.5320 N   0  0  0  0  0  1  0  0  0  0  0  0
  163.2550  212.5900  148.2940 C   0  0  1  0  0  3  0  0  0  0  0  0
  164.0960  211.5360  147.5920 C   0  0  0  0  0  1  0  0  0  0  0  0
  163.0680  213.7490  147.4270 N   0  0  0  0  0  2  0  0  0  0  0  0
  161.6720  212.4000  141.5510 C   0  0  0  0  0  2  0  0  0  0  0  0
  162.2590  213.7440  146.2480 C   0  0  0  0  0  0  0  0  0  0  0  0
  160.6100  213.4890  141.4160 C   0  0  0  0  0  2  0  0  0  0  0  0
  159.9530  213.7170  142.7030 N   0  0  0  0  0  2  0  0  0  0  0  0
  162.8010  213.2530  145.0560 C   0  0  0  0  0  3  0  0  0  0  0  0
  160.9320  214.2040  146.2710 C   0  0  0  0  0  3  0  0  0  0  0  0
  162.0270  213.2260  143.8940 C   0  0  0  0  0  0  0  0  0  0  0  0
  160.7130  213.7130  143.9130 C   0  0  0  0  0  0  0  0  0  0  0  0
  162.5570  212.6950  142.6760 N   0  0  0  0  0  2  0  0  0  0  0  0
  160.1610  214.1900  145.1040 C   0  0  0  0  0  3  0  0  0  0  0  0
  157.3200  213.4820  152.7590 O   0  0  0  0  0  0  0  0  0  0  0  0
  157.2170  212.8430  154.3270 P   0  0  2  0  0  0  0  0  0  0  0  0
  157.1660  211.3320  154.2650 O   0  0  0  0  0  0  0  0  0  0  0  0
  155.8050  213.4140  155.0610 O   0  0  0  0  0  1  0  0  0  0  0  0
  157.9860  211.8630  157.2580 C   0  0  0  0  0  1  0  0  0  0  0  0
  159.9120  213.2440  157.1980 O   0  0  0  0  0  0  0  0  0  0  0  0
  158.8870  212.8440  156.5890 C   0  0  0  0  0  0  0  0  0  0  0  0
  158.6080  213.3460  155.2790 N   0  0  0  0  0  2  0  0  0  0  0  0
  1 12  1  0  0  0  0
  3 18  1  0  0  0  0
  3 14  1  0  0  0  0
  4  1  1  0  0  0  0
  5  7  1  1  0  0  0
  5  2  1  0  0  0  0
  6 11  1  0  0  0  0
  6  9  1  0  0  0  0
  8 13  1  6  0  0  0
  8 10  1  0  0  0  0
  9 13  1  0  0  0  0
 10  4  1  6  0  0  0
 10  5  1  0  0  0  0
 11 25  1  6  0  0  0
 11  8  1  0  0  0  0
 12 38  1  1  0  0  0
 12  7  1  0  0  0  0
 13  3  2  0  0  0  0
 14  2  1  0  0  0  0
 15  9  2  0  0  0  0
 16 20  1  6  0  0  0
 16 18  1  0  0  0  0
 16 17  1  0  0  0  0
 18 19  1  6  0  0  0
 18 17  1  0  0  0  0
 21 20  2  0  0  0  0
 22 21  1  0  0  0  0
 22 23  2  0  0  0  0
 24 22  1  0  0  0  0
 25 26  1  6  0  0  0
 27 25  1  0  0  0  0
 28 36  1  0  0  0  0
 29 33  1  0  0  0  0
 29 27  1  0  0  0  0
 30 28  1  0  0  0  0
 30 31  1  0  0  0  0
 31 35  1  0  0  0  0
 32 29  2  0  0  0  0
 34 35  2  0  0  0  0
 34 32  1  0  0  0  0
 35 37  1  0  0  0  0
 36 34  1  0  0  0  0
 37 33  2  0  0  0  0
 38 39  1  0  0  0  0
 39 40  2  6  0  0  0
 39 41  1  0  0  0  0
 39 45  1  0  0  0  0
 44 43  2  0  0  0  0
 44 42  1  0  0  0  0
 45 44  1  0  0  0  0
M  END
>  <MODEL>
1

>  <REMARK>
 VINA RESULT:      -5.8      0.000      0.000
  Name = 
  9 active torsions:
  status: ('A' for Active; 'I' for Inactive)
    1  A    between atoms: C_2  and  C_3
    2  A    between atoms: C_7  and  N_30
    3  A    between atoms: C_9  and  N_30
    4  A    between atoms: C_9  and  C_33
    5  A    between atoms: P_10  and  N_41
    6  A    between atoms: P_10  and  O_43
    7  A    between atoms: C_11  and  C_13
    8  A    between atoms: C_15  and  C_26
    9  A    between atoms: C_34  and  O_43
                            x       y       z     vdW  Elec       q    Type
                         _______ _______ _______ _____ _____    ______ ____

>  <TORSDO>
F 9

$$$$
=
 OpenBabel11042420403D

 45 50  0  0  1  0  0  0  0  0999 V2000
  160.3350  209.5470  152.7170 C   0  0  0  0  0  2  0  0  0  0  0  0
  162.1670  212.3320  150.1200 C   0  0  0  0  0  2  0  0  0  0  0  0
  160.0380  213.4120  149.1810 C   0  0  0  0  0  0  0  0  0  0  0  0
  159.5050  210.5260  152.1420 O   0  0  0  0  0  0  0  0  0  0  0  0
  161.2460  211.2170  150.6230 C   0  0  1  0  0  3  0  0  0  0  0  0
  157.1450  212.8340  151.3520 O   0  0  0  0  0  0  0  0  0  0  0  0
  162.0900  210.0090  151.0170 C   0  0  0  0  0  2  0  0  0  0  0  0
  159.5020  212.9010  151.5730 C   0  0  2  0  0  3  0  0  0  0  0  0
  157.6670  212.9490  150.0810 C   0  0  0  0  0  0  0  0  0  0  0  0
  160.3360  211.6170  151.8130 C   0  0  1  0  0  3  0  0  0  0  0  0
  158.1620  212.8930  152.3460 C   0  0  1  0  0  3  0  0  0  0  0  0
  161.2160  208.9210  151.6340 C   0  0  1  0  0  3  0  0  0  0  0  0
  159.1190  213.0900  150.1290 C   0  0  0  0  0  0  0  0  0  0  0  0
  161.4570  213.6140  149.6550 C   0  0  0  0  0  2  0  0  0  0  0  0
  156.9450  212.8940  149.0540 O   0  0  0  0  0  0  0  0  0  0  0  0
  160.6040  212.9670  146.6410 C   0  0  1  0  0  3  0  0  0  0  0  0
  160.8550  214.4490  146.9530 C   0  0  0  0  0  2  0  0  0  0  0  0
  159.7970  213.6920  147.7070 C   0  0  2  0  0  0  0  0  0  0  0  0
  158.5030  214.0840  147.3420 O   0  0  0  0  0  1  0  0  0  0  0  0
  159.8750  212.8570  145.3440 C   0  0  0  0  0  3  0  0  0  0  0  0
  160.5240  212.5030  144.2420 C   0  0  0  0  0  3  0  0  0  0  0  0
  159.8380  212.3790  142.9530 C   0  0  0  0  0  0  0  0  0  0  0  0
  158.7490  212.9810  142.7710 O   0  0  0  0  0  0  0  0  0  0  0  0
  160.3870  211.5860  141.9030 N   0  0  0  0  0  1  0  0  0  0  0  0
  157.9840  214.1460  153.2050 C   0  0  1  0  0  3  0  0  0  0  0  0
  156.5080  214.4530  153.3970 C   0  0  0  0  0  1  0  0  0  0  0  0
  158.6420  213.9870  154.4980 N   0  0  0  0  0  2  0  0  0  0  0  0
  162.3890  209.7970  157.0860 C   0  0  0  0  0  2  0  0  0  0  0  0
  158.9840  212.7230  155.0720 C   0  0  0  0  0  0  0  0  0  0  0  0
  161.5030  208.6020  156.7450 C   0  0  0  0  0  2  0  0  0  0  0  0
  160.0950  209.0000  156.7420 N   0  0  0  0  0  2  0  0  0  0  0  0
  160.3270  212.4440  155.3450 C   0  0  0  0  0  3  0  0  0  0  0  0
  157.9980  211.7710  155.3810 C   0  0  0  0  0  3  0  0  0  0  0  0
  160.6850  211.2210  155.9170 C   0  0  0  0  0  0  0  0  0  0  0  0
  159.7030  210.2620  156.1980 C   0  0  0  0  0  0  0  0  0  0  0  0
  162.0510  210.9360  156.2340 N   0  0  0  0  0  2  0  0  0  0  0  0
  158.3580  210.5410  155.9420 C   0  0  0  0  0  3  0  0  0  0  0  0
  162.0310  207.9360  152.1960 O   0  0  0  0  0  0  0  0  0  0  0  0
  161.6220  206.4900  151.4060 P   0  0  2  0  0  0  0  0  0  0  0  0
  160.4920  205.8040  152.1410 O   0  0  0  0  0  1  0  0  0  0  0  0
  162.9730  205.4720  151.3940 O   0  0  0  0  0  0  0  0  0  0  0  0
  160.8050  204.3550  149.1900 C   0  0  0  0  0  1  0  0  0  0  0  0
  160.4160  206.1200  147.6550 O   0  0  0  0  0  0  0  0  0  0  0  0
  160.7690  205.7980  148.8190 C   0  0  0  0  0  0  0  0  0  0  0  0
  161.1340  206.8210  149.7500 N   0  0  0  0  0  2  0  0  0  0  0  0
  3 14  1  0  0  0  0
  3 13  2  0  0  0  0
  4  1  1  0  0  0  0
  5  2  1  1  0  0  0
  5  7  1  0  0  0  0
  5 10  1  0  0  0  0
  6 11  1  0  0  0  0
  7 12  1  0  0  0  0
  8 13  1  6  0  0  0
  8 10  1  0  0  0  0
  8 11  1  0  0  0  0
  9 13  1  0  0  0  0
  9  6  1  0  0  0  0
 10  4  1  6  0  0  0
 11 25  1  6  0  0  0
 12 38  1  1  0  0  0
 12  1  1  0  0  0  0
 14  2  1  0  0  0  0
 15  9  2  0  0  0  0
 16 20  1  6  0  0  0
 16 17  1  0  0  0  0
 16 18  1  0  0  0  0
 17 18  1  0  0  0  0
 18 19  1  6  0  0  0
 18  3  1  0  0  0  0
 21 20  2  0  0  0  0
 22 21  1  0  0  0  0
 23 22  2  0  0  0  0
 24 22  1  0  0  0  0
 25 26  1  1  0  0  0
 25 27  1  0  0  0  0
 27 29  1  0  0  0  0
 29 32  2  0  0  0  0
 29 33  1  0  0  0  0
 30 28  1  0  0  0  0
 31 30  1  0  0  0  0
 32 34  1  0  0  0  0
 33 37  2  0  0  0  0
 34 35  2  0  0  0  0
 34 36  1  0  0  0  0
 35 31  1  0  0  0  0
 36 28  1  0  0  0  0
 37 35  1  0  0  0  0
 39 41  2  6  0  0  0
 39 40  1  0  0  0  0
 39 38  1  0  0  0  0
 43 44  2  0  0  0  0
 44 42  1  0  0  0  0
 44 45  1  0  0  0  0
 45 39  1  0  0  0  0
M  END
>  <MODEL>
2

>  <REMARK>
 VINA RESULT:      -5.1      2.726      9.104
  Name = 
  9 active torsions:
  status: ('A' for Active; 'I' for Inactive)
    1  A    between atoms: C_2  and  C_3
    2  A    between atoms: C_7  and  N_30
    3  A    between atoms: C_9  and  N_30
    4  A    between atoms: C_9  and  C_33
    5  A    between atoms: P_10  and  N_41
    6  A    between atoms: P_10  and  O_43
    7  A    between atoms: C_11  and  C_13
    8  A    between atoms: C_15  and  C_26
    9  A    between atoms: C_34  and  O_43
                            x       y       z     vdW  Elec       q    Type
                         _______ _______ _______ _____ _____    ______ ____

>  <TORSDO>
F 9

$$$$
=
 OpenBabel11042420403D

 45 50  0  0  1  0  0  0  0  0999 V2000
  161.8580  206.7520  151.5950 C   0  0  0  0  0  2  0  0  0  0  0  0
  162.1290  210.8260  150.5030 C   0  0  0  0  0  2  0  0  0  0  0  0
  160.2510  211.7310  151.9970 C   0  0  0  0  0  0  0  0  0  0  0  0
  161.1230  207.6700  152.3660 O   0  0  0  0  0  0  0  0  0  0  0  0
  161.5330  209.4430  150.7830 C   0  0  1  0  0  3  0  0  0  0  0  0
  159.4720  209.4390  154.7470 O   0  0  0  0  0  0  0  0  0  0  0  0
  162.1050  208.4400  149.7860 C   0  0  0  0  0  2  0  0  0  0  0  0
  161.3170  209.9030  153.3350 C   0  0  2  0  0  3  0  0  0  0  0  0
  159.0370  210.3370  153.7940 C   0  0  0  0  0  0  0  0  0  0  0  0
  161.7620  208.9200  152.2250 C   0  0  1  0  0  3  0  0  0  0  0  0
  160.8660  209.1780  154.6260 C   0  0  1  0  0  3  0  0  0  0  0  0
  161.6250  207.0280  150.1080 C   0  0  1  0  0  3  0  0  0  0  0  0
  160.1390  210.7510  152.9320 C   0  0  0  0  0  0  0  0  0  0  0  0
  161.6240  211.9570  151.4130 C   0  0  0  0  0  2  0  0  0  0  0  0
  157.8330  210.6850  153.7040 O   0  0  0  0  0  0  0  0  0  0  0  0
  159.5520  213.9630  150.7730 C   0  0  1  0  0  3  0  0  0  0  0  0
  159.0770  214.0280  152.2310 C   0  0  0  0  0  2  0  0  0  0  0  0
  159.1770  212.7000  151.5310 C   0  0  2  0  0  0  0  0  0  0  0  0
  157.9180  212.1560  151.2420 O   0  0  0  0  0  1  0  0  0  0  0  0
  158.4580  214.4440  149.8800 C   0  0  0  0  0  3  0  0  0  0  0  0
  158.1550  213.7740  148.7750 C   0  0  0  0  0  3  0  0  0  0  0  0
  157.0810  214.2150  147.8800 C   0  0  0  0  0  0  0  0  0  0  0  0
  157.3400  214.4490  146.6710 O   0  0  0  0  0  0  0  0  0  0  0  0
  155.7480  214.3810  148.3580 N   0  0  0  0  0  1  0  0  0  0  0  0
  161.6040  209.6910  155.8630 C   0  0  1  0  0  3  0  0  0  0  0  0
  162.6040  210.7680  155.4770 C   0  0  0  0  0  1  0  0  0  0  0  0
  160.6630  210.2040  156.8550 N   0  0  0  0  0  2  0  0  0  0  0  0
  155.3240  213.3040  157.2610 C   0  0  0  0  0  2  0  0  0  0  0  0
  159.7690  211.2930  156.6200 C   0  0  0  0  0  0  0  0  0  0  0  0
  155.6050  214.2050  156.0600 C   0  0  0  0  0  2  0  0  0  0  0  0
  157.0410  214.4530  155.9390 N   0  0  0  0  0  2  0  0  0  0  0  0
  158.4300  211.1650  157.0020 C   0  0  0  0  0  3  0  0  0  0  0  0
  160.2140  212.4900  156.0330 C   0  0  0  0  0  3  0  0  0  0  0  0
  157.5380  212.2200  156.7940 C   0  0  0  0  0  0  0  0  0  0  0  0
  157.9790  213.4020  156.1820 C   0  0  0  0  0  0  0  0  0  0  0  0
  156.1740  212.1160  157.2100 N   0  0  0  0  0  2  0  0  0  0  0  0
  159.3190  213.5420  155.8130 C   0  0  0  0  0  3  0  0  0  0  0  0
  162.3390  206.1080  149.3380 O   0  0  0  0  0  0  0  0  0  0  0  0
  161.3240  205.7020  148.0400 P   0  0  2  0  0  0  0  0  0  0  0  0
  161.8110  206.3750  146.7750 O   0  0  0  0  0  0  0  0  0  0  0  0
  159.7560  206.2350  148.3830 O   0  0  0  0  0  1  0  0  0  0  0  0
  160.4940  203.4980  150.1830 C   0  0  0  0  0  1  0  0  0  0  0  0
  160.9020  201.8030  148.5740 O   0  0  0  0  0  0  0  0  0  0  0  0
  160.9030  203.0360  148.8250 C   0  0  0  0  0  0  0  0  0  0  0  0
  161.3040  203.9590  147.8090 N   0  0  0  0  0  2  0  0  0  0  0  0
  1  4  1  0  0  0  0
  2  5  1  0  0  0  0
  2 14  1  0  0  0  0
  3 13  2  0  0  0  0
  5  7  1  6  0  0  0
  5 10  1  0  0  0  0
  7 12  1  0  0  0  0
  8 13  1  6  0  0  0
  8 11  1  0  0  0  0
  9  6  1  0  0  0  0
 10  4  1  6  0  0  0
 10  8  1  0  0  0  0
 11  6  1  0  0  0  0
 11 25  1  1  0  0  0
 12 38  1  6  0  0  0
 12  1  1  0  0  0  0
 13  9  1  0  0  0  0
 14  3  1  0  0  0  0
 15  9  2  0  0  0  0
 16 20  1  6  0  0  0
 16 18  1  0  0  0  0
 16 17  1  0  0  0  0
 18 19  1  6  0  0  0
 18  3  1  0  0  0  0
 18 17  1  0  0  0  0
 21 20  2  0  0  0  0
 22 24  1  0  0  0  0
 22 21  1  0  0  0  0
 23 22  2  0  0  0  0
 25 26  1  6  0  0  0
 25 27  1  0  0  0  0
 29 27  1  0  0  0  0
 29 32  1  0  0  0  0
 30 28  1  0  0  0  0
 31 30  1  0  0  0  0
 31 35  1  0  0  0  0
 33 29  2  0  0  0  0
 34 32  2  0  0  0  0
 34 36  1  0  0  0  0
 35 34  1  0  0  0  0
 36 28  1  0  0  0  0
 37 33  1  0  0  0  0
 37 35  2  0  0  0  0
 39 40  2  6  0  0  0
 39 41  1  0  0  0  0
 39 38  1  0  0  0  0
 43 44  2  0  0  0  0
 44 42  1  0  0  0  0
 45 39  1  0  0  0  0
 45 44  1  0  0  0  0
M  END
>  <MODEL>
3

>  <REMARK>
 VINA RESULT:      -4.6      3.966      9.770
  Name = 
  9 active torsions:
  status: ('A' for Active; 'I' for Inactive)
    1  A    between atoms: C_2  and  C_3
    2  A    between atoms: C_7  and  N_30
    3  A    between atoms: C_9  and  N_30
    4  A    between atoms: C_9  and  C_33
    5  A    between atoms: P_10  and  N_41
    6  A    between atoms: P_10  and  O_43
    7  A    between atoms: C_11  and  C_13
    8  A    between atoms: C_15  and  C_26
    9  A    between atoms: C_34  and  O_43
                            x       y       z     vdW  Elec       q    Type
                         _______ _______ _______ _____ _____    ______ ____

>  <TORSDO>
F 9

$$$$
=
 OpenBabel11042420403D

 45 50  0  0  1  0  0  0  0  0999 V2000
  159.6370  210.3580  153.7180 C   0  0  0  0  0  2  0  0  0  0  0  0
  162.0810  206.9530  154.2580 C   0  0  0  0  0  2  0  0  0  0  0  0
  161.8260  205.9440  151.9140 C   0  0  0  0  0  0  0  0  0  0  0  0
  159.9570  209.6130  152.5700 O   0  0  0  0  0  0  0  0  0  0  0  0
  160.8710  207.8190  153.8960 C   0  0  1  0  0  3  0  0  0  0  0  0
  160.6980  208.4330  149.4740 O   0  0  0  0  0  0  0  0  0  0  0  0
  160.3090  208.4510  155.1660 C   0  0  0  0  0  2  0  0  0  0  0  0
  161.8320  208.4220  151.5540 C   0  0  2  0  0  3  0  0  0  0  0  0
  160.6620  207.1380  149.9480 C   0  0  0  0  0  0  0  0  0  0  0  0
  161.1580  208.9290  152.8530 C   0  0  1  0  0  3  0  0  0  0  0  0
  161.4670  209.2810  150.3200 C   0  0  1  0  0  3  0  0  0  0  0  0
  159.1750  209.4140  154.8300 C   0  0  1  0  0  3  0  0  0  0  0  0
  161.4210  207.0190  151.1890 C   0  0  0  0  0  0  0  0  0  0  0  0
  162.7440  206.2210  153.0810 C   0  0  0  0  0  2  0  0  0  0  0  0
  160.0150  206.2310  149.3670 O   0  0  0  0  0  0  0  0  0  0  0  0
  160.3050  204.0580  150.8690 C   0  0  1  0  0  3  0  0  0  0  0  0
  160.4120  203.8260  152.3820 C   0  0  0  0  0  2  0  0  0  0  0  0
  161.5470  204.4760  151.6390 C   0  0  2  0  0  0  0  0  0  0  0  0
  162.6590  203.6320  151.5240 O   0  0  0  0  0  1  0  0  0  0  0  0
  160.4780  202.7560  150.1600 C   0  0  0  0  0  3  0  0  0  0  0  0
  160.7750  202.7350  148.8670 C   0  0  0  0  0  3  0  0  0  0  0  0
  160.9590  201.4740  148.1420 C   0  0  0  0  0  0  0  0  0  0  0  0
  161.2490  200.4300  148.7800 O   0  0  0  0  0  0  0  0  0  0  0  0
  160.8140  201.4150  146.7250 N   0  0  0  0  0  1  0  0  0  0  0  0
  162.7060  209.7790  149.5760 C   0  0  1  0  0  3  0  0  0  0  0  0
  162.8260  209.0920  148.2250 C   0  0  0  0  0  1  0  0  0  0  0  0
  162.6640  211.2280  149.4060 N   0  0  0  0  0  2  0  0  0  0  0  0
  158.4260  213.4350  145.4740 C   0  0  0  0  0  2  0  0  0  0  0  0
  162.2010  211.8820  148.2230 C   0  0  0  0  0  0  0  0  0  0  0  0
  159.3750  213.4920  144.2790 C   0  0  0  0  0  2  0  0  0  0  0  0
  160.7400  213.7640  144.7280 N   0  0  0  0  0  2  0  0  0  0  0  0
  160.8330  211.8670  147.9320 C   0  0  0  0  0  3  0  0  0  0  0  0
  163.0880  212.5500  147.3630 C   0  0  0  0  0  3  0  0  0  0  0  0
  160.3540  212.5090  146.7880 C   0  0  0  0  0  0  0  0  0  0  0  0
  161.2450  213.1510  145.9170 C   0  0  0  0  0  0  0  0  0  0  0  0
  158.9540  212.5320  146.4950 N   0  0  0  0  0  2  0  0  0  0  0  0
  162.6100  213.1830  146.2110 C   0  0  0  0  0  3  0  0  0  0  0  0
  158.8380  210.1500  155.9680 O   0  0  0  0  0  0  0  0  0  0  0  0
  157.5300  211.1320  155.5170 P   0  0  2  0  0  0  0  0  0  0  0  0
  156.9500  211.8100  156.7390 O   0  0  0  0  0  1  0  0  0  0  0  0
  156.3390  210.1650  154.8040 O   0  0  0  0  0  0  0  0  0  0  0  0
  155.7150  213.3240  154.0900 C   0  0  0  0  0  1  0  0  0  0  0  0
  157.6310  214.1570  152.9680 O   0  0  0  0  0  0  0  0  0  0  0  0
  157.1720  213.3090  153.7760 C   0  0  0  0  0  0  0  0  0  0  0  0
  158.0550  212.3490  154.3620 N   0  0  0  0  0  2  0  0  0  0  0  0
  1 12  1  0  0  0  0
  3 14  1  0  0  0  0
  4  1  1  0  0  0  0
  5  2  1  1  0  0  0
  5  7  1  0  0  0  0
  6  9  1  0  0  0  0
  6 11  1  0  0  0  0
  8 13  1  6  0  0  0
  8 10  1  0  0  0  0
  9 13  1  0  0  0  0
 10  4  1  6  0  0  0
 10  5  1  0  0  0  0
 11 25  1  6  0  0  0
 11  8  1  0  0  0  0
 12  7  1  0  0  0  0
 12 38  1  1  0  0  0
 13  3  2  0  0  0  0
 14  2  1  0  0  0  0
 15  9  2  0  0  0  0
 16 20  1  6  0  0  0
 16 18  1  0  0  0  0
 16 17  1  0  0  0  0
 18 19  1  6  0  0  0
 18  3  1  0  0  0  0
 18 17  1  0  0  0  0
 21 20  2  0  0  0  0
 22 23  2  0  0  0  0
 22 21  1  0  0  0  0
 24 22  1  0  0  0  0
 25 26  1  6  0  0  0
 27 25  1  0  0  0  0
 28 36  1  0  0  0  0
 29 27  1  0  0  0  0
 30 31  1  0  0  0  0
 30 28  1  0  0  0  0
 31 35  1  0  0  0  0
 32 29  1  0  0  0  0
 33 29  2  0  0  0  0
 34 32  2  0  0  0  0
 35 37  2  0  0  0  0
 35 34  1  0  0  0  0
 36 34  1  0  0  0  0
 37 33  1  0  0  0  0
 39 41  2  6  0  0  0
 39 38  1  0  0  0  0
 39 40  1  0  0  0  0
 43 44  2  0  0  0  0
 44 42  1  0  0  0  0
 44 45  1  0  0  0  0
 45 39  1  0  0  0  0
M  END
>  <MODEL>
4

>  <REMARK>
 VINA RESULT:      -4.4      2.208      3.440
  Name = 
  9 active torsions:
  status: ('A' for Active; 'I' for Inactive)
    1  A    between atoms: C_2  and  C_3
    2  A    between atoms: C_7  and  N_30
    3  A    between atoms: C_9  and  N_30
    4  A    between atoms: C_9  and  C_33
    5  A    between atoms: P_10  and  N_41
    6  A    between atoms: P_10  and  O_43
    7  A    between atoms: C_11  and  C_13
    8  A    between atoms: C_15  and  C_26
    9  A    between atoms: C_34  and  O_43
                            x       y       z     vdW  Elec       q    Type
                         _______ _______ _______ _____ _____    ______ ____

>  <TORSDO>
F 9

$$$$
=
 OpenBabel11042420403D

 45 50  0  0  1  0  0  0  0  0999 V2000
  162.6320  210.5660  150.1870 C   0  0  0  0  0  2  0  0  0  0  0  0
  160.3330  207.4310  148.5300 C   0  0  0  0  0  2  0  0  0  0  0  0
  160.9940  205.5810  150.1790 C   0  0  0  0  0  0  0  0  0  0  0  0
  162.5310  209.3820  150.9390 O   0  0  0  0  0  0  0  0  0  0  0  0
  161.5330  208.2030  149.0870 C   0  0  1  0  0  3  0  0  0  0  0  0
  162.3310  206.9530  153.3020 O   0  0  0  0  0  0  0  0  0  0  0  0
  161.8610  209.3630  148.1520 C   0  0  0  0  0  2  0  0  0  0  0  0
  160.9010  207.6710  151.5550 C   0  0  2  0  0  3  0  0  0  0  0  0
  162.3690  205.9820  152.3220 C   0  0  0  0  0  0  0  0  0  0  0  0
  161.3430  208.7430  150.5280 C   0  0  1  0  0  3  0  0  0  0  0  0
  161.3970  207.9800  152.9880 C   0  0  1  0  0  3  0  0  0  0  0  0
  162.9760  210.2250  148.7360 C   0  0  1  0  0  3  0  0  0  0  0  0
  161.4410  206.3000  151.2420 C   0  0  0  0  0  0  0  0  0  0  0  0
  159.8980  206.2070  149.3510 C   0  0  0  0  0  2  0  0  0  0  0  0
  163.1470  204.9980  152.3870 O   0  0  0  0  0  0  0  0  0  0  0  0
  160.4070  203.0240  149.8860 C   0  0  1  0  0  3  0  0  0  0  0  0
  161.5850  203.1540  150.8610 C   0  0  0  0  0  2  0  0  0  0  0  0
  161.3950  204.1740  149.7720 C   0  0  2  0  0  0  0  0  0  0  0  0
  162.3620  204.0590  148.7640 O   0  0  0  0  0  1  0  0  0  0  0  0
  160.6900  201.9240  148.9200 C   0  0  0  0  0  3  0  0  0  0  0  0
  160.5550  202.1290  147.6160 C   0  0  0  0  0  3  0  0  0  0  0  0
  160.8320  201.0720  146.6390 C   0  0  0  0  0  0  0  0  0  0  0  0
  161.4880  200.0580  146.9920 O   0  0  0  0  0  0  0  0  0  0  0  0
  160.3680  201.1750  145.2940 N   0  0  0  0  0  1  0  0  0  0  0  0
  160.2570  207.9800  154.0060 C   0  0  1  0  0  3  0  0  0  0  0  0
  160.3660  206.7750  154.9260 C   0  0  0  0  0  1  0  0  0  0  0  0
  160.2560  209.2150  154.7850 N   0  0  0  0  0  2  0  0  0  0  0  0
  157.5170  213.6140  151.4050 C   0  0  0  0  0  2  0  0  0  0  0  0
  159.3720  210.3120  154.5450 C   0  0  0  0  0  0  0  0  0  0  0  0
  157.0860  214.4520  152.6070 C   0  0  0  0  0  2  0  0  0  0  0  0
  156.8170  213.5890  153.7560 N   0  0  0  0  0  2  0  0  0  0  0  0
  159.4310  210.9740  153.3150 C   0  0  0  0  0  3  0  0  0  0  0  0
  158.4390  210.7220  155.5120 C   0  0  0  0  0  3  0  0  0  0  0  0
  158.5700  212.0410  153.0520 C   0  0  0  0  0  0  0  0  0  0  0  0
  157.6590  212.4660  154.0280 C   0  0  0  0  0  0  0  0  0  0  0  0
  158.5960  212.7050  151.7850 N   0  0  0  0  0  2  0  0  0  0  0  0
  157.5840  211.7990  155.2540 C   0  0  0  0  0  3  0  0  0  0  0  0
  163.0950  211.3980  147.9880 O   0  0  0  0  0  0  0  0  0  0  0  0
  161.7190  212.3230  148.3500 P   0  0  2  0  0  0  0  0  0  0  0  0
  162.0680  213.7950  148.3300 O   0  0  0  0  0  0  0  0  0  0  0  0
  161.1690  211.9060  149.8940 O   0  0  0  0  0  1  0  0  0  0  0  0
  161.6210  213.2980  145.3200 C   0  0  0  0  0  1  0  0  0  0  0  0
  159.5460  212.1840  145.0460 O   0  0  0  0  0  0  0  0  0  0  0  0
  160.4890  212.4700  145.8270 C   0  0  0  0  0  0  0  0  0  0  0  0
  160.4480  212.0030  147.1780 N   0  0  0  0  0  2  0  0  0  0  0  0
  1  4  1  0  0  0  0
  2  5  1  0  0  0  0
  2 14  1  0  0  0  0
  3 13  2  0  0  0  0
  5  7  1  6  0  0  0
  5 10  1  0  0  0  0
  7 12  1  0  0  0  0
  8 13  1  6  0  0  0
  8 11  1  0  0  0  0
  9 15  2  0  0  0  0
  9  6  1  0  0  0  0
 10  4  1  1  0  0  0
 10  8  1  0  0  0  0
 11  6  1  0  0  0  0
 11 25  1  1  0  0  0
 12 38  1  6  0  0  0
 12  1  1  0  0  0  0
 13  9  1  0  0  0  0
 14  3  1  0  0  0  0
 16 20  1  6  0  0  0
 16 17  1  0  0  0  0
 18 19  1  6  0  0  0
 18 16  1  0  0  0  0
 18  3  1  0  0  0  0
 18 17  1  0  0  0  0
 21 20  2  0  0  0  0
 22 23  2  0  0  0  0
 22 21  1  0  0  0  0
 24 22  1  0  0  0  0
 25 27  1  0  0  0  0
 25 26  1  1  0  0  0
 28 36  1  0  0  0  0
 28 30  1  0  0  0  0
 29 27  1  0  0  0  0
 29 33  1  0  0  0  0
 30 31  1  0  0  0  0
 31 35  1  0  0  0  0
 32 29  2  0  0  0  0
 34 32  1  0  0  0  0
 34 35  2  0  0  0  0
 35 37  1  0  0  0  0
 36 34  1  0  0  0  0
 37 33  2  0  0  0  0
 38 39  1  0  0  0  0
 39 40  2  6  0  0  0
 39 41  1  0  0  0  0
 42 44  1  0  0  0  0
 43 44  2  0  0  0  0
 44 45  1  0  0  0  0
 45 39  1  0  0  0  0
M  END
>  <MODEL>
5

>  <REMARK>
 VINA RESULT:      -3.7      3.101      7.604
  Name = 
  9 active torsions:
  status: ('A' for Active; 'I' for Inactive)
    1  A    between atoms: C_2  and  C_3
    2  A    between atoms: C_7  and  N_30
    3  A    between atoms: C_9  and  N_30
    4  A    between atoms: C_9  and  C_33
    5  A    between atoms: P_10  and  N_41
    6  A    between atoms: P_10  and  O_43
    7  A    between atoms: C_11  and  C_13
    8  A    between atoms: C_15  and  C_26
    9  A    between atoms: C_34  and  O_43
                            x       y       z     vdW  Elec       q    Type
                         _______ _______ _______ _____ _____    ______ ____

>  <TORSDO>
F 9

$$$$
=
 OpenBabel11042420403D

 45 50  0  0  1  0  0  0  0  0999 V2000
  160.9820  206.8050  151.3040 C   0  0  0  0  0  2  0  0  0  0  0  0
  162.8470  210.1480  149.5140 C   0  0  0  0  0  2  0  0  0  0  0  0
  161.1580  211.9390  150.2350 C   0  0  0  0  0  0  0  0  0  0  0  0
  160.4820  208.0740  151.6450 O   0  0  0  0  0  0  0  0  0  0  0  0
  161.7680  209.1330  149.9020 C   0  0  1  0  0  3  0  0  0  0  0  0
  159.1380  210.8380  153.0860 O   0  0  0  0  0  0  0  0  0  0  0  0
  162.1300  207.7700  149.3200 C   0  0  0  0  0  2  0  0  0  0  0  0
  161.2560  210.3330  152.1540 C   0  0  2  0  0  3  0  0  0  0  0  0
  159.2260  211.5170  151.8890 C   0  0  0  0  0  0  0  0  0  0  0  0
  161.5290  208.9930  151.4270 C   0  0  1  0  0  3  0  0  0  0  0  0
  160.3510  210.1620  153.3970 C   0  0  1  0  0  3  0  0  0  0  0  0
  161.1400  206.7070  149.7850 C   0  0  1  0  0  3  0  0  0  0  0  0
  160.5420  211.3360  151.2860 C   0  0  0  0  0  0  0  0  0  0  0  0
  162.6070  211.5850  150.0050 C   0  0  0  0  0  2  0  0  0  0  0  0
  158.2560  212.1590  151.4120 O   0  0  0  0  0  0  0  0  0  0  0  0
  160.4280  212.7320  147.8250 C   0  0  1  0  0  3  0  0  0  0  0  0
  161.5330  213.6640  148.3400 C   0  0  0  0  0  2  0  0  0  0  0  0
  160.5930  213.0050  149.3120 C   0  0  2  0  0  0  0  0  0  0  0  0
  159.6900  213.9150  149.8770 O   0  0  0  0  0  1  0  0  0  0  0  0
  159.3460  213.5520  147.2060 C   0  0  0  0  0  3  0  0  0  0  0  0
  158.1460  213.0250  146.9980 C   0  0  0  0  0  3  0  0  0  0  0  0
  157.0590  213.8040  146.3990 C   0  0  0  0  0  0  0  0  0  0  0  0
  156.0670  214.1270  147.1030 O   0  0  0  0  0  0  0  0  0  0  0  0
  157.1090  214.2010  145.0300 N   0  0  0  0  0  1  0  0  0  0  0  0
  160.9790  210.7650  154.6550 C   0  0  1  0  0  3  0  0  0  0  0  0
  162.4740  210.4930  154.6850 C   0  0  0  0  0  1  0  0  0  0  0  0
  160.7230  212.2010  154.7260 N   0  0  0  0  0  2  0  0  0  0  0  0
  154.7770  212.6540  156.3780 C   0  0  0  0  0  2  0  0  0  0  0  0
  159.5950  212.7810  155.3840 C   0  0  0  0  0  0  0  0  0  0  0  0
  154.8590  214.1330  156.7530 C   0  0  0  0  0  2  0  0  0  0  0  0
  156.1920  214.4530  157.2590 N   0  0  0  0  0  2  0  0  0  0  0  0
  158.3190  212.2780  155.1110 C   0  0  0  0  0  3  0  0  0  0  0  0
  159.7470  213.8290  156.3070 C   0  0  0  0  0  3  0  0  0  0  0  0
  157.2010  212.8200  155.7500 C   0  0  0  0  0  0  0  0  0  0  0  0
  157.3530  213.8840  156.6490 C   0  0  0  0  0  0  0  0  0  0  0  0
  155.8940  212.2920  155.5070 N   0  0  0  0  0  2  0  0  0  0  0  0
  158.6270  214.3810  156.9370 C   0  0  0  0  0  3  0  0  0  0  0  0
  161.6190  205.4420  149.4380 O   0  0  0  0  0  0  0  0  0  0  0  0
  161.5220  205.3560  147.7460 P   0  0  2  0  0  0  0  0  0  0  0  0
  162.8370  205.7830  147.1320 O   0  0  0  0  0  0  0  0  0  0  0  0
  160.2990  206.3970  147.2140 O   0  0  0  0  0  1  0  0  0  0  0  0
  161.3440  204.2630  144.7610 C   0  0  0  0  0  1  0  0  0  0  0  0
  160.8310  202.1050  145.5990 O   0  0  0  0  0  0  0  0  0  0  0  0
  161.0960  203.3030  145.8740 C   0  0  0  0  0  0  0  0  0  0  0  0
  161.1420  203.7150  147.2430 N   0  0  0  0  0  2  0  0  0  0  0  0
  1  4  1  0  0  0  0
  2  5  1  0  0  0  0
  2 14  1  0  0  0  0
  3 13  2  0  0  0  0
  5  7  1  1  0  0  0
  5 10  1  0  0  0  0
  6 11  1  0  0  0  0
  7 12  1  0  0  0  0
  8 13  1  6  0  0  0
  8 11  1  0  0  0  0
  9  6  1  0  0  0  0
 10  4  1  6  0  0  0
 10  8  1  0  0  0  0
 11 25  1  1  0  0  0
 12 38  1  1  0  0  0
 12  1  1  0  0  0  0
 13  9  1  0  0  0  0
 14  3  1  0  0  0  0
 15  9  2  0  0  0  0
 16 20  1  6  0  0  0
 16 17  1  0  0  0  0
 16 18  1  0  0  0  0
 17 18  1  0  0  0  0
 18 19  1  1  0  0  0
 18  3  1  0  0  0  0
 21 20  2  0  0  0  0
 22 21  1  0  0  0  0
 22 23  2  0  0  0  0
 24 22  1  0  0  0  0
 25 26  1  6  0  0  0
 25 27  1  0  0  0  0
 27 29  1  0  0  0  0
 28 30  1  0  0  0  0
 29 33  1  0  0  0  0
 30 31  1  0  0  0  0
 32 29  2  0  0  0  0
 32 34  1  0  0  0  0
 33 37  2  0  0  0  0
 34 35  2  0  0  0  0
 35 37  1  0  0  0  0
 35 31  1  0  0  0  0
 36 34  1  0  0  0  0
 36 28  1  0  0  0  0
 39 40  2  6  0  0  0
 39 38  1  0  0  0  0
 41 39  1  0  0  0  0
 42 44  1  0  0  0  0
 43 44  2  0  0  0  0
 44 45  1  0  0  0  0
 45 39  1  0  0  0  0
M  END
>  <MODEL>
6

>  <REMARK>
 VINA RESULT:      -3.6      3.319      9.827
  Name = 
  9 active torsions:
  status: ('A' for Active; 'I' for Inactive)
    1  A    between atoms: C_2  and  C_3
    2  A    between atoms: C_7  and  N_30
    3  A    between atoms: C_9  and  N_30
    4  A    between atoms: C_9  and  C_33
    5  A    between atoms: P_10  and  N_41
    6  A    between atoms: P_10  and  O_43
    7  A    between atoms: C_11  and  C_13
    8  A    between atoms: C_15  and  C_26
    9  A    between atoms: C_34  and  O_43
                            x       y       z     vdW  Elec       q    Type
                         _______ _______ _______ _____ _____    ______ ____

>  <TORSDO>
F 9

$$$$
=
 OpenBabel11042420403D

 45 50  0  0  1  0  0  0  0  0999 V2000
  162.4750  210.4820  150.1770 C   0  0  0  0  0  2  0  0  0  0  0  0
  160.1810  207.2960  148.6120 C   0  0  0  0  0  2  0  0  0  0  0  0
  160.9240  205.4690  150.2520 C   0  0  0  0  0  0  0  0  0  0  0  0
  162.4170  209.3020  150.9390 O   0  0  0  0  0  0  0  0  0  0  0  0
  161.3840  208.0920  149.1270 C   0  0  1  0  0  3  0  0  0  0  0  0
  162.3320  206.8860  153.3230 O   0  0  0  0  0  0  0  0  0  0  0  0
  161.6630  209.2510  148.1750 C   0  0  0  0  0  2  0  0  0  0  0  0
  160.8370  207.5670  151.6170 C   0  0  2  0  0  3  0  0  0  0  0  0
  162.3570  205.9100  152.3500 C   0  0  0  0  0  0  0  0  0  0  0  0
  161.2280  208.6390  150.5690 C   0  0  1  0  0  3  0  0  0  0  0  0
  161.3720  207.8950  153.0320 C   0  0  1  0  0  3  0  0  0  0  0  0
  162.7800  210.1360  148.7180 C   0  0  1  0  0  3  0  0  0  0  0  0
  161.3910  206.2040  151.2960 C   0  0  0  0  0  0  0  0  0  0  0  0
  159.7920  206.0710  149.4540 C   0  0  0  0  0  2  0  0  0  0  0  0
  163.1540  204.9390  152.3970 O   0  0  0  0  0  0  0  0  0  0  0  0
  160.3330  202.9260  149.8700 C   0  0  1  0  0  3  0  0  0  0  0  0
  161.4480  203.0230  150.9200 C   0  0  0  0  0  2  0  0  0  0  0  0
  161.3370  204.0660  149.8420 C   0  0  2  0  0  0  0  0  0  0  0  0
  162.3650  203.9620  148.8950 O   0  0  0  0  0  1  0  0  0  0  0  0
  160.6670  201.8410  148.9010 C   0  0  0  0  0  3  0  0  0  0  0  0
  160.5060  202.0380  147.5990 C   0  0  0  0  0  3  0  0  0  0  0  0
  160.8310  200.9970  146.6190 C   0  0  0  0  0  0  0  0  0  0  0  0
  161.5190  200.0050  146.9740 O   0  0  0  0  0  0  0  0  0  0  0  0
  160.3770  201.0910  145.2700 N   0  0  0  0  0  1  0  0  0  0  0  0
  160.2630  207.8830  154.0840 C   0  0  1  0  0  3  0  0  0  0  0  0
  160.4550  206.7200  155.0440 C   0  0  0  0  0  1  0  0  0  0  0  0
  160.2280  209.1450  154.8170 N   0  0  0  0  0  2  0  0  0  0  0  0
  156.0390  213.6150  155.6910 C   0  0  0  0  0  2  0  0  0  0  0  0
  159.4200  210.2640  154.4450 C   0  0  0  0  0  0  0  0  0  0  0  0
  155.7580  213.8220  154.2040 C   0  0  0  0  0  2  0  0  0  0  0  0
  156.9600  213.5490  153.4190 N   0  0  0  0  0  2  0  0  0  0  0  0
  158.4380  210.7160  155.3320 C   0  0  0  0  0  3  0  0  0  0  0  0
  159.6060  210.9230  153.2180 C   0  0  0  0  0  3  0  0  0  0  0  0
  157.6440  211.8150  154.9970 C   0  0  0  0  0  0  0  0  0  0  0  0
  157.8130  212.4530  153.7610 C   0  0  0  0  0  0  0  0  0  0  0  0
  156.6600  212.3100  155.9100 N   0  0  0  0  0  2  0  0  0  0  0  0
  158.8020  212.0160  152.8760 C   0  0  0  0  0  3  0  0  0  0  0  0
  162.8560  211.3060  147.9590 O   0  0  0  0  0  0  0  0  0  0  0  0
  161.5830  212.2920  148.4960 P   0  0  2  0  0  0  0  0  0  0  0  0
  162.0550  213.7250  148.6090 O   0  0  0  0  0  0  0  0  0  0  0  0
  161.0770  211.7540  150.0170 O   0  0  0  0  0  1  0  0  0  0  0  0
  158.8050  213.8330  148.7180 C   0  0  0  0  0  1  0  0  0  0  0  0
  158.1070  212.8340  146.6840 O   0  0  0  0  0  0  0  0  0  0  0  0
  159.0200  212.9420  147.5420 C   0  0  0  0  0  0  0  0  0  0  0  0
  160.2330  212.2030  147.3730 N   0  0  0  0  0  2  0  0  0  0  0  0
  1  4  1  0  0  0  0
  2  5  1  0  0  0  0
  2 14  1  0  0  0  0
  3 13  2  0  0  0  0
  5  7  1  6  0  0  0
  5 10  1  0  0  0  0
  7 12  1  0  0  0  0
  8 13  1  6  0  0  0
  8 11  1  0  0  0  0
  9 15  2  0  0  0  0
  9  6  1  0  0  0  0
 10  4  1  1  0  0  0
 10  8  1  0  0  0  0
 11  6  1  0  0  0  0
 11 25  1  1  0  0  0
 12 38  1  6  0  0  0
 12  1  1  0  0  0  0
 13  9  1  0  0  0  0
 14  3  1  0  0  0  0
 16 20  1  6  0  0  0
 16 17  1  0  0  0  0
 18 19  1  6  0  0  0
 18 16  1  0  0  0  0
 18  3  1  0  0  0  0
 18 17  1  0  0  0  0
 21 20  2  0  0  0  0
 22 23  2  0  0  0  0
 22 21  1  0  0  0  0
 24 22  1  0  0  0  0
 25 27  1  0  0  0  0
 25 26  1  1  0  0  0
 28 36  1  0  0  0  0
 29 27  1  0  0  0  0
 29 32  1  0  0  0  0
 30 28  1  0  0  0  0
 31 35  1  0  0  0  0
 31 30  1  0  0  0  0
 33 29  2  0  0  0  0
 34 32  2  0  0  0  0
 34 36  1  0  0  0  0
 35 34  1  0  0  0  0
 37 33  1  0  0  0  0
 37 35  2  0  0  0  0
 38 39  1  0  0  0  0
 39 40  2  1  0  0  0
 39 41  1  0  0  0  0
 43 44  2  0  0  0  0
 44 42  1  0  0  0  0
 45 44  1  0  0  0  0
 45 39  1  0  0  0  0
M  END
>  <MODEL>
7

>  <REMARK>
 VINA RESULT:      -3.5      3.519      7.766
  Name = 
  9 active torsions:
  status: ('A' for Active; 'I' for Inactive)
    1  A    between atoms: C_2  and  C_3
    2  A    between atoms: C_7  and  N_30
    3  A    between atoms: C_9  and  N_30
    4  A    between atoms: C_9  and  C_33
    5  A    between atoms: P_10  and  N_41
    6  A    between atoms: P_10  and  O_43
    7  A    between atoms: C_11  and  C_13
    8  A    between atoms: C_15  and  C_26
    9  A    between atoms: C_34  and  O_43
                            x       y       z     vdW  Elec       q    Type
                         _______ _______ _______ _____ _____    ______ ____

>  <TORSDO>
F 9

$$$$
