=
 OpenBabel11052409583D

 39 43  0  0  1  0  0  0  0  0999 V2000
  161.9560  208.9930  152.7430 C   0  0  0  0  0  3  0  0  0  0  0  0
  161.8930  204.4860  148.4490 S   0  0  0  0  0  0  0  0  0  0  0  0
  160.8920  206.9040  148.7280 C   0  0  2  0  0  3  0  0  0  0  0  0
  161.1500  205.8040  149.3860 C   0  0  2  0  0  3  0  0  0  0  0  0
  161.1040  207.4150  150.9740 C   0  0  0  0  0  0  0  0  0  0  0  0
  162.2180  209.9660  151.9280 C   0  0  0  0  0  0  0  0  0  0  0  0
  161.7340  210.4890  149.6550 C   0  0  2  0  0  3  0  0  0  0  0  0
  160.8870  208.0150  152.3600 C   0  0  1  0  0  3  0  0  0  0  0  0
  162.4020  210.8040  150.9550 C   0  0  0  0  0  3  0  0  0  0  0  0
  161.3000  206.1130  150.7960 C   0  0  0  0  0  0  0  0  0  0  0  0
  160.4300  207.2570  154.5870 O   0  0  0  0  0  0  0  0  0  0  0  0
  161.3730  205.1620  151.9210 C   0  0  0  0  0  0  0  0  0  0  0  0
  162.2430  205.7290  147.1490 C   0  0  2  0  0  3  0  0  0  0  0  0
  161.2360  206.8700  147.2850 C   0  0  0  0  0  2  0  0  0  0  0  0
  160.7930  206.9470  153.4210 C   0  0  0  0  0  0  0  0  0  0  0  0
  162.0030  209.0410  149.2310 C   0  0  0  0  0  2  0  0  0  0  0  0
  161.1230  205.5800  153.1290 N   0  0  0  0  0  0  0  0  0  0  0  0
  160.8620  208.0980  149.6380 C   0  0  1  0  0  3  0  0  0  0  0  0
  158.4520  211.8850  147.0910 O   0  0  0  0  0  1  0  0  0  0  0  0
  159.9470  212.3180  145.4180 O   0  0  0  0  0  0  0  0  0  0  0  0
  161.2670  213.3910  149.8930 C   0  0  0  0  0  2  0  0  0  0  0  0
  162.8140  210.9960  147.5880 O   0  0  0  0  0  0  0  0  0  0  0  0
  159.7520  213.2490  149.7720 C   0  0  0  0  0  2  0  0  0  0  0  0
  157.7110  214.2140  148.6560 C   0  0  0  0  0  1  0  0  0  0  0  0
  161.0370  214.4530  147.0010 C   0  0  0  0  0  2  0  0  0  0  0  0
  161.9230  212.8480  148.7050 N   0  0  0  0  0  0  0  0  0  0  0  0
  159.2310  214.1650  148.6730 C   0  0  2  0  0  3  0  0  0  0  0  0
  162.2640  213.7410  147.5940 C   0  0  0  0  0  2  0  0  0  0  0  0
  162.1890  211.4400  148.5910 C   0  0  0  0  0  0  0  0  0  0  0  0
  159.7900  213.7930  147.3710 N   0  0  0  0  0  0  0  0  0  0  0  0
  159.3580  212.6330  146.6370 C   0  0  0  0  0  0  0  0  0  0  0  0
  162.1880  205.1260  145.7860 C   0  0  0  0  0  0  0  0  0  0  0  0
  162.5270  205.8090  144.7820 O   0  0  0  0  0  0  0  0  0  0  0  0
  160.6860  203.3340  145.0720 C   0  0  0  0  0  0  0  0  0  0  0  0
  161.7670  203.7600  145.6550 N   0  0  0  0  0  0  0  0  0  0  0  0
  160.4330  201.9350  145.0150 N   0  0  0  0  0  1  0  0  0  0  0  0
  159.7440  204.2340  144.4890 N   0  0  0  0  0  1  0  0  0  0  0  0
  161.6840  203.7450  151.6760 C   0  0  0  0  0  3  0  0  0  0  0  0
  160.7490  202.8040  151.6580 C   0  0  0  0  0  2  0  0  0  0  0  0
  3 14  1  6  0  0  0
  3  4  1  0  0  0  0
  3 18  1  0  0  0  0
  4  2  1  6  0  0  0
  4 10  1  0  0  0  0
  5  8  1  0  0  0  0
  6  1  2  0  0  0  0
  7 29  1  6  0  0  0
  7  9  1  0  0  0  0
  8  1  1  1  0  0  0
  8 15  1  0  0  0  0
  9  6  2  0  0  0  0
 10  5  2  0  0  0  0
 10 12  1  0  0  0  0
 12 17  2  0  0  0  0
 13 32  1  6  0  0  0
 13 14  1  0  0  0  0
 13  2  1  0  0  0  0
 15 11  2  0  0  0  0
 16  7  1  0  0  0  0
 17 15  1  0  0  0  0
 18 16  1  6  0  0  0
 18  5  1  0  0  0  0
 20 31  2  0  0  0  0
 22 29  2  0  0  0  0
 23 21  1  0  0  0  0
 25 30  1  0  0  0  0
 25 28  1  0  0  0  0
 26 21  1  0  0  0  0
 27 24  1  6  0  0  0
 27 23  1  0  0  0  0
 28 26  1  0  0  0  0
 29 26  1  0  0  0  0
 30 27  1  0  0  0  0
 31 19  1  0  0  0  0
 31 30  1  0  0  0  0
 33 32  2  0  0  0  0
 34 35  2  0  0  0  0
 35 32  1  0  0  0  0
 36 34  1  0  0  0  0
 37 34  1  0  0  0  0
 38 12  1  0  0  0  0
 39 38  2  0  0  0  0
M  END
>  <MODEL>
1

>  <REMARK>
 VINA RESULT:      -7.4      0.000      0.000
  Name = 
  4 active torsions:
  status: ('A' for Active; 'I' for Inactive)
    1  A    between atoms: N_9  and  C_25
    2  A    between atoms: C_15  and  C_35
    3  A    between atoms: C_24  and  C_31
    4  A    between atoms: C_25  and  C_27
                            x       y       z     vdW  Elec       q    Type
                         _______ _______ _______ _____ _____    ______ ____

>  <TORSDO>
F 4

$$$$
=
 OpenBabel11052409583D

 39 43  0  0  1  0  0  0  0  0999 V2000
  161.5480  205.8360  153.8800 C   0  0  0  0  0  3  0  0  0  0  0  0
  162.2970  209.0890  148.6260 S   0  0  0  0  0  0  0  0  0  0  0  0
  160.8280  209.2480  150.8030 C   0  0  2  0  0  3  0  0  0  0  0  0
  161.3240  208.3960  149.9440 C   0  0  2  0  0  3  0  0  0  0  0  0
  160.9910  207.1760  151.8210 C   0  0  0  0  0  0  0  0  0  0  0  0
  161.5820  206.8510  154.6850 C   0  0  0  0  0  0  0  0  0  0  0  0
  160.9410  209.1440  154.5980 C   0  0  2  0  0  3  0  0  0  0  0  0
  160.6930  205.9330  152.6530 C   0  0  1  0  0  3  0  0  0  0  0  0
  161.5640  207.9870  155.3110 C   0  0  0  0  0  3  0  0  0  0  0  0
  161.4450  207.0940  150.5750 C   0  0  0  0  0  0  0  0  0  0  0  0
  160.4600  203.5710  152.3220 O   0  0  0  0  0  0  0  0  0  0  0  0
  161.7420  205.8050  149.9230 C   0  0  0  0  0  0  0  0  0  0  0  0
  162.3490  210.6400  149.6010 C   0  0  2  0  0  3  0  0  0  0  0  0
  161.1330  210.6730  150.5250 C   0  0  0  0  0  2  0  0  0  0  0  0
  160.8480  204.6700  151.8430 C   0  0  0  0  0  0  0  0  0  0  0  0
  161.4900  209.2770  153.1730 C   0  0  0  0  0  2  0  0  0  0  0  0
  161.4440  204.6960  150.5360 N   0  0  0  0  0  0  0  0  0  0  0  0
  160.5780  208.6050  152.1370 C   0  0  1  0  0  3  0  0  0  0  0  0
  158.2050  212.3670  153.4060 O   0  0  0  0  0  0  0  0  0  0  0  0
  159.7070  213.9170  154.1560 O   0  0  0  0  0  1  0  0  0  0  0  0
  159.1240  209.9520  156.7760 C   0  0  0  0  0  2  0  0  0  0  0  0
  162.1630  211.1320  155.0980 O   0  0  0  0  0  0  0  0  0  0  0  0
  157.9470  210.1800  155.8320 C   0  0  0  0  0  2  0  0  0  0  0  0
  156.0730  211.7700  155.2820 C   0  0  0  0  0  1  0  0  0  0  0  0
  159.2030  213.0400  156.8450 C   0  0  0  0  0  2  0  0  0  0  0  0
  160.2480  210.8080  156.4010 N   0  0  0  0  0  0  0  0  0  0  0  0
  157.3720  211.5740  156.0470 C   0  0  2  0  0  3  0  0  0  0  0  0
  160.4130  212.1120  157.0500 C   0  0  0  0  0  2  0  0  0  0  0  0
  161.1620  210.4110  155.3650 C   0  0  0  0  0  0  0  0  0  0  0  0
  158.3640  212.6060  155.7340 N   0  0  0  0  0  0  0  0  0  0  0  0
  158.7390  212.9470  154.3880 C   0  0  0  0  0  0  0  0  0  0  0  0
  162.3830  211.8410  148.7170 C   0  0  0  0  0  0  0  0  0  0  0  0
  163.3470  212.0090  147.9210 O   0  0  0  0  0  0  0  0  0  0  0  0
  160.3700  212.9490  147.8820 C   0  0  0  0  0  0  0  0  0  0  0  0
  161.2940  212.7730  148.7800 N   0  0  0  0  0  0  0  0  0  0  0  0
  159.3460  213.9080  148.1170 N   0  0  0  0  0  1  0  0  0  0  0  0
  160.3570  212.2030  146.6650 N   0  0  0  0  0  1  0  0  0  0  0  0
  162.3310  205.7730  148.5760 C   0  0  0  0  0  3  0  0  0  0  0  0
  161.6860  205.2750  147.5280 C   0  0  0  0  0  2  0  0  0  0  0  0
  1  6  2  0  0  0  0
  2 13  1  0  0  0  0
  3 14  1  1  0  0  0
  3 18  1  0  0  0  0
  4  2  1  1  0  0  0
  4 10  1  0  0  0  0
  4  3  1  0  0  0  0
  5 18  1  0  0  0  0
  5  8  1  0  0  0  0
  6  9  2  0  0  0  0
  7  9  1  0  0  0  0
  7 29  1  1  0  0  0
  8  1  1  1  0  0  0
 10  5  2  0  0  0  0
 12 17  2  0  0  0  0
 12 10  1  0  0  0  0
 13 32  1  6  0  0  0
 13 14  1  0  0  0  0
 15 11  2  0  0  0  0
 15  8  1  0  0  0  0
 16  7  1  0  0  0  0
 17 15  1  0  0  0  0
 18 16  1  1  0  0  0
 19 31  2  0  0  0  0
 20 31  1  0  0  0  0
 22 29  2  0  0  0  0
 23 27  1  0  0  0  0
 23 21  1  0  0  0  0
 25 28  1  0  0  0  0
 26 21  1  0  0  0  0
 26 28  1  0  0  0  0
 27 24  1  6  0  0  0
 29 26  1  0  0  0  0
 30 27  1  0  0  0  0
 30 25  1  0  0  0  0
 31 30  1  0  0  0  0
 32 35  1  0  0  0  0
 33 32  2  0  0  0  0
 34 36  1  0  0  0  0
 34 35  2  0  0  0  0
 37 34  1  0  0  0  0
 38 12  1  0  0  0  0
 39 38  2  0  0  0  0
M  END
>  <MODEL>
2

>  <REMARK>
 VINA RESULT:      -5.3      3.633      6.508
  Name = 
  4 active torsions:
  status: ('A' for Active; 'I' for Inactive)
    1  A    between atoms: N_9  and  C_25
    2  A    between atoms: C_15  and  C_35
    3  A    between atoms: C_24  and  C_31
    4  A    between atoms: C_25  and  C_27
                            x       y       z     vdW  Elec       q    Type
                         _______ _______ _______ _____ _____    ______ ____

>  <TORSDO>
F 4

$$$$
=
 OpenBabel11052409583D

 39 43  0  0  1  0  0  0  0  0999 V2000
  158.9750  213.9050  149.2170 C   0  0  0  0  0  3  0  0  0  0  0  0
  161.7020  208.8490  151.6150 S   0  0  0  0  0  0  0  0  0  0  0  0
  160.8630  211.1870  152.4830 C   0  0  2  0  0  3  0  0  0  0  0  0
  161.4490  210.6040  151.4700 C   0  0  2  0  0  3  0  0  0  0  0  0
  160.5280  212.4750  150.5900 C   0  0  0  0  0  0  0  0  0  0  0  0
  158.0760  214.0360  150.1400 C   0  0  0  0  0  0  0  0  0  0  0  0
  157.9240  213.5920  152.4760 C   0  0  2  0  0  3  0  0  0  0  0  0
  160.3920  213.6580  149.6370 C   0  0  1  0  0  3  0  0  0  0  0  0
  157.3130  214.0450  151.1890 C   0  0  0  0  0  3  0  0  0  0  0  0
  161.2340  211.3950  150.2720 C   0  0  0  0  0  0  0  0  0  0  0  0
  161.3970  214.4480  147.6100 O   0  0  0  0  0  0  0  0  0  0  0  0
  161.8920  211.2370  148.9610 C   0  0  0  0  0  0  0  0  0  0  0  0
  160.5220  208.8860  153.0170 C   0  0  2  0  0  3  0  0  0  0  0  0
  160.5250  210.2910  153.6160 C   0  0  0  0  0  2  0  0  0  0  0  0
  161.2480  213.4840  148.4070 C   0  0  0  0  0  0  0  0  0  0  0  0
  158.6540  212.2560  152.3020 C   0  0  0  0  0  2  0  0  0  0  0  0
  161.8880  212.2310  148.1210 N   0  0  0  0  0  0  0  0  0  0  0  0
  160.1590  212.4460  152.0650 C   0  0  1  0  0  3  0  0  0  0  0  0
  158.5950  210.2080  155.1950 O   0  0  0  0  0  0  0  0  0  0  0  0
  156.3660  210.1710  155.6960 O   0  0  0  0  0  1  0  0  0  0  0  0
  158.4620  214.4530  155.2450 C   0  0  0  0  0  2  0  0  0  0  0  0
  155.7310  213.0450  153.2430 O   0  0  0  0  0  0  0  0  0  0  0  0
  159.4860  213.3470  155.4860 C   0  0  0  0  0  2  0  0  0  0  0  0
  160.2310  211.6040  157.1440 C   0  0  0  0  0  1  0  0  0  0  0  0
  156.6720  212.6900  157.0440 C   0  0  0  0  0  2  0  0  0  0  0  0
  157.1660  213.8740  154.8940 N   0  0  0  0  0  0  0  0  0  0  0  0
  159.1290  212.5750  156.7490 C   0  0  2  0  0  3  0  0  0  0  0  0
  156.1700  213.6400  155.9430 C   0  0  0  0  0  2  0  0  0  0  0  0
  156.8770  213.4830  153.5420 C   0  0  0  0  0  0  0  0  0  0  0  0
  157.8290  211.9150  156.6100 N   0  0  0  0  0  0  0  0  0  0  0  0
  157.6310  210.7360  155.8090 C   0  0  0  0  0  0  0  0  0  0  0  0
  160.8660  207.8640  154.0480 C   0  0  0  0  0  0  0  0  0  0  0  0
  161.3840  208.2220  155.1410 O   0  0  0  0  0  0  0  0  0  0  0  0
  161.3550  205.6280  153.1860 C   0  0  0  0  0  0  0  0  0  0  0  0
  160.5740  206.4850  153.7740 N   0  0  0  0  0  0  0  0  0  0  0  0
  160.9110  204.2880  153.0140 N   0  0  0  0  0  1  0  0  0  0  0  0
  162.6480  205.9990  152.7080 N   0  0  0  0  0  1  0  0  0  0  0  0
  162.5830  209.9820  148.6250 C   0  0  0  0  0  3  0  0  0  0  0  0
  161.9310  208.8900  148.2460 C   0  0  0  0  0  2  0  0  0  0  0  0
  1  6  2  0  0  0  0
  2 13  1  0  0  0  0
  3 14  1  6  0  0  0
  4 10  1  6  0  0  0
  4  2  1  0  0  0  0
  4  3  1  0  0  0  0
  5 18  1  0  0  0  0
  6  9  2  0  0  0  0
  7 29  1  1  0  0  0
  8  1  1  6  0  0  0
  8  5  1  0  0  0  0
  9  7  1  0  0  0  0
 10  5  2  0  0  0  0
 11 15  2  0  0  0  0
 12 10  1  0  0  0  0
 13 14  1  0  0  0  0
 13 32  1  1  0  0  0
 15  8  1  0  0  0  0
 16  7  1  0  0  0  0
 17 15  1  0  0  0  0
 17 12  2  0  0  0  0
 18 16  1  6  0  0  0
 18  3  1  0  0  0  0
 19 31  2  0  0  0  0
 20 31  1  0  0  0  0
 21 23  1  0  0  0  0
 22 29  2  0  0  0  0
 23 27  1  0  0  0  0
 26 21  1  0  0  0  0
 26 28  1  0  0  0  0
 27 24  1  6  0  0  0
 28 25  1  0  0  0  0
 29 26  1  0  0  0  0
 30 27  1  0  0  0  0
 30 25  1  0  0  0  0
 31 30  1  0  0  0  0
 32 33  2  0  0  0  0
 34 35  2  0  0  0  0
 35 32  1  0  0  0  0
 36 34  1  0  0  0  0
 37 34  1  0  0  0  0
 38 12  1  0  0  0  0
 39 38  2  0  0  0  0
M  END
>  <MODEL>
3

>  <REMARK>
 VINA RESULT:      -4.5      3.958      7.836
  Name = 
  4 active torsions:
  status: ('A' for Active; 'I' for Inactive)
    1  A    between atoms: N_9  and  C_25
    2  A    between atoms: C_15  and  C_35
    3  A    between atoms: C_24  and  C_31
    4  A    between atoms: C_25  and  C_27
                            x       y       z     vdW  Elec       q    Type
                         _______ _______ _______ _____ _____    ______ ____

>  <TORSDO>
F 4

$$$$
