=
 OpenBabel11052410373D

 25 26  0  0  1  0  0  0  0  0999 V2000
  160.0530  206.2160  146.2930 C   0  0  0  0  0  3  0  0  0  0  0  0
  160.0740  205.7530  145.0450 C   0  0  0  0  0  3  0  0  0  0  0  0
  160.8760  205.6500  147.4020 C   0  0  1  0  0  3  0  0  0  0  0  0
  160.9670  204.6920  144.5490 C   0  0  0  0  0  3  0  0  0  0  0  0
  160.9280  205.8370  149.9140 C   0  0  0  0  0  0  0  0  0  0  0  0
  162.9120  205.1230  146.0830 C   0  0  0  0  0  3  0  0  0  0  0  0
  162.3660  205.7710  147.1150 C   0  0  0  0  0  0  0  0  0  0  0  0
  162.9040  207.7140  148.6120 C   0  0  0  0  0  2  0  0  0  0  0  0
  163.3440  206.3480  148.1030 C   0  0  0  0  0  2  0  0  0  0  0  0
  161.8850  206.4520  150.5510 N   0  0  0  0  0  0  0  0  0  0  0  0
  162.5550  207.6830  150.1100 C   0  0  2  0  0  3  0  0  0  0  0  0
  162.1950  204.4200  145.0020 C   0  0  0  0  0  3  0  0  0  0  0  0
  160.4880  206.3090  148.6420 N   0  0  0  0  0  2  0  0  0  0  0  0
  161.6320  209.8500  149.6930 O   0  0  0  0  0  0  0  0  0  0  0  0
  161.7670  208.8960  150.5040 C   0  0  0  0  0  0  0  0  0  0  0  0
  161.7070  209.6240  152.7420 N   0  0  0  0  0  0  0  0  0  0  0  0
  161.1570  208.9840  151.7920 N   0  0  0  0  0  0  0  0  0  0  0  0
  160.6550  208.3180  154.7750 O   0  0  0  0  0  0  0  0  0  0  0  0
  159.6490  210.4670  154.1690 O   0  0  0  0  0  0  0  0  0  0  0  0
  160.9420  209.7110  154.2880 S   0  0  0  0  0  0  0  0  0  0  0  0
  162.0170  210.5230  155.4460 C   0  0  0  0  0  1  0  0  0  0  0  0
  160.8130  203.3930  149.5400 C   0  0  0  0  0  1  0  0  0  0  0  0
  160.3880  204.5430  150.4370 C   0  0  1  0  0  3  0  0  0  0  0  0
  160.8440  204.3060  151.8700 C   0  0  0  0  0  2  0  0  0  0  0  0
  161.1850  202.9070  152.0580 N   0  0  0  0  0  1  0  0  0  0  0  0
  2  1  2  0  0  0  0
  3  1  1  6  0  0  0
  3 13  1  0  0  0  0
  4 12  2  0  0  0  0
  4  2  1  0  0  0  0
  5 23  1  0  0  0  0
  5 10  2  0  0  0  0
  6  7  2  0  0  0  0
  7  3  1  0  0  0  0
  7  9  1  0  0  0  0
  8 11  1  0  0  0  0
  9  8  1  0  0  0  0
 11 15  1  6  0  0  0
 11 10  1  0  0  0  0
 12  6  1  0  0  0  0
 13  5  1  0  0  0  0
 14 15  2  0  0  0  0
 15 17  1  0  0  0  0
 16 20  1  0  0  0  0
 17 16  2  0  0  0  0
 19 20  2  0  0  0  0
 20 18  2  0  0  0  0
 20 21  1  0  0  0  0
 23 22  1  6  0  0  0
 23 24  1  0  0  0  0
 24 25  1  0  0  0  0
M  END
>  <MODEL>
1

>  <REMARK>
 VINA RESULT:      -6.4      0.000      0.000
  Name = 
  5 active torsions:
  status: ('A' for Active; 'I' for Inactive)
    1  A    between atoms: C_1  and  C_22
    2  A    between atoms: N_3  and  S_17
    3  A    between atoms: C_9  and  C_22
    4  A    between atoms: C_11  and  N_18
    5  A    between atoms: C_11  and  C_23
                            x       y       z     vdW  Elec       q    Type
                         _______ _______ _______ _____ _____    ______ ____

>  <TORSDO>
F 5

$$$$
=
 OpenBabel11052410373D

 25 26  0  0  1  0  0  0  0  0999 V2000
  160.0750  206.2120  146.2560 C   0  0  0  0  0  3  0  0  0  0  0  0
  160.0980  205.7110  145.0240 C   0  0  0  0  0  3  0  0  0  0  0  0
  160.8800  205.6670  147.3890 C   0  0  1  0  0  3  0  0  0  0  0  0
  160.9760  204.6200  144.5680 C   0  0  0  0  0  3  0  0  0  0  0  0
  160.9170  205.9290  149.8950 C   0  0  0  0  0  0  0  0  0  0  0  0
  162.9160  205.0640  146.1040 C   0  0  0  0  0  3  0  0  0  0  0  0
  162.3740  205.7530  147.1110 C   0  0  0  0  0  0  0  0  0  0  0  0
  162.9350  207.7310  148.5520 C   0  0  0  0  0  2  0  0  0  0  0  0
  163.3540  206.3430  148.0880 C   0  0  0  0  0  2  0  0  0  0  0  0
  161.8790  206.5470  150.5200 N   0  0  0  0  0  0  0  0  0  0  0  0
  162.5750  207.7520  150.0470 C   0  0  2  0  0  3  0  0  0  0  0  0
  162.1950  204.3400  145.0390 C   0  0  0  0  0  3  0  0  0  0  0  0
  160.4950  206.3700  148.6050 N   0  0  0  0  0  2  0  0  0  0  0  0
  161.3150  209.1210  151.5510 O   0  0  0  0  0  0  0  0  0  0  0  0
  161.8050  208.9900  150.3980 C   0  0  0  0  0  0  0  0  0  0  0  0
  162.0220  211.2170  149.6670 N   0  0  0  0  0  0  0  0  0  0  0  0
  161.6220  210.0330  149.4400 N   0  0  0  0  0  0  0  0  0  0  0  0
  160.9670  211.9060  147.3530 O   0  0  0  0  0  0  0  0  0  0  0  0
  163.1160  212.9120  147.9590 O   0  0  0  0  0  0  0  0  0  0  0  0
  161.7850  212.4560  148.4880 S   0  0  0  0  0  0  0  0  0  0  0  0
  160.9200  213.8250  149.2190 C   0  0  0  0  0  1  0  0  0  0  0  0
  160.7610  203.4780  149.5940 C   0  0  0  0  0  1  0  0  0  0  0  0
  160.3500  204.6620  150.4530 C   0  0  1  0  0  3  0  0  0  0  0  0
  160.7900  204.4620  151.8960 C   0  0  0  0  0  2  0  0  0  0  0  0
  161.1230  203.0660  152.1250 N   0  0  0  0  0  1  0  0  0  0  0  0
  2  1  2  0  0  0  0
  3  1  1  6  0  0  0
  3 13  1  0  0  0  0
  4  2  1  0  0  0  0
  4 12  2  0  0  0  0
  5 23  1  0  0  0  0
  5 10  2  0  0  0  0
  6  7  2  0  0  0  0
  7  3  1  0  0  0  0
  7  9  1  0  0  0  0
  8 11  1  0  0  0  0
  9  8  1  0  0  0  0
 11 15  1  6  0  0  0
 11 10  1  0  0  0  0
 12  6  1  0  0  0  0
 13  5  1  0  0  0  0
 15 14  2  0  0  0  0
 17 16  2  0  0  0  0
 17 15  1  0  0  0  0
 18 20  2  0  0  0  0
 19 20  2  0  0  0  0
 20 21  1  0  0  0  0
 20 16  1  0  0  0  0
 23 22  1  6  0  0  0
 23 24  1  0  0  0  0
 24 25  1  0  0  0  0
M  END
>  <MODEL>
2

>  <REMARK>
 VINA RESULT:      -6.4      2.144      3.102
  Name = 
  5 active torsions:
  status: ('A' for Active; 'I' for Inactive)
    1  A    between atoms: C_1  and  C_22
    2  A    between atoms: N_3  and  S_17
    3  A    between atoms: C_9  and  C_22
    4  A    between atoms: C_11  and  N_18
    5  A    between atoms: C_11  and  C_23
                            x       y       z     vdW  Elec       q    Type
                         _______ _______ _______ _____ _____    ______ ____

>  <TORSDO>
F 5

$$$$
=
 OpenBabel11052410373D

 25 26  0  0  1  0  0  0  0  0999 V2000
  162.1090  209.0940  140.1520 C   0  0  0  0  0  3  0  0  0  0  0  0
  161.6290  208.0240  139.5210 C   0  0  0  0  0  3  0  0  0  0  0  0
  161.8300  210.4990  139.7310 C   0  0  1  0  0  3  0  0  0  0  0  0
  160.6890  208.0590  138.3880 C   0  0  0  0  0  3  0  0  0  0  0  0
  162.7600  212.7810  140.2610 C   0  0  0  0  0  0  0  0  0  0  0  0
  159.4810  210.1780  138.9970 C   0  0  0  0  0  3  0  0  0  0  0  0
  160.3440  210.8200  139.7890 C   0  0  0  0  0  0  0  0  0  0  0  0
  160.3070  212.1620  141.9110 C   0  0  0  0  0  2  0  0  0  0  0  0
  159.7970  212.0390  140.4810 C   0  0  0  0  0  2  0  0  0  0  0  0
  162.0920  213.6670  140.9430 N   0  0  0  0  0  0  0  0  0  0  0  0
  161.2190  213.3870  142.0920 C   0  0  2  0  0  3  0  0  0  0  0  0
  159.7610  208.9930  138.1620 C   0  0  0  0  0  3  0  0  0  0  0  0
  162.6290  211.3910  140.5610 N   0  0  0  0  0  2  0  0  0  0  0  0
  163.2710  213.2470  143.3120 O   0  0  0  0  0  0  0  0  0  0  0  0
  162.0130  213.2840  143.3590 C   0  0  0  0  0  0  0  0  0  0  0  0
  162.0080  212.9920  145.6950 N   0  0  0  0  0  0  0  0  0  0  0  0
  161.3620  213.2340  144.6290 N   0  0  0  0  0  0  0  0  0  0  0  0
  159.8640  212.2530  147.0360 O   0  0  0  0  0  0  0  0  0  0  0  0
  160.9570  214.3370  147.7120 O   0  0  0  0  0  0  0  0  0  0  0  0
  161.1890  212.9380  147.2140 S   0  0  0  0  0  0  0  0  0  0  0  0
  162.1620  212.0290  148.3910 C   0  0  0  0  0  1  0  0  0  0  0  0
  162.6200  213.6370  137.9440 C   0  0  0  0  0  1  0  0  0  0  0  0
  163.5500  213.1950  139.0610 C   0  0  1  0  0  3  0  0  0  0  0  0
  164.5320  214.3030  139.4150 C   0  0  0  0  0  2  0  0  0  0  0  0
  165.7970  214.0830  138.7360 N   0  0  0  0  0  1  0  0  0  0  0  0
  2  1  2  0  0  0  0
  3  7  1  0  0  0  0
  3  1  1  1  0  0  0
  3 13  1  0  0  0  0
  4  2  1  0  0  0  0
  5 13  1  0  0  0  0
  5 10  2  0  0  0  0
  6  7  2  0  0  0  0
  7  9  1  0  0  0  0
  8 11  1  0  0  0  0
  9  8  1  0  0  0  0
 10 11  1  0  0  0  0
 11 15  1  1  0  0  0
 12  4  2  0  0  0  0
 12  6  1  0  0  0  0
 14 15  2  0  0  0  0
 15 17  1  0  0  0  0
 16 20  1  0  0  0  0
 17 16  2  0  0  0  0
 18 20  2  0  0  0  0
 20 19  2  0  0  0  0
 20 21  1  0  0  0  0
 23 22  1  6  0  0  0
 23 24  1  0  0  0  0
 23  5  1  0  0  0  0
 25 24  1  0  0  0  0
M  END
>  <MODEL>
3

>  <REMARK>
 VINA RESULT:      -5.1      8.247     10.345
  Name = 
  5 active torsions:
  status: ('A' for Active; 'I' for Inactive)
    1  A    between atoms: C_1  and  C_22
    2  A    between atoms: N_3  and  S_17
    3  A    between atoms: C_9  and  C_22
    4  A    between atoms: C_11  and  N_18
    5  A    between atoms: C_11  and  C_23
                            x       y       z     vdW  Elec       q    Type
                         _______ _______ _______ _____ _____    ______ ____

>  <TORSDO>
F 5

$$$$
=
 OpenBabel11052410373D

 25 26  0  0  1  0  0  0  0  0999 V2000
  156.6870  211.1510  155.0010 C   0  0  0  0  0  3  0  0  0  0  0  0
  155.8950  211.5610  155.9880 C   0  0  0  0  0  3  0  0  0  0  0  0
  157.8540  211.9330  154.4930 C   0  0  1  0  0  3  0  0  0  0  0  0
  156.0960  212.7840  156.7840 C   0  0  0  0  0  3  0  0  0  0  0  0
  159.3670  211.8530  152.4800 C   0  0  0  0  0  0  0  0  0  0  0  0
  158.6050  212.8740  156.6630 C   0  0  0  0  0  3  0  0  0  0  0  0
  158.8990  212.1540  155.5780 C   0  0  0  0  0  0  0  0  0  0  0  0
  160.5900  210.4450  154.8550 C   0  0  0  0  0  2  0  0  0  0  0  0
  160.3600  211.8570  155.3770 C   0  0  0  0  0  2  0  0  0  0  0  0
  160.6200  211.5020  152.5600 N   0  0  0  0  0  0  0  0  0  0  0  0
  161.1610  210.4470  153.4280 C   0  0  2  0  0  3  0  0  0  0  0  0
  157.2710  213.3520  157.0740 C   0  0  0  0  0  3  0  0  0  0  0  0
  158.3920  211.2460  153.3270 N   0  0  0  0  0  2  0  0  0  0  0  0
  160.7790  208.0870  153.5000 O   0  0  0  0  0  0  0  0  0  0  0  0
  161.0180  209.0980  152.7890 C   0  0  0  0  0  0  0  0  0  0  0  0
  161.5730  207.8610  150.8640 N   0  0  0  0  0  0  0  0  0  0  0  0
  161.1430  208.9420  151.3750 N   0  0  0  0  0  0  0  0  0  0  0  0
  163.0890  207.2070  148.8110 O   0  0  0  0  0  0  0  0  0  0  0  0
  161.5000  209.0450  148.5030 O   0  0  0  0  0  0  0  0  0  0  0  0
  161.7120  207.7050  149.1500 S   0  0  0  0  0  0  0  0  0  0  0  0
  160.5090  206.5430  148.5520 C   0  0  0  0  0  1  0  0  0  0  0  0
  158.8270  214.2680  152.4410 C   0  0  0  0  0  1  0  0  0  0  0  0
  158.9630  213.0020  151.6120 C   0  0  1  0  0  3  0  0  0  0  0  0
  159.9610  213.2030  150.4810 C   0  0  0  0  0  2  0  0  0  0  0  0
  159.2810  213.7080  149.3010 N   0  0  0  0  0  1  0  0  0  0  0  0
  1  2  2  0  0  0  0
  2  4  1  0  0  0  0
  3  1  1  1  0  0  0
  3  7  1  0  0  0  0
  4 12  2  0  0  0  0
  5 10  2  0  0  0  0
  5 13  1  0  0  0  0
  6 12  1  0  0  0  0
  7  6  2  0  0  0  0
  8  9  1  0  0  0  0
  9  7  1  0  0  0  0
 10 11  1  0  0  0  0
 11 15  1  6  0  0  0
 11  8  1  0  0  0  0
 13  3  1  0  0  0  0
 15 14  2  0  0  0  0
 16 17  2  0  0  0  0
 17 15  1  0  0  0  0
 18 20  2  0  0  0  0
 19 20  2  0  0  0  0
 20 16  1  0  0  0  0
 21 20  1  0  0  0  0
 23 22  1  1  0  0  0
 23  5  1  0  0  0  0
 24 23  1  0  0  0  0
 25 24  1  0  0  0  0
M  END
>  <MODEL>
4

>  <REMARK>
 VINA RESULT:      -4.8      4.052      9.165
  Name = 
  5 active torsions:
  status: ('A' for Active; 'I' for Inactive)
    1  A    between atoms: C_1  and  C_22
    2  A    between atoms: N_3  and  S_17
    3  A    between atoms: C_9  and  C_22
    4  A    between atoms: C_11  and  N_18
    5  A    between atoms: C_11  and  C_23
                            x       y       z     vdW  Elec       q    Type
                         _______ _______ _______ _____ _____    ______ ____

>  <TORSDO>
F 5

$$$$
=
 OpenBabel11052410373D

 25 26  0  0  1  0  0  0  0  0999 V2000
  163.1890  205.6280  147.3110 C   0  0  0  0  0  3  0  0  0  0  0  0
  163.1490  205.0890  146.0950 C   0  0  0  0  0  3  0  0  0  0  0  0
  162.2180  206.6510  147.7990 C   0  0  1  0  0  3  0  0  0  0  0  0
  162.1030  205.3430  145.0890 C   0  0  0  0  0  3  0  0  0  0  0  0
  162.0670  208.2440  149.7450 C   0  0  0  0  0  0  0  0  0  0  0  0
  160.1930  205.7670  146.6680 C   0  0  0  0  0  3  0  0  0  0  0  0
  160.7930  206.1160  147.8090 C   0  0  0  0  0  0  0  0  0  0  0  0
  160.5450  205.6890  150.2700 C   0  0  0  0  0  2  0  0  0  0  0  0
  159.8880  206.2240  149.0050 C   0  0  0  0  0  2  0  0  0  0  0  0
  161.2090  208.0880  150.7130 N   0  0  0  0  0  0  0  0  0  0  0  0
  160.8020  206.8030  151.2990 C   0  0  2  0  0  3  0  0  0  0  0  0
  160.8240  205.6390  145.3400 C   0  0  0  0  0  3  0  0  0  0  0  0
  162.6540  207.1080  149.1110 N   0  0  0  0  0  2  0  0  0  0  0  0
  162.7920  205.6850  152.0140 O   0  0  0  0  0  0  0  0  0  0  0  0
  161.7780  206.3550  152.3450 C   0  0  0  0  0  0  0  0  0  0  0  0
  160.8340  207.6520  154.0680 N   0  0  0  0  0  0  0  0  0  0  0  0
  161.5780  206.6830  153.7200 N   0  0  0  0  0  0  0  0  0  0  0  0
  161.9570  208.0800  156.4130 O   0  0  0  0  0  0  0  0  0  0  0  0
  159.7840  206.9510  156.3890 O   0  0  0  0  0  0  0  0  0  0  0  0
  160.6140  208.0220  155.7400 S   0  0  0  0  0  0  0  0  0  0  0  0
  159.8110  209.5980  155.9070 C   0  0  0  0  0  1  0  0  0  0  0  0
  161.5700  209.8000  147.8870 C   0  0  0  0  0  1  0  0  0  0  0  0
  162.3310  209.6070  149.1870 C   0  0  1  0  0  3  0  0  0  0  0  0
  161.9600  210.6850  150.1950 C   0  0  0  0  0  2  0  0  0  0  0  0
  161.5790  211.9040  149.5020 N   0  0  0  0  0  1  0  0  0  0  0  0
  2  1  2  0  0  0  0
  3  1  1  1  0  0  0
  3  7  1  0  0  0  0
  3 13  1  0  0  0  0
  4 12  2  0  0  0  0
  4  2  1  0  0  0  0
  5 10  2  0  0  0  0
  6  7  2  0  0  0  0
  7  9  1  0  0  0  0
  8 11  1  0  0  0  0
  9  8  1  0  0  0  0
 10 11  1  0  0  0  0
 11 15  1  1  0  0  0
 12  6  1  0  0  0  0
 13  5  1  0  0  0  0
 14 15  2  0  0  0  0
 15 17  1  0  0  0  0
 16 20  1  0  0  0  0
 17 16  2  0  0  0  0
 20 21  1  0  0  0  0
 20 19  2  0  0  0  0
 20 18  2  0  0  0  0
 23 22  1  6  0  0  0
 23  5  1  0  0  0  0
 23 24  1  0  0  0  0
 25 24  1  0  0  0  0
M  END
>  <MODEL>
5

>  <REMARK>
 VINA RESULT:      -4.8      2.114      3.889
  Name = 
  5 active torsions:
  status: ('A' for Active; 'I' for Inactive)
    1  A    between atoms: C_1  and  C_22
    2  A    between atoms: N_3  and  S_17
    3  A    between atoms: C_9  and  C_22
    4  A    between atoms: C_11  and  N_18
    5  A    between atoms: C_11  and  C_23
                            x       y       z     vdW  Elec       q    Type
                         _______ _______ _______ _____ _____    ______ ____

>  <TORSDO>
F 5

$$$$
=
 OpenBabel11052410373D

 25 26  0  0  1  0  0  0  0  0999 V2000
  159.7980  206.1880  147.2490 C   0  0  0  0  0  3  0  0  0  0  0  0
  159.7950  206.1590  145.9180 C   0  0  0  0  0  3  0  0  0  0  0  0
  160.9130  205.6560  148.0880 C   0  0  1  0  0  3  0  0  0  0  0  0
  160.9110  205.6920  145.0780 C   0  0  0  0  0  3  0  0  0  0  0  0
  161.2570  205.0920  150.5190 C   0  0  0  0  0  0  0  0  0  0  0  0
  162.7970  206.3200  146.6160 C   0  0  0  0  0  3  0  0  0  0  0  0
  162.2200  206.3880  147.8180 C   0  0  0  0  0  0  0  0  0  0  0  0
  162.2850  207.8520  149.8560 C   0  0  0  0  0  2  0  0  0  0  0  0
  163.0790  206.9570  148.9140 C   0  0  0  0  0  2  0  0  0  0  0  0
  162.0340  205.7920  151.2970 N   0  0  0  0  0  0  0  0  0  0  0  0
  162.1840  207.2540  151.2680 C   0  0  2  0  0  3  0  0  0  0  0  0
  162.2100  205.7610  145.3830 C   0  0  0  0  0  3  0  0  0  0  0  0
  160.5080  205.7290  149.4850 N   0  0  0  0  0  2  0  0  0  0  0  0
  160.4600  207.2680  152.9260 O   0  0  0  0  0  0  0  0  0  0  0  0
  161.1010  207.9220  152.0610 C   0  0  0  0  0  0  0  0  0  0  0  0
  160.1660  209.9760  152.7310 N   0  0  0  0  0  0  0  0  0  0  0  0
  160.7860  209.2990  151.8530 N   0  0  0  0  0  0  0  0  0  0  0  0
  160.1630  212.4390  153.6670 O   0  0  0  0  0  0  0  0  0  0  0  0
  158.3310  211.7940  152.1750 O   0  0  0  0  0  0  0  0  0  0  0  0
  159.8010  211.6400  152.4470 S   0  0  0  0  0  0  0  0  0  0  0  0
  160.7420  212.2340  151.0620 C   0  0  0  0  0  1  0  0  0  0  0  0
  160.8430  203.1460  151.9910 C   0  0  0  0  0  1  0  0  0  0  0  0
  161.2600  203.5980  150.6020 C   0  0  1  0  0  3  0  0  0  0  0  0
  160.3480  202.9960  149.5420 C   0  0  0  0  0  2  0  0  0  0  0  0
  161.1090  202.1140  148.6740 N   0  0  0  0  0  1  0  0  0  0  0  0
  2  1  2  0  0  0  0
  3  1  1  6  0  0  0
  3 13  1  0  0  0  0
  4 12  2  0  0  0  0
  4  2  1  0  0  0  0
  5 23  1  0  0  0  0
  5 10  2  0  0  0  0
  6  7  2  0  0  0  0
  7  3  1  0  0  0  0
  7  9  1  0  0  0  0
  8 11  1  0  0  0  0
  9  8  1  0  0  0  0
 11 10  1  0  0  0  0
 11 15  1  6  0  0  0
 12  6  1  0  0  0  0
 13  5  1  0  0  0  0
 15 14  2  0  0  0  0
 17 15  1  0  0  0  0
 17 16  2  0  0  0  0
 19 20  2  0  0  0  0
 20 16  1  0  0  0  0
 20 18  2  0  0  0  0
 21 20  1  0  0  0  0
 23 22  1  1  0  0  0
 24 23  1  0  0  0  0
 25 24  1  0  0  0  0
M  END
>  <MODEL>
6

>  <REMARK>
 VINA RESULT:      -4.7      1.821      2.249
  Name = 
  5 active torsions:
  status: ('A' for Active; 'I' for Inactive)
    1  A    between atoms: C_1  and  C_22
    2  A    between atoms: N_3  and  S_17
    3  A    between atoms: C_9  and  C_22
    4  A    between atoms: C_11  and  N_18
    5  A    between atoms: C_11  and  C_23
                            x       y       z     vdW  Elec       q    Type
                         _______ _______ _______ _____ _____    ______ ____

>  <TORSDO>
F 5

$$$$
=
 OpenBabel11052410373D

 25 26  0  0  1  0  0  0  0  0999 V2000
  157.1670  211.4050  155.3770 C   0  0  0  0  0  3  0  0  0  0  0  0
  156.3970  212.3620  155.8910 C   0  0  0  0  0  3  0  0  0  0  0  0
  158.6420  211.5390  155.1870 C   0  0  1  0  0  3  0  0  0  0  0  0
  156.8840  213.6440  156.4300 C   0  0  0  0  0  3  0  0  0  0  0  0
  160.4420  210.2890  153.9440 C   0  0  0  0  0  0  0  0  0  0  0  0
  159.1330  212.8570  157.2320 C   0  0  0  0  0  3  0  0  0  0  0  0
  159.3630  211.7570  156.5100 C   0  0  0  0  0  0  0  0  0  0  0  0
  160.2950  209.4500  156.8410 C   0  0  0  0  0  2  0  0  0  0  0  0
  160.5580  210.9470  156.9320 C   0  0  0  0  0  2  0  0  0  0  0  0
  161.3600  209.5940  154.5540 N   0  0  0  0  0  0  0  0  0  0  0  0
  161.1600  208.7800  155.7610 C   0  0  2  0  0  3  0  0  0  0  0  0
  158.0700  213.8560  157.0090 C   0  0  0  0  0  3  0  0  0  0  0  0
  159.1200  210.3610  154.4760 N   0  0  0  0  0  2  0  0  0  0  0  0
  159.6400  206.9540  156.0350 O   0  0  0  0  0  0  0  0  0  0  0  0
  160.6290  207.4210  155.4120 C   0  0  0  0  0  0  0  0  0  0  0  0
  160.8240  206.7260  153.1720 N   0  0  0  0  0  0  0  0  0  0  0  0
  161.2290  206.6470  154.3730 N   0  0  0  0  0  0  0  0  0  0  0  0
  161.2240  204.3290  152.1540 O   0  0  0  0  0  0  0  0  0  0  0  0
  163.0630  205.9390  152.0100 O   0  0  0  0  0  0  0  0  0  0  0  0
  161.5710  205.7750  151.9390 S   0  0  0  0  0  0  0  0  0  0  0  0
  160.9780  206.2850  150.3440 C   0  0  0  0  0  1  0  0  0  0  0  0
  161.5730  210.3260  151.7430 C   0  0  0  0  0  1  0  0  0  0  0  0
  160.8010  211.1400  152.7680 C   0  0  1  0  0  3  0  0  0  0  0  0
  159.5550  211.7510  152.1420 C   0  0  0  0  0  2  0  0  0  0  0  0
  159.6680  213.1990  152.1220 N   0  0  0  0  0  1  0  0  0  0  0  0
  1  2  2  0  0  0  0
  2  4  1  0  0  0  0
  3  1  1  1  0  0  0
  3  7  1  0  0  0  0
  4 12  2  0  0  0  0
  5 13  1  0  0  0  0
  5 10  2  0  0  0  0
  7  9  1  0  0  0  0
  7  6  2  0  0  0  0
  8  9  1  0  0  0  0
 10 11  1  0  0  0  0
 11 15  1  6  0  0  0
 11  8  1  0  0  0  0
 12  6  1  0  0  0  0
 13  3  1  0  0  0  0
 15 14  2  0  0  0  0
 16 17  2  0  0  0  0
 17 15  1  0  0  0  0
 20 19  2  0  0  0  0
 20 18  2  0  0  0  0
 20 16  1  0  0  0  0
 21 20  1  0  0  0  0
 23 22  1  6  0  0  0
 23  5  1  0  0  0  0
 24 23  1  0  0  0  0
 25 24  1  0  0  0  0
M  END
>  <MODEL>
7

>  <REMARK>
 VINA RESULT:      -4.5      3.700      9.040
  Name = 
  5 active torsions:
  status: ('A' for Active; 'I' for Inactive)
    1  A    between atoms: C_1  and  C_22
    2  A    between atoms: N_3  and  S_17
    3  A    between atoms: C_9  and  C_22
    4  A    between atoms: C_11  and  N_18
    5  A    between atoms: C_11  and  C_23
                            x       y       z     vdW  Elec       q    Type
                         _______ _______ _______ _____ _____    ______ ____

>  <TORSDO>
F 5

$$$$
=
 OpenBabel11052410373D

 25 26  0  0  1  0  0  0  0  0999 V2000
  162.7300  210.5580  155.4630 C   0  0  0  0  0  3  0  0  0  0  0  0
  162.7270  211.3680  156.5190 C   0  0  0  0  0  3  0  0  0  0  0  0
  161.5090  209.8830  154.9320 C   0  0  1  0  0  3  0  0  0  0  0  0
  161.5260  211.7920  157.2600 C   0  0  0  0  0  3  0  0  0  0  0  0
  161.0140  208.0160  153.3140 C   0  0  0  0  0  0  0  0  0  0  0  0
  159.8910  211.7180  155.3520 C   0  0  0  0  0  3  0  0  0  0  0  0
  160.4620  210.8880  154.4740 C   0  0  0  0  0  0  0  0  0  0  0  0
  160.8090  210.7240  151.9930 C   0  0  0  0  0  2  0  0  0  0  0  0
  159.7970  210.8190  153.1270 C   0  0  0  0  0  2  0  0  0  0  0  0
  160.4660  208.2250  152.1500 N   0  0  0  0  0  0  0  0  0  0  0  0
  160.7340  209.3700  151.2690 C   0  0  2  0  0  3  0  0  0  0  0  0
  160.2990  211.9410  156.7520 C   0  0  0  0  0  3  0  0  0  0  0  0
  161.9150  208.9730  153.8690 N   0  0  0  0  0  2  0  0  0  0  0  0
  162.9010  209.9720  150.4540 O   0  0  0  0  0  0  0  0  0  0  0  0
  161.9610  209.1340  150.4390 C   0  0  0  0  0  0  0  0  0  0  0  0
  161.2150  207.6740  148.7490 N   0  0  0  0  0  0  0  0  0  0  0  0
  162.0830  207.9630  149.6310 N   0  0  0  0  0  0  0  0  0  0  0  0
  162.7870  206.2040  147.2290 O   0  0  0  0  0  0  0  0  0  0  0  0
  160.4070  206.2800  146.6550 O   0  0  0  0  0  0  0  0  0  0  0  0
  161.3930  206.2500  147.7890 S   0  0  0  0  0  0  0  0  0  0  0  0
  161.1210  204.8100  148.7930 C   0  0  0  0  0  1  0  0  0  0  0  0
  161.2320  205.5710  153.6300 C   0  0  0  0  0  1  0  0  0  0  0  0
  160.5890  206.8480  154.1460 C   0  0  1  0  0  3  0  0  0  0  0  0
  160.9360  207.0720  155.6110 C   0  0  0  0  0  2  0  0  0  0  0  0
  159.7210  207.1930  156.3970 N   0  0  0  0  0  1  0  0  0  0  0  0
  1  2  2  0  0  0  0
  2  4  1  0  0  0  0
  3  1  1  6  0  0  0
  5 13  1  0  0  0  0
  5 23  1  0  0  0  0
  6 12  1  0  0  0  0
  7  3  1  0  0  0  0
  7  6  2  0  0  0  0
  8  9  1  0  0  0  0
  9  7  1  0  0  0  0
 10  5  2  0  0  0  0
 11 15  1  1  0  0  0
 11  8  1  0  0  0  0
 11 10  1  0  0  0  0
 12  4  2  0  0  0  0
 13  3  1  0  0  0  0
 15 14  2  0  0  0  0
 16 17  2  0  0  0  0
 17 15  1  0  0  0  0
 18 20  2  0  0  0  0
 19 20  2  0  0  0  0
 20 16  1  0  0  0  0
 20 21  1  0  0  0  0
 23 22  1  6  0  0  0
 23 24  1  0  0  0  0
 24 25  1  0  0  0  0
M  END
>  <MODEL>
8

>  <REMARK>
 VINA RESULT:      -4.4      3.182      7.854
  Name = 
  5 active torsions:
  status: ('A' for Active; 'I' for Inactive)
    1  A    between atoms: C_1  and  C_22
    2  A    between atoms: N_3  and  S_17
    3  A    between atoms: C_9  and  C_22
    4  A    between atoms: C_11  and  N_18
    5  A    between atoms: C_11  and  C_23
                            x       y       z     vdW  Elec       q    Type
                         _______ _______ _______ _____ _____    ______ ____

>  <TORSDO>
F 5

$$$$
=
 OpenBabel11052410373D

 25 26  0  0  1  0  0  0  0  0999 V2000
  158.2930  211.4020  139.4970 C   0  0  0  0  0  3  0  0  0  0  0  0
  157.5320  211.5820  138.4210 C   0  0  0  0  0  3  0  0  0  0  0  0
  159.6970  211.8980  139.6130 C   0  0  1  0  0  3  0  0  0  0  0  0
  157.9130  212.3650  137.2330 C   0  0  0  0  0  3  0  0  0  0  0  0
  161.6490  211.5070  141.1570 C   0  0  0  0  0  0  0  0  0  0  0  0
  159.4100  214.0310  138.3760 C   0  0  0  0  0  3  0  0  0  0  0  0
  159.7690  213.4150  139.5050 C   0  0  0  0  0  0  0  0  0  0  0  0
  160.0870  213.9730  141.9320 C   0  0  0  0  0  2  0  0  0  0  0  0
  160.5070  214.2700  140.4990 C   0  0  0  0  0  2  0  0  0  0  0  0
  162.0760  212.4140  141.9890 N   0  0  0  0  0  0  0  0  0  0  0  0
  161.2320  213.3490  142.7470 C   0  0  2  0  0  3  0  0  0  0  0  0
  158.7290  213.4240  137.2160 C   0  0  0  0  0  3  0  0  0  0  0  0
  160.2570  211.3980  140.8610 N   0  0  0  0  0  2  0  0  0  0  0  0
  159.7050  211.9580  143.9540 O   0  0  0  0  0  0  0  0  0  0  0  0
  160.7140  212.7100  144.0010 C   0  0  0  0  0  0  0  0  0  0  0  0
  160.8680  212.4890  146.3400 N   0  0  0  0  0  0  0  0  0  0  0  0
  161.3550  212.9390  145.2570 N   0  0  0  0  0  0  0  0  0  0  0  0
  162.7090  213.8500  147.6440 O   0  0  0  0  0  0  0  0  0  0  0  0
  162.3380  211.5240  148.3120 O   0  0  0  0  0  0  0  0  0  0  0  0
  161.6680  212.7840  147.8410 S   0  0  0  0  0  0  0  0  0  0  0  0
  160.4910  213.3370  149.0520 C   0  0  0  0  0  1  0  0  0  0  0  0
  161.9570  209.4000  139.8960 C   0  0  0  0  0  1  0  0  0  0  0  0
  162.6250  210.6730  140.3890 C   0  0  1  0  0  3  0  0  0  0  0  0
  163.2110  211.4600  139.2260 C   0  0  0  0  0  2  0  0  0  0  0  0
  162.7030  210.9410  137.9680 N   0  0  0  0  0  1  0  0  0  0  0  0
  2  1  2  0  0  0  0
  3  1  1  1  0  0  0
  3 13  1  0  0  0  0
  4  2  1  0  0  0  0
  5 10  2  0  0  0  0
  6  7  2  0  0  0  0
  7  3  1  0  0  0  0
  7  9  1  0  0  0  0
  8 11  1  0  0  0  0
  9  8  1  0  0  0  0
 10 11  1  0  0  0  0
 11 15  1  1  0  0  0
 12  4  2  0  0  0  0
 12  6  1  0  0  0  0
 13  5  1  0  0  0  0
 14 15  2  0  0  0  0
 15 17  1  0  0  0  0
 16 20  1  0  0  0  0
 17 16  2  0  0  0  0
 18 20  2  0  0  0  0
 20 19  2  0  0  0  0
 20 21  1  0  0  0  0
 23 22  1  6  0  0  0
 23  5  1  0  0  0  0
 24 23  1  0  0  0  0
 25 24  1  0  0  0  0
M  END
>  <MODEL>
9

>  <REMARK>
 VINA RESULT:      -4.3      8.268     10.234
  Name = 
  5 active torsions:
  status: ('A' for Active; 'I' for Inactive)
    1  A    between atoms: C_1  and  C_22
    2  A    between atoms: N_3  and  S_17
    3  A    between atoms: C_9  and  C_22
    4  A    between atoms: C_11  and  N_18
    5  A    between atoms: C_11  and  C_23
                            x       y       z     vdW  Elec       q    Type
                         _______ _______ _______ _____ _____    ______ ____

>  <TORSDO>
F 5

$$$$
