=
 OpenBabel11042421293D

 53 56  0  0  1  0  0  0  0  0999 V2000
  161.7780  205.9490  151.5170 C   0  0  1  0  0  3  0  0  0  0  0  0
  161.3050  205.0920  153.0070 Cl  0  0  0  0  0  0  0  0  0  0  0  0
  160.1940  205.5770  148.1590 F   0  0  0  0  0  0  0  0  0  0  0  0
  160.7600  206.1180  149.2700 C   0  0  0  0  0  0  0  0  0  0  0  0
  161.8220  207.9940  150.5300 C   0  0  2  0  0  3  0  0  0  0  0  0
  161.1420  205.3220  150.2800 C   0  0  0  0  0  0  0  0  0  0  0  0
  160.9320  207.6120  149.3390 C   0  0  1  0  0  3  0  0  0  0  0  0
  161.3850  207.2940  151.6670 O   0  0  0  0  0  0  0  0  0  0  0  0
  161.5090  208.0640  148.1510 O   0  0  0  0  0  1  0  0  0  0  0  0
  161.0990  203.9030  150.0810 N   0  0  0  0  0  0  0  0  0  0  0  0
  161.4390  203.3570  148.9860 N   0  0  0  0  0  0  0  0  0  0  0  0
  161.3730  201.9120  148.8270 C   0  0  1  0  0  3  0  0  0  0  0  0
  160.4560  200.7280  150.8230 O   0  0  0  0  0  1  0  0  0  0  0  0
  160.2230  201.3340  149.5950 C   0  0  0  0  0  0  0  0  0  0  0  0
  159.0550  201.3610  149.1230 O   0  0  0  0  0  0  0  0  0  0  0  0
  161.3020  201.5340  147.3510 C   0  0  0  0  0  2  0  0  0  0  0  0
  160.1610  202.1610  146.7020 N   0  0  0  0  0  2  0  0  0  0  0  0
  160.4230  202.1480  145.2720 C   0  0  1  0  0  3  0  0  0  0  0  0
  159.9630  200.9680  144.7140 F   0  0  0  0  0  0  0  0  0  0  0  0
  159.7490  203.3370  144.6080 C   0  0  0  0  0  2  0  0  0  0  0  0
  160.7080  204.2850  144.2110 O   0  0  0  0  0  0  0  0  0  0  0  0
  161.0320  205.1060  145.3150 C   0  0  2  0  0  3  0  0  0  0  0  0
  160.4360  206.3720  145.2310 O   0  0  0  0  0  1  0  0  0  0  0  0
  163.1700  204.0150  145.2550 F   0  0  0  0  0  0  0  0  0  0  0  0
  162.7490  205.4630  146.9340 F   0  0  0  0  0  0  0  0  0  0  0  0
  162.5360  205.1980  145.5930 C   0  0  0  0  0  0  0  0  0  0  0  0
  163.0750  206.2250  144.8410 F   0  0  0  0  0  0  0  0  0  0  0  0
  161.7540  209.5050  150.8030 C   0  0  1  0  0  3  0  0  0  0  0  0
  161.9720  209.7940  152.1580 O   0  0  0  0  0  0  0  0  0  0  0  0
  161.1130  210.8020  152.4360 N   0  0  0  0  0  2  0  0  0  0  0  0
  160.0230  210.2260  153.1000 N   0  0  0  0  0  2  0  0  0  0  0  0
  158.1220  212.3280  153.4240 C   0  0  0  0  0  1  0  0  0  0  0  0
  158.6850  211.6080  154.6030 C   0  0  0  0  0  0  0  0  0  0  0  0
  158.3000  211.9950  155.8470 N   0  0  0  0  0  0  0  0  0  0  0  0
  159.6140  210.5630  154.4380 C   0  0  0  0  0  0  0  0  0  0  0  0
  159.6930  210.3520  156.8590 C   0  0  0  0  0  3  0  0  0  0  0  0
  158.7830  211.3980  156.9660 C   0  0  0  0  0  3  0  0  0  0  0  0
  160.1080  209.9030  155.5950 C   0  0  0  0  0  0  0  0  0  0  0  0
  160.3660  207.4510  155.4000 C   0  0  0  0  0  2  0  0  0  0  0  0
  161.1030  208.7750  155.5180 C   0  0  0  0  0  3  0  0  0  0  0  0
  161.0080  207.8330  156.7120 C   0  0  0  0  0  2  0  0  0  0  0  0
  162.6120  210.2590  149.9730 O   0  0  0  0  0  0  0  0  0  0  0  0
  161.8420  211.1950  149.2600 C   0  0  0  0  0  2  0  0  0  0  0  0
  162.7490  212.1380  148.4830 C   0  0  0  0  0  2  0  0  0  0  0  0
  161.8920  213.3720  145.0080 C   0  0  0  0  0  0  0  0  0  0  0  0
  162.0010  212.8210  147.3860 C   0  0  0  0  0  0  0  0  0  0  0  0
  160.7450  213.2290  147.5960 C   0  0  0  0  0  3  0  0  0  0  0  0
  162.6280  213.0030  146.0600 C   0  0  0  0  0  3  0  0  0  0  0  0
  160.3950  213.4950  145.1280 C   0  0  0  0  0  2  0  0  0  0  0  0
  162.5400  213.5640  143.6850 C   0  0  0  0  0  1  0  0  0  0  0  0
  159.9960  213.9810  146.5270 C   0  0  1  0  0  3  0  0  0  0  0  0
  158.3220  212.5810  146.1620 C   0  0  0  0  0  1  0  0  0  0  0  0
  158.6210  213.8300  146.7090 O   0  0  0  0  0  0  0  0  0  0  0  0
  1  8  1  0  0  0  0
  1  2  1  1  0  0  0
  3  4  1  0  0  0  0
  4  7  1  0  0  0  0
  4  6  2  0  0  0  0
  5 28  1  1  0  0  0
  5  8  1  0  0  0  0
  6  1  1  0  0  0  0
  7  9  1  6  0  0  0
  7  5  1  0  0  0  0
 10  6  1  0  0  0  0
 11 10  2  0  0  0  0
 12 16  1  6  0  0  0
 12 11  1  0  0  0  0
 12 14  1  0  0  0  0
 14 13  1  0  0  0  0
 15 14  2  0  0  0  0
 17 16  1  0  0  0  0
 18 19  1  6  0  0  0
 18 17  1  0  0  0  0
 20 18  1  0  0  0  0
 21 20  1  0  0  0  0
 21 22  1  0  0  0  0
 22 23  1  6  0  0  0
 22 26  1  0  0  0  0
 24 26  1  0  0  0  0
 26 25  1  0  0  0  0
 27 26  1  0  0  0  0
 28 42  1  6  0  0  0
 28 29  1  0  0  0  0
 29 30  1  0  0  0  0
 30 31  1  0  0  0  0
 31 35  1  0  0  0  0
 32 33  1  0  0  0  0
 33 34  1  0  0  0  0
 34 37  2  0  0  0  0
 35 33  2  0  0  0  0
 35 38  1  0  0  0  0
 36 37  1  0  0  0  0
 38 36  2  0  0  0  0
 39 40  1  0  0  0  0
 39 41  1  0  0  0  0
 40 38  1  0  0  0  0
 40 41  1  0  0  0  0
 43 42  1  0  0  0  0
 44 43  1  0  0  0  0
 45 49  1  0  0  0  0
 45 48  2  0  0  0  0
 46 47  2  0  0  0  0
 46 44  1  0  0  0  0
 48 46  1  0  0  0  0
 49 51  1  0  0  0  0
 50 45  1  0  0  0  0
 51 53  1  1  0  0  0
 51 47  1  0  0  0  0
 52 53  1  0  0  0  0
M  END
>  <MODEL>
1

>  <REMARK>
 VINA RESULT:      -6.8      0.000      0.000
  Name = 
  21 active torsions:
  status: ('A' for Active; 'I' for Inactive)
    1  A    between atoms: N_6  and  C_13
    2  A    between atoms: N_6  and  C_44
    3  A    between atoms: C_11  and  C_13
    4  A    between atoms: C_11  and  N_27
    5  A    between atoms: C_11  and  C_42
    6  A    between atoms: C_12  and  C_41
    7  A    between atoms: C_14  and  C_26
    8  A    between atoms: C_14  and  O_40
    9  A    between atoms: O_20  and  C_32
   10  A    between atoms: O_20  and  N_34
   11  A    between atoms: C_21  and  C_32
   12  A    between atoms: N_22  and  C_25
   13  A    between atoms: N_28  and  N_34
   14  A    between atoms: N_28  and  C_38
   15  A    between atoms: C_32  and  O_45
   16  A    between atoms: C_36  and  C_41
   17  A    between atoms: C_36  and  O_45
   18  A    between atoms: C_37  and  O_43
   19  A    between atoms: O_40  and  C_48
   20  A    between atoms: C_44  and  C_48
   21  A    between atoms: C_49  and  C_52
                            x       y       z     vdW  Elec       q    Type
                         _______ _______ _______ _____ _____    ______ ____

>  <TORSDO>
F 21

$$$$
=
 OpenBabel11042421293D

 53 56  0  0  1  0  0  0  0  0999 V2000
  161.6110  207.2410  151.9440 C   0  0  1  0  0  3  0  0  0  0  0  0
  160.7830  206.5270  153.3540 Cl  0  0  0  0  0  0  0  0  0  0  0  0
  161.1770  206.2210  148.3820 F   0  0  0  0  0  0  0  0  0  0  0  0
  161.3220  206.9750  149.5030 C   0  0  0  0  0  0  0  0  0  0  0  0
  161.7670  209.1260  150.6890 C   0  0  2  0  0  3  0  0  0  0  0  0
  161.4460  206.3770  150.6980 C   0  0  0  0  0  0  0  0  0  0  0  0
  161.3260  208.4740  149.3720 C   0  0  1  0  0  3  0  0  0  0  0  0
  161.0680  208.5260  151.7500 O   0  0  0  0  0  0  0  0  0  0  0  0
  162.1960  208.8430  148.3440 O   0  0  0  0  0  1  0  0  0  0  0  0
  161.5970  204.9510  150.7330 N   0  0  0  0  0  0  0  0  0  0  0  0
  160.7460  204.1630  150.2150 N   0  0  0  0  0  0  0  0  0  0  0  0
  160.9380  202.7210  150.2810 C   0  0  1  0  0  3  0  0  0  0  0  0
  162.5000  201.4730  151.7730 O   0  0  0  0  0  0  0  0  0  0  0  0
  161.3880  202.2950  151.6450 C   0  0  0  0  0  0  0  0  0  0  0  0
  160.7490  202.6460  152.6730 O   0  0  0  0  0  1  0  0  0  0  0  0
  159.6680  201.9890  149.8610 C   0  0  0  0  0  2  0  0  0  0  0  0
  159.7390  201.5690  148.4700 N   0  0  0  0  0  2  0  0  0  0  0  0
  161.1320  201.6640  148.0650 C   0  0  1  0  0  3  0  0  0  0  0  0
  161.7060  200.4060  148.0390 F   0  0  0  0  0  0  0  0  0  0  0  0
  161.2340  202.3120  146.6940 C   0  0  0  0  0  2  0  0  0  0  0  0
  161.6000  203.6640  146.8170 O   0  0  0  0  0  0  0  0  0  0  0  0
  162.0480  204.1380  145.5640 C   0  0  2  0  0  3  0  0  0  0  0  0
  163.2090  204.9150  145.6710 O   0  0  0  0  0  1  0  0  0  0  0  0
  161.5080  205.4950  143.6570 F   0  0  0  0  0  0  0  0  0  0  0  0
  160.2990  205.7620  145.5440 F   0  0  0  0  0  0  0  0  0  0  0  0
  160.9590  204.8440  144.7480 C   0  0  0  0  0  0  0  0  0  0  0  0
  160.0500  203.9040  144.2970 F   0  0  0  0  0  0  0  0  0  0  0  0
  161.4800  210.6360  150.6770 C   0  0  1  0  0  3  0  0  0  0  0  0
  161.3810  211.1520  151.9780 O   0  0  0  0  0  0  0  0  0  0  0  0
  160.2790  211.9380  151.9510 N   0  0  0  0  0  2  0  0  0  0  0  0
  159.2640  211.2250  152.5990 N   0  0  0  0  0  2  0  0  0  0  0  0
  157.4140  213.3670  152.9510 C   0  0  0  0  0  1  0  0  0  0  0  0
  157.8960  212.5660  154.1130 C   0  0  0  0  0  0  0  0  0  0  0  0
  157.4610  212.8960  155.3570 N   0  0  0  0  0  0  0  0  0  0  0  0
  158.7990  211.5010  153.9330 C   0  0  0  0  0  0  0  0  0  0  0  0
  158.7500  211.1540  156.3390 C   0  0  0  0  0  3  0  0  0  0  0  0
  157.8680  212.2220  156.4610 C   0  0  0  0  0  3  0  0  0  0  0  0
  159.2150  210.7620  155.0730 C   0  0  0  0  0  0  0  0  0  0  0  0
  160.8220  209.3710  156.3370 C   0  0  0  0  0  2  0  0  0  0  0  0
  160.1770  209.6070  154.9810 C   0  0  0  0  0  3  0  0  0  0  0  0
  161.6180  210.0290  155.2360 C   0  0  0  0  0  2  0  0  0  0  0  0
  162.4040  211.3720  149.9030 O   0  0  0  0  0  0  0  0  0  0  0  0
  161.6940  212.1410  148.9640 C   0  0  0  0  0  2  0  0  0  0  0  0
  162.6430  212.6890  147.9090 C   0  0  0  0  0  2  0  0  0  0  0  0
  162.1370  213.1670  144.1870 C   0  0  0  0  0  0  0  0  0  0  0  0
  161.9400  212.8940  146.6080 C   0  0  0  0  0  0  0  0  0  0  0  0
  160.6150  212.7260  146.5380 C   0  0  0  0  0  3  0  0  0  0  0  0
  162.7090  213.2350  145.3930 C   0  0  0  0  0  3  0  0  0  0  0  0
  160.7370  212.6320  144.0350 C   0  0  0  0  0  2  0  0  0  0  0  0
  162.9200  213.5260  142.9770 C   0  0  0  0  0  1  0  0  0  0  0  0
  159.8770  212.9950  145.2520 C   0  0  1  0  0  3  0  0  0  0  0  0
  157.9190  212.7980  146.2670 C   0  0  0  0  0  1  0  0  0  0  0  0
  158.6840  212.2710  145.2250 O   0  0  0  0  0  0  0  0  0  0  0  0
  1  2  1  1  0  0  0
  3  4  1  0  0  0  0
  4  6  2  0  0  0  0
  5 28  1  6  0  0  0
  5  8  1  0  0  0  0
  6 10  1  0  0  0  0
  6  1  1  0  0  0  0
  7  9  1  6  0  0  0
  7  4  1  0  0  0  0
  7  5  1  0  0  0  0
  8  1  1  0  0  0  0
 11 12  1  0  0  0  0
 11 10  2  0  0  0  0
 12 16  1  1  0  0  0
 12 14  1  0  0  0  0
 14 13  2  0  0  0  0
 14 15  1  0  0  0  0
 17 16  1  0  0  0  0
 18 19  1  6  0  0  0
 18 17  1  0  0  0  0
 20 21  1  0  0  0  0
 20 18  1  0  0  0  0
 22 23  1  1  0  0  0
 22 21  1  0  0  0  0
 24 26  1  0  0  0  0
 26 25  1  0  0  0  0
 26 22  1  0  0  0  0
 27 26  1  0  0  0  0
 28 42  1  1  0  0  0
 28 29  1  0  0  0  0
 30 29  1  0  0  0  0
 30 31  1  0  0  0  0
 31 35  1  0  0  0  0
 32 33  1  0  0  0  0
 33 34  1  0  0  0  0
 34 37  2  0  0  0  0
 35 33  2  0  0  0  0
 35 38  1  0  0  0  0
 36 37  1  0  0  0  0
 38 36  2  0  0  0  0
 40 38  1  0  0  0  0
 40 41  1  0  0  0  0
 40 39  1  0  0  0  0
 41 39  1  0  0  0  0
 43 42  1  0  0  0  0
 44 43  1  0  0  0  0
 45 48  2  0  0  0  0
 46 44  1  0  0  0  0
 47 46  2  0  0  0  0
 48 46  1  0  0  0  0
 49 45  1  0  0  0  0
 49 51  1  0  0  0  0
 50 45  1  0  0  0  0
 51 53  1  1  0  0  0
 51 47  1  0  0  0  0
 53 52  1  0  0  0  0
M  END
>  <MODEL>
2

>  <REMARK>
 VINA RESULT:      -6.8      1.569      1.930
  Name = 
  21 active torsions:
  status: ('A' for Active; 'I' for Inactive)
    1  A    between atoms: N_6  and  C_13
    2  A    between atoms: N_6  and  C_44
    3  A    between atoms: C_11  and  C_13
    4  A    between atoms: C_11  and  N_27
    5  A    between atoms: C_11  and  C_42
    6  A    between atoms: C_12  and  C_41
    7  A    between atoms: C_14  and  C_26
    8  A    between atoms: C_14  and  O_40
    9  A    between atoms: O_20  and  C_32
   10  A    between atoms: O_20  and  N_34
   11  A    between atoms: C_21  and  C_32
   12  A    between atoms: N_22  and  C_25
   13  A    between atoms: N_28  and  N_34
   14  A    between atoms: N_28  and  C_38
   15  A    between atoms: C_32  and  O_45
   16  A    between atoms: C_36  and  C_41
   17  A    between atoms: C_36  and  O_45
   18  A    between atoms: C_37  and  O_43
   19  A    between atoms: O_40  and  C_48
   20  A    between atoms: C_44  and  C_48
   21  A    between atoms: C_49  and  C_52
                            x       y       z     vdW  Elec       q    Type
                         _______ _______ _______ _____ _____    ______ ____

>  <TORSDO>
F 21

$$$$
=
 OpenBabel11042421293D

 53 56  0  0  1  0  0  0  0  0999 V2000
  161.7130  205.9260  151.4720 C   0  0  1  0  0  3  0  0  0  0  0  0
  161.2010  204.9250  152.8560 Cl  0  0  0  0  0  0  0  0  0  0  0  0
  160.0680  206.0720  148.1270 F   0  0  0  0  0  0  0  0  0  0  0  0
  160.6820  206.4350  149.2830 C   0  0  0  0  0  0  0  0  0  0  0  0
  161.8820  208.0690  150.7400 C   0  0  2  0  0  3  0  0  0  0  0  0
  161.0210  205.4980  150.1810 C   0  0  0  0  0  0  0  0  0  0  0  0
  160.9550  207.8950  149.5300 C   0  0  1  0  0  3  0  0  0  0  0  0
  161.4130  207.2650  151.7920 O   0  0  0  0  0  0  0  0  0  0  0  0
  161.5470  208.4500  148.3940 O   0  0  0  0  0  1  0  0  0  0  0  0
  160.8810  204.1200  149.8130 N   0  0  0  0  0  0  0  0  0  0  0  0
  161.4080  203.6380  148.7620 N   0  0  0  0  0  0  0  0  0  0  0  0
  161.2320  202.2330  148.4240 C   0  0  1  0  0  3  0  0  0  0  0  0
  159.4680  200.9830  149.6690 O   0  0  0  0  0  0  0  0  0  0  0  0
  160.7780  201.4410  149.6120 C   0  0  0  0  0  0  0  0  0  0  0  0
  161.5610  201.2170  150.5750 O   0  0  0  0  0  1  0  0  0  0  0  0
  160.2700  202.0770  147.2510 C   0  0  0  0  0  2  0  0  0  0  0  0
  160.9140  201.4150  146.1270 N   0  0  0  0  0  2  0  0  0  0  0  0
  160.1120  201.6990  144.9470 C   0  0  1  0  0  3  0  0  0  0  0  0
  158.8660  201.1100  145.0660 F   0  0  0  0  0  0  0  0  0  0  0  0
  159.9640  203.2010  144.7670 C   0  0  0  0  0  2  0  0  0  0  0  0
  161.2270  203.8060  144.6380 O   0  0  0  0  0  0  0  0  0  0  0  0
  161.2320  205.0230  145.3560 C   0  0  2  0  0  3  0  0  0  0  0  0
  160.5440  206.0420  144.6830 O   0  0  0  0  0  1  0  0  0  0  0  0
  162.5460  206.3980  146.8210 F   0  0  0  0  0  0  0  0  0  0  0  0
  163.3030  206.0300  144.7270 F   0  0  0  0  0  0  0  0  0  0  0  0
  162.6300  205.4700  145.7980 C   0  0  0  0  0  0  0  0  0  0  0  0
  163.3360  204.3700  146.2480 F   0  0  0  0  0  0  0  0  0  0  0  0
  161.9200  209.5370  151.1960 C   0  0  1  0  0  3  0  0  0  0  0  0
  162.2760  209.6470  152.5490 O   0  0  0  0  0  0  0  0  0  0  0  0
  161.6000  210.7320  152.9930 N   0  0  0  0  0  2  0  0  0  0  0  0
  160.4310  210.2550  153.5980 N   0  0  0  0  0  2  0  0  0  0  0  0
  159.8960  209.0730  156.1380 C   0  0  0  0  0  1  0  0  0  0  0  0
  159.3570  210.4180  155.7840 C   0  0  0  0  0  0  0  0  0  0  0  0
  158.5730  211.0630  156.6860 N   0  0  0  0  0  0  0  0  0  0  0  0
  159.6340  211.0040  154.5340 C   0  0  0  0  0  0  0  0  0  0  0  0
  158.2870  212.9100  155.2130 C   0  0  0  0  0  3  0  0  0  0  0  0
  158.0350  212.2820  156.4280 C   0  0  0  0  0  3  0  0  0  0  0  0
  159.1060  212.2920  154.2540 C   0  0  0  0  0  0  0  0  0  0  0  0
  158.1090  213.7880  152.5550 C   0  0  0  0  0  2  0  0  0  0  0  0
  159.3480  212.9980  152.9460 C   0  0  0  0  0  3  0  0  0  0  0  0
  158.4300  212.4990  151.8370 C   0  0  0  0  0  2  0  0  0  0  0  0
  162.7380  210.3510  150.3830 O   0  0  0  0  0  0  0  0  0  0  0  0
  161.9770  211.4420  149.9260 C   0  0  0  0  0  2  0  0  0  0  0  0
  162.4190  211.8400  148.5260 C   0  0  0  0  0  2  0  0  0  0  0  0
  159.3180  213.9350  147.9500 C   0  0  0  0  0  0  0  0  0  0  0  0
  161.3250  212.5490  147.7980 C   0  0  0  0  0  0  0  0  0  0  0  0
  161.4230  212.7350  146.4770 C   0  0  0  0  0  3  0  0  0  0  0  0
  160.1640  213.0840  148.5380 C   0  0  0  0  0  3  0  0  0  0  0  0
  159.5970  214.4520  146.5630 C   0  0  0  0  0  2  0  0  0  0  0  0
  158.1490  214.4530  148.7040 C   0  0  0  0  0  1  0  0  0  0  0  0
  160.3000  213.3860  145.7120 C   0  0  1  0  0  3  0  0  0  0  0  0
  161.1370  212.8810  143.7260 C   0  0  0  0  0  1  0  0  0  0  0  0
  160.7910  213.9610  144.5390 O   0  0  0  0  0  0  0  0  0  0  0  0
  1  8  1  0  0  0  0
  1  2  1  1  0  0  0
  3  4  1  0  0  0  0
  4  7  1  0  0  0  0
  4  6  2  0  0  0  0
  5 28  1  1  0  0  0
  5  8  1  0  0  0  0
  6  1  1  0  0  0  0
  7  9  1  6  0  0  0
  7  5  1  0  0  0  0
 10  6  1  0  0  0  0
 11 10  2  0  0  0  0
 12 16  1  6  0  0  0
 12 11  1  0  0  0  0
 12 14  1  0  0  0  0
 14 13  2  0  0  0  0
 14 15  1  0  0  0  0
 17 16  1  0  0  0  0
 18 19  1  1  0  0  0
 18 17  1  0  0  0  0
 20 18  1  0  0  0  0
 21 20  1  0  0  0  0
 21 22  1  0  0  0  0
 22 23  1  6  0  0  0
 22 26  1  0  0  0  0
 25 26  1  0  0  0  0
 26 27  1  0  0  0  0
 26 24  1  0  0  0  0
 28 42  1  6  0  0  0
 28 29  1  0  0  0  0
 29 30  1  0  0  0  0
 30 31  1  0  0  0  0
 31 35  1  0  0  0  0
 33 32  1  0  0  0  0
 33 34  1  0  0  0  0
 35 33  2  0  0  0  0
 36 37  1  0  0  0  0
 37 34  2  0  0  0  0
 38 35  1  0  0  0  0
 38 36  2  0  0  0  0
 39 40  1  0  0  0  0
 40 38  1  0  0  0  0
 41 39  1  0  0  0  0
 41 40  1  0  0  0  0
 43 42  1  0  0  0  0
 44 43  1  0  0  0  0
 45 48  2  0  0  0  0
 45 50  1  0  0  0  0
 46 44  1  0  0  0  0
 46 48  1  0  0  0  0
 47 46  2  0  0  0  0
 49 45  1  0  0  0  0
 51 53  1  6  0  0  0
 51 47  1  0  0  0  0
 51 49  1  0  0  0  0
 52 53  1  0  0  0  0
M  END
>  <MODEL>
3

>  <REMARK>
 VINA RESULT:      -6.8      1.037      2.476
  Name = 
  21 active torsions:
  status: ('A' for Active; 'I' for Inactive)
    1  A    between atoms: N_6  and  C_13
    2  A    between atoms: N_6  and  C_44
    3  A    between atoms: C_11  and  C_13
    4  A    between atoms: C_11  and  N_27
    5  A    between atoms: C_11  and  C_42
    6  A    between atoms: C_12  and  C_41
    7  A    between atoms: C_14  and  C_26
    8  A    between atoms: C_14  and  O_40
    9  A    between atoms: O_20  and  C_32
   10  A    between atoms: O_20  and  N_34
   11  A    between atoms: C_21  and  C_32
   12  A    between atoms: N_22  and  C_25
   13  A    between atoms: N_28  and  N_34
   14  A    between atoms: N_28  and  C_38
   15  A    between atoms: C_32  and  O_45
   16  A    between atoms: C_36  and  C_41
   17  A    between atoms: C_36  and  O_45
   18  A    between atoms: C_37  and  O_43
   19  A    between atoms: O_40  and  C_48
   20  A    between atoms: C_44  and  C_48
   21  A    between atoms: C_49  and  C_52
                            x       y       z     vdW  Elec       q    Type
                         _______ _______ _______ _____ _____    ______ ____

>  <TORSDO>
F 21

$$$$
=
 OpenBabel11042421293D

 53 56  0  0  1  0  0  0  0  0999 V2000
  161.6790  207.3140  151.8330 C   0  0  1  0  0  3  0  0  0  0  0  0
  160.8940  206.6990  153.3120 Cl  0  0  0  0  0  0  0  0  0  0  0  0
  161.1010  206.0880  148.3580 F   0  0  0  0  0  0  0  0  0  0  0  0
  161.2960  206.9050  149.4250 C   0  0  0  0  0  0  0  0  0  0  0  0
  161.8130  209.1180  150.4610 C   0  0  2  0  0  3  0  0  0  0  0  0
  161.4570  206.3790  150.6490 C   0  0  0  0  0  0  0  0  0  0  0  0
  161.3150  208.3940  149.2020 C   0  0  1  0  0  3  0  0  0  0  0  0
  161.1460  208.5930  151.5800 O   0  0  0  0  0  0  0  0  0  0  0  0
  162.1510  208.6870  148.1240 O   0  0  0  0  0  1  0  0  0  0  0  0
  161.5910  204.9560  150.7650 N   0  0  0  0  0  0  0  0  0  0  0  0
  160.8730  204.1470  150.0990 N   0  0  0  0  0  0  0  0  0  0  0  0
  161.0400  202.7090  150.2550 C   0  0  1  0  0  3  0  0  0  0  0  0
  162.5630  201.5740  151.8720 O   0  0  0  0  0  0  0  0  0  0  0  0
  161.4370  202.3580  151.6560 C   0  0  0  0  0  0  0  0  0  0  0  0
  160.7420  202.7370  152.6370 O   0  0  0  0  0  1  0  0  0  0  0  0
  159.7730  201.9710  149.8340 C   0  0  0  0  0  2  0  0  0  0  0  0
  159.7520  201.7390  148.3980 N   0  0  0  0  0  2  0  0  0  0  0  0
  161.1340  201.6010  147.9670 C   0  0  1  0  0  3  0  0  0  0  0  0
  161.4840  200.2630  147.9170 F   0  0  0  0  0  0  0  0  0  0  0  0
  161.3200  202.2410  146.6020 C   0  0  0  0  0  2  0  0  0  0  0  0
  161.4990  203.6290  146.7320 O   0  0  0  0  0  0  0  0  0  0  0  0
  161.9960  204.1470  145.5140 C   0  0  2  0  0  3  0  0  0  0  0  0
  163.1220  204.9600  145.7010 O   0  0  0  0  0  1  0  0  0  0  0  0
  160.3470  205.8850  145.3470 F   0  0  0  0  0  0  0  0  0  0  0  0
  159.9490  203.9230  144.3060 F   0  0  0  0  0  0  0  0  0  0  0  0
  160.9270  204.8360  144.6570 C   0  0  0  0  0  0  0  0  0  0  0  0
  161.5160  205.3280  143.5070 F   0  0  0  0  0  0  0  0  0  0  0  0
  161.5450  210.6290  150.3670 C   0  0  1  0  0  3  0  0  0  0  0  0
  161.3250  211.1920  151.6330 O   0  0  0  0  0  0  0  0  0  0  0  0
  160.0950  211.7520  151.5490 N   0  0  0  0  0  2  0  0  0  0  0  0
  159.8710  212.4080  152.7650 N   0  0  0  0  0  2  0  0  0  0  0  0
  157.5750  214.0790  152.4990 C   0  0  0  0  0  1  0  0  0  0  0  0
  157.6200  212.9860  153.5130 C   0  0  0  0  0  0  0  0  0  0  0  0
  156.5530  212.8190  154.3370 N   0  0  0  0  0  0  0  0  0  0  0  0
  158.7500  212.1550  153.6320 C   0  0  0  0  0  0  0  0  0  0  0  0
  157.6150  211.0000  155.4450 C   0  0  0  0  0  3  0  0  0  0  0  0
  156.5300  211.8560  155.2930 C   0  0  0  0  0  3  0  0  0  0  0  0
  158.7340  211.1210  154.6060 C   0  0  0  0  0  0  0  0  0  0  0  0
  159.9120  209.6930  156.2470 C   0  0  0  0  0  2  0  0  0  0  0  0
  159.8950  210.1830  154.8070 C   0  0  0  0  0  3  0  0  0  0  0  0
  160.9170  210.7260  155.7980 C   0  0  0  0  0  2  0  0  0  0  0  0
  162.5480  211.3290  149.6620 O   0  0  0  0  0  0  0  0  0  0  0  0
  162.0120  211.7770  148.4410 C   0  0  0  0  0  2  0  0  0  0  0  0
  161.3110  213.1130  148.6350 C   0  0  0  0  0  2  0  0  0  0  0  0
  157.6070  213.6760  148.0860 C   0  0  0  0  0  0  0  0  0  0  0  0
  159.9850  213.1300  147.9480 C   0  0  0  0  0  0  0  0  0  0  0  0
  159.9230  212.9380  146.6270 C   0  0  0  0  0  3  0  0  0  0  0  0
  158.7530  213.4040  148.7170 C   0  0  0  0  0  3  0  0  0  0  0  0
  157.5770  213.8230  146.5870 C   0  0  0  0  0  2  0  0  0  0  0  0
  156.3750  213.9370  148.8730 C   0  0  0  0  0  1  0  0  0  0  0  0
  158.5910  212.8820  145.9240 C   0  0  1  0  0  3  0  0  0  0  0  0
  159.5910  212.2400  144.0560 C   0  0  0  0  0  1  0  0  0  0  0  0
  158.7450  213.2200  144.5780 O   0  0  0  0  0  0  0  0  0  0  0  0
  1  2  1  1  0  0  0
  3  4  1  0  0  0  0
  4  6  2  0  0  0  0
  5 28  1  6  0  0  0
  5  8  1  0  0  0  0
  6 10  1  0  0  0  0
  6  1  1  0  0  0  0
  7  9  1  6  0  0  0
  7  4  1  0  0  0  0
  7  5  1  0  0  0  0
  8  1  1  0  0  0  0
 11 12  1  0  0  0  0
 11 10  2  0  0  0  0
 12 16  1  1  0  0  0
 12 14  1  0  0  0  0
 14 13  2  0  0  0  0
 14 15  1  0  0  0  0
 17 16  1  0  0  0  0
 18 19  1  6  0  0  0
 18 17  1  0  0  0  0
 20 21  1  0  0  0  0
 20 18  1  0  0  0  0
 22 23  1  1  0  0  0
 22 21  1  0  0  0  0
 25 26  1  0  0  0  0
 26 24  1  0  0  0  0
 26 22  1  0  0  0  0
 27 26  1  0  0  0  0
 28 42  1  1  0  0  0
 28 29  1  0  0  0  0
 30 29  1  0  0  0  0
 30 31  1  0  0  0  0
 31 35  1  0  0  0  0
 32 33  1  0  0  0  0
 33 35  2  0  0  0  0
 33 34  1  0  0  0  0
 34 37  2  0  0  0  0
 35 38  1  0  0  0  0
 37 36  1  0  0  0  0
 38 40  1  0  0  0  0
 38 36  2  0  0  0  0
 40 41  1  0  0  0  0
 40 39  1  0  0  0  0
 41 39  1  0  0  0  0
 43 44  1  0  0  0  0
 43 42  1  0  0  0  0
 45 48  2  0  0  0  0
 45 50  1  0  0  0  0
 46 44  1  0  0  0  0
 46 48  1  0  0  0  0
 47 46  2  0  0  0  0
 49 45  1  0  0  0  0
 51 53  1  6  0  0  0
 51 49  1  0  0  0  0
 51 47  1  0  0  0  0
 52 53  1  0  0  0  0
M  END
>  <MODEL>
4

>  <REMARK>
 VINA RESULT:      -6.7      1.789      2.629
  Name = 
  21 active torsions:
  status: ('A' for Active; 'I' for Inactive)
    1  A    between atoms: N_6  and  C_13
    2  A    between atoms: N_6  and  C_44
    3  A    between atoms: C_11  and  C_13
    4  A    between atoms: C_11  and  N_27
    5  A    between atoms: C_11  and  C_42
    6  A    between atoms: C_12  and  C_41
    7  A    between atoms: C_14  and  C_26
    8  A    between atoms: C_14  and  O_40
    9  A    between atoms: O_20  and  C_32
   10  A    between atoms: O_20  and  N_34
   11  A    between atoms: C_21  and  C_32
   12  A    between atoms: N_22  and  C_25
   13  A    between atoms: N_28  and  N_34
   14  A    between atoms: N_28  and  C_38
   15  A    between atoms: C_32  and  O_45
   16  A    between atoms: C_36  and  C_41
   17  A    between atoms: C_36  and  O_45
   18  A    between atoms: C_37  and  O_43
   19  A    between atoms: O_40  and  C_48
   20  A    between atoms: C_44  and  C_48
   21  A    between atoms: C_49  and  C_52
                            x       y       z     vdW  Elec       q    Type
                         _______ _______ _______ _____ _____    ______ ____

>  <TORSDO>
F 21

$$$$
=
 OpenBabel11042421293D

 53 56  0  0  1  0  0  0  0  0999 V2000
  161.8520  206.3720  151.6950 C   0  0  1  0  0  3  0  0  0  0  0  0
  161.2130  205.5770  153.1580 Cl  0  0  0  0  0  0  0  0  0  0  0  0
  160.7940  205.7020  148.1810 F   0  0  0  0  0  0  0  0  0  0  0  0
  161.1640  206.3430  149.3210 C   0  0  0  0  0  0  0  0  0  0  0  0
  161.9300  208.3530  150.5880 C   0  0  2  0  0  3  0  0  0  0  0  0
  161.4360  205.6340  150.4270 C   0  0  0  0  0  0  0  0  0  0  0  0
  161.2450  207.8460  149.3120 C   0  0  1  0  0  3  0  0  0  0  0  0
  161.3700  207.6960  151.6960 O   0  0  0  0  0  0  0  0  0  0  0  0
  161.9630  208.2610  148.1890 O   0  0  0  0  0  1  0  0  0  0  0  0
  161.4980  204.2050  150.3210 N   0  0  0  0  0  0  0  0  0  0  0  0
  161.1960  203.5870  149.2530 N   0  0  0  0  0  0  0  0  0  0  0  0
  161.2660  202.1340  149.1940 C   0  0  1  0  0  3  0  0  0  0  0  0
  161.5340  201.7020  151.6370 O   0  0  0  0  0  1  0  0  0  0  0  0
  160.7960  201.5160  150.4750 C   0  0  0  0  0  0  0  0  0  0  0  0
  159.7580  200.8010  150.5020 O   0  0  0  0  0  0  0  0  0  0  0  0
  160.4810  201.6040  147.9990 C   0  0  0  0  0  2  0  0  0  0  0  0
  161.0960  200.4030  147.4560 N   0  0  0  0  0  2  0  0  0  0  0  0
  161.2440  200.6090  146.0240 C   0  0  1  0  0  3  0  0  0  0  0  0
  160.8120  199.4890  145.3360 F   0  0  0  0  0  0  0  0  0  0  0  0
  160.4490  201.8280  145.5880 C   0  0  0  0  0  2  0  0  0  0  0  0
  161.3030  202.9300  145.4040 O   0  0  0  0  0  0  0  0  0  0  0  0
  160.5270  204.0720  145.1030 C   0  0  2  0  0  3  0  0  0  0  0  0
  159.6480  203.8530  144.0340 O   0  0  0  0  0  1  0  0  0  0  0  0
  161.5730  205.5930  143.5680 F   0  0  0  0  0  0  0  0  0  0  0  0
  162.5740  205.2130  145.5540 F   0  0  0  0  0  0  0  0  0  0  0  0
  161.3560  205.3460  144.9120 C   0  0  0  0  0  0  0  0  0  0  0  0
  160.6750  206.4180  145.4600 F   0  0  0  0  0  0  0  0  0  0  0  0
  161.7440  209.8710  150.7450 C   0  0  1  0  0  3  0  0  0  0  0  0
  161.6420  210.2400  152.0950 O   0  0  0  0  0  0  0  0  0  0  0  0
  160.4670  210.9080  152.1790 N   0  0  0  0  0  2  0  0  0  0  0  0
  159.8520  210.4860  153.3630 N   0  0  0  0  0  2  0  0  0  0  0  0
  161.2540  208.8300  155.2140 C   0  0  0  0  0  1  0  0  0  0  0  0
  160.8180  210.2070  155.5880 C   0  0  0  0  0  0  0  0  0  0  0  0
  161.0720  210.6510  156.8460 N   0  0  0  0  0  0  0  0  0  0  0  0
  160.1380  211.0260  154.6660 C   0  0  0  0  0  0  0  0  0  0  0  0
  160.0280  212.7400  156.3870 C   0  0  0  0  0  3  0  0  0  0  0  0
  160.6920  211.8860  157.2610 C   0  0  0  0  0  3  0  0  0  0  0  0
  159.7570  212.3330  155.0700 C   0  0  0  0  0  0  0  0  0  0  0  0
  158.0610  214.1310  154.9670 C   0  0  0  0  0  2  0  0  0  0  0  0
  159.0260  213.2810  154.1560 C   0  0  0  0  0  3  0  0  0  0  0  0
  157.5290  213.0080  154.1110 C   0  0  0  0  0  2  0  0  0  0  0  0
  162.7360  210.6250  150.0810 O   0  0  0  0  0  0  0  0  0  0  0  0
  162.2290  211.0410  148.8370 C   0  0  0  0  0  2  0  0  0  0  0  0
  161.7080  212.4670  148.9330 C   0  0  0  0  0  2  0  0  0  0  0  0
  162.2230  213.3070  145.2770 C   0  0  0  0  0  0  0  0  0  0  0  0
  161.4450  213.0360  147.5770 C   0  0  0  0  0  0  0  0  0  0  0  0
  160.2260  213.4970  147.2800 C   0  0  0  0  0  3  0  0  0  0  0  0
  162.5110  213.0450  146.5550 C   0  0  0  0  0  3  0  0  0  0  0  0
  160.7920  213.4810  144.8370 C   0  0  0  0  0  2  0  0  0  0  0  0
  163.3090  213.3250  144.2640 C   0  0  0  0  0  1  0  0  0  0  0  0
  159.9560  214.1380  145.9430 C   0  0  1  0  0  3  0  0  0  0  0  0
  158.4560  212.7980  145.0170 C   0  0  0  0  0  1  0  0  0  0  0  0
  158.5980  214.0430  145.6320 O   0  0  0  0  0  0  0  0  0  0  0  0
  1  8  1  0  0  0  0
  1  2  1  1  0  0  0
  3  4  1  0  0  0  0
  4  6  2  0  0  0  0
  5 28  1  1  0  0  0
  5  8  1  0  0  0  0
  6  1  1  0  0  0  0
  7  9  1  6  0  0  0
  7  4  1  0  0  0  0
  7  5  1  0  0  0  0
 10  6  1  0  0  0  0
 11 10  2  0  0  0  0
 12 16  1  6  0  0  0
 12 11  1  0  0  0  0
 12 14  1  0  0  0  0
 14 15  2  0  0  0  0
 14 13  1  0  0  0  0
 17 16  1  0  0  0  0
 18 19  1  6  0  0  0
 18 17  1  0  0  0  0
 20 18  1  0  0  0  0
 21 20  1  0  0  0  0
 22 23  1  6  0  0  0
 22 21  1  0  0  0  0
 24 26  1  0  0  0  0
 26 22  1  0  0  0  0
 26 27  1  0  0  0  0
 26 25  1  0  0  0  0
 28 42  1  1  0  0  0
 28 29  1  0  0  0  0
 29 30  1  0  0  0  0
 30 31  1  0  0  0  0
 31 35  1  0  0  0  0
 32 33  1  0  0  0  0
 33 34  1  0  0  0  0
 34 37  2  0  0  0  0
 35 38  1  0  0  0  0
 35 33  2  0  0  0  0
 36 37  1  0  0  0  0
 38 36  2  0  0  0  0
 40 39  1  0  0  0  0
 40 38  1  0  0  0  0
 41 40  1  0  0  0  0
 41 39  1  0  0  0  0
 43 44  1  0  0  0  0
 43 42  1  0  0  0  0
 45 48  2  0  0  0  0
 46 44  1  0  0  0  0
 47 46  2  0  0  0  0
 48 46  1  0  0  0  0
 49 45  1  0  0  0  0
 49 51  1  0  0  0  0
 50 45  1  0  0  0  0
 51 53  1  6  0  0  0
 51 47  1  0  0  0  0
 52 53  1  0  0  0  0
M  END
>  <MODEL>
5

>  <REMARK>
 VINA RESULT:      -6.2      1.200      2.162
  Name = 
  21 active torsions:
  status: ('A' for Active; 'I' for Inactive)
    1  A    between atoms: N_6  and  C_13
    2  A    between atoms: N_6  and  C_44
    3  A    between atoms: C_11  and  C_13
    4  A    between atoms: C_11  and  N_27
    5  A    between atoms: C_11  and  C_42
    6  A    between atoms: C_12  and  C_41
    7  A    between atoms: C_14  and  C_26
    8  A    between atoms: C_14  and  O_40
    9  A    between atoms: O_20  and  C_32
   10  A    between atoms: O_20  and  N_34
   11  A    between atoms: C_21  and  C_32
   12  A    between atoms: N_22  and  C_25
   13  A    between atoms: N_28  and  N_34
   14  A    between atoms: N_28  and  C_38
   15  A    between atoms: C_32  and  O_45
   16  A    between atoms: C_36  and  C_41
   17  A    between atoms: C_36  and  O_45
   18  A    between atoms: C_37  and  O_43
   19  A    between atoms: O_40  and  C_48
   20  A    between atoms: C_44  and  C_48
   21  A    between atoms: C_49  and  C_52
                            x       y       z     vdW  Elec       q    Type
                         _______ _______ _______ _____ _____    ______ ____

>  <TORSDO>
F 21

$$$$
=
 OpenBabel11042421293D

 53 56  0  0  1  0  0  0  0  0999 V2000
  161.9070  208.5240  148.9720 C   0  0  1  0  0  3  0  0  0  0  0  0
  162.7910  207.4450  147.8610 Cl  0  0  0  0  0  0  0  0  0  0  0  0
  162.4570  208.8340  152.6490 F   0  0  0  0  0  0  0  0  0  0  0  0
  162.2340  209.1400  151.3430 C   0  0  0  0  0  0  0  0  0  0  0  0
  161.5780  210.7050  149.5120 C   0  0  2  0  0  3  0  0  0  0  0  0
  162.1610  208.1590  150.4310 C   0  0  0  0  0  0  0  0  0  0  0  0
  162.0870  210.5870  150.9550 C   0  0  1  0  0  3  0  0  0  0  0  0
  162.3250  209.8410  148.6940 O   0  0  0  0  0  0  0  0  0  0  0  0
  161.1920  211.2080  151.8270 O   0  0  0  0  0  1  0  0  0  0  0  0
  162.1470  206.8010  150.8910 N   0  0  0  0  0  0  0  0  0  0  0  0
  161.3910  205.9170  150.3820 N   0  0  0  0  0  0  0  0  0  0  0  0
  161.4060  204.5520  150.8860 C   0  0  1  0  0  3  0  0  0  0  0  0
  160.6130  203.2720  152.8760 O   0  0  0  0  0  0  0  0  0  0  0  0
  160.9540  204.4950  152.3140 C   0  0  0  0  0  0  0  0  0  0  0  0
  160.8460  205.5490  152.9970 O   0  0  0  0  0  1  0  0  0  0  0  0
  160.5630  203.6400  150.0000 C   0  0  0  0  0  2  0  0  0  0  0  0
  161.1630  202.3200  149.8820 N   0  0  0  0  0  2  0  0  0  0  0  0
  161.5970  202.1700  148.5020 C   0  0  1  0  0  3  0  0  0  0  0  0
  161.2080  200.9360  148.0130 F   0  0  0  0  0  0  0  0  0  0  0  0
  161.0090  203.2790  147.6460 C   0  0  0  0  0  2  0  0  0  0  0  0
  161.5440  203.2330  146.3480 O   0  0  0  0  0  0  0  0  0  0  0  0
  160.7410  204.0160  145.4880 C   0  0  2  0  0  3  0  0  0  0  0  0
  160.0890  203.2440  144.5170 O   0  0  0  0  0  1  0  0  0  0  0  0
  161.5780  205.0660  143.4970 F   0  0  0  0  0  0  0  0  0  0  0  0
  162.7510  205.3010  145.4100 F   0  0  0  0  0  0  0  0  0  0  0  0
  161.4810  205.2070  144.8700 C   0  0  0  0  0  0  0  0  0  0  0  0
  160.7860  206.3690  145.1530 F   0  0  0  0  0  0  0  0  0  0  0  0
  161.7190  212.1460  148.9960 C   0  0  1  0  0  3  0  0  0  0  0  0
  162.3200  212.1840  147.7290 O   0  0  0  0  0  0  0  0  0  0  0  0
  162.6440  213.4840  147.5420 N   0  0  0  0  0  2  0  0  0  0  0  0
  161.6780  214.0170  146.6810 N   0  0  0  0  0  2  0  0  0  0  0  0
  163.4150  213.4990  144.4790 C   0  0  0  0  0  1  0  0  0  0  0  0
  161.9830  213.0810  144.4470 C   0  0  0  0  0  0  0  0  0  0  0  0
  161.5070  212.4730  143.3290 N   0  0  0  0  0  0  0  0  0  0  0  0
  161.1320  213.3270  145.5420 C   0  0  0  0  0  0  0  0  0  0  0  0
  159.3330  212.2880  144.2800 C   0  0  0  0  0  3  0  0  0  0  0  0
  160.2130  212.0800  143.2230 C   0  0  0  0  0  3  0  0  0  0  0  0
  159.7810  212.8960  145.4630 C   0  0  0  0  0  0  0  0  0  0  0  0
  157.4280  212.6000  146.1660 C   0  0  0  0  0  2  0  0  0  0  0  0
  158.7970  213.1150  146.5820 C   0  0  0  0  0  3  0  0  0  0  0  0
  157.6880  214.0870  146.2000 C   0  0  0  0  0  2  0  0  0  0  0  0
  160.5020  212.8630  149.0080 O   0  0  0  0  0  0  0  0  0  0  0  0
  160.4190  213.5910  150.2080 C   0  0  0  0  0  2  0  0  0  0  0  0
  159.1600  214.4450  150.2180 C   0  0  0  0  0  2  0  0  0  0  0  0
  156.2480  214.0680  152.6070 C   0  0  0  0  0  0  0  0  0  0  0  0
  158.4160  214.2910  151.5030 C   0  0  0  0  0  0  0  0  0  0  0  0
  159.0810  213.9630  152.6160 C   0  0  0  0  0  3  0  0  0  0  0  0
  156.9480  214.4520  151.5360 C   0  0  0  0  0  3  0  0  0  0  0  0
  156.9270  213.3580  153.7490 C   0  0  0  0  0  2  0  0  0  0  0  0
  154.7740  214.2490  152.6300 C   0  0  0  0  0  1  0  0  0  0  0  0
  158.3610  213.8700  153.9370 C   0  0  1  0  0  3  0  0  0  0  0  0
  158.0720  212.4070  155.5730 C   0  0  0  0  0  1  0  0  0  0  0  0
  159.0580  213.0270  154.8040 O   0  0  0  0  0  0  0  0  0  0  0  0
  1  2  1  6  0  0  0
  1  6  1  0  0  0  0
  4  3  1  0  0  0  0
  5 28  1  6  0  0  0
  5  7  1  0  0  0  0
  6 10  1  0  0  0  0
  6  4  2  0  0  0  0
  7  4  1  0  0  0  0
  7  9  1  1  0  0  0
  8  1  1  0  0  0  0
  8  5  1  0  0  0  0
 11 12  1  0  0  0  0
 11 10  2  0  0  0  0
 12 16  1  6  0  0  0
 12 14  1  0  0  0  0
 14 13  2  0  0  0  0
 14 15  1  0  0  0  0
 17 16  1  0  0  0  0
 18 19  1  6  0  0  0
 18 17  1  0  0  0  0
 20 18  1  0  0  0  0
 21 20  1  0  0  0  0
 22 23  1  6  0  0  0
 22 21  1  0  0  0  0
 24 26  1  0  0  0  0
 26 27  1  0  0  0  0
 26 25  1  0  0  0  0
 26 22  1  0  0  0  0
 28 29  1  6  0  0  0
 28 42  1  0  0  0  0
 30 29  1  0  0  0  0
 31 30  1  0  0  0  0
 33 32  1  0  0  0  0
 33 35  1  0  0  0  0
 34 33  2  0  0  0  0
 35 31  1  0  0  0  0
 36 38  1  0  0  0  0
 37 34  1  0  0  0  0
 37 36  2  0  0  0  0
 38 35  2  0  0  0  0
 38 40  1  0  0  0  0
 39 41  1  0  0  0  0
 39 40  1  0  0  0  0
 41 40  1  0  0  0  0
 42 43  1  0  0  0  0
 43 44  1  0  0  0  0
 44 46  1  0  0  0  0
 45 50  1  0  0  0  0
 45 49  1  0  0  0  0
 46 48  1  0  0  0  0
 46 47  2  0  0  0  0
 47 51  1  0  0  0  0
 48 45  2  0  0  0  0
 49 51  1  0  0  0  0
 51 53  1  1  0  0  0
 53 52  1  0  0  0  0
M  END
>  <MODEL>
6

>  <REMARK>
 VINA RESULT:      -5.9      2.917      6.884
  Name = 
  21 active torsions:
  status: ('A' for Active; 'I' for Inactive)
    1  A    between atoms: N_6  and  C_13
    2  A    between atoms: N_6  and  C_44
    3  A    between atoms: C_11  and  C_13
    4  A    between atoms: C_11  and  N_27
    5  A    between atoms: C_11  and  C_42
    6  A    between atoms: C_12  and  C_41
    7  A    between atoms: C_14  and  C_26
    8  A    between atoms: C_14  and  O_40
    9  A    between atoms: O_20  and  C_32
   10  A    between atoms: O_20  and  N_34
   11  A    between atoms: C_21  and  C_32
   12  A    between atoms: N_22  and  C_25
   13  A    between atoms: N_28  and  N_34
   14  A    between atoms: N_28  and  C_38
   15  A    between atoms: C_32  and  O_45
   16  A    between atoms: C_36  and  C_41
   17  A    between atoms: C_36  and  O_45
   18  A    between atoms: C_37  and  O_43
   19  A    between atoms: O_40  and  C_48
   20  A    between atoms: C_44  and  C_48
   21  A    between atoms: C_49  and  C_52
                            x       y       z     vdW  Elec       q    Type
                         _______ _______ _______ _____ _____    ______ ____

>  <TORSDO>
F 21

$$$$
=
 OpenBabel11042421293D

 53 56  0  0  1  0  0  0  0  0999 V2000
  161.6570  207.8880  148.6200 C   0  0  1  0  0  3  0  0  0  0  0  0
  162.3430  207.1900  147.1290 Cl  0  0  0  0  0  0  0  0  0  0  0  0
  162.7420  207.1340  152.1090 F   0  0  0  0  0  0  0  0  0  0  0  0
  162.3410  207.8000  150.9940 C   0  0  0  0  0  0  0  0  0  0  0  0
  161.4680  209.8150  149.8070 C   0  0  2  0  0  3  0  0  0  0  0  0
  162.1100  207.1220  149.8590 C   0  0  0  0  0  0  0  0  0  0  0  0
  162.1770  209.2940  151.0640 C   0  0  1  0  0  3  0  0  0  0  0  0
  162.0660  209.2350  148.6750 O   0  0  0  0  0  0  0  0  0  0  0  0
  161.4350  209.6230  152.1990 O   0  0  0  0  0  1  0  0  0  0  0  0
  162.1270  205.6890  149.9060 N   0  0  0  0  0  0  0  0  0  0  0  0
  161.1150  205.0080  150.2580 N   0  0  0  0  0  0  0  0  0  0  0  0
  161.1800  203.5540  150.2970 C   0  0  1  0  0  3  0  0  0  0  0  0
  160.5650  203.6710  152.7120 O   0  0  0  0  0  1  0  0  0  0  0  0
  161.2950  203.0530  151.7050 C   0  0  0  0  0  0  0  0  0  0  0  0
  162.0710  202.1020  151.9900 O   0  0  0  0  0  0  0  0  0  0  0  0
  159.9780  202.9400  149.5860 C   0  0  0  0  0  2  0  0  0  0  0  0
  160.2070  201.5360  149.2820 N   0  0  0  0  0  2  0  0  0  0  0  0
  161.0330  201.4870  148.0860 C   0  0  1  0  0  3  0  0  0  0  0  0
  161.2310  200.1730  147.7000 F   0  0  0  0  0  0  0  0  0  0  0  0
  160.3700  202.2660  146.9620 C   0  0  0  0  0  2  0  0  0  0  0  0
  161.1890  202.2700  145.8190 O   0  0  0  0  0  0  0  0  0  0  0  0
  161.6880  203.5760  145.6120 C   0  0  2  0  0  3  0  0  0  0  0  0
  162.0500  204.2050  146.8120 O   0  0  0  0  0  1  0  0  0  0  0  0
  160.1530  205.4210  145.5330 F   0  0  0  0  0  0  0  0  0  0  0  0
  159.8070  203.6750  144.1460 F   0  0  0  0  0  0  0  0  0  0  0  0
  160.7710  204.4570  144.7570 C   0  0  0  0  0  0  0  0  0  0  0  0
  161.5250  205.0830  143.7810 F   0  0  0  0  0  0  0  0  0  0  0  0
  161.5710  211.3460  149.7130 C   0  0  1  0  0  3  0  0  0  0  0  0
  161.9830  211.7570  148.4360 O   0  0  0  0  0  0  0  0  0  0  0  0
  162.2990  213.0640  148.5830 N   0  0  0  0  0  2  0  0  0  0  0  0
  161.4300  213.7820  147.7520 N   0  0  0  0  0  2  0  0  0  0  0  0
  162.9360  213.4600  145.3510 C   0  0  0  0  0  1  0  0  0  0  0  0
  161.4950  213.0810  145.4140 C   0  0  0  0  0  0  0  0  0  0  0  0
  160.8960  212.6070  144.2910 N   0  0  0  0  0  0  0  0  0  0  0  0
  160.7590  213.2300  146.6050 C   0  0  0  0  0  0  0  0  0  0  0  0
  158.8150  212.3720  145.4220 C   0  0  0  0  0  3  0  0  0  0  0  0
  159.5850  212.2570  144.2690 C   0  0  0  0  0  3  0  0  0  0  0  0
  159.3920  212.8410  146.6130 C   0  0  0  0  0  0  0  0  0  0  0  0
  157.2060  213.6230  147.4670 C   0  0  0  0  0  2  0  0  0  0  0  0
  158.5240  212.9620  147.8380 C   0  0  0  0  0  3  0  0  0  0  0  0
  158.2520  214.4120  148.2170 C   0  0  0  0  0  2  0  0  0  0  0  0
  160.3890  212.0080  150.1080 O   0  0  0  0  0  0  0  0  0  0  0  0
  160.4640  212.2820  151.4850 C   0  0  0  0  0  2  0  0  0  0  0  0
  159.0790  212.5830  152.0370 C   0  0  0  0  0  2  0  0  0  0  0  0
  159.9210  211.7150  155.6240 C   0  0  0  0  0  0  0  0  0  0  0  0
  158.9200  212.0410  153.4190 C   0  0  0  0  0  0  0  0  0  0  0  0
  157.7080  211.6800  153.8520 C   0  0  0  0  0  3  0  0  0  0  0  0
  160.0880  211.9490  154.3200 C   0  0  0  0  0  3  0  0  0  0  0  0
  158.5370  211.6580  156.2190 C   0  0  0  0  0  2  0  0  0  0  0  0
  161.1060  211.6120  156.5140 C   0  0  0  0  0  1  0  0  0  0  0  0
  157.5360  211.0670  155.2180 C   0  0  1  0  0  3  0  0  0  0  0  0
  156.3220  212.3570  156.5470 C   0  0  0  0  0  1  0  0  0  0  0  0
  156.2320  211.2710  155.6730 O   0  0  0  0  0  0  0  0  0  0  0  0
  1  2  1  6  0  0  0
  1  8  1  0  0  0  0
  1  6  1  0  0  0  0
  4  7  1  0  0  0  0
  4  3  1  0  0  0  0
  5 28  1  6  0  0  0
  5  7  1  0  0  0  0
  6 10  1  0  0  0  0
  6  4  2  0  0  0  0
  7  9  1  1  0  0  0
  8  5  1  0  0  0  0
 10 11  2  0  0  0  0
 11 12  1  0  0  0  0
 12 16  1  1  0  0  0
 12 14  1  0  0  0  0
 14 15  2  0  0  0  0
 14 13  1  0  0  0  0
 17 16  1  0  0  0  0
 18 19  1  6  0  0  0
 18 17  1  0  0  0  0
 20 18  1  0  0  0  0
 21 20  1  0  0  0  0
 22 21  1  0  0  0  0
 22 23  1  1  0  0  0
 25 26  1  0  0  0  0
 26 24  1  0  0  0  0
 26 22  1  0  0  0  0
 27 26  1  0  0  0  0
 28 29  1  6  0  0  0
 28 42  1  0  0  0  0
 29 30  1  0  0  0  0
 31 30  1  0  0  0  0
 32 33  1  0  0  0  0
 33 35  1  0  0  0  0
 34 33  2  0  0  0  0
 35 38  2  0  0  0  0
 35 31  1  0  0  0  0
 36 38  1  0  0  0  0
 37 34  1  0  0  0  0
 37 36  2  0  0  0  0
 38 40  1  0  0  0  0
 39 40  1  0  0  0  0
 39 41  1  0  0  0  0
 40 41  1  0  0  0  0
 42 43  1  0  0  0  0
 43 44  1  0  0  0  0
 44 46  1  0  0  0  0
 45 49  1  0  0  0  0
 45 50  1  0  0  0  0
 46 47  2  0  0  0  0
 46 48  1  0  0  0  0
 47 51  1  0  0  0  0
 48 45  2  0  0  0  0
 51 53  1  1  0  0  0
 51 49  1  0  0  0  0
 53 52  1  0  0  0  0
M  END
>  <MODEL>
7

>  <REMARK>
 VINA RESULT:      -5.9      2.742      6.734
  Name = 
  21 active torsions:
  status: ('A' for Active; 'I' for Inactive)
    1  A    between atoms: N_6  and  C_13
    2  A    between atoms: N_6  and  C_44
    3  A    between atoms: C_11  and  C_13
    4  A    between atoms: C_11  and  N_27
    5  A    between atoms: C_11  and  C_42
    6  A    between atoms: C_12  and  C_41
    7  A    between atoms: C_14  and  C_26
    8  A    between atoms: C_14  and  O_40
    9  A    between atoms: O_20  and  C_32
   10  A    between atoms: O_20  and  N_34
   11  A    between atoms: C_21  and  C_32
   12  A    between atoms: N_22  and  C_25
   13  A    between atoms: N_28  and  N_34
   14  A    between atoms: N_28  and  C_38
   15  A    between atoms: C_32  and  O_45
   16  A    between atoms: C_36  and  C_41
   17  A    between atoms: C_36  and  O_45
   18  A    between atoms: C_37  and  O_43
   19  A    between atoms: O_40  and  C_48
   20  A    between atoms: C_44  and  C_48
   21  A    between atoms: C_49  and  C_52
                            x       y       z     vdW  Elec       q    Type
                         _______ _______ _______ _____ _____    ______ ____

>  <TORSDO>
F 21

$$$$
=
 OpenBabel11042421293D

 53 56  0  0  1  0  0  0  0  0999 V2000
  161.1840  207.6100  150.4240 C   0  0  1  0  0  3  0  0  0  0  0  0
  162.2160  207.5510  148.9700 Cl  0  0  0  0  0  0  0  0  0  0  0  0
  161.8220  205.8550  153.6540 F   0  0  0  0  0  0  0  0  0  0  0  0
  161.4860  206.8050  152.7420 C   0  0  0  0  0  0  0  0  0  0  0  0
  160.4540  208.9800  152.0810 C   0  0  2  0  0  3  0  0  0  0  0  0
  161.5690  206.5310  151.4310 C   0  0  0  0  0  0  0  0  0  0  0  0
  161.0380  208.1550  153.2360 C   0  0  1  0  0  3  0  0  0  0  0  0
  161.3210  208.8980  150.9790 O   0  0  0  0  0  0  0  0  0  0  0  0
  160.0770  207.9840  154.2320 O   0  0  0  0  0  1  0  0  0  0  0  0
  161.8440  205.1810  151.0340 N   0  0  0  0  0  0  0  0  0  0  0  0
  161.0990  204.5420  150.2290 N   0  0  0  0  0  0  0  0  0  0  0  0
  161.4140  203.1700  149.8590 C   0  0  1  0  0  3  0  0  0  0  0  0
  161.1040  202.7050  152.2910 O   0  0  0  0  0  1  0  0  0  0  0  0
  161.1320  202.2250  150.9880 C   0  0  0  0  0  0  0  0  0  0  0  0
  160.9540  200.9960  150.7700 O   0  0  0  0  0  0  0  0  0  0  0  0
  160.6630  202.7650  148.5950 C   0  0  0  0  0  2  0  0  0  0  0  0
  161.5840  202.4020  147.5290 N   0  0  0  0  0  2  0  0  0  0  0  0
  160.8220  201.6540  146.5420 C   0  0  1  0  0  3  0  0  0  0  0  0
  159.5680  201.3500  147.0410 F   0  0  0  0  0  0  0  0  0  0  0  0
  160.6920  202.4620  145.2620 C   0  0  0  0  0  2  0  0  0  0  0  0
  161.5730  203.5570  145.2820 O   0  0  0  0  0  0  0  0  0  0  0  0
  160.8740  204.7200  144.8840 C   0  0  2  0  0  3  0  0  0  0  0  0
  161.2010  205.1180  143.5810 O   0  0  0  0  0  1  0  0  0  0  0  0
  160.4800  205.5100  147.1170 F   0  0  0  0  0  0  0  0  0  0  0  0
  160.2880  206.9730  145.4090 F   0  0  0  0  0  0  0  0  0  0  0  0
  160.9870  205.8770  145.8820 C   0  0  0  0  0  0  0  0  0  0  0  0
  162.3180  206.2220  146.0290 F   0  0  0  0  0  0  0  0  0  0  0  0
  160.2830  210.4520  152.4900 C   0  0  1  0  0  3  0  0  0  0  0  0
  160.0560  210.5800  153.8690 O   0  0  0  0  0  0  0  0  0  0  0  0
  160.8810  211.5790  154.2610 N   0  0  0  0  0  2  0  0  0  0  0  0
  160.0900  212.5040  154.9520 N   0  0  0  0  0  2  0  0  0  0  0  0
  159.2210  210.9190  157.1590 C   0  0  0  0  0  1  0  0  0  0  0  0
  158.2400  211.5740  156.2450 C   0  0  0  0  0  0  0  0  0  0  0  0
  156.9140  211.3740  156.4630 N   0  0  0  0  0  0  0  0  0  0  0  0
  158.6730  212.3650  155.1650 C   0  0  0  0  0  0  0  0  0  0  0  0
  156.3380  212.7250  154.5910 C   0  0  0  0  0  3  0  0  0  0  0  0
  155.9650  211.9240  155.6650 C   0  0  0  0  0  3  0  0  0  0  0  0
  157.6960  212.9760  154.3340 C   0  0  0  0  0  0  0  0  0  0  0  0
  156.8190  214.1320  152.3310 C   0  0  0  0  0  2  0  0  0  0  0  0
  158.0620  213.8390  153.1560 C   0  0  0  0  0  3  0  0  0  0  0  0
  157.8330  213.1350  151.8250 C   0  0  0  0  0  2  0  0  0  0  0  0
  161.3510  211.2740  152.0690 O   0  0  0  0  0  0  0  0  0  0  0  0
  160.9420  211.9980  150.9350 C   0  0  0  0  0  2  0  0  0  0  0  0
  161.9340  211.8010  149.7990 C   0  0  0  0  0  2  0  0  0  0  0  0
  161.9260  213.0380  146.2210 C   0  0  0  0  0  0  0  0  0  0  0  0
  161.4450  212.4360  148.5400 C   0  0  0  0  0  0  0  0  0  0  0  0
  160.1430  212.7090  148.4000 C   0  0  0  0  0  3  0  0  0  0  0  0
  162.3840  212.7160  147.4350 C   0  0  0  0  0  3  0  0  0  0  0  0
  160.4490  213.0070  145.9290 C   0  0  0  0  0  2  0  0  0  0  0  0
  162.8840  213.3300  145.1240 C   0  0  0  0  0  1  0  0  0  0  0  0
  159.6380  213.4120  147.1670 C   0  0  1  0  0  3  0  0  0  0  0  0
  157.6350  213.6640  148.0750 C   0  0  0  0  0  1  0  0  0  0  0  0
  158.2880  213.1190  146.9680 O   0  0  0  0  0  0  0  0  0  0  0  0
  1  2  1  6  0  0  0
  1  8  1  0  0  0  0
  1  6  1  0  0  0  0
  4  7  1  0  0  0  0
  4  3  1  0  0  0  0
  5 28  1  1  0  0  0
  5  7  1  0  0  0  0
  6  4  2  0  0  0  0
  7  9  1  1  0  0  0
  8  5  1  0  0  0  0
 10  6  1  0  0  0  0
 11 10  2  0  0  0  0
 12 16  1  6  0  0  0
 12 11  1  0  0  0  0
 12 14  1  0  0  0  0
 14 13  1  0  0  0  0
 15 14  2  0  0  0  0
 17 16  1  0  0  0  0
 18 19  1  1  0  0  0
 18 17  1  0  0  0  0
 20 21  1  0  0  0  0
 20 18  1  0  0  0  0
 22 23  1  6  0  0  0
 22 21  1  0  0  0  0
 22 26  1  0  0  0  0
 25 26  1  0  0  0  0
 26 27  1  0  0  0  0
 26 24  1  0  0  0  0
 28 42  1  1  0  0  0
 28 29  1  0  0  0  0
 29 30  1  0  0  0  0
 30 31  1  0  0  0  0
 31 35  1  0  0  0  0
 33 34  1  0  0  0  0
 33 32  1  0  0  0  0
 35 33  2  0  0  0  0
 36 37  1  0  0  0  0
 37 34  2  0  0  0  0
 38 36  2  0  0  0  0
 38 35  1  0  0  0  0
 39 40  1  0  0  0  0
 40 38  1  0  0  0  0
 41 39  1  0  0  0  0
 41 40  1  0  0  0  0
 43 42  1  0  0  0  0
 44 43  1  0  0  0  0
 45 48  2  0  0  0  0
 46 44  1  0  0  0  0
 47 46  2  0  0  0  0
 48 46  1  0  0  0  0
 49 45  1  0  0  0  0
 49 51  1  0  0  0  0
 50 45  1  0  0  0  0
 51 53  1  6  0  0  0
 51 47  1  0  0  0  0
 53 52  1  0  0  0  0
M  END
>  <MODEL>
8

>  <REMARK>
 VINA RESULT:      -5.7      1.917      3.127
  Name = 
  21 active torsions:
  status: ('A' for Active; 'I' for Inactive)
    1  A    between atoms: N_6  and  C_13
    2  A    between atoms: N_6  and  C_44
    3  A    between atoms: C_11  and  C_13
    4  A    between atoms: C_11  and  N_27
    5  A    between atoms: C_11  and  C_42
    6  A    between atoms: C_12  and  C_41
    7  A    between atoms: C_14  and  C_26
    8  A    between atoms: C_14  and  O_40
    9  A    between atoms: O_20  and  C_32
   10  A    between atoms: O_20  and  N_34
   11  A    between atoms: C_21  and  C_32
   12  A    between atoms: N_22  and  C_25
   13  A    between atoms: N_28  and  N_34
   14  A    between atoms: N_28  and  C_38
   15  A    between atoms: C_32  and  O_45
   16  A    between atoms: C_36  and  C_41
   17  A    between atoms: C_36  and  O_45
   18  A    between atoms: C_37  and  O_43
   19  A    between atoms: O_40  and  C_48
   20  A    between atoms: C_44  and  C_48
   21  A    between atoms: C_49  and  C_52
                            x       y       z     vdW  Elec       q    Type
                         _______ _______ _______ _____ _____    ______ ____

>  <TORSDO>
F 21

$$$$
=
 OpenBabel11042421293D

 53 56  0  0  1  0  0  0  0  0999 V2000
  161.1570  210.1420  151.6240 C   0  0  1  0  0  3  0  0  0  0  0  0
  161.5630  211.3770  152.8450 Cl  0  0  0  0  0  0  0  0  0  0  0  0
  162.8650  209.6360  148.3460 F   0  0  0  0  0  0  0  0  0  0  0  0
  162.2630  209.4000  149.5410 C   0  0  0  0  0  0  0  0  0  0  0  0
  161.1730  207.9080  151.2200 C   0  0  2  0  0  3  0  0  0  0  0  0
  161.8340  210.4290  150.2870 C   0  0  0  0  0  0  0  0  0  0  0  0
  162.1040  207.9760  150.0020 C   0  0  1  0  0  3  0  0  0  0  0  0
  161.5580  208.8950  152.1420 O   0  0  0  0  0  0  0  0  0  0  0  0
  161.5780  207.2110  148.9590 O   0  0  0  0  0  1  0  0  0  0  0  0
  161.8690  211.7440  149.7170 N   0  0  0  0  0  0  0  0  0  0  0  0
  160.8730  212.2540  149.1180 N   0  0  0  0  0  0  0  0  0  0  0  0
  160.9570  213.5920  148.5480 C   0  0  1  0  0  3  0  0  0  0  0  0
  163.0540  214.3470  147.4280 O   0  0  0  0  0  1  0  0  0  0  0  0
  161.8730  213.6200  147.3630 C   0  0  0  0  0  0  0  0  0  0  0  0
  161.5660  213.0200  146.2970 O   0  0  0  0  0  0  0  0  0  0  0  0
  159.5690  214.1140  148.1910 C   0  0  0  0  0  2  0  0  0  0  0  0
  158.5280  213.3100  148.8130 N   0  0  0  0  0  2  0  0  0  0  0  0
  157.7440  214.2020  149.6530 C   0  0  1  0  0  3  0  0  0  0  0  0
  156.4000  214.0800  149.3490 F   0  0  0  0  0  0  0  0  0  0  0  0
  157.9800  213.8800  151.1190 C   0  0  0  0  0  2  0  0  0  0  0  0
  156.7660  213.5610  151.7520 O   0  0  0  0  0  0  0  0  0  0  0  0
  156.8170  213.9950  153.0960 C   0  0  2  0  0  3  0  0  0  0  0  0
  158.0370  213.6840  153.7110 O   0  0  0  0  0  1  0  0  0  0  0  0
  155.8300  212.2690  154.4410 F   0  0  0  0  0  0  0  0  0  0  0  0
  154.4750  213.5370  153.1560 F   0  0  0  0  0  0  0  0  0  0  0  0
  155.6190  213.5400  153.9350 C   0  0  0  0  0  0  0  0  0  0  0  0
  155.4430  214.4170  154.9890 F   0  0  0  0  0  0  0  0  0  0  0  0
  161.2460  206.5260  151.8900 C   0  0  1  0  0  3  0  0  0  0  0  0
  162.1740  205.6910  151.2490 O   0  0  0  0  0  0  0  0  0  0  0  0
  161.4740  204.5750  150.9410 N   0  0  0  0  0  2  0  0  0  0  0  0
  161.2730  204.5980  149.5560 N   0  0  0  0  0  2  0  0  0  0  0  0
  160.7230  202.1240  150.8630 C   0  0  0  0  0  1  0  0  0  0  0  0
  160.8510  202.2000  149.3790 C   0  0  0  0  0  0  0  0  0  0  0  0
  160.7320  201.0570  148.6550 N   0  0  0  0  0  0  0  0  0  0  0  0
  161.1090  203.4260  148.7370 C   0  0  0  0  0  0  0  0  0  0  0  0
  161.0960  202.2330  146.6180 C   0  0  0  0  0  3  0  0  0  0  0  0
  160.8520  201.0470  147.3040 C   0  0  0  0  0  3  0  0  0  0  0  0
  161.2090  203.4440  147.3200 C   0  0  0  0  0  0  0  0  0  0  0  0
  162.1800  204.3610  145.2380 C   0  0  0  0  0  2  0  0  0  0  0  0
  161.4830  204.7060  146.5440 C   0  0  0  0  0  3  0  0  0  0  0  0
  162.9730  204.9690  146.3700 C   0  0  0  0  0  2  0  0  0  0  0  0
  161.4900  206.5930  153.2790 O   0  0  0  0  0  0  0  0  0  0  0  0
  160.3420  207.0980  153.9150 C   0  0  0  0  0  2  0  0  0  0  0  0
  160.5250  207.0760  155.4250 C   0  0  0  0  0  2  0  0  0  0  0  0
  162.1330  210.3080  156.5660 C   0  0  0  0  0  0  0  0  0  0  0  0
  160.6490  208.4590  155.9720 C   0  0  0  0  0  0  0  0  0  0  0  0
  159.5570  209.2200  156.1000 C   0  0  0  0  0  3  0  0  0  0  0  0
  161.9770  209.0030  156.3250 C   0  0  0  0  0  3  0  0  0  0  0  0
  160.9850  211.2630  156.3690 C   0  0  0  0  0  2  0  0  0  0  0  0
  163.4720  210.8360  156.9330 C   0  0  0  0  0  1  0  0  0  0  0  0
  159.6490  210.5930  156.7140 C   0  0  1  0  0  3  0  0  0  0  0  0
  158.4840  212.4060  157.2200 C   0  0  0  0  0  1  0  0  0  0  0  0
  158.5900  211.3870  156.2710 O   0  0  0  0  0  0  0  0  0  0  0  0
  1  8  1  0  0  0  0
  1  2  1  1  0  0  0
  3  4  1  0  0  0  0
  4  7  1  0  0  0  0
  4  6  2  0  0  0  0
  5 28  1  1  0  0  0
  5  8  1  0  0  0  0
  6  1  1  0  0  0  0
  7  9  1  6  0  0  0
  7  5  1  0  0  0  0
 10  6  1  0  0  0  0
 11 10  2  0  0  0  0
 12 16  1  6  0  0  0
 12 11  1  0  0  0  0
 14 13  1  0  0  0  0
 14 12  1  0  0  0  0
 15 14  2  0  0  0  0
 16 17  1  0  0  0  0
 17 18  1  0  0  0  0
 18 19  1  6  0  0  0
 18 20  1  0  0  0  0
 20 21  1  0  0  0  0
 21 22  1  0  0  0  0
 22 23  1  1  0  0  0
 22 26  1  0  0  0  0
 25 26  1  0  0  0  0
 26 24  1  0  0  0  0
 26 27  1  0  0  0  0
 28 29  1  6  0  0  0
 28 42  1  0  0  0  0
 30 29  1  0  0  0  0
 31 30  1  0  0  0  0
 33 32  1  0  0  0  0
 34 33  2  0  0  0  0
 35 33  1  0  0  0  0
 35 31  1  0  0  0  0
 36 37  2  0  0  0  0
 36 38  1  0  0  0  0
 37 34  1  0  0  0  0
 38 35  2  0  0  0  0
 39 41  1  0  0  0  0
 39 40  1  0  0  0  0
 40 38  1  0  0  0  0
 41 40  1  0  0  0  0
 42 43  1  0  0  0  0
 43 44  1  0  0  0  0
 44 46  1  0  0  0  0
 45 50  1  0  0  0  0
 46 47  2  0  0  0  0
 46 48  1  0  0  0  0
 47 51  1  0  0  0  0
 48 45  2  0  0  0  0
 49 45  1  0  0  0  0
 49 51  1  0  0  0  0
 51 53  1  6  0  0  0
 53 52  1  0  0  0  0
M  END
>  <MODEL>
9

>  <REMARK>
 VINA RESULT:      -5.6      3.865     10.343
  Name = 
  21 active torsions:
  status: ('A' for Active; 'I' for Inactive)
    1  A    between atoms: N_6  and  C_13
    2  A    between atoms: N_6  and  C_44
    3  A    between atoms: C_11  and  C_13
    4  A    between atoms: C_11  and  N_27
    5  A    between atoms: C_11  and  C_42
    6  A    between atoms: C_12  and  C_41
    7  A    between atoms: C_14  and  C_26
    8  A    between atoms: C_14  and  O_40
    9  A    between atoms: O_20  and  C_32
   10  A    between atoms: O_20  and  N_34
   11  A    between atoms: C_21  and  C_32
   12  A    between atoms: N_22  and  C_25
   13  A    between atoms: N_28  and  N_34
   14  A    between atoms: N_28  and  C_38
   15  A    between atoms: C_32  and  O_45
   16  A    between atoms: C_36  and  C_41
   17  A    between atoms: C_36  and  O_45
   18  A    between atoms: C_37  and  O_43
   19  A    between atoms: O_40  and  C_48
   20  A    between atoms: C_44  and  C_48
   21  A    between atoms: C_49  and  C_52
                            x       y       z     vdW  Elec       q    Type
                         _______ _______ _______ _____ _____    ______ ____

>  <TORSDO>
F 21

$$$$
