=
 OpenBabel11052409533D

 56 60  0  0  1  0  0  0  0  0999 V2000
  160.6490  210.4180  154.9850 C   0  0  2  0  0  3  0  0  0  0  0  0
  160.1110  212.7660  155.7580 N   0  0  0  0  0  2  0  0  0  0  0  0
  161.6780  211.4560  156.8820 O   0  0  0  0  0  0  0  0  0  0  0  0
  160.8570  211.5580  155.9340 C   0  0  0  0  0  0  0  0  0  0  0  0
  159.0630  212.8310  154.7430 C   0  0  0  0  0  2  0  0  0  0  0  0
  160.1850  210.9340  153.6450 C   0  0  0  0  0  3  0  0  0  0  0  0
  159.4620  212.0530  153.5140 C   0  0  0  0  0  0  0  0  0  0  0  0
  159.0010  212.4180  152.2050 N   0  0  0  0  0  2  0  0  0  0  0  0
  157.8090  214.4500  152.6870 C   0  0  0  0  0  2  0  0  0  0  0  0
  158.0370  213.4270  151.8680 C   0  0  0  0  0  0  0  0  0  0  0  0
  157.5040  213.4980  150.4550 C   0  0  1  0  0  3  0  0  0  0  0  0
  155.7100  213.7840  149.0380 C   0  0  0  0  0  1  0  0  0  0  0  0
  156.1250  213.8200  150.3820 O   0  0  0  0  0  0  0  0  0  0  0  0
  158.3710  214.3280  149.4990 C   0  0  0  0  0  2  0  0  0  0  0  0
  159.7080  213.6490  149.2630 C   0  0  0  0  0  2  0  0  0  0  0  0
  159.9520  214.2750  146.8570 C   0  0  0  0  0  2  0  0  0  0  0  0
  162.0130  214.0420  148.3680 C   0  0  0  0  0  2  0  0  0  0  0  0
  160.5320  214.4460  148.2680 C   0  0  2  0  0  3  0  0  0  0  0  0
  162.7560  214.3450  147.0710 C   0  0  0  0  0  2  0  0  0  0  0  0
  162.1750  213.5490  145.8960 C   0  0  0  0  0  2  0  0  0  0  0  0
  160.6900  213.1960  146.0630 C   0  0  2  0  0  3  0  0  0  0  0  0
  160.0570  213.0130  144.6950 C   0  0  0  0  0  2  0  0  0  0  0  0
  161.0660  212.4570  141.3270 C   0  0  1  0  0  3  0  0  0  0  0  0
  161.0760  213.0400  143.6570 N   0  0  0  0  0  0  0  0  0  0  0  0
  161.2080  213.9550  141.4520 C   0  0  0  0  0  2  0  0  0  0  0  0
  160.7650  211.9630  142.7300 C   0  0  0  0  0  2  0  0  0  0  0  0
  160.8900  214.2630  142.8970 C   0  0  0  0  0  2  0  0  0  0  0  0
  159.9150  212.1300  140.3930 C   0  0  0  0  0  2  0  0  0  0  0  0
  160.1520  210.7980  139.7070 C   0  0  0  0  0  1  0  0  0  0  0  0
  159.6300  209.4450  155.5640 C   0  0  0  0  0  2  0  0  0  0  0  0
  160.2150  208.2070  153.1800 S   0  0  0  0  0  0  0  0  0  0  0  0
  160.8610  206.5170  153.2770 C   0  0  2  0  0  3  0  0  0  0  0  0
  159.7590  208.0700  154.9290 C   0  0  1  0  0  3  0  0  0  0  0  0
  160.8380  207.2730  155.6370 C   0  0  0  0  0  2  0  0  0  0  0  0
  161.5560  206.3940  154.6240 C   0  0  0  0  0  2  0  0  0  0  0  0
  161.8190  206.2210  152.1130 C   0  0  1  0  0  3  0  0  0  0  0  0
  161.6320  204.8600  151.5000 C   0  0  0  0  0  0  0  0  0  0  0  0
  161.9590  202.4550  151.5100 C   0  0  0  0  0  3  0  0  0  0  0  0
  160.8900  204.7470  150.3190 C   0  0  0  0  0  3  0  0  0  0  0  0
  162.1590  203.7060  152.0990 C   0  0  0  0  0  3  0  0  0  0  0  0
  161.2080  202.3450  150.3300 C   0  0  0  0  0  0  0  0  0  0  0  0
  160.6840  203.4950  149.7340 C   0  0  0  0  0  3  0  0  0  0  0  0
  161.0240  201.0260  149.6480 C   0  0  0  0  0  2  0  0  0  0  0  0
  160.3700  201.5710  147.2720 C   0  0  0  0  0  0  0  0  0  0  0  0
  161.3310  201.1160  148.2270 N   0  0  0  0  0  2  0  0  0  0  0  0
  159.2010  201.8680  147.6350 O   0  0  0  0  0  0  0  0  0  0  0  0
  159.6780  201.2920  145.0310 O   0  0  0  0  0  1  0  0  0  0  0  0
  160.7440  201.7050  145.8320 C   0  0  1  0  0  3  0  0  0  0  0  0
  160.3970  203.8510  144.5190 C   0  0  0  0  0  0  0  0  0  0  0  0
  161.0860  203.0850  145.5090 N   0  0  0  0  0  2  0  0  0  0  0  0
  159.4560  203.3370  143.8540 O   0  0  0  0  0  0  0  0  0  0  0  0
  160.5340  206.1530  145.2220 N   0  0  0  0  0  1  0  0  0  0  0  0
  160.7830  205.1690  144.2910 O   0  0  0  0  0  0  0  0  0  0  0  0
  161.8280  207.3210  151.0480 C   0  0  0  0  0  2  0  0  0  0  0  0
  162.1750  207.7180  148.6260 C   0  0  0  0  0  1  0  0  0  0  0  0
  162.6800  206.9640  149.8400 C   0  0  0  0  0  2  0  0  0  0  0  0
  1 30  1  1  0  0  0
  1  4  1  0  0  0  0
  2  4  1  0  0  0  0
  4  3  2  0  0  0  0
  5  2  1  0  0  0  0
  6  1  1  0  0  0  0
  7  6  2  0  0  0  0
  7  5  1  0  0  0  0
  8  7  1  0  0  0  0
 10  8  1  0  0  0  0
 10  9  2  0  0  0  0
 11 14  1  6  0  0  0
 11 10  1  0  0  0  0
 12 13  1  0  0  0  0
 13 11  1  0  0  0  0
 15 14  1  0  0  0  0
 16 18  1  0  0  0  0
 18 17  1  0  0  0  0
 18 15  1  1  0  0  0
 19 17  1  0  0  0  0
 20 21  1  0  0  0  0
 20 19  1  0  0  0  0
 21 22  1  6  0  0  0
 21 16  1  0  0  0  0
 23 28  1  6  0  0  0
 23 25  1  0  0  0  0
 23 26  1  0  0  0  0
 24 22  1  0  0  0  0
 25 27  1  0  0  0  0
 26 24  1  0  0  0  0
 27 24  1  0  0  0  0
 29 28  1  0  0  0  0
 31 32  1  0  0  0  0
 31 33  1  0  0  0  0
 32 36  1  6  0  0  0
 32 35  1  0  0  0  0
 33 30  1  1  0  0  0
 33 34  1  0  0  0  0
 35 34  1  0  0  0  0
 36 54  1  6  0  0  0
 37 40  1  0  0  0  0
 37 36  1  0  0  0  0
 38 40  2  0  0  0  0
 39 37  2  0  0  0  0
 41 38  1  0  0  0  0
 42 39  1  0  0  0  0
 42 41  2  0  0  0  0
 43 41  1  0  0  0  0
 44 46  2  0  0  0  0
 44 45  1  0  0  0  0
 45 43  1  0  0  0  0
 48 47  1  6  0  0  0
 48 44  1  0  0  0  0
 49 50  1  0  0  0  0
 50 48  1  0  0  0  0
 51 49  2  0  0  0  0
 53 49  1  0  0  0  0
 53 52  1  0  0  0  0
 55 56  1  0  0  0  0
 56 54  1  0  0  0  0
M  END
>  <MODEL>
1

>  <REMARK>
 VINA RESULT:      -5.8      0.000      0.000
  Name = 
  21 active torsions:
  status: ('A' for Active; 'I' for Inactive)
    1  A    between atoms: C_1  and  C_11
    2  A    between atoms: C_2  and  N_19
    3  A    between atoms: C_2  and  C_54
    4  A    between atoms: C_4  and  C_14
    5  A    between atoms: C_7  and  C_11
    6  A    between atoms: C_8  and  C_10
    7  A    between atoms: C_11  and  C_17
    8  A    between atoms: C_14  and  C_47
    9  A    between atoms: N_15  and  C_30
   10  A    between atoms: N_15  and  C_42
   11  A    between atoms: C_17  and  C_25
   12  A    between atoms: C_20  and  O_41
   13  A    between atoms: C_24  and  N_27
   14  A    between atoms: C_24  and  C_33
   15  A    between atoms: C_26  and  C_50
   16  A    between atoms: N_34  and  C_39
   17  A    between atoms: C_35  and  C_50
   18  A    between atoms: C_35  and  C_56
   19  A    between atoms: C_39  and  C_43
   20  A    between atoms: C_42  and  C_56
   21  A    between atoms: O_55  and  C_56
                            x       y       z     vdW  Elec       q    Type
                         _______ _______ _______ _____ _____    ______ ____

>  <TORSDO>
F 21

$$$$
=
 OpenBabel11052409533D

 56 60  0  0  1  0  0  0  0  0999 V2000
  160.7130  202.9020  149.3560 C   0  0  2  0  0  3  0  0  0  0  0  0
  160.6240  200.6330  148.2410 N   0  0  0  0  0  2  0  0  0  0  0  0
  159.6290  200.9950  150.3180 O   0  0  0  0  0  0  0  0  0  0  0  0
  160.2820  201.4670  149.3520 C   0  0  0  0  0  0  0  0  0  0  0  0
  161.4960  201.1450  147.1880 C   0  0  0  0  0  2  0  0  0  0  0  0
  160.8660  203.4040  147.9410 C   0  0  0  0  0  3  0  0  0  0  0  0
  161.2160  202.6040  146.9260 C   0  0  0  0  0  0  0  0  0  0  0  0
  161.4120  203.1910  145.6320 N   0  0  0  0  0  2  0  0  0  0  0  0
  163.1100  204.8880  145.7940 C   0  0  0  0  0  2  0  0  0  0  0  0
  161.9230  204.5000  145.3340 C   0  0  0  0  0  0  0  0  0  0  0  0
  161.2610  205.3240  144.2530 C   0  0  1  0  0  3  0  0  0  0  0  0
  160.4920  206.3640  146.1590 C   0  0  0  0  0  1  0  0  0  0  0  0
  160.4710  206.3900  144.7520 O   0  0  0  0  0  0  0  0  0  0  0  0
  162.2080  205.7500  143.1220 C   0  0  0  0  0  2  0  0  0  0  0  0
  161.4250  206.3440  141.9640 C   0  0  0  0  0  2  0  0  0  0  0  0
  162.0960  208.1850  140.4150 C   0  0  0  0  0  2  0  0  0  0  0  0
  162.2550  205.7300  139.6830 C   0  0  0  0  0  2  0  0  0  0  0  0
  162.3690  206.7360  140.8410 C   0  0  2  0  0  3  0  0  0  0  0  0
  162.6980  206.3540  138.3650 C   0  0  0  0  0  2  0  0  0  0  0  0
  161.8100  207.5460  137.9840 C   0  0  0  0  0  2  0  0  0  0  0  0
  161.1810  208.2570  139.1900 C   0  0  2  0  0  3  0  0  0  0  0  0
  160.8850  209.7010  138.8290 C   0  0  0  0  0  2  0  0  0  0  0  0
  161.1600  212.8700  140.4280 C   0  0  1  0  0  3  0  0  0  0  0  0
  160.8340  210.5240  140.0280 N   0  0  0  0  0  0  0  0  0  0  0  0
  159.7030  212.5390  140.6390 C   0  0  0  0  0  2  0  0  0  0  0  0
  161.7740  211.6160  139.8320 C   0  0  0  0  0  2  0  0  0  0  0  0
  159.5250  211.1500  140.0700 C   0  0  0  0  0  2  0  0  0  0  0  0
  161.2840  214.0310  139.4590 C   0  0  0  0  0  2  0  0  0  0  0  0
  162.2040  213.6670  138.3090 C   0  0  0  0  0  1  0  0  0  0  0  0
  162.0240  203.0450  150.1180 C   0  0  0  0  0  2  0  0  0  0  0  0
  162.5630  205.6250  150.8970 S   0  0  0  0  0  0  0  0  0  0  0  0
  161.5080  206.3200  152.1970 C   0  0  2  0  0  3  0  0  0  0  0  0
  161.8770  203.9960  151.2940 C   0  0  1  0  0  3  0  0  0  0  0  0
  160.4090  204.1700  151.6360 C   0  0  0  0  0  2  0  0  0  0  0  0
  160.1740  205.5980  152.1050 C   0  0  0  0  0  2  0  0  0  0  0  0
  161.3460  207.8380  152.0290 C   0  0  1  0  0  3  0  0  0  0  0  0
  161.2120  208.5850  153.3280 C   0  0  0  0  0  0  0  0  0  0  0  0
  161.3940  210.6130  154.6480 C   0  0  0  0  0  3  0  0  0  0  0  0
  160.7240  207.9060  154.4500 C   0  0  0  0  0  3  0  0  0  0  0  0
  161.5390  209.9450  153.4300 C   0  0  0  0  0  3  0  0  0  0  0  0
  160.8960  209.9320  155.7700 C   0  0  0  0  0  0  0  0  0  0  0  0
  160.5720  208.5770  155.6670 C   0  0  0  0  0  3  0  0  0  0  0  0
  160.7820  210.6070  157.0990 C   0  0  0  0  0  2  0  0  0  0  0  0
  158.8420  212.1350  156.5780 C   0  0  0  0  0  0  0  0  0  0  0  0
  160.2020  211.9370  156.9710 N   0  0  0  0  0  2  0  0  0  0  0  0
  158.1130  211.1500  156.2850 O   0  0  0  0  0  0  0  0  0  0  0  0
  159.2640  214.4190  156.1500 O   0  0  0  0  0  1  0  0  0  0  0  0
  158.2680  213.5130  156.5170 C   0  0  1  0  0  3  0  0  0  0  0  0
  157.3720  213.5590  154.1420 C   0  0  0  0  0  0  0  0  0  0  0  0
  157.1740  213.5800  155.5570 N   0  0  0  0  0  2  0  0  0  0  0  0
  158.5370  213.5030  153.6610 O   0  0  0  0  0  0  0  0  0  0  0  0
  155.0050  213.8680  153.7970 N   0  0  0  0  0  1  0  0  0  0  0  0
  156.2640  213.6090  153.3010 O   0  0  0  0  0  0  0  0  0  0  0  0
  162.4200  208.4600  151.1310 C   0  0  0  0  0  2  0  0  0  0  0  0
  162.2710  208.2440  148.6670 C   0  0  0  0  0  1  0  0  0  0  0  0
  161.8450  209.0720  149.8630 C   0  0  0  0  0  2  0  0  0  0  0  0
  1 30  1  1  0  0  0
  2  4  1  0  0  0  0
  4  1  1  0  0  0  0
  4  3  2  0  0  0  0
  5  2  1  0  0  0  0
  6  1  1  0  0  0  0
  7  5  1  0  0  0  0
  7  6  2  0  0  0  0
  8  7  1  0  0  0  0
 10  8  1  0  0  0  0
 10  9  2  0  0  0  0
 11 14  1  6  0  0  0
 11 13  1  0  0  0  0
 11 10  1  0  0  0  0
 13 12  1  0  0  0  0
 15 14  1  0  0  0  0
 16 18  1  0  0  0  0
 17 18  1  0  0  0  0
 18 15  1  1  0  0  0
 19 17  1  0  0  0  0
 20 19  1  0  0  0  0
 20 21  1  0  0  0  0
 21 22  1  6  0  0  0
 21 16  1  0  0  0  0
 22 24  1  0  0  0  0
 23 28  1  6  0  0  0
 23 25  1  0  0  0  0
 24 27  1  0  0  0  0
 26 24  1  0  0  0  0
 26 23  1  0  0  0  0
 27 25  1  0  0  0  0
 29 28  1  0  0  0  0
 31 33  1  0  0  0  0
 31 32  1  0  0  0  0
 32 36  1  6  0  0  0
 33 30  1  6  0  0  0
 33 34  1  0  0  0  0
 34 35  1  0  0  0  0
 35 32  1  0  0  0  0
 36 54  1  1  0  0  0
 36 37  1  0  0  0  0
 37 40  2  0  0  0  0
 37 39  1  0  0  0  0
 38 41  2  0  0  0  0
 39 42  2  0  0  0  0
 40 38  1  0  0  0  0
 41 43  1  0  0  0  0
 42 41  1  0  0  0  0
 44 45  1  0  0  0  0
 45 43  1  0  0  0  0
 46 44  2  0  0  0  0
 48 47  1  6  0  0  0
 48 44  1  0  0  0  0
 49 50  1  0  0  0  0
 50 48  1  0  0  0  0
 51 49  2  0  0  0  0
 53 52  1  0  0  0  0
 53 49  1  0  0  0  0
 55 56  1  0  0  0  0
 56 54  1  0  0  0  0
M  END
>  <MODEL>
2

>  <REMARK>
 VINA RESULT:      -5.3      3.032      9.902
  Name = 
  21 active torsions:
  status: ('A' for Active; 'I' for Inactive)
    1  A    between atoms: C_1  and  C_11
    2  A    between atoms: C_2  and  N_19
    3  A    between atoms: C_2  and  C_54
    4  A    between atoms: C_4  and  C_14
    5  A    between atoms: C_7  and  C_11
    6  A    between atoms: C_8  and  C_10
    7  A    between atoms: C_11  and  C_17
    8  A    between atoms: C_14  and  C_47
    9  A    between atoms: N_15  and  C_30
   10  A    between atoms: N_15  and  C_42
   11  A    between atoms: C_17  and  C_25
   12  A    between atoms: C_20  and  O_41
   13  A    between atoms: C_24  and  N_27
   14  A    between atoms: C_24  and  C_33
   15  A    between atoms: C_26  and  C_50
   16  A    between atoms: N_34  and  C_39
   17  A    between atoms: C_35  and  C_50
   18  A    between atoms: C_35  and  C_56
   19  A    between atoms: C_39  and  C_43
   20  A    between atoms: C_42  and  C_56
   21  A    between atoms: O_55  and  C_56
                            x       y       z     vdW  Elec       q    Type
                         _______ _______ _______ _____ _____    ______ ____

>  <TORSDO>
F 21

$$$$
=
 OpenBabel11052409533D

 56 60  0  0  1  0  0  0  0  0999 V2000
  161.1450  209.5570  154.7690 C   0  0  2  0  0  3  0  0  0  0  0  0
  160.2830  211.4060  156.2640 N   0  0  0  0  0  2  0  0  0  0  0  0
  161.9240  209.9250  157.0030 O   0  0  0  0  0  0  0  0  0  0  0  0
  161.1570  210.2890  156.0760 C   0  0  0  0  0  0  0  0  0  0  0  0
  159.2990  211.7410  155.2390 C   0  0  0  0  0  2  0  0  0  0  0  0
  160.7050  210.4800  153.6590 C   0  0  0  0  0  3  0  0  0  0  0  0
  159.8620  211.5010  153.8600 C   0  0  0  0  0  0  0  0  0  0  0  0
  159.4420  212.2720  152.7270 N   0  0  0  0  0  2  0  0  0  0  0  0
  158.8050  214.4530  153.5180 C   0  0  0  0  0  2  0  0  0  0  0  0
  158.5700  213.4140  152.7210 C   0  0  0  0  0  0  0  0  0  0  0  0
  157.5680  213.5740  151.6000 C   0  0  1  0  0  3  0  0  0  0  0  0
  155.6990  213.6380  152.9450 C   0  0  0  0  0  1  0  0  0  0  0  0
  156.4260  214.3330  151.9610 O   0  0  0  0  0  0  0  0  0  0  0  0
  158.1860  214.0070  150.2640 C   0  0  0  0  0  2  0  0  0  0  0  0
  159.4920  213.2740  150.0160 C   0  0  0  0  0  2  0  0  0  0  0  0
  159.6940  214.0130  147.6380 C   0  0  0  0  0  2  0  0  0  0  0  0
  161.7850  213.5020  149.0360 C   0  0  0  0  0  2  0  0  0  0  0  0
  160.3470  214.0470  149.0270 C   0  0  2  0  0  3  0  0  0  0  0  0
  162.4990  213.8090  147.7240 C   0  0  0  0  0  2  0  0  0  0  0  0
  161.7960  213.1390  146.5360 C   0  0  0  0  0  2  0  0  0  0  0  0
  160.2930  212.9170  146.7540 C   0  0  2  0  0  3  0  0  0  0  0  0
  159.5890  212.8720  145.4090 C   0  0  0  0  0  2  0  0  0  0  0  0
  160.3500  213.0230  141.9350 C   0  0  1  0  0  3  0  0  0  0  0  0
  160.5480  213.0440  144.3280 N   0  0  0  0  0  0  0  0  0  0  0  0
  160.6620  214.4300  142.3840 C   0  0  0  0  0  2  0  0  0  0  0  0
  160.0720  212.2460  143.2090 C   0  0  0  0  0  2  0  0  0  0  0  0
  160.4570  214.4220  143.8810 C   0  0  0  0  0  2  0  0  0  0  0  0
  159.1230  213.0320  141.0430 C   0  0  0  0  0  2  0  0  0  0  0  0
  158.9060  211.6640  140.4240 C   0  0  0  0  0  1  0  0  0  0  0  0
  160.2170  208.3530  154.8610 C   0  0  0  0  0  2  0  0  0  0  0  0
  160.7900  208.3000  152.1720 S   0  0  0  0  0  0  0  0  0  0  0  0
  161.5990  206.8060  151.5420 C   0  0  2  0  0  3  0  0  0  0  0  0
  160.4430  207.3940  153.7030 C   0  0  1  0  0  3  0  0  0  0  0  0
  161.6290  206.4960  154.0010 C   0  0  0  0  0  2  0  0  0  0  0  0
  162.3730  206.2070  152.7050 C   0  0  0  0  0  2  0  0  0  0  0  0
  162.5190  207.1310  150.3550 C   0  0  1  0  0  3  0  0  0  0  0  0
  162.1840  206.3740  149.0980 C   0  0  0  0  0  0  0  0  0  0  0  0
  162.2390  206.1190  146.6860 C   0  0  0  0  0  3  0  0  0  0  0  0
  161.5090  205.1530  149.2060 C   0  0  0  0  0  3  0  0  0  0  0  0
  162.5560  206.8510  147.8330 C   0  0  0  0  0  3  0  0  0  0  0  0
  161.5690  204.8910  146.7970 C   0  0  0  0  0  0  0  0  0  0  0  0
  161.1990  204.4180  148.0580 C   0  0  0  0  0  3  0  0  0  0  0  0
  161.1700  204.1140  145.5830 C   0  0  0  0  0  2  0  0  0  0  0  0
  160.1930  201.8050  145.2830 C   0  0  0  0  0  0  0  0  0  0  0  0
  161.1730  202.6810  145.8460 N   0  0  0  0  0  2  0  0  0  0  0  0
  159.2610  202.2660  144.5710 O   0  0  0  0  0  0  0  0  0  0  0  0
  160.9000  199.7110  144.4500 O   0  0  0  0  0  1  0  0  0  0  0  0
  160.2670  200.3340  145.5280 C   0  0  1  0  0  3  0  0  0  0  0  0
  160.6520  200.5960  148.0240 C   0  0  0  0  0  0  0  0  0  0  0  0
  161.0020  200.0460  146.7530 N   0  0  0  0  0  2  0  0  0  0  0  0
  159.6790  201.3930  148.1290 O   0  0  0  0  0  0  0  0  0  0  0  0
  161.3890  201.0320  150.2780 N   0  0  0  0  0  1  0  0  0  0  0  0
  161.4020  200.2500  149.1440 O   0  0  0  0  0  0  0  0  0  0  0  0
  162.6460  208.6340  150.0880 C   0  0  0  0  0  2  0  0  0  0  0  0
  161.8920  210.3780  148.4970 C   0  0  0  0  0  1  0  0  0  0  0  0
  161.4470  209.2030  149.3450 C   0  0  0  0  0  2  0  0  0  0  0  0
  1 30  1  1  0  0  0
  1  4  1  0  0  0  0
  4  2  1  0  0  0  0
  4  3  2  0  0  0  0
  5  2  1  0  0  0  0
  6  7  2  0  0  0  0
  6  1  1  0  0  0  0
  7  5  1  0  0  0  0
  8  7  1  0  0  0  0
 10  8  1  0  0  0  0
 10  9  2  0  0  0  0
 11 14  1  6  0  0  0
 11 13  1  0  0  0  0
 11 10  1  0  0  0  0
 13 12  1  0  0  0  0
 15 14  1  0  0  0  0
 16 18  1  0  0  0  0
 18 17  1  0  0  0  0
 18 15  1  1  0  0  0
 19 17  1  0  0  0  0
 20 21  1  0  0  0  0
 20 19  1  0  0  0  0
 21 22  1  6  0  0  0
 21 16  1  0  0  0  0
 23 28  1  6  0  0  0
 23 25  1  0  0  0  0
 23 26  1  0  0  0  0
 24 22  1  0  0  0  0
 25 27  1  0  0  0  0
 26 24  1  0  0  0  0
 27 24  1  0  0  0  0
 29 28  1  0  0  0  0
 31 33  1  0  0  0  0
 32 36  1  6  0  0  0
 32 31  1  0  0  0  0
 32 35  1  0  0  0  0
 33 34  1  0  0  0  0
 33 30  1  1  0  0  0
 35 34  1  0  0  0  0
 36 54  1  6  0  0  0
 37 39  1  0  0  0  0
 37 36  1  0  0  0  0
 38 41  2  0  0  0  0
 38 40  1  0  0  0  0
 40 37  2  0  0  0  0
 41 42  1  0  0  0  0
 42 39  2  0  0  0  0
 43 45  1  0  0  0  0
 43 41  1  0  0  0  0
 44 48  1  0  0  0  0
 44 45  1  0  0  0  0
 46 44  2  0  0  0  0
 48 47  1  6  0  0  0
 48 50  1  0  0  0  0
 49 51  2  0  0  0  0
 49 53  1  0  0  0  0
 50 49  1  0  0  0  0
 53 52  1  0  0  0  0
 55 56  1  0  0  0  0
 56 54  1  0  0  0  0
M  END
>  <MODEL>
3

>  <REMARK>
 VINA RESULT:      -4.7      1.492      2.665
  Name = 
  21 active torsions:
  status: ('A' for Active; 'I' for Inactive)
    1  A    between atoms: C_1  and  C_11
    2  A    between atoms: C_2  and  N_19
    3  A    between atoms: C_2  and  C_54
    4  A    between atoms: C_4  and  C_14
    5  A    between atoms: C_7  and  C_11
    6  A    between atoms: C_8  and  C_10
    7  A    between atoms: C_11  and  C_17
    8  A    between atoms: C_14  and  C_47
    9  A    between atoms: N_15  and  C_30
   10  A    between atoms: N_15  and  C_42
   11  A    between atoms: C_17  and  C_25
   12  A    between atoms: C_20  and  O_41
   13  A    between atoms: C_24  and  N_27
   14  A    between atoms: C_24  and  C_33
   15  A    between atoms: C_26  and  C_50
   16  A    between atoms: N_34  and  C_39
   17  A    between atoms: C_35  and  C_50
   18  A    between atoms: C_35  and  C_56
   19  A    between atoms: C_39  and  C_43
   20  A    between atoms: C_42  and  C_56
   21  A    between atoms: O_55  and  C_56
                            x       y       z     vdW  Elec       q    Type
                         _______ _______ _______ _____ _____    ______ ____

>  <TORSDO>
F 21

$$$$
=
 OpenBabel11052409533D

 56 60  0  0  1  0  0  0  0  0999 V2000
  161.0410  205.2800  149.0320 C   0  0  2  0  0  3  0  0  0  0  0  0
  162.6180  205.4250  147.0600 N   0  0  0  0  0  2  0  0  0  0  0  0
  161.7010  203.3870  147.7230 O   0  0  0  0  0  0  0  0  0  0  0  0
  161.7910  204.6270  147.9120 C   0  0  0  0  0  0  0  0  0  0  0  0
  162.8280  206.8370  147.3650 C   0  0  0  0  0  2  0  0  0  0  0  0
  160.7610  206.7250  148.6980 C   0  0  0  0  0  3  0  0  0  0  0  0
  161.5690  207.4550  147.9200 C   0  0  0  0  0  0  0  0  0  0  0  0
  161.2580  208.8420  147.7260 N   0  0  0  0  0  2  0  0  0  0  0  0
  162.4630  209.8000  149.5740 C   0  0  0  0  0  2  0  0  0  0  0  0
  161.5670  209.9380  148.6020 C   0  0  0  0  0  0  0  0  0  0  0  0
  161.1060  211.3310  148.2350 C   0  0  1  0  0  3  0  0  0  0  0  0
  160.5480  213.0920  149.6110 C   0  0  0  0  0  1  0  0  0  0  0  0
  161.6170  212.3430  149.0860 O   0  0  0  0  0  0  0  0  0  0  0  0
  161.2480  211.6650  146.7440 C   0  0  0  0  0  2  0  0  0  0  0  0
  160.3410  212.8230  146.3660 C   0  0  0  0  0  2  0  0  0  0  0  0
  160.4940  213.9520  144.1430 C   0  0  0  0  0  2  0  0  0  0  0  0
  162.6050  213.4830  145.5240 C   0  0  0  0  0  2  0  0  0  0  0  0
  161.1100  213.8430  145.5440 C   0  0  2  0  0  3  0  0  0  0  0  0
  163.2990  214.0800  144.3050 C   0  0  0  0  0  2  0  0  0  0  0  0
  162.7100  213.5290  143.0000 C   0  0  0  0  0  2  0  0  0  0  0  0
  161.2430  213.0940  143.1210 C   0  0  2  0  0  3  0  0  0  0  0  0
  160.5760  213.1790  141.7600 C   0  0  0  0  0  2  0  0  0  0  0  0
  159.6960  210.8330  139.2310 C   0  0  1  0  0  3  0  0  0  0  0  0
  160.0640  211.8760  141.3640 N   0  0  0  0  0  0  0  0  0  0  0  0
  160.8390  210.1310  139.9250 C   0  0  0  0  0  2  0  0  0  0  0  0
  159.3990  212.0550  140.0820 C   0  0  0  0  0  2  0  0  0  0  0  0
  161.2080  211.0260  141.0850 C   0  0  0  0  0  2  0  0  0  0  0  0
  160.1260  211.2510  137.8370 C   0  0  0  0  0  2  0  0  0  0  0  0
  161.0650  210.2210  137.2400 C   0  0  0  0  0  1  0  0  0  0  0  0
  161.8450  205.1760  150.3210 C   0  0  0  0  0  2  0  0  0  0  0  0
  162.2340  206.2380  152.8270 S   0  0  0  0  0  0  0  0  0  0  0  0
  160.9930  207.4230  153.4100 C   0  0  2  0  0  3  0  0  0  0  0  0
  161.0950  205.7940  151.4900 C   0  0  1  0  0  3  0  0  0  0  0  0
  160.3820  207.0550  151.0370 C   0  0  0  0  0  2  0  0  0  0  0  0
  160.3920  208.0680  152.1720 C   0  0  0  0  0  2  0  0  0  0  0  0
  161.6190  208.4670  154.3480 C   0  0  1  0  0  3  0  0  0  0  0  0
  161.0250  209.8430  154.2140 C   0  0  0  0  0  0  0  0  0  0  0  0
  159.6880  211.6780  155.0680 C   0  0  0  0  0  3  0  0  0  0  0  0
  161.3120  210.5940  153.0680 C   0  0  0  0  0  3  0  0  0  0  0  0
  160.2160  210.3940  155.2180 C   0  0  0  0  0  3  0  0  0  0  0  0
  159.9840  212.4320  153.9220 C   0  0  0  0  0  0  0  0  0  0  0  0
  160.7890  211.8810  152.9220 C   0  0  0  0  0  3  0  0  0  0  0  0
  159.3880  213.7870  153.7100 C   0  0  0  0  0  2  0  0  0  0  0  0
  156.8780  213.6640  153.4660 C   0  0  0  0  0  0  0  0  0  0  0  0
  158.0440  213.8690  154.2680 N   0  0  0  0  0  2  0  0  0  0  0  0
  156.9840  213.4490  152.2290 O   0  0  0  0  0  0  0  0  0  0  0  0
  154.5860  214.1400  153.1510 O   0  0  0  0  0  1  0  0  0  0  0  0
  155.5210  213.6970  154.0890 C   0  0  1  0  0  3  0  0  0  0  0  0
  155.5630  211.8450  155.8260 C   0  0  0  0  0  0  0  0  0  0  0  0
  155.1360  212.3770  154.5700 N   0  0  0  0  0  2  0  0  0  0  0  0
  156.3320  212.5120  156.5730 O   0  0  0  0  0  0  0  0  0  0  0  0
  154.7490  209.6440  155.2750 N   0  0  0  0  0  1  0  0  0  0  0  0
  155.1300  210.5800  156.2110 O   0  0  0  0  0  0  0  0  0  0  0  0
  161.6590  208.0120  155.8100 C   0  0  0  0  0  2  0  0  0  0  0  0
  159.7630  207.3410  157.2590 C   0  0  0  0  0  1  0  0  0  0  0  0
  160.6550  206.9100  156.1110 C   0  0  0  0  0  2  0  0  0  0  0  0
  1 30  1  1  0  0  0
  2  5  1  0  0  0  0
  2  4  1  0  0  0  0
  3  4  2  0  0  0  0
  4  1  1  0  0  0  0
  5  7  1  0  0  0  0
  6  1  1  0  0  0  0
  7  6  2  0  0  0  0
  8  7  1  0  0  0  0
  8 10  1  0  0  0  0
 10  9  2  0  0  0  0
 11 14  1  6  0  0  0
 11 10  1  0  0  0  0
 11 13  1  0  0  0  0
 13 12  1  0  0  0  0
 15 14  1  0  0  0  0
 16 18  1  0  0  0  0
 17 18  1  0  0  0  0
 18 15  1  1  0  0  0
 19 17  1  0  0  0  0
 20 21  1  0  0  0  0
 20 19  1  0  0  0  0
 21 22  1  6  0  0  0
 21 16  1  0  0  0  0
 23 28  1  6  0  0  0
 23 25  1  0  0  0  0
 23 26  1  0  0  0  0
 24 22  1  0  0  0  0
 25 27  1  0  0  0  0
 26 24  1  0  0  0  0
 27 24  1  0  0  0  0
 29 28  1  0  0  0  0
 31 32  1  0  0  0  0
 32 36  1  1  0  0  0
 33 30  1  6  0  0  0
 33 31  1  0  0  0  0
 34 33  1  0  0  0  0
 34 35  1  0  0  0  0
 35 32  1  0  0  0  0
 36 54  1  1  0  0  0
 37 36  1  0  0  0  0
 37 40  1  0  0  0  0
 38 40  2  0  0  0  0
 39 37  2  0  0  0  0
 41 38  1  0  0  0  0
 42 39  1  0  0  0  0
 42 41  2  0  0  0  0
 43 41  1  0  0  0  0
 43 45  1  0  0  0  0
 44 48  1  0  0  0  0
 44 45  1  0  0  0  0
 46 44  2  0  0  0  0
 48 47  1  6  0  0  0
 48 50  1  0  0  0  0
 49 53  1  0  0  0  0
 49 51  2  0  0  0  0
 50 49  1  0  0  0  0
 52 53  1  0  0  0  0
 54 56  1  0  0  0  0
 56 55  1  0  0  0  0
M  END
>  <MODEL>
4

>  <REMARK>
 VINA RESULT:      -4.5      2.498      8.455
  Name = 
  21 active torsions:
  status: ('A' for Active; 'I' for Inactive)
    1  A    between atoms: C_1  and  C_11
    2  A    between atoms: C_2  and  N_19
    3  A    between atoms: C_2  and  C_54
    4  A    between atoms: C_4  and  C_14
    5  A    between atoms: C_7  and  C_11
    6  A    between atoms: C_8  and  C_10
    7  A    between atoms: C_11  and  C_17
    8  A    between atoms: C_14  and  C_47
    9  A    between atoms: N_15  and  C_30
   10  A    between atoms: N_15  and  C_42
   11  A    between atoms: C_17  and  C_25
   12  A    between atoms: C_20  and  O_41
   13  A    between atoms: C_24  and  N_27
   14  A    between atoms: C_24  and  C_33
   15  A    between atoms: C_26  and  C_50
   16  A    between atoms: N_34  and  C_39
   17  A    between atoms: C_35  and  C_50
   18  A    between atoms: C_35  and  C_56
   19  A    between atoms: C_39  and  C_43
   20  A    between atoms: C_42  and  C_56
   21  A    between atoms: O_55  and  C_56
                            x       y       z     vdW  Elec       q    Type
                         _______ _______ _______ _____ _____    ______ ____

>  <TORSDO>
F 21

$$$$
=
 OpenBabel11052409533D

 56 60  0  0  1  0  0  0  0  0999 V2000
  160.2860  205.3990  144.9440 C   0  0  2  0  0  3  0  0  0  0  0  0
  162.7360  206.0280  144.9890 N   0  0  0  0  0  2  0  0  0  0  0  0
  161.7020  205.3470  143.0140 O   0  0  0  0  0  0  0  0  0  0  0  0
  161.5980  205.5840  144.2440 C   0  0  0  0  0  0  0  0  0  0  0  0
  162.6460  206.1690  146.4400 C   0  0  0  0  0  2  0  0  0  0  0  0
  160.2050  206.3080  146.1460 C   0  0  0  0  0  3  0  0  0  0  0  0
  161.2860  206.6830  146.8420 C   0  0  0  0  0  0  0  0  0  0  0  0
  161.0970  207.4840  148.0160 N   0  0  0  0  0  2  0  0  0  0  0  0
  163.3140  207.4340  148.9480 C   0  0  0  0  0  2  0  0  0  0  0  0
  162.1090  207.9960  148.8970 C   0  0  0  0  0  0  0  0  0  0  0  0
  161.9150  209.3520  149.5390 C   0  0  1  0  0  3  0  0  0  0  0  0
  161.5700  210.1550  151.6710 C   0  0  0  0  0  1  0  0  0  0  0  0
  162.4620  209.4480  150.8430 O   0  0  0  0  0  0  0  0  0  0  0  0
  162.2920  210.5320  148.6350 C   0  0  0  0  0  2  0  0  0  0  0  0
  161.0750  211.0390  147.8800 C   0  0  0  0  0  2  0  0  0  0  0  0
  160.4740  213.0230  146.4860 C   0  0  0  0  0  2  0  0  0  0  0  0
  162.5310  213.0710  148.0200 C   0  0  0  0  0  2  0  0  0  0  0  0
  161.0980  212.5560  147.8080 C   0  0  2  0  0  3  0  0  0  0  0  0
  162.7170  214.4530  147.4020 C   0  0  0  0  0  2  0  0  0  0  0  0
  162.4940  214.4210  145.8850 C   0  0  0  0  0  2  0  0  0  0  0  0
  161.5380  213.3120  145.4250 C   0  0  2  0  0  3  0  0  0  0  0  0
  160.8880  213.7170  144.1130 C   0  0  0  0  0  2  0  0  0  0  0  0
  160.7180  212.4480  140.7920 C   0  0  1  0  0  3  0  0  0  0  0  0
  160.8850  212.5980  143.1830 N   0  0  0  0  0  0  0  0  0  0  0  0
  162.1130  212.0500  141.2070 C   0  0  0  0  0  2  0  0  0  0  0  0
  160.0640  212.9930  142.0490 C   0  0  0  0  0  2  0  0  0  0  0  0
  162.2310  212.4690  142.6540 C   0  0  0  0  0  2  0  0  0  0  0  0
  160.7900  213.5250  139.7250 C   0  0  0  0  0  2  0  0  0  0  0  0
  162.2100  213.6650  139.2090 C   0  0  0  0  0  1  0  0  0  0  0  0
  160.1250  203.9440  145.3630 C   0  0  0  0  0  2  0  0  0  0  0  0
  160.4520  204.1710  148.0830 S   0  0  0  0  0  0  0  0  0  0  0  0
  161.4930  202.9220  148.8850 C   0  0  2  0  0  3  0  0  0  0  0  0
  161.0820  203.5860  146.4880 C   0  0  1  0  0  3  0  0  0  0  0  0
  161.2460  202.0790  146.5670 C   0  0  0  0  0  2  0  0  0  0  0  0
  161.4140  201.6730  148.0230 C   0  0  0  0  0  2  0  0  0  0  0  0
  161.0280  202.6520  150.3240 C   0  0  1  0  0  3  0  0  0  0  0  0
  161.3110  203.7800  151.2790 C   0  0  0  0  0  0  0  0  0  0  0  0
  162.4080  205.8700  151.8410 C   0  0  0  0  0  3  0  0  0  0  0  0
  160.6740  203.7860  152.5240 C   0  0  0  0  0  3  0  0  0  0  0  0
  162.1730  204.8320  150.9370 C   0  0  0  0  0  3  0  0  0  0  0  0
  161.7620  205.8780  153.0870 C   0  0  0  0  0  0  0  0  0  0  0  0
  160.9030  204.8290  153.4260 C   0  0  0  0  0  3  0  0  0  0  0  0
  162.0360  206.9470  154.0960 C   0  0  0  0  0  2  0  0  0  0  0  0
  160.8150  208.9270  155.0760 C   0  0  0  0  0  0  0  0  0  0  0  0
  160.8090  207.6160  154.5070 N   0  0  0  0  0  2  0  0  0  0  0  0
  161.9040  209.5280  155.2810 O   0  0  0  0  0  0  0  0  0  0  0  0
  159.1480  209.2350  156.7200 O   0  0  0  0  0  1  0  0  0  0  0  0
  159.5300  209.6020  155.4290 C   0  0  1  0  0  3  0  0  0  0  0  0
  159.1860  211.8290  154.2590 C   0  0  0  0  0  0  0  0  0  0  0  0
  159.6660  211.0510  155.3570 N   0  0  0  0  0  2  0  0  0  0  0  0
  158.6330  211.2690  153.2730 O   0  0  0  0  0  0  0  0  0  0  0  0
  158.5930  213.9970  155.1330 N   0  0  0  0  0  1  0  0  0  0  0  0
  159.3440  213.2120  154.2860 O   0  0  0  0  0  0  0  0  0  0  0  0
  159.5670  202.1990  150.4070 C   0  0  0  0  0  2  0  0  0  0  0  0
  157.9240  200.9860  149.0020 C   0  0  0  0  0  1  0  0  0  0  0  0
  159.3030  200.9190  149.6280 C   0  0  0  0  0  2  0  0  0  0  0  0
  1 30  1  1  0  0  0
  1  6  1  0  0  0  0
  2  5  1  0  0  0  0
  3  4  2  0  0  0  0
  4  1  1  0  0  0  0
  4  2  1  0  0  0  0
  5  7  1  0  0  0  0
  6  7  2  0  0  0  0
  7  8  1  0  0  0  0
  8 10  1  0  0  0  0
 10  9  2  0  0  0  0
 10 11  1  0  0  0  0
 11 14  1  6  0  0  0
 11 13  1  0  0  0  0
 13 12  1  0  0  0  0
 15 14  1  0  0  0  0
 16 18  1  0  0  0  0
 18 15  1  6  0  0  0
 18 17  1  0  0  0  0
 19 17  1  0  0  0  0
 20 19  1  0  0  0  0
 21 22  1  6  0  0  0
 21 20  1  0  0  0  0
 21 16  1  0  0  0  0
 23 28  1  6  0  0  0
 23 25  1  0  0  0  0
 23 26  1  0  0  0  0
 24 22  1  0  0  0  0
 25 27  1  0  0  0  0
 26 24  1  0  0  0  0
 27 24  1  0  0  0  0
 29 28  1  0  0  0  0
 31 32  1  0  0  0  0
 32 36  1  1  0  0  0
 33 30  1  6  0  0  0
 33 34  1  0  0  0  0
 33 31  1  0  0  0  0
 34 35  1  0  0  0  0
 35 32  1  0  0  0  0
 36 54  1  6  0  0  0
 36 37  1  0  0  0  0
 37 39  1  0  0  0  0
 38 41  2  0  0  0  0
 39 42  2  0  0  0  0
 40 37  2  0  0  0  0
 40 38  1  0  0  0  0
 41 42  1  0  0  0  0
 41 43  1  0  0  0  0
 43 45  1  0  0  0  0
 44 46  2  0  0  0  0
 44 48  1  0  0  0  0
 45 44  1  0  0  0  0
 48 47  1  1  0  0  0
 49 53  1  0  0  0  0
 49 50  1  0  0  0  0
 50 48  1  0  0  0  0
 51 49  2  0  0  0  0
 53 52  1  0  0  0  0
 55 56  1  0  0  0  0
 56 54  1  0  0  0  0
M  END
>  <MODEL>
5

>  <REMARK>
 VINA RESULT:      -3.8      2.549      8.060
  Name = 
  21 active torsions:
  status: ('A' for Active; 'I' for Inactive)
    1  A    between atoms: C_1  and  C_11
    2  A    between atoms: C_2  and  N_19
    3  A    between atoms: C_2  and  C_54
    4  A    between atoms: C_4  and  C_14
    5  A    between atoms: C_7  and  C_11
    6  A    between atoms: C_8  and  C_10
    7  A    between atoms: C_11  and  C_17
    8  A    between atoms: C_14  and  C_47
    9  A    between atoms: N_15  and  C_30
   10  A    between atoms: N_15  and  C_42
   11  A    between atoms: C_17  and  C_25
   12  A    between atoms: C_20  and  O_41
   13  A    between atoms: C_24  and  N_27
   14  A    between atoms: C_24  and  C_33
   15  A    between atoms: C_26  and  C_50
   16  A    between atoms: N_34  and  C_39
   17  A    between atoms: C_35  and  C_50
   18  A    between atoms: C_35  and  C_56
   19  A    between atoms: C_39  and  C_43
   20  A    between atoms: C_42  and  C_56
   21  A    between atoms: O_55  and  C_56
                            x       y       z     vdW  Elec       q    Type
                         _______ _______ _______ _____ _____    ______ ____

>  <TORSDO>
F 21

$$$$
=
 OpenBabel11052409533D

 56 60  0  0  1  0  0  0  0  0999 V2000
  160.4950  203.4350  149.8630 C   0  0  2  0  0  3  0  0  0  0  0  0
  161.4950  201.7460  148.2680 N   0  0  0  0  0  2  0  0  0  0  0  0
  159.9420  201.1050  149.8830 O   0  0  0  0  0  0  0  0  0  0  0  0
  160.6120  202.0300  149.3560 C   0  0  0  0  0  0  0  0  0  0  0  0
  162.3710  202.7930  147.7500 C   0  0  0  0  0  2  0  0  0  0  0  0
  160.8190  204.4140  148.7620 C   0  0  0  0  0  3  0  0  0  0  0  0
  161.6740  204.1300  147.7720 C   0  0  0  0  0  0  0  0  0  0  0  0
  161.9760  205.1560  146.8160 N   0  0  0  0  0  2  0  0  0  0  0  0
  163.6250  204.2790  145.3010 C   0  0  0  0  0  2  0  0  0  0  0  0
  162.5180  204.9900  145.4960 C   0  0  0  0  0  0  0  0  0  0  0  0
  161.6730  205.3580  144.2970 C   0  0  1  0  0  3  0  0  0  0  0  0
  159.4360  205.4720  144.8360 C   0  0  0  0  0  1  0  0  0  0  0  0
  160.5990  206.2300  144.6050 O   0  0  0  0  0  0  0  0  0  0  0  0
  162.4830  205.8020  143.0730 C   0  0  0  0  0  2  0  0  0  0  0  0
  161.5640  206.3290  141.9840 C   0  0  0  0  0  2  0  0  0  0  0  0
  162.0070  208.2680  140.4730 C   0  0  0  0  0  2  0  0  0  0  0  0
  162.2000  205.8590  139.6090 C   0  0  0  0  0  2  0  0  0  0  0  0
  162.3800  206.8150  140.8000 C   0  0  2  0  0  3  0  0  0  0  0  0
  162.4900  206.5640  138.2880 C   0  0  0  0  0  2  0  0  0  0  0  0
  161.5200  207.7280  138.0510 C   0  0  0  0  0  2  0  0  0  0  0  0
  160.9780  208.3520  139.3440 C   0  0  2  0  0  3  0  0  0  0  0  0
  160.5880  209.7970  139.0840 C   0  0  0  0  0  2  0  0  0  0  0  0
  161.1590  212.6450  141.1410 C   0  0  1  0  0  3  0  0  0  0  0  0
  160.4100  210.5080  140.3410 N   0  0  0  0  0  0  0  0  0  0  0  0
  159.6630  212.6970  140.9440 C   0  0  0  0  0  2  0  0  0  0  0  0
  161.5980  211.3240  140.5370 C   0  0  0  0  0  2  0  0  0  0  0  0
  159.3240  211.4540  140.1550 C   0  0  0  0  0  2  0  0  0  0  0  0
  161.8110  213.8040  140.4090 C   0  0  0  0  0  2  0  0  0  0  0  0
  162.9700  214.3560  141.2170 C   0  0  0  0  0  1  0  0  0  0  0  0
  161.4330  203.6340  151.0470 C   0  0  0  0  0  2  0  0  0  0  0  0
  162.5510  205.8330  152.2620 S   0  0  0  0  0  0  0  0  0  0  0  0
  161.4920  207.2940  152.4320 C   0  0  2  0  0  3  0  0  0  0  0  0
  161.0680  204.8830  151.8330 C   0  0  1  0  0  3  0  0  0  0  0  0
  160.1610  205.7710  151.0010 C   0  0  0  0  0  2  0  0  0  0  0  0
  160.4750  207.2280  151.3050 C   0  0  0  0  0  2  0  0  0  0  0  0
  162.3190  208.5880  152.3770 C   0  0  1  0  0  3  0  0  0  0  0  0
  162.1690  209.3530  151.0900 C   0  0  0  0  0  0  0  0  0  0  0  0
  162.1220  209.4570  148.6660 C   0  0  0  0  0  3  0  0  0  0  0  0
  161.8870  210.7230  151.1480 C   0  0  0  0  0  3  0  0  0  0  0  0
  162.2770  208.7210  149.8430 C   0  0  0  0  0  3  0  0  0  0  0  0
  161.8320  210.8290  148.7270 C   0  0  0  0  0  0  0  0  0  0  0  0
  161.7250  211.4570  149.9700 C   0  0  0  0  0  3  0  0  0  0  0  0
  161.7150  211.6520  147.4840 C   0  0  0  0  0  2  0  0  0  0  0  0
  159.6580  213.0600  147.0810 C   0  0  0  0  0  0  0  0  0  0  0  0
  160.9230  212.8530  147.7150 N   0  0  0  0  0  2  0  0  0  0  0  0
  159.2120  212.2160  146.2580 O   0  0  0  0  0  0  0  0  0  0  0  0
  157.6020  214.1790  146.7730 O   0  0  0  0  0  1  0  0  0  0  0  0
  158.8490  214.2770  147.3910 C   0  0  1  0  0  3  0  0  0  0  0  0
  157.6760  213.7140  149.5720 C   0  0  0  0  0  0  0  0  0  0  0  0
  158.6670  214.4280  148.8290 N   0  0  0  0  0  2  0  0  0  0  0  0
  156.8860  212.9230  148.9870 O   0  0  0  0  0  0  0  0  0  0  0  0
  158.7090  213.8630  151.7460 N   0  0  0  0  0  1  0  0  0  0  0  0
  157.5870  213.9100  150.9470 O   0  0  0  0  0  0  0  0  0  0  0  0
  162.1050  209.4900  153.5960 C   0  0  0  0  0  2  0  0  0  0  0  0
  160.3940  209.4110  155.3880 C   0  0  0  0  0  1  0  0  0  0  0  0
  160.6330  209.7010  153.9190 C   0  0  0  0  0  2  0  0  0  0  0  0
  1 30  1  1  0  0  0
  2  4  1  0  0  0  0
  4  1  1  0  0  0  0
  4  3  2  0  0  0  0
  5  7  1  0  0  0  0
  5  2  1  0  0  0  0
  6  1  1  0  0  0  0
  7  6  2  0  0  0  0
  8  7  1  0  0  0  0
  9 10  2  0  0  0  0
 10  8  1  0  0  0  0
 11 14  1  6  0  0  0
 11 13  1  0  0  0  0
 11 10  1  0  0  0  0
 13 12  1  0  0  0  0
 15 14  1  0  0  0  0
 16 18  1  0  0  0  0
 17 18  1  0  0  0  0
 18 15  1  1  0  0  0
 19 17  1  0  0  0  0
 20 19  1  0  0  0  0
 20 21  1  0  0  0  0
 21 22  1  6  0  0  0
 21 16  1  0  0  0  0
 22 24  1  0  0  0  0
 23 28  1  6  0  0  0
 24 26  1  0  0  0  0
 25 23  1  0  0  0  0
 26 23  1  0  0  0  0
 27 24  1  0  0  0  0
 27 25  1  0  0  0  0
 28 29  1  0  0  0  0
 31 32  1  0  0  0  0
 32 36  1  6  0  0  0
 33 30  1  6  0  0  0
 33 31  1  0  0  0  0
 34 35  1  0  0  0  0
 34 33  1  0  0  0  0
 35 32  1  0  0  0  0
 36 54  1  1  0  0  0
 37 39  1  0  0  0  0
 37 36  1  0  0  0  0
 38 41  2  0  0  0  0
 38 40  1  0  0  0  0
 40 37  2  0  0  0  0
 41 42  1  0  0  0  0
 42 39  2  0  0  0  0
 43 45  1  0  0  0  0
 43 41  1  0  0  0  0
 44 48  1  0  0  0  0
 44 45  1  0  0  0  0
 46 44  2  0  0  0  0
 48 47  1  6  0  0  0
 48 50  1  0  0  0  0
 49 53  1  0  0  0  0
 50 49  1  0  0  0  0
 51 49  2  0  0  0  0
 53 52  1  0  0  0  0
 54 56  1  0  0  0  0
 56 55  1  0  0  0  0
M  END
>  <MODEL>
6

>  <REMARK>
 VINA RESULT:      -3.7      2.588      9.073
  Name = 
  21 active torsions:
  status: ('A' for Active; 'I' for Inactive)
    1  A    between atoms: C_1  and  C_11
    2  A    between atoms: C_2  and  N_19
    3  A    between atoms: C_2  and  C_54
    4  A    between atoms: C_4  and  C_14
    5  A    between atoms: C_7  and  C_11
    6  A    between atoms: C_8  and  C_10
    7  A    between atoms: C_11  and  C_17
    8  A    between atoms: C_14  and  C_47
    9  A    between atoms: N_15  and  C_30
   10  A    between atoms: N_15  and  C_42
   11  A    between atoms: C_17  and  C_25
   12  A    between atoms: C_20  and  O_41
   13  A    between atoms: C_24  and  N_27
   14  A    between atoms: C_24  and  C_33
   15  A    between atoms: C_26  and  C_50
   16  A    between atoms: N_34  and  C_39
   17  A    between atoms: C_35  and  C_50
   18  A    between atoms: C_35  and  C_56
   19  A    between atoms: C_39  and  C_43
   20  A    between atoms: C_42  and  C_56
   21  A    between atoms: O_55  and  C_56
                            x       y       z     vdW  Elec       q    Type
                         _______ _______ _______ _____ _____    ______ ____

>  <TORSDO>
F 21

$$$$
=
 OpenBabel11052409533D

 56 60  0  0  1  0  0  0  0  0999 V2000
  161.4670  209.4230  150.2520 C   0  0  2  0  0  3  0  0  0  0  0  0
  162.4800  210.4350  148.1670 N   0  0  0  0  0  2  0  0  0  0  0  0
  162.0750  208.1450  148.3200 O   0  0  0  0  0  0  0  0  0  0  0  0
  162.0170  209.2760  148.8660 C   0  0  0  0  0  0  0  0  0  0  0  0
  162.5380  211.7230  148.8530 C   0  0  0  0  0  2  0  0  0  0  0  0
  160.8960  210.8070  150.4420 C   0  0  0  0  0  3  0  0  0  0  0  0
  161.3710  211.8780  149.7950 C   0  0  0  0  0  0  0  0  0  0  0  0
  160.8140  213.1630  150.1040 N   0  0  0  0  0  2  0  0  0  0  0  0
  160.5620  214.4530  148.0890 C   0  0  0  0  0  2  0  0  0  0  0  0
  160.0500  214.0160  149.2360 C   0  0  0  0  0  0  0  0  0  0  0  0
  158.5640  214.1690  149.4700 C   0  0  1  0  0  3  0  0  0  0  0  0
  156.7990  213.0870  148.4600 C   0  0  0  0  0  1  0  0  0  0  0  0
  157.7880  214.0720  148.2870 O   0  0  0  0  0  0  0  0  0  0  0  0
  158.0200  213.3160  150.6230 C   0  0  0  0  0  2  0  0  0  0  0  0
  157.1410  214.1500  151.5380 C   0  0  0  0  0  2  0  0  0  0  0  0
  158.9600  213.3000  153.0240 C   0  0  0  0  0  2  0  0  0  0  0  0
  156.7230  214.0860  154.0060 C   0  0  0  0  0  2  0  0  0  0  0  0
  157.7830  214.2780  152.9080 C   0  0  2  0  0  3  0  0  0  0  0  0
  157.3610  213.6320  155.3150 C   0  0  0  0  0  2  0  0  0  0  0  0
  158.0600  212.2760  155.1550 C   0  0  0  0  0  2  0  0  0  0  0  0
  158.5560  212.0020  153.7280 C   0  0  2  0  0  3  0  0  0  0  0  0
  159.7250  211.0340  153.7760 C   0  0  0  0  0  2  0  0  0  0  0  0
  160.9480  209.3140  156.6430 C   0  0  1  0  0  3  0  0  0  0  0  0
  160.3400  211.0470  155.0950 N   0  0  0  0  0  0  0  0  0  0  0  0
  162.2070  209.9370  156.0910 C   0  0  0  0  0  2  0  0  0  0  0  0
  159.8160  209.8980  155.8170 C   0  0  0  0  0  2  0  0  0  0  0  0
  161.7550  210.7740  154.9180 C   0  0  0  0  0  2  0  0  0  0  0  0
  161.0050  207.8070  156.4690 C   0  0  0  0  0  2  0  0  0  0  0  0
  159.8700  207.3320  155.5830 C   0  0  0  0  0  1  0  0  0  0  0  0
  162.5650  209.1530  151.2730 C   0  0  0  0  0  2  0  0  0  0  0  0
  160.7220  207.1310  151.5440 S   0  0  0  0  0  0  0  0  0  0  0  0
  161.3530  205.5240  152.0990 C   0  0  2  0  0  3  0  0  0  0  0  0
  162.3150  207.8530  152.0190 C   0  0  1  0  0  3  0  0  0  0  0  0
  163.4060  206.8510  151.6900 C   0  0  0  0  0  2  0  0  0  0  0  0
  162.8060  205.4530  151.6600 C   0  0  0  0  0  2  0  0  0  0  0  0
  160.5250  204.3700  151.5130 C   0  0  1  0  0  3  0  0  0  0  0  0
  160.8470  204.0550  150.0770 C   0  0  0  0  0  0  0  0  0  0  0  0
  161.4300  204.7430  147.8240 C   0  0  0  0  0  3  0  0  0  0  0  0
  160.8990  202.7160  149.6750 C   0  0  0  0  0  3  0  0  0  0  0  0
  161.1230  205.0680  149.1480 C   0  0  0  0  0  3  0  0  0  0  0  0
  161.4880  203.3980  147.4260 C   0  0  0  0  0  0  0  0  0  0  0  0
  161.2130  202.3900  148.3530 C   0  0  0  0  0  3  0  0  0  0  0  0
  161.7600  203.0230  146.0040 C   0  0  0  0  0  2  0  0  0  0  0  0
  160.9740  204.6500  144.2420 C   0  0  0  0  0  0  0  0  0  0  0  0
  161.9620  204.2020  145.1730 N   0  0  0  0  0  2  0  0  0  0  0  0
  159.9060  204.0010  144.0820 O   0  0  0  0  0  0  0  0  0  0  0  0
  161.9140  206.8170  144.2190 O   0  0  0  0  0  1  0  0  0  0  0  0
  161.1940  205.8990  143.4520 C   0  0  1  0  0  3  0  0  0  0  0  0
  162.1140  206.5800  141.1850 C   0  0  0  0  0  0  0  0  0  0  0  0
  161.9250  205.6160  142.2230 N   0  0  0  0  0  2  0  0  0  0  0  0
  161.6190  207.7360  141.2890 O   0  0  0  0  0  0  0  0  0  0  0  0
  162.2730  206.2630  138.8000 N   0  0  0  0  0  1  0  0  0  0  0  0
  162.8430  206.2250  140.0530 O   0  0  0  0  0  0  0  0  0  0  0  0
  160.5500  203.1110  152.3840 C   0  0  0  0  0  2  0  0  0  0  0  0
  162.4880  201.5860  152.1390 C   0  0  0  0  0  1  0  0  0  0  0  0
  161.0890  201.8950  151.6460 C   0  0  0  0  0  2  0  0  0  0  0  0
  1  6  1  0  0  0  0
  1 30  1  1  0  0  0
  2  5  1  0  0  0  0
  2  4  1  0  0  0  0
  3  4  2  0  0  0  0
  4  1  1  0  0  0  0
  5  7  1  0  0  0  0
  7  8  1  0  0  0  0
  7  6  2  0  0  0  0
  9 10  2  0  0  0  0
 10 11  1  0  0  0  0
 10  8  1  0  0  0  0
 11 14  1  1  0  0  0
 13 12  1  0  0  0  0
 13 11  1  0  0  0  0
 14 15  1  0  0  0  0
 16 21  1  0  0  0  0
 17 19  1  0  0  0  0
 18 15  1  6  0  0  0
 18 16  1  0  0  0  0
 18 17  1  0  0  0  0
 20 19  1  0  0  0  0
 21 22  1  1  0  0  0
 21 20  1  0  0  0  0
 22 24  1  0  0  0  0
 23 28  1  6  0  0  0
 24 26  1  0  0  0  0
 25 23  1  0  0  0  0
 26 23  1  0  0  0  0
 27 24  1  0  0  0  0
 27 25  1  0  0  0  0
 29 28  1  0  0  0  0
 31 33  1  0  0  0  0
 31 32  1  0  0  0  0
 32 36  1  6  0  0  0
 33 30  1  6  0  0  0
 34 33  1  0  0  0  0
 35 34  1  0  0  0  0
 35 32  1  0  0  0  0
 36 54  1  1  0  0  0
 37 36  1  0  0  0  0
 38 40  1  0  0  0  0
 39 37  1  0  0  0  0
 40 37  2  0  0  0  0
 41 38  2  0  0  0  0
 41 42  1  0  0  0  0
 42 39  2  0  0  0  0
 43 41  1  0  0  0  0
 44 45  1  0  0  0  0
 45 43  1  0  0  0  0
 46 44  2  0  0  0  0
 48 47  1  1  0  0  0
 48 44  1  0  0  0  0
 49 51  2  0  0  0  0
 49 50  1  0  0  0  0
 50 48  1  0  0  0  0
 52 53  1  0  0  0  0
 53 49  1  0  0  0  0
 56 55  1  0  0  0  0
 56 54  1  0  0  0  0
M  END
>  <MODEL>
7

>  <REMARK>
 VINA RESULT:      -3.0      2.915      7.155
  Name = 
  21 active torsions:
  status: ('A' for Active; 'I' for Inactive)
    1  A    between atoms: C_1  and  C_11
    2  A    between atoms: C_2  and  N_19
    3  A    between atoms: C_2  and  C_54
    4  A    between atoms: C_4  and  C_14
    5  A    between atoms: C_7  and  C_11
    6  A    between atoms: C_8  and  C_10
    7  A    between atoms: C_11  and  C_17
    8  A    between atoms: C_14  and  C_47
    9  A    between atoms: N_15  and  C_30
   10  A    between atoms: N_15  and  C_42
   11  A    between atoms: C_17  and  C_25
   12  A    between atoms: C_20  and  O_41
   13  A    between atoms: C_24  and  N_27
   14  A    between atoms: C_24  and  C_33
   15  A    between atoms: C_26  and  C_50
   16  A    between atoms: N_34  and  C_39
   17  A    between atoms: C_35  and  C_50
   18  A    between atoms: C_35  and  C_56
   19  A    between atoms: C_39  and  C_43
   20  A    between atoms: C_42  and  C_56
   21  A    between atoms: O_55  and  C_56
                            x       y       z     vdW  Elec       q    Type
                         _______ _______ _______ _____ _____    ______ ____

>  <TORSDO>
F 21

$$$$
