=
 OpenBabel11042420403D

 45 50  0  0  1  0  0  0  0  0999 V2000
  158.5320  213.7390  152.0550 C   0  0  0  0  0  2  0  0  0  0  0  0
  157.6690  214.1780  153.0710 C   0  0  0  0  0  3  0  0  0  0  0  0
  160.1480  211.8120  152.2740 C   0  0  0  0  0  0  0  0  0  0  0  0
  159.4500  211.4770  154.4180 N   0  0  0  0  0  0  0  0  0  0  0  0
  160.2980  211.0380  153.4420 C   0  0  0  0  0  0  0  0  0  0  0  0
  159.2010  212.7060  152.5730 N   0  0  0  0  0  0  0  0  0  0  0  0
  157.8500  213.3730  154.2140 C   0  0  0  0  0  3  0  0  0  0  0  0
  158.8200  212.4940  153.8020 C   0  0  0  0  0  0  0  0  0  0  0  0
  162.1590  211.5420  148.5570 C   0  0  0  0  0  3  0  0  0  0  0  0
  160.5360  212.5690  149.9620 N   0  0  0  0  0  0  0  0  0  0  0  0
  161.1660  212.5040  148.7600 C   0  0  0  0  0  0  0  0  0  0  0  0
  161.8090  210.7770  150.7870 N   0  0  0  0  0  0  0  0  0  0  0  0
  162.4670  210.6740  149.6040 C   0  0  0  0  0  3  0  0  0  0  0  0
  160.8470  211.7200  150.9760 C   0  0  0  0  0  0  0  0  0  0  0  0
  159.7440  214.1360  147.7910 O   0  0  0  0  0  0  0  0  0  0  0  0
  160.7920  213.4410  147.6900 C   0  0  0  0  0  0  0  0  0  0  0  0
  161.6280  213.5660  146.5360 N   0  0  0  0  0  2  0  0  0  0  0  0
  161.3100  214.4530  145.4290 C   0  0  0  0  0  2  0  0  0  0  0  0
  162.3830  214.4230  144.4510 N   0  0  0  0  0  2  0  0  0  0  0  0
  162.4450  213.1100  143.9630 N   0  0  0  0  0  2  0  0  0  0  0  0
  161.1490  212.8120  143.3770 C   0  0  0  0  0  2  0  0  0  0  0  0
  160.6820  211.0260  140.2170 O   0  0  0  0  0  0  0  0  0  0  0  0
  161.3070  211.8530  142.2950 N   0  0  0  0  0  2  0  0  0  0  0  0
  160.4960  211.8830  141.1200 C   0  0  0  0  0  0  0  0  0  0  0  0
  159.4310  212.9110  140.9400 C   0  0  0  0  0  1  0  0  0  0  0  0
  161.2360  209.8880  153.6700 C   0  0  2  0  0  3  0  0  0  0  0  0
  161.4070  207.4070  153.6390 C   0  0  1  0  0  3  0  0  0  0  0  0
  161.7850  207.9300  152.2510 C   0  0  2  0  0  3  0  0  0  0  0  0
  160.6930  208.6080  153.0510 C   0  0  2  0  0  3  0  0  0  0  0  0
  160.5660  206.2920  153.5780 O   0  0  0  0  0  1  0  0  0  0  0  0
  161.1620  207.1540  151.0980 C   0  0  0  0  0  2  0  0  0  0  0  0
  162.1580  206.7510  150.2050 O   0  0  0  0  0  0  0  0  0  0  0  0
  161.4040  206.6200  148.6890 P   0  0  2  0  0  0  0  0  0  0  0  0
  161.4510  207.9560  147.9790 O   0  0  0  0  0  0  0  0  0  0  0  0
  159.7880  206.1850  148.9270 O   0  0  0  0  0  1  0  0  0  0  0  0
  161.4710  204.0560  147.5660 C   0  0  0  0  0  2  0  0  0  0  0  0
  162.7620  205.9000  146.4540 O   0  0  0  0  0  0  0  0  0  0  0  0
  161.6500  203.4370  146.1900 C   0  0  1  0  0  3  0  0  0  0  0  0
  160.8270  202.3180  146.0740 O   0  0  0  0  0  1  0  0  0  0  0  0
  161.9460  205.8060  145.2800 C   0  0  2  0  0  3  0  0  0  0  0  0
  160.4500  205.5730  145.4670 C   0  0  0  0  0  2  0  0  0  0  0  0
  161.3530  204.4150  145.0460 C   0  0  2  0  0  3  0  0  0  0  0  0
  162.2490  205.3650  147.6680 C   0  0  1  0  0  3  0  0  0  0  0  0
  162.5780  210.5130  155.3160 C   0  0  0  0  0  1  0  0  0  0  0  0
  161.4720  209.7100  155.0350 O   0  0  0  0  0  0  0  0  0  0  0  0
  1  6  1  0  0  0  0
  1  2  1  0  0  0  0
  2  7  2  0  0  0  0
  3  6  1  0  0  0  0
  3  5  2  0  0  0  0
  5 26  1  0  0  0  0
  5  4  1  0  0  0  0
  6  8  1  0  0  0  0
  8  7  1  0  0  0  0
  8  4  2  0  0  0  0
  9 11  2  0  0  0  0
  9 13  1  0  0  0  0
 10 14  2  0  0  0  0
 11 10  1  0  0  0  0
 12 14  1  0  0  0  0
 13 12  2  0  0  0  0
 14  3  1  0  0  0  0
 16 15  2  0  0  0  0
 16 11  1  0  0  0  0
 17 16  1  0  0  0  0
 18 17  1  0  0  0  0
 19 18  1  0  0  0  0
 20 19  1  0  0  0  0
 21 20  1  0  0  0  0
 22 24  2  0  0  0  0
 23 21  1  0  0  0  0
 24 23  1  0  0  0  0
 25 24  1  0  0  0  0
 26 45  1  1  0  0  0
 27 30  1  6  0  0  0
 28 31  1  6  0  0  0
 28 29  1  0  0  0  0
 28 27  1  0  0  0  0
 29 27  1  0  0  0  0
 29 26  1  1  0  0  0
 32 31  1  0  0  0  0
 33 34  2  6  0  0  0
 33 35  1  0  0  0  0
 33 32  1  0  0  0  0
 36 43  1  0  0  0  0
 37 43  1  0  0  0  0
 38 39  1  1  0  0  0
 38 36  1  0  0  0  0
 40 41  1  1  0  0  0
 40 37  1  0  0  0  0
 42 40  1  0  0  0  0
 42 41  1  1  0  0  0
 42 38  1  0  0  0  0
 43 33  1  6  0  0  0
 45 44  1  0  0  0  0
M  END
>  <MODEL>
1

>  <REMARK>
 VINA RESULT:      -6.4      0.000      0.000
  Name = 
  14 active torsions:
  status: ('A' for Active; 'I' for Inactive)
    1  A    between atoms: N_2  and  C_34
    2  A    between atoms: N_2  and  N_37
    3  A    between atoms: P_6  and  O_21
    4  A    between atoms: P_6  and  C_45
    5  A    between atoms: N_7  and  C_34
    6  A    between atoms: C_11  and  O_21
    7  A    between atoms: C_11  and  C_22
    8  A    between atoms: C_12  and  C_29
    9  A    between atoms: C_20  and  C_36
   10  A    between atoms: O_26  and  C_33
   11  A    between atoms: C_27  and  C_33
   12  A    between atoms: C_30  and  C_33
   13  A    between atoms: N_35  and  C_39
   14  A    between atoms: N_37  and  C_39
                            x       y       z     vdW  Elec       q    Type
                         _______ _______ _______ _____ _____    ______ ____

>  <TORSDO>
F 14

$$$$
=
 OpenBabel11042420403D

 45 50  0  0  1  0  0  0  0  0999 V2000
  160.4000  209.5070  155.6530 C   0  0  0  0  0  2  0  0  0  0  0  0
  160.3270  208.6670  156.7760 C   0  0  0  0  0  3  0  0  0  0  0  0
  160.7560  208.7140  153.2840 C   0  0  0  0  0  0  0  0  0  0  0  0
  160.8310  206.5590  154.0210 N   0  0  0  0  0  0  0  0  0  0  0  0
  160.9070  207.3610  152.9190 C   0  0  0  0  0  0  0  0  0  0  0  0
  160.5850  208.6960  154.6090 N   0  0  0  0  0  0  0  0  0  0  0  0
  160.4780  207.3270  156.3620 C   0  0  0  0  0  3  0  0  0  0  0  0
  160.6330  207.4550  155.0050 C   0  0  0  0  0  0  0  0  0  0  0  0
  160.8180  212.2030  150.8840 C   0  0  0  0  0  3  0  0  0  0  0  0
  159.8580  210.9160  152.6410 N   0  0  0  0  0  0  0  0  0  0  0  0
  159.8560  212.0450  151.8850 C   0  0  0  0  0  0  0  0  0  0  0  0
  161.7110  210.0720  151.4720 N   0  0  0  0  0  0  0  0  0  0  0  0
  161.7500  211.1840  150.6920 C   0  0  0  0  0  3  0  0  0  0  0  0
  160.7740  209.9310  152.4480 C   0  0  0  0  0  0  0  0  0  0  0  0
  158.8910  213.7870  153.1730 O   0  0  0  0  0  0  0  0  0  0  0  0
  158.8430  213.0830  152.1290 C   0  0  0  0  0  0  0  0  0  0  0  0
  157.8030  213.2930  151.1690 N   0  0  0  0  0  2  0  0  0  0  0  0
  156.7530  214.2820  151.3540 C   0  0  0  0  0  2  0  0  0  0  0  0
  155.9520  214.3790  150.1460 N   0  0  0  0  0  2  0  0  0  0  0  0
  156.4330  213.4020  149.2650 N   0  0  0  0  0  2  0  0  0  0  0  0
  156.6450  214.0520  147.9820 C   0  0  0  0  0  2  0  0  0  0  0  0
  160.1470  214.1580  146.9270 O   0  0  0  0  0  0  0  0  0  0  0  0
  158.0380  214.4470  147.8560 N   0  0  0  0  0  2  0  0  0  0  0  0
  158.9530  213.7660  146.9950 C   0  0  0  0  0  0  0  0  0  0  0  0
  158.5210  212.6000  146.1740 C   0  0  0  0  0  1  0  0  0  0  0  0
  161.1340  206.7970  151.5470 C   0  0  2  0  0  3  0  0  0  0  0  0
  161.4120  204.4210  152.2250 C   0  0  1  0  0  3  0  0  0  0  0  0
  161.5480  204.5030  150.7030 C   0  0  2  0  0  3  0  0  0  0  0  0
  160.5620  205.3920  151.4310 C   0  0  2  0  0  3  0  0  0  0  0  0
  160.6240  203.3410  152.6330 O   0  0  0  0  0  1  0  0  0  0  0  0
  160.7900  203.4180  149.9470 C   0  0  0  0  0  2  0  0  0  0  0  0
  161.6900  202.4710  149.4500 O   0  0  0  0  0  0  0  0  0  0  0  0
  161.1040  202.0240  147.9200 P   0  0  2  0  0  0  0  0  0  0  0  0
  159.6210  202.3190  147.8370 O   0  0  0  0  0  1  0  0  0  0  0  0
  161.3420  200.3630  147.7160 O   0  0  0  0  0  0  0  0  0  0  0  0
  161.0840  203.2910  145.4230 C   0  0  0  0  0  2  0  0  0  0  0  0
  162.7800  204.0050  147.1310 O   0  0  0  0  0  0  0  0  0  0  0  0
  161.4560  204.6470  144.8490 C   0  0  1  0  0  3  0  0  0  0  0  0
  160.5440  204.9960  143.8550 O   0  0  0  0  0  1  0  0  0  0  0  0
  162.2080  205.3160  147.1980 C   0  0  2  0  0  3  0  0  0  0  0  0
  160.6870  205.4350  147.1550 C   0  0  0  0  0  2  0  0  0  0  0  0
  161.5100  205.7550  145.9090 C   0  0  2  0  0  3  0  0  0  0  0  0
  161.9770  202.9510  146.6130 C   0  0  1  0  0  3  0  0  0  0  0  0
  162.5950  207.5620  150.0700 C   0  0  0  0  0  1  0  0  0  0  0  0
  162.4950  206.7990  151.2340 O   0  0  0  0  0  0  0  0  0  0  0  0
  1  2  1  0  0  0  0
  3  6  1  0  0  0  0
  4  8  2  0  0  0  0
  5  3  2  0  0  0  0
  5  4  1  0  0  0  0
  6  8  1  0  0  0  0
  6  1  1  0  0  0  0
  7  2  2  0  0  0  0
  8  7  1  0  0  0  0
  9 11  2  0  0  0  0
 11 16  1  0  0  0  0
 11 10  1  0  0  0  0
 12 14  1  0  0  0  0
 13  9  1  0  0  0  0
 13 12  2  0  0  0  0
 14 10  2  0  0  0  0
 14  3  1  0  0  0  0
 16 15  2  0  0  0  0
 17 18  1  0  0  0  0
 17 16  1  0  0  0  0
 19 18  1  0  0  0  0
 20 19  1  0  0  0  0
 21 20  1  0  0  0  0
 22 24  2  0  0  0  0
 23 21  1  0  0  0  0
 24 23  1  0  0  0  0
 25 24  1  0  0  0  0
 26 45  1  1  0  0  0
 26  5  1  0  0  0  0
 27 30  1  6  0  0  0
 28 31  1  6  0  0  0
 28 29  1  0  0  0  0
 28 27  1  0  0  0  0
 29 26  1  1  0  0  0
 29 27  1  0  0  0  0
 32 31  1  0  0  0  0
 33 35  2  6  0  0  0
 33 32  1  0  0  0  0
 34 33  1  0  0  0  0
 36 43  1  0  0  0  0
 37 40  1  0  0  0  0
 38 39  1  6  0  0  0
 38 36  1  0  0  0  0
 38 42  1  0  0  0  0
 40 41  1  1  0  0  0
 42 41  1  1  0  0  0
 42 40  1  0  0  0  0
 43 37  1  0  0  0  0
 43 33  1  1  0  0  0
 44 45  1  0  0  0  0
M  END
>  <MODEL>
2

>  <REMARK>
 VINA RESULT:      -6.0      3.047      4.869
  Name = 
  14 active torsions:
  status: ('A' for Active; 'I' for Inactive)
    1  A    between atoms: N_2  and  C_34
    2  A    between atoms: N_2  and  N_37
    3  A    between atoms: P_6  and  O_21
    4  A    between atoms: P_6  and  C_45
    5  A    between atoms: N_7  and  C_34
    6  A    between atoms: C_11  and  O_21
    7  A    between atoms: C_11  and  C_22
    8  A    between atoms: C_12  and  C_29
    9  A    between atoms: C_20  and  C_36
   10  A    between atoms: O_26  and  C_33
   11  A    between atoms: C_27  and  C_33
   12  A    between atoms: C_30  and  C_33
   13  A    between atoms: N_35  and  C_39
   14  A    between atoms: N_37  and  C_39
                            x       y       z     vdW  Elec       q    Type
                         _______ _______ _______ _____ _____    ______ ____

>  <TORSDO>
F 14

$$$$
=
 OpenBabel11042420403D

 45 50  0  0  1  0  0  0  0  0999 V2000
  160.6790  209.8330  155.3720 C   0  0  0  0  0  2  0  0  0  0  0  0
  160.6190  209.0450  156.5320 C   0  0  0  0  0  3  0  0  0  0  0  0
  160.8960  208.9250  153.0270 C   0  0  0  0  0  0  0  0  0  0  0  0
  160.9090  206.8020  153.8550 N   0  0  0  0  0  0  0  0  0  0  0  0
  160.9720  207.5530  152.7170 C   0  0  0  0  0  0  0  0  0  0  0  0
  160.7820  208.9710  154.3580 N   0  0  0  0  0  0  0  0  0  0  0  0
  160.6930  207.6830  156.1730 C   0  0  0  0  0  3  0  0  0  0  0  0
  160.7930  207.7470  154.8060 C   0  0  0  0  0  0  0  0  0  0  0  0
  161.0070  212.3030  150.4750 C   0  0  0  0  0  3  0  0  0  0  0  0
  160.0980  211.1570  152.3530 N   0  0  0  0  0  0  0  0  0  0  0  0
  160.1140  212.2520  151.5490 C   0  0  0  0  0  0  0  0  0  0  0  0
  161.8000  210.1420  151.0930 N   0  0  0  0  0  0  0  0  0  0  0  0
  161.8540  211.2160  150.2630 C   0  0  0  0  0  3  0  0  0  0  0  0
  160.9310  210.1040  152.1380 C   0  0  0  0  0  0  0  0  0  0  0  0
  159.0820  214.3140  150.9940 O   0  0  0  0  0  0  0  0  0  0  0  0
  159.1910  213.3650  151.8180 C   0  0  0  0  0  0  0  0  0  0  0  0
  158.4110  213.3620  153.0170 N   0  0  0  0  0  2  0  0  0  0  0  0
  157.4960  214.4390  153.3610 C   0  0  0  0  0  2  0  0  0  0  0  0
  156.2810  213.8880  153.9340 N   0  0  0  0  0  2  0  0  0  0  0  0
  156.1500  214.4460  155.2130 N   0  0  0  0  0  2  0  0  0  0  0  0
  156.4290  213.3880  156.1700 C   0  0  0  0  0  2  0  0  0  0  0  0
  155.1790  210.0420  155.3750 O   0  0  0  0  0  0  0  0  0  0  0  0
  155.5320  212.2670  155.9380 N   0  0  0  0  0  2  0  0  0  0  0  0
  156.0050  210.9730  155.5590 C   0  0  0  0  0  0  0  0  0  0  0  0
  157.4600  210.7030  155.3780 C   0  0  0  0  0  1  0  0  0  0  0  0
  161.1140  206.9220  151.3620 C   0  0  2  0  0  3  0  0  0  0  0  0
  161.3640  204.6140  152.2540 C   0  0  1  0  0  3  0  0  0  0  0  0
  161.5470  204.5620  150.7360 C   0  0  2  0  0  3  0  0  0  0  0  0
  160.5420  205.5120  151.3520 C   0  0  2  0  0  3  0  0  0  0  0  0
  160.5610  203.5740  152.7310 O   0  0  0  0  0  1  0  0  0  0  0  0
  160.8110  203.4160  150.0550 C   0  0  0  0  0  2  0  0  0  0  0  0
  161.7330  202.5110  149.5200 O   0  0  0  0  0  0  0  0  0  0  0  0
  161.0950  202.0190  148.0260 P   0  0  2  0  0  0  0  0  0  0  0  0
  159.6110  202.3150  147.9830 O   0  0  0  0  0  1  0  0  0  0  0  0
  161.3240  200.3520  147.8650 O   0  0  0  0  0  0  0  0  0  0  0  0
  160.9780  203.2680  145.5220 C   0  0  0  0  0  2  0  0  0  0  0  0
  162.7970  203.9290  147.1230 O   0  0  0  0  0  0  0  0  0  0  0  0
  161.3670  204.6050  144.9160 C   0  0  1  0  0  3  0  0  0  0  0  0
  160.4130  204.9820  143.9720 O   0  0  0  0  0  1  0  0  0  0  0  0
  162.2790  205.2610  147.2100 C   0  0  2  0  0  3  0  0  0  0  0  0
  160.7640  205.4380  147.2540 C   0  0  0  0  0  2  0  0  0  0  0  0
  161.5240  205.7180  145.9600 C   0  0  2  0  0  3  0  0  0  0  0  0
  161.9250  202.9030  146.6620 C   0  0  1  0  0  3  0  0  0  0  0  0
  162.4760  207.6200  149.7620 C   0  0  0  0  0  1  0  0  0  0  0  0
  162.4530  206.9100  150.9630 O   0  0  0  0  0  0  0  0  0  0  0  0
  1  2  1  0  0  0  0
  3  6  1  0  0  0  0
  4  8  2  0  0  0  0
  5  3  2  0  0  0  0
  5  4  1  0  0  0  0
  6  8  1  0  0  0  0
  6  1  1  0  0  0  0
  7  2  2  0  0  0  0
  8  7  1  0  0  0  0
  9 11  2  0  0  0  0
 11 16  1  0  0  0  0
 11 10  1  0  0  0  0
 12 14  1  0  0  0  0
 13  9  1  0  0  0  0
 13 12  2  0  0  0  0
 14 10  2  0  0  0  0
 14  3  1  0  0  0  0
 15 16  2  0  0  0  0
 16 17  1  0  0  0  0
 17 18  1  0  0  0  0
 18 19  1  0  0  0  0
 19 20  1  0  0  0  0
 20 21  1  0  0  0  0
 22 24  2  0  0  0  0
 23 21  1  0  0  0  0
 24 23  1  0  0  0  0
 25 24  1  0  0  0  0
 26 45  1  1  0  0  0
 26  5  1  0  0  0  0
 27 30  1  6  0  0  0
 28 31  1  6  0  0  0
 28 29  1  0  0  0  0
 28 27  1  0  0  0  0
 29 26  1  1  0  0  0
 29 27  1  0  0  0  0
 32 31  1  0  0  0  0
 33 35  2  6  0  0  0
 33 32  1  0  0  0  0
 34 33  1  0  0  0  0
 36 43  1  0  0  0  0
 37 40  1  0  0  0  0
 38 39  1  6  0  0  0
 38 36  1  0  0  0  0
 38 42  1  0  0  0  0
 40 41  1  1  0  0  0
 42 40  1  0  0  0  0
 42 41  1  1  0  0  0
 43 37  1  0  0  0  0
 43 33  1  1  0  0  0
 44 45  1  0  0  0  0
M  END
>  <MODEL>
3

>  <REMARK>
 VINA RESULT:      -5.9      3.846      6.841
  Name = 
  14 active torsions:
  status: ('A' for Active; 'I' for Inactive)
    1  A    between atoms: N_2  and  C_34
    2  A    between atoms: N_2  and  N_37
    3  A    between atoms: P_6  and  O_21
    4  A    between atoms: P_6  and  C_45
    5  A    between atoms: N_7  and  C_34
    6  A    between atoms: C_11  and  O_21
    7  A    between atoms: C_11  and  C_22
    8  A    between atoms: C_12  and  C_29
    9  A    between atoms: C_20  and  C_36
   10  A    between atoms: O_26  and  C_33
   11  A    between atoms: C_27  and  C_33
   12  A    between atoms: C_30  and  C_33
   13  A    between atoms: N_35  and  C_39
   14  A    between atoms: N_37  and  C_39
                            x       y       z     vdW  Elec       q    Type
                         _______ _______ _______ _____ _____    ______ ____

>  <TORSDO>
F 14

$$$$
=
 OpenBabel11042420403D

 45 50  0  0  1  0  0  0  0  0999 V2000
  161.7550  211.0140  149.8750 C   0  0  0  0  0  2  0  0  0  0  0  0
  162.1680  210.6830  148.5750 C   0  0  0  0  0  3  0  0  0  0  0  0
  161.3450  209.3450  151.7230 C   0  0  0  0  0  0  0  0  0  0  0  0
  161.9080  207.6490  150.3090 N   0  0  0  0  0  0  0  0  0  0  0  0
  161.5040  207.9520  151.5770 C   0  0  0  0  0  0  0  0  0  0  0  0
  161.6650  209.8550  150.5300 N   0  0  0  0  0  0  0  0  0  0  0  0
  162.3180  209.2840  148.4780 C   0  0  0  0  0  3  0  0  0  0  0  0
  161.9820  208.8660  149.7410 C   0  0  0  0  0  0  0  0  0  0  0  0
  160.1370  211.6080  155.0930 C   0  0  0  0  0  3  0  0  0  0  0  0
  159.6820  210.6930  152.9430 N   0  0  0  0  0  0  0  0  0  0  0  0
  159.2700  211.4230  154.0120 C   0  0  0  0  0  0  0  0  0  0  0  0
  161.7740  210.3140  153.9410 N   0  0  0  0  0  0  0  0  0  0  0  0
  161.4060  211.0340  155.0310 C   0  0  0  0  0  3  0  0  0  0  0  0
  160.9210  210.1360  152.8960 C   0  0  0  0  0  0  0  0  0  0  0  0
  156.9440  211.3550  154.4670 O   0  0  0  0  0  0  0  0  0  0  0  0
  157.9220  212.0110  154.0150 C   0  0  0  0  0  0  0  0  0  0  0  0
  157.7270  213.3350  153.5100 N   0  0  0  0  0  2  0  0  0  0  0  0
  156.4200  213.9700  153.4590 C   0  0  0  0  0  2  0  0  0  0  0  0
  156.1580  214.4470  152.1120 N   0  0  0  0  0  2  0  0  0  0  0  0
  157.3870  214.4450  151.4390 N   0  0  0  0  0  2  0  0  0  0  0  0
  157.3040  213.4280  150.4040 C   0  0  0  0  0  2  0  0  0  0  0  0
  160.0880  213.5100  148.0300 O   0  0  0  0  0  0  0  0  0  0  0  0
  158.6130  213.2310  149.8020 N   0  0  0  0  0  2  0  0  0  0  0  0
  158.9370  213.7110  148.4960 C   0  0  0  0  0  0  0  0  0  0  0  0
  157.9350  214.4460  147.6720 C   0  0  0  0  0  1  0  0  0  0  0  0
  161.2730  206.8870  152.6080 C   0  0  2  0  0  3  0  0  0  0  0  0
  161.2490  204.4000  152.6280 C   0  0  1  0  0  3  0  0  0  0  0  0
  161.7440  204.8620  151.2560 C   0  0  2  0  0  3  0  0  0  0  0  0
  160.6660  205.6400  151.9820 C   0  0  2  0  0  3  0  0  0  0  0  0
  160.3280  203.3530  152.5380 O   0  0  0  0  0  1  0  0  0  0  0  0
  161.1260  204.1130  150.0820 C   0  0  0  0  0  2  0  0  0  0  0  0
  162.0030  203.1190  149.6390 O   0  0  0  0  0  0  0  0  0  0  0  0
  161.2280  202.3570  148.3350 P   0  0  2  0  0  0  0  0  0  0  0  0
  159.7360  202.6010  148.4150 O   0  0  0  0  0  0  0  0  0  0  0  0
  161.5150  200.6940  148.4350 O   0  0  0  0  0  1  0  0  0  0  0  0
  160.7530  203.3780  145.7710 C   0  0  0  0  0  2  0  0  0  0  0  0
  162.9010  203.9660  146.9310 O   0  0  0  0  0  0  0  0  0  0  0  0
  161.1460  204.6000  144.9590 C   0  0  1  0  0  3  0  0  0  0  0  0
  160.0690  204.9980  144.1680 O   0  0  0  0  0  1  0  0  0  0  0  0
  162.5410  205.3520  146.9630 C   0  0  2  0  0  3  0  0  0  0  0  0
  161.0870  205.7060  147.2610 C   0  0  0  0  0  2  0  0  0  0  0  0
  161.6080  205.7780  145.8280 C   0  0  2  0  0  3  0  0  0  0  0  0
  161.8620  203.0110  146.7530 C   0  0  1  0  0  3  0  0  0  0  0  0
  161.2660  207.3580  154.7720 C   0  0  0  0  0  1  0  0  0  0  0  0
  160.4560  207.3650  153.6360 O   0  0  0  0  0  0  0  0  0  0  0  0
  1  6  1  0  0  0  0
  2  1  1  0  0  0  0
  3 14  1  0  0  0  0
  4  5  1  0  0  0  0
  5  3  2  0  0  0  0
  5 26  1  0  0  0  0
  6  3  1  0  0  0  0
  7  2  2  0  0  0  0
  7  8  1  0  0  0  0
  8  4  2  0  0  0  0
  8  6  1  0  0  0  0
 10 11  1  0  0  0  0
 11 16  1  0  0  0  0
 11  9  2  0  0  0  0
 12 13  2  0  0  0  0
 13  9  1  0  0  0  0
 14 10  2  0  0  0  0
 14 12  1  0  0  0  0
 16 15  2  0  0  0  0
 17 16  1  0  0  0  0
 18 17  1  0  0  0  0
 19 18  1  0  0  0  0
 20 19  1  0  0  0  0
 21 20  1  0  0  0  0
 22 24  2  0  0  0  0
 23 21  1  0  0  0  0
 24 23  1  0  0  0  0
 25 24  1  0  0  0  0
 26 45  1  1  0  0  0
 27 30  1  6  0  0  0
 28 31  1  6  0  0  0
 28 29  1  0  0  0  0
 28 27  1  0  0  0  0
 29 26  1  1  0  0  0
 29 27  1  0  0  0  0
 32 31  1  0  0  0  0
 33 34  2  1  0  0  0
 33 35  1  0  0  0  0
 33 32  1  0  0  0  0
 36 43  1  0  0  0  0
 37 40  1  0  0  0  0
 38 39  1  1  0  0  0
 38 36  1  0  0  0  0
 38 42  1  0  0  0  0
 40 41  1  1  0  0  0
 42 40  1  0  0  0  0
 42 41  1  1  0  0  0
 43 37  1  0  0  0  0
 43 33  1  1  0  0  0
 45 44  1  0  0  0  0
M  END
>  <MODEL>
4

>  <REMARK>
 VINA RESULT:      -5.8      3.397      5.518
  Name = 
  14 active torsions:
  status: ('A' for Active; 'I' for Inactive)
    1  A    between atoms: N_2  and  C_34
    2  A    between atoms: N_2  and  N_37
    3  A    between atoms: P_6  and  O_21
    4  A    between atoms: P_6  and  C_45
    5  A    between atoms: N_7  and  C_34
    6  A    between atoms: C_11  and  O_21
    7  A    between atoms: C_11  and  C_22
    8  A    between atoms: C_12  and  C_29
    9  A    between atoms: C_20  and  C_36
   10  A    between atoms: O_26  and  C_33
   11  A    between atoms: C_27  and  C_33
   12  A    between atoms: C_30  and  C_33
   13  A    between atoms: N_35  and  C_39
   14  A    between atoms: N_37  and  C_39
                            x       y       z     vdW  Elec       q    Type
                         _______ _______ _______ _____ _____    ______ ____

>  <TORSDO>
F 14

$$$$
=
 OpenBabel11042420403D

 45 50  0  0  1  0  0  0  0  0999 V2000
  161.9570  209.4560  148.5580 C   0  0  0  0  0  2  0  0  0  0  0  0
  162.2040  210.8290  148.7110 C   0  0  0  0  0  3  0  0  0  0  0  0
  161.5000  207.8570  150.4570 C   0  0  0  0  0  0  0  0  0  0  0  0
  161.6990  209.5730  151.9440 N   0  0  0  0  0  0  0  0  0  0  0  0
  161.4600  208.2350  151.8140 C   0  0  0  0  0  0  0  0  0  0  0  0
  161.7590  208.9870  149.7930 N   0  0  0  0  0  0  0  0  0  0  0  0
  162.1490  211.1610  150.0810 C   0  0  0  0  0  3  0  0  0  0  0  0
  161.8690  209.9510  150.6640 C   0  0  0  0  0  0  0  0  0  0  0  0
  160.9580  204.0520  148.6790 C   0  0  0  0  0  3  0  0  0  0  0  0
  161.7420  206.2960  148.5660 N   0  0  0  0  0  0  0  0  0  0  0  0
  161.5810  205.0840  147.9730 C   0  0  0  0  0  0  0  0  0  0  0  0
  160.6990  205.5340  150.5280 N   0  0  0  0  0  0  0  0  0  0  0  0
  160.5170  204.3060  149.9770 C   0  0  0  0  0  3  0  0  0  0  0  0
  161.3110  206.5310  149.8340 C   0  0  0  0  0  0  0  0  0  0  0  0
  163.2870  204.7000  146.3720 O   0  0  0  0  0  0  0  0  0  0  0  0
  162.0590  204.8780  146.5980 C   0  0  0  0  0  0  0  0  0  0  0  0
  161.1220  204.8740  145.5170 N   0  0  0  0  0  2  0  0  0  0  0  0
  161.5240  204.7010  144.1300 C   0  0  0  0  0  2  0  0  0  0  0  0
  161.5470  205.9890  143.4610 N   0  0  0  0  0  2  0  0  0  0  0  0
  161.5810  205.7270  142.0850 N   0  0  0  0  0  2  0  0  0  0  0  0
  161.9980  206.9540  141.4270 C   0  0  0  0  0  2  0  0  0  0  0  0
  161.6410  207.6320  137.8490 O   0  0  0  0  0  0  0  0  0  0  0  0
  161.9590  206.7770  139.9840 N   0  0  0  0  0  2  0  0  0  0  0  0
  161.6580  207.8480  139.0880 C   0  0  0  0  0  0  0  0  0  0  0  0
  161.3640  209.2190  139.5930 C   0  0  0  0  0  1  0  0  0  0  0  0
  161.2100  207.3590  153.0070 C   0  0  2  0  0  3  0  0  0  0  0  0
  160.8930  207.2770  155.4720 C   0  0  1  0  0  3  0  0  0  0  0  0
  159.8580  208.2420  154.8880 C   0  0  2  0  0  3  0  0  0  0  0  0
  161.2490  208.1650  154.2960 C   0  0  2  0  0  3  0  0  0  0  0  0
  161.4940  207.7770  156.6300 O   0  0  0  0  0  1  0  0  0  0  0  0
  159.7080  209.5440  155.6640 C   0  0  0  0  0  2  0  0  0  0  0  0
  158.8360  210.4020  154.9860 O   0  0  0  0  0  0  0  0  0  0  0  0
  159.6270  211.9020  154.9020 P   0  0  2  0  0  0  0  0  0  0  0  0
  160.3120  212.0420  153.5590 O   0  0  0  0  0  0  0  0  0  0  0  0
  160.7970  211.9630  156.1200 O   0  0  0  0  0  1  0  0  0  0  0  0
  157.3720  213.3020  154.0110 C   0  0  0  0  0  2  0  0  0  0  0  0
  157.9610  213.3790  156.4510 O   0  0  0  0  0  0  0  0  0  0  0  0
  156.0340  213.7500  154.5740 C   0  0  1  0  0  3  0  0  0  0  0  0
  155.0570  213.6500  153.5860 O   0  0  0  0  0  1  0  0  0  0  0  0
  156.7430  212.7120  156.7990 C   0  0  2  0  0  3  0  0  0  0  0  0
  156.2660  211.5770  155.8970 C   0  0  0  0  0  2  0  0  0  0  0  0
  155.6000  212.9480  155.8090 C   0  0  2  0  0  3  0  0  0  0  0  0
  158.4280  213.2620  155.1120 C   0  0  1  0  0  3  0  0  0  0  0  0
  161.3840  205.1760  153.3390 C   0  0  0  0  0  1  0  0  0  0  0  0
  162.1380  206.3150  153.0530 O   0  0  0  0  0  0  0  0  0  0  0  0
  1  2  1  0  0  0  0
  1  6  1  0  0  0  0
  2  7  2  0  0  0  0
  3  5  2  0  0  0  0
  5  4  1  0  0  0  0
  5 26  1  0  0  0  0
  6  3  1  0  0  0  0
  6  8  1  0  0  0  0
  7  8  1  0  0  0  0
  8  4  2  0  0  0  0
  9 13  1  0  0  0  0
 10 14  2  0  0  0  0
 11 10  1  0  0  0  0
 11  9  2  0  0  0  0
 13 12  2  0  0  0  0
 14  3  1  0  0  0  0
 14 12  1  0  0  0  0
 15 16  2  0  0  0  0
 16 11  1  0  0  0  0
 17 16  1  0  0  0  0
 18 17  1  0  0  0  0
 19 18  1  0  0  0  0
 20 19  1  0  0  0  0
 21 20  1  0  0  0  0
 22 24  2  0  0  0  0
 23 21  1  0  0  0  0
 24 25  1  0  0  0  0
 24 23  1  0  0  0  0
 26 45  1  1  0  0  0
 27 30  1  1  0  0  0
 28 27  1  0  0  0  0
 28 31  1  1  0  0  0
 29 26  1  6  0  0  0
 29 28  1  0  0  0  0
 29 27  1  0  0  0  0
 32 31  1  0  0  0  0
 33 34  2  6  0  0  0
 33 32  1  0  0  0  0
 33 35  1  0  0  0  0
 36 38  1  0  0  0  0
 36 43  1  0  0  0  0
 37 40  1  0  0  0  0
 38 39  1  6  0  0  0
 38 42  1  0  0  0  0
 40 41  1  6  0  0  0
 42 41  1  6  0  0  0
 42 40  1  0  0  0  0
 43 33  1  1  0  0  0
 43 37  1  0  0  0  0
 45 44  1  0  0  0  0
M  END
>  <MODEL>
5

>  <REMARK>
 VINA RESULT:      -5.7      3.552      8.091
  Name = 
  14 active torsions:
  status: ('A' for Active; 'I' for Inactive)
    1  A    between atoms: N_2  and  C_34
    2  A    between atoms: N_2  and  N_37
    3  A    between atoms: P_6  and  O_21
    4  A    between atoms: P_6  and  C_45
    5  A    between atoms: N_7  and  C_34
    6  A    between atoms: C_11  and  O_21
    7  A    between atoms: C_11  and  C_22
    8  A    between atoms: C_12  and  C_29
    9  A    between atoms: C_20  and  C_36
   10  A    between atoms: O_26  and  C_33
   11  A    between atoms: C_27  and  C_33
   12  A    between atoms: C_30  and  C_33
   13  A    between atoms: N_35  and  C_39
   14  A    between atoms: N_37  and  C_39
                            x       y       z     vdW  Elec       q    Type
                         _______ _______ _______ _____ _____    ______ ____

>  <TORSDO>
F 14

$$$$
=
 OpenBabel11042420403D

 45 50  0  0  1  0  0  0  0  0999 V2000
  158.1810  213.3510  151.5960 C   0  0  0  0  0  2  0  0  0  0  0  0
  157.1360  214.0680  152.2010 C   0  0  0  0  0  3  0  0  0  0  0  0
  159.8190  211.8800  152.8310 C   0  0  0  0  0  0  0  0  0  0  0  0
  158.7770  212.3770  154.7960 N   0  0  0  0  0  0  0  0  0  0  0  0
  159.7990  211.6750  154.2250 C   0  0  0  0  0  0  0  0  0  0  0  0
  158.7950  212.7050  152.5900 N   0  0  0  0  0  0  0  0  0  0  0  0
  157.1530  213.8290  153.5910 C   0  0  0  0  0  3  0  0  0  0  0  0
  158.2180  212.9740  153.7270 C   0  0  0  0  0  0  0  0  0  0  0  0
  162.4490  210.3340  149.8940 C   0  0  0  0  0  3  0  0  0  0  0  0
  160.8330  211.9390  150.5860 N   0  0  0  0  0  0  0  0  0  0  0  0
  161.6690  211.4630  149.6270 C   0  0  0  0  0  0  0  0  0  0  0  0
  161.4850  210.2410  152.0720 N   0  0  0  0  0  0  0  0  0  0  0  0
  162.3360  209.7300  151.1450 C   0  0  0  0  0  3  0  0  0  0  0  0
  160.7340  211.3430  151.8040 C   0  0  0  0  0  0  0  0  0  0  0  0
  162.8560  212.3730  147.7860 O   0  0  0  0  0  0  0  0  0  0  0  0
  161.7380  212.1380  148.3220 C   0  0  0  0  0  0  0  0  0  0  0  0
  160.5300  212.5210  147.6600 N   0  0  0  0  0  2  0  0  0  0  0  0
  160.5220  213.2140  146.3810 C   0  0  0  0  0  2  0  0  0  0  0  0
  159.3240  212.8610  145.6390 N   0  0  0  0  0  2  0  0  0  0  0  0
  159.6950  211.8610  144.7300 N   0  0  0  0  0  2  0  0  0  0  0  0
  160.2850  212.5260  143.5810 C   0  0  0  0  0  2  0  0  0  0  0  0
  161.6330  210.8390  140.6260 O   0  0  0  0  0  0  0  0  0  0  0  0
  160.4750  211.5700  142.5020 N   0  0  0  0  0  2  0  0  0  0  0  0
  161.5190  211.7010  141.5350 C   0  0  0  0  0  0  0  0  0  0  0  0
  162.4780  212.8420  141.5830 C   0  0  0  0  0  1  0  0  0  0  0  0
  160.7330  210.8340  155.0450 C   0  0  2  0  0  3  0  0  0  0  0  0
  160.9980  208.6630  156.2280 C   0  0  1  0  0  3  0  0  0  0  0  0
  161.3360  208.4470  154.7510 C   0  0  2  0  0  3  0  0  0  0  0  0
  160.2310  209.4020  155.1500 C   0  0  2  0  0  3  0  0  0  0  0  0
  160.2000  207.6400  156.7480 O   0  0  0  0  0  1  0  0  0  0  0  0
  160.7250  207.1890  154.1460 C   0  0  0  0  0  2  0  0  0  0  0  0
  160.7550  207.2710  152.7510 O   0  0  0  0  0  0  0  0  0  0  0  0
  161.4120  205.8020  152.2090 P   0  0  2  0  0  0  0  0  0  0  0  0
  161.2210  204.7360  153.2680 O   0  0  0  0  0  1  0  0  0  0  0  0
  163.0680  206.0170  151.9450 O   0  0  0  0  0  0  0  0  0  0  0  0
  161.5340  205.2600  149.4650 C   0  0  0  0  0  2  0  0  0  0  0  0
  159.7700  204.1270  150.8470 O   0  0  0  0  0  0  0  0  0  0  0  0
  161.1870  204.1140  148.5300 C   0  0  1  0  0  3  0  0  0  0  0  0
  162.1380  204.0380  147.5150 O   0  0  0  0  0  1  0  0  0  0  0  0
  160.3410  202.8410  150.5780 C   0  0  2  0  0  3  0  0  0  0  0  0
  161.8620  202.7230  150.5630 C   0  0  0  0  0  2  0  0  0  0  0  0
  161.0900  202.7600  149.2460 C   0  0  2  0  0  3  0  0  0  0  0  0
  160.5930  205.2730  150.6660 C   0  0  1  0  0  3  0  0  0  0  0  0
  159.7060  211.1340  156.9830 C   0  0  0  0  0  1  0  0  0  0  0  0
  160.9050  211.3870  156.3160 O   0  0  0  0  0  0  0  0  0  0  0  0
  1  2  1  0  0  0  0
  1  6  1  0  0  0  0
  2  7  2  0  0  0  0
  3  5  2  0  0  0  0
  5  4  1  0  0  0  0
  5 26  1  0  0  0  0
  6  3  1  0  0  0  0
  6  8  1  0  0  0  0
  7  8  1  0  0  0  0
  8  4  2  0  0  0  0
  9 13  1  0  0  0  0
 10 14  2  0  0  0  0
 11  9  2  0  0  0  0
 11 10  1  0  0  0  0
 13 12  2  0  0  0  0
 14 12  1  0  0  0  0
 14  3  1  0  0  0  0
 15 16  2  0  0  0  0
 16 11  1  0  0  0  0
 17 16  1  0  0  0  0
 18 17  1  0  0  0  0
 19 18  1  0  0  0  0
 20 19  1  0  0  0  0
 21 20  1  0  0  0  0
 22 24  2  0  0  0  0
 23 21  1  0  0  0  0
 24 25  1  0  0  0  0
 24 23  1  0  0  0  0
 26 45  1  1  0  0  0
 27 30  1  6  0  0  0
 28 31  1  6  0  0  0
 28 29  1  0  0  0  0
 28 27  1  0  0  0  0
 29 26  1  1  0  0  0
 29 27  1  0  0  0  0
 32 31  1  0  0  0  0
 33 35  2  6  0  0  0
 33 32  1  0  0  0  0
 33 34  1  0  0  0  0
 36 43  1  0  0  0  0
 38 39  1  6  0  0  0
 38 42  1  0  0  0  0
 38 36  1  0  0  0  0
 40 41  1  1  0  0  0
 40 37  1  0  0  0  0
 42 41  1  1  0  0  0
 42 40  1  0  0  0  0
 43 37  1  0  0  0  0
 43 33  1  1  0  0  0
 45 44  1  0  0  0  0
M  END
>  <MODEL>
6

>  <REMARK>
 VINA RESULT:      -5.3      2.064      2.892
  Name = 
  14 active torsions:
  status: ('A' for Active; 'I' for Inactive)
    1  A    between atoms: N_2  and  C_34
    2  A    between atoms: N_2  and  N_37
    3  A    between atoms: P_6  and  O_21
    4  A    between atoms: P_6  and  C_45
    5  A    between atoms: N_7  and  C_34
    6  A    between atoms: C_11  and  O_21
    7  A    between atoms: C_11  and  C_22
    8  A    between atoms: C_12  and  C_29
    9  A    between atoms: C_20  and  C_36
   10  A    between atoms: O_26  and  C_33
   11  A    between atoms: C_27  and  C_33
   12  A    between atoms: C_30  and  C_33
   13  A    between atoms: N_35  and  C_39
   14  A    between atoms: N_37  and  C_39
                            x       y       z     vdW  Elec       q    Type
                         _______ _______ _______ _____ _____    ______ ____

>  <TORSDO>
F 14

$$$$
=
 OpenBabel11042420403D

 45 50  0  0  1  0  0  0  0  0999 V2000
  160.2370  207.1510  155.3550 C   0  0  0  0  0  2  0  0  0  0  0  0
  160.0910  208.1570  156.3230 C   0  0  0  0  0  3  0  0  0  0  0  0
  161.2290  207.4960  153.0600 C   0  0  0  0  0  0  0  0  0  0  0  0
  161.5610  209.6990  153.5400 N   0  0  0  0  0  0  0  0  0  0  0  0
  161.7080  208.7340  152.5870 C   0  0  0  0  0  0  0  0  0  0  0  0
  160.8040  207.7440  154.3020 N   0  0  0  0  0  0  0  0  0  0  0  0
  160.5880  209.3720  155.8080 C   0  0  0  0  0  3  0  0  0  0  0  0
  161.0040  209.0090  154.5520 C   0  0  0  0  0  0  0  0  0  0  0  0
  161.0690  203.7170  151.1550 C   0  0  0  0  0  3  0  0  0  0  0  0
  161.0890  206.0940  151.0390 N   0  0  0  0  0  0  0  0  0  0  0  0
  161.0360  204.8950  150.4030 C   0  0  0  0  0  0  0  0  0  0  0  0
  161.1990  205.0400  153.1340 N   0  0  0  0  0  0  0  0  0  0  0  0
  161.1510  203.8180  152.5430 C   0  0  0  0  0  3  0  0  0  0  0  0
  161.1720  206.1800  152.3920 C   0  0  0  0  0  0  0  0  0  0  0  0
  161.2020  203.7860  148.3130 O   0  0  0  0  0  0  0  0  0  0  0  0
  160.9430  204.8520  148.9360 C   0  0  0  0  0  0  0  0  0  0  0  0
  160.5480  206.0250  148.2190 N   0  0  0  0  0  2  0  0  0  0  0  0
  160.4570  206.0640  146.7680 C   0  0  0  0  0  2  0  0  0  0  0  0
  161.7890  206.1440  146.1950 N   0  0  0  0  0  2  0  0  0  0  0  0
  161.7650  205.3890  145.0140 N   0  0  0  0  0  2  0  0  0  0  0  0
  161.8730  203.9920  145.4000 C   0  0  0  0  0  2  0  0  0  0  0  0
  159.3930  201.3530  144.8710 O   0  0  0  0  0  0  0  0  0  0  0  0
  160.7310  203.2500  144.8870 N   0  0  0  0  0  2  0  0  0  0  0  0
  160.3940  201.9430  145.3540 C   0  0  0  0  0  0  0  0  0  0  0  0
  161.2060  201.2630  146.4020 C   0  0  0  0  0  1  0  0  0  0  0  0
  162.3000  209.0370  151.2410 C   0  0  2  0  0  3  0  0  0  0  0  0
  162.3350  211.0870  149.8330 C   0  0  1  0  0  3  0  0  0  0  0  0
  161.5840  211.4090  151.1270 C   0  0  2  0  0  3  0  0  0  0  0  0
  161.4480  210.0450  150.4830 C   0  0  2  0  0  3  0  0  0  0  0  0
  161.6950  211.6010  148.7020 O   0  0  0  0  0  1  0  0  0  0  0  0
  160.2960  212.1970  150.9240 C   0  0  0  0  0  2  0  0  0  0  0  0
  160.0750  213.0330  152.0220 O   0  0  0  0  0  0  0  0  0  0  0  0
  158.4230  212.8930  152.3920 P   0  0  2  0  0  0  0  0  0  0  0  0
  158.1040  211.4600  152.7610 O   0  0  0  0  0  1  0  0  0  0  0  0
  157.5270  213.3160  151.0230 O   0  0  0  0  0  0  0  0  0  0  0  0
  156.5610  213.7910  154.2800 C   0  0  0  0  0  2  0  0  0  0  0  0
  159.0100  214.0310  154.7830 O   0  0  0  0  0  0  0  0  0  0  0  0
  156.4880  213.9700  155.7870 C   0  0  1  0  0  3  0  0  0  0  0  0
  155.2040  213.6570  156.2300 O   0  0  0  0  0  1  0  0  0  0  0  0
  158.9010  213.1380  155.8970 C   0  0  2  0  0  3  0  0  0  0  0  0
  158.0030  211.9140  155.7470 C   0  0  0  0  0  2  0  0  0  0  0  0
  157.5150  213.1200  156.5460 C   0  0  2  0  0  3  0  0  0  0  0  0
  157.9930  213.9860  153.7890 C   0  0  1  0  0  3  0  0  0  0  0  0
  162.4420  208.2850  149.1640 C   0  0  0  0  0  1  0  0  0  0  0  0
  162.4510  207.8660  150.4950 O   0  0  0  0  0  0  0  0  0  0  0  0
  1  2  1  0  0  0  0
  3  6  1  0  0  0  0
  4  8  2  0  0  0  0
  5  3  2  0  0  0  0
  5  4  1  0  0  0  0
  6  8  1  0  0  0  0
  6  1  1  0  0  0  0
  7  2  2  0  0  0  0
  8  7  1  0  0  0  0
  9 13  1  0  0  0  0
 10 14  2  0  0  0  0
 11 10  1  0  0  0  0
 11  9  2  0  0  0  0
 13 12  2  0  0  0  0
 14  3  1  0  0  0  0
 14 12  1  0  0  0  0
 15 16  2  0  0  0  0
 16 11  1  0  0  0  0
 17 16  1  0  0  0  0
 18 17  1  0  0  0  0
 19 18  1  0  0  0  0
 20 21  1  0  0  0  0
 20 19  1  0  0  0  0
 22 24  2  0  0  0  0
 23 24  1  0  0  0  0
 23 21  1  0  0  0  0
 24 25  1  0  0  0  0
 26 45  1  6  0  0  0
 26  5  1  0  0  0  0
 27 30  1  6  0  0  0
 27 29  1  0  0  0  0
 27 28  1  0  0  0  0
 28 31  1  6  0  0  0
 29 28  1  0  0  0  0
 29 26  1  1  0  0  0
 31 32  1  0  0  0  0
 32 33  1  0  0  0  0
 33 35  2  6  0  0  0
 33 34  1  0  0  0  0
 36 38  1  0  0  0  0
 37 40  1  0  0  0  0
 38 39  1  1  0  0  0
 38 42  1  0  0  0  0
 40 41  1  6  0  0  0
 40 42  1  0  0  0  0
 42 41  1  6  0  0  0
 43 33  1  6  0  0  0
 43 36  1  0  0  0  0
 43 37  1  0  0  0  0
 44 45  1  0  0  0  0
M  END
>  <MODEL>
7

>  <REMARK>
 VINA RESULT:      -5.2      4.170      8.755
  Name = 
  14 active torsions:
  status: ('A' for Active; 'I' for Inactive)
    1  A    between atoms: N_2  and  C_34
    2  A    between atoms: N_2  and  N_37
    3  A    between atoms: P_6  and  O_21
    4  A    between atoms: P_6  and  C_45
    5  A    between atoms: N_7  and  C_34
    6  A    between atoms: C_11  and  O_21
    7  A    between atoms: C_11  and  C_22
    8  A    between atoms: C_12  and  C_29
    9  A    between atoms: C_20  and  C_36
   10  A    between atoms: O_26  and  C_33
   11  A    between atoms: C_27  and  C_33
   12  A    between atoms: C_30  and  C_33
   13  A    between atoms: N_35  and  C_39
   14  A    between atoms: N_37  and  C_39
                            x       y       z     vdW  Elec       q    Type
                         _______ _______ _______ _____ _____    ______ ____

>  <TORSDO>
F 14

$$$$
=
 OpenBabel11042420403D

 45 50  0  0  1  0  0  0  0  0999 V2000
  158.5490  213.0370  151.5800 C   0  0  0  0  0  2  0  0  0  0  0  0
  157.3690  213.7840  151.7310 C   0  0  0  0  0  3  0  0  0  0  0  0
  159.6140  211.6470  153.3970 C   0  0  0  0  0  0  0  0  0  0  0  0
  157.9480  212.2520  154.8300 N   0  0  0  0  0  0  0  0  0  0  0  0
  159.0950  211.5220  154.7010 C   0  0  0  0  0  0  0  0  0  0  0  0
  158.7580  212.4520  152.7610 N   0  0  0  0  0  0  0  0  0  0  0  0
  156.8850  213.6240  153.0460 C   0  0  0  0  0  3  0  0  0  0  0  0
  157.8170  212.7830  153.6010 C   0  0  0  0  0  0  0  0  0  0  0  0
  163.0970  209.9560  151.6820 C   0  0  0  0  0  3  0  0  0  0  0  0
  160.8400  210.6860  151.4880 N   0  0  0  0  0  0  0  0  0  0  0  0
  161.9450  210.1420  150.9140 C   0  0  0  0  0  0  0  0  0  0  0  0
  161.9420  210.8740  153.5540 N   0  0  0  0  0  0  0  0  0  0  0  0
  163.0700  210.3360  153.0230 C   0  0  0  0  0  3  0  0  0  0  0  0
  160.8260  211.0560  152.7960 C   0  0  0  0  0  0  0  0  0  0  0  0
  162.1310  210.6090  148.5960 O   0  0  0  0  0  0  0  0  0  0  0  0
  161.9110  209.7530  149.4960 C   0  0  0  0  0  0  0  0  0  0  0  0
  161.6320  208.3950  149.1420 N   0  0  0  0  0  2  0  0  0  0  0  0
  161.5580  207.9440  147.7620 C   0  0  0  0  0  2  0  0  0  0  0  0
  162.2780  206.6910  147.6160 N   0  0  0  0  0  2  0  0  0  0  0  0
  161.9840  206.2060  146.3340 N   0  0  0  0  0  2  0  0  0  0  0  0
  163.0040  205.2230  146.0060 C   0  0  0  0  0  2  0  0  0  0  0  0
  160.7550  202.4320  145.2660 O   0  0  0  0  0  0  0  0  0  0  0  0
  162.4140  203.8940  145.9760 N   0  0  0  0  0  2  0  0  0  0  0  0
  161.2150  203.6030  145.2560 C   0  0  0  0  0  0  0  0  0  0  0  0
  160.4960  204.6620  144.4910 C   0  0  0  0  0  1  0  0  0  0  0  0
  159.6610  210.7340  155.8460 C   0  0  2  0  0  3  0  0  0  0  0  0
  160.3190  208.4510  156.5810 C   0  0  1  0  0  3  0  0  0  0  0  0
  160.6570  208.5910  155.0950 C   0  0  2  0  0  3  0  0  0  0  0  0
  159.4130  209.2440  155.6600 C   0  0  2  0  0  3  0  0  0  0  0  0
  159.7180  207.2240  156.8780 O   0  0  0  0  0  1  0  0  0  0  0  0
  160.2580  207.3900  154.2460 C   0  0  0  0  0  2  0  0  0  0  0  0
  160.7050  207.5680  152.9330 O   0  0  0  0  0  0  0  0  0  0  0  0
  161.5380  206.1460  152.5250 P   0  0  2  0  0  0  0  0  0  0  0  0
  162.0070  205.4510  153.7860 O   0  0  0  0  0  1  0  0  0  0  0  0
  162.8880  206.5610  151.5970 O   0  0  0  0  0  0  0  0  0  0  0  0
  160.9270  204.7850  150.1560 C   0  0  0  0  0  2  0  0  0  0  0  0
  160.0720  203.8720  152.3330 O   0  0  0  0  0  0  0  0  0  0  0  0
  160.6290  203.3590  149.7250 C   0  0  1  0  0  3  0  0  0  0  0  0
  161.1920  203.1250  148.4720 O   0  0  0  0  0  1  0  0  0  0  0  0
  160.8560  202.6840  152.1790 C   0  0  2  0  0  3  0  0  0  0  0  0
  162.2660  202.8260  151.6120 C   0  0  0  0  0  2  0  0  0  0  0  0
  161.1380  202.3100  150.7220 C   0  0  2  0  0  3  0  0  0  0  0  0
  160.4500  205.0220  151.5860 C   0  0  1  0  0  3  0  0  0  0  0  0
  159.6760  212.4370  157.2600 C   0  0  0  0  0  1  0  0  0  0  0  0
  159.1230  211.1720  157.0580 O   0  0  0  0  0  0  0  0  0  0  0  0
  1  2  1  0  0  0  0
  1  6  1  0  0  0  0
  2  7  2  0  0  0  0
  3  5  2  0  0  0  0
  5  4  1  0  0  0  0
  5 26  1  0  0  0  0
  6  3  1  0  0  0  0
  6  8  1  0  0  0  0
  7  8  1  0  0  0  0
  8  4  2  0  0  0  0
  9 13  1  0  0  0  0
 10 14  2  0  0  0  0
 11 10  1  0  0  0  0
 11  9  2  0  0  0  0
 13 12  2  0  0  0  0
 14  3  1  0  0  0  0
 14 12  1  0  0  0  0
 15 16  2  0  0  0  0
 16 11  1  0  0  0  0
 17 16  1  0  0  0  0
 18 17  1  0  0  0  0
 19 18  1  0  0  0  0
 20 19  1  0  0  0  0
 21 20  1  0  0  0  0
 23 21  1  0  0  0  0
 24 22  2  0  0  0  0
 24 23  1  0  0  0  0
 25 24  1  0  0  0  0
 26 45  1  1  0  0  0
 27 30  1  6  0  0  0
 28 31  1  6  0  0  0
 28 29  1  0  0  0  0
 28 27  1  0  0  0  0
 29 26  1  1  0  0  0
 29 27  1  0  0  0  0
 32 31  1  0  0  0  0
 33 35  2  6  0  0  0
 33 32  1  0  0  0  0
 33 34  1  0  0  0  0
 36 43  1  0  0  0  0
 38 39  1  6  0  0  0
 38 36  1  0  0  0  0
 38 42  1  0  0  0  0
 40 41  1  1  0  0  0
 40 37  1  0  0  0  0
 42 41  1  1  0  0  0
 42 40  1  0  0  0  0
 43 37  1  0  0  0  0
 43 33  1  1  0  0  0
 45 44  1  0  0  0  0
M  END
>  <MODEL>
8

>  <REMARK>
 VINA RESULT:      -5.0      3.814      5.011
  Name = 
  14 active torsions:
  status: ('A' for Active; 'I' for Inactive)
    1  A    between atoms: N_2  and  C_34
    2  A    between atoms: N_2  and  N_37
    3  A    between atoms: P_6  and  O_21
    4  A    between atoms: P_6  and  C_45
    5  A    between atoms: N_7  and  C_34
    6  A    between atoms: C_11  and  O_21
    7  A    between atoms: C_11  and  C_22
    8  A    between atoms: C_12  and  C_29
    9  A    between atoms: C_20  and  C_36
   10  A    between atoms: O_26  and  C_33
   11  A    between atoms: C_27  and  C_33
   12  A    between atoms: C_30  and  C_33
   13  A    between atoms: N_35  and  C_39
   14  A    between atoms: N_37  and  C_39
                            x       y       z     vdW  Elec       q    Type
                         _______ _______ _______ _____ _____    ______ ____

>  <TORSDO>
F 14

$$$$
=
 OpenBabel11042420403D

 45 50  0  0  1  0  0  0  0  0999 V2000
  161.4560  204.3470  148.0090 C   0  0  0  0  0  2  0  0  0  0  0  0
  161.5810  204.2920  146.6120 C   0  0  0  0  0  3  0  0  0  0  0  0
  161.5670  206.4630  149.3800 C   0  0  0  0  0  0  0  0  0  0  0  0
  161.8810  207.6750  147.4760 N   0  0  0  0  0  0  0  0  0  0  0  0
  161.7640  207.7470  148.8340 C   0  0  0  0  0  0  0  0  0  0  0  0
  161.5640  205.6390  148.3290 N   0  0  0  0  0  0  0  0  0  0  0  0
  161.7710  205.5970  146.1110 C   0  0  0  0  0  3  0  0  0  0  0  0
  161.7460  206.3550  147.2550 C   0  0  0  0  0  0  0  0  0  0  0  0
  161.0770  205.2490  153.4080 C   0  0  0  0  0  3  0  0  0  0  0  0
  161.2880  206.9690  151.7750 N   0  0  0  0  0  0  0  0  0  0  0  0
  161.1300  206.6060  153.0750 C   0  0  0  0  0  0  0  0  0  0  0  0
  161.3530  204.7200  151.1000 N   0  0  0  0  0  0  0  0  0  0  0  0
  161.1950  204.3090  152.3850 C   0  0  0  0  0  3  0  0  0  0  0  0
  161.3970  206.0430  150.7860 C   0  0  0  0  0  0  0  0  0  0  0  0
  161.1980  207.3500  155.3260 O   0  0  0  0  0  0  0  0  0  0  0  0
  161.0200  207.6430  154.1120 C   0  0  0  0  0  0  0  0  0  0  0  0
  160.7170  208.9890  153.7350 N   0  0  0  0  0  2  0  0  0  0  0  0
  160.5690  210.0610  154.7070 C   0  0  0  0  0  2  0  0  0  0  0  0
  159.3110  210.7520  154.4870 N   0  0  0  0  0  2  0  0  0  0  0  0
  159.4540  211.4790  153.2970 N   0  0  0  0  0  2  0  0  0  0  0  0
  158.2270  212.2340  153.1090 C   0  0  0  0  0  2  0  0  0  0  0  0
  156.8620  213.8820  156.0770 O   0  0  0  0  0  0  0  0  0  0  0  0
  158.0450  213.1620  154.2130 N   0  0  0  0  0  2  0  0  0  0  0  0
  156.9640  213.0480  155.1410 C   0  0  0  0  0  0  0  0  0  0  0  0
  155.9540  211.9590  155.0210 C   0  0  0  0  0  1  0  0  0  0  0  0
  161.8560  209.0540  149.5660 C   0  0  2  0  0  3  0  0  0  0  0  0
  162.2750  211.4980  149.3710 C   0  0  1  0  0  3  0  0  0  0  0  0
  161.1410  211.1290  148.4120 C   0  0  2  0  0  3  0  0  0  0  0  0
  162.2950  210.1740  148.6340 C   0  0  2  0  0  3  0  0  0  0  0  0
  163.2030  212.3660  148.7900 O   0  0  0  0  0  1  0  0  0  0  0  0
  161.2600  211.7570  147.0290 C   0  0  0  0  0  2  0  0  0  0  0  0
  159.9880  211.9360  146.4790 O   0  0  0  0  0  0  0  0  0  0  0  0
  159.7280  213.6140  146.4370 P   0  0  2  0  0  0  0  0  0  0  0  0
  160.5030  214.2780  147.5550 O   0  0  0  0  0  1  0  0  0  0  0  0
  158.0790  213.9090  146.6660 O   0  0  0  0  0  0  0  0  0  0  0  0
  161.6830  213.8630  144.4480 C   0  0  0  0  0  2  0  0  0  0  0  0
  159.2730  214.1990  143.8280 O   0  0  0  0  0  0  0  0  0  0  0  0
  161.7860  213.6700  142.9450 C   0  0  1  0  0  3  0  0  0  0  0  0
  163.0370  213.1440  142.6280 O   0  0  0  0  0  1  0  0  0  0  0  0
  159.3050  213.0600  142.9600 C   0  0  2  0  0  3  0  0  0  0  0  0
  160.0800  211.8300  143.4230 C   0  0  0  0  0  2  0  0  0  0  0  0
  160.6870  212.7620  142.3770 C   0  0  2  0  0  3  0  0  0  0  0  0
  160.2730  214.2990  144.8350 C   0  0  1  0  0  3  0  0  0  0  0  0
  162.3510  209.9740  151.5180 C   0  0  0  0  0  1  0  0  0  0  0  0
  162.7310  208.9500  150.6500 O   0  0  0  0  0  0  0  0  0  0  0  0
  1  6  1  0  0  0  0
  2  1  1  0  0  0  0
  3 14  1  0  0  0  0
  4  5  1  0  0  0  0
  5  3  2  0  0  0  0
  5 26  1  0  0  0  0
  6  3  1  0  0  0  0
  7  2  2  0  0  0  0
  7  8  1  0  0  0  0
  8  4  2  0  0  0  0
  8  6  1  0  0  0  0
 10 11  1  0  0  0  0
 11  9  2  0  0  0  0
 11 16  1  0  0  0  0
 12 13  2  0  0  0  0
 13  9  1  0  0  0  0
 14 12  1  0  0  0  0
 14 10  2  0  0  0  0
 16 15  2  0  0  0  0
 17 16  1  0  0  0  0
 17 18  1  0  0  0  0
 19 18  1  0  0  0  0
 20 19  1  0  0  0  0
 21 20  1  0  0  0  0
 21 23  1  0  0  0  0
 23 24  1  0  0  0  0
 24 22  2  0  0  0  0
 25 24  1  0  0  0  0
 26 45  1  1  0  0  0
 27 30  1  6  0  0  0
 28 31  1  6  0  0  0
 28 29  1  0  0  0  0
 28 27  1  0  0  0  0
 29 27  1  0  0  0  0
 29 26  1  1  0  0  0
 32 31  1  0  0  0  0
 33 32  1  0  0  0  0
 33 35  2  1  0  0  0
 33 34  1  0  0  0  0
 36 43  1  0  0  0  0
 37 43  1  0  0  0  0
 38 39  1  1  0  0  0
 38 36  1  0  0  0  0
 40 41  1  1  0  0  0
 40 37  1  0  0  0  0
 42 38  1  0  0  0  0
 42 40  1  0  0  0  0
 42 41  1  1  0  0  0
 43 33  1  1  0  0  0
 45 44  1  0  0  0  0
M  END
>  <MODEL>
9

>  <REMARK>
 VINA RESULT:      -5.0      3.260      9.065
  Name = 
  14 active torsions:
  status: ('A' for Active; 'I' for Inactive)
    1  A    between atoms: N_2  and  C_34
    2  A    between atoms: N_2  and  N_37
    3  A    between atoms: P_6  and  O_21
    4  A    between atoms: P_6  and  C_45
    5  A    between atoms: N_7  and  C_34
    6  A    between atoms: C_11  and  O_21
    7  A    between atoms: C_11  and  C_22
    8  A    between atoms: C_12  and  C_29
    9  A    between atoms: C_20  and  C_36
   10  A    between atoms: O_26  and  C_33
   11  A    between atoms: C_27  and  C_33
   12  A    between atoms: C_30  and  C_33
   13  A    between atoms: N_35  and  C_39
   14  A    between atoms: N_37  and  C_39
                            x       y       z     vdW  Elec       q    Type
                         _______ _______ _______ _____ _____    ______ ____

>  <TORSDO>
F 14

$$$$
