=
 OpenBabel11052410353D

 40 45  0  0  1  0  0  0  0  0999 V2000
  160.0290  211.4670  153.5820 C   0  0  0  0  0  0  0  0  0  0  0  0
  160.2880  211.6350  156.0310 C   0  0  2  0  0  3  0  0  0  0  0  0
  158.7730  213.0240  155.0610 N   0  0  0  0  0  2  0  0  0  0  0  0
  158.3870  212.7600  156.2430 N   0  0  0  0  0  0  0  0  0  0  0  0
  160.0580  212.3960  154.7810 C   0  0  2  0  0  3  0  0  0  0  0  0
  161.1250  210.4460  156.0290 C   0  0  0  0  0  3  0  0  0  0  0  0
  161.3280  209.8530  154.8880 N   0  0  0  0  0  0  0  0  0  0  0  0
  160.7090  210.2840  153.6490 C   0  0  0  0  0  0  0  0  0  0  0  0
  159.2990  211.8660  156.8720 C   0  0  0  0  0  3  0  0  0  0  0  0
  161.8670  209.5220  150.0230 C   0  0  0  0  0  2  0  0  0  0  0  0
  160.9050  209.4300  152.4290 C   0  0  2  0  0  3  0  0  0  0  0  0
  161.9160  207.1560  151.7420 C   0  0  0  0  0  2  0  0  0  0  0  0
  163.2950  209.9100  151.9880 N   0  0  0  0  0  1  0  0  0  0  0  0
  161.1350  207.9500  152.7950 C   0  0  0  0  0  2  0  0  0  0  0  0
  161.9410  210.0530  151.4670 C   0  0  1  0  0  3  0  0  0  0  0  0
  160.8140  208.4320  149.7880 C   0  0  0  0  0  2  0  0  0  0  0  0
  161.1840  207.0700  150.4080 C   0  0  1  0  0  3  0  0  0  0  0  0
  161.4690  204.6830  149.5130 C   0  0  0  0  0  0  0  0  0  0  0  0
  160.8010  202.5930  150.6700 C   0  0  0  0  0  2  0  0  0  0  0  0
  161.2300  204.0270  150.6730 C   0  0  0  0  0  0  0  0  0  0  0  0
  160.0210  202.2450  149.4060 C   0  0  0  0  0  2  0  0  0  0  0  0
  161.9330  206.6740  148.0930 N   0  0  0  0  0  2  0  0  0  0  0  0
  161.4130  203.9320  148.2280 C   0  0  0  0  0  0  0  0  0  0  0  0
  161.5600  204.6250  152.0040 C   0  0  0  0  0  1  0  0  0  0  0  0
  161.9640  204.4510  147.1300 C   0  0  0  0  0  3  0  0  0  0  0  0
  162.6500  205.7850  147.1910 C   0  0  0  0  0  2  0  0  0  0  0  0
  161.9560  206.1420  149.4600 C   0  0  1  0  0  3  0  0  0  0  0  0
  160.8790  202.5300  148.1800 C   0  0  0  0  0  2  0  0  0  0  0  0
  158.6530  212.7320  149.6360 O   0  0  0  0  0  0  0  0  0  0  0  0
  159.8140  213.0040  150.0460 C   0  0  0  0  0  0  0  0  0  0  0  0
  159.4290  211.9690  152.3250 C   0  0  0  0  0  0  0  0  0  0  0  0
  160.2720  212.5320  151.3160 N   0  0  0  0  0  2  0  0  0  0  0  0
  158.1770  211.9700  152.1740 O   0  0  0  0  0  0  0  0  0  0  0  0
  160.7120  213.8360  149.2030 C   0  0  0  0  0  2  0  0  0  0  0  0
  161.6530  213.3730  145.7550 N   0  0  0  0  0  2  0  0  0  0  0  0
  162.1120  214.4530  146.6260 C   0  0  0  0  0  2  0  0  0  0  0  0
  161.7710  213.0130  148.6250 N   0  0  0  0  0  0  0  0  0  0  0  0
  161.1970  212.0020  147.7170 C   0  0  0  0  0  2  0  0  0  0  0  0
  162.7160  213.8770  147.9080 C   0  0  0  0  0  2  0  0  0  0  0  0
  160.6120  212.6350  146.4510 C   0  0  0  0  0  2  0  0  0  0  0  0
  1  8  2  0  0  0  0
  2  6  1  6  0  0  0
  2  9  1  0  0  0  0
  3  4  1  0  0  0  0
  4  9  2  0  0  0  0
  5  1  1  6  0  0  0
  5  3  1  0  0  0  0
  5  2  1  0  0  0  0
  7  6  2  0  0  0  0
  8  7  1  0  0  0  0
 10 15  1  0  0  0  0
 11 14  1  0  0  0  0
 11  8  1  1  0  0  0
 12 14  1  0  0  0  0
 15 13  1  1  0  0  0
 15 11  1  0  0  0  0
 16 10  1  0  0  0  0
 17 16  1  6  0  0  0
 17 12  1  0  0  0  0
 18 20  2  0  0  0  0
 19 20  1  0  0  0  0
 20 24  1  0  0  0  0
 21 19  1  0  0  0  0
 23 18  1  0  0  0  0
 25 26  1  0  0  0  0
 25 23  2  0  0  0  0
 26 22  1  0  0  0  0
 27 22  1  6  0  0  0
 27 18  1  0  0  0  0
 27 17  1  0  0  0  0
 28 23  1  0  0  0  0
 28 21  1  0  0  0  0
 29 30  2  0  0  0  0
 30 32  1  0  0  0  0
 31  1  1  0  0  0  0
 32 31  1  0  0  0  0
 33 31  2  0  0  0  0
 34 30  1  0  0  0  0
 35 40  1  0  0  0  0
 35 36  1  0  0  0  0
 36 39  1  0  0  0  0
 37 34  1  0  0  0  0
 38 37  1  0  0  0  0
 39 37  1  0  0  0  0
 40 38  1  0  0  0  0
M  END
>  <MODEL>
1

>  <REMARK>
 VINA RESULT:      -8.1      0.000      0.000
  Name = 
  5 active torsions:
  status: ('A' for Active; 'I' for Inactive)
    1  A    between atoms: C_1  and  C_20
    2  A    between atoms: N_13  and  C_29
    3  A    between atoms: C_15  and  C_34
    4  A    between atoms: C_19  and  C_29
    5  A    between atoms: C_36  and  C_39
                            x       y       z     vdW  Elec       q    Type
                         _______ _______ _______ _____ _____    ______ ____

>  <TORSDO>
F 5

$$$$
=
 OpenBabel11052410353D

 40 45  0  0  1  0  0  0  0  0999 V2000
  161.6440  206.3080  148.5300 C   0  0  0  0  0  0  0  0  0  0  0  0
  161.3920  204.2200  147.2370 C   0  0  2  0  0  3  0  0  0  0  0  0
  162.7060  205.8370  146.3300 N   0  0  0  0  0  2  0  0  0  0  0  0
  163.1350  204.7010  145.9520 N   0  0  0  0  0  0  0  0  0  0  0  0
  161.5090  205.6940  147.1480 C   0  0  2  0  0  3  0  0  0  0  0  0
  160.7140  203.5990  148.3640 C   0  0  0  0  0  3  0  0  0  0  0  0
  160.5760  204.3050  149.4490 N   0  0  0  0  0  0  0  0  0  0  0  0
  161.1230  205.6390  149.6010 C   0  0  0  0  0  0  0  0  0  0  0  0
  162.3520  203.6610  146.5270 C   0  0  0  0  0  3  0  0  0  0  0  0
  161.7010  205.9360  153.4280 C   0  0  0  0  0  2  0  0  0  0  0  0
  161.0250  206.2920  150.9510 C   0  0  2  0  0  3  0  0  0  0  0  0
  161.5390  208.5410  152.1080 C   0  0  0  0  0  2  0  0  0  0  0  0
  163.3940  206.1120  151.6520 N   0  0  0  0  0  1  0  0  0  0  0  0
  161.0370  207.8290  150.8470 C   0  0  0  0  0  2  0  0  0  0  0  0
  162.0340  205.6770  151.9460 C   0  0  1  0  0  3  0  0  0  0  0  0
  160.4550  206.7970  153.6700 C   0  0  0  0  0  2  0  0  0  0  0  0
  160.6540  208.2850  153.3210 C   0  0  1  0  0  3  0  0  0  0  0  0
  160.0980  210.1800  154.9580 C   0  0  0  0  0  0  0  0  0  0  0  0
  158.4380  211.9890  154.6000 C   0  0  0  0  0  2  0  0  0  0  0  0
  159.4060  210.9630  154.0970 C   0  0  0  0  0  0  0  0  0  0  0  0
  157.8260  211.5740  155.9330 C   0  0  0  0  0  2  0  0  0  0  0  0
  161.5810  208.2900  155.6050 N   0  0  0  0  0  2  0  0  0  0  0  0
  159.9740  210.4240  156.4220 C   0  0  0  0  0  0  0  0  0  0  0  0
  159.7050  210.9850  152.6310 C   0  0  0  0  0  1  0  0  0  0  0  0
  160.8770  209.9130  157.2600 C   0  0  0  0  0  3  0  0  0  0  0  0
  162.0240  209.1040  156.7270 C   0  0  0  0  0  2  0  0  0  0  0  0
  161.1380  209.1440  154.4980 C   0  0  1  0  0  3  0  0  0  0  0  0
  158.9330  211.3620  156.9600 C   0  0  0  0  0  2  0  0  0  0  0  0
  162.7040  210.5190  148.9800 O   0  0  0  0  0  0  0  0  0  0  0  0
  161.7240  210.1590  148.2720 C   0  0  0  0  0  0  0  0  0  0  0  0
  162.1620  207.6910  148.6300 C   0  0  0  0  0  0  0  0  0  0  0  0
  161.3520  208.7810  148.1820 N   0  0  0  0  0  2  0  0  0  0  0  0
  163.3360  207.9020  149.0380 O   0  0  0  0  0  0  0  0  0  0  0  0
  160.9550  211.1800  147.5130 C   0  0  0  0  0  2  0  0  0  0  0  0
  160.3340  214.2890  145.8010 N   0  0  0  0  0  2  0  0  0  0  0  0
  159.5140  213.7290  146.8730 C   0  0  0  0  0  2  0  0  0  0  0  0
  161.4890  212.5140  147.7740 N   0  0  0  0  0  0  0  0  0  0  0  0
  162.2420  213.0040  146.6030 C   0  0  0  0  0  2  0  0  0  0  0  0
  160.3810  213.4220  148.0950 C   0  0  0  0  0  2  0  0  0  0  0  0
  161.3230  213.2980  145.4140 C   0  0  0  0  0  2  0  0  0  0  0  0
  1 31  1  0  0  0  0
  1  8  2  0  0  0  0
  2  9  1  1  0  0  0
  2  6  1  0  0  0  0
  4  3  1  0  0  0  0
  4  9  2  0  0  0  0
  5  3  1  6  0  0  0
  5  2  1  0  0  0  0
  5  1  1  0  0  0  0
  6  7  2  0  0  0  0
  7  8  1  0  0  0  0
 10 16  1  0  0  0  0
 11  8  1  6  0  0  0
 11 15  1  0  0  0  0
 14 11  1  0  0  0  0
 14 12  1  0  0  0  0
 15 13  1  6  0  0  0
 15 10  1  0  0  0  0
 17 12  1  6  0  0  0
 17 16  1  0  0  0  0
 17 27  1  0  0  0  0
 18 23  1  0  0  0  0
 19 21  1  0  0  0  0
 20 19  1  0  0  0  0
 20 18  2  0  0  0  0
 21 28  1  0  0  0  0
 22 26  1  0  0  0  0
 23 28  1  0  0  0  0
 23 25  2  0  0  0  0
 24 20  1  0  0  0  0
 26 25  1  0  0  0  0
 27 18  1  1  0  0  0
 27 22  1  0  0  0  0
 30 29  2  0  0  0  0
 31 33  2  0  0  0  0
 32 30  1  0  0  0  0
 32 31  1  0  0  0  0
 34 37  1  0  0  0  0
 34 30  1  0  0  0  0
 35 36  1  0  0  0  0
 36 39  1  0  0  0  0
 37 39  1  0  0  0  0
 38 37  1  0  0  0  0
 40 35  1  0  0  0  0
 40 38  1  0  0  0  0
M  END
>  <MODEL>
2

>  <REMARK>
 VINA RESULT:      -7.0      2.304      7.621
  Name = 
  5 active torsions:
  status: ('A' for Active; 'I' for Inactive)
    1  A    between atoms: C_1  and  C_20
    2  A    between atoms: N_13  and  C_29
    3  A    between atoms: C_15  and  C_34
    4  A    between atoms: C_19  and  C_29
    5  A    between atoms: C_36  and  C_39
                            x       y       z     vdW  Elec       q    Type
                         _______ _______ _______ _____ _____    ______ ____

>  <TORSDO>
F 5

$$$$
=
 OpenBabel11052410353D

 40 45  0  0  1  0  0  0  0  0999 V2000
  160.5910  210.0910  153.9740 C   0  0  0  0  0  0  0  0  0  0  0  0
  160.6480  209.8250  156.4280 C   0  0  2  0  0  3  0  0  0  0  0  0
  159.6840  211.7190  155.6230 N   0  0  0  0  0  2  0  0  0  0  0  0
  159.1280  211.4120  156.7250 N   0  0  0  0  0  0  0  0  0  0  0  0
  160.7630  210.7900  155.3100 C   0  0  2  0  0  3  0  0  0  0  0  0
  161.1150  208.4560  156.2720 C   0  0  0  0  0  3  0  0  0  0  0  0
  161.2540  207.9990  155.0610 N   0  0  0  0  0  0  0  0  0  0  0  0
  160.9020  208.7640  153.8810 C   0  0  0  0  0  0  0  0  0  0  0  0
  159.6870  210.2110  157.2430 C   0  0  0  0  0  3  0  0  0  0  0  0
  161.6840  208.4780  150.0890 C   0  0  0  0  0  2  0  0  0  0  0  0
  160.9680  208.0740  152.5480 C   0  0  2  0  0  3  0  0  0  0  0  0
  161.8870  205.9120  151.4780 C   0  0  0  0  0  2  0  0  0  0  0  0
  163.3050  208.6190  151.9330 N   0  0  0  0  0  1  0  0  0  0  0  0
  161.2230  206.5620  152.6970 C   0  0  0  0  0  2  0  0  0  0  0  0
  161.9060  208.8210  151.5740 C   0  0  1  0  0  3  0  0  0  0  0  0
  160.6040  207.4210  149.8240 C   0  0  0  0  0  2  0  0  0  0  0  0
  161.0240  205.9930  150.2250 C   0  0  1  0  0  3  0  0  0  0  0  0
  161.2720  203.7170  149.0680 C   0  0  0  0  0  0  0  0  0  0  0  0
  160.8550  201.4970  150.0940 C   0  0  0  0  0  2  0  0  0  0  0  0
  161.2250  202.9450  150.1790 C   0  0  0  0  0  0  0  0  0  0  0  0
  159.9180  201.2280  148.9210 C   0  0  0  0  0  2  0  0  0  0  0  0
  161.4540  205.8520  147.8010 N   0  0  0  0  0  2  0  0  0  0  0  0
  161.0650  203.0860  147.7350 C   0  0  0  0  0  0  0  0  0  0  0  0
  161.7160  203.4340  151.5060 C   0  0  0  0  0  1  0  0  0  0  0  0
  161.4340  203.7320  146.6290 C   0  0  0  0  0  3  0  0  0  0  0  0
  162.0710  205.0890  146.7260 C   0  0  0  0  0  2  0  0  0  0  0  0
  161.6900  205.1980  149.0930 C   0  0  1  0  0  3  0  0  0  0  0  0
  160.5840  201.6690  147.6220 C   0  0  0  0  0  2  0  0  0  0  0  0
  159.4420  212.8600  150.8000 O   0  0  0  0  0  0  0  0  0  0  0  0
  158.5890  212.3860  151.6010 C   0  0  0  0  0  0  0  0  0  0  0  0
  160.2790  210.9210  152.7880 C   0  0  0  0  0  0  0  0  0  0  0  0
  158.9890  211.5280  152.6720 N   0  0  0  0  0  2  0  0  0  0  0  0
  161.1160  211.0320  151.8520 O   0  0  0  0  0  0  0  0  0  0  0  0
  157.1520  212.7160  151.4190 C   0  0  0  0  0  2  0  0  0  0  0  0
  155.2490  214.1770  154.1080 N   0  0  0  0  0  2  0  0  0  0  0  0
  156.6460  213.7560  154.1840 C   0  0  0  0  0  2  0  0  0  0  0  0
  156.9090  214.1200  151.7380 N   0  0  0  0  0  0  0  0  0  0  0  0
  155.4650  214.4150  151.6930 C   0  0  0  0  0  2  0  0  0  0  0  0
  157.4570  214.4140  153.0670 C   0  0  0  0  0  2  0  0  0  0  0  0
  154.7050  213.7340  152.8360 C   0  0  0  0  0  2  0  0  0  0  0  0
  2  6  1  6  0  0  0
  2  9  1  0  0  0  0
  3  4  1  0  0  0  0
  4  9  2  0  0  0  0
  5  1  1  6  0  0  0
  5  3  1  0  0  0  0
  5  2  1  0  0  0  0
  7  6  2  0  0  0  0
  8  1  2  0  0  0  0
  8  7  1  0  0  0  0
 10 15  1  0  0  0  0
 11 14  1  0  0  0  0
 11  8  1  1  0  0  0
 12 14  1  0  0  0  0
 15 13  1  1  0  0  0
 15 11  1  0  0  0  0
 16 10  1  0  0  0  0
 17 16  1  6  0  0  0
 17 12  1  0  0  0  0
 18 27  1  0  0  0  0
 18 20  2  0  0  0  0
 19 20  1  0  0  0  0
 20 24  1  0  0  0  0
 21 19  1  0  0  0  0
 23 18  1  0  0  0  0
 25 26  1  0  0  0  0
 25 23  2  0  0  0  0
 26 22  1  0  0  0  0
 27 22  1  6  0  0  0
 27 17  1  0  0  0  0
 28 23  1  0  0  0  0
 28 21  1  0  0  0  0
 29 30  2  0  0  0  0
 30 32  1  0  0  0  0
 31  1  1  0  0  0  0
 32 31  1  0  0  0  0
 33 31  2  0  0  0  0
 34 30  1  0  0  0  0
 34 37  1  0  0  0  0
 35 36  1  0  0  0  0
 37 39  1  0  0  0  0
 38 37  1  0  0  0  0
 38 40  1  0  0  0  0
 39 36  1  0  0  0  0
 40 35  1  0  0  0  0
M  END
>  <MODEL>
3

>  <REMARK>
 VINA RESULT:      -5.4      2.623      3.584
  Name = 
  5 active torsions:
  status: ('A' for Active; 'I' for Inactive)
    1  A    between atoms: C_1  and  C_20
    2  A    between atoms: N_13  and  C_29
    3  A    between atoms: C_15  and  C_34
    4  A    between atoms: C_19  and  C_29
    5  A    between atoms: C_36  and  C_39
                            x       y       z     vdW  Elec       q    Type
                         _______ _______ _______ _____ _____    ______ ____

>  <TORSDO>
F 5

$$$$
=
 OpenBabel11052410353D

 40 45  0  0  1  0  0  0  0  0999 V2000
  161.5400  209.5730  153.4950 C   0  0  0  0  0  0  0  0  0  0  0  0
  160.9020  210.1060  155.8200 C   0  0  2  0  0  3  0  0  0  0  0  0
  160.9830  211.8410  154.3540 N   0  0  0  0  0  2  0  0  0  0  0  0
  160.1060  212.0930  155.2400 N   0  0  0  0  0  0  0  0  0  0  0  0
  161.6500  210.5750  154.6300 C   0  0  2  0  0  3  0  0  0  0  0  0
  160.8150  208.6870  156.1250 C   0  0  0  0  0  3  0  0  0  0  0  0
  161.0460  207.8450  155.1590 N   0  0  0  0  0  0  0  0  0  0  0  0
  161.3160  208.2600  153.7960 C   0  0  0  0  0  0  0  0  0  0  0  0
  160.0060  211.0120  156.1590 C   0  0  0  0  0  3  0  0  0  0  0  0
  161.8030  204.6440  152.4710 C   0  0  0  0  0  2  0  0  0  0  0  0
  161.4210  207.1930  152.7430 C   0  0  2  0  0  3  0  0  0  0  0  0
  160.1060  206.2640  150.7250 C   0  0  0  0  0  2  0  0  0  0  0  0
  159.8710  205.5220  153.7150 N   0  0  0  0  0  1  0  0  0  0  0  0
  160.5290  207.5010  151.5240 C   0  0  0  0  0  2  0  0  0  0  0  0
  161.2590  205.7830  153.3530 C   0  0  1  0  0  3  0  0  0  0  0  0
  162.3690  205.0880  151.1160 C   0  0  0  0  0  2  0  0  0  0  0  0
  161.2890  205.5280  150.1090 C   0  0  1  0  0  3  0  0  0  0  0  0
  161.2900  204.4880  147.7640 C   0  0  0  0  0  0  0  0  0  0  0  0
  161.7670  205.6700  145.6350 C   0  0  0  0  0  2  0  0  0  0  0  0
  161.2960  205.6420  147.0560 C   0  0  0  0  0  0  0  0  0  0  0  0
  162.8140  204.5930  145.3720 C   0  0  0  0  0  2  0  0  0  0  0  0
  161.0740  203.0900  149.8110 N   0  0  0  0  0  2  0  0  0  0  0  0
  161.6500  203.2140  147.0800 C   0  0  0  0  0  0  0  0  0  0  0  0
  160.6640  206.8950  147.5770 C   0  0  0  0  0  1  0  0  0  0  0  0
  161.3320  202.0470  147.6400 C   0  0  0  0  0  3  0  0  0  0  0  0
  160.6010  202.0150  148.9520 C   0  0  0  0  0  2  0  0  0  0  0  0
  160.7750  204.3940  149.2100 C   0  0  1  0  0  3  0  0  0  0  0  0
  162.2320  203.2220  145.6970 C   0  0  0  0  0  2  0  0  0  0  0  0
  162.4180  211.3960  149.6260 O   0  0  0  0  0  0  0  0  0  0  0  0
  161.3190  211.5930  150.2120 C   0  0  0  0  0  0  0  0  0  0  0  0
  161.8720  210.0310  152.1270 C   0  0  0  0  0  0  0  0  0  0  0  0
  161.0690  211.0380  151.5060 N   0  0  0  0  0  2  0  0  0  0  0  0
  162.8100  209.4870  151.4840 O   0  0  0  0  0  0  0  0  0  0  0  0
  160.2670  212.4020  149.5420 C   0  0  0  0  0  2  0  0  0  0  0  0
  158.6360  213.7100  146.6070 N   0  0  0  0  0  2  0  0  0  0  0  0
  158.7560  214.3950  147.8910 C   0  0  0  0  0  2  0  0  0  0  0  0
  160.8290  213.1200  148.4020 N   0  0  0  0  0  0  0  0  0  0  0  0
  160.5940  212.3670  147.1550 C   0  0  0  0  0  2  0  0  0  0  0  0
  160.2220  214.4530  148.3240 C   0  0  0  0  0  2  0  0  0  0  0  0
  159.1120  212.3460  146.7690 C   0  0  0  0  0  2  0  0  0  0  0  0
  1  8  2  0  0  0  0
  2  6  1  6  0  0  0
  2  9  1  0  0  0  0
  3  5  1  0  0  0  0
  3  4  1  0  0  0  0
  4  9  2  0  0  0  0
  5  1  1  6  0  0  0
  5  2  1  0  0  0  0
  7  6  2  0  0  0  0
  8  7  1  0  0  0  0
 10 15  1  0  0  0  0
 11 15  1  0  0  0  0
 11  8  1  1  0  0  0
 12 14  1  0  0  0  0
 14 11  1  0  0  0  0
 15 13  1  6  0  0  0
 16 10  1  0  0  0  0
 17 12  1  1  0  0  0
 17 16  1  0  0  0  0
 19 20  1  0  0  0  0
 20 24  1  0  0  0  0
 20 18  2  0  0  0  0
 21 19  1  0  0  0  0
 21 28  1  0  0  0  0
 23 25  2  0  0  0  0
 23 18  1  0  0  0  0
 25 26  1  0  0  0  0
 26 22  1  0  0  0  0
 27 18  1  6  0  0  0
 27 22  1  0  0  0  0
 27 17  1  0  0  0  0
 28 23  1  0  0  0  0
 29 30  2  0  0  0  0
 30 32  1  0  0  0  0
 31  1  1  0  0  0  0
 32 31  1  0  0  0  0
 33 31  2  0  0  0  0
 34 30  1  0  0  0  0
 35 40  1  0  0  0  0
 35 36  1  0  0  0  0
 36 39  1  0  0  0  0
 37 34  1  0  0  0  0
 38 37  1  0  0  0  0
 39 37  1  0  0  0  0
 40 38  1  0  0  0  0
M  END
>  <MODEL>
4

>  <REMARK>
 VINA RESULT:      -5.4      2.028      3.248
  Name = 
  5 active torsions:
  status: ('A' for Active; 'I' for Inactive)
    1  A    between atoms: C_1  and  C_20
    2  A    between atoms: N_13  and  C_29
    3  A    between atoms: C_15  and  C_34
    4  A    between atoms: C_19  and  C_29
    5  A    between atoms: C_36  and  C_39
                            x       y       z     vdW  Elec       q    Type
                         _______ _______ _______ _____ _____    ______ ____

>  <TORSDO>
F 5

$$$$
