=
 OpenBabel11042421043D

 36 40  0  0  1  0  0  0  0  0999 V2000
  161.1850  207.5380  152.6410 C   0  0  0  0  0  2  0  0  0  0  0  0
  161.3960  208.1180  151.2790 C   0  0  0  0  0  0  0  0  0  0  0  0
  161.9760  209.3150  151.1620 C   0  0  0  0  0  3  0  0  0  0  0  0
  160.6280  208.6090  153.5780 C   0  0  0  0  0  2  0  0  0  0  0  0
  162.4390  210.0470  152.3880 C   0  0  0  0  0  2  0  0  0  0  0  0
  161.4580  209.9090  153.5680 C   0  0  1  0  0  3  0  0  0  0  0  0
  160.5610  211.1060  153.6500 C   0  0  0  0  0  0  0  0  0  0  0  0
  160.6590  211.8950  154.5790 O   0  0  0  0  0  0  0  0  0  0  0  0
  159.5110  211.3140  152.6060 C   0  0  0  0  0  2  0  0  0  0  0  0
  153.8440  214.4060  157.2350 F   0  0  0  0  0  0  0  0  0  0  0  0
  156.8050  212.3980  155.1690 C   0  0  0  0  0  0  0  0  0  0  0  0
  157.9140  213.0750  152.5540 O   0  0  0  0  0  0  0  0  0  0  0  0
  158.3710  212.0840  153.1830 C   0  0  0  0  0  0  0  0  0  0  0  0
  154.8260  213.7460  156.5720 C   0  0  0  0  0  0  0  0  0  0  0  0
  155.3760  212.5810  157.1040 C   0  0  0  0  0  3  0  0  0  0  0  0
  157.8380  211.7050  154.4580 N   0  0  0  0  0  2  0  0  0  0  0  0
  156.2500  213.5390  154.6670 N   0  0  0  0  0  0  0  0  0  0  0  0
  156.3780  211.9030  156.4060 C   0  0  0  0  0  2  0  0  0  0  0  0
  155.2800  214.2150  155.3380 C   0  0  0  0  0  2  0  0  0  0  0  0
  161.0160  207.3520  150.1280 N   0  0  0  0  0  2  0  0  0  0  0  0
  161.0930  206.8600  147.7990 C   0  0  1  0  0  3  0  0  0  0  0  0
  161.8980  207.1200  148.9920 C   0  0  1  0  0  3  0  0  0  0  0  0
  161.7030  208.1850  147.9970 N   0  0  0  0  0  2  0  0  0  0  0  0
  161.8680  206.1120  146.8080 N   0  0  0  0  0  0  0  0  0  0  0  0
  159.7500  206.1580  145.7430 F   0  0  0  0  0  0  0  0  0  0  0  0
  161.1220  206.0940  145.5420 C   0  0  2  0  0  3  0  0  0  0  0  0
  161.4760  204.8680  144.7190 C   0  0  0  0  0  1  0  0  0  0  0  0
  162.1980  204.7470  147.2710 C   0  0  0  0  0  2  0  0  0  0  0  0
  161.6060  202.9340  148.8180 C   0  0  2  0  0  3  0  0  0  0  0  0
  161.0560  204.0460  148.0070 C   0  0  2  0  0  3  0  0  0  0  0  0
  160.9740  202.7070  147.5810 O   0  0  0  0  0  0  0  0  0  0  0  0
  159.9880  201.1950  149.8910 C   0  0  0  0  0  1  0  0  0  0  0  0
  160.6850  202.5490  150.0050 C   0  0  1  0  0  3  0  0  0  0  0  0
  161.2870  202.7130  151.4140 C   0  0  0  0  0  3  0  0  0  0  0  0
  160.6410  203.8100  152.2460 C   0  0  0  0  0  2  0  0  0  0  0  0
  161.9760  204.0580  151.5650 C   0  0  0  0  0  2  0  0  0  0  0  0
  1  4  1  0  0  0  0
  2  1  1  0  0  0  0
  3  2  2  0  0  0  0
  3  5  1  0  0  0  0
  5  6  1  0  0  0  0
  6  4  1  0  0  0  0
  6  7  1  6  0  0  0
  7  8  2  0  0  0  0
  9 13  1  0  0  0  0
  9  7  1  0  0  0  0
 11 18  1  0  0  0  0
 12 13  2  0  0  0  0
 13 16  1  0  0  0  0
 14 15  2  0  0  0  0
 14 10  1  0  0  0  0
 16 11  1  0  0  0  0
 17 11  2  0  0  0  0
 17 19  1  0  0  0  0
 18 15  1  0  0  0  0
 19 14  1  0  0  0  0
 20  2  1  0  0  0  0
 21 24  1  6  0  0  0
 21 23  1  0  0  0  0
 21 22  1  0  0  0  0
 22 20  1  1  0  0  0
 23 22  1  0  0  0  0
 24 28  1  0  0  0  0
 26 27  1  1  0  0  0
 26 25  1  0  0  0  0
 26 24  1  0  0  0  0
 29 33  1  1  0  0  0
 30 28  1  6  0  0  0
 30 29  1  0  0  0  0
 31 30  1  0  0  0  0
 31 29  1  0  0  0  0
 33 32  1  6  0  0  0
 33 34  1  0  0  0  0
 34 36  1  0  0  0  0
 34 35  1  0  0  0  0
 36 35  1  0  0  0  0
M  END
>  <MODEL>
1

>  <REMARK>
 VINA RESULT:      -7.6      0.000      0.000
  Name = 
  11 active torsions:
  status: ('A' for Active; 'I' for Inactive)
    1  A    between atoms: C_1  and  C_26
    2  A    between atoms: C_7  and  N_27
    3  A    between atoms: C_10  and  N_24
    4  A    between atoms: C_10  and  C_29
    5  A    between atoms: C_12  and  N_24
    6  A    between atoms: C_13  and  N_24
    7  A    between atoms: C_14  and  N_27
    8  A    between atoms: C_15  and  C_22
    9  A    between atoms: C_17  and  C_22
   10  A    between atoms: C_17  and  C_35
   11  A    between atoms: C_25  and  C_26
                            x       y       z     vdW  Elec       q    Type
                         _______ _______ _______ _____ _____    ______ ____

>  <TORSDO>
F 11

$$$$
=
 OpenBabel11042421043D

 36 40  0  0  1  0  0  0  0  0999 V2000
  161.2320  207.7970  152.5980 C   0  0  0  0  0  2  0  0  0  0  0  0
  161.3750  208.0860  151.1380 C   0  0  0  0  0  0  0  0  0  0  0  0
  161.6840  209.3240  150.7450 C   0  0  0  0  0  3  0  0  0  0  0  0
  160.4130  208.9010  153.2670 C   0  0  0  0  0  2  0  0  0  0  0  0
  161.9210  210.3980  151.7670 C   0  0  0  0  0  2  0  0  0  0  0  0
  160.9410  210.3160  152.9530 C   0  0  1  0  0  3  0  0  0  0  0  0
  159.8020  211.2700  152.7620 C   0  0  0  0  0  0  0  0  0  0  0  0
  158.6460  210.8710  152.7820 O   0  0  0  0  0  0  0  0  0  0  0  0
  160.0840  212.7160  152.5040 C   0  0  0  0  0  2  0  0  0  0  0  0
  159.4950  213.8230  144.6610 F   0  0  0  0  0  0  0  0  0  0  0  0
  160.3180  213.1880  148.6590 C   0  0  0  0  0  0  0  0  0  0  0  0
  158.4770  213.4440  150.9110 O   0  0  0  0  0  0  0  0  0  0  0  0
  159.6630  213.0740  151.1200 C   0  0  0  0  0  0  0  0  0  0  0  0
  159.7740  213.5990  145.9690 C   0  0  0  0  0  0  0  0  0  0  0  0
  161.0660  213.2610  146.3670 C   0  0  0  0  0  3  0  0  0  0  0  0
  160.6040  212.9590  150.0440 N   0  0  0  0  0  2  0  0  0  0  0  0
  159.0620  213.5220  148.2470 N   0  0  0  0  0  0  0  0  0  0  0  0
  161.3430  213.0450  147.7190 C   0  0  0  0  0  3  0  0  0  0  0  0
  158.7730  213.7280  146.9340 C   0  0  0  0  0  3  0  0  0  0  0  0
  161.2230  207.0150  150.1970 N   0  0  0  0  0  2  0  0  0  0  0  0
  161.0360  206.6200  147.8560 C   0  0  1  0  0  3  0  0  0  0  0  0
  161.9610  206.9400  148.9430 C   0  0  1  0  0  3  0  0  0  0  0  0
  161.4990  208.0050  148.0400 N   0  0  0  0  0  2  0  0  0  0  0  0
  161.7520  206.0140  146.7320 N   0  0  0  0  0  0  0  0  0  0  0  0
  159.5760  206.1310  145.7980 F   0  0  0  0  0  0  0  0  0  0  0  0
  160.9350  206.1590  145.5190 C   0  0  2  0  0  3  0  0  0  0  0  0
  161.2850  205.0920  144.4980 C   0  0  0  0  0  1  0  0  0  0  0  0
  162.1060  204.6020  146.9910 C   0  0  0  0  0  2  0  0  0  0  0  0
  161.6100  203.0010  148.7850 C   0  0  2  0  0  3  0  0  0  0  0  0
  161.0090  203.8040  147.6950 C   0  0  2  0  0  3  0  0  0  0  0  0
  161.2620  202.4270  147.5490 O   0  0  0  0  0  0  0  0  0  0  0  0
  159.8440  201.3140  149.6930 C   0  0  0  0  0  1  0  0  0  0  0  0
  160.5860  202.6340  149.8900 C   0  0  1  0  0  3  0  0  0  0  0  0
  161.0860  202.7430  151.3440 C   0  0  0  0  0  3  0  0  0  0  0  0
  160.5970  203.9800  152.0810 C   0  0  0  0  0  2  0  0  0  0  0  0
  162.0080  203.9360  151.5210 C   0  0  0  0  0  2  0  0  0  0  0  0
  1  4  1  0  0  0  0
  2  1  1  0  0  0  0
  3  2  2  0  0  0  0
  3  5  1  0  0  0  0
  5  6  1  0  0  0  0
  6  7  1  6  0  0  0
  6  4  1  0  0  0  0
  7  8  2  0  0  0  0
  9  7  1  0  0  0  0
 10 14  1  0  0  0  0
 11 16  1  0  0  0  0
 12 13  2  0  0  0  0
 13  9  1  0  0  0  0
 14 15  1  0  0  0  0
 14 19  2  0  0  0  0
 15 18  2  0  0  0  0
 16 13  1  0  0  0  0
 17 11  2  0  0  0  0
 18 11  1  0  0  0  0
 19 17  1  0  0  0  0
 20  2  1  0  0  0  0
 21 24  1  6  0  0  0
 21 23  1  0  0  0  0
 21 22  1  0  0  0  0
 22 20  1  1  0  0  0
 23 22  1  0  0  0  0
 24 28  1  0  0  0  0
 26 27  1  6  0  0  0
 26 25  1  0  0  0  0
 26 24  1  0  0  0  0
 29 33  1  1  0  0  0
 30 28  1  6  0  0  0
 30 29  1  0  0  0  0
 31 30  1  0  0  0  0
 31 29  1  0  0  0  0
 33 32  1  6  0  0  0
 33 34  1  0  0  0  0
 34 36  1  0  0  0  0
 34 35  1  0  0  0  0
 36 35  1  0  0  0  0
M  END
>  <MODEL>
2

>  <REMARK>
 VINA RESULT:      -7.5      3.493      4.769
  Name = 
  11 active torsions:
  status: ('A' for Active; 'I' for Inactive)
    1  A    between atoms: C_1  and  C_26
    2  A    between atoms: C_7  and  N_27
    3  A    between atoms: C_10  and  N_24
    4  A    between atoms: C_10  and  C_29
    5  A    between atoms: C_12  and  N_24
    6  A    between atoms: C_13  and  N_24
    7  A    between atoms: C_14  and  N_27
    8  A    between atoms: C_15  and  C_22
    9  A    between atoms: C_17  and  C_22
   10  A    between atoms: C_17  and  C_35
   11  A    between atoms: C_25  and  C_26
                            x       y       z     vdW  Elec       q    Type
                         _______ _______ _______ _____ _____    ______ ____

>  <TORSDO>
F 11

$$$$
=
 OpenBabel11042421043D

 36 40  0  0  1  0  0  0  0  0999 V2000
  162.1860  209.8340  152.0590 C   0  0  0  0  0  2  0  0  0  0  0  0
  161.0480  209.1580  152.7550 C   0  0  0  0  0  0  0  0  0  0  0  0
  160.8850  207.8400  152.6110 C   0  0  0  0  0  3  0  0  0  0  0  0
  162.2800  209.3350  150.6170 C   0  0  0  0  0  2  0  0  0  0  0  0
  161.8590  207.0500  151.7870 C   0  0  0  0  0  2  0  0  0  0  0  0
  162.3020  207.7960  150.5140 C   0  0  1  0  0  3  0  0  0  0  0  0
  161.5050  207.3390  149.3310 C   0  0  0  0  0  0  0  0  0  0  0  0
  160.4010  206.8350  149.4810 O   0  0  0  0  0  0  0  0  0  0  0  0
  162.0830  207.4630  147.9570 C   0  0  0  0  0  2  0  0  0  0  0  0
  160.4930  200.0430  145.6100 F   0  0  0  0  0  0  0  0  0  0  0  0
  161.4110  203.6970  147.3060 C   0  0  0  0  0  0  0  0  0  0  0  0
  161.7240  206.2580  145.9400 O   0  0  0  0  0  0  0  0  0  0  0  0
  161.8440  206.2050  147.1930 C   0  0  0  0  0  0  0  0  0  0  0  0
  160.7820  201.2390  146.1800 C   0  0  0  0  0  0  0  0  0  0  0  0
  161.0230  201.3280  147.5490 C   0  0  0  0  0  3  0  0  0  0  0  0
  161.7220  204.9640  147.8980 N   0  0  0  0  0  2  0  0  0  0  0  0
  161.1730  203.5850  145.9680 N   0  0  0  0  0  0  0  0  0  0  0  0
  161.3330  202.5630  148.1220 C   0  0  0  0  0  2  0  0  0  0  0  0
  160.8630  202.3910  145.3950 C   0  0  0  0  0  2  0  0  0  0  0  0
  160.1880  209.9330  153.6010 N   0  0  0  0  0  2  0  0  0  0  0  0
  159.0550  211.8590  154.4220 C   0  0  1  0  0  3  0  0  0  0  0  0
  160.1830  211.3900  153.6200 C   0  0  1  0  0  3  0  0  0  0  0  0
  160.4100  211.8600  154.9940 N   0  0  0  0  0  2  0  0  0  0  0  0
  158.6850  213.2250  154.0440 N   0  0  0  0  0  0  0  0  0  0  0  0
  157.8450  212.9880  156.2480 F   0  0  0  0  0  0  0  0  0  0  0  0
  157.9550  213.8420  155.1590 C   0  0  2  0  0  3  0  0  0  0  0  0
  156.5810  214.3100  154.7160 C   0  0  0  0  0  1  0  0  0  0  0  0
  157.9070  213.2660  152.7870 C   0  0  0  0  0  2  0  0  0  0  0  0
  159.0720  213.3960  150.6300 C   0  0  2  0  0  3  0  0  0  0  0  0
  158.4860  214.2010  151.7270 C   0  0  2  0  0  3  0  0  0  0  0  0
  159.8740  213.9910  151.6210 O   0  0  0  0  0  0  0  0  0  0  0  0
  160.5570  214.4370  148.7590 C   0  0  0  0  0  1  0  0  0  0  0  0
  159.1500  214.1760  149.2920 C   0  0  1  0  0  3  0  0  0  0  0  0
  158.2430  213.6690  148.1540 C   0  0  0  0  0  3  0  0  0  0  0  0
  156.9500  214.4520  147.9900 C   0  0  0  0  0  2  0  0  0  0  0  0
  156.9410  213.1070  148.6970 C   0  0  0  0  0  2  0  0  0  0  0  0
  1  2  1  0  0  0  0
  2 20  1  0  0  0  0
  3  2  2  0  0  0  0
  4  1  1  0  0  0  0
  5  3  1  0  0  0  0
  6  7  1  6  0  0  0
  6  4  1  0  0  0  0
  6  5  1  0  0  0  0
  7  8  2  0  0  0  0
  9  7  1  0  0  0  0
 10 14  1  0  0  0  0
 11 16  1  0  0  0  0
 11 18  1  0  0  0  0
 12 13  2  0  0  0  0
 13 16  1  0  0  0  0
 13  9  1  0  0  0  0
 14 15  2  0  0  0  0
 15 18  1  0  0  0  0
 17 11  2  0  0  0  0
 19 17  1  0  0  0  0
 19 14  1  0  0  0  0
 21 24  1  6  0  0  0
 21 23  1  0  0  0  0
 22 20  1  1  0  0  0
 22 21  1  0  0  0  0
 22 23  1  0  0  0  0
 24 26  1  0  0  0  0
 26 27  1  6  0  0  0
 26 25  1  0  0  0  0
 28 24  1  0  0  0  0
 29 33  1  6  0  0  0
 29 31  1  0  0  0  0
 29 30  1  0  0  0  0
 30 28  1  1  0  0  0
 31 30  1  0  0  0  0
 33 32  1  6  0  0  0
 34 36  1  0  0  0  0
 34 33  1  0  0  0  0
 35 34  1  0  0  0  0
 35 36  1  0  0  0  0
M  END
>  <MODEL>
3

>  <REMARK>
 VINA RESULT:      -7.0      2.956     10.913
  Name = 
  11 active torsions:
  status: ('A' for Active; 'I' for Inactive)
    1  A    between atoms: C_1  and  C_26
    2  A    between atoms: C_7  and  N_27
    3  A    between atoms: C_10  and  N_24
    4  A    between atoms: C_10  and  C_29
    5  A    between atoms: C_12  and  N_24
    6  A    between atoms: C_13  and  N_24
    7  A    between atoms: C_14  and  N_27
    8  A    between atoms: C_15  and  C_22
    9  A    between atoms: C_17  and  C_22
   10  A    between atoms: C_17  and  C_35
   11  A    between atoms: C_25  and  C_26
                            x       y       z     vdW  Elec       q    Type
                         _______ _______ _______ _____ _____    ______ ____

>  <TORSDO>
F 11

$$$$
=
 OpenBabel11042421043D

 36 40  0  0  1  0  0  0  0  0999 V2000
  161.7680  210.4150  151.5680 C   0  0  0  0  0  2  0  0  0  0  0  0
  160.7180  209.6010  152.2540 C   0  0  0  0  0  0  0  0  0  0  0  0
  160.8400  208.2720  152.2870 C   0  0  0  0  0  3  0  0  0  0  0  0
  162.1250  209.7750  150.2270 C   0  0  0  0  0  2  0  0  0  0  0  0
  162.0400  207.6130  151.6720 C   0  0  0  0  0  2  0  0  0  0  0  0
  162.4670  208.2750  150.3480 C   0  0  1  0  0  3  0  0  0  0  0  0
  161.9180  207.5160  149.1790 C   0  0  0  0  0  0  0  0  0  0  0  0
  162.3890  207.6700  148.0610 O   0  0  0  0  0  0  0  0  0  0  0  0
  160.7580  206.5930  149.3750 C   0  0  0  0  0  2  0  0  0  0  0  0
  161.3110  199.2750  146.3370 F   0  0  0  0  0  0  0  0  0  0  0  0
  161.1240  202.8600  148.3830 C   0  0  0  0  0  0  0  0  0  0  0  0
  160.8850  205.5390  147.2490 O   0  0  0  0  0  0  0  0  0  0  0  0
  160.9110  205.3960  148.5000 C   0  0  0  0  0  0  0  0  0  0  0  0
  161.2380  200.4440  147.0210 C   0  0  0  0  0  0  0  0  0  0  0  0
  161.3350  200.4560  148.4110 C   0  0  0  0  0  3  0  0  0  0  0  0
  161.0520  204.1000  149.0960 N   0  0  0  0  0  2  0  0  0  0  0  0
  161.0340  202.8230  147.0230 N   0  0  0  0  0  0  0  0  0  0  0  0
  161.2710  201.6680  149.1020 C   0  0  0  0  0  2  0  0  0  0  0  0
  161.0870  201.6510  146.3350 C   0  0  0  0  0  2  0  0  0  0  0  0
  159.6280  210.2720  152.9020 N   0  0  0  0  0  2  0  0  0  0  0  0
  158.4750  211.9840  154.0880 C   0  0  1  0  0  3  0  0  0  0  0  0
  159.7910  211.4800  153.7000 C   0  0  1  0  0  3  0  0  0  0  0  0
  159.2890  211.2370  155.0610 N   0  0  0  0  0  2  0  0  0  0  0  0
  158.5410  213.4140  154.3960 N   0  0  0  0  0  0  0  0  0  0  0  0
  157.7270  213.5240  156.6190 F   0  0  0  0  0  0  0  0  0  0  0  0
  157.4240  213.7570  155.2850 C   0  0  2  0  0  3  0  0  0  0  0  0
  156.1650  213.0040  154.8920 C   0  0  0  0  0  1  0  0  0  0  0  0
  158.5480  214.2490  153.1750 C   0  0  0  0  0  2  0  0  0  0  0  0
  158.3310  214.3900  150.7330 C   0  0  2  0  0  3  0  0  0  0  0  0
  158.1770  213.4910  151.9010 C   0  0  2  0  0  3  0  0  0  0  0  0
  157.0700  214.1100  151.2910 O   0  0  0  0  0  0  0  0  0  0  0  0
  157.3050  213.4080  148.5480 C   0  0  0  0  0  1  0  0  0  0  0  0
  158.5500  213.6160  149.4080 C   0  0  1  0  0  3  0  0  0  0  0  0
  159.7220  214.0920  148.5280 C   0  0  0  0  0  3  0  0  0  0  0  0
  160.8650  213.0950  148.4160 C   0  0  0  0  0  2  0  0  0  0  0  0
  160.9840  214.2870  149.3500 C   0  0  0  0  0  2  0  0  0  0  0  0
  1  2  1  0  0  0  0
  2  3  2  0  0  0  0
  2 20  1  0  0  0  0
  4  6  1  0  0  0  0
  4  1  1  0  0  0  0
  5  3  1  0  0  0  0
  6  7  1  6  0  0  0
  6  5  1  0  0  0  0
  7  9  1  0  0  0  0
  8  7  2  0  0  0  0
 10 14  1  0  0  0  0
 11 16  1  0  0  0  0
 11 18  1  0  0  0  0
 12 13  2  0  0  0  0
 13 16  1  0  0  0  0
 13  9  1  0  0  0  0
 14 15  2  0  0  0  0
 15 18  1  0  0  0  0
 17 11  2  0  0  0  0
 19 14  1  0  0  0  0
 19 17  1  0  0  0  0
 21 24  1  1  0  0  0
 21 23  1  0  0  0  0
 22 20  1  6  0  0  0
 22 21  1  0  0  0  0
 22 23  1  0  0  0  0
 24 26  1  0  0  0  0
 26 27  1  6  0  0  0
 26 25  1  0  0  0  0
 28 24  1  0  0  0  0
 29 33  1  6  0  0  0
 29 31  1  0  0  0  0
 29 30  1  0  0  0  0
 30 28  1  1  0  0  0
 31 30  1  0  0  0  0
 33 32  1  6  0  0  0
 34 36  1  0  0  0  0
 34 33  1  0  0  0  0
 35 34  1  0  0  0  0
 35 36  1  0  0  0  0
M  END
>  <MODEL>
4

>  <REMARK>
 VINA RESULT:      -7.0      2.937     10.909
  Name = 
  11 active torsions:
  status: ('A' for Active; 'I' for Inactive)
    1  A    between atoms: C_1  and  C_26
    2  A    between atoms: C_7  and  N_27
    3  A    between atoms: C_10  and  N_24
    4  A    between atoms: C_10  and  C_29
    5  A    between atoms: C_12  and  N_24
    6  A    between atoms: C_13  and  N_24
    7  A    between atoms: C_14  and  N_27
    8  A    between atoms: C_15  and  C_22
    9  A    between atoms: C_17  and  C_22
   10  A    between atoms: C_17  and  C_35
   11  A    between atoms: C_25  and  C_26
                            x       y       z     vdW  Elec       q    Type
                         _______ _______ _______ _____ _____    ______ ____

>  <TORSDO>
F 11

$$$$
=
 OpenBabel11042421043D

 36 40  0  0  1  0  0  0  0  0999 V2000
  160.5730  208.1040  154.8530 C   0  0  0  0  0  2  0  0  0  0  0  0
  160.9240  209.4820  154.3900 C   0  0  0  0  0  0  0  0  0  0  0  0
  160.8420  209.7740  153.0890 C   0  0  0  0  0  3  0  0  0  0  0  0
  161.2100  207.0690  153.9270 C   0  0  0  0  0  2  0  0  0  0  0  0
  160.3670  208.7350  152.1160 C   0  0  0  0  0  2  0  0  0  0  0  0
  160.9090  207.3290  152.4370 C   0  0  1  0  0  3  0  0  0  0  0  0
  162.1120  207.0250  151.5980 C   0  0  0  0  0  0  0  0  0  0  0  0
  162.9430  206.2090  151.9730 O   0  0  0  0  0  0  0  0  0  0  0  0
  162.3190  207.7550  150.3090 C   0  0  0  0  0  2  0  0  0  0  0  0
  160.8200  201.6260  145.4850 F   0  0  0  0  0  0  0  0  0  0  0  0
  161.5080  204.4810  148.3910 C   0  0  0  0  0  0  0  0  0  0  0  0
  162.5170  207.1940  148.0080 O   0  0  0  0  0  0  0  0  0  0  0  0
  162.2140  206.8030  149.1670 C   0  0  0  0  0  0  0  0  0  0  0  0
  161.0300  202.5590  146.4460 C   0  0  0  0  0  0  0  0  0  0  0  0
  160.8160  202.2490  147.7880 C   0  0  0  0  0  3  0  0  0  0  0  0
  161.7380  205.4720  149.4000 N   0  0  0  0  0  2  0  0  0  0  0  0
  161.7120  204.7600  147.0710 N   0  0  0  0  0  0  0  0  0  0  0  0
  161.0480  203.2160  148.7700 C   0  0  0  0  0  2  0  0  0  0  0  0
  161.4840  203.8340  146.1020 C   0  0  0  0  0  2  0  0  0  0  0  0
  161.2940  210.4710  155.3600 N   0  0  0  0  0  2  0  0  0  0  0  0
  159.1230  211.4410  155.4790 C   0  0  1  0  0  3  0  0  0  0  0  0
  160.5570  211.7120  155.5610 C   0  0  1  0  0  3  0  0  0  0  0  0
  159.7620  211.6130  156.7940 N   0  0  0  0  0  2  0  0  0  0  0  0
  158.3870  212.6590  155.1340 N   0  0  0  0  0  0  0  0  0  0  0  0
  156.1220  213.3440  155.2660 F   0  0  0  0  0  0  0  0  0  0  0  0
  156.9780  212.3110  154.9100 C   0  0  2  0  0  3  0  0  0  0  0  0
  156.6070  211.0410  155.6540 C   0  0  0  0  0  1  0  0  0  0  0  0
  158.9740  213.3550  153.9680 C   0  0  0  0  0  2  0  0  0  0  0  0
  158.6320  214.0590  151.6410 C   0  0  2  0  0  3  0  0  0  0  0  0
  158.3050  213.0120  152.6370 C   0  0  2  0  0  3  0  0  0  0  0  0
  157.3880  214.0250  152.2980 O   0  0  0  0  0  0  0  0  0  0  0  0
  157.1090  213.5500  149.5880 C   0  0  0  0  0  1  0  0  0  0  0  0
  158.5170  213.5500  150.1810 C   0  0  1  0  0  3  0  0  0  0  0  0
  159.5120  214.1530  149.1700 C   0  0  0  0  0  3  0  0  0  0  0  0
  159.9590  213.1890  148.0830 C   0  0  0  0  0  2  0  0  0  0  0  0
  160.8690  213.4780  149.2650 C   0  0  0  0  0  2  0  0  0  0  0  0
  2  1  1  0  0  0  0
  2 20  1  0  0  0  0
  3  2  2  0  0  0  0
  4  1  1  0  0  0  0
  5  6  1  0  0  0  0
  5  3  1  0  0  0  0
  6  7  1  6  0  0  0
  6  4  1  0  0  0  0
  7  8  2  0  0  0  0
  9  7  1  0  0  0  0
 10 14  1  0  0  0  0
 11 18  1  0  0  0  0
 11 16  1  0  0  0  0
 12 13  2  0  0  0  0
 13 16  1  0  0  0  0
 13  9  1  0  0  0  0
 14 15  2  0  0  0  0
 15 18  1  0  0  0  0
 17 11  2  0  0  0  0
 19 14  1  0  0  0  0
 19 17  1  0  0  0  0
 21 24  1  6  0  0  0
 21 22  1  0  0  0  0
 21 23  1  0  0  0  0
 22 20  1  1  0  0  0
 22 23  1  0  0  0  0
 26 24  1  0  0  0  0
 26 25  1  0  0  0  0
 26 27  1  1  0  0  0
 28 24  1  0  0  0  0
 29 33  1  6  0  0  0
 29 31  1  0  0  0  0
 29 30  1  0  0  0  0
 30 28  1  1  0  0  0
 31 30  1  0  0  0  0
 33 32  1  6  0  0  0
 34 36  1  0  0  0  0
 34 33  1  0  0  0  0
 35 34  1  0  0  0  0
 35 36  1  0  0  0  0
M  END
>  <MODEL>
5

>  <REMARK>
 VINA RESULT:      -6.9      2.666     10.440
  Name = 
  11 active torsions:
  status: ('A' for Active; 'I' for Inactive)
    1  A    between atoms: C_1  and  C_26
    2  A    between atoms: C_7  and  N_27
    3  A    between atoms: C_10  and  N_24
    4  A    between atoms: C_10  and  C_29
    5  A    between atoms: C_12  and  N_24
    6  A    between atoms: C_13  and  N_24
    7  A    between atoms: C_14  and  N_27
    8  A    between atoms: C_15  and  C_22
    9  A    between atoms: C_17  and  C_22
   10  A    between atoms: C_17  and  C_35
   11  A    between atoms: C_25  and  C_26
                            x       y       z     vdW  Elec       q    Type
                         _______ _______ _______ _____ _____    ______ ____

>  <TORSDO>
F 11

$$$$
=
 OpenBabel11042421043D

 36 40  0  0  1  0  0  0  0  0999 V2000
  161.0800  212.2100  149.2850 C   0  0  0  0  0  2  0  0  0  0  0  0
  162.1980  211.3640  148.7660 C   0  0  0  0  0  0  0  0  0  0  0  0
  163.0450  211.8790  147.8710 C   0  0  0  0  0  3  0  0  0  0  0  0
  160.4100  212.9500  148.1270 C   0  0  0  0  0  2  0  0  0  0  0  0
  162.8900  213.3040  147.4250 C   0  0  0  0  0  2  0  0  0  0  0  0
  161.4150  213.7100  147.2370 C   0  0  1  0  0  3  0  0  0  0  0  0
  161.0200  213.6080  145.7960 C   0  0  0  0  0  0  0  0  0  0  0  0
  161.6010  214.2660  144.9440 O   0  0  0  0  0  0  0  0  0  0  0  0
  159.8800  212.7250  145.4030 C   0  0  0  0  0  2  0  0  0  0  0  0
  160.2780  211.0630  137.6450 F   0  0  0  0  0  0  0  0  0  0  0  0
  160.5010  211.6290  141.7320 C   0  0  0  0  0  0  0  0  0  0  0  0
  158.8900  213.4380  143.3620 O   0  0  0  0  0  0  0  0  0  0  0  0
  159.7480  212.7010  143.9180 C   0  0  0  0  0  0  0  0  0  0  0  0
  160.3520  211.2310  138.9890 C   0  0  0  0  0  0  0  0  0  0  0  0
  161.3090  210.5440  139.7340 C   0  0  0  0  0  3  0  0  0  0  0  0
  160.5750  211.8180  143.1500 N   0  0  0  0  0  2  0  0  0  0  0  0
  159.5750  212.2920  140.9820 N   0  0  0  0  0  0  0  0  0  0  0  0
  161.3830  210.7350  141.1160 C   0  0  0  0  0  2  0  0  0  0  0  0
  159.4840  212.1120  139.6370 C   0  0  0  0  0  2  0  0  0  0  0  0
  162.3640  210.0350  149.2780 N   0  0  0  0  0  2  0  0  0  0  0  0
  162.2610  208.3290  150.9360 C   0  0  1  0  0  3  0  0  0  0  0  0
  161.5790  209.4980  150.3820 C   0  0  1  0  0  3  0  0  0  0  0  0
  162.3450  209.6230  151.6310 N   0  0  0  0  0  2  0  0  0  0  0  0
  161.3110  207.4620  151.6360 N   0  0  0  0  0  0  0  0  0  0  0  0
  163.1220  206.0530  152.2300 F   0  0  0  0  0  0  0  0  0  0  0  0
  162.0220  206.7510  152.7070 C   0  0  2  0  0  3  0  0  0  0  0  0
  161.0870  205.8150  153.4520 C   0  0  0  0  0  1  0  0  0  0  0  0
  160.6240  206.5280  150.7180 C   0  0  0  0  0  2  0  0  0  0  0  0
  160.7570  204.5950  149.2110 C   0  0  2  0  0  3  0  0  0  0  0  0
  161.5600  205.5410  150.0200 C   0  0  2  0  0  3  0  0  0  0  0  0
  161.2820  204.2350  150.4660 O   0  0  0  0  0  0  0  0  0  0  0  0
  161.3480  202.4670  147.8270 C   0  0  0  0  0  1  0  0  0  0  0  0
  161.5710  203.9600  148.0530 C   0  0  1  0  0  3  0  0  0  0  0  0
  161.5320  204.7070  146.7050 C   0  0  0  0  0  3  0  0  0  0  0  0
  162.8780  204.8000  146.0030 C   0  0  0  0  0  2  0  0  0  0  0  0
  162.3330  205.9950  146.7660 C   0  0  0  0  0  2  0  0  0  0  0  0
  2 20  1  0  0  0  0
  2  1  1  0  0  0  0
  3  2  2  0  0  0  0
  4  1  1  0  0  0  0
  5  3  1  0  0  0  0
  6  7  1  6  0  0  0
  6  5  1  0  0  0  0
  6  4  1  0  0  0  0
  8  7  2  0  0  0  0
  9  7  1  0  0  0  0
 10 14  1  0  0  0  0
 11 16  1  0  0  0  0
 12 13  2  0  0  0  0
 13  9  1  0  0  0  0
 14 19  1  0  0  0  0
 14 15  2  0  0  0  0
 15 18  1  0  0  0  0
 16 13  1  0  0  0  0
 17 11  2  0  0  0  0
 18 11  1  0  0  0  0
 19 17  1  0  0  0  0
 21 23  1  0  0  0  0
 21 24  1  1  0  0  0
 22 20  1  6  0  0  0
 22 21  1  0  0  0  0
 22 23  1  0  0  0  0
 24 26  1  0  0  0  0
 25 26  1  0  0  0  0
 26 27  1  6  0  0  0
 28 24  1  0  0  0  0
 29 33  1  6  0  0  0
 29 30  1  0  0  0  0
 29 31  1  0  0  0  0
 30 31  1  0  0  0  0
 30 28  1  1  0  0  0
 33 32  1  6  0  0  0
 34 36  1  0  0  0  0
 34 33  1  0  0  0  0
 35 34  1  0  0  0  0
 35 36  1  0  0  0  0
M  END
>  <MODEL>
6

>  <REMARK>
 VINA RESULT:      -6.7      5.325      9.415
  Name = 
  11 active torsions:
  status: ('A' for Active; 'I' for Inactive)
    1  A    between atoms: C_1  and  C_26
    2  A    between atoms: C_7  and  N_27
    3  A    between atoms: C_10  and  N_24
    4  A    between atoms: C_10  and  C_29
    5  A    between atoms: C_12  and  N_24
    6  A    between atoms: C_13  and  N_24
    7  A    between atoms: C_14  and  N_27
    8  A    between atoms: C_15  and  C_22
    9  A    between atoms: C_17  and  C_22
   10  A    between atoms: C_17  and  C_35
   11  A    between atoms: C_25  and  C_26
                            x       y       z     vdW  Elec       q    Type
                         _______ _______ _______ _____ _____    ______ ____

>  <TORSDO>
F 11

$$$$
=
 OpenBabel11042421043D

 36 40  0  0  1  0  0  0  0  0999 V2000
  162.6990  206.7110  151.6790 C   0  0  0  0  0  2  0  0  0  0  0  0
  161.4530  207.2230  152.3280 C   0  0  0  0  0  0  0  0  0  0  0  0
  160.7190  206.3940  153.0750 C   0  0  0  0  0  3  0  0  0  0  0  0
  162.4280  205.3480  151.0410 C   0  0  0  0  0  2  0  0  0  0  0  0
  161.1680  204.9770  153.2860 C   0  0  0  0  0  2  0  0  0  0  0  0
  161.7680  204.3500  152.0130 C   0  0  1  0  0  3  0  0  0  0  0  0
  160.7420  203.5240  151.2990 C   0  0  0  0  0  0  0  0  0  0  0  0
  159.5500  203.7700  151.4220 O   0  0  0  0  0  0  0  0  0  0  0  0
  161.1780  202.3640  150.4630 C   0  0  0  0  0  2  0  0  0  0  0  0
  161.5460  205.3870  143.1260 F   0  0  0  0  0  0  0  0  0  0  0  0
  161.5790  204.2620  147.1020 C   0  0  0  0  0  0  0  0  0  0  0  0
  160.3430  201.8970  148.2870 O   0  0  0  0  0  0  0  0  0  0  0  0
  160.9970  202.6870  149.0180 C   0  0  0  0  0  0  0  0  0  0  0  0
  161.5740  205.0220  144.4320 C   0  0  0  0  0  0  0  0  0  0  0  0
  162.1920  205.8360  145.3790 C   0  0  0  0  0  3  0  0  0  0  0  0
  161.5980  203.8710  148.4800 N   0  0  0  0  0  2  0  0  0  0  0  0
  160.9780  203.4820  146.1580 N   0  0  0  0  0  0  0  0  0  0  0  0
  162.2030  205.4550  146.7230 C   0  0  0  0  0  2  0  0  0  0  0  0
  160.9650  203.8350  144.8440 C   0  0  0  0  0  2  0  0  0  0  0  0
  161.1020  208.6040  152.1720 N   0  0  0  0  0  2  0  0  0  0  0  0
  161.5630  209.1420  154.4450 C   0  0  1  0  0  3  0  0  0  0  0  0
  160.7350  209.4680  153.2850 C   0  0  1  0  0  3  0  0  0  0  0  0
  161.8760  210.3280  153.6330 N   0  0  0  0  0  2  0  0  0  0  0  0
  160.9040  209.5610  155.6840 N   0  0  0  0  0  0  0  0  0  0  0  0
  162.3330  207.9560  156.6840 F   0  0  0  0  0  0  0  0  0  0  0  0
  161.0540  208.4930  156.6820 C   0  0  2  0  0  3  0  0  0  0  0  0
  160.0240  207.3990  156.4660 C   0  0  0  0  0  1  0  0  0  0  0  0
  159.4850  209.9180  155.4690 C   0  0  0  0  0  2  0  0  0  0  0  0
  158.1870  211.9610  155.0590 C   0  0  2  0  0  3  0  0  0  0  0  0
  159.1010  211.2930  156.0150 C   0  0  2  0  0  3  0  0  0  0  0  0
  159.5520  212.2930  155.1330 O   0  0  0  0  0  0  0  0  0  0  0  0
  157.4300  214.4530  155.1630 C   0  0  0  0  0  1  0  0  0  0  0  0
  157.3030  213.0420  155.7340 C   0  0  1  0  0  3  0  0  0  0  0  0
  155.8160  212.6840  155.9240 C   0  0  0  0  0  3  0  0  0  0  0  0
  155.5160  211.9170  157.2020 C   0  0  0  0  0  2  0  0  0  0  0  0
  155.6010  211.1820  155.8750 C   0  0  0  0  0  2  0  0  0  0  0  0
  1  2  1  0  0  0  0
  2  3  2  0  0  0  0
  3  5  1  0  0  0  0
  4  1  1  0  0  0  0
  4  6  1  0  0  0  0
  6  7  1  6  0  0  0
  6  5  1  0  0  0  0
  7  8  2  0  0  0  0
  9  7  1  0  0  0  0
 10 14  1  0  0  0  0
 11 16  1  0  0  0  0
 12 13  2  0  0  0  0
 13  9  1  0  0  0  0
 14 19  1  0  0  0  0
 14 15  2  0  0  0  0
 15 18  1  0  0  0  0
 16 13  1  0  0  0  0
 17 11  2  0  0  0  0
 18 11  1  0  0  0  0
 19 17  1  0  0  0  0
 20  2  1  0  0  0  0
 21 24  1  1  0  0  0
 22 20  1  6  0  0  0
 22 23  1  0  0  0  0
 22 21  1  0  0  0  0
 23 21  1  0  0  0  0
 24 26  1  0  0  0  0
 26 27  1  6  0  0  0
 26 25  1  0  0  0  0
 28 24  1  0  0  0  0
 29 31  1  0  0  0  0
 29 33  1  1  0  0  0
 29 30  1  0  0  0  0
 30 28  1  6  0  0  0
 31 30  1  0  0  0  0
 33 32  1  6  0  0  0
 33 34  1  0  0  0  0
 34 35  1  0  0  0  0
 36 34  1  0  0  0  0
 36 35  1  0  0  0  0
M  END
>  <MODEL>
7

>  <REMARK>
 VINA RESULT:      -6.6      2.782     10.762
  Name = 
  11 active torsions:
  status: ('A' for Active; 'I' for Inactive)
    1  A    between atoms: C_1  and  C_26
    2  A    between atoms: C_7  and  N_27
    3  A    between atoms: C_10  and  N_24
    4  A    between atoms: C_10  and  C_29
    5  A    between atoms: C_12  and  N_24
    6  A    between atoms: C_13  and  N_24
    7  A    between atoms: C_14  and  N_27
    8  A    between atoms: C_15  and  C_22
    9  A    between atoms: C_17  and  C_22
   10  A    between atoms: C_17  and  C_35
   11  A    between atoms: C_25  and  C_26
                            x       y       z     vdW  Elec       q    Type
                         _______ _______ _______ _____ _____    ______ ____

>  <TORSDO>
F 11

$$$$
=
 OpenBabel11042421043D

 36 40  0  0  1  0  0  0  0  0999 V2000
  158.0090  214.0330  150.9800 C   0  0  0  0  0  2  0  0  0  0  0  0
  159.3730  213.4490  151.1700 C   0  0  0  0  0  0  0  0  0  0  0  0
  160.2690  213.5500  150.1850 C   0  0  0  0  0  3  0  0  0  0  0  0
  157.4770  213.6650  149.5950 C   0  0  0  0  0  2  0  0  0  0  0  0
  159.9140  214.2750  148.9200 C   0  0  0  0  0  2  0  0  0  0  0  0
  158.4690  213.9980  148.4620 C   0  0  1  0  0  3  0  0  0  0  0  0
  158.4460  212.9280  147.4130 C   0  0  0  0  0  0  0  0  0  0  0  0
  157.4320  212.2740  147.2140 O   0  0  0  0  0  0  0  0  0  0  0  0
  159.6850  212.6320  146.6320 C   0  0  0  0  0  2  0  0  0  0  0  0
  159.3620  212.7100  138.6950 F   0  0  0  0  0  0  0  0  0  0  0  0
  159.9080  212.3080  142.7710 C   0  0  0  0  0  0  0  0  0  0  0  0
  158.7100  213.9210  144.8890 O   0  0  0  0  0  0  0  0  0  0  0  0
  159.4670  212.9610  145.1940 C   0  0  0  0  0  0  0  0  0  0  0  0
  159.5390  212.5600  140.0310 C   0  0  0  0  0  0  0  0  0  0  0  0
  160.4120  211.5910  140.5230 C   0  0  0  0  0  3  0  0  0  0  0  0
  160.0930  212.1610  144.1840 N   0  0  0  0  0  2  0  0  0  0  0  0
  159.0600  213.2500  142.2670 N   0  0  0  0  0  0  0  0  0  0  0  0
  160.5950  211.4550  141.9010 C   0  0  0  0  0  3  0  0  0  0  0  0
  158.8640  213.3910  140.9280 C   0  0  0  0  0  3  0  0  0  0  0  0
  159.7020  212.8370  152.4250 N   0  0  0  0  0  2  0  0  0  0  0  0
  160.1560  211.0580  153.9390 C   0  0  1  0  0  3  0  0  0  0  0  0
  159.4270  211.4400  152.7320 C   0  0  1  0  0  3  0  0  0  0  0  0
  158.7170  211.3530  154.0160 N   0  0  0  0  0  2  0  0  0  0  0  0
  160.3580  209.6080  153.9830 N   0  0  0  0  0  0  0  0  0  0  0  0
  162.0540  209.2340  155.5970 F   0  0  0  0  0  0  0  0  0  0  0  0
  160.6860  209.2180  155.3610 C   0  0  2  0  0  3  0  0  0  0  0  0
  160.1110  207.8530  155.6910 C   0  0  0  0  0  1  0  0  0  0  0  0
  161.3900  209.1580  153.0240 C   0  0  0  0  0  2  0  0  0  0  0  0
  161.8530  207.4680  151.3040 C   0  0  2  0  0  3  0  0  0  0  0  0
  160.8310  208.4130  151.8120 C   0  0  2  0  0  3  0  0  0  0  0  0
  161.6130  208.7050  150.6780 O   0  0  0  0  0  0  0  0  0  0  0  0
  161.3360  206.4090  148.9790 C   0  0  0  0  0  1  0  0  0  0  0  0
  161.2350  206.2960  150.4990 C   0  0  1  0  0  3  0  0  0  0  0  0
  161.6350  204.8770  150.9480 C   0  0  0  0  0  3  0  0  0  0  0  0
  160.4590  203.9550  151.2300 C   0  0  0  0  0  2  0  0  0  0  0  0
  161.2050  204.6100  152.3800 C   0  0  0  0  0  2  0  0  0  0  0  0
  1  2  1  0  0  0  0
  2 20  1  0  0  0  0
  3  2  2  0  0  0  0
  4  1  1  0  0  0  0
  5  3  1  0  0  0  0
  6  7  1  6  0  0  0
  6  5  1  0  0  0  0
  6  4  1  0  0  0  0
  8  7  2  0  0  0  0
  9  7  1  0  0  0  0
 10 14  1  0  0  0  0
 11 16  1  0  0  0  0
 12 13  2  0  0  0  0
 13  9  1  0  0  0  0
 14 15  1  0  0  0  0
 14 19  2  0  0  0  0
 15 18  2  0  0  0  0
 16 13  1  0  0  0  0
 17 11  2  0  0  0  0
 18 11  1  0  0  0  0
 19 17  1  0  0  0  0
 21 24  1  6  0  0  0
 21 23  1  0  0  0  0
 22 20  1  1  0  0  0
 22 21  1  0  0  0  0
 22 23  1  0  0  0  0
 24 26  1  0  0  0  0
 26 25  1  0  0  0  0
 26 27  1  6  0  0  0
 28 24  1  0  0  0  0
 29 33  1  6  0  0  0
 29 30  1  0  0  0  0
 30 28  1  1  0  0  0
 31 29  1  0  0  0  0
 31 30  1  0  0  0  0
 33 32  1  6  0  0  0
 33 34  1  0  0  0  0
 34 35  1  0  0  0  0
 34 36  1  0  0  0  0
 35 36  1  0  0  0  0
M  END
>  <MODEL>
8

>  <REMARK>
 VINA RESULT:      -6.6      5.134      9.426
  Name = 
  11 active torsions:
  status: ('A' for Active; 'I' for Inactive)
    1  A    between atoms: C_1  and  C_26
    2  A    between atoms: C_7  and  N_27
    3  A    between atoms: C_10  and  N_24
    4  A    between atoms: C_10  and  C_29
    5  A    between atoms: C_12  and  N_24
    6  A    between atoms: C_13  and  N_24
    7  A    between atoms: C_14  and  N_27
    8  A    between atoms: C_15  and  C_22
    9  A    between atoms: C_17  and  C_22
   10  A    between atoms: C_17  and  C_35
   11  A    between atoms: C_25  and  C_26
                            x       y       z     vdW  Elec       q    Type
                         _______ _______ _______ _____ _____    ______ ____

>  <TORSDO>
F 11

$$$$
=
 OpenBabel11042421043D

 36 40  0  0  1  0  0  0  0  0999 V2000
  162.0160  206.1730  152.1380 C   0  0  0  0  0  2  0  0  0  0  0  0
  161.2630  207.1760  151.3250 C   0  0  0  0  0  0  0  0  0  0  0  0
  161.0820  208.4070  151.8110 C   0  0  0  0  0  3  0  0  0  0  0  0
  161.5410  206.2210  153.5900 C   0  0  0  0  0  2  0  0  0  0  0  0
  161.6650  208.7800  153.1430 C   0  0  0  0  0  2  0  0  0  0  0  0
  161.5510  207.6460  154.1800 C   0  0  1  0  0  3  0  0  0  0  0  0
  160.3600  207.8570  155.0620 C   0  0  0  0  0  0  0  0  0  0  0  0
  159.3890  207.1180  154.9850 O   0  0  0  0  0  0  0  0  0  0  0  0
  160.3420  209.0070  156.0180 C   0  0  0  0  0  2  0  0  0  0  0  0
  155.0230  214.3580  153.5350 F   0  0  0  0  0  0  0  0  0  0  0  0
  157.3810  211.2520  154.8970 C   0  0  0  0  0  0  0  0  0  0  0  0
  160.2980  211.1270  154.9440 O   0  0  0  0  0  0  0  0  0  0  0  0
  159.6290  210.1640  155.4040 C   0  0  0  0  0  0  0  0  0  0  0  0
  155.7860  213.3370  153.9970 C   0  0  0  0  0  0  0  0  0  0  0  0
  155.1910  212.1670  154.4640 C   0  0  0  0  0  3  0  0  0  0  0  0
  158.1960  210.1760  155.3770 N   0  0  0  0  0  2  0  0  0  0  0  0
  157.9410  212.4060  154.4330 N   0  0  0  0  0  0  0  0  0  0  0  0
  155.9890  211.1170  154.9250 C   0  0  0  0  0  2  0  0  0  0  0  0
  157.1790  213.4400  153.9880 C   0  0  0  0  0  2  0  0  0  0  0  0
  160.7930  206.8070  150.0210 N   0  0  0  0  0  2  0  0  0  0  0  0
  160.8290  206.7530  147.6420 C   0  0  1  0  0  3  0  0  0  0  0  0
  161.6540  206.7400  148.8480 C   0  0  1  0  0  3  0  0  0  0  0  0
  161.5170  207.9810  148.0710 N   0  0  0  0  0  2  0  0  0  0  0  0
  161.5530  206.1590  146.5160 N   0  0  0  0  0  0  0  0  0  0  0  0
  159.3460  206.0850  145.6530 F   0  0  0  0  0  0  0  0  0  0  0  0
  160.6900  206.1970  145.3270 C   0  0  2  0  0  3  0  0  0  0  0  0
  161.0830  205.1160  144.3360 C   0  0  0  0  0  1  0  0  0  0  0  0
  162.0200  204.7870  146.8130 C   0  0  0  0  0  2  0  0  0  0  0  0
  161.5650  202.9620  148.3910 C   0  0  2  0  0  3  0  0  0  0  0  0
  160.9440  203.8780  147.4060 C   0  0  2  0  0  3  0  0  0  0  0  0
  161.2340  202.5380  147.0910 O   0  0  0  0  0  0  0  0  0  0  0  0
  159.6060  201.3360  148.9470 C   0  0  0  0  0  1  0  0  0  0  0  0
  160.5500  202.4320  149.4370 C   0  0  1  0  0  3  0  0  0  0  0  0
  161.1280  202.0500  150.8130 C   0  0  0  0  0  3  0  0  0  0  0  0
  160.5760  202.8670  151.9710 C   0  0  0  0  0  2  0  0  0  0  0  0
  161.9470  203.1860  151.4000 C   0  0  0  0  0  2  0  0  0  0  0  0
  1  4  1  0  0  0  0
  2  3  2  0  0  0  0
  2  1  1  0  0  0  0
  3  5  1  0  0  0  0
  4  6  1  0  0  0  0
  5  6  1  0  0  0  0
  6  7  1  6  0  0  0
  7  9  1  0  0  0  0
  8  7  2  0  0  0  0
 10 14  1  0  0  0  0
 11 18  1  0  0  0  0
 11 16  1  0  0  0  0
 12 13  2  0  0  0  0
 13  9  1  0  0  0  0
 14 15  2  0  0  0  0
 15 18  1  0  0  0  0
 16 13  1  0  0  0  0
 17 11  2  0  0  0  0
 19 14  1  0  0  0  0
 19 17  1  0  0  0  0
 20  2  1  0  0  0  0
 21 24  1  6  0  0  0
 21 23  1  0  0  0  0
 21 22  1  0  0  0  0
 22 20  1  1  0  0  0
 23 22  1  0  0  0  0
 24 28  1  0  0  0  0
 26 27  1  6  0  0  0
 26 25  1  0  0  0  0
 26 24  1  0  0  0  0
 29 33  1  1  0  0  0
 30 28  1  6  0  0  0
 30 29  1  0  0  0  0
 31 30  1  0  0  0  0
 31 29  1  0  0  0  0
 33 32  1  6  0  0  0
 33 34  1  0  0  0  0
 34 36  1  0  0  0  0
 34 35  1  0  0  0  0
 36 35  1  0  0  0  0
M  END
>  <MODEL>
9

>  <REMARK>
 VINA RESULT:      -6.5      1.596      2.081
  Name = 
  11 active torsions:
  status: ('A' for Active; 'I' for Inactive)
    1  A    between atoms: C_1  and  C_26
    2  A    between atoms: C_7  and  N_27
    3  A    between atoms: C_10  and  N_24
    4  A    between atoms: C_10  and  C_29
    5  A    between atoms: C_12  and  N_24
    6  A    between atoms: C_13  and  N_24
    7  A    between atoms: C_14  and  N_27
    8  A    between atoms: C_15  and  C_22
    9  A    between atoms: C_17  and  C_22
   10  A    between atoms: C_17  and  C_35
   11  A    between atoms: C_25  and  C_26
                            x       y       z     vdW  Elec       q    Type
                         _______ _______ _______ _____ _____    ______ ____

>  <TORSDO>
F 11

$$$$
