=
 OpenBabel11042421113D

 28 30  0  0  1  0  0  0  0  0999 V2000
  161.1990  207.2340  151.4800 C   0  0  2  0  0  3  0  0  0  0  0  0
  161.9760  209.5660  156.6070 N   0  0  0  0  0  0  0  0  0  0  0  0
  161.8230  208.1790  156.6590 N   0  0  0  0  0  2  0  0  0  0  0  0
  161.0350  207.4770  152.9560 C   0  0  0  0  0  0  0  0  0  0  0  0
  161.0220  206.4490  155.1970 C   0  0  0  0  0  3  0  0  0  0  0  0
  161.0220  207.8100  155.7200 C   0  0  2  0  0  3  0  0  0  0  0  0
  161.0190  206.3030  153.8720 C   0  0  0  0  0  3  0  0  0  0  0  0
  161.2300  211.4980  155.3460 C   0  0  0  0  0  1  0  0  0  0  0  0
  160.8480  208.7380  153.4240 C   0  0  0  0  0  0  0  0  0  0  0  0
  161.3300  210.0350  155.5940 C   0  0  0  0  0  0  0  0  0  0  0  0
  160.5370  208.9640  154.9010 C   0  0  2  0  0  3  0  0  0  0  0  0
  160.7200  209.8050  152.4740 N   0  0  0  0  0  2  0  0  0  0  0  0
  160.0720  212.0850  151.9860 C   0  0  0  0  0  1  0  0  0  0  0  0
  159.5950  210.7250  152.4440 C   0  0  0  0  0  2  0  0  0  0  0  0
  160.8610  201.6030  150.1990 C   0  0  0  0  0  1  0  0  0  0  0  0
  160.9550  203.0480  150.5310 C   0  0  0  0  0  0  0  0  0  0  0  0
  161.7080  203.4640  151.6330 C   0  0  0  0  0  3  0  0  0  0  0  0
  160.3800  205.3520  150.0540 C   0  0  0  0  0  3  0  0  0  0  0  0
  161.1380  205.7740  151.1520 C   0  0  0  0  0  0  0  0  0  0  0  0
  161.7990  204.8230  151.9450 C   0  0  0  0  0  3  0  0  0  0  0  0
  160.2910  203.9920  149.7420 C   0  0  0  0  0  3  0  0  0  0  0  0
  162.3850  207.8060  151.0060 O   0  0  0  0  0  0  0  0  0  0  0  0
  162.0180  208.4790  149.8380 C   0  0  0  0  0  2  0  0  0  0  0  0
  162.6020  207.7650  148.6370 C   0  0  0  0  0  2  0  0  0  0  0  0
  162.6210  205.5290  146.9190 N   0  0  0  0  0  1  0  0  0  0  0  0
  160.4930  206.2980  145.9530 N   0  0  0  0  0  1  0  0  0  0  0  0
  161.5500  207.5090  147.6660 N   0  0  0  0  0  0  0  0  0  0  0  0
  161.5590  206.4800  146.8770 C   0  0  0  0  0  0  0  0  0  0  0  0
  1 22  1  1  0  0  0
  1  4  1  0  0  0  0
  2  3  1  0  0  0  0
  4  9  2  0  0  0  0
  4  7  1  0  0  0  0
  6  5  1  6  0  0  0
  6  3  1  0  0  0  0
  7  5  2  0  0  0  0
  8 10  1  0  0  0  0
 10  2  2  0  0  0  0
 11  9  1  6  0  0  0
 11 10  1  0  0  0  0
 11  6  1  0  0  0  0
 12  9  1  0  0  0  0
 13 14  1  0  0  0  0
 14 12  1  0  0  0  0
 15 16  1  0  0  0  0
 16 17  1  0  0  0  0
 17 20  2  0  0  0  0
 18 19  2  0  0  0  0
 19  1  1  0  0  0  0
 19 20  1  0  0  0  0
 21 18  1  0  0  0  0
 21 16  2  0  0  0  0
 23 22  1  0  0  0  0
 24 23  1  0  0  0  0
 26 28  1  0  0  0  0
 27 24  1  0  0  0  0
 28 25  1  0  0  0  0
 28 27  2  0  0  0  0
M  END
>  <MODEL>
1

>  <REMARK>
 VINA RESULT:      -7.7      0.000      0.000
  Name = 
  8 active torsions:
  status: ('A' for Active; 'I' for Inactive)
    1  A    between atoms: C_4  and  C_8
    2  A    between atoms: C_4  and  O_11
    3  A    between atoms: C_4  and  C_21
    4  A    between atoms: N_10  and  C_23
    5  A    between atoms: N_10  and  C_27
    6  A    between atoms: O_11  and  C_18
    7  A    between atoms: C_13  and  N_14
    8  A    between atoms: C_13  and  C_18
                            x       y       z     vdW  Elec       q    Type
                         _______ _______ _______ _____ _____    ______ ____

>  <TORSDO>
F 8

$$$$
=
 OpenBabel11042421113D

 28 30  0  0  1  0  0  0  0  0999 V2000
  161.1510  208.1820  151.5900 C   0  0  2  0  0  3  0  0  0  0  0  0
  161.4210  209.9900  156.9750 N   0  0  0  0  0  0  0  0  0  0  0  0
  161.3810  208.5990  156.8710 N   0  0  0  0  0  2  0  0  0  0  0  0
  160.8780  208.2480  153.0690 C   0  0  0  0  0  0  0  0  0  0  0  0
  160.8160  206.9830  155.1840 C   0  0  0  0  0  3  0  0  0  0  0  0
  160.6710  208.2740  155.8450 C   0  0  2  0  0  3  0  0  0  0  0  0
  160.9050  206.9830  153.8540 C   0  0  0  0  0  3  0  0  0  0  0  0
  160.5930  211.9860  155.8740 C   0  0  0  0  0  1  0  0  0  0  0  0
  160.5590  209.4320  153.6520 C   0  0  0  0  0  0  0  0  0  0  0  0
  160.8000  210.5170  155.9740 C   0  0  0  0  0  0  0  0  0  0  0  0
  160.1420  209.4710  155.1200 C   0  0  2  0  0  3  0  0  0  0  0  0
  160.4000  210.5840  152.8130 N   0  0  0  0  0  2  0  0  0  0  0  0
  159.4150  212.7370  152.3080 C   0  0  0  0  0  1  0  0  0  0  0  0
  159.1400  211.2870  152.6410 C   0  0  0  0  0  2  0  0  0  0  0  0
  160.9700  202.7400  149.6360 C   0  0  0  0  0  1  0  0  0  0  0  0
  161.0240  204.1370  150.1410 C   0  0  0  0  0  0  0  0  0  0  0  0
  161.7020  204.4240  151.3300 C   0  0  0  0  0  3  0  0  0  0  0  0
  160.4480  206.4770  149.9040 C   0  0  0  0  0  3  0  0  0  0  0  0
  161.1310  206.7710  151.0890 C   0  0  0  0  0  0  0  0  0  0  0  0
  161.7540  205.7370  151.8050 C   0  0  0  0  0  3  0  0  0  0  0  0
  160.3970  205.1630  149.4290 C   0  0  0  0  0  3  0  0  0  0  0  0
  162.3610  208.8100  151.2740 O   0  0  0  0  0  0  0  0  0  0  0  0
  162.2220  209.2110  149.9440 C   0  0  0  0  0  2  0  0  0  0  0  0
  161.9720  210.7050  149.8890 C   0  0  0  0  0  2  0  0  0  0  0  0
  161.2270  213.2840  149.0280 N   0  0  0  0  0  1  0  0  0  0  0  0
  162.1660  212.7770  146.8110 N   0  0  0  0  0  1  0  0  0  0  0  0
  162.2250  211.1890  148.5410 N   0  0  0  0  0  0  0  0  0  0  0  0
  161.8840  212.3760  148.1460 C   0  0  0  0  0  0  0  0  0  0  0  0
  1 22  1  1  0  0  0
  1  4  1  0  0  0  0
  3  2  1  0  0  0  0
  4  9  2  0  0  0  0
  4  7  1  0  0  0  0
  6  5  1  6  0  0  0
  6  3  1  0  0  0  0
  7  5  2  0  0  0  0
  8 10  1  0  0  0  0
 10  2  2  0  0  0  0
 11  9  1  6  0  0  0
 11  6  1  0  0  0  0
 11 10  1  0  0  0  0
 12  9  1  0  0  0  0
 13 14  1  0  0  0  0
 14 12  1  0  0  0  0
 15 16  1  0  0  0  0
 16 17  1  0  0  0  0
 17 20  2  0  0  0  0
 18 19  2  0  0  0  0
 19  1  1  0  0  0  0
 19 20  1  0  0  0  0
 21 18  1  0  0  0  0
 21 16  2  0  0  0  0
 23 22  1  0  0  0  0
 24 23  1  0  0  0  0
 26 28  1  0  0  0  0
 27 24  1  0  0  0  0
 28 27  2  0  0  0  0
 28 25  1  0  0  0  0
M  END
>  <MODEL>
2

>  <REMARK>
 VINA RESULT:      -7.6      2.004      2.625
  Name = 
  8 active torsions:
  status: ('A' for Active; 'I' for Inactive)
    1  A    between atoms: C_4  and  C_8
    2  A    between atoms: C_4  and  O_11
    3  A    between atoms: C_4  and  C_21
    4  A    between atoms: N_10  and  C_23
    5  A    between atoms: N_10  and  C_27
    6  A    between atoms: O_11  and  C_18
    7  A    between atoms: C_13  and  N_14
    8  A    between atoms: C_13  and  C_18
                            x       y       z     vdW  Elec       q    Type
                         _______ _______ _______ _____ _____    ______ ____

>  <TORSDO>
F 8

$$$$
=
 OpenBabel11042421113D

 28 30  0  0  1  0  0  0  0  0999 V2000
  161.8440  206.2280  149.3760 C   0  0  2  0  0  3  0  0  0  0  0  0
  160.8450  211.1800  151.9890 N   0  0  0  0  0  0  0  0  0  0  0  0
  161.0820  211.3250  150.6210 N   0  0  0  0  0  2  0  0  0  0  0  0
  161.9700  207.6870  149.7260 C   0  0  0  0  0  0  0  0  0  0  0  0
  162.0100  209.9910  148.8510 C   0  0  0  0  0  3  0  0  0  0  0  0
  161.9190  210.4230  150.2400 C   0  0  2  0  0  3  0  0  0  0  0  0
  162.0430  208.6790  148.6180 C   0  0  0  0  0  3  0  0  0  0  0  0
  161.4930  209.8010  153.8760 C   0  0  0  0  0  1  0  0  0  0  0  0
  162.0720  208.0710  151.0240 C   0  0  0  0  0  0  0  0  0  0  0  0
  161.4770  210.1450  152.4290 C   0  0  0  0  0  0  0  0  0  0  0  0
  162.3460  209.5340  151.3660 C   0  0  2  0  0  3  0  0  0  0  0  0
  162.1490  207.0550  152.0320 N   0  0  0  0  0  2  0  0  0  0  0  0
  161.2270  205.4200  153.5600 C   0  0  0  0  0  1  0  0  0  0  0  0
  161.1200  206.8330  153.0330 C   0  0  0  0  0  2  0  0  0  0  0  0
  161.3100  205.4000  143.6770 C   0  0  0  0  0  1  0  0  0  0  0  0
  161.4550  205.6140  145.1400 C   0  0  0  0  0  0  0  0  0  0  0  0
  162.6480  205.2680  145.7820 C   0  0  0  0  0  3  0  0  0  0  0  0
  160.5360  206.3620  147.2510 C   0  0  0  0  0  3  0  0  0  0  0  0
  161.7300  206.0240  147.8970 C   0  0  0  0  0  0  0  0  0  0  0  0
  162.7860  205.4700  147.1570 C   0  0  0  0  0  3  0  0  0  0  0  0
  160.3990  206.1600  145.8750 C   0  0  0  0  0  3  0  0  0  0  0  0
  160.7660  205.6420  150.0490 O   0  0  0  0  0  0  0  0  0  0  0  0
  161.1630  204.3250  150.2870 C   0  0  0  0  0  2  0  0  0  0  0  0
  160.0990  203.3750  149.7770 C   0  0  0  0  0  2  0  0  0  0  0  0
  160.8860  202.4360  147.2370 N   0  0  0  0  0  1  0  0  0  0  0  0
  161.6110  200.3290  148.2790 N   0  0  0  0  0  1  0  0  0  0  0  0
  160.6840  202.0590  149.5700 N   0  0  0  0  0  0  0  0  0  0  0  0
  161.0470  201.6280  148.4010 C   0  0  0  0  0  0  0  0  0  0  0  0
  1  4  1  0  0  0  0
  1 22  1  1  0  0  0
  2 10  2  0  0  0  0
  3  2  1  0  0  0  0
  4  9  2  0  0  0  0
  6  5  1  6  0  0  0
  6  3  1  0  0  0  0
  6 11  1  0  0  0  0
  7  5  2  0  0  0  0
  7  4  1  0  0  0  0
  9 12  1  0  0  0  0
 10  8  1  0  0  0  0
 11  9  1  6  0  0  0
 11 10  1  0  0  0  0
 12 14  1  0  0  0  0
 14 13  1  0  0  0  0
 15 16  1  0  0  0  0
 16 17  2  0  0  0  0
 16 21  1  0  0  0  0
 17 20  1  0  0  0  0
 18 19  1  0  0  0  0
 19  1  1  0  0  0  0
 20 19  2  0  0  0  0
 21 18  2  0  0  0  0
 22 23  1  0  0  0  0
 24 23  1  0  0  0  0
 25 28  1  0  0  0  0
 26 28  1  0  0  0  0
 27 24  1  0  0  0  0
 28 27  2  0  0  0  0
M  END
>  <MODEL>
3

>  <REMARK>
 VINA RESULT:      -7.3      2.412      4.977
  Name = 
  8 active torsions:
  status: ('A' for Active; 'I' for Inactive)
    1  A    between atoms: C_4  and  C_8
    2  A    between atoms: C_4  and  O_11
    3  A    between atoms: C_4  and  C_21
    4  A    between atoms: N_10  and  C_23
    5  A    between atoms: N_10  and  C_27
    6  A    between atoms: O_11  and  C_18
    7  A    between atoms: C_13  and  N_14
    8  A    between atoms: C_13  and  C_18
                            x       y       z     vdW  Elec       q    Type
                         _______ _______ _______ _____ _____    ______ ____

>  <TORSDO>
F 8

$$$$
=
 OpenBabel11042421113D

 28 30  0  0  1  0  0  0  0  0999 V2000
  161.6970  205.0450  148.8890 C   0  0  2  0  0  3  0  0  0  0  0  0
  160.6540  209.1160  152.7200 N   0  0  0  0  0  0  0  0  0  0  0  0
  160.9030  209.6230  151.4430 N   0  0  0  0  0  2  0  0  0  0  0  0
  161.8140  206.3570  149.6170 C   0  0  0  0  0  0  0  0  0  0  0  0
  161.8540  208.8110  149.3910 C   0  0  0  0  0  3  0  0  0  0  0  0
  161.7470  208.8560  150.8440 C   0  0  2  0  0  3  0  0  0  0  0  0
  161.8940  207.6100  148.8160 C   0  0  0  0  0  3  0  0  0  0  0  0
  161.2880  207.2840  154.1760 C   0  0  0  0  0  1  0  0  0  0  0  0
  161.9020  206.3810  150.9720 C   0  0  0  0  0  0  0  0  0  0  0  0
  161.2860  208.0020  152.8740 C   0  0  0  0  0  0  0  0  0  0  0  0
  162.1670  207.6980  151.6960 C   0  0  2  0  0  3  0  0  0  0  0  0
  161.9730  205.1310  151.6720 N   0  0  0  0  0  2  0  0  0  0  0  0
  160.9420  203.1050  152.5040 C   0  0  0  0  0  1  0  0  0  0  0  0
  160.9050  204.6170  152.5140 C   0  0  0  0  0  2  0  0  0  0  0  0
  161.4460  205.7690  143.1560 C   0  0  0  0  0  1  0  0  0  0  0  0
  161.5190  205.5840  144.6280 C   0  0  0  0  0  0  0  0  0  0  0  0
  162.6170  204.9310  145.1970 C   0  0  0  0  0  3  0  0  0  0  0  0
  160.5580  205.8870  146.8300 C   0  0  0  0  0  3  0  0  0  0  0  0
  161.6580  205.2400  147.4050 C   0  0  0  0  0  0  0  0  0  0  0  0
  162.6870  204.7570  146.5820 C   0  0  0  0  0  3  0  0  0  0  0  0
  160.4890  206.0600  145.4450 C   0  0  0  0  0  3  0  0  0  0  0  0
  160.5820  204.3230  149.3310 O   0  0  0  0  0  0  0  0  0  0  0  0
  160.9910  202.9890  149.3250 C   0  0  0  0  0  2  0  0  0  0  0  0
  160.0660  202.1780  148.4400 C   0  0  0  0  0  2  0  0  0  0  0  0
  160.5110  201.5890  145.7190 N   0  0  0  0  0  1  0  0  0  0  0  0
  161.6340  199.5050  146.3900 N   0  0  0  0  0  1  0  0  0  0  0  0
  160.7510  200.9740  147.9970 N   0  0  0  0  0  0  0  0  0  0  0  0
  160.9560  200.7040  146.7450 C   0  0  0  0  0  0  0  0  0  0  0  0
  1 22  1  1  0  0  0
  1  4  1  0  0  0  0
  2 10  2  0  0  0  0
  3  2  1  0  0  0  0
  4  9  2  0  0  0  0
  6  5  1  6  0  0  0
  6  3  1  0  0  0  0
  6 11  1  0  0  0  0
  7  5  2  0  0  0  0
  7  4  1  0  0  0  0
  9 12  1  0  0  0  0
 10  8  1  0  0  0  0
 11  9  1  6  0  0  0
 11 10  1  0  0  0  0
 12 14  1  0  0  0  0
 13 14  1  0  0  0  0
 15 16  1  0  0  0  0
 16 17  2  0  0  0  0
 16 21  1  0  0  0  0
 17 20  1  0  0  0  0
 18 19  1  0  0  0  0
 19  1  1  0  0  0  0
 20 19  2  0  0  0  0
 21 18  2  0  0  0  0
 23 22  1  0  0  0  0
 24 23  1  0  0  0  0
 25 28  1  0  0  0  0
 26 28  1  0  0  0  0
 27 24  1  0  0  0  0
 28 27  2  0  0  0  0
M  END
>  <MODEL>
4

>  <REMARK>
 VINA RESULT:      -7.1      2.649      5.453
  Name = 
  8 active torsions:
  status: ('A' for Active; 'I' for Inactive)
    1  A    between atoms: C_4  and  C_8
    2  A    between atoms: C_4  and  O_11
    3  A    between atoms: C_4  and  C_21
    4  A    between atoms: N_10  and  C_23
    5  A    between atoms: N_10  and  C_27
    6  A    between atoms: O_11  and  C_18
    7  A    between atoms: C_13  and  N_14
    8  A    between atoms: C_13  and  C_18
                            x       y       z     vdW  Elec       q    Type
                         _______ _______ _______ _____ _____    ______ ____

>  <TORSDO>
F 8

$$$$
=
 OpenBabel11042421113D

 28 30  0  0  1  0  0  0  0  0999 V2000
  161.4080  206.2460  150.0390 C   0  0  2  0  0  3  0  0  0  0  0  0
  159.7670  201.2080  147.9740 N   0  0  0  0  0  0  0  0  0  0  0  0
  159.8430  201.2250  149.3680 N   0  0  0  0  0  2  0  0  0  0  0  0
  161.2960  204.7520  149.8940 C   0  0  0  0  0  0  0  0  0  0  0  0
  160.8300  202.6260  151.0520 C   0  0  0  0  0  3  0  0  0  0  0  0
  160.7920  202.0190  149.7270 C   0  0  2  0  0  3  0  0  0  0  0  0
  161.0810  203.9330  151.1190 C   0  0  0  0  0  3  0  0  0  0  0  0
  160.8310  202.1680  146.0180 C   0  0  0  0  0  1  0  0  0  0  0  0
  161.4470  204.1710  148.6770 C   0  0  0  0  0  0  0  0  0  0  0  0
  160.6170  202.0460  147.4840 C   0  0  0  0  0  0  0  0  0  0  0  0
  161.4790  202.6490  148.5570 C   0  0  2  0  0  3  0  0  0  0  0  0
  161.8050  205.0020  147.5640 N   0  0  0  0  0  2  0  0  0  0  0  0
  162.7040  205.3440  145.3430 C   0  0  0  0  0  1  0  0  0  0  0  0
  162.9580  204.7580  146.7140 C   0  0  0  0  0  2  0  0  0  0  0  0
  161.0110  207.9770  155.5440 C   0  0  0  0  0  1  0  0  0  0  0  0
  161.1110  207.5240  154.1330 C   0  0  0  0  0  0  0  0  0  0  0  0
  161.5810  206.2400  153.8420 C   0  0  0  0  0  3  0  0  0  0  0  0
  160.8310  207.9570  151.7670 C   0  0  0  0  0  3  0  0  0  0  0  0
  161.2940  206.6700  151.4710 C   0  0  0  0  0  0  0  0  0  0  0  0
  161.6750  205.8130  152.5150 C   0  0  0  0  0  3  0  0  0  0  0  0
  160.7380  208.3830  153.0950 C   0  0  0  0  0  3  0  0  0  0  0  0
  160.4600  206.9000  149.2440 O   0  0  0  0  0  0  0  0  0  0  0  0
  161.2060  207.5670  148.2700 C   0  0  0  0  0  2  0  0  0  0  0  0
  162.1370  208.5590  148.9350 C   0  0  0  0  0  2  0  0  0  0  0  0
  161.9560  211.0040  150.3280 N   0  0  0  0  0  1  0  0  0  0  0  0
  161.8610  212.1850  148.1720 N   0  0  0  0  0  1  0  0  0  0  0  0
  162.0380  209.8440  148.2610 N   0  0  0  0  0  0  0  0  0  0  0  0
  161.9560  210.9680  148.9020 C   0  0  0  0  0  0  0  0  0  0  0  0
  1 22  1  6  0  0  0
  1 19  1  0  0  0  0
  2  3  1  0  0  0  0
  3  6  1  0  0  0  0
  4  1  1  0  0  0  0
  4  7  1  0  0  0  0
  5  7  2  0  0  0  0
  6  5  1  1  0  0  0
  8 10  1  0  0  0  0
  9  4  2  0  0  0  0
 10  2  2  0  0  0  0
 11 10  1  6  0  0  0
 11  9  1  0  0  0  0
 11  6  1  0  0  0  0
 12  9  1  0  0  0  0
 13 14  1  0  0  0  0
 14 12  1  0  0  0  0
 16 15  1  0  0  0  0
 17 16  1  0  0  0  0
 18 21  1  0  0  0  0
 19 18  2  0  0  0  0
 19 20  1  0  0  0  0
 20 17  2  0  0  0  0
 21 16  2  0  0  0  0
 23 24  1  0  0  0  0
 23 22  1  0  0  0  0
 26 28  1  0  0  0  0
 27 28  2  0  0  0  0
 27 24  1  0  0  0  0
 28 25  1  0  0  0  0
M  END
>  <MODEL>
5

>  <REMARK>
 VINA RESULT:      -6.9      2.493      6.885
  Name = 
  8 active torsions:
  status: ('A' for Active; 'I' for Inactive)
    1  A    between atoms: C_4  and  C_8
    2  A    between atoms: C_4  and  O_11
    3  A    between atoms: C_4  and  C_21
    4  A    between atoms: N_10  and  C_23
    5  A    between atoms: N_10  and  C_27
    6  A    between atoms: O_11  and  C_18
    7  A    between atoms: C_13  and  N_14
    8  A    between atoms: C_13  and  C_18
                            x       y       z     vdW  Elec       q    Type
                         _______ _______ _______ _____ _____    ______ ____

>  <TORSDO>
F 8

$$$$
=
 OpenBabel11042421113D

 28 30  0  0  1  0  0  0  0  0999 V2000
  161.7430  207.2950  151.6880 C   0  0  2  0  0  3  0  0  0  0  0  0
  158.6240  211.6660  153.5600 N   0  0  0  0  0  0  0  0  0  0  0  0
  159.3510  211.9710  152.4080 N   0  0  0  0  0  2  0  0  0  0  0  0
  161.3650  208.7110  152.0300 C   0  0  0  0  0  0  0  0  0  0  0  0
  161.2040  211.0280  151.2040 C   0  0  0  0  0  3  0  0  0  0  0  0
  160.4590  211.3140  152.4240 C   0  0  2  0  0  3  0  0  0  0  0  0
  161.6400  209.7810  151.0310 C   0  0  0  0  0  3  0  0  0  0  0  0
  158.7610  210.3200  155.5720 C   0  0  0  0  0  1  0  0  0  0  0  0
  160.8380  209.0020  153.2470 C   0  0  0  0  0  0  0  0  0  0  0  0
  159.2500  210.7670  154.2420 C   0  0  0  0  0  0  0  0  0  0  0  0
  160.5930  210.4560  153.6430 C   0  0  2  0  0  3  0  0  0  0  0  0
  160.7420  207.9510  154.2170 N   0  0  0  0  0  2  0  0  0  0  0  0
  160.4750  207.3390  156.5440 C   0  0  0  0  0  1  0  0  0  0  0  0
  161.3750  208.0000  155.5240 C   0  0  0  0  0  2  0  0  0  0  0  0
  161.2830  206.2020  146.0260 C   0  0  0  0  0  1  0  0  0  0  0  0
  161.4060  206.4890  147.4790 C   0  0  0  0  0  0  0  0  0  0  0  0
  162.5890  207.0360  147.9850 C   0  0  0  0  0  3  0  0  0  0  0  0
  160.4550  206.4830  149.7050 C   0  0  0  0  0  3  0  0  0  0  0  0
  161.6350  207.0360  150.2170 C   0  0  0  0  0  0  0  0  0  0  0  0
  162.7050  207.3070  149.3510 C   0  0  0  0  0  3  0  0  0  0  0  0
  160.3400  206.2120  148.3390 C   0  0  0  0  0  3  0  0  0  0  0  0
  160.9750  206.3800  152.4170 O   0  0  0  0  0  0  0  0  0  0  0  0
  161.7400  205.2130  152.4510 C   0  0  0  0  0  2  0  0  0  0  0  0
  160.8270  204.0060  152.3880 C   0  0  0  0  0  2  0  0  0  0  0  0
  161.5780  201.6240  151.0780 N   0  0  0  0  0  1  0  0  0  0  0  0
  160.4610  202.4330  149.0410 N   0  0  0  0  0  1  0  0  0  0  0  0
  160.4860  203.7280  151.0010 N   0  0  0  0  0  0  0  0  0  0  0  0
  160.8310  202.6320  150.4000 C   0  0  0  0  0  0  0  0  0  0  0  0
  1  4  1  0  0  0  0
  1 22  1  1  0  0  0
  2 10  2  0  0  0  0
  3  6  1  0  0  0  0
  3  2  1  0  0  0  0
  4  9  2  0  0  0  0
  6  5  1  6  0  0  0
  6 11  1  0  0  0  0
  7  5  2  0  0  0  0
  7  4  1  0  0  0  0
  9 12  1  0  0  0  0
 10  8  1  0  0  0  0
 11  9  1  6  0  0  0
 11 10  1  0  0  0  0
 12 14  1  0  0  0  0
 14 13  1  0  0  0  0
 15 16  1  0  0  0  0
 16 17  2  0  0  0  0
 16 21  1  0  0  0  0
 17 20  1  0  0  0  0
 18 19  1  0  0  0  0
 19  1  1  0  0  0  0
 20 19  2  0  0  0  0
 21 18  2  0  0  0  0
 22 23  1  0  0  0  0
 24 23  1  0  0  0  0
 26 28  1  0  0  0  0
 27 24  1  0  0  0  0
 28 27  2  0  0  0  0
 28 25  1  0  0  0  0
M  END
>  <MODEL>
6

>  <REMARK>
 VINA RESULT:      -6.5      2.233      4.286
  Name = 
  8 active torsions:
  status: ('A' for Active; 'I' for Inactive)
    1  A    between atoms: C_4  and  C_8
    2  A    between atoms: C_4  and  O_11
    3  A    between atoms: C_4  and  C_21
    4  A    between atoms: N_10  and  C_23
    5  A    between atoms: N_10  and  C_27
    6  A    between atoms: O_11  and  C_18
    7  A    between atoms: C_13  and  N_14
    8  A    between atoms: C_13  and  C_18
                            x       y       z     vdW  Elec       q    Type
                         _______ _______ _______ _____ _____    ______ ____

>  <TORSDO>
F 8

$$$$
=
 OpenBabel11042421113D

 28 30  0  0  1  0  0  0  0  0999 V2000
  161.9470  208.9180  151.6550 C   0  0  2  0  0  3  0  0  0  0  0  0
  160.1470  203.5790  150.8840 N   0  0  0  0  0  0  0  0  0  0  0  0
  160.2340  203.9330  152.2310 N   0  0  0  0  0  2  0  0  0  0  0  0
  161.7910  207.4370  151.8800 C   0  0  0  0  0  0  0  0  0  0  0  0
  161.2740  205.6730  153.5210 C   0  0  0  0  0  3  0  0  0  0  0  0
  161.2080  204.7620  152.3850 C   0  0  2  0  0  3  0  0  0  0  0  0
  161.5630  206.9490  153.2680 C   0  0  0  0  0  3  0  0  0  0  0  0
  161.2220  204.0010  148.7520 C   0  0  0  0  0  1  0  0  0  0  0  0
  161.9160  206.5730  150.8400 C   0  0  0  0  0  0  0  0  0  0  0  0
  161.0160  204.2470  150.2030 C   0  0  0  0  0  0  0  0  0  0  0  0
  161.9030  205.0680  151.0950 C   0  0  2  0  0  3  0  0  0  0  0  0
  162.2880  207.0970  149.5590 N   0  0  0  0  0  2  0  0  0  0  0  0
  162.0830  206.8000  147.1650 C   0  0  0  0  0  1  0  0  0  0  0  0
  161.3720  207.2060  148.4360 C   0  0  0  0  0  2  0  0  0  0  0  0
  159.6090  212.0350  155.9300 C   0  0  0  0  0  1  0  0  0  0  0  0
  160.2150  211.2310  154.8380 C   0  0  0  0  0  0  0  0  0  0  0  0
  161.5830  210.9440  154.8580 C   0  0  0  0  0  3  0  0  0  0  0  0
  159.9870  210.0060  152.7620 C   0  0  0  0  0  3  0  0  0  0  0  0
  161.3550  209.7100  152.7800 C   0  0  0  0  0  0  0  0  0  0  0  0
  162.1540  210.1870  153.8310 C   0  0  0  0  0  3  0  0  0  0  0  0
  159.4180  210.7630  153.7890 C   0  0  0  0  0  3  0  0  0  0  0  0
  161.3960  209.3000  150.4270 O   0  0  0  0  0  0  0  0  0  0  0  0
  161.9960  210.5250  150.1290 C   0  0  0  0  0  2  0  0  0  0  0  0
  161.9580  210.7570  148.6320 C   0  0  0  0  0  2  0  0  0  0  0  0
  160.5550  213.1180  147.9940 N   0  0  0  0  0  1  0  0  0  0  0  0
  162.7060  214.2830  147.7310 N   0  0  0  0  0  1  0  0  0  0  0  0
  162.6270  212.0100  148.3190 N   0  0  0  0  0  0  0  0  0  0  0  0
  161.9810  213.0960  148.0260 C   0  0  0  0  0  0  0  0  0  0  0  0
  1 22  1  6  0  0  0
  1  4  1  0  0  0  0
  1 19  1  0  0  0  0
  2  3  1  0  0  0  0
  3  6  1  0  0  0  0
  4  7  1  0  0  0  0
  6  5  1  6  0  0  0
  7  5  2  0  0  0  0
  8 10  1  0  0  0  0
  9 11  1  0  0  0  0
  9  4  2  0  0  0  0
 10  2  2  0  0  0  0
 11 10  1  6  0  0  0
 11  6  1  0  0  0  0
 12  9  1  0  0  0  0
 13 14  1  0  0  0  0
 14 12  1  0  0  0  0
 16 17  1  0  0  0  0
 16 15  1  0  0  0  0
 18 19  2  0  0  0  0
 18 21  1  0  0  0  0
 19 20  1  0  0  0  0
 20 17  2  0  0  0  0
 21 16  2  0  0  0  0
 23 22  1  0  0  0  0
 24 23  1  0  0  0  0
 25 28  1  0  0  0  0
 26 28  1  0  0  0  0
 27 24  1  0  0  0  0
 28 27  2  0  0  0  0
M  END
>  <MODEL>
7

>  <REMARK>
 VINA RESULT:      -6.4      2.836      6.300
  Name = 
  8 active torsions:
  status: ('A' for Active; 'I' for Inactive)
    1  A    between atoms: C_4  and  C_8
    2  A    between atoms: C_4  and  O_11
    3  A    between atoms: C_4  and  C_21
    4  A    between atoms: N_10  and  C_23
    5  A    between atoms: N_10  and  C_27
    6  A    between atoms: O_11  and  C_18
    7  A    between atoms: C_13  and  N_14
    8  A    between atoms: C_13  and  C_18
                            x       y       z     vdW  Elec       q    Type
                         _______ _______ _______ _____ _____    ______ ____

>  <TORSDO>
F 8

$$$$
=
 OpenBabel11042421113D

 28 30  0  0  1  0  0  0  0  0999 V2000
  162.4660  208.7730  151.1480 C   0  0  2  0  0  3  0  0  0  0  0  0
  161.2730  203.4380  149.5830 N   0  0  0  0  0  0  0  0  0  0  0  0
  160.9290  204.3790  148.6110 N   0  0  0  0  0  2  0  0  0  0  0  0
  161.7180  207.6180  150.5370 C   0  0  0  0  0  0  0  0  0  0  0  0
  160.6090  206.7580  148.5110 C   0  0  0  0  0  3  0  0  0  0  0  0
  160.5660  205.4700  149.1920 C   0  0  2  0  0  3  0  0  0  0  0  0
  161.1550  207.7810  149.1690 C   0  0  0  0  0  3  0  0  0  0  0  0
  161.4050  203.1780  151.9900 C   0  0  0  0  0  1  0  0  0  0  0  0
  161.5190  206.4800  151.2500 C   0  0  0  0  0  0  0  0  0  0  0  0
  161.1930  203.9750  150.7530 C   0  0  0  0  0  0  0  0  0  0  0  0
  160.6380  205.3700  150.6830 C   0  0  2  0  0  3  0  0  0  0  0  0
  161.9540  206.4460  152.6160 N   0  0  0  0  0  2  0  0  0  0  0  0
  160.7750  207.0400  154.6450 C   0  0  0  0  0  1  0  0  0  0  0  0
  161.1500  205.9160  153.7050 C   0  0  0  0  0  2  0  0  0  0  0  0
  159.3280  211.4620  155.1960 C   0  0  0  0  0  1  0  0  0  0  0  0
  160.1280  210.7740  154.1500 C   0  0  0  0  0  0  0  0  0  0  0  0
  159.4890  210.1830  153.0570 C   0  0  0  0  0  3  0  0  0  0  0  0
  162.2740  210.0680  153.2770 C   0  0  0  0  0  3  0  0  0  0  0  0
  161.6390  209.4810  152.1770 C   0  0  0  0  0  0  0  0  0  0  0  0
  160.2410  209.5360  152.0720 C   0  0  0  0  0  3  0  0  0  0  0  0
  161.5210  210.7150  154.2610 C   0  0  0  0  0  3  0  0  0  0  0  0
  162.9110  209.6610  150.1630 O   0  0  0  0  0  0  0  0  0  0  0  0
  162.0090  210.7250  150.2030 C   0  0  0  0  0  2  0  0  0  0  0  0
  162.0700  211.4920  148.8980 C   0  0  0  0  0  2  0  0  0  0  0  0
  160.3570  212.2950  146.8060 N   0  0  0  0  0  1  0  0  0  0  0  0
  159.6260  214.1980  148.1840 N   0  0  0  0  0  1  0  0  0  0  0  0
  161.2180  212.6670  148.9850 N   0  0  0  0  0  0  0  0  0  0  0  0
  160.4290  213.0360  148.0230 C   0  0  0  0  0  0  0  0  0  0  0  0
  1 22  1  6  0  0  0
  1 19  1  0  0  0  0
  2 10  2  0  0  0  0
  3  6  1  0  0  0  0
  3  2  1  0  0  0  0
  4  1  1  0  0  0  0
  4  9  2  0  0  0  0
  5  7  2  0  0  0  0
  6  5  1  6  0  0  0
  6 11  1  0  0  0  0
  7  4  1  0  0  0  0
  9 12  1  0  0  0  0
 10  8  1  0  0  0  0
 11 10  1  6  0  0  0
 11  9  1  0  0  0  0
 12 14  1  0  0  0  0
 14 13  1  0  0  0  0
 16 21  1  0  0  0  0
 16 15  1  0  0  0  0
 17 16  2  0  0  0  0
 18 21  2  0  0  0  0
 19 18  1  0  0  0  0
 20 19  2  0  0  0  0
 20 17  1  0  0  0  0
 22 23  1  0  0  0  0
 24 27  1  0  0  0  0
 24 23  1  0  0  0  0
 25 28  1  0  0  0  0
 28 26  1  0  0  0  0
 28 27  2  0  0  0  0
M  END
>  <MODEL>
8

>  <REMARK>
 VINA RESULT:      -6.3      2.568      6.437
  Name = 
  8 active torsions:
  status: ('A' for Active; 'I' for Inactive)
    1  A    between atoms: C_4  and  C_8
    2  A    between atoms: C_4  and  O_11
    3  A    between atoms: C_4  and  C_21
    4  A    between atoms: N_10  and  C_23
    5  A    between atoms: N_10  and  C_27
    6  A    between atoms: O_11  and  C_18
    7  A    between atoms: C_13  and  N_14
    8  A    between atoms: C_13  and  C_18
                            x       y       z     vdW  Elec       q    Type
                         _______ _______ _______ _____ _____    ______ ____

>  <TORSDO>
F 8

$$$$
=
 OpenBabel11042421113D

 28 30  0  0  1  0  0  0  0  0999 V2000
  160.8190  210.9710  152.3460 C   0  0  2  0  0  3  0  0  0  0  0  0
  161.3350  205.9810  149.6670 N   0  0  0  0  0  0  0  0  0  0  0  0
  160.9280  205.8450  150.9950 N   0  0  0  0  0  2  0  0  0  0  0  0
  161.1530  209.5200  152.1220 C   0  0  0  0  0  0  0  0  0  0  0  0
  160.8890  207.2190  152.9660 C   0  0  0  0  0  3  0  0  0  0  0  0
  161.4600  206.7850  151.6970 C   0  0  2  0  0  3  0  0  0  0  0  0
  160.7560  208.5300  153.1610 C   0  0  0  0  0  3  0  0  0  0  0  0
  162.7120  207.3910  148.2540 C   0  0  0  0  0  1  0  0  0  0  0  0
  161.8520  209.1420  151.0210 C   0  0  0  0  0  0  0  0  0  0  0  0
  162.0530  207.0450  149.5410 C   0  0  0  0  0  0  0  0  0  0  0  0
  162.3140  207.6950  150.8710 C   0  0  2  0  0  3  0  0  0  0  0  0
  162.3370  210.1630  150.1380 N   0  0  0  0  0  2  0  0  0  0  0  0
  162.1890  211.7560  148.3220 C   0  0  0  0  0  1  0  0  0  0  0  0
  161.8450  210.3580  148.7850 C   0  0  0  0  0  2  0  0  0  0  0  0
  157.8860  211.8120  157.2600 C   0  0  0  0  0  1  0  0  0  0  0  0
  158.6460  211.5920  156.0020 C   0  0  0  0  0  0  0  0  0  0  0  0
  160.0410  211.6870  156.0030 C   0  0  0  0  0  3  0  0  0  0  0  0
  158.6810  211.0850  153.6340 C   0  0  0  0  0  3  0  0  0  0  0  0
  160.0780  211.1730  153.6310 C   0  0  0  0  0  0  0  0  0  0  0  0
  160.7560  211.4800  154.8200 C   0  0  0  0  0  3  0  0  0  0  0  0
  157.9660  211.2930  154.8170 C   0  0  0  0  0  3  0  0  0  0  0  0
  160.1020  211.4930  151.2640 O   0  0  0  0  0  0  0  0  0  0  0  0
  160.2890  212.8750  151.3420 C   0  0  0  0  0  2  0  0  0  0  0  0
  159.0820  213.5830  150.7630 C   0  0  0  0  0  2  0  0  0  0  0  0
  156.9210  213.7420  148.9590 N   0  0  0  0  0  1  0  0  0  0  0  0
  158.5270  214.0070  147.1140 N   0  0  0  0  0  1  0  0  0  0  0  0
  159.2630  213.7600  149.3310 N   0  0  0  0  0  0  0  0  0  0  0  0
  158.2690  213.8340  148.5020 C   0  0  0  0  0  0  0  0  0  0  0  0
  1 22  1  6  0  0  0
  1 19  1  0  0  0  0
  2  3  1  0  0  0  0
  3  6  1  0  0  0  0
  4  1  1  0  0  0  0
  4  7  1  0  0  0  0
  5  7  2  0  0  0  0
  6  5  1  6  0  0  0
  8 10  1  0  0  0  0
  9  4  2  0  0  0  0
 10  2  2  0  0  0  0
 11 10  1  6  0  0  0
 11  9  1  0  0  0  0
 11  6  1  0  0  0  0
 12  9  1  0  0  0  0
 13 14  1  0  0  0  0
 14 12  1  0  0  0  0
 16 17  1  0  0  0  0
 16 15  1  0  0  0  0
 18 21  1  0  0  0  0
 19 18  2  0  0  0  0
 19 20  1  0  0  0  0
 20 17  2  0  0  0  0
 21 16  2  0  0  0  0
 22 23  1  0  0  0  0
 24 23  1  0  0  0  0
 26 28  1  0  0  0  0
 27 24  1  0  0  0  0
 28 25  1  0  0  0  0
 28 27  2  0  0  0  0
M  END
>  <MODEL>
9

>  <REMARK>
 VINA RESULT:      -5.6      3.036      6.808
  Name = 
  8 active torsions:
  status: ('A' for Active; 'I' for Inactive)
    1  A    between atoms: C_4  and  C_8
    2  A    between atoms: C_4  and  O_11
    3  A    between atoms: C_4  and  C_21
    4  A    between atoms: N_10  and  C_23
    5  A    between atoms: N_10  and  C_27
    6  A    between atoms: O_11  and  C_18
    7  A    between atoms: C_13  and  N_14
    8  A    between atoms: C_13  and  C_18
                            x       y       z     vdW  Elec       q    Type
                         _______ _______ _______ _____ _____    ______ ____

>  <TORSDO>
F 8

$$$$
