=
 OpenBabel11042421313D

 27 29  0  0  1  0  0  0  0  0999 V2000
  161.6300  206.4690  148.5940 C   0  0  1  0  0  3  0  0  0  0  0  0
  161.3520  207.8460  148.9780 N   0  0  0  0  0  2  0  0  0  0  0  0
  161.2990  208.3220  152.6270 C   0  0  0  0  0  0  0  0  0  0  0  0
  161.4860  208.3130  150.3210 C   0  0  0  0  0  0  0  0  0  0  0  0
  162.1630  209.7730  150.7950 S   0  0  0  0  0  0  0  0  0  0  0  0
  161.9280  209.5580  152.4480 C   0  0  0  0  0  3  0  0  0  0  0  0
  161.0550  207.6180  151.4340 C   0  0  0  0  0  3  0  0  0  0  0  0
  161.0910  206.5740  154.2010 O   0  0  0  0  0  0  0  0  0  0  0  0
  160.9640  207.8070  153.9730 C   0  0  0  0  0  0  0  0  0  0  0  0
  160.4910  208.6460  155.0380 N   0  0  0  0  0  2  0  0  0  0  0  0
  160.5190  210.1030  155.0430 C   0  0  0  0  0  2  0  0  0  0  0  0
  161.2630  210.6180  156.2650 C   0  0  0  0  0  2  0  0  0  0  0  0
  162.7520  210.6730  155.9900 C   0  0  0  0  0  1  0  0  0  0  0  0
  160.4360  205.6600  148.7880 N   0  0  0  0  0  2  0  0  0  0  0  0
  160.6640  204.8540  149.8830 O   0  0  0  0  0  0  0  0  0  0  0  0
  160.9330  202.6980  152.0390 O   0  0  0  0  0  0  0  0  0  0  0  0
  160.9520  202.8890  148.6060 N   0  0  0  0  0  0  0  0  0  0  0  0
  161.1330  201.5000  148.9260 C   0  0  0  0  0  0  0  0  0  0  0  0
  161.1470  201.2260  150.1950 N   0  0  0  0  0  0  0  0  0  0  0  0
  160.9660  202.4940  150.7980 C   0  0  0  0  0  0  0  0  0  0  0  0
  160.8510  203.4790  149.7470 C   0  0  0  0  0  0  0  0  0  0  0  0
  161.2910  200.4510  147.8850 C   0  0  0  0  0  1  0  0  0  0  0  0
  162.0510  206.4170  147.1350 C   0  0  0  0  0  2  0  0  0  0  0  0
  160.5220  206.1060  145.2170 C   0  0  0  0  0  2  0  0  0  0  0  0
  161.3510  205.4520  144.2150 N   0  0  0  0  0  2  0  0  0  0  0  0
  162.0390  204.7530  145.2900 C   0  0  0  0  0  2  0  0  0  0  0  0
  161.2090  205.4110  146.3670 C   0  0  0  0  0  3  0  0  0  0  0  0
  1 23  1  6  0  0  0
  1 14  1  0  0  0  0
  1  2  1  0  0  0  0
  2  4  1  0  0  0  0
  3  9  1  0  0  0  0
  4  5  1  0  0  0  0
  4  7  2  0  0  0  0
  5  6  1  0  0  0  0
  6  3  2  0  0  0  0
  7  3  1  0  0  0  0
  9  8  2  0  0  0  0
  9 10  1  0  0  0  0
 10 11  1  0  0  0  0
 11 12  1  0  0  0  0
 13 12  1  0  0  0  0
 14 15  1  0  0  0  0
 17 18  1  0  0  0  0
 17 21  2  0  0  0  0
 18 19  2  0  0  0  0
 19 20  1  0  0  0  0
 20 16  2  0  0  0  0
 21 15  1  0  0  0  0
 21 20  1  0  0  0  0
 22 18  1  0  0  0  0
 24 27  1  0  0  0  0
 25 24  1  0  0  0  0
 25 26  1  0  0  0  0
 26 27  1  0  0  0  0
 27 23  1  0  0  0  0
M  END
>  <MODEL>
1

>  <REMARK>
 VINA RESULT:      -7.4      0.000      0.000
  Name = 
  10 active torsions:
  status: ('A' for Active; 'I' for Inactive)
    1  A    between atoms: N_2  and  C_7
    2  A    between atoms: N_2  and  C_15
    3  A    between atoms: O_6  and  N_19
    4  A    between atoms: O_6  and  C_23
    5  A    between atoms: C_7  and  N_19
    6  A    between atoms: C_7  and  C_21
    7  A    between atoms: C_8  and  C_10
    8  A    between atoms: C_10  and  N_18
    9  A    between atoms: C_11  and  C_13
   10  A    between atoms: C_21  and  C_26
                            x       y       z     vdW  Elec       q    Type
                         _______ _______ _______ _____ _____    ______ ____

>  <TORSDO>
F 10

$$$$
=
 OpenBabel11042421313D

 27 29  0  0  1  0  0  0  0  0999 V2000
  162.1770  208.8000  150.4320 C   0  0  1  0  0  3  0  0  0  0  0  0
  161.0450  207.9180  150.6790 N   0  0  0  0  0  2  0  0  0  0  0  0
  161.0580  204.2920  150.0490 C   0  0  0  0  0  0  0  0  0  0  0  0
  161.1740  206.4980  150.7400 C   0  0  0  0  0  0  0  0  0  0  0  0
  161.7210  205.6120  152.0560 S   0  0  0  0  0  0  0  0  0  0  0  0
  161.5590  204.0960  151.3400 C   0  0  0  0  0  3  0  0  0  0  0  0
  160.8460  205.6400  149.7080 C   0  0  0  0  0  3  0  0  0  0  0  0
  160.0740  202.2140  149.5100 O   0  0  0  0  0  0  0  0  0  0  0  0
  160.8150  203.1600  149.1280 C   0  0  0  0  0  0  0  0  0  0  0  0
  161.3920  203.0800  147.8160 N   0  0  0  0  0  2  0  0  0  0  0  0
  162.0580  204.1710  147.1160 C   0  0  0  0  0  2  0  0  0  0  0  0
  161.8360  204.0570  145.6160 C   0  0  0  0  0  2  0  0  0  0  0  0
  160.9520  205.1870  145.1270 C   0  0  0  0  0  1  0  0  0  0  0  0
  162.0410  209.4090  149.1180 N   0  0  0  0  0  2  0  0  0  0  0  0
  162.0290  210.7760  149.3020 O   0  0  0  0  0  0  0  0  0  0  0  0
  164.1190  212.6480  148.0800 O   0  0  0  0  0  0  0  0  0  0  0  0
  160.8270  211.8110  147.5530 N   0  0  0  0  0  0  0  0  0  0  0  0
  161.1500  212.7910  146.5540 C   0  0  0  0  0  0  0  0  0  0  0  0
  162.3720  213.2290  146.5900 N   0  0  0  0  0  0  0  0  0  0  0  0
  162.9350  212.5170  147.6760 C   0  0  0  0  0  0  0  0  0  0  0  0
  161.9150  211.6540  148.2240 C   0  0  0  0  0  0  0  0  0  0  0  0
  160.1640  213.2690  145.5500 C   0  0  0  0  0  1  0  0  0  0  0  0
  162.2260  209.8840  151.4950 C   0  0  0  0  0  2  0  0  0  0  0  0
  161.4380  210.0680  153.8310 C   0  0  0  0  0  2  0  0  0  0  0  0
  160.7780  211.3650  153.8740 N   0  0  0  0  0  2  0  0  0  0  0  0
  160.3390  211.1490  152.5030 C   0  0  0  0  0  2  0  0  0  0  0  0
  161.0140  209.8010  152.4080 C   0  0  0  0  0  3  0  0  0  0  0  0
  1  2  1  0  0  0  0
  1 23  1  1  0  0  0
  2  4  1  0  0  0  0
  3  6  2  0  0  0  0
  4  5  1  0  0  0  0
  6  5  1  0  0  0  0
  7  3  1  0  0  0  0
  7  4  2  0  0  0  0
  9  8  2  0  0  0  0
  9  3  1  0  0  0  0
 10  9  1  0  0  0  0
 11 10  1  0  0  0  0
 12 11  1  0  0  0  0
 13 12  1  0  0  0  0
 14 15  1  0  0  0  0
 14  1  1  0  0  0  0
 17 21  2  0  0  0  0
 18 19  2  0  0  0  0
 18 17  1  0  0  0  0
 19 20  1  0  0  0  0
 20 16  2  0  0  0  0
 20 21  1  0  0  0  0
 21 15  1  0  0  0  0
 22 18  1  0  0  0  0
 23 27  1  0  0  0  0
 24 25  1  0  0  0  0
 26 25  1  0  0  0  0
 27 26  1  0  0  0  0
 27 24  1  0  0  0  0
M  END
>  <MODEL>
2

>  <REMARK>
 VINA RESULT:      -7.4      3.643      8.572
  Name = 
  10 active torsions:
  status: ('A' for Active; 'I' for Inactive)
    1  A    between atoms: N_2  and  C_7
    2  A    between atoms: N_2  and  C_15
    3  A    between atoms: O_6  and  N_19
    4  A    between atoms: O_6  and  C_23
    5  A    between atoms: C_7  and  N_19
    6  A    between atoms: C_7  and  C_21
    7  A    between atoms: C_8  and  C_10
    8  A    between atoms: C_10  and  N_18
    9  A    between atoms: C_11  and  C_13
   10  A    between atoms: C_21  and  C_26
                            x       y       z     vdW  Elec       q    Type
                         _______ _______ _______ _____ _____    ______ ____

>  <TORSDO>
F 10

$$$$
=
 OpenBabel11042421313D

 27 29  0  0  1  0  0  0  0  0999 V2000
  161.5780  206.4120  152.5320 C   0  0  1  0  0  3  0  0  0  0  0  0
  160.5900  206.4530  153.6000 N   0  0  0  0  0  2  0  0  0  0  0  0
  161.1830  209.3180  155.8330 C   0  0  0  0  0  0  0  0  0  0  0  0
  160.6710  207.3730  154.6900 C   0  0  0  0  0  0  0  0  0  0  0  0
  160.1400  207.0950  156.2570 S   0  0  0  0  0  0  0  0  0  0  0  0
  160.5960  208.5940  156.8750 C   0  0  0  0  0  3  0  0  0  0  0  0
  161.2210  208.6370  154.6040 C   0  0  0  0  0  3  0  0  0  0  0  0
  162.8680  210.8670  156.4150 O   0  0  0  0  0  0  0  0  0  0  0  0
  161.6810  210.6980  156.0280 C   0  0  0  0  0  0  0  0  0  0  0  0
  160.8700  211.8620  155.8050 N   0  0  0  0  0  2  0  0  0  0  0  0
  159.5780  211.8770  155.1290 C   0  0  0  0  0  2  0  0  0  0  0  0
  159.7480  212.2430  153.6630 C   0  0  0  0  0  2  0  0  0  0  0  0
  159.2300  211.1270  152.7780 C   0  0  0  0  0  1  0  0  0  0  0  0
  161.7020  205.0490  152.0380 N   0  0  0  0  0  2  0  0  0  0  0  0
  160.7360  204.8770  151.0700 O   0  0  0  0  0  0  0  0  0  0  0  0
  161.3280  205.5190  148.1360 O   0  0  0  0  0  0  0  0  0  0  0  0
  160.8750  202.7300  150.0950 N   0  0  0  0  0  0  0  0  0  0  0  0
  161.1310  202.2440  148.7690 C   0  0  0  0  0  0  0  0  0  0  0  0
  161.3360  203.1640  147.8760 N   0  0  0  0  0  0  0  0  0  0  0  0
  161.2170  204.3630  148.6200 C   0  0  0  0  0  0  0  0  0  0  0  0
  160.9310  204.0140  149.9920 C   0  0  0  0  0  0  0  0  0  0  0  0
  161.1610  200.7950  148.4370 C   0  0  0  0  0  1  0  0  0  0  0  0
  161.1490  207.3280  151.3990 C   0  0  0  0  0  2  0  0  0  0  0  0
  161.9800  208.6650  149.4920 C   0  0  0  0  0  2  0  0  0  0  0  0
  161.9570  210.0330  149.9910 N   0  0  0  0  0  2  0  0  0  0  0  0
  162.3120  209.5230  151.3070 C   0  0  0  0  0  2  0  0  0  0  0  0
  162.3410  208.0870  150.8380 C   0  0  0  0  0  3  0  0  0  0  0  0
  1 23  1  6  0  0  0
  1  2  1  0  0  0  0
  2  4  1  0  0  0  0
  3  9  1  0  0  0  0
  3  6  2  0  0  0  0
  4  5  1  0  0  0  0
  5  6  1  0  0  0  0
  7  4  2  0  0  0  0
  7  3  1  0  0  0  0
  9  8  2  0  0  0  0
 10  9  1  0  0  0  0
 11 10  1  0  0  0  0
 12 11  1  0  0  0  0
 13 12  1  0  0  0  0
 14  1  1  0  0  0  0
 15 14  1  0  0  0  0
 16 20  2  0  0  0  0
 18 17  1  0  0  0  0
 19 20  1  0  0  0  0
 19 18  2  0  0  0  0
 20 21  1  0  0  0  0
 21 17  2  0  0  0  0
 21 15  1  0  0  0  0
 22 18  1  0  0  0  0
 24 25  1  0  0  0  0
 24 27  1  0  0  0  0
 25 26  1  0  0  0  0
 27 26  1  0  0  0  0
 27 23  1  0  0  0  0
M  END
>  <MODEL>
3

>  <REMARK>
 VINA RESULT:      -7.3      2.449      4.227
  Name = 
  10 active torsions:
  status: ('A' for Active; 'I' for Inactive)
    1  A    between atoms: N_2  and  C_7
    2  A    between atoms: N_2  and  C_15
    3  A    between atoms: O_6  and  N_19
    4  A    between atoms: O_6  and  C_23
    5  A    between atoms: C_7  and  N_19
    6  A    between atoms: C_7  and  C_21
    7  A    between atoms: C_8  and  C_10
    8  A    between atoms: C_10  and  N_18
    9  A    between atoms: C_11  and  C_13
   10  A    between atoms: C_21  and  C_26
                            x       y       z     vdW  Elec       q    Type
                         _______ _______ _______ _____ _____    ______ ____

>  <TORSDO>
F 10

$$$$
=
 OpenBabel11042421313D

 27 29  0  0  1  0  0  0  0  0999 V2000
  161.1130  205.5900  151.4700 C   0  0  1  0  0  3  0  0  0  0  0  0
  161.8630  204.4270  151.0190 N   0  0  0  0  0  2  0  0  0  0  0  0
  160.9270  202.6140  147.9560 C   0  0  0  0  0  0  0  0  0  0  0  0
  161.3570  203.5160  150.0430 C   0  0  0  0  0  0  0  0  0  0  0  0
  160.4340  202.1490  150.3540 S   0  0  0  0  0  0  0  0  0  0  0  0
  160.2570  201.6760  148.7470 C   0  0  0  0  0  3  0  0  0  0  0  0
  161.5510  203.6440  148.6810 C   0  0  0  0  0  3  0  0  0  0  0  0
  160.3550  201.5500  145.9260 O   0  0  0  0  0  0  0  0  0  0  0  0
  160.9900  202.4860  146.4830 C   0  0  0  0  0  0  0  0  0  0  0  0
  161.7500  203.3760  145.6510 N   0  0  0  0  0  2  0  0  0  0  0  0
  162.3330  204.6420  146.0770 C   0  0  0  0  0  2  0  0  0  0  0  0
  161.8470  205.7780  145.1930 C   0  0  0  0  0  2  0  0  0  0  0  0
  160.4340  206.1730  145.5720 C   0  0  0  0  0  1  0  0  0  0  0  0
  161.8380  206.2470  152.5480 N   0  0  0  0  0  2  0  0  0  0  0  0
  160.9670  206.3650  153.6100 O   0  0  0  0  0  0  0  0  0  0  0  0
  159.8160  206.9490  156.3860 O   0  0  0  0  0  0  0  0  0  0  0  0
  161.0420  208.7240  153.7090 N   0  0  0  0  0  0  0  0  0  0  0  0
  160.6770  209.7000  154.6970 C   0  0  0  0  0  0  0  0  0  0  0  0
  160.1930  209.2120  155.7980 N   0  0  0  0  0  0  0  0  0  0  0  0
  160.2190  207.8160  155.5680 C   0  0  0  0  0  0  0  0  0  0  0  0
  160.7610  207.5880  154.2490 C   0  0  0  0  0  0  0  0  0  0  0  0
  160.8420  211.1610  154.4790 C   0  0  0  0  0  1  0  0  0  0  0  0
  160.9250  206.5610  150.3160 C   0  0  0  0  0  2  0  0  0  0  0  0
  162.3200  207.6080  148.5640 C   0  0  0  0  0  2  0  0  0  0  0  0
  162.0710  209.0340  148.7280 N   0  0  0  0  0  2  0  0  0  0  0  0
  161.9610  208.8140  150.1630 C   0  0  0  0  0  2  0  0  0  0  0  0
  162.2080  207.3290  150.0430 C   0  0  0  0  0  3  0  0  0  0  0  0
  1 23  1  6  0  0  0
  1 14  1  0  0  0  0
  2  1  1  0  0  0  0
  3  7  1  0  0  0  0
  3  6  2  0  0  0  0
  4  5  1  0  0  0  0
  4  2  1  0  0  0  0
  6  5  1  0  0  0  0
  7  4  2  0  0  0  0
  8  9  2  0  0  0  0
  9  3  1  0  0  0  0
 10 11  1  0  0  0  0
 10  9  1  0  0  0  0
 12 13  1  0  0  0  0
 12 11  1  0  0  0  0
 14 15  1  0  0  0  0
 15 21  1  0  0  0  0
 17 21  2  0  0  0  0
 17 18  1  0  0  0  0
 18 19  2  0  0  0  0
 20 19  1  0  0  0  0
 20 16  2  0  0  0  0
 21 20  1  0  0  0  0
 22 18  1  0  0  0  0
 24 25  1  0  0  0  0
 24 27  1  0  0  0  0
 25 26  1  0  0  0  0
 27 26  1  0  0  0  0
 27 23  1  0  0  0  0
M  END
>  <MODEL>
4

>  <REMARK>
 VINA RESULT:      -7.3      2.502      7.822
  Name = 
  10 active torsions:
  status: ('A' for Active; 'I' for Inactive)
    1  A    between atoms: N_2  and  C_7
    2  A    between atoms: N_2  and  C_15
    3  A    between atoms: O_6  and  N_19
    4  A    between atoms: O_6  and  C_23
    5  A    between atoms: C_7  and  N_19
    6  A    between atoms: C_7  and  C_21
    7  A    between atoms: C_8  and  C_10
    8  A    between atoms: C_10  and  N_18
    9  A    between atoms: C_11  and  C_13
   10  A    between atoms: C_21  and  C_26
                            x       y       z     vdW  Elec       q    Type
                         _______ _______ _______ _____ _____    ______ ____

>  <TORSDO>
F 10

$$$$
=
 OpenBabel11042421313D

 27 29  0  0  1  0  0  0  0  0999 V2000
  161.9880  208.6760  150.0260 C   0  0  1  0  0  3  0  0  0  0  0  0
  161.2570  208.1080  148.9030 N   0  0  0  0  0  2  0  0  0  0  0  0
  161.2150  204.4370  148.6410 C   0  0  0  0  0  0  0  0  0  0  0  0
  161.3860  206.7410  148.5110 C   0  0  0  0  0  0  0  0  0  0  0  0
  162.1050  206.1830  147.1020 S   0  0  0  0  0  0  0  0  0  0  0  0
  161.8630  204.5450  147.4060 C   0  0  0  0  0  3  0  0  0  0  0  0
  160.9410  205.6690  149.2600 C   0  0  0  0  0  3  0  0  0  0  0  0
  160.3430  202.2530  148.4380 O   0  0  0  0  0  0  0  0  0  0  0  0
  160.8290  203.1250  149.2060 C   0  0  0  0  0  0  0  0  0  0  0  0
  160.9750  202.7970  150.5960 N   0  0  0  0  0  2  0  0  0  0  0  0
  161.7340  203.5680  151.5730 C   0  0  0  0  0  2  0  0  0  0  0  0
  160.8110  204.1400  152.6360 C   0  0  0  0  0  2  0  0  0  0  0  0
  161.3530  205.4580  153.1510 C   0  0  0  0  0  1  0  0  0  0  0  0
  162.2850  210.0750  149.7560 N   0  0  0  0  0  2  0  0  0  0  0  0
  161.9040  210.3270  148.4550 O   0  0  0  0  0  0  0  0  0  0  0  0
  164.0160  212.4920  147.9800 O   0  0  0  0  0  0  0  0  0  0  0  0
  160.6100  212.1390  147.6660 N   0  0  0  0  0  0  0  0  0  0  0  0
  160.9100  213.4760  147.2380 C   0  0  0  0  0  0  0  0  0  0  0  0
  162.1670  213.7980  147.2800 N   0  0  0  0  0  0  0  0  0  0  0  0
  162.7820  212.6200  147.7660 C   0  0  0  0  0  0  0  0  0  0  0  0
  161.7520  211.6310  147.9820 C   0  0  0  0  0  0  0  0  0  0  0  0
  159.8620  214.4250  146.7780 C   0  0  0  0  0  1  0  0  0  0  0  0
  161.1540  208.5670  151.2920 C   0  0  0  0  0  2  0  0  0  0  0  0
  160.0130  210.3450  152.5750 C   0  0  0  0  0  2  0  0  0  0  0  0
  160.1480  209.9150  153.9600 N   0  0  0  0  0  2  0  0  0  0  0  0
  161.4540  209.3650  153.6260 C   0  0  0  0  0  2  0  0  0  0  0  0
  161.3560  209.7850  152.1780 C   0  0  0  0  0  3  0  0  0  0  0  0
  1 23  1  1  0  0  0
  2  1  1  0  0  0  0
  3  9  1  0  0  0  0
  3  7  1  0  0  0  0
  4  2  1  0  0  0  0
  4  7  2  0  0  0  0
  5  6  1  0  0  0  0
  5  4  1  0  0  0  0
  6  3  2  0  0  0  0
  8  9  2  0  0  0  0
  9 10  1  0  0  0  0
 10 11  1  0  0  0  0
 11 12  1  0  0  0  0
 12 13  1  0  0  0  0
 14  1  1  0  0  0  0
 15 14  1  0  0  0  0
 17 21  2  0  0  0  0
 18 19  2  0  0  0  0
 18 17  1  0  0  0  0
 19 20  1  0  0  0  0
 20 16  2  0  0  0  0
 20 21  1  0  0  0  0
 21 15  1  0  0  0  0
 22 18  1  0  0  0  0
 23 27  1  0  0  0  0
 24 25  1  0  0  0  0
 26 25  1  0  0  0  0
 27 24  1  0  0  0  0
 27 26  1  0  0  0  0
M  END
>  <MODEL>
5

>  <REMARK>
 VINA RESULT:      -7.1      3.730      8.048
  Name = 
  10 active torsions:
  status: ('A' for Active; 'I' for Inactive)
    1  A    between atoms: N_2  and  C_7
    2  A    between atoms: N_2  and  C_15
    3  A    between atoms: O_6  and  N_19
    4  A    between atoms: O_6  and  C_23
    5  A    between atoms: C_7  and  N_19
    6  A    between atoms: C_7  and  C_21
    7  A    between atoms: C_8  and  C_10
    8  A    between atoms: C_10  and  N_18
    9  A    between atoms: C_11  and  C_13
   10  A    between atoms: C_21  and  C_26
                            x       y       z     vdW  Elec       q    Type
                         _______ _______ _______ _____ _____    ______ ____

>  <TORSDO>
F 10

$$$$
=
 OpenBabel11042421313D

 27 29  0  0  1  0  0  0  0  0999 V2000
  161.3570  206.7760  149.5980 C   0  0  1  0  0  3  0  0  0  0  0  0
  162.1530  207.4760  150.5960 N   0  0  0  0  0  2  0  0  0  0  0  0
  160.6570  209.9960  152.8220 C   0  0  0  0  0  0  0  0  0  0  0  0
  161.7030  208.6660  151.2440 C   0  0  0  0  0  0  0  0  0  0  0  0
  161.9460  210.2360  150.7030 S   0  0  0  0  0  0  0  0  0  0  0  0
  161.1330  210.9960  151.9680 C   0  0  0  0  0  3  0  0  0  0  0  0
  160.9810  208.6880  152.4210 C   0  0  0  0  0  3  0  0  0  0  0  0
  158.7780  210.8630  153.9590 O   0  0  0  0  0  0  0  0  0  0  0  0
  159.9100  210.3200  154.0580 C   0  0  0  0  0  0  0  0  0  0  0  0
  160.4190  210.0510  155.3730 N   0  0  0  0  0  2  0  0  0  0  0  0
  161.5740  209.2160  155.6810 C   0  0  0  0  0  2  0  0  0  0  0  0
  161.1940  208.1190  156.6620 C   0  0  0  0  0  2  0  0  0  0  0  0
  160.0820  207.2630  156.0900 C   0  0  0  0  0  1  0  0  0  0  0  0
  162.2300  206.2590  148.5550 N   0  0  0  0  0  2  0  0  0  0  0  0
  161.5000  206.2440  147.3850 O   0  0  0  0  0  0  0  0  0  0  0  0
  161.2060  205.8210  144.3670 O   0  0  0  0  0  0  0  0  0  0  0  0
  161.2020  203.9060  147.2230 N   0  0  0  0  0  0  0  0  0  0  0  0
  161.0100  202.9910  146.1330 C   0  0  0  0  0  0  0  0  0  0  0  0
  160.9890  203.5360  144.9550 N   0  0  0  0  0  0  0  0  0  0  0  0
  161.1760  204.9100  145.2360 C   0  0  0  0  0  0  0  0  0  0  0  0
  161.3030  205.0640  146.6660 C   0  0  0  0  0  0  0  0  0  0  0  0
  160.8470  201.5270  146.3350 C   0  0  0  0  0  1  0  0  0  0  0  0
  160.6080  205.6270  150.2520 C   0  0  0  0  0  2  0  0  0  0  0  0
  161.2030  204.5850  152.4130 C   0  0  0  0  0  2  0  0  0  0  0  0
  160.7170  203.2180  152.2850 N   0  0  0  0  0  2  0  0  0  0  0  0
  161.0620  203.2650  150.8710 C   0  0  0  0  0  2  0  0  0  0  0  0
  161.5710  204.6840  150.9530 C   0  0  0  0  0  3  0  0  0  0  0  0
  1 23  1  1  0  0  0
  1  2  1  0  0  0  0
  2  4  1  0  0  0  0
  3  9  1  0  0  0  0
  4  7  2  0  0  0  0
  5  4  1  0  0  0  0
  5  6  1  0  0  0  0
  6  3  2  0  0  0  0
  7  3  1  0  0  0  0
  8  9  2  0  0  0  0
  9 10  1  0  0  0  0
 10 11  1  0  0  0  0
 11 12  1  0  0  0  0
 13 12  1  0  0  0  0
 14  1  1  0  0  0  0
 15 14  1  0  0  0  0
 16 20  2  0  0  0  0
 18 22  1  0  0  0  0
 18 17  1  0  0  0  0
 19 20  1  0  0  0  0
 19 18  2  0  0  0  0
 20 21  1  0  0  0  0
 21 17  2  0  0  0  0
 21 15  1  0  0  0  0
 23 27  1  0  0  0  0
 25 24  1  0  0  0  0
 26 27  1  0  0  0  0
 26 25  1  0  0  0  0
 27 24  1  0  0  0  0
M  END
>  <MODEL>
6

>  <REMARK>
 VINA RESULT:      -6.9      2.258      4.075
  Name = 
  10 active torsions:
  status: ('A' for Active; 'I' for Inactive)
    1  A    between atoms: N_2  and  C_7
    2  A    between atoms: N_2  and  C_15
    3  A    between atoms: O_6  and  N_19
    4  A    between atoms: O_6  and  C_23
    5  A    between atoms: C_7  and  N_19
    6  A    between atoms: C_7  and  C_21
    7  A    between atoms: C_8  and  C_10
    8  A    between atoms: C_10  and  N_18
    9  A    between atoms: C_11  and  C_13
   10  A    between atoms: C_21  and  C_26
                            x       y       z     vdW  Elec       q    Type
                         _______ _______ _______ _____ _____    ______ ____

>  <TORSDO>
F 10

$$$$
=
 OpenBabel11042421313D

 27 29  0  0  1  0  0  0  0  0999 V2000
  161.6310  206.3490  152.1190 C   0  0  1  0  0  3  0  0  0  0  0  0
  160.8220  206.9960  151.0960 N   0  0  0  0  0  2  0  0  0  0  0  0
  161.2500  206.5100  147.4730 C   0  0  0  0  0  0  0  0  0  0  0  0
  161.2120  207.0470  149.7230 C   0  0  0  0  0  0  0  0  0  0  0  0
  162.3970  208.0400  149.0710 S   0  0  0  0  0  0  0  0  0  0  0  0
  162.2430  207.4950  147.4850 C   0  0  0  0  0  3  0  0  0  0  0  0
  160.6660  206.2620  148.7270 C   0  0  0  0  0  3  0  0  0  0  0  0
  160.2860  206.5070  145.3170 O   0  0  0  0  0  0  0  0  0  0  0  0
  160.8430  205.8310  146.2230 C   0  0  0  0  0  0  0  0  0  0  0  0
  161.0460  204.4280  145.9920 N   0  0  0  0  0  2  0  0  0  0  0  0
  161.8820  203.5490  146.8000 C   0  0  0  0  0  2  0  0  0  0  0  0
  161.1880  202.2170  147.0320 C   0  0  0  0  0  2  0  0  0  0  0  0
  160.5180  201.7430  145.7590 C   0  0  0  0  0  1  0  0  0  0  0  0
  160.8550  206.2220  153.3430 N   0  0  0  0  0  2  0  0  0  0  0  0
  161.4800  206.9900  154.3020 O   0  0  0  0  0  0  0  0  0  0  0  0
  160.0870  207.4220  156.9940 O   0  0  0  0  0  0  0  0  0  0  0  0
  160.8180  209.2540  154.1780 N   0  0  0  0  0  0  0  0  0  0  0  0
  160.1270  210.1490  155.0630 C   0  0  0  0  0  0  0  0  0  0  0  0
  159.7700  209.6310  156.1990 N   0  0  0  0  0  0  0  0  0  0  0  0
  160.2370  208.2980  156.1030 C   0  0  0  0  0  0  0  0  0  0  0  0
  160.8790  208.1380  154.8190 C   0  0  0  0  0  0  0  0  0  0  0  0
  159.8410  211.5640  154.7110 C   0  0  0  0  0  1  0  0  0  0  0  0
  162.0600  204.9720  151.6410 C   0  0  0  0  0  2  0  0  0  0  0  0
  160.4960  203.4590  150.4670 C   0  0  0  0  0  2  0  0  0  0  0  0
  161.0660  202.1360  150.6820 N   0  0  0  0  0  2  0  0  0  0  0  0
  161.5040  202.5770  151.9980 C   0  0  0  0  0  2  0  0  0  0  0  0
  160.9360  203.9650  151.8190 C   0  0  0  0  0  3  0  0  0  0  0  0
  1 23  1  6  0  0  0
  1 14  1  0  0  0  0
  2  1  1  0  0  0  0
  3  6  2  0  0  0  0
  3  7  1  0  0  0  0
  4  2  1  0  0  0  0
  5  4  1  0  0  0  0
  6  5  1  0  0  0  0
  7  4  2  0  0  0  0
  8  9  2  0  0  0  0
  9  3  1  0  0  0  0
 10  9  1  0  0  0  0
 10 11  1  0  0  0  0
 11 12  1  0  0  0  0
 13 12  1  0  0  0  0
 14 15  1  0  0  0  0
 15 21  1  0  0  0  0
 17 21  2  0  0  0  0
 17 18  1  0  0  0  0
 18 19  2  0  0  0  0
 20 19  1  0  0  0  0
 20 16  2  0  0  0  0
 21 20  1  0  0  0  0
 22 18  1  0  0  0  0
 23 27  1  0  0  0  0
 24 25  1  0  0  0  0
 24 27  1  0  0  0  0
 25 26  1  0  0  0  0
 27 26  1  0  0  0  0
M  END
>  <MODEL>
7

>  <REMARK>
 VINA RESULT:      -6.9      2.145      7.833
  Name = 
  10 active torsions:
  status: ('A' for Active; 'I' for Inactive)
    1  A    between atoms: N_2  and  C_7
    2  A    between atoms: N_2  and  C_15
    3  A    between atoms: O_6  and  N_19
    4  A    between atoms: O_6  and  C_23
    5  A    between atoms: C_7  and  N_19
    6  A    between atoms: C_7  and  C_21
    7  A    between atoms: C_8  and  C_10
    8  A    between atoms: C_10  and  N_18
    9  A    between atoms: C_11  and  C_13
   10  A    between atoms: C_21  and  C_26
                            x       y       z     vdW  Elec       q    Type
                         _______ _______ _______ _____ _____    ______ ____

>  <TORSDO>
F 10

$$$$
=
 OpenBabel11042421313D

 27 29  0  0  1  0  0  0  0  0999 V2000
  162.2070  207.6490  149.1590 C   0  0  1  0  0  3  0  0  0  0  0  0
  161.2390  206.6060  148.8520 N   0  0  0  0  0  2  0  0  0  0  0  0
  161.3020  203.6270  146.6920 C   0  0  0  0  0  0  0  0  0  0  0  0
  161.4460  205.6430  147.8180 C   0  0  0  0  0  0  0  0  0  0  0  0
  162.3590  205.8680  146.4280 S   0  0  0  0  0  0  0  0  0  0  0  0
  162.1080  204.3290  145.7910 C   0  0  0  0  0  3  0  0  0  0  0  0
  160.9240  204.3640  147.8280 C   0  0  0  0  0  3  0  0  0  0  0  0
  160.4760  201.9330  145.2690 O   0  0  0  0  0  0  0  0  0  0  0  0
  160.8680  202.2370  146.4270 C   0  0  0  0  0  0  0  0  0  0  0  0
  160.8630  201.2130  147.4340 N   0  0  0  0  0  2  0  0  0  0  0  0
  161.5040  201.3050  148.7390 C   0  0  0  0  0  2  0  0  0  0  0  0
  160.4820  201.6410  149.8130 C   0  0  0  0  0  2  0  0  0  0  0  0
  161.1610  202.2910  151.0020 C   0  0  0  0  0  1  0  0  0  0  0  0
  161.7850  208.8990  148.5450 N   0  0  0  0  0  2  0  0  0  0  0  0
  162.0360  209.9040  149.4560 O   0  0  0  0  0  0  0  0  0  0  0  0
  160.5060  212.1930  150.7940 O   0  0  0  0  0  0  0  0  0  0  0  0
  162.5490  211.7430  148.0660 N   0  0  0  0  0  0  0  0  0  0  0  0
  162.1980  213.1350  148.0710 C   0  0  0  0  0  0  0  0  0  0  0  0
  161.4240  213.5030  149.0470 N   0  0  0  0  0  0  0  0  0  0  0  0
  161.2210  212.3000  149.7640 C   0  0  0  0  0  0  0  0  0  0  0  0
  161.9530  211.2490  149.0960 C   0  0  0  0  0  0  0  0  0  0  0  0
  162.6830  214.0890  147.0390 C   0  0  0  0  0  1  0  0  0  0  0  0
  162.3110  207.8280  150.6640 C   0  0  0  0  0  2  0  0  0  0  0  0
  161.8510  206.0230  152.2890 C   0  0  0  0  0  2  0  0  0  0  0  0
  161.4610  206.7340  153.4980 N   0  0  0  0  0  2  0  0  0  0  0  0
  160.8320  207.7440  152.6590 C   0  0  0  0  0  2  0  0  0  0  0  0
  161.2210  207.0460  151.3770 C   0  0  0  0  0  3  0  0  0  0  0  0
  1 23  1  1  0  0  0
  2  1  1  0  0  0  0
  3  7  1  0  0  0  0
  4  7  2  0  0  0  0
  4  2  1  0  0  0  0
  5  4  1  0  0  0  0
  6  5  1  0  0  0  0
  6  3  2  0  0  0  0
  8  9  2  0  0  0  0
  9  3  1  0  0  0  0
  9 10  1  0  0  0  0
 10 11  1  0  0  0  0
 11 12  1  0  0  0  0
 12 13  1  0  0  0  0
 14  1  1  0  0  0  0
 14 15  1  0  0  0  0
 17 18  1  0  0  0  0
 17 21  2  0  0  0  0
 18 19  2  0  0  0  0
 19 20  1  0  0  0  0
 20 16  2  0  0  0  0
 21 15  1  0  0  0  0
 21 20  1  0  0  0  0
 22 18  1  0  0  0  0
 23 27  1  0  0  0  0
 24 25  1  0  0  0  0
 26 25  1  0  0  0  0
 27 24  1  0  0  0  0
 27 26  1  0  0  0  0
M  END
>  <MODEL>
8

>  <REMARK>
 VINA RESULT:      -6.9      3.455      8.482
  Name = 
  10 active torsions:
  status: ('A' for Active; 'I' for Inactive)
    1  A    between atoms: N_2  and  C_7
    2  A    between atoms: N_2  and  C_15
    3  A    between atoms: O_6  and  N_19
    4  A    between atoms: O_6  and  C_23
    5  A    between atoms: C_7  and  N_19
    6  A    between atoms: C_7  and  C_21
    7  A    between atoms: C_8  and  C_10
    8  A    between atoms: C_10  and  N_18
    9  A    between atoms: C_11  and  C_13
   10  A    between atoms: C_21  and  C_26
                            x       y       z     vdW  Elec       q    Type
                         _______ _______ _______ _____ _____    ______ ____

>  <TORSDO>
F 10

$$$$
=
 OpenBabel11042421313D

 27 29  0  0  1  0  0  0  0  0999 V2000
  161.8170  209.4180  149.5980 C   0  0  1  0  0  3  0  0  0  0  0  0
  162.4300  210.7260  149.4170 N   0  0  0  0  0  2  0  0  0  0  0  0
  160.7810  212.4920  146.6410 C   0  0  0  0  0  0  0  0  0  0  0  0
  162.0420  211.6220  148.3750 C   0  0  0  0  0  0  0  0  0  0  0  0
  162.8810  212.9900  147.8870 S   0  0  0  0  0  0  0  0  0  0  0  0
  161.8090  213.4400  146.6690 C   0  0  0  0  0  3  0  0  0  0  0  0
  160.9070  211.4740  147.6030 C   0  0  0  0  0  3  0  0  0  0  0  0
  159.7030  211.9610  144.6090 O   0  0  0  0  0  0  0  0  0  0  0  0
  159.6490  212.5990  145.6940 C   0  0  0  0  0  0  0  0  0  0  0  0
  158.4890  213.4040  145.9480 N   0  0  0  0  0  2  0  0  0  0  0  0
  158.1370  214.0030  147.2300 C   0  0  0  0  0  2  0  0  0  0  0  0
  157.4390  212.9870  148.1200 C   0  0  0  0  0  2  0  0  0  0  0  0
  157.0510  213.6220  149.4400 C   0  0  0  0  0  1  0  0  0  0  0  0
  162.3050  208.5070  148.5730 N   0  0  0  0  0  2  0  0  0  0  0  0
  161.2360  207.7290  148.1780 O   0  0  0  0  0  0  0  0  0  0  0  0
  162.4400  205.9520  145.9960 O   0  0  0  0  0  0  0  0  0  0  0  0
  160.8850  205.5580  149.0370 N   0  0  0  0  0  0  0  0  0  0  0  0
  161.1880  204.2320  148.5730 C   0  0  0  0  0  0  0  0  0  0  0  0
  161.7920  204.1770  147.4250 N   0  0  0  0  0  0  0  0  0  0  0  0
  161.9180  205.5400  147.0640 C   0  0  0  0  0  0  0  0  0  0  0  0
  161.3330  206.3390  148.1150 C   0  0  0  0  0  0  0  0  0  0  0  0
  160.8390  203.0120  149.3470 C   0  0  0  0  0  1  0  0  0  0  0  0
  162.1640  208.8720  150.9720 C   0  0  0  0  0  2  0  0  0  0  0  0
  161.3600  206.9660  152.3260 C   0  0  0  0  0  2  0  0  0  0  0  0
  161.1690  207.5380  153.6520 N   0  0  0  0  0  2  0  0  0  0  0  0
  160.7560  208.7810  153.0180 C   0  0  0  0  0  2  0  0  0  0  0  0
  160.9470  208.2350  151.6230 C   0  0  0  0  0  3  0  0  0  0  0  0
  1 23  1  1  0  0  0
  2  1  1  0  0  0  0
  3  6  2  0  0  0  0
  3  7  1  0  0  0  0
  4  2  1  0  0  0  0
  5  4  1  0  0  0  0
  6  5  1  0  0  0  0
  7  4  2  0  0  0  0
  8  9  2  0  0  0  0
  9 10  1  0  0  0  0
  9  3  1  0  0  0  0
 10 11  1  0  0  0  0
 11 12  1  0  0  0  0
 12 13  1  0  0  0  0
 14  1  1  0  0  0  0
 15 14  1  0  0  0  0
 16 20  2  0  0  0  0
 18 17  1  0  0  0  0
 18 22  1  0  0  0  0
 19 18  2  0  0  0  0
 20 19  1  0  0  0  0
 20 21  1  0  0  0  0
 21 15  1  0  0  0  0
 21 17  2  0  0  0  0
 23 27  1  0  0  0  0
 24 25  1  0  0  0  0
 26 25  1  0  0  0  0
 27 24  1  0  0  0  0
 27 26  1  0  0  0  0
M  END
>  <MODEL>
9

>  <REMARK>
 VINA RESULT:      -6.8      4.293      6.642
  Name = 
  10 active torsions:
  status: ('A' for Active; 'I' for Inactive)
    1  A    between atoms: N_2  and  C_7
    2  A    between atoms: N_2  and  C_15
    3  A    between atoms: O_6  and  N_19
    4  A    between atoms: O_6  and  C_23
    5  A    between atoms: C_7  and  N_19
    6  A    between atoms: C_7  and  C_21
    7  A    between atoms: C_8  and  C_10
    8  A    between atoms: C_10  and  N_18
    9  A    between atoms: C_11  and  C_13
   10  A    between atoms: C_21  and  C_26
                            x       y       z     vdW  Elec       q    Type
                         _______ _______ _______ _____ _____    ______ ____

>  <TORSDO>
F 10

$$$$
