=
 OpenBabel11042420403D

 45 51  0  0  1  0  0  0  0  0999 V2000
  159.4310  210.2710  154.9960 C   0  0  2  0  0  3  0  0  0  0  0  0
  159.4090  210.8410  152.7260 C   0  0  0  0  0  2  0  0  0  0  0  0
  159.3590  214.4400  155.2790 O   0  0  0  0  0  1  0  0  0  0  0  0
  160.5040  211.0570  155.7920 C   0  0  1  0  0  0  0  0  0  0  0  0
  161.8070  211.1850  154.9990 C   0  0  0  0  0  1  0  0  0  0  0  0
  160.0110  209.1700  154.3270 O   0  0  0  0  0  0  0  0  0  0  0  0
  159.9830  212.4550  156.1180 C   0  0  0  0  0  2  0  0  0  0  0  0
  157.3650  210.4970  153.8430 O   0  0  0  0  0  1  0  0  0  0  0  0
  158.4430  212.5760  154.3380 C   0  0  1  0  0  3  0  0  0  0  0  0
  158.6280  211.0800  153.9790 C   0  0  1  0  0  0  0  0  0  0  0  0
  159.9400  209.4370  152.9400 C   0  0  2  0  0  3  0  0  0  0  0  0
  159.6610  213.1750  154.8940 N   0  0  0  0  0  0  0  0  0  0  0  0
  156.8920  214.0890  153.3050 O   0  0  0  0  0  0  0  0  0  0  0  0
  157.9170  213.3650  153.1690 C   0  0  0  0  0  0  0  0  0  0  0  0
  158.6230  213.3240  151.9230 N   0  0  0  0  0  2  0  0  0  0  0  0
  157.8950  213.5320  148.5490 C   0  0  0  0  0  0  0  0  0  0  0  0
  159.5840  214.4390  149.9190 C   0  0  0  0  0  2  0  0  0  0  0  0
  159.8570  213.5610  147.5460 N   0  0  0  0  0  0  0  0  0  0  0  0
  157.8140  212.7020  147.4500 C   0  0  0  0  0  3  0  0  0  0  0  0
  159.1370  214.0310  148.5760 C   0  0  0  0  0  0  0  0  0  0  0  0
  157.2440  213.5060  149.8710 C   0  0  0  0  0  2  0  0  0  0  0  0
  159.4020  212.0840  145.6420 C   0  0  0  0  0  1  0  0  0  0  0  0
  159.0160  212.8120  146.8370 N   0  0  0  0  0  0  0  0  0  0  0  0
  158.3180  214.1700  150.7700 C   0  0  1  0  0  3  0  0  0  0  0  0
  161.3090  209.2510  152.2780 C   0  0  1  0  0  3  0  0  0  0  0  0
  162.4120  209.0910  153.3140 C   0  0  0  0  0  1  0  0  0  0  0  0
  161.3200  208.1360  151.3250 N   0  0  0  0  0  0  0  0  0  0  0  0
  161.5410  208.2020  150.0410 C   0  0  0  0  0  0  0  0  0  0  0  0
  160.7850  205.2170  150.8330 N   0  0  0  0  0  2  0  0  0  0  0  0
  161.5370  206.9560  149.2540 C   0  0  0  0  0  0  0  0  0  0  0  0
  161.1970  205.7430  149.6950 N   0  0  0  0  0  0  0  0  0  0  0  0
  160.9420  203.6440  149.2220 C   0  0  0  0  0  0  0  0  0  0  0  0
  160.6130  203.8890  150.5670 C   0  0  0  0  0  3  0  0  0  0  0  0
  161.3030  204.8720  148.7380 C   0  0  0  0  0  0  0  0  0  0  0  0
  161.7320  205.4500  147.5590 C   0  0  0  0  0  3  0  0  0  0  0  0
  161.8850  206.8140  147.9030 C   0  0  0  0  0  3  0  0  0  0  0  0
  161.2370  201.0850  148.4330 N   0  0  0  0  0  0  0  0  0  0  0  0
  160.4860  201.6320  147.4470 O   0  0  0  0  0  0  0  0  0  0  0  0
  160.8990  202.3700  148.5110 C   0  0  0  0  0  0  0  0  0  0  0  0
  161.8140  209.4600  149.3820 C   0  0  0  0  0  0  0  0  0  0  0  0
  162.0310  210.4640  148.8530 N   0  0  0  0  0  0  0  0  0  0  0  0
  160.7660  210.2830  157.0900 C   0  0  0  0  0  2  0  0  0  0  0  0
  162.0120  209.4530  157.0640 C   0  0  0  0  0  0  0  0  0  0  0  0
  163.2490  210.0490  157.2610 O   0  0  0  0  0  1  0  0  0  0  0  0
  161.9380  208.2100  156.8830 O   0  0  0  0  0  0  0  0  0  0  0  0
  1  6  1  6  0  0  0
  1  4  1  0  0  0  0
  2 11  1  0  0  0  0
  2 10  1  0  0  0  0
  4  5  1  6  0  0  0
  4  7  1  0  0  0  0
  4 42  1  0  0  0  0
  9 14  1  6  0  0  0
  9 12  1  0  0  0  0
 10  8  1  6  0  0  0
 10  9  1  0  0  0  0
 10  1  1  0  0  0  0
 11 25  1  1  0  0  0
 11  6  1  0  0  0  0
 12  3  1  0  0  0  0
 12  7  1  0  0  0  0
 14 13  2  0  0  0  0
 15 14  1  0  0  0  0
 16 20  1  0  0  0  0
 16 21  1  0  0  0  0
 17 24  1  0  0  0  0
 18 20  2  0  0  0  0
 19 16  2  0  0  0  0
 20 17  1  0  0  0  0
 21 24  1  0  0  0  0
 22 23  1  0  0  0  0
 23 19  1  0  0  0  0
 23 18  1  0  0  0  0
 24 15  1  1  0  0  0
 25 26  1  1  0  0  0
 27 25  1  0  0  0  0
 28 27  2  0  0  0  0
 30 31  1  0  0  0  0
 30 28  1  0  0  0  0
 31 29  1  0  0  0  0
 32 33  2  0  0  0  0
 33 29  1  0  0  0  0
 34 32  1  0  0  0  0
 34 31  1  0  0  0  0
 35 36  1  0  0  0  0
 35 34  2  0  0  0  0
 36 30  2  0  0  0  0
 37 39  2  0  0  0  0
 38 37  1  0  0  0  0
 38 39  1  0  0  0  0
 39 32  1  0  0  0  0
 40 28  1  0  0  0  0
 41 40  3  0  0  0  0
 43 42  1  0  0  0  0
 43 44  1  0  0  0  0
 45 43  2  0  0  0  0
M  END
>  <MODEL>
1

>  <REMARK>
 VINA RESULT:      -6.8      0.000      0.000
  Name = 
  9 active torsions:
  status: ('A' for Active; 'I' for Inactive)
    1  A    between atoms: C_6  and  C_37
    2  A    between atoms: C_8  and  C_37
    3  A    between atoms: C_9  and  C_44
    4  A    between atoms: C_13  and  C_41
    5  A    between atoms: C_16  and  C_44
    6  A    between atoms: C_26  and  C_27
    7  A    between atoms: N_28  and  C_42
    8  A    between atoms: N_31  and  C_38
    9  A    between atoms: C_38  and  C_39
                            x       y       z     vdW  Elec       q    Type
                         _______ _______ _______ _____ _____    ______ ____

>  <TORSDO>
F 9

$$$$
=
 OpenBabel11042420403D

 45 51  0  0  1  0  0  0  0  0999 V2000
  159.6050  211.8230  155.2770 C   0  0  2  0  0  3  0  0  0  0  0  0
  160.5790  210.9610  153.3310 C   0  0  0  0  0  2  0  0  0  0  0  0
  158.8860  207.7430  155.8320 O   0  0  0  0  0  1  0  0  0  0  0  0
  158.1770  211.2670  155.5190 C   0  0  1  0  0  0  0  0  0  0  0  0
  157.3840  211.1760  154.2130 C   0  0  0  0  0  1  0  0  0  0  0  0
  159.5760  212.8820  154.3430 O   0  0  0  0  0  0  0  0  0  0  0  0
  158.2650  209.8760  156.1440 C   0  0  0  0  0  2  0  0  0  0  0  0
  161.9050  211.2280  155.2580 O   0  0  0  0  0  1  0  0  0  0  0  0
  160.4110  209.3590  155.3180 C   0  0  1  0  0  3  0  0  0  0  0  0
  160.6480  210.8060  154.8170 C   0  0  1  0  0  0  0  0  0  0  0  0
  160.2350  212.4300  153.1760 C   0  0  2  0  0  3  0  0  0  0  0  0
  158.9970  208.9710  155.2680 N   0  0  0  0  0  0  0  0  0  0  0  0
  162.1140  207.6690  155.2350 O   0  0  0  0  0  0  0  0  0  0  0  0
  161.2850  208.3720  154.5930 C   0  0  0  0  0  0  0  0  0  0  0  0
  161.1270  208.2040  153.1790 N   0  0  0  0  0  2  0  0  0  0  0  0
  162.0920  207.0610  150.0610 C   0  0  0  0  0  0  0  0  0  0  0  0
  160.7600  206.1740  151.7910 C   0  0  0  0  0  2  0  0  0  0  0  0
  160.3390  205.9700  149.2890 N   0  0  0  0  0  0  0  0  0  0  0  0
  161.9370  207.4050  148.7340 C   0  0  0  0  0  3  0  0  0  0  0  0
  161.1140  206.1970  150.3610 C   0  0  0  0  0  0  0  0  0  0  0  0
  162.6050  207.7950  151.2300 C   0  0  0  0  0  2  0  0  0  0  0  0
  160.3500  206.7120  146.9520 C   0  0  0  0  0  1  0  0  0  0  0  0
  160.8970  206.6570  148.2960 N   0  0  0  0  0  0  0  0  0  0  0  0
  161.7880  207.1670  152.3880 C   0  0  1  0  0  3  0  0  0  0  0  0
  159.3720  212.6720  151.9340 C   0  0  1  0  0  3  0  0  0  0  0  0
  158.3430  213.7670  152.1750 C   0  0  0  0  0  1  0  0  0  0  0  0
  160.1790  212.9650  150.7440 N   0  0  0  0  0  0  0  0  0  0  0  0
  159.7430  213.2870  149.5570 C   0  0  0  0  0  0  0  0  0  0  0  0
  159.8600  212.3820  146.5120 N   0  0  0  0  0  2  0  0  0  0  0  0
  160.7210  213.5720  148.4930 C   0  0  0  0  0  0  0  0  0  0  0  0
  160.6690  213.1330  147.2330 N   0  0  0  0  0  0  0  0  0  0  0  0
  161.6010  213.1140  145.2780 C   0  0  0  0  0  0  0  0  0  0  0  0
  160.4210  212.3510  145.2680 C   0  0  0  0  0  3  0  0  0  0  0  0
  161.6890  213.5770  146.5630 C   0  0  0  0  0  0  0  0  0  0  0  0
  162.5160  214.3630  147.3400 C   0  0  0  0  0  3  0  0  0  0  0  0
  161.8790  214.3550  148.6030 C   0  0  0  0  0  3  0  0  0  0  0  0
  163.5870  213.9750  143.6740 N   0  0  0  0  0  0  0  0  0  0  0  0
  162.8930  213.1220  142.8830 O   0  0  0  0  0  0  0  0  0  0  0  0
  162.5150  213.3580  144.1660 C   0  0  0  0  0  0  0  0  0  0  0  0
  158.3290  213.3940  149.2740 C   0  0  0  0  0  0  0  0  0  0  0  0
  157.1980  213.4780  149.0500 N   0  0  0  0  0  0  0  0  0  0  0  0
  157.4710  212.2280  156.4840 C   0  0  0  0  0  2  0  0  0  0  0  0
  155.9860  212.2860  156.3080 C   0  0  0  0  0  0  0  0  0  0  0  0
  155.1940  211.2250  156.7200 O   0  0  0  0  0  1  0  0  0  0  0  0
  155.4510  213.3080  155.8040 O   0  0  0  0  0  0  0  0  0  0  0  0
  1  6  1  6  0  0  0
  1  4  1  0  0  0  0
  2 10  1  0  0  0  0
  4  5  1  6  0  0  0
  4  7  1  0  0  0  0
  4 42  1  0  0  0  0
  9 14  1  6  0  0  0
 10  8  1  1  0  0  0
 10  1  1  0  0  0  0
 10  9  1  0  0  0  0
 11 25  1  6  0  0  0
 11  2  1  0  0  0  0
 11  6  1  0  0  0  0
 12  9  1  0  0  0  0
 12  3  1  0  0  0  0
 12  7  1  0  0  0  0
 14 13  2  0  0  0  0
 15 14  1  0  0  0  0
 16 20  1  0  0  0  0
 16 21  1  0  0  0  0
 17 24  1  0  0  0  0
 18 20  2  0  0  0  0
 19 16  2  0  0  0  0
 20 17  1  0  0  0  0
 21 24  1  0  0  0  0
 22 23  1  0  0  0  0
 23 19  1  0  0  0  0
 23 18  1  0  0  0  0
 24 15  1  6  0  0  0
 25 26  1  1  0  0  0
 27 25  1  0  0  0  0
 28 27  2  0  0  0  0
 29 31  1  0  0  0  0
 30 36  2  0  0  0  0
 30 28  1  0  0  0  0
 31 30  1  0  0  0  0
 32 34  1  0  0  0  0
 33 32  2  0  0  0  0
 33 29  1  0  0  0  0
 34 31  1  0  0  0  0
 34 35  2  0  0  0  0
 35 36  1  0  0  0  0
 37 39  2  0  0  0  0
 38 37  1  0  0  0  0
 38 39  1  0  0  0  0
 39 32  1  0  0  0  0
 40 28  1  0  0  0  0
 41 40  3  0  0  0  0
 43 42  1  0  0  0  0
 43 44  1  0  0  0  0
 45 43  2  0  0  0  0
M  END
>  <MODEL>
2

>  <REMARK>
 VINA RESULT:      -5.9      2.876      7.131
  Name = 
  9 active torsions:
  status: ('A' for Active; 'I' for Inactive)
    1  A    between atoms: C_6  and  C_37
    2  A    between atoms: C_8  and  C_37
    3  A    between atoms: C_9  and  C_44
    4  A    between atoms: C_13  and  C_41
    5  A    between atoms: C_16  and  C_44
    6  A    between atoms: C_26  and  C_27
    7  A    between atoms: N_28  and  C_42
    8  A    between atoms: N_31  and  C_38
    9  A    between atoms: C_38  and  C_39
                            x       y       z     vdW  Elec       q    Type
                         _______ _______ _______ _____ _____    ______ ____

>  <TORSDO>
F 9

$$$$
=
 OpenBabel11042420403D

 45 51  0  0  1  0  0  0  0  0999 V2000
  160.2730  211.5230  154.7910 C   0  0  2  0  0  3  0  0  0  0  0  0
  159.8430  210.6840  152.6480 C   0  0  0  0  0  2  0  0  0  0  0  0
  159.6950  207.4800  155.6800 O   0  0  0  0  0  1  0  0  0  0  0  0
  159.2220  211.0550  155.8310 C   0  0  1  0  0  0  0  0  0  0  0  0
  157.8090  211.0750  155.2450 C   0  0  0  0  0  1  0  0  0  0  0  0
  159.7850  212.6220  154.0490 O   0  0  0  0  0  0  0  0  0  0  0  0
  159.5490  209.6350  156.2890 C   0  0  0  0  0  2  0  0  0  0  0  0
  162.0650  210.7770  153.4210 O   0  0  0  0  0  1  0  0  0  0  0  0
  160.7480  209.0110  154.3590 C   0  0  1  0  0  3  0  0  0  0  0  0
  160.7600  210.4590  153.8080 C   0  0  1  0  0  0  0  0  0  0  0  0
  159.5930  212.1780  152.7200 C   0  0  2  0  0  3  0  0  0  0  0  0
  159.5510  208.7220  155.1540 N   0  0  0  0  0  0  0  0  0  0  0  0
  160.5060  208.2330  152.1010 O   0  0  0  0  0  0  0  0  0  0  0  0
  160.9460  208.0010  153.2610 C   0  0  0  0  0  0  0  0  0  0  0  0
  161.6820  206.8030  153.5370 N   0  0  0  0  0  2  0  0  0  0  0  0
  162.2530  206.1050  150.1980 C   0  0  0  0  0  0  0  0  0  0  0  0
  160.8580  205.1700  151.8520 C   0  0  0  0  0  2  0  0  0  0  0  0
  160.2860  205.5180  149.3970 N   0  0  0  0  0  0  0  0  0  0  0  0
  162.1050  206.7130  148.9700 C   0  0  0  0  0  3  0  0  0  0  0  0
  161.1410  205.3940  150.4240 C   0  0  0  0  0  0  0  0  0  0  0  0
  162.9550  206.5010  151.4320 C   0  0  0  0  0  2  0  0  0  0  0  0
  160.3290  206.6680  147.2320 C   0  0  0  0  0  1  0  0  0  0  0  0
  160.9180  206.2640  148.4960 N   0  0  0  0  0  0  0  0  0  0  0  0
  162.0890  205.8290  152.5260 C   0  0  1  0  0  3  0  0  0  0  0  0
  158.1870  212.5320  152.2250 C   0  0  1  0  0  3  0  0  0  0  0  0
  157.7240  213.8740  152.7740 C   0  0  0  0  0  1  0  0  0  0  0  0
  158.0880  212.5030  150.7610 N   0  0  0  0  0  0  0  0  0  0  0  0
  158.8940  213.0710  149.9070 C   0  0  0  0  0  0  0  0  0  0  0  0
  160.8660  213.0330  147.4140 N   0  0  0  0  0  2  0  0  0  0  0  0
  158.6390  212.9000  148.4660 C   0  0  0  0  0  0  0  0  0  0  0  0
  159.5560  212.9020  147.4950 N   0  0  0  0  0  0  0  0  0  0  0  0
  159.9530  212.7230  145.3730 C   0  0  0  0  0  0  0  0  0  0  0  0
  161.1500  212.9230  146.0820 C   0  0  0  0  0  3  0  0  0  0  0  0
  158.9870  212.7220  146.3420 C   0  0  0  0  0  0  0  0  0  0  0  0
  157.6180  212.5840  146.4580 C   0  0  0  0  0  3  0  0  0  0  0  0
  157.3950  212.7030  147.8500 C   0  0  0  0  0  3  0  0  0  0  0  0
  159.9800  211.8250  142.8330 N   0  0  0  0  0  0  0  0  0  0  0  0
  159.3250  213.0080  142.7410 O   0  0  0  0  0  0  0  0  0  0  0  0
  159.7870  212.5490  143.9330 C   0  0  0  0  0  0  0  0  0  0  0  0
  160.0400  213.8380  150.3420 C   0  0  0  0  0  0  0  0  0  0  0  0
  160.9580  214.4490  150.6900 N   0  0  0  0  0  0  0  0  0  0  0  0
  159.2990  212.0170  157.0220 C   0  0  0  0  0  2  0  0  0  0  0  0
  160.6280  212.6910  157.1760 C   0  0  0  0  0  0  0  0  0  0  0  0
  161.7860  211.9320  157.2600 O   0  0  0  0  0  1  0  0  0  0  0  0
  160.6970  213.9470  157.2100 O   0  0  0  0  0  0  0  0  0  0  0  0
  1  6  1  6  0  0  0
  1  4  1  0  0  0  0
  2 11  1  0  0  0  0
  2 10  1  0  0  0  0
  4  5  1  6  0  0  0
  4  7  1  0  0  0  0
  4 42  1  0  0  0  0
  9 14  1  6  0  0  0
  9 12  1  0  0  0  0
 10  8  1  6  0  0  0
 10  9  1  0  0  0  0
 10  1  1  0  0  0  0
 11 25  1  1  0  0  0
 11  6  1  0  0  0  0
 12  3  1  0  0  0  0
 12  7  1  0  0  0  0
 13 14  2  0  0  0  0
 14 15  1  0  0  0  0
 16 20  1  0  0  0  0
 16 21  1  0  0  0  0
 17 24  1  0  0  0  0
 18 20  2  0  0  0  0
 19 16  2  0  0  0  0
 20 17  1  0  0  0  0
 21 24  1  0  0  0  0
 22 23  1  0  0  0  0
 23 19  1  0  0  0  0
 23 18  1  0  0  0  0
 24 15  1  1  0  0  0
 25 26  1  6  0  0  0
 27 25  1  0  0  0  0
 28 40  1  0  0  0  0
 28 27  2  0  0  0  0
 29 31  1  0  0  0  0
 30 28  1  0  0  0  0
 31 30  1  0  0  0  0
 32 33  2  0  0  0  0
 32 34  1  0  0  0  0
 33 29  1  0  0  0  0
 34 35  2  0  0  0  0
 34 31  1  0  0  0  0
 35 36  1  0  0  0  0
 36 30  2  0  0  0  0
 37 39  2  0  0  0  0
 38 37  1  0  0  0  0
 38 39  1  0  0  0  0
 39 32  1  0  0  0  0
 40 41  3  0  0  0  0
 42 43  1  0  0  0  0
 43 45  2  0  0  0  0
 43 44  1  0  0  0  0
M  END
>  <MODEL>
3

>  <REMARK>
 VINA RESULT:      -5.3      2.478      6.926
  Name = 
  9 active torsions:
  status: ('A' for Active; 'I' for Inactive)
    1  A    between atoms: C_6  and  C_37
    2  A    between atoms: C_8  and  C_37
    3  A    between atoms: C_9  and  C_44
    4  A    between atoms: C_13  and  C_41
    5  A    between atoms: C_16  and  C_44
    6  A    between atoms: C_26  and  C_27
    7  A    between atoms: N_28  and  C_42
    8  A    between atoms: N_31  and  C_38
    9  A    between atoms: C_38  and  C_39
                            x       y       z     vdW  Elec       q    Type
                         _______ _______ _______ _____ _____    ______ ____

>  <TORSDO>
F 9

$$$$
=
 OpenBabel11042420403D

 45 51  0  0  1  0  0  0  0  0999 V2000
  159.3080  209.6210  155.3110 C   0  0  2  0  0  3  0  0  0  0  0  0
  159.5590  210.8280  153.3220 C   0  0  0  0  0  2  0  0  0  0  0  0
  160.4810  213.3300  156.8390 O   0  0  0  0  0  1  0  0  0  0  0  0
  160.5320  209.7700  156.2510 C   0  0  1  0  0  0  0  0  0  0  0  0
  161.8470  209.7350  155.4680 C   0  0  0  0  0  1  0  0  0  0  0  0
  159.5600  208.6520  154.3140 O   0  0  0  0  0  0  0  0  0  0  0  0
  160.4410  211.0930  157.0090 C   0  0  0  0  0  2  0  0  0  0  0  0
  157.4590  210.7920  154.3860 O   0  0  0  0  0  1  0  0  0  0  0  0
  159.0890  212.2010  155.4290 C   0  0  1  0  0  3  0  0  0  0  0  0
  158.8320  210.9010  154.6270 C   0  0  1  0  0  0  0  0  0  0  0  0
  159.6330  209.3340  153.0760 C   0  0  2  0  0  3  0  0  0  0  0  0
  160.4050  212.2110  156.0760 N   0  0  0  0  0  0  0  0  0  0  0  0
  159.5880  214.4530  154.7620 O   0  0  0  0  0  0  0  0  0  0  0  0
  158.8770  213.4260  154.5800 C   0  0  0  0  0  0  0  0  0  0  0  0
  157.8990  213.3910  153.5330 N   0  0  0  0  0  2  0  0  0  0  0  0
  156.8140  214.2780  150.3720 C   0  0  0  0  0  0  0  0  0  0  0  0
  158.8730  214.4530  151.5060 C   0  0  0  0  0  2  0  0  0  0  0  0
  158.5330  213.8810  149.0500 N   0  0  0  0  0  0  0  0  0  0  0  0
  156.3320  213.6730  149.2310 C   0  0  0  0  0  3  0  0  0  0  0  0
  158.1410  214.3880  150.2290 C   0  0  0  0  0  0  0  0  0  0  0  0
  156.3760  214.2540  151.7780 C   0  0  0  0  0  2  0  0  0  0  0  0
  157.3870  212.8860  147.1240 C   0  0  0  0  0  1  0  0  0  0  0  0
  157.4130  213.5170  148.4310 N   0  0  0  0  0  0  0  0  0  0  0  0
  157.7140  214.4430  152.5360 C   0  0  1  0  0  3  0  0  0  0  0  0
  160.9110  208.9560  152.3210 C   0  0  1  0  0  3  0  0  0  0  0  0
  162.1540  209.2450  153.1490 C   0  0  0  0  0  1  0  0  0  0  0  0
  160.8970  207.5610  151.8670 N   0  0  0  0  0  0  0  0  0  0  0  0
  161.2160  207.1160  150.6820 C   0  0  0  0  0  0  0  0  0  0  0  0
  161.3790  205.4460  147.9830 N   0  0  0  0  0  2  0  0  0  0  0  0
  161.1640  205.6650  150.4290 C   0  0  0  0  0  0  0  0  0  0  0  0
  161.2430  205.0670  149.2390 N   0  0  0  0  0  0  0  0  0  0  0  0
  161.2560  203.1980  148.1430 C   0  0  0  0  0  0  0  0  0  0  0  0
  161.3920  204.2850  147.2630 C   0  0  0  0  0  3  0  0  0  0  0  0
  161.1660  203.7780  149.3790 C   0  0  0  0  0  0  0  0  0  0  0  0
  161.0280  203.4100  150.7030 C   0  0  0  0  0  3  0  0  0  0  0  0
  161.0250  204.6490  151.3860 C   0  0  0  0  0  3  0  0  0  0  0  0
  160.9620  200.8070  146.9360 N   0  0  0  0  0  0  0  0  0  0  0  0
  161.4440  200.4830  148.1600 O   0  0  0  0  0  0  0  0  0  0  0  0
  161.2250  201.7770  147.8090 C   0  0  0  0  0  0  0  0  0  0  0  0
  161.6420  208.0090  149.6270 C   0  0  0  0  0  0  0  0  0  0  0  0
  161.9800  208.7210  148.7820 N   0  0  0  0  0  0  0  0  0  0  0  0
  160.4920  208.5990  157.2410 C   0  0  0  0  0  2  0  0  0  0  0  0
  160.4670  207.2510  156.5900 C   0  0  0  0  0  0  0  0  0  0  0  0
  161.5530  206.8200  155.8410 O   0  0  0  0  0  0  0  0  0  0  0  0
  159.4700  206.4980  156.7380 O   0  0  0  0  0  1  0  0  0  0  0  0
  1  6  1  6  0  0  0
  1  4  1  0  0  0  0
  2 10  1  0  0  0  0
  4  5  1  6  0  0  0
  4  7  1  0  0  0  0
  4 42  1  0  0  0  0
  9 14  1  6  0  0  0
  9 12  1  0  0  0  0
 10  8  1  6  0  0  0
 10  1  1  0  0  0  0
 10  9  1  0  0  0  0
 11 25  1  1  0  0  0
 11  2  1  0  0  0  0
 11  6  1  0  0  0  0
 12  3  1  0  0  0  0
 12  7  1  0  0  0  0
 14 13  2  0  0  0  0
 15 14  1  0  0  0  0
 16 21  1  0  0  0  0
 17 24  1  0  0  0  0
 18 20  2  0  0  0  0
 19 16  2  0  0  0  0
 20 16  1  0  0  0  0
 20 17  1  0  0  0  0
 21 24  1  0  0  0  0
 22 23  1  0  0  0  0
 23 18  1  0  0  0  0
 23 19  1  0  0  0  0
 24 15  1  1  0  0  0
 25 26  1  1  0  0  0
 27 25  1  0  0  0  0
 28 27  2  0  0  0  0
 29 31  1  0  0  0  0
 30 28  1  0  0  0  0
 30 36  2  0  0  0  0
 31 34  1  0  0  0  0
 31 30  1  0  0  0  0
 32 34  1  0  0  0  0
 33 29  1  0  0  0  0
 33 32  2  0  0  0  0
 34 35  2  0  0  0  0
 35 36  1  0  0  0  0
 37 39  2  0  0  0  0
 37 38  1  0  0  0  0
 39 32  1  0  0  0  0
 39 38  1  0  0  0  0
 40 28  1  0  0  0  0
 41 40  3  0  0  0  0
 43 45  1  0  0  0  0
 43 42  1  0  0  0  0
 44 43  2  0  0  0  0
M  END
>  <MODEL>
4

>  <REMARK>
 VINA RESULT:      -4.9      1.495      2.034
  Name = 
  9 active torsions:
  status: ('A' for Active; 'I' for Inactive)
    1  A    between atoms: C_6  and  C_37
    2  A    between atoms: C_8  and  C_37
    3  A    between atoms: C_9  and  C_44
    4  A    between atoms: C_13  and  C_41
    5  A    between atoms: C_16  and  C_44
    6  A    between atoms: C_26  and  C_27
    7  A    between atoms: N_28  and  C_42
    8  A    between atoms: N_31  and  C_38
    9  A    between atoms: C_38  and  C_39
                            x       y       z     vdW  Elec       q    Type
                         _______ _______ _______ _____ _____    ______ ____

>  <TORSDO>
F 9

$$$$
