=
 OpenBabel11052411553D

 32 35  0  0  1  0  0  0  0  0999 V2000
  162.3090  207.1300  148.7080 C   0  0  0  0  0  1  0  0  0  0  0  0
  162.3760  207.6810  150.1280 C   0  0  1  0  0  3  0  0  0  0  0  0
  161.5810  208.9190  150.2500 N   0  0  0  0  0  0  0  0  0  0  0  0
  161.9730  209.8160  149.1660 C   0  0  0  0  0  1  0  0  0  0  0  0
  161.9560  209.6060  151.4840 C   0  0  1  0  0  3  0  0  0  0  0  0
  161.3820  210.8960  151.5150 O   0  0  0  0  0  0  0  0  0  0  0  0
  160.7420  209.9060  152.2840 C   0  0  2  0  0  3  0  0  0  0  0  0
  160.5110  210.6390  156.4740 N   0  0  0  0  0  0  0  0  0  0  0  0
  160.6600  211.7010  155.5220 C   0  0  0  0  0  3  0  0  0  0  0  0
  160.2340  209.0780  154.6200 C   0  0  2  0  0  3  0  0  0  0  0  0
  160.8750  211.4380  154.2670 N   0  0  0  0  0  0  0  0  0  0  0  0
  160.6040  206.7240  155.3170 C   0  0  0  0  0  3  0  0  0  0  0  0
  160.3710  209.4060  156.0890 C   0  0  0  0  0  0  0  0  0  0  0  0
  160.3520  207.1090  156.7180 C   0  0  0  0  0  3  0  0  0  0  0  0
  160.2580  208.3590  157.0630 N   0  0  0  0  0  0  0  0  0  0  0  0
  160.5950  207.6410  154.3450 C   0  0  0  0  0  3  0  0  0  0  0  0
  161.0590  210.0610  153.7810 C   0  0  2  0  0  3  0  0  0  0  0  0
  161.8530  206.5820  151.0480 C   0  0  0  0  0  2  0  0  0  0  0  0
  160.8800  205.6800  150.3050 C   0  0  0  0  0  2  0  0  0  0  0  0
  161.3460  204.2300  150.3360 C   0  0  1  0  0  3  0  0  0  0  0  0
  161.5780  203.7790  151.7760 C   0  0  0  0  0  3  0  0  0  0  0  0
  161.9850  202.4540  151.8220 F   0  0  0  0  0  0  0  0  0  0  0  0
  160.4240  203.9420  152.5210 F   0  0  0  0  0  0  0  0  0  0  0  0
  160.3280  203.3260  149.6460 C   0  0  0  0  0  2  0  0  0  0  0  0
  161.1660  201.4560  148.2230 C   0  0  0  0  0  1  0  0  0  0  0  0
  160.7900  202.9280  148.2500 C   0  0  2  0  0  3  0  0  0  0  0  0
  161.9300  203.8090  147.7320 C   0  0  0  0  0  2  0  0  0  0  0  0
  162.0690  203.7860  146.2120 C   0  0  1  0  0  3  0  0  0  0  0  0
  160.8080  204.2730  145.5670 C   0  0  0  0  0  2  0  0  0  0  0  0
  161.2970  205.4650  144.8010 C   0  0  0  0  0  2  0  0  0  0  0  0
  162.4970  205.8700  145.3980 O   0  0  0  0  0  0  0  0  0  0  0  0
  163.1090  204.7190  145.8040 N   0  0  0  0  0  2  0  0  0  0  0  0
  2  1  1  6  0  0  0
  2  3  1  0  0  0  0
  2 18  1  0  0  0  0
  4  3  1  0  0  0  0
  5  3  1  6  0  0  0
  5  6  1  0  0  0  0
  5  7  1  0  0  0  0
  7  6  1  6  0  0  0
  7 17  1  0  0  0  0
  9  8  1  0  0  0  0
 10 16  1  1  0  0  0
 10 13  1  0  0  0  0
 11  9  2  0  0  0  0
 12 14  1  0  0  0  0
 13  8  2  0  0  0  0
 13 15  1  0  0  0  0
 14 15  2  0  0  0  0
 16 12  2  0  0  0  0
 17 11  1  1  0  0  0
 17 10  1  0  0  0  0
 19 20  1  0  0  0  0
 19 18  1  0  0  0  0
 20 24  1  1  0  0  0
 20 21  1  0  0  0  0
 21 22  1  0  0  0  0
 21 23  1  0  0  0  0
 26 25  1  1  0  0  0
 26 24  1  0  0  0  0
 27 26  1  0  0  0  0
 28 27  1  1  0  0  0
 29 28  1  0  0  0  0
 30 31  1  0  0  0  0
 30 29  1  0  0  0  0
 31 32  1  0  0  0  0
 32 28  1  0  0  0  0
M  END
>  <MODEL>
1

>  <REMARK>
 VINA RESULT:      -8.0      0.000      0.000
  Name = 
  11 active torsions:
  status: ('A' for Active; 'I' for Inactive)
    1  A    between atoms: C_1  and  C_10
    2  A    between atoms: C_1  and  C_16
    3  A    between atoms: C_1  and  C_22
    4  A    between atoms: N_2  and  C_11
    5  A    between atoms: N_2  and  C_20
    6  A    between atoms: C_4  and  C_7
    7  A    between atoms: C_7  and  C_23
    8  A    between atoms: C_16  and  C_25
    9  A    between atoms: C_20  and  C_25
   10  A    between atoms: C_22  and  C_23
   11  A    between atoms: C_30  and  C_32
                            x       y       z     vdW  Elec       q    Type
                         _______ _______ _______ _____ _____    ______ ____

>  <TORSDO>
F 11

$$$$
=
 OpenBabel11052411553D

 32 35  0  0  1  0  0  0  0  0999 V2000
  160.7560  205.3920  151.3170 C   0  0  0  0  0  1  0  0  0  0  0  0
  161.7150  206.5140  151.7030 C   0  0  1  0  0  3  0  0  0  0  0  0
  162.2150  207.2140  150.5040 N   0  0  0  0  0  0  0  0  0  0  0  0
  162.1180  208.6510  150.7450 C   0  0  0  0  0  1  0  0  0  0  0  0
  161.3150  206.9420  149.3850 C   0  0  1  0  0  3  0  0  0  0  0  0
  161.5480  207.8620  148.3390 O   0  0  0  0  0  0  0  0  0  0  0  0
  162.1030  206.5790  148.1800 C   0  0  2  0  0  3  0  0  0  0  0  0
  160.8740  204.1070  144.9340 N   0  0  0  0  0  0  0  0  0  0  0  0
  161.0790  205.5180  144.7820 C   0  0  0  0  0  3  0  0  0  0  0  0
  161.7570  204.2700  147.2030 C   0  0  2  0  0  3  0  0  0  0  0  0
  161.3090  206.2680  145.8190 N   0  0  0  0  0  0  0  0  0  0  0  0
  161.1370  202.3070  148.5900 C   0  0  0  0  0  3  0  0  0  0  0  0
  161.1230  203.5090  146.0610 C   0  0  0  0  0  0  0  0  0  0  0  0
  160.8920  201.5280  147.3620 C   0  0  0  0  0  3  0  0  0  0  0  0
  160.8760  202.1030  146.1970 N   0  0  0  0  0  0  0  0  0  0  0  0
  161.4960  203.5930  148.5230 C   0  0  0  0  0  3  0  0  0  0  0  0
  161.2880  205.7300  147.1890 C   0  0  2  0  0  3  0  0  0  0  0  0
  160.9410  207.4530  152.6230 C   0  0  0  0  0  2  0  0  0  0  0  0
  160.7930  206.8420  154.0080 C   0  0  0  0  0  2  0  0  0  0  0  0
  160.4760  207.9120  155.0460 C   0  0  1  0  0  3  0  0  0  0  0  0
  159.6370  207.3220  156.1760 C   0  0  0  0  0  3  0  0  0  0  0  0
  160.3990  206.4810  156.9730 F   0  0  0  0  0  0  0  0  0  0  0  0
  158.5570  206.6310  155.6600 F   0  0  0  0  0  0  0  0  0  0  0  0
  161.7630  208.5240  155.5920 C   0  0  0  0  0  2  0  0  0  0  0  0
  162.7680  210.7090  156.2560 C   0  0  0  0  0  1  0  0  0  0  0  0
  161.8620  210.0070  155.2590 C   0  0  2  0  0  3  0  0  0  0  0  0
  160.4920  210.6850  155.1720 C   0  0  0  0  0  2  0  0  0  0  0  0
  160.3940  211.7060  154.0410 C   0  0  1  0  0  3  0  0  0  0  0  0
  159.9380  211.0420  152.7790 C   0  0  0  0  0  2  0  0  0  0  0  0
  158.6650  211.7780  152.4880 C   0  0  0  0  0  2  0  0  0  0  0  0
  158.2330  212.3390  153.6960 O   0  0  0  0  0  0  0  0  0  0  0  0
  159.3720  212.6910  154.3620 N   0  0  0  0  0  2  0  0  0  0  0  0
  2  1  1  6  0  0  0
  2 18  1  0  0  0  0
  3  4  1  0  0  0  0
  3  2  1  0  0  0  0
  5  3  1  1  0  0  0
  6  5  1  0  0  0  0
  7  6  1  6  0  0  0
  7  5  1  0  0  0  0
  8 13  2  0  0  0  0
  9  8  1  0  0  0  0
  9 11  2  0  0  0  0
 10 16  1  1  0  0  0
 13 15  1  0  0  0  0
 13 10  1  0  0  0  0
 14 12  1  0  0  0  0
 15 14  2  0  0  0  0
 16 12  2  0  0  0  0
 17 11  1  6  0  0  0
 17 10  1  0  0  0  0
 17  7  1  0  0  0  0
 18 19  1  0  0  0  0
 20 19  1  6  0  0  0
 20 24  1  0  0  0  0
 20 21  1  0  0  0  0
 21 22  1  0  0  0  0
 23 21  1  0  0  0  0
 26 24  1  0  0  0  0
 26 25  1  1  0  0  0
 27 26  1  0  0  0  0
 28 32  1  0  0  0  0
 28 27  1  1  0  0  0
 29 28  1  0  0  0  0
 30 29  1  0  0  0  0
 30 31  1  0  0  0  0
 31 32  1  0  0  0  0
M  END
>  <MODEL>
2

>  <REMARK>
 VINA RESULT:      -7.8      2.366      8.614
  Name = 
  11 active torsions:
  status: ('A' for Active; 'I' for Inactive)
    1  A    between atoms: C_1  and  C_10
    2  A    between atoms: C_1  and  C_16
    3  A    between atoms: C_1  and  C_22
    4  A    between atoms: N_2  and  C_11
    5  A    between atoms: N_2  and  C_20
    6  A    between atoms: C_4  and  C_7
    7  A    between atoms: C_7  and  C_23
    8  A    between atoms: C_16  and  C_25
    9  A    between atoms: C_20  and  C_25
   10  A    between atoms: C_22  and  C_23
   11  A    between atoms: C_30  and  C_32
                            x       y       z     vdW  Elec       q    Type
                         _______ _______ _______ _____ _____    ______ ____

>  <TORSDO>
F 11

$$$$
=
 OpenBabel11052411553D

 32 35  0  0  1  0  0  0  0  0999 V2000
  161.9600  209.5790  151.0880 C   0  0  0  0  0  1  0  0  0  0  0  0
  161.2520  208.4640  150.3260 C   0  0  1  0  0  3  0  0  0  0  0  0
  162.0660  208.0110  149.1810 N   0  0  0  0  0  0  0  0  0  0  0  0
  162.3700  209.1750  148.3540 C   0  0  0  0  0  1  0  0  0  0  0  0
  161.2560  207.1320  148.3400 C   0  0  1  0  0  3  0  0  0  0  0  0
  161.7130  207.1800  147.0050 O   0  0  0  0  0  0  0  0  0  0  0  0
  162.1070  206.0620  147.7620 C   0  0  2  0  0  3  0  0  0  0  0  0
  160.8940  202.1790  146.4960 N   0  0  0  0  0  0  0  0  0  0  0  0
  161.2170  203.2190  145.5620 C   0  0  0  0  0  3  0  0  0  0  0  0
  161.6460  203.6340  148.3040 C   0  0  2  0  0  3  0  0  0  0  0  0
  161.4400  204.4320  145.9740 N   0  0  0  0  0  0  0  0  0  0  0  0
  160.7920  202.8930  150.5140 C   0  0  0  0  0  3  0  0  0  0  0  0
  161.0260  202.3600  147.7750 C   0  0  0  0  0  0  0  0  0  0  0  0
  160.5630  201.5440  149.9640 C   0  0  0  0  0  3  0  0  0  0  0  0
  160.6650  201.3150  148.6880 N   0  0  0  0  0  0  0  0  0  0  0  0
  161.2520  203.8780  149.7380 C   0  0  0  0  0  3  0  0  0  0  0  0
  161.2920  204.8120  147.3890 C   0  0  2  0  0  3  0  0  0  0  0  0
  161.0060  207.3380  151.3260 C   0  0  0  0  0  2  0  0  0  0  0  0
  161.1590  207.8460  152.7510 C   0  0  0  0  0  2  0  0  0  0  0  0
  160.7090  206.7950  153.7570 C   0  0  1  0  0  3  0  0  0  0  0  0
  161.5890  205.5520  153.6550 C   0  0  0  0  0  3  0  0  0  0  0  0
  162.7000  205.7950  152.8620 F   0  0  0  0  0  0  0  0  0  0  0  0
  160.8650  204.4930  153.1390 F   0  0  0  0  0  0  0  0  0  0  0  0
  160.7390  207.3630  155.1740 C   0  0  0  0  0  2  0  0  0  0  0  0
  161.9590  209.3240  156.1150 C   0  0  0  0  0  1  0  0  0  0  0  0
  160.8600  208.8810  155.1650 C   0  0  2  0  0  3  0  0  0  0  0  0
  159.5340  209.5810  155.4730 C   0  0  0  0  0  2  0  0  0  0  0  0
  159.5380  211.0660  155.1210 C   0  0  1  0  0  3  0  0  0  0  0  0
  160.2210  211.2880  153.8070 C   0  0  0  0  0  2  0  0  0  0  0  0
  159.1260  211.9090  152.9930 C   0  0  0  0  0  2  0  0  0  0  0  0
  157.9150  211.5500  153.5970 O   0  0  0  0  0  0  0  0  0  0  0  0
  158.1690  211.5270  154.9390 N   0  0  0  0  0  2  0  0  0  0  0  0
  2  1  1  1  0  0  0
  2 18  1  0  0  0  0
  3  2  1  0  0  0  0
  4  3  1  0  0  0  0
  5  3  1  1  0  0  0
  6  5  1  0  0  0  0
  7  6  1  6  0  0  0
  7  5  1  0  0  0  0
  8 13  2  0  0  0  0
  9 11  2  0  0  0  0
  9  8  1  0  0  0  0
 10 16  1  1  0  0  0
 13 10  1  0  0  0  0
 13 15  1  0  0  0  0
 14 12  1  0  0  0  0
 15 14  2  0  0  0  0
 16 12  2  0  0  0  0
 17 11  1  6  0  0  0
 17  7  1  0  0  0  0
 17 10  1  0  0  0  0
 18 19  1  0  0  0  0
 20 19  1  6  0  0  0
 20 24  1  0  0  0  0
 21 20  1  0  0  0  0
 22 21  1  0  0  0  0
 23 21  1  0  0  0  0
 26 24  1  0  0  0  0
 26 27  1  0  0  0  0
 26 25  1  1  0  0  0
 28 27  1  6  0  0  0
 29 28  1  0  0  0  0
 30 31  1  0  0  0  0
 30 29  1  0  0  0  0
 31 32  1  0  0  0  0
 32 28  1  0  0  0  0
M  END
>  <MODEL>
3

>  <REMARK>
 VINA RESULT:      -7.3      1.967      8.187
  Name = 
  11 active torsions:
  status: ('A' for Active; 'I' for Inactive)
    1  A    between atoms: C_1  and  C_10
    2  A    between atoms: C_1  and  C_16
    3  A    between atoms: C_1  and  C_22
    4  A    between atoms: N_2  and  C_11
    5  A    between atoms: N_2  and  C_20
    6  A    between atoms: C_4  and  C_7
    7  A    between atoms: C_7  and  C_23
    8  A    between atoms: C_16  and  C_25
    9  A    between atoms: C_20  and  C_25
   10  A    between atoms: C_22  and  C_23
   11  A    between atoms: C_30  and  C_32
                            x       y       z     vdW  Elec       q    Type
                         _______ _______ _______ _____ _____    ______ ____

>  <TORSDO>
F 11

$$$$
=
 OpenBabel11052411553D

 32 35  0  0  1  0  0  0  0  0999 V2000
  161.1480  207.6840  150.2990 C   0  0  0  0  0  1  0  0  0  0  0  0
  161.9550  207.3200  151.5410 C   0  0  1  0  0  3  0  0  0  0  0  0
  161.6620  208.2500  152.6480 N   0  0  0  0  0  0  0  0  0  0  0  0
  161.0990  207.4780  153.7520 C   0  0  0  0  0  1  0  0  0  0  0  0
  160.6040  209.1680  152.2310 C   0  0  1  0  0  3  0  0  0  0  0  0
  160.2050  209.9760  153.3190 O   0  0  0  0  0  0  0  0  0  0  0  0
  161.0660  210.5720  152.3800 C   0  0  2  0  0  3  0  0  0  0  0  0
  159.6340  214.0140  150.3170 N   0  0  0  0  0  0  0  0  0  0  0  0
  159.1830  213.6730  151.6360 C   0  0  0  0  0  3  0  0  0  0  0  0
  161.2660  212.2060  150.4580 C   0  0  2  0  0  3  0  0  0  0  0  0
  159.5240  212.5420  152.1790 N   0  0  0  0  0  0  0  0  0  0  0  0
  162.1280  211.5490  148.2250 C   0  0  0  0  0  3  0  0  0  0  0  0
  160.5550  213.3190  149.7220 C   0  0  0  0  0  0  0  0  0  0  0  0
  161.7030  212.8550  147.6870 C   0  0  0  0  0  3  0  0  0  0  0  0
  160.9630  213.6600  148.3900 N   0  0  0  0  0  0  0  0  0  0  0  0
  161.8880  211.2250  149.4990 C   0  0  0  0  0  3  0  0  0  0  0  0
  160.3080  211.5330  151.4480 C   0  0  2  0  0  3  0  0  0  0  0  0
  161.5840  205.8830  151.8980 C   0  0  0  0  0  2  0  0  0  0  0  0
  160.8370  205.2230  150.7490 C   0  0  0  0  0  2  0  0  0  0  0  0
  161.2560  203.7680  150.5890 C   0  0  1  0  0  3  0  0  0  0  0  0
  161.5880  203.1590  151.9490 C   0  0  0  0  0  3  0  0  0  0  0  0
  162.3130  201.9860  151.8040 F   0  0  0  0  0  0  0  0  0  0  0  0
  160.4270  202.9090  152.6580 F   0  0  0  0  0  0  0  0  0  0  0  0
  160.1580  202.9680  149.8940 C   0  0  0  0  0  2  0  0  0  0  0  0
  161.1240  200.9340  148.8200 C   0  0  0  0  0  1  0  0  0  0  0  0
  160.6520  202.3590  148.5880 C   0  0  2  0  0  3  0  0  0  0  0  0
  161.7330  203.2070  147.9130 C   0  0  0  0  0  2  0  0  0  0  0  0
  161.1910  204.1140  146.8120 C   0  0  1  0  0  3  0  0  0  0  0  0
  161.7270  205.5030  146.9720 C   0  0  0  0  0  2  0  0  0  0  0  0
  162.4590  205.7000  145.6780 C   0  0  0  0  0  2  0  0  0  0  0  0
  162.7380  204.4250  145.1700 O   0  0  0  0  0  0  0  0  0  0  0  0
  161.6690  203.6500  145.5180 N   0  0  0  0  0  2  0  0  0  0  0  0
  2  1  1  6  0  0  0
  2 18  1  0  0  0  0
  2  3  1  0  0  0  0
  3  4  1  0  0  0  0
  5  7  1  0  0  0  0
  5  3  1  1  0  0  0
  5  6  1  0  0  0  0
  7  6  1  1  0  0  0
  8  9  1  0  0  0  0
  9 11  2  0  0  0  0
 10 16  1  6  0  0  0
 10 17  1  0  0  0  0
 12 16  2  0  0  0  0
 13  8  2  0  0  0  0
 13 10  1  0  0  0  0
 14 12  1  0  0  0  0
 14 15  2  0  0  0  0
 15 13  1  0  0  0  0
 17 11  1  1  0  0  0
 17  7  1  0  0  0  0
 19 18  1  0  0  0  0
 20 24  1  1  0  0  0
 20 19  1  0  0  0  0
 20 21  1  0  0  0  0
 21 23  1  0  0  0  0
 22 21  1  0  0  0  0
 26 25  1  1  0  0  0
 26 24  1  0  0  0  0
 27 26  1  0  0  0  0
 28 29  1  0  0  0  0
 28 27  1  1  0  0  0
 30 29  1  0  0  0  0
 31 32  1  0  0  0  0
 31 30  1  0  0  0  0
 32 28  1  0  0  0  0
M  END
>  <MODEL>
4

>  <REMARK>
 VINA RESULT:      -7.3      2.178      4.229
  Name = 
  11 active torsions:
  status: ('A' for Active; 'I' for Inactive)
    1  A    between atoms: C_1  and  C_10
    2  A    between atoms: C_1  and  C_16
    3  A    between atoms: C_1  and  C_22
    4  A    between atoms: N_2  and  C_11
    5  A    between atoms: N_2  and  C_20
    6  A    between atoms: C_4  and  C_7
    7  A    between atoms: C_7  and  C_23
    8  A    between atoms: C_16  and  C_25
    9  A    between atoms: C_20  and  C_25
   10  A    between atoms: C_22  and  C_23
   11  A    between atoms: C_30  and  C_32
                            x       y       z     vdW  Elec       q    Type
                         _______ _______ _______ _____ _____    ______ ____

>  <TORSDO>
F 11

$$$$
=
 OpenBabel11052411553D

 32 35  0  0  1  0  0  0  0  0999 V2000
  162.3360  209.8430  151.3860 C   0  0  0  0  0  1  0  0  0  0  0  0
  161.7800  209.2380  152.6710 C   0  0  1  0  0  3  0  0  0  0  0  0
  161.1010  210.2660  153.4840 N   0  0  0  0  0  0  0  0  0  0  0  0
  160.6610  209.6410  154.7280 C   0  0  0  0  0  1  0  0  0  0  0  0
  159.8790  210.6830  152.8010 C   0  0  1  0  0  3  0  0  0  0  0  0
  159.1100  211.5150  153.6440 O   0  0  0  0  0  0  0  0  0  0  0  0
  159.8650  212.1600  152.6480 C   0  0  2  0  0  3  0  0  0  0  0  0
  157.6380  214.4530  149.8310 N   0  0  0  0  0  0  0  0  0  0  0  0
  157.1210  214.1310  151.1290 C   0  0  0  0  0  3  0  0  0  0  0  0
  159.7760  213.4800  150.4910 C   0  0  2  0  0  3  0  0  0  0  0  0
  157.7590  213.3090  151.9090 N   0  0  0  0  0  0  0  0  0  0  0  0
  161.2020  212.9430  148.5320 C   0  0  0  0  0  3  0  0  0  0  0  0
  158.8430  214.1140  149.4830 C   0  0  0  0  0  0  0  0  0  0  0  0
  160.4220  213.8920  147.7150 C   0  0  0  0  0  3  0  0  0  0  0  0
  159.3220  214.4170  148.1670 N   0  0  0  0  0  0  0  0  0  0  0  0
  160.8790  212.7150  149.8080 C   0  0  0  0  0  3  0  0  0  0  0  0
  158.9800  212.6120  151.4730 C   0  0  2  0  0  3  0  0  0  0  0  0
  160.8220  208.1260  152.2530 C   0  0  0  0  0  2  0  0  0  0  0  0
  161.4590  206.7620  152.4710 C   0  0  0  0  0  2  0  0  0  0  0  0
  161.6590  206.0350  151.1490 C   0  0  1  0  0  3  0  0  0  0  0  0
  161.3350  204.5510  151.3050 C   0  0  0  0  0  3  0  0  0  0  0  0
  160.4320  204.1360  150.3380 F   0  0  0  0  0  0  0  0  0  0  0  0
  160.8210  204.3040  152.5650 F   0  0  0  0  0  0  0  0  0  0  0  0
  160.7970  206.6630  150.0570 C   0  0  0  0  0  2  0  0  0  0  0  0
  161.9650  208.2120  148.4880 C   0  0  0  0  0  1  0  0  0  0  0  0
  161.5550  206.7710  148.7400 C   0  0  2  0  0  3  0  0  0  0  0  0
  160.7700  206.1950  147.5580 C   0  0  0  0  0  2  0  0  0  0  0  0
  161.6590  205.7570  146.3970 C   0  0  1  0  0  3  0  0  0  0  0  0
  162.0570  204.3230  146.5600 C   0  0  0  0  0  2  0  0  0  0  0  0
  161.4880  203.7030  145.3200 C   0  0  0  0  0  2  0  0  0  0  0  0
  160.4740  204.5560  144.8670 O   0  0  0  0  0  0  0  0  0  0  0  0
  160.9030  205.8200  145.1550 N   0  0  0  0  0  2  0  0  0  0  0  0
  2  1  1  6  0  0  0
  2  3  1  0  0  0  0
  3  4  1  0  0  0  0
  5  3  1  1  0  0  0
  5  6  1  0  0  0  0
  7  5  1  0  0  0  0
  7  6  1  1  0  0  0
  8  9  1  0  0  0  0
  9 11  2  0  0  0  0
 10 16  1  6  0  0  0
 10 17  1  0  0  0  0
 12 16  2  0  0  0  0
 13  8  2  0  0  0  0
 13 10  1  0  0  0  0
 14 15  2  0  0  0  0
 14 12  1  0  0  0  0
 15 13  1  0  0  0  0
 17 11  1  1  0  0  0
 17  7  1  0  0  0  0
 18 19  1  0  0  0  0
 18  2  1  0  0  0  0
 20 24  1  6  0  0  0
 20 21  1  0  0  0  0
 20 19  1  0  0  0  0
 21 23  1  0  0  0  0
 22 21  1  0  0  0  0
 26 25  1  6  0  0  0
 26 24  1  0  0  0  0
 27 26  1  0  0  0  0
 28 29  1  0  0  0  0
 28 27  1  1  0  0  0
 30 29  1  0  0  0  0
 31 32  1  0  0  0  0
 31 30  1  0  0  0  0
 32 28  1  0  0  0  0
M  END
>  <MODEL>
5

>  <REMARK>
 VINA RESULT:      -7.2      2.991      5.120
  Name = 
  11 active torsions:
  status: ('A' for Active; 'I' for Inactive)
    1  A    between atoms: C_1  and  C_10
    2  A    between atoms: C_1  and  C_16
    3  A    between atoms: C_1  and  C_22
    4  A    between atoms: N_2  and  C_11
    5  A    between atoms: N_2  and  C_20
    6  A    between atoms: C_4  and  C_7
    7  A    between atoms: C_7  and  C_23
    8  A    between atoms: C_16  and  C_25
    9  A    between atoms: C_20  and  C_25
   10  A    between atoms: C_22  and  C_23
   11  A    between atoms: C_30  and  C_32
                            x       y       z     vdW  Elec       q    Type
                         _______ _______ _______ _____ _____    ______ ____

>  <TORSDO>
F 11

$$$$
=
 OpenBabel11052411553D

 32 35  0  0  1  0  0  0  0  0999 V2000
  160.8550  206.2740  150.7800 C   0  0  0  0  0  1  0  0  0  0  0  0
  161.9190  207.3500  150.5840 C   0  0  1  0  0  3  0  0  0  0  0  0
  162.2580  207.4990  149.1560 N   0  0  0  0  0  0  0  0  0  0  0  0
  162.0010  208.8840  148.7720 C   0  0  0  0  0  1  0  0  0  0  0  0
  161.3330  206.6940  148.3610 C   0  0  1  0  0  3  0  0  0  0  0  0
  161.5650  206.9040  146.9840 O   0  0  0  0  0  0  0  0  0  0  0  0
  162.0920  205.7210  147.5340 C   0  0  2  0  0  3  0  0  0  0  0  0
  160.7720  201.8890  146.2220 N   0  0  0  0  0  0  0  0  0  0  0  0
  161.0930  202.9400  145.3010 C   0  0  0  0  0  3  0  0  0  0  0  0
  161.5930  203.2930  148.0400 C   0  0  2  0  0  3  0  0  0  0  0  0
  161.3500  204.1400  145.7320 N   0  0  0  0  0  0  0  0  0  0  0  0
  160.7760  202.5270  150.2550 C   0  0  0  0  0  3  0  0  0  0  0  0
  160.9360  202.0420  147.5020 C   0  0  0  0  0  0  0  0  0  0  0  0
  160.5070  201.1930  149.6850 C   0  0  0  0  0  3  0  0  0  0  0  0
  160.5750  200.9870  148.4030 N   0  0  0  0  0  0  0  0  0  0  0  0
  161.2370  203.5170  149.4870 C   0  0  0  0  0  3  0  0  0  0  0  0
  161.2430  204.4950  147.1560 C   0  0  2  0  0  3  0  0  0  0  0  0
  161.3490  208.6390  151.1670 C   0  0  0  0  0  2  0  0  0  0  0  0
  161.6850  208.7510  152.6460 C   0  0  0  0  0  2  0  0  0  0  0  0
  160.5230  208.2740  153.5080 C   0  0  1  0  0  3  0  0  0  0  0  0
  160.8240  206.8950  154.0880 C   0  0  0  0  0  3  0  0  0  0  0  0
  160.5490  206.8570  155.4470 F   0  0  0  0  0  0  0  0  0  0  0  0
  162.1480  206.5610  153.8670 F   0  0  0  0  0  0  0  0  0  0  0  0
  160.2370  209.2780  154.6230 C   0  0  0  0  0  2  0  0  0  0  0  0
  162.0460  210.6110  155.7050 C   0  0  0  0  0  1  0  0  0  0  0  0
  161.1210  210.5120  154.5040 C   0  0  2  0  0  3  0  0  0  0  0  0
  160.3160  211.7990  154.3070 C   0  0  0  0  0  2  0  0  0  0  0  0
  158.8960  211.5520  153.8030 C   0  0  1  0  0  3  0  0  0  0  0  0
  157.9220  212.4030  154.5570 C   0  0  0  0  0  2  0  0  0  0  0  0
  157.3200  213.2270  153.4580 C   0  0  0  0  0  2  0  0  0  0  0  0
  158.2290  213.2120  152.3930 O   0  0  0  0  0  0  0  0  0  0  0  0
  158.7940  211.9690  152.4120 N   0  0  0  0  0  2  0  0  0  0  0  0
  2  1  1  6  0  0  0
  2 18  1  0  0  0  0
  3  2  1  0  0  0  0
  4  3  1  0  0  0  0
  5  3  1  1  0  0  0
  6  5  1  0  0  0  0
  7  6  1  6  0  0  0
  7  5  1  0  0  0  0
  8 13  2  0  0  0  0
  9 11  2  0  0  0  0
  9  8  1  0  0  0  0
 10 16  1  1  0  0  0
 13 10  1  0  0  0  0
 13 15  1  0  0  0  0
 14 12  1  0  0  0  0
 15 14  2  0  0  0  0
 16 12  2  0  0  0  0
 17 11  1  6  0  0  0
 17  7  1  0  0  0  0
 17 10  1  0  0  0  0
 18 19  1  0  0  0  0
 20 19  1  1  0  0  0
 20 21  1  0  0  0  0
 20 24  1  0  0  0  0
 21 22  1  0  0  0  0
 23 21  1  0  0  0  0
 26 24  1  0  0  0  0
 26 25  1  1  0  0  0
 27 26  1  0  0  0  0
 28 27  1  1  0  0  0
 28 29  1  0  0  0  0
 30 29  1  0  0  0  0
 31 32  1  0  0  0  0
 31 30  1  0  0  0  0
 32 28  1  0  0  0  0
M  END
>  <MODEL>
6

>  <REMARK>
 VINA RESULT:      -7.1      2.290      8.597
  Name = 
  11 active torsions:
  status: ('A' for Active; 'I' for Inactive)
    1  A    between atoms: C_1  and  C_10
    2  A    between atoms: C_1  and  C_16
    3  A    between atoms: C_1  and  C_22
    4  A    between atoms: N_2  and  C_11
    5  A    between atoms: N_2  and  C_20
    6  A    between atoms: C_4  and  C_7
    7  A    between atoms: C_7  and  C_23
    8  A    between atoms: C_16  and  C_25
    9  A    between atoms: C_20  and  C_25
   10  A    between atoms: C_22  and  C_23
   11  A    between atoms: C_30  and  C_32
                            x       y       z     vdW  Elec       q    Type
                         _______ _______ _______ _____ _____    ______ ____

>  <TORSDO>
F 11

$$$$
=
 OpenBabel11052411553D

 32 35  0  0  1  0  0  0  0  0999 V2000
  162.6460  207.3710  150.8950 C   0  0  0  0  0  1  0  0  0  0  0  0
  161.3240  207.6620  151.5970 C   0  0  1  0  0  3  0  0  0  0  0  0
  160.8540  206.4790  152.3450 N   0  0  0  0  0  0  0  0  0  0  0  0
  161.3330  206.5930  153.7190 C   0  0  0  0  0  1  0  0  0  0  0  0
  161.5000  205.2860  151.8010 C   0  0  1  0  0  3  0  0  0  0  0  0
  160.9410  204.1250  152.3790 O   0  0  0  0  0  0  0  0  0  0  0  0
  160.5020  204.4540  151.0840 C   0  0  2  0  0  3  0  0  0  0  0  0
  161.2120  201.7300  147.8860 N   0  0  0  0  0  0  0  0  0  0  0  0
  160.8950  201.2830  149.2110 C   0  0  0  0  0  3  0  0  0  0  0  0
  160.7870  204.0210  148.6070 C   0  0  2  0  0  3  0  0  0  0  0  0
  160.8300  202.1290  150.1960 N   0  0  0  0  0  0  0  0  0  0  0  0
  161.7870  205.6870  147.0620 C   0  0  0  0  0  3  0  0  0  0  0  0
  161.2270  202.9940  147.5890 C   0  0  0  0  0  0  0  0  0  0  0  0
  161.8310  204.6640  146.0010 C   0  0  0  0  0  3  0  0  0  0  0  0
  161.5810  203.4160  146.2640 N   0  0  0  0  0  0  0  0  0  0  0  0
  161.3450  205.3830  148.2860 C   0  0  0  0  0  3  0  0  0  0  0  0
  161.1540  203.5540  150.0200 C   0  0  2  0  0  3  0  0  0  0  0  0
  161.5720  208.8510  152.5200 C   0  0  0  0  0  2  0  0  0  0  0  0
  161.2260  210.1550  151.8170 C   0  0  0  0  0  2  0  0  0  0  0  0
  160.5780  211.1400  152.7810 C   0  0  1  0  0  3  0  0  0  0  0  0
  159.5980  212.0440  152.0370 C   0  0  0  0  0  3  0  0  0  0  0  0
  159.7050  213.3560  152.4720 F   0  0  0  0  0  0  0  0  0  0  0  0
  158.3020  211.5940  152.2140 F   0  0  0  0  0  0  0  0  0  0  0  0
  159.8720  210.3960  153.9120 C   0  0  0  0  0  2  0  0  0  0  0  0
  160.9790  211.3710  155.9240 C   0  0  0  0  0  1  0  0  0  0  0  0
  159.6840  211.2850  155.1350 C   0  0  2  0  0  3  0  0  0  0  0  0
  158.5170  210.8360  156.0170 C   0  0  0  0  0  2  0  0  0  0  0  0
  157.4530  211.9150  156.2080 C   0  0  1  0  0  3  0  0  0  0  0  0
  157.6590  213.0270  155.2270 C   0  0  0  0  0  2  0  0  0  0  0  0
  156.3680  213.0060  154.4650 C   0  0  0  0  0  2  0  0  0  0  0  0
  155.8120  211.7330  154.6390 O   0  0  0  0  0  0  0  0  0  0  0  0
  156.1400  211.3620  155.9110 N   0  0  0  0  0  2  0  0  0  0  0  0
  2  1  1  1  0  0  0
  2  3  1  0  0  0  0
  2 18  1  0  0  0  0
  3  4  1  0  0  0  0
  5  3  1  1  0  0  0
  5  6  1  0  0  0  0
  7  5  1  0  0  0  0
  7  6  1  1  0  0  0
  8  9  1  0  0  0  0
  9 11  2  0  0  0  0
 10 16  1  6  0  0  0
 10 17  1  0  0  0  0
 12 16  2  0  0  0  0
 13  8  2  0  0  0  0
 13 10  1  0  0  0  0
 14 15  2  0  0  0  0
 14 12  1  0  0  0  0
 15 13  1  0  0  0  0
 17 11  1  1  0  0  0
 17  7  1  0  0  0  0
 19 18  1  0  0  0  0
 20 19  1  6  0  0  0
 20 24  1  0  0  0  0
 21 23  1  0  0  0  0
 21 22  1  0  0  0  0
 21 20  1  0  0  0  0
 24 26  1  0  0  0  0
 26 25  1  1  0  0  0
 26 27  1  0  0  0  0
 28 27  1  6  0  0  0
 29 28  1  0  0  0  0
 30 31  1  0  0  0  0
 30 29  1  0  0  0  0
 31 32  1  0  0  0  0
 32 28  1  0  0  0  0
M  END
>  <MODEL>
7

>  <REMARK>
 VINA RESULT:      -7.0      3.558      9.493
  Name = 
  11 active torsions:
  status: ('A' for Active; 'I' for Inactive)
    1  A    between atoms: C_1  and  C_10
    2  A    between atoms: C_1  and  C_16
    3  A    between atoms: C_1  and  C_22
    4  A    between atoms: N_2  and  C_11
    5  A    between atoms: N_2  and  C_20
    6  A    between atoms: C_4  and  C_7
    7  A    between atoms: C_7  and  C_23
    8  A    between atoms: C_16  and  C_25
    9  A    between atoms: C_20  and  C_25
   10  A    between atoms: C_22  and  C_23
   11  A    between atoms: C_30  and  C_32
                            x       y       z     vdW  Elec       q    Type
                         _______ _______ _______ _____ _____    ______ ____

>  <TORSDO>
F 11

$$$$
=
 OpenBabel11052411553D

 32 35  0  0  1  0  0  0  0  0999 V2000
  162.8150  206.5660  151.1450 C   0  0  0  0  0  1  0  0  0  0  0  0
  161.3420  206.6430  151.5300 C   0  0  1  0  0  3  0  0  0  0  0  0
  160.8300  205.3140  151.9160 N   0  0  0  0  0  0  0  0  0  0  0  0
  161.2840  205.0310  153.2740 C   0  0  0  0  0  1  0  0  0  0  0  0
  161.4570  204.3000  151.0720 C   0  0  1  0  0  3  0  0  0  0  0  0
  160.8090  203.0570  151.2420 O   0  0  0  0  0  0  0  0  0  0  0  0
  160.4740  203.7840  150.0860 C   0  0  2  0  0  3  0  0  0  0  0  0
  161.2850  202.1490  146.2360 N   0  0  0  0  0  0  0  0  0  0  0  0
  160.8090  201.3420  147.3220 C   0  0  0  0  0  3  0  0  0  0  0  0
  160.9640  204.1270  147.6270 C   0  0  2  0  0  3  0  0  0  0  0  0
  160.7120  201.8370  148.5210 N   0  0  0  0  0  0  0  0  0  0  0  0
  162.2300  206.0840  146.7740 C   0  0  0  0  0  3  0  0  0  0  0  0
  161.4230  203.4340  146.3640 C   0  0  0  0  0  0  0  0  0  0  0  0
  162.3000  205.4480  145.4440 C   0  0  0  0  0  3  0  0  0  0  0  0
  161.9330  204.2130  145.2740 N   0  0  0  0  0  0  0  0  0  0  0  0
  161.6510  205.4570  147.8010 C   0  0  0  0  0  3  0  0  0  0  0  0
  161.1580  203.2040  148.8360 C   0  0  2  0  0  3  0  0  0  0  0  0
  161.2420  207.6420  152.6790 C   0  0  0  0  0  2  0  0  0  0  0  0
  160.4510  208.8700  152.2540 C   0  0  0  0  0  2  0  0  0  0  0  0
  161.3330  210.1120  152.2480 C   0  0  1  0  0  3  0  0  0  0  0  0
  161.9540  210.3160  150.8690 C   0  0  0  0  0  3  0  0  0  0  0  0
  161.5770  211.5360  150.3300 F   0  0  0  0  0  0  0  0  0  0  0  0
  161.5790  209.2910  150.0190 F   0  0  0  0  0  0  0  0  0  0  0  0
  160.5270  211.3410  152.6640 C   0  0  0  0  0  2  0  0  0  0  0  0
  159.5020  212.6000  154.5570 C   0  0  0  0  0  1  0  0  0  0  0  0
  160.1700  211.3000  154.1440 C   0  0  2  0  0  3  0  0  0  0  0  0
  161.3740  210.9790  155.0330 C   0  0  0  0  0  2  0  0  0  0  0  0
  161.0060  210.1880  156.2860 C   0  0  1  0  0  3  0  0  0  0  0  0
  159.8840  209.2430  155.9930 C   0  0  0  0  0  2  0  0  0  0  0  0
  160.5110  207.9160  156.3020 C   0  0  0  0  0  2  0  0  0  0  0  0
  161.8970  208.0930  156.2220 O   0  0  0  0  0  0  0  0  0  0  0  0
  162.1320  209.3560  156.6840 N   0  0  0  0  0  2  0  0  0  0  0  0
  2  1  1  1  0  0  0
  2  3  1  0  0  0  0
  2 18  1  0  0  0  0
  3  4  1  0  0  0  0
  5  6  1  0  0  0  0
  5  3  1  1  0  0  0
  7  5  1  0  0  0  0
  7  6  1  1  0  0  0
  8 13  2  0  0  0  0
  8  9  1  0  0  0  0
  9 11  2  0  0  0  0
 10 16  1  1  0  0  0
 10 17  1  0  0  0  0
 12 16  2  0  0  0  0
 13 10  1  0  0  0  0
 14 12  1  0  0  0  0
 15 14  2  0  0  0  0
 15 13  1  0  0  0  0
 17 11  1  6  0  0  0
 17  7  1  0  0  0  0
 19 18  1  0  0  0  0
 20 19  1  6  0  0  0
 20 24  1  0  0  0  0
 21 20  1  0  0  0  0
 22 21  1  0  0  0  0
 23 21  1  0  0  0  0
 24 26  1  0  0  0  0
 26 25  1  1  0  0  0
 26 27  1  0  0  0  0
 28 27  1  6  0  0  0
 28 32  1  0  0  0  0
 29 28  1  0  0  0  0
 29 30  1  0  0  0  0
 31 30  1  0  0  0  0
 31 32  1  0  0  0  0
M  END
>  <MODEL>
8

>  <REMARK>
 VINA RESULT:      -7.0      2.875      9.226
  Name = 
  11 active torsions:
  status: ('A' for Active; 'I' for Inactive)
    1  A    between atoms: C_1  and  C_10
    2  A    between atoms: C_1  and  C_16
    3  A    between atoms: C_1  and  C_22
    4  A    between atoms: N_2  and  C_11
    5  A    between atoms: N_2  and  C_20
    6  A    between atoms: C_4  and  C_7
    7  A    between atoms: C_7  and  C_23
    8  A    between atoms: C_16  and  C_25
    9  A    between atoms: C_20  and  C_25
   10  A    between atoms: C_22  and  C_23
   11  A    between atoms: C_30  and  C_32
                            x       y       z     vdW  Elec       q    Type
                         _______ _______ _______ _____ _____    ______ ____

>  <TORSDO>
F 11

$$$$
=
 OpenBabel11052411553D

 32 35  0  0  1  0  0  0  0  0999 V2000
  162.7060  206.9420  151.2500 C   0  0  0  0  0  1  0  0  0  0  0  0
  161.2290  206.9280  151.6260 C   0  0  1  0  0  3  0  0  0  0  0  0
  160.8370  205.6130  152.1700 N   0  0  0  0  0  0  0  0  0  0  0  0
  161.4150  205.4850  153.5050 C   0  0  0  0  0  1  0  0  0  0  0  0
  161.4630  204.5630  151.3690 C   0  0  1  0  0  3  0  0  0  0  0  0
  160.8180  203.3270  151.5980 O   0  0  0  0  0  0  0  0  0  0  0  0
  160.4760  204.0020  150.4120 C   0  0  2  0  0  3  0  0  0  0  0  0
  161.2670  202.1720  146.6460 N   0  0  0  0  0  0  0  0  0  0  0  0
  160.8240  201.4170  147.7830 C   0  0  0  0  0  3  0  0  0  0  0  0
  160.9240  204.2180  147.9310 C   0  0  2  0  0  3  0  0  0  0  0  0
  160.7330  201.9760  148.9530 N   0  0  0  0  0  0  0  0  0  0  0  0
  162.1360  206.1500  146.9520 C   0  0  0  0  0  3  0  0  0  0  0  0
  161.3800  203.4650  146.7020 C   0  0  0  0  0  0  0  0  0  0  0  0
  162.2010  205.4420  145.6590 C   0  0  0  0  0  3  0  0  0  0  0  0
  161.8580  204.1920  145.5620 N   0  0  0  0  0  0  0  0  0  0  0  0
  161.5850  205.5690  148.0210 C   0  0  0  0  0  3  0  0  0  0  0  0
  161.1540  203.3670  149.1860 C   0  0  2  0  0  3  0  0  0  0  0  0
  161.0270  208.0440  152.6470 C   0  0  0  0  0  2  0  0  0  0  0  0
  161.9310  209.2260  152.3330 C   0  0  0  0  0  2  0  0  0  0  0  0
  161.2030  210.2590  151.4830 C   0  0  1  0  0  3  0  0  0  0  0  0
  160.4040  211.2090  152.3720 C   0  0  0  0  0  3  0  0  0  0  0  0
  159.0830  210.7980  152.4760 F   0  0  0  0  0  0  0  0  0  0  0  0
  160.4570  212.4950  151.8680 F   0  0  0  0  0  0  0  0  0  0  0  0
  162.1940  211.0350  150.6190 C   0  0  0  0  0  2  0  0  0  0  0  0
  161.9590  209.4720  148.6890 C   0  0  0  0  0  1  0  0  0  0  0  0
  161.8550  210.9190  149.1390 C   0  0  2  0  0  3  0  0  0  0  0  0
  162.7060  211.8430  148.2640 C   0  0  0  0  0  2  0  0  0  0  0  0
  161.9370  213.0480  147.7280 C   0  0  1  0  0  3  0  0  0  0  0  0
  162.2580  213.2690  146.2830 C   0  0  0  0  0  2  0  0  0  0  0  0
  160.9090  213.1250  145.6440 C   0  0  0  0  0  2  0  0  0  0  0  0
  160.1150  212.3890  146.5320 O   0  0  0  0  0  0  0  0  0  0  0  0
  160.5080  212.7750  147.7810 N   0  0  0  0  0  2  0  0  0  0  0  0
  2  1  1  1  0  0  0
  2  3  1  0  0  0  0
  2 18  1  0  0  0  0
  3  4  1  0  0  0  0
  5  6  1  0  0  0  0
  5  3  1  1  0  0  0
  7  5  1  0  0  0  0
  7  6  1  1  0  0  0
  8 13  2  0  0  0  0
  8  9  1  0  0  0  0
  9 11  2  0  0  0  0
 10 16  1  1  0  0  0
 10 17  1  0  0  0  0
 12 16  2  0  0  0  0
 13 10  1  0  0  0  0
 14 12  1  0  0  0  0
 15 14  2  0  0  0  0
 15 13  1  0  0  0  0
 17 11  1  6  0  0  0
 17  7  1  0  0  0  0
 19 18  1  0  0  0  0
 20 24  1  1  0  0  0
 20 19  1  0  0  0  0
 20 21  1  0  0  0  0
 21 22  1  0  0  0  0
 23 21  1  0  0  0  0
 26 25  1  6  0  0  0
 26 24  1  0  0  0  0
 27 26  1  0  0  0  0
 28 32  1  0  0  0  0
 28 27  1  6  0  0  0
 29 28  1  0  0  0  0
 30 29  1  0  0  0  0
 30 31  1  0  0  0  0
 31 32  1  0  0  0  0
M  END
>  <MODEL>
9

>  <REMARK>
 VINA RESULT:      -7.0      3.589      8.258
  Name = 
  11 active torsions:
  status: ('A' for Active; 'I' for Inactive)
    1  A    between atoms: C_1  and  C_10
    2  A    between atoms: C_1  and  C_16
    3  A    between atoms: C_1  and  C_22
    4  A    between atoms: N_2  and  C_11
    5  A    between atoms: N_2  and  C_20
    6  A    between atoms: C_4  and  C_7
    7  A    between atoms: C_7  and  C_23
    8  A    between atoms: C_16  and  C_25
    9  A    between atoms: C_20  and  C_25
   10  A    between atoms: C_22  and  C_23
   11  A    between atoms: C_30  and  C_32
                            x       y       z     vdW  Elec       q    Type
                         _______ _______ _______ _____ _____    ______ ____

>  <TORSDO>
F 11

$$$$
