=
 OpenBabel11042420393D

 45 49  0  0  1  0  0  0  0  0999 V2000
  161.6680  208.7810  152.5940 C   0  0  0  0  0  0  0  0  0  0  0  0
  161.9690  209.8590  151.8440 N   0  0  0  0  0  0  0  0  0  0  0  0
  161.4240  207.6840  151.8580 N   0  0  0  0  0  0  0  0  0  0  0  0
  161.5790  208.7290  153.9930 C   0  0  0  0  0  0  0  0  0  0  0  0
  160.9980  206.4160  153.8010 C   0  0  0  0  0  3  0  0  0  0  0  0
  161.2440  207.5290  154.5540 N   0  0  0  0  0  0  0  0  0  0  0  0
  161.5680  208.0290  150.5680 C   0  0  0  0  0  3  0  0  0  0  0  0
  161.0970  206.4860  152.4070 C   0  0  0  0  0  0  0  0  0  0  0  0
  161.9050  209.3780  150.5800 C   0  0  0  0  0  0  0  0  0  0  0  0
  162.1580  210.1960  149.3890 C   0  0  0  0  0  0  0  0  0  0  0  0
  162.5240  209.6500  148.3140 O   0  0  0  0  0  0  0  0  0  0  0  0
  161.9870  211.6140  149.4570 N   0  0  0  0  0  2  0  0  0  0  0  0
  160.8690  212.9780  147.7990 C   0  0  2  0  0  3  0  0  0  0  0  0
  161.7120  213.8750  148.6180 C   0  0  1  0  0  3  0  0  0  0  0  0
  162.2030  212.4770  148.3060 C   0  0  1  0  0  3  0  0  0  0  0  0
  160.9540  214.3590  147.5340 O   0  0  0  0  0  0  0  0  0  0  0  0
  161.8620  209.9120  154.8490 C   0  0  0  0  0  0  0  0  0  0  0  0
  162.8140  209.8670  155.6730 O   0  0  0  0  0  0  0  0  0  0  0  0
  161.0830  211.1140  154.7840 N   0  0  0  0  0  2  0  0  0  0  0  0
  160.0800  211.3800  153.8050 C   0  0  0  0  0  3  0  0  0  0  0  0
  155.4210  213.8770  155.2210 C   0  0  0  0  0  0  0  0  0  0  0  0
  155.7600  213.6360  153.7990 C   0  0  0  0  0  0  0  0  0  0  0  0
  158.9750  211.9750  154.1510 C   0  0  0  0  0  0  0  0  0  0  0  0
  158.3360  212.4580  156.8340 O   0  0  0  0  0  0  0  0  0  0  0  0
  157.5480  212.8160  155.9180 C   0  0  0  0  0  0  0  0  0  0  0  0
  157.1920  212.8020  152.1510 F   0  0  0  0  0  0  0  0  0  0  0  0
  157.8650  212.5740  154.4970 C   0  0  0  0  0  0  0  0  0  0  0  0
  156.9060  213.0230  153.4630 C   0  0  0  0  0  0  0  0  0  0  0  0
  156.3220  213.4670  156.2520 N   0  0  0  0  0  2  0  0  0  0  0  0
  154.3390  214.4420  155.5310 O   0  0  0  0  0  0  0  0  0  0  0  0
  154.8100  214.0750  152.7340 C   0  0  0  0  0  1  0  0  0  0  0  0
  160.8050  205.2880  151.5660 C   0  0  0  0  0  2  0  0  0  0  0  0
  161.9490  204.4990  151.4560 O   0  0  0  0  0  0  0  0  0  0  0  0
  161.5820  203.2730  152.0130 C   0  0  0  0  0  2  0  0  0  0  0  0
  160.5940  202.5650  151.1050 C   0  0  0  0  0  2  0  0  0  0  0  0
  161.2120  201.4780  150.4790 O   0  0  0  0  0  0  0  0  0  0  0  0
  160.8830  201.6550  148.8230 P   0  0  2  0  0  0  0  0  0  0  0  0
  159.3850  201.7190  148.6030 O   0  0  0  0  0  1  0  0  0  0  0  0
  161.5240  200.3360  147.9750 O   0  0  0  0  0  0  0  0  0  0  0  0
  161.5990  203.0930  148.2790 O   0  0  0  0  0  0  0  0  0  0  0  0
  161.2270  203.2090  146.9380 C   0  0  0  0  0  2  0  0  0  0  0  0
  163.4510  204.7740  146.0510 O   0  0  0  0  0  1  0  0  0  0  0  0
  161.0900  205.0880  144.9740 O   0  0  0  0  0  0  0  0  0  0  0  0
  161.7790  204.8110  146.2900 P   0  0  0  0  0  0  0  0  0  0  0  0
  161.3940  206.0310  147.3960 O   0  0  0  0  0  1  0  0  0  0  0  0
  1  4  1  0  0  0  0
  2  1  2  0  0  0  0
  3  8  1  0  0  0  0
  3  1  1  0  0  0  0
  4  6  2  0  0  0  0
  4 17  1  0  0  0  0
  5  6  1  0  0  0  0
  7  9  2  0  0  0  0
  7  3  1  0  0  0  0
  8  5  2  0  0  0  0
  9  2  1  0  0  0  0
 10 12  1  0  0  0  0
 10  9  1  0  0  0  0
 11 10  2  0  0  0  0
 13 16  1  6  0  0  0
 13 15  1  0  0  0  0
 13 14  1  0  0  0  0
 14 16  1  6  0  0  0
 15 14  1  0  0  0  0
 15 12  1  1  0  0  0
 17 18  2  0  0  0  0
 19 17  1  0  0  0  0
 20 23  2  0  0  0  0
 20 19  1  0  0  0  0
 21 30  2  0  0  0  0
 21 29  1  0  0  0  0
 22 21  1  0  0  0  0
 23 27  2  0  0  0  0
 25 29  1  0  0  0  0
 25 24  2  0  0  0  0
 26 28  1  0  0  0  0
 27 25  1  0  0  0  0
 28 22  2  0  0  0  0
 28 27  1  0  0  0  0
 31 22  1  0  0  0  0
 32  8  1  0  0  0  0
 33 32  1  0  0  0  0
 33 34  1  0  0  0  0
 35 34  1  0  0  0  0
 36 35  1  0  0  0  0
 37 39  2  6  0  0  0
 37 36  1  0  0  0  0
 38 37  1  0  0  0  0
 40 37  1  0  0  0  0
 41 40  1  0  0  0  0
 42 44  1  0  0  0  0
 43 44  2  0  0  0  0
 44 41  1  0  0  0  0
 44 45  1  0  0  0  0
M  END
>  <MODEL>
1

>  <REMARK>
 VINA RESULT:      -6.9      0.000      0.000
  Name = 
  13 active torsions:
  status: ('A' for Active; 'I' for Inactive)
    1  A    between atoms: C_1  and  O_22
    2  A    between atoms: C_1  and  C_41
    3  A    between atoms: C_2  and  N_37
    4  A    between atoms: C_6  and  O_16
    5  A    between atoms: C_6  and  P_36
    6  A    between atoms: O_8  and  C_9
    7  A    between atoms: O_8  and  P_12
    8  A    between atoms: C_9  and  C_19
    9  A    between atoms: C_10  and  C_42
   10  A    between atoms: P_12  and  O_16
   11  A    between atoms: N_13  and  C_30
   12  A    between atoms: C_19  and  O_22
   13  A    between atoms: C_21  and  C_26
                            x       y       z     vdW  Elec       q    Type
                         _______ _______ _______ _____ _____    ______ ____

>  <TORSDO>
F 13

$$$$
=
 OpenBabel11042420393D

 45 49  0  0  1  0  0  0  0  0999 V2000
  160.4270  210.0100  153.2530 C   0  0  0  0  0  0  0  0  0  0  0  0
  159.8550  210.0530  154.4730 N   0  0  0  0  0  0  0  0  0  0  0  0
  160.4370  211.2040  152.6390 N   0  0  0  0  0  0  0  0  0  0  0  0
  160.9590  208.8800  152.6140 C   0  0  0  0  0  0  0  0  0  0  0  0
  161.4900  210.2750  150.7430 C   0  0  0  0  0  3  0  0  0  0  0  0
  161.4820  209.0580  151.3640 N   0  0  0  0  0  0  0  0  0  0  0  0
  159.8560  212.0850  153.4700 C   0  0  0  0  0  3  0  0  0  0  0  0
  160.9590  211.3920  151.4000 C   0  0  0  0  0  0  0  0  0  0  0  0
  159.5040  211.3540  154.5990 C   0  0  0  0  0  0  0  0  0  0  0  0
  158.8330  211.9000  155.7840 C   0  0  0  0  0  0  0  0  0  0  0  0
  159.4870  212.5730  156.6250 O   0  0  0  0  0  0  0  0  0  0  0  0
  157.4370  211.6620  155.9770 N   0  0  0  0  0  2  0  0  0  0  0  0
  156.0360  213.4880  156.7280 C   0  0  2  0  0  3  0  0  0  0  0  0
  155.2310  212.2490  156.8030 C   0  0  1  0  0  3  0  0  0  0  0  0
  156.7110  212.1920  157.1200 C   0  0  1  0  0  3  0  0  0  0  0  0
  154.7120  213.4940  157.2090 O   0  0  0  0  0  0  0  0  0  0  0  0
  160.9900  207.5430  153.2640 C   0  0  0  0  0  0  0  0  0  0  0  0
  160.7590  207.4490  154.4990 O   0  0  0  0  0  0  0  0  0  0  0  0
  161.2830  206.3410  152.5400 N   0  0  0  0  0  2  0  0  0  0  0  0
  161.4130  206.2580  151.1220 C   0  0  0  0  0  3  0  0  0  0  0  0
  161.0780  201.4200  148.5860 C   0  0  0  0  0  0  0  0  0  0  0  0
  161.1090  202.6870  147.8190 C   0  0  0  0  0  0  0  0  0  0  0  0
  161.3310  205.1030  150.5270 C   0  0  0  0  0  0  0  0  0  0  0  0
  161.2480  202.7040  151.9680 O   0  0  0  0  0  0  0  0  0  0  0  0
  161.2080  202.6910  150.7080 C   0  0  0  0  0  0  0  0  0  0  0  0
  161.2270  205.0190  147.7260 F   0  0  0  0  0  0  0  0  0  0  0  0
  161.2480  203.9430  149.9280 C   0  0  0  0  0  0  0  0  0  0  0  0
  161.1900  203.8690  148.4510 C   0  0  0  0  0  0  0  0  0  0  0  0
  161.1240  201.4460  150.0140 N   0  0  0  0  0  2  0  0  0  0  0  0
  161.0130  200.3140  147.9870 O   0  0  0  0  0  0  0  0  0  0  0  0
  161.0550  202.6430  146.3270 C   0  0  0  0  0  1  0  0  0  0  0  0
  160.9340  212.7230  150.7280 C   0  0  0  0  0  2  0  0  0  0  0  0
  159.6180  213.1670  150.6050 O   0  0  0  0  0  0  0  0  0  0  0  0
  159.5880  213.8380  149.3820 C   0  0  0  0  0  2  0  0  0  0  0  0
  160.9930  214.2500  148.9820 C   0  0  0  0  0  2  0  0  0  0  0  0
  161.0790  214.3690  147.5910 O   0  0  0  0  0  0  0  0  0  0  0  0
  161.9850  213.0310  147.0720 P   0  0  2  0  0  0  0  0  0  0  0  0
  161.2120  211.7550  147.3390 O   0  0  0  0  0  0  0  0  0  0  0  0
  163.4570  212.9860  147.9090 O   0  0  0  0  0  1  0  0  0  0  0  0
  162.2730  213.1820  145.4080 O   0  0  0  0  0  0  0  0  0  0  0  0
  161.1410  213.8160  144.8900 C   0  0  0  0  0  2  0  0  0  0  0  0
  161.9060  212.1380  142.7040 O   0  0  0  0  0  1  0  0  0  0  0  0
  159.5100  211.9680  143.7360 O   0  0  0  0  0  1  0  0  0  0  0  0
  160.5970  212.9580  143.3880 P   0  0  0  0  0  0  0  0  0  0  0  0
  159.9970  214.0870  142.2800 O   0  0  0  0  0  0  0  0  0  0  0  0
  1  2  2  0  0  0  0
  2  9  1  0  0  0  0
  3  1  1  0  0  0  0
  3  7  1  0  0  0  0
  4  1  1  0  0  0  0
  4 17  1  0  0  0  0
  5  6  1  0  0  0  0
  5  8  2  0  0  0  0
  6  4  2  0  0  0  0
  7  9  2  0  0  0  0
  8  3  1  0  0  0  0
  9 10  1  0  0  0  0
 10 12  1  0  0  0  0
 10 11  2  0  0  0  0
 13 14  1  0  0  0  0
 13 15  1  0  0  0  0
 13 16  1  1  0  0  0
 14 15  1  0  0  0  0
 14 16  1  1  0  0  0
 15 12  1  6  0  0  0
 17 18  2  0  0  0  0
 19 17  1  0  0  0  0
 20 19  1  0  0  0  0
 21 29  1  0  0  0  0
 22 28  2  0  0  0  0
 22 21  1  0  0  0  0
 23 20  2  0  0  0  0
 25 24  2  0  0  0  0
 26 28  1  0  0  0  0
 27 23  2  0  0  0  0
 27 25  1  0  0  0  0
 28 27  1  0  0  0  0
 29 25  1  0  0  0  0
 30 21  2  0  0  0  0
 31 22  1  0  0  0  0
 32  8  1  0  0  0  0
 33 32  1  0  0  0  0
 34 33  1  0  0  0  0
 35 34  1  0  0  0  0
 36 35  1  0  0  0  0
 37 38  2  1  0  0  0
 37 36  1  0  0  0  0
 37 39  1  0  0  0  0
 40 37  1  0  0  0  0
 41 40  1  0  0  0  0
 42 44  1  0  0  0  0
 44 43  1  0  0  0  0
 44 41  1  0  0  0  0
 45 44  2  0  0  0  0
M  END
>  <MODEL>
2

>  <REMARK>
 VINA RESULT:      -6.5      3.465      9.645
  Name = 
  13 active torsions:
  status: ('A' for Active; 'I' for Inactive)
    1  A    between atoms: C_1  and  O_22
    2  A    between atoms: C_1  and  C_41
    3  A    between atoms: C_2  and  N_37
    4  A    between atoms: C_6  and  O_16
    5  A    between atoms: C_6  and  P_36
    6  A    between atoms: O_8  and  C_9
    7  A    between atoms: O_8  and  P_12
    8  A    between atoms: C_9  and  C_19
    9  A    between atoms: C_10  and  C_42
   10  A    between atoms: P_12  and  O_16
   11  A    between atoms: N_13  and  C_30
   12  A    between atoms: C_19  and  O_22
   13  A    between atoms: C_21  and  C_26
                            x       y       z     vdW  Elec       q    Type
                         _______ _______ _______ _____ _____    ______ ____

>  <TORSDO>
F 13

$$$$
=
 OpenBabel11042420393D

 45 49  0  0  1  0  0  0  0  0999 V2000
  161.8980  209.7450  151.2910 C   0  0  0  0  0  0  0  0  0  0  0  0
  162.1280  210.9790  150.8010 N   0  0  0  0  0  0  0  0  0  0  0  0
  161.7710  208.8160  150.3300 N   0  0  0  0  0  0  0  0  0  0  0  0
  161.7710  209.3890  152.6430 C   0  0  0  0  0  0  0  0  0  0  0  0
  161.3960  207.1320  151.9400 C   0  0  0  0  0  3  0  0  0  0  0  0
  161.5230  208.0740  152.9210 N   0  0  0  0  0  0  0  0  0  0  0  0
  161.9240  209.4390  149.1510 C   0  0  0  0  0  3  0  0  0  0  0  0
  161.5310  207.5070  150.5980 C   0  0  0  0  0  0  0  0  0  0  0  0
  162.1440  210.7750  149.4620 C   0  0  0  0  0  0  0  0  0  0  0  0
  162.3630  211.8470  148.4840 C   0  0  0  0  0  0  0  0  0  0  0  0
  163.5290  212.1060  148.0820 O   0  0  0  0  0  0  0  0  0  0  0  0
  161.2470  212.5930  147.9920 N   0  0  0  0  0  2  0  0  0  0  0  0
  161.2010  213.0800  145.6220 C   0  0  2  0  0  3  0  0  0  0  0  0
  160.0960  213.8350  146.2520 C   0  0  1  0  0  3  0  0  0  0  0  0
  161.3960  213.6530  147.0080 C   0  0  1  0  0  3  0  0  0  0  0  0
  160.3640  213.9320  144.8730 O   0  0  0  0  0  0  0  0  0  0  0  0
  161.9260  210.3790  153.7410 C   0  0  0  0  0  0  0  0  0  0  0  0
  162.8890  210.2660  154.5450 O   0  0  0  0  0  0  0  0  0  0  0  0
  161.0100  211.4650  153.9340 N   0  0  0  0  0  2  0  0  0  0  0  0
  159.9680  211.8190  153.0270 C   0  0  0  0  0  3  0  0  0  0  0  0
  155.2840  213.9530  154.8850 C   0  0  0  0  0  0  0  0  0  0  0  0
  155.5830  213.9070  153.4360 C   0  0  0  0  0  0  0  0  0  0  0  0
  158.8570  212.3270  153.4780 C   0  0  0  0  0  0  0  0  0  0  0  0
  158.2930  212.4410  156.2180 O   0  0  0  0  0  0  0  0  0  0  0  0
  157.4640  212.8850  155.3790 C   0  0  0  0  0  0  0  0  0  0  0  0
  156.9850  213.3410  151.6540 F   0  0  0  0  0  0  0  0  0  0  0  0
  157.7410  212.8380  153.9300 C   0  0  0  0  0  0  0  0  0  0  0  0
  156.7360  213.3820  152.9900 C   0  0  0  0  0  0  0  0  0  0  0  0
  156.2310  213.4450  155.8290 N   0  0  0  0  0  2  0  0  0  0  0  0
  154.1950  214.4360  155.2970 O   0  0  0  0  0  0  0  0  0  0  0  0
  154.5850  214.4460  152.4630 C   0  0  0  0  0  1  0  0  0  0  0  0
  161.3680  206.4980  149.5110 C   0  0  0  0  0  2  0  0  0  0  0  0
  160.0890  206.5940  148.9640 O   0  0  0  0  0  0  0  0  0  0  0  0
  160.2820  206.4270  147.5930 C   0  0  0  0  0  2  0  0  0  0  0  0
  161.7580  206.2330  147.2960 C   0  0  0  0  0  2  0  0  0  0  0  0
  161.9370  205.9070  145.9480 O   0  0  0  0  0  0  0  0  0  0  0  0
  162.2520  204.2400  145.9180 P   0  0  2  0  0  0  0  0  0  0  0  0
  163.6570  203.9940  145.4060 O   0  0  0  0  0  1  0  0  0  0  0  0
  161.1360  203.4710  144.9020 O   0  0  0  0  0  0  0  0  0  0  0  0
  162.1090  203.6320  147.4950 O   0  0  0  0  0  0  0  0  0  0  0  0
  160.8100  203.1270  147.5830 C   0  0  0  0  0  2  0  0  0  0  0  0
  161.7080  200.5800  148.5240 O   0  0  0  0  0  0  0  0  0  0  0  0
  161.1990  202.5150  150.2060 O   0  0  0  0  0  1  0  0  0  0  0  0
  160.7230  201.8970  148.9130 P   0  0  0  0  0  0  0  0  0  0  0  0
  159.1260  201.3720  149.0930 O   0  0  0  0  0  1  0  0  0  0  0  0
  1  4  1  0  0  0  0
  2  1  2  0  0  0  0
  3  8  1  0  0  0  0
  3  1  1  0  0  0  0
  4  6  2  0  0  0  0
  4 17  1  0  0  0  0
  5  6  1  0  0  0  0
  7  9  2  0  0  0  0
  7  3  1  0  0  0  0
  8  5  2  0  0  0  0
  9  2  1  0  0  0  0
 10  9  1  0  0  0  0
 11 10  2  0  0  0  0
 12 10  1  0  0  0  0
 13 16  1  6  0  0  0
 13 14  1  0  0  0  0
 13 15  1  0  0  0  0
 14 16  1  6  0  0  0
 14 15  1  0  0  0  0
 15 12  1  1  0  0  0
 17 19  1  0  0  0  0
 17 18  2  0  0  0  0
 20 23  2  0  0  0  0
 20 19  1  0  0  0  0
 21 30  2  0  0  0  0
 21 29  1  0  0  0  0
 22 21  1  0  0  0  0
 23 27  2  0  0  0  0
 25 29  1  0  0  0  0
 25 24  2  0  0  0  0
 26 28  1  0  0  0  0
 27 25  1  0  0  0  0
 28 22  2  0  0  0  0
 28 27  1  0  0  0  0
 31 22  1  0  0  0  0
 32  8  1  0  0  0  0
 33 32  1  0  0  0  0
 34 33  1  0  0  0  0
 35 34  1  0  0  0  0
 36 35  1  0  0  0  0
 37 39  2  6  0  0  0
 37 36  1  0  0  0  0
 37 40  1  0  0  0  0
 38 37  1  0  0  0  0
 40 41  1  0  0  0  0
 41 44  1  0  0  0  0
 42 44  2  0  0  0  0
 44 45  1  0  0  0  0
 44 43  1  0  0  0  0
M  END
>  <MODEL>
3

>  <REMARK>
 VINA RESULT:      -6.3      1.438      2.894
  Name = 
  13 active torsions:
  status: ('A' for Active; 'I' for Inactive)
    1  A    between atoms: C_1  and  O_22
    2  A    between atoms: C_1  and  C_41
    3  A    between atoms: C_2  and  N_37
    4  A    between atoms: C_6  and  O_16
    5  A    between atoms: C_6  and  P_36
    6  A    between atoms: O_8  and  C_9
    7  A    between atoms: O_8  and  P_12
    8  A    between atoms: C_9  and  C_19
    9  A    between atoms: C_10  and  C_42
   10  A    between atoms: P_12  and  O_16
   11  A    between atoms: N_13  and  C_30
   12  A    between atoms: C_19  and  O_22
   13  A    between atoms: C_21  and  C_26
                            x       y       z     vdW  Elec       q    Type
                         _______ _______ _______ _____ _____    ______ ____

>  <TORSDO>
F 13

$$$$
=
 OpenBabel11042420393D

 45 49  0  0  1  0  0  0  0  0999 V2000
  160.7280  211.9460  151.1300 C   0  0  0  0  0  0  0  0  0  0  0  0
  160.0250  212.5710  152.0950 N   0  0  0  0  0  0  0  0  0  0  0  0
  161.2000  210.7500  151.5170 N   0  0  0  0  0  0  0  0  0  0  0  0
  161.0010  212.4310  149.8420 C   0  0  0  0  0  0  0  0  0  0  0  0
  162.2270  210.4200  149.4190 C   0  0  0  0  0  3  0  0  0  0  0  0
  161.7490  211.6370  149.0210 N   0  0  0  0  0  0  0  0  0  0  0  0
  160.8010  210.5560  152.7850 C   0  0  0  0  0  3  0  0  0  0  0  0
  161.9400  209.9510  150.7070 C   0  0  0  0  0  0  0  0  0  0  0  0
  160.0760  211.6920  153.1240 C   0  0  0  0  0  0  0  0  0  0  0  0
  159.4420  211.9340  154.4250 C   0  0  0  0  0  0  0  0  0  0  0  0
  160.1380  212.3060  155.4080 O   0  0  0  0  0  0  0  0  0  0  0  0
  158.0320  211.7440  154.5700 N   0  0  0  0  0  2  0  0  0  0  0  0
  156.7750  213.3890  155.8250 C   0  0  2  0  0  3  0  0  0  0  0  0
  155.8740  212.2460  155.5620 C   0  0  1  0  0  3  0  0  0  0  0  0
  157.3420  211.9870  155.8270 C   0  0  1  0  0  3  0  0  0  0  0  0
  155.4520  213.3630  156.3090 O   0  0  0  0  0  0  0  0  0  0  0  0
  160.4810  213.7390  149.3610 C   0  0  0  0  0  0  0  0  0  0  0  0
  159.7900  214.4530  150.1360 O   0  0  0  0  0  0  0  0  0  0  0  0
  160.7280  214.2270  148.0360 N   0  0  0  0  0  2  0  0  0  0  0  0
  161.6140  213.6170  147.0980 C   0  0  0  0  0  3  0  0  0  0  0  0
  159.9540  212.5850  141.9870 C   0  0  0  0  0  0  0  0  0  0  0  0
  161.3740  212.4240  142.3790 C   0  0  0  0  0  0  0  0  0  0  0  0
  161.2110  213.3760  145.8840 C   0  0  0  0  0  0  0  0  0  0  0  0
  158.5350  213.7010  145.1260 O   0  0  0  0  0  0  0  0  0  0  0  0
  159.3910  213.3100  144.2870 C   0  0  0  0  0  0  0  0  0  0  0  0
  163.0770  212.5160  143.9770 F   0  0  0  0  0  0  0  0  0  0  0  0
  160.8070  213.1340  144.6640 C   0  0  0  0  0  0  0  0  0  0  0  0
  161.7700  212.6800  143.6360 C   0  0  0  0  0  0  0  0  0  0  0  0
  158.9920  213.0280  142.9460 N   0  0  0  0  0  2  0  0  0  0  0  0
  159.5860  212.3310  140.8090 O   0  0  0  0  0  0  0  0  0  0  0  0
  162.3680  211.9640  141.3640 C   0  0  0  0  0  1  0  0  0  0  0  0
  162.4740  208.6380  151.1700 C   0  0  0  0  0  2  0  0  0  0  0  0
  162.6510  207.7880  150.0790 O   0  0  0  0  0  0  0  0  0  0  0  0
  161.5590  206.9210  150.1320 C   0  0  0  0  0  2  0  0  0  0  0  0
  160.7410  207.0370  148.8580 C   0  0  0  0  0  2  0  0  0  0  0  0
  160.4040  205.7640  148.3880 O   0  0  0  0  0  0  0  0  0  0  0  0
  161.2280  205.5890  146.9140 P   0  0  2  0  0  0  0  0  0  0  0  0
  162.5630  206.3010  146.9860 O   0  0  0  0  0  1  0  0  0  0  0  0
  160.2980  206.2530  145.6640 O   0  0  0  0  0  0  0  0  0  0  0  0
  161.4810  203.9360  146.6280 O   0  0  0  0  0  0  0  0  0  0  0  0
  161.6260  203.3570  147.8900 C   0  0  0  0  0  2  0  0  0  0  0  0
  161.9170  200.5730  148.4760 O   0  0  0  0  0  1  0  0  0  0  0  0
  159.6190  201.7710  148.8180 O   0  0  0  0  0  1  0  0  0  0  0  0
  160.8250  201.7300  147.9090 P   0  0  0  0  0  0  0  0  0  0  0  0
  160.3360  201.3230  146.3410 O   0  0  0  0  0  0  0  0  0  0  0  0
  1  3  1  0  0  0  0
  1  2  2  0  0  0  0
  2  9  1  0  0  0  0
  3  7  1  0  0  0  0
  4  1  1  0  0  0  0
  5  8  2  0  0  0  0
  6  5  1  0  0  0  0
  6  4  2  0  0  0  0
  7  9  2  0  0  0  0
  8 32  1  0  0  0  0
  8  3  1  0  0  0  0
  9 10  1  0  0  0  0
 10 12  1  0  0  0  0
 10 11  2  0  0  0  0
 13 15  1  0  0  0  0
 13 16  1  1  0  0  0
 14 13  1  0  0  0  0
 14 15  1  0  0  0  0
 14 16  1  1  0  0  0
 15 12  1  6  0  0  0
 17  4  1  0  0  0  0
 17 18  2  0  0  0  0
 19 17  1  0  0  0  0
 20 19  1  0  0  0  0
 21 22  1  0  0  0  0
 21 29  1  0  0  0  0
 22 28  2  0  0  0  0
 23 20  2  0  0  0  0
 25 27  1  0  0  0  0
 25 24  2  0  0  0  0
 27 23  2  0  0  0  0
 28 26  1  0  0  0  0
 28 27  1  0  0  0  0
 29 25  1  0  0  0  0
 30 21  2  0  0  0  0
 31 22  1  0  0  0  0
 33 34  1  0  0  0  0
 33 32  1  0  0  0  0
 35 34  1  0  0  0  0
 36 35  1  0  0  0  0
 37 39  2  6  0  0  0
 37 38  1  0  0  0  0
 37 36  1  0  0  0  0
 40 37  1  0  0  0  0
 40 41  1  0  0  0  0
 41 44  1  0  0  0  0
 44 42  1  0  0  0  0
 44 43  1  0  0  0  0
 45 44  2  0  0  0  0
M  END
>  <MODEL>
4

>  <REMARK>
 VINA RESULT:      -6.1      3.258      7.960
  Name = 
  13 active torsions:
  status: ('A' for Active; 'I' for Inactive)
    1  A    between atoms: C_1  and  O_22
    2  A    between atoms: C_1  and  C_41
    3  A    between atoms: C_2  and  N_37
    4  A    between atoms: C_6  and  O_16
    5  A    between atoms: C_6  and  P_36
    6  A    between atoms: O_8  and  C_9
    7  A    between atoms: O_8  and  P_12
    8  A    between atoms: C_9  and  C_19
    9  A    between atoms: C_10  and  C_42
   10  A    between atoms: P_12  and  O_16
   11  A    between atoms: N_13  and  C_30
   12  A    between atoms: C_19  and  O_22
   13  A    between atoms: C_21  and  C_26
                            x       y       z     vdW  Elec       q    Type
                         _______ _______ _______ _____ _____    ______ ____

>  <TORSDO>
F 13

$$$$
=
 OpenBabel11042420393D

 45 49  0  0  1  0  0  0  0  0999 V2000
  160.8590  211.1340  151.3480 C   0  0  0  0  0  0  0  0  0  0  0  0
  160.1650  211.6220  152.3950 N   0  0  0  0  0  0  0  0  0  0  0  0
  161.2720  209.8700  151.5390 N   0  0  0  0  0  0  0  0  0  0  0  0
  161.1780  211.8120  150.1620 C   0  0  0  0  0  0  0  0  0  0  0  0
  162.3250  209.8440  149.4280 C   0  0  0  0  0  3  0  0  0  0  0  0
  161.9080  211.1300  149.2300 N   0  0  0  0  0  0  0  0  0  0  0  0
  160.8400  209.4880  152.7520 C   0  0  0  0  0  3  0  0  0  0  0  0
  161.9930  209.1830  150.6160 C   0  0  0  0  0  0  0  0  0  0  0  0
  160.1570  210.5850  153.2650 C   0  0  0  0  0  0  0  0  0  0  0  0
  159.5090  210.6370  154.5800 C   0  0  0  0  0  0  0  0  0  0  0  0
  160.0040  210.0080  155.5540 O   0  0  0  0  0  0  0  0  0  0  0  0
  158.3130  211.4030  154.7480 N   0  0  0  0  0  2  0  0  0  0  0  0
  156.7890  212.7640  156.0460 C   0  0  2  0  0  3  0  0  0  0  0  0
  156.1360  211.4550  155.8210 C   0  0  1  0  0  3  0  0  0  0  0  0
  157.6360  211.5110  156.0300 C   0  0  1  0  0  3  0  0  0  0  0  0
  155.5190  212.4680  156.5810 O   0  0  0  0  0  0  0  0  0  0  0  0
  160.7240  213.2030  149.8980 C   0  0  0  0  0  0  0  0  0  0  0  0
  160.0730  213.8200  150.7830 O   0  0  0  0  0  0  0  0  0  0  0  0
  160.9910  213.8800  148.6630 N   0  0  0  0  0  2  0  0  0  0  0  0
  161.8410  213.3810  147.6310 C   0  0  0  0  0  3  0  0  0  0  0  0
  159.9150  212.6650  142.5590 C   0  0  0  0  0  0  0  0  0  0  0  0
  161.3610  212.5370  142.8550 C   0  0  0  0  0  0  0  0  0  0  0  0
  161.3750  213.2150  146.4270 C   0  0  0  0  0  0  0  0  0  0  0  0
  158.6470  213.4790  145.8520 O   0  0  0  0  0  0  0  0  0  0  0  0
  159.4650  213.1900  144.9380 C   0  0  0  0  0  0  0  0  0  0  0  0
  163.1530  212.5830  144.3540 F   0  0  0  0  0  0  0  0  0  0  0  0
  160.9070  213.0480  145.2170 C   0  0  0  0  0  0  0  0  0  0  0  0
  161.8230  212.7150  144.1030 C   0  0  0  0  0  0  0  0  0  0  0  0
  158.9960  212.9930  143.6040 N   0  0  0  0  0  2  0  0  0  0  0  0
  159.4860  212.4850  141.3880 O   0  0  0  0  0  0  0  0  0  0  0  0
  162.3090  212.1980  141.7520 C   0  0  0  0  0  1  0  0  0  0  0  0
  162.4620  207.7880  150.8620 C   0  0  0  0  0  2  0  0  0  0  0  0
  161.3730  206.9170  150.8660 O   0  0  0  0  0  0  0  0  0  0  0  0
  161.9020  205.6990  151.2930 C   0  0  0  0  0  2  0  0  0  0  0  0
  160.7810  204.7090  151.5550 C   0  0  0  0  0  2  0  0  0  0  0  0
  160.1010  204.4300  150.3660 O   0  0  0  0  0  0  0  0  0  0  0  0
  160.7930  203.0000  149.7690 P   0  0  2  0  0  0  0  0  0  0  0  0
  159.7020  202.0710  149.2750 O   0  0  0  0  0  0  0  0  0  0  0  0
  161.6690  202.2370  151.0020 O   0  0  0  0  0  1  0  0  0  0  0  0
  161.8290  203.3930  148.4850 O   0  0  0  0  0  0  0  0  0  0  0  0
  161.2770  204.5330  147.8970 C   0  0  0  0  0  2  0  0  0  0  0  0
  161.2100  203.2130  145.3600 O   0  0  0  0  0  0  0  0  0  0  0  0
  161.1280  205.8220  145.5050 O   0  0  0  0  0  1  0  0  0  0  0  0
  161.7520  204.6060  146.1480 P   0  0  0  0  0  0  0  0  0  0  0  0
  163.4360  204.7040  146.0240 O   0  0  0  0  0  1  0  0  0  0  0  0
  1  3  1  0  0  0  0
  1  2  2  0  0  0  0
  2  9  1  0  0  0  0
  3  7  1  0  0  0  0
  4  1  1  0  0  0  0
  5  8  2  0  0  0  0
  6  5  1  0  0  0  0
  6  4  2  0  0  0  0
  7  9  2  0  0  0  0
  8 32  1  0  0  0  0
  8  3  1  0  0  0  0
  9 10  1  0  0  0  0
 10 12  1  0  0  0  0
 10 11  2  0  0  0  0
 13 16  1  1  0  0  0
 14 15  1  0  0  0  0
 14 13  1  0  0  0  0
 14 16  1  1  0  0  0
 15 12  1  6  0  0  0
 15 13  1  0  0  0  0
 17  4  1  0  0  0  0
 17 18  2  0  0  0  0
 19 17  1  0  0  0  0
 20 19  1  0  0  0  0
 21 22  1  0  0  0  0
 21 29  1  0  0  0  0
 22 28  2  0  0  0  0
 23 20  2  0  0  0  0
 25 27  1  0  0  0  0
 25 24  2  0  0  0  0
 27 23  2  0  0  0  0
 28 26  1  0  0  0  0
 28 27  1  0  0  0  0
 29 25  1  0  0  0  0
 30 21  2  0  0  0  0
 31 22  1  0  0  0  0
 32 33  1  0  0  0  0
 33 34  1  0  0  0  0
 34 35  1  0  0  0  0
 36 35  1  0  0  0  0
 37 38  2  6  0  0  0
 37 36  1  0  0  0  0
 37 39  1  0  0  0  0
 40 37  1  0  0  0  0
 41 40  1  0  0  0  0
 42 44  2  0  0  0  0
 43 44  1  0  0  0  0
 44 41  1  0  0  0  0
 45 44  1  0  0  0  0
M  END
>  <MODEL>
5

>  <REMARK>
 VINA RESULT:      -5.8      3.044      7.348
  Name = 
  13 active torsions:
  status: ('A' for Active; 'I' for Inactive)
    1  A    between atoms: C_1  and  O_22
    2  A    between atoms: C_1  and  C_41
    3  A    between atoms: C_2  and  N_37
    4  A    between atoms: C_6  and  O_16
    5  A    between atoms: C_6  and  P_36
    6  A    between atoms: O_8  and  C_9
    7  A    between atoms: O_8  and  P_12
    8  A    between atoms: C_9  and  C_19
    9  A    between atoms: C_10  and  C_42
   10  A    between atoms: P_12  and  O_16
   11  A    between atoms: N_13  and  C_30
   12  A    between atoms: C_19  and  O_22
   13  A    between atoms: C_21  and  C_26
                            x       y       z     vdW  Elec       q    Type
                         _______ _______ _______ _____ _____    ______ ____

>  <TORSDO>
F 13

$$$$
=
 OpenBabel11042420393D

 45 49  0  0  1  0  0  0  0  0999 V2000
  161.6100  207.9580  149.9500 C   0  0  0  0  0  0  0  0  0  0  0  0
  161.9450  209.2490  150.1470 N   0  0  0  0  0  0  0  0  0  0  0  0
  161.4150  207.6610  148.6550 N   0  0  0  0  0  0  0  0  0  0  0  0
  161.4420  206.9740  150.9360 C   0  0  0  0  0  0  0  0  0  0  0  0
  160.8880  205.4260  149.1980 C   0  0  0  0  0  3  0  0  0  0  0  0
  161.0840  205.7250  150.5160 N   0  0  0  0  0  0  0  0  0  0  0  0
  161.6290  208.7850  147.9520 C   0  0  0  0  0  3  0  0  0  0  0  0
  161.0660  206.4210  148.2280 C   0  0  0  0  0  0  0  0  0  0  0  0
  161.9560  209.7550  148.8920 C   0  0  0  0  0  0  0  0  0  0  0  0
  162.2710  211.1550  148.5870 C   0  0  0  0  0  0  0  0  0  0  0  0
  163.3170  211.6820  149.0520 O   0  0  0  0  0  0  0  0  0  0  0  0
  161.3850  211.9150  147.7620 N   0  0  0  0  0  2  0  0  0  0  0  0
  162.3740  213.3470  146.0800 C   0  0  2  0  0  3  0  0  0  0  0  0
  160.9270  213.6480  146.1240 C   0  0  1  0  0  3  0  0  0  0  0  0
  161.6520  213.3000  147.4080 C   0  0  1  0  0  3  0  0  0  0  0  0
  161.8000  214.3440  145.2660 O   0  0  0  0  0  0  0  0  0  0  0  0
  161.6680  207.2520  152.3790 C   0  0  0  0  0  0  0  0  0  0  0  0
  162.3770  206.4620  153.0580 O   0  0  0  0  0  0  0  0  0  0  0  0
  161.1000  208.3890  153.0440 N   0  0  0  0  0  2  0  0  0  0  0  0
  160.4100  209.4510  152.3890 C   0  0  0  0  0  3  0  0  0  0  0  0
  157.4480  213.0300  155.2800 C   0  0  0  0  0  0  0  0  0  0  0  0
  157.7150  213.2440  153.8390 C   0  0  0  0  0  0  0  0  0  0  0  0
  159.7080  210.2980  153.0850 C   0  0  0  0  0  0  0  0  0  0  0  0
  159.2190  209.9170  155.8150 O   0  0  0  0  0  0  0  0  0  0  0  0
  158.7570  210.9280  155.2210 C   0  0  0  0  0  0  0  0  0  0  0  0
  158.6670  212.5700  151.8140 F   0  0  0  0  0  0  0  0  0  0  0  0
  159.0040  211.1510  153.7830 C   0  0  0  0  0  0  0  0  0  0  0  0
  158.4430  212.3590  153.1390 C   0  0  0  0  0  0  0  0  0  0  0  0
  157.9770  211.8800  155.9440 N   0  0  0  0  0  2  0  0  0  0  0  0
  156.7540  213.8580  155.9300 O   0  0  0  0  0  0  0  0  0  0  0  0
  157.1590  214.4530  153.1610 C   0  0  0  0  0  1  0  0  0  0  0  0
  160.8300  206.1220  146.7860 C   0  0  0  0  0  2  0  0  0  0  0  0
  162.0480  205.9060  146.1420 O   0  0  0  0  0  0  0  0  0  0  0  0
  161.6960  205.5160  144.8500 C   0  0  0  0  0  2  0  0  0  0  0  0
  160.8560  204.2520  144.8990 C   0  0  0  0  0  2  0  0  0  0  0  0
  161.6070  203.2000  145.4320 O   0  0  0  0  0  0  0  0  0  0  0  0
  160.4920  201.9620  145.7560 P   0  0  2  0  0  0  0  0  0  0  0  0
  161.2130  200.6320  145.8390 O   0  0  0  0  0  1  0  0  0  0  0  0
  159.3360  201.9030  144.5190 O   0  0  0  0  0  0  0  0  0  0  0  0
  159.7330  202.2900  147.2380 O   0  0  0  0  0  0  0  0  0  0  0  0
  160.7660  202.5900  148.1270 C   0  0  0  0  0  2  0  0  0  0  0  0
  161.6700  200.1460  149.3080 O   0  0  0  0  0  0  0  0  0  0  0  0
  161.1310  202.2240  150.7990 O   0  0  0  0  0  1  0  0  0  0  0  0
  160.6730  201.4860  149.5630 P   0  0  0  0  0  0  0  0  0  0  0  0
  159.0770  200.9680  149.7750 O   0  0  0  0  0  1  0  0  0  0  0  0
  1  2  2  0  0  0  0
  1  4  1  0  0  0  0
  3  1  1  0  0  0  0
  4 17  1  0  0  0  0
  5  6  1  0  0  0  0
  6  4  2  0  0  0  0
  7  3  1  0  0  0  0
  7  9  2  0  0  0  0
  8  3  1  0  0  0  0
  8  5  2  0  0  0  0
  9  2  1  0  0  0  0
 10  9  1  0  0  0  0
 10 11  2  0  0  0  0
 12 10  1  0  0  0  0
 13 16  1  1  0  0  0
 13 14  1  0  0  0  0
 13 15  1  0  0  0  0
 14 16  1  1  0  0  0
 14 15  1  0  0  0  0
 15 12  1  6  0  0  0
 17 19  1  0  0  0  0
 17 18  2  0  0  0  0
 20 19  1  0  0  0  0
 20 23  2  0  0  0  0
 21 30  2  0  0  0  0
 21 29  1  0  0  0  0
 22 21  1  0  0  0  0
 23 27  2  0  0  0  0
 25 24  2  0  0  0  0
 25 29  1  0  0  0  0
 26 28  1  0  0  0  0
 27 25  1  0  0  0  0
 28 27  1  0  0  0  0
 28 22  2  0  0  0  0
 31 22  1  0  0  0  0
 32  8  1  0  0  0  0
 33 32  1  0  0  0  0
 34 35  1  0  0  0  0
 34 33  1  0  0  0  0
 35 36  1  0  0  0  0
 36 37  1  0  0  0  0
 37 39  2  6  0  0  0
 37 38  1  0  0  0  0
 37 40  1  0  0  0  0
 40 41  1  0  0  0  0
 41 44  1  0  0  0  0
 42 44  2  0  0  0  0
 44 45  1  0  0  0  0
 44 43  1  0  0  0  0
M  END
>  <MODEL>
6

>  <REMARK>
 VINA RESULT:      -5.6      1.974      3.653
  Name = 
  13 active torsions:
  status: ('A' for Active; 'I' for Inactive)
    1  A    between atoms: C_1  and  O_22
    2  A    between atoms: C_1  and  C_41
    3  A    between atoms: C_2  and  N_37
    4  A    between atoms: C_6  and  O_16
    5  A    between atoms: C_6  and  P_36
    6  A    between atoms: O_8  and  C_9
    7  A    between atoms: O_8  and  P_12
    8  A    between atoms: C_9  and  C_19
    9  A    between atoms: C_10  and  C_42
   10  A    between atoms: P_12  and  O_16
   11  A    between atoms: N_13  and  C_30
   12  A    between atoms: C_19  and  O_22
   13  A    between atoms: C_21  and  C_26
                            x       y       z     vdW  Elec       q    Type
                         _______ _______ _______ _____ _____    ______ ____

>  <TORSDO>
F 13

$$$$
=
 OpenBabel11042420393D

 45 49  0  0  1  0  0  0  0  0999 V2000
  161.2410  209.5150  153.8110 C   0  0  0  0  0  0  0  0  0  0  0  0
  161.0820  210.8390  153.6140 N   0  0  0  0  0  0  0  0  0  0  0  0
  161.0130  208.7910  152.7030 N   0  0  0  0  0  0  0  0  0  0  0  0
  161.5870  208.8810  155.0130 C   0  0  0  0  0  0  0  0  0  0  0  0
  161.4490  206.7850  153.8660 C   0  0  0  0  0  3  0  0  0  0  0  0
  161.6820  207.5180  154.9950 N   0  0  0  0  0  0  0  0  0  0  0  0
  160.6920  209.6520  151.7240 C   0  0  0  0  0  3  0  0  0  0  0  0
  161.1110  207.4370  152.6740 C   0  0  0  0  0  0  0  0  0  0  0  0
  160.7400  210.9130  152.3060 C   0  0  0  0  0  0  0  0  0  0  0  0
  160.4570  212.1750  151.6140 C   0  0  0  0  0  0  0  0  0  0  0  0
  159.8900  213.1190  152.2290 O   0  0  0  0  0  0  0  0  0  0  0  0
  160.8270  212.3270  150.2410 N   0  0  0  0  0  2  0  0  0  0  0  0
  161.6860  213.7490  148.4810 C   0  0  2  0  0  3  0  0  0  0  0  0
  160.3660  213.2470  148.0430 C   0  0  1  0  0  3  0  0  0  0  0  0
  160.5920  213.5600  149.5070 C   0  0  1  0  0  3  0  0  0  0  0  0
  161.1170  214.1370  147.2510 O   0  0  0  0  0  0  0  0  0  0  0  0
  161.8710  209.6430  156.2580 C   0  0  0  0  0  0  0  0  0  0  0  0
  163.0530  209.9940  156.5140 O   0  0  0  0  0  0  0  0  0  0  0  0
  160.8460  209.9930  157.1980 N   0  0  0  0  0  2  0  0  0  0  0  0
  159.4480  209.8080  156.9820 C   0  0  0  0  0  3  0  0  0  0  0  0
  156.5320  213.5850  154.3030 C   0  0  0  0  0  0  0  0  0  0  0  0
  155.9480  212.2690  154.6490 C   0  0  0  0  0  0  0  0  0  0  0  0
  158.7620  210.7110  156.3430 C   0  0  0  0  0  0  0  0  0  0  0  0
  159.8660  213.1930  155.6620 O   0  0  0  0  0  0  0  0  0  0  0  0
  158.6750  212.9200  155.3540 C   0  0  0  0  0  0  0  0  0  0  0  0
  156.1120  210.1510  155.6230 F   0  0  0  0  0  0  0  0  0  0  0  0
  158.0730  211.6180  155.7000 C   0  0  0  0  0  0  0  0  0  0  0  0
  156.6720  211.3490  155.3060 C   0  0  0  0  0  0  0  0  0  0  0  0
  157.8850  213.8840  154.6580 N   0  0  0  0  0  2  0  0  0  0  0  0
  155.8440  214.4490  153.6970 O   0  0  0  0  0  0  0  0  0  0  0  0
  154.5350  211.9710  154.2680 C   0  0  0  0  0  1  0  0  0  0  0  0
  160.8260  206.6530  151.4370 C   0  0  0  0  0  2  0  0  0  0  0  0
  161.1420  207.4140  150.3120 O   0  0  0  0  0  0  0  0  0  0  0  0
  162.0460  206.6260  149.6000 C   0  0  0  0  0  2  0  0  0  0  0  0
  161.8340  206.8120  148.1090 C   0  0  0  0  0  2  0  0  0  0  0  0
  160.8260  205.9550  147.6570 O   0  0  0  0  0  0  0  0  0  0  0  0
  161.5860  204.8750  146.5920 P   0  0  2  0  0  0  0  0  0  0  0  0
  163.0820  205.1140  146.6020 O   0  0  0  0  0  1  0  0  0  0  0  0
  160.9860  205.1100  145.0250 O   0  0  0  0  0  0  0  0  0  0  0  0
  161.2610  203.2900  147.1010 O   0  0  0  0  0  0  0  0  0  0  0  0
  161.1900  203.3540  148.4940 C   0  0  0  0  0  2  0  0  0  0  0  0
  161.3470  201.6110  150.7560 O   0  0  0  0  0  1  0  0  0  0  0  0
  159.3090  201.4920  149.1240 O   0  0  0  0  0  1  0  0  0  0  0  0
  160.8030  201.7120  149.1600 P   0  0  0  0  0  0  0  0  0  0  0  0
  161.5700  200.5290  148.2260 O   0  0  0  0  0  0  0  0  0  0  0  0
  1  4  1  0  0  0  0
  2  1  2  0  0  0  0
  3  1  1  0  0  0  0
  4 17  1  0  0  0  0
  5  6  1  0  0  0  0
  6  4  2  0  0  0  0
  7  9  2  0  0  0  0
  7  3  1  0  0  0  0
  8  3  1  0  0  0  0
  8  5  2  0  0  0  0
  9  2  1  0  0  0  0
 10 11  2  0  0  0  0
 10  9  1  0  0  0  0
 12 10  1  0  0  0  0
 13 16  1  6  0  0  0
 13 15  1  0  0  0  0
 14 16  1  6  0  0  0
 14 13  1  0  0  0  0
 14 15  1  0  0  0  0
 15 12  1  1  0  0  0
 17 18  2  0  0  0  0
 17 19  1  0  0  0  0
 20 19  1  0  0  0  0
 21 22  1  0  0  0  0
 21 29  1  0  0  0  0
 22 28  2  0  0  0  0
 23 20  2  0  0  0  0
 25 24  2  0  0  0  0
 25 27  1  0  0  0  0
 27 23  2  0  0  0  0
 28 26  1  0  0  0  0
 28 27  1  0  0  0  0
 29 25  1  0  0  0  0
 30 21  2  0  0  0  0
 31 22  1  0  0  0  0
 32  8  1  0  0  0  0
 33 32  1  0  0  0  0
 34 33  1  0  0  0  0
 35 34  1  0  0  0  0
 36 35  1  0  0  0  0
 37 39  2  6  0  0  0
 37 38  1  0  0  0  0
 37 40  1  0  0  0  0
 37 36  1  0  0  0  0
 40 41  1  0  0  0  0
 41 44  1  0  0  0  0
 43 44  1  0  0  0  0
 44 42  1  0  0  0  0
 45 44  2  0  0  0  0
M  END
>  <MODEL>
7

>  <REMARK>
 VINA RESULT:      -5.6      1.835      3.180
  Name = 
  13 active torsions:
  status: ('A' for Active; 'I' for Inactive)
    1  A    between atoms: C_1  and  O_22
    2  A    between atoms: C_1  and  C_41
    3  A    between atoms: C_2  and  N_37
    4  A    between atoms: C_6  and  O_16
    5  A    between atoms: C_6  and  P_36
    6  A    between atoms: O_8  and  C_9
    7  A    between atoms: O_8  and  P_12
    8  A    between atoms: C_9  and  C_19
    9  A    between atoms: C_10  and  C_42
   10  A    between atoms: P_12  and  O_16
   11  A    between atoms: N_13  and  C_30
   12  A    between atoms: C_19  and  O_22
   13  A    between atoms: C_21  and  C_26
                            x       y       z     vdW  Elec       q    Type
                         _______ _______ _______ _____ _____    ______ ____

>  <TORSDO>
F 13

$$$$
=
 OpenBabel11042420393D

 45 49  0  0  1  0  0  0  0  0999 V2000
  161.3520  208.7100  151.4290 C   0  0  0  0  0  0  0  0  0  0  0  0
  160.8680  208.7870  152.6840 N   0  0  0  0  0  0  0  0  0  0  0  0
  161.4260  209.9060  150.8230 N   0  0  0  0  0  0  0  0  0  0  0  0
  161.7410  207.5460  150.7490 C   0  0  0  0  0  0  0  0  0  0  0  0
  162.2680  208.9120  148.8560 C   0  0  0  0  0  3  0  0  0  0  0  0
  162.1940  207.6930  149.4690 N   0  0  0  0  0  0  0  0  0  0  0  0
  160.9810  210.8230  151.6960 C   0  0  0  0  0  3  0  0  0  0  0  0
  161.8800  210.0620  149.5530 C   0  0  0  0  0  0  0  0  0  0  0  0
  160.6400  210.1130  152.8410 C   0  0  0  0  0  0  0  0  0  0  0  0
  160.0990  210.7000  154.0720 C   0  0  0  0  0  0  0  0  0  0  0  0
  160.8180  210.7770  155.1040 O   0  0  0  0  0  0  0  0  0  0  0  0
  158.7530  211.1830  154.0910 N   0  0  0  0  0  2  0  0  0  0  0  0
  158.1640  213.2970  155.1120 C   0  0  2  0  0  3  0  0  0  0  0  0
  156.9090  212.5470  154.8880 C   0  0  1  0  0  3  0  0  0  0  0  0
  158.1660  211.7930  155.2730 C   0  0  1  0  0  3  0  0  0  0  0  0
  156.9130  213.8120  155.5060 O   0  0  0  0  0  0  0  0  0  0  0  0
  161.6970  206.2040  151.3870 C   0  0  0  0  0  0  0  0  0  0  0  0
  161.8190  206.1080  152.6380 O   0  0  0  0  0  0  0  0  0  0  0  0
  161.5290  204.9960  150.6320 N   0  0  0  0  0  2  0  0  0  0  0  0
  161.2250  204.9450  149.2390 C   0  0  0  0  0  3  0  0  0  0  0  0
  161.0520  200.1470  146.6150 C   0  0  0  0  0  0  0  0  0  0  0  0
  160.6000  201.3950  145.9590 C   0  0  0  0  0  0  0  0  0  0  0  0
  161.1860  203.7990  148.6230 C   0  0  0  0  0  0  0  0  0  0  0  0
  162.0140  201.4290  149.8620 O   0  0  0  0  0  0  0  0  0  0  0  0
  161.5890  201.4120  148.6760 C   0  0  0  0  0  0  0  0  0  0  0  0
  160.2350  203.7040  145.9880 F   0  0  0  0  0  0  0  0  0  0  0  0
  161.1440  202.6480  148.0040 C   0  0  0  0  0  0  0  0  0  0  0  0
  160.6460  202.5680  146.6130 C   0  0  0  0  0  0  0  0  0  0  0  0
  161.5330  200.1770  147.9610 N   0  0  0  0  0  2  0  0  0  0  0  0
  161.0170  199.0510  145.9930 O   0  0  0  0  0  0  0  0  0  0  0  0
  160.0950  201.3460  144.5540 C   0  0  0  0  0  1  0  0  0  0  0  0
  161.9280  211.3990  148.8930 C   0  0  0  0  0  2  0  0  0  0  0  0
  163.2540  211.7930  148.7180 O   0  0  0  0  0  0  0  0  0  0  0  0
  163.1750  212.9540  147.9500 C   0  0  0  0  0  2  0  0  0  0  0  0
  162.3090  212.7100  146.7270 C   0  0  0  0  0  2  0  0  0  0  0  0
  161.7800  213.9190  146.2660 O   0  0  0  0  0  0  0  0  0  0  0  0
  160.2990  213.5220  145.5370 P   0  0  2  0  0  0  0  0  0  0  0  0
  159.2150  214.4510  146.0440 O   0  0  0  0  0  1  0  0  0  0  0  0
  159.8950  211.9210  145.9140 O   0  0  0  0  0  0  0  0  0  0  0  0
  160.4570  213.6960  143.8570 O   0  0  0  0  0  0  0  0  0  0  0  0
  160.6340  212.4020  143.3640 C   0  0  0  0  0  2  0  0  0  0  0  0
  159.6310  211.8930  140.7350 O   0  0  0  0  0  0  0  0  0  0  0  0
  161.2490  213.8980  141.1760 O   0  0  0  0  0  1  0  0  0  0  0  0
  160.9720  212.4700  141.5840 P   0  0  0  0  0  0  0  0  0  0  0  0
  162.3190  211.5110  141.2280 O   0  0  0  0  0  1  0  0  0  0  0  0
  1  2  2  0  0  0  0
  2  9  1  0  0  0  0
  3  1  1  0  0  0  0
  3  7  1  0  0  0  0
  4 17  1  0  0  0  0
  4  1  1  0  0  0  0
  5  6  1  0  0  0  0
  5  8  2  0  0  0  0
  6  4  2  0  0  0  0
  7  9  2  0  0  0  0
  8  3  1  0  0  0  0
  9 10  1  0  0  0  0
 10 12  1  0  0  0  0
 10 11  2  0  0  0  0
 13 15  1  0  0  0  0
 13 16  1  1  0  0  0
 14 13  1  0  0  0  0
 14 15  1  0  0  0  0
 14 16  1  1  0  0  0
 15 12  1  6  0  0  0
 17 18  2  0  0  0  0
 19 17  1  0  0  0  0
 20 19  1  0  0  0  0
 21 29  1  0  0  0  0
 22 28  2  0  0  0  0
 22 21  1  0  0  0  0
 23 20  2  0  0  0  0
 25 24  2  0  0  0  0
 26 28  1  0  0  0  0
 27 23  2  0  0  0  0
 27 25  1  0  0  0  0
 28 27  1  0  0  0  0
 29 25  1  0  0  0  0
 30 21  2  0  0  0  0
 31 22  1  0  0  0  0
 32  8  1  0  0  0  0
 33 32  1  0  0  0  0
 34 33  1  0  0  0  0
 35 34  1  0  0  0  0
 36 35  1  0  0  0  0
 37 39  2  1  0  0  0
 37 38  1  0  0  0  0
 37 36  1  0  0  0  0
 40 37  1  0  0  0  0
 41 40  1  0  0  0  0
 42 44  2  0  0  0  0
 43 44  1  0  0  0  0
 44 41  1  0  0  0  0
 45 44  1  0  0  0  0
M  END
>  <MODEL>
8

>  <REMARK>
 VINA RESULT:      -5.6      3.867     10.091
  Name = 
  13 active torsions:
  status: ('A' for Active; 'I' for Inactive)
    1  A    between atoms: C_1  and  O_22
    2  A    between atoms: C_1  and  C_41
    3  A    between atoms: C_2  and  N_37
    4  A    between atoms: C_6  and  O_16
    5  A    between atoms: C_6  and  P_36
    6  A    between atoms: O_8  and  C_9
    7  A    between atoms: O_8  and  P_12
    8  A    between atoms: C_9  and  C_19
    9  A    between atoms: C_10  and  C_42
   10  A    between atoms: P_12  and  O_16
   11  A    between atoms: N_13  and  C_30
   12  A    between atoms: C_19  and  O_22
   13  A    between atoms: C_21  and  C_26
                            x       y       z     vdW  Elec       q    Type
                         _______ _______ _______ _____ _____    ______ ____

>  <TORSDO>
F 13

$$$$
=
 OpenBabel11042420393D

 45 49  0  0  1  0  0  0  0  0999 V2000
  161.5250  209.2200  152.9930 C   0  0  0  0  0  0  0  0  0  0  0  0
  161.8730  210.1610  152.0930 N   0  0  0  0  0  0  0  0  0  0  0  0
  161.1970  208.0490  152.4240 N   0  0  0  0  0  0  0  0  0  0  0  0
  161.4660  209.3720  154.3860 C   0  0  0  0  0  0  0  0  0  0  0  0
  160.7390  207.0960  154.5330 C   0  0  0  0  0  3  0  0  0  0  0  0
  161.0710  208.2860  155.1160 N   0  0  0  0  0  0  0  0  0  0  0  0
  161.3310  208.1990  151.0960 C   0  0  0  0  0  3  0  0  0  0  0  0
  160.8100  206.9630  153.1410 C   0  0  0  0  0  0  0  0  0  0  0  0
  161.7500  209.5120  150.9110 C   0  0  0  0  0  0  0  0  0  0  0  0
  162.0250  210.1370  149.6130 C   0  0  0  0  0  0  0  0  0  0  0  0
  162.3490  209.4240  148.6250 O   0  0  0  0  0  0  0  0  0  0  0  0
  161.9230  211.5560  149.4760 N   0  0  0  0  0  2  0  0  0  0  0  0
  160.8640  212.3330  147.4430 C   0  0  2  0  0  3  0  0  0  0  0  0
  161.3690  213.5220  148.1640 C   0  0  1  0  0  3  0  0  0  0  0  0
  162.1620  212.2330  148.2120 C   0  0  1  0  0  3  0  0  0  0  0  0
  160.7290  213.6330  146.9150 O   0  0  0  0  0  0  0  0  0  0  0  0
  161.8400  210.6420  155.0620 C   0  0  0  0  0  0  0  0  0  0  0  0
  162.8570  210.6720  155.8050 O   0  0  0  0  0  0  0  0  0  0  0  0
  161.0810  211.8490  154.9090 N   0  0  0  0  0  2  0  0  0  0  0  0
  160.0040  212.0200  153.9900 C   0  0  0  0  0  3  0  0  0  0  0  0
  155.1770  213.9470  155.7030 C   0  0  0  0  0  0  0  0  0  0  0  0
  155.4650  213.7750  154.2610 C   0  0  0  0  0  0  0  0  0  0  0  0
  158.8590  212.4800  154.4060 C   0  0  0  0  0  0  0  0  0  0  0  0
  158.3140  212.8330  157.1300 O   0  0  0  0  0  0  0  0  0  0  0  0
  157.4430  213.1180  156.2640 C   0  0  0  0  0  0  0  0  0  0  0  0
  156.8920  213.1430  152.5220 F   0  0  0  0  0  0  0  0  0  0  0  0
  157.7090  212.9430  154.8240 C   0  0  0  0  0  0  0  0  0  0  0  0
  156.6530  213.3020  153.8510 C   0  0  0  0  0  0  0  0  0  0  0  0
  156.1720  213.6200  156.6770 N   0  0  0  0  0  2  0  0  0  0  0  0
  154.0570  214.3810  156.0830 O   0  0  0  0  0  0  0  0  0  0  0  0
  154.4170  214.1260  153.2560 C   0  0  0  0  0  1  0  0  0  0  0  0
  160.4250  205.6800  152.4840 C   0  0  0  0  0  2  0  0  0  0  0  0
  161.2020  204.6390  152.9890 O   0  0  0  0  0  0  0  0  0  0  0  0
  161.8390  204.1030  151.8700 C   0  0  0  0  0  2  0  0  0  0  0  0
  161.1790  204.6150  150.6020 C   0  0  0  0  0  2  0  0  0  0  0  0
  162.0380  204.4440  149.5120 O   0  0  0  0  0  0  0  0  0  0  0  0
  161.3310  205.3070  148.2330 P   0  0  2  0  0  0  0  0  0  0  0  0
  162.3480  206.2550  147.6310 O   0  0  0  0  0  0  0  0  0  0  0  0
  160.0060  206.1910  148.8110 O   0  0  0  0  0  1  0  0  0  0  0  0
  160.8160  204.2030  147.0530 O   0  0  0  0  0  0  0  0  0  0  0  0
  161.3500  202.9710  147.4370 C   0  0  0  0  0  2  0  0  0  0  0  0
  158.9820  201.4030  147.1050 O   0  0  0  0  0  1  0  0  0  0  0  0
  160.4690  202.0180  145.0460 O   0  0  0  0  0  0  0  0  0  0  0  0
  160.5430  201.6400  146.5060 P   0  0  0  0  0  0  0  0  0  0  0  0
  161.4350  200.2130  146.6750 O   0  0  0  0  0  1  0  0  0  0  0  0
  1  4  1  0  0  0  0
  2  1  2  0  0  0  0
  3  1  1  0  0  0  0
  3  8  1  0  0  0  0
  4 17  1  0  0  0  0
  4  6  2  0  0  0  0
  5  6  1  0  0  0  0
  7  3  1  0  0  0  0
  8  5  2  0  0  0  0
  9  7  2  0  0  0  0
  9  2  1  0  0  0  0
 10  9  1  0  0  0  0
 11 10  2  0  0  0  0
 12 10  1  0  0  0  0
 13 16  1  6  0  0  0
 13 14  1  0  0  0  0
 13 15  1  0  0  0  0
 14 16  1  6  0  0  0
 14 15  1  0  0  0  0
 15 12  1  1  0  0  0
 17 18  2  0  0  0  0
 19 17  1  0  0  0  0
 20 23  2  0  0  0  0
 20 19  1  0  0  0  0
 21 30  2  0  0  0  0
 21 29  1  0  0  0  0
 22 21  1  0  0  0  0
 23 27  2  0  0  0  0
 25 29  1  0  0  0  0
 25 24  2  0  0  0  0
 26 28  1  0  0  0  0
 27 25  1  0  0  0  0
 28 22  2  0  0  0  0
 28 27  1  0  0  0  0
 31 22  1  0  0  0  0
 32 33  1  0  0  0  0
 32  8  1  0  0  0  0
 34 33  1  0  0  0  0
 35 34  1  0  0  0  0
 36 35  1  0  0  0  0
 37 38  2  6  0  0  0
 37 39  1  0  0  0  0
 37 36  1  0  0  0  0
 40 41  1  0  0  0  0
 40 37  1  0  0  0  0
 43 44  2  0  0  0  0
 44 45  1  0  0  0  0
 44 42  1  0  0  0  0
 44 41  1  0  0  0  0
M  END
>  <MODEL>
9

>  <REMARK>
 VINA RESULT:      -5.4      1.174      2.141
  Name = 
  13 active torsions:
  status: ('A' for Active; 'I' for Inactive)
    1  A    between atoms: C_1  and  O_22
    2  A    between atoms: C_1  and  C_41
    3  A    between atoms: C_2  and  N_37
    4  A    between atoms: C_6  and  O_16
    5  A    between atoms: C_6  and  P_36
    6  A    between atoms: O_8  and  C_9
    7  A    between atoms: O_8  and  P_12
    8  A    between atoms: C_9  and  C_19
    9  A    between atoms: C_10  and  C_42
   10  A    between atoms: P_12  and  O_16
   11  A    between atoms: N_13  and  C_30
   12  A    between atoms: C_19  and  O_22
   13  A    between atoms: C_21  and  C_26
                            x       y       z     vdW  Elec       q    Type
                         _______ _______ _______ _____ _____    ______ ____

>  <TORSDO>
F 13

$$$$
