=
 OpenBabel11042421553D

 47 51  0  0  1  0  0  0  0  0999 V2000
  162.3030  207.2630  151.7290 C   0  0  0  0  0  2  0  0  0  0  0  0
  161.7110  206.7610  150.3880 C   0  0  0  0  0  2  0  0  0  0  0  0
  161.7470  209.8130  151.9700 C   0  0  1  0  0  3  0  0  0  0  0  0
  161.7270  209.0330  149.7030 C   0  0  0  0  0  0  0  0  0  0  0  0
  161.7190  207.8030  149.2930 C   0  0  0  0  0  0  0  0  0  0  0  0
  161.4230  208.3470  152.3880 C   0  0  0  0  0  2  0  0  0  0  0  0
  161.7860  210.0740  150.4760 C   0  0  0  0  0  0  0  0  0  0  0  0
  161.1540  211.3840  153.8520 N   0  0  0  0  0  2  0  0  0  0  0  0
  159.5890  210.8050  152.2170 O   0  0  0  0  0  0  0  0  0  0  0  0
  160.7720  210.7140  152.6510 C   0  0  0  0  0  0  0  0  0  0  0  0
  160.1670  212.0180  154.7130 C   0  0  0  0  0  2  0  0  0  0  0  0
  159.1380  211.0010  155.2370 C   0  0  2  0  0  3  0  0  0  0  0  0
  156.8090  210.7860  155.7040 C   0  0  0  0  0  2  0  0  0  0  0  0
  155.3270  212.6650  155.4820 O   0  0  0  0  0  0  0  0  0  0  0  0
  157.6990  212.9180  155.1670 C   0  0  0  0  0  2  0  0  0  0  0  0
  157.9820  211.6590  155.8710 N   0  0  0  0  0  0  0  0  0  0  0  0
  156.4100  213.5340  155.7190 C   0  0  0  0  0  2  0  0  0  0  0  0
  155.5590  211.4970  156.2310 C   0  0  0  0  0  2  0  0  0  0  0  0
  160.4880  209.0350  155.7680 N   0  0  0  0  0  0  0  0  0  0  0  0
  159.7920  210.0420  156.1940 C   0  0  0  0  0  3  0  0  0  0  0  0
  161.1130  208.1150  156.6660 C   0  0  0  0  0  0  0  0  0  0  0  0
  162.3220  208.2560  157.0010 O   0  0  0  0  0  0  0  0  0  0  0  0
  160.3310  206.9760  157.2150 C   0  0  0  0  0  1  0  0  0  0  0  0
  162.1840  211.4150  149.9420 C   0  0  0  0  0  2  0  0  0  0  0  0
  161.1390  212.2670  147.7530 C   0  0  1  0  0  3  0  0  0  0  0  0
  162.5610  212.7760  147.8800 C   0  0  1  0  0  3  0  0  0  0  0  0
  162.2150  211.3990  148.4110 C   0  0  1  0  0  3  0  0  0  0  0  0
  163.2000  212.6450  146.6480 O   0  0  0  0  0  1  0  0  0  0  0  0
  159.0430  213.6140  148.4270 C   0  0  0  0  0  0  0  0  0  0  0  0
  160.2950  212.9670  148.7160 N   0  0  0  0  0  2  0  0  0  0  0  0
  158.5460  214.3590  149.3170 O   0  0  0  0  0  0  0  0  0  0  0  0
  157.3860  212.5060  146.9700 C   0  0  0  0  0  2  0  0  0  0  0  0
  158.3070  213.4470  147.1460 C   0  0  0  0  0  0  0  0  0  0  0  0
  158.4770  214.4530  146.0580 C   0  0  0  0  0  2  0  0  0  0  0  0
  159.3960  213.9150  144.9730 C   0  0  0  0  0  1  0  0  0  0  0  0
  161.2380  207.4790  147.9170 C   0  0  0  0  0  2  0  0  0  0  0  0
  161.5740  204.1510  146.1420 C   0  0  0  0  0  3  0  0  0  0  0  0
  160.9020  205.1070  148.6800 C   0  0  0  0  0  3  0  0  0  0  0  0
  160.8950  203.7340  148.4280 C   0  0  0  0  0  3  0  0  0  0  0  0
  161.5790  205.5250  146.3940 C   0  0  0  0  0  3  0  0  0  0  0  0
  161.2370  203.2410  147.1580 C   0  0  0  0  0  0  0  0  0  0  0  0
  161.2460  206.0070  147.6630 C   0  0  0  0  0  0  0  0  0  0  0  0
  161.6320  200.8310  147.8750 C   0  0  0  0  0  2  0  0  0  0  0  0
  161.0600  199.7610  145.7530 C   0  0  0  0  0  2  0  0  0  0  0  0
  160.7890  201.2500  145.6370 C   0  0  0  0  0  2  0  0  0  0  0  0
  161.3480  199.4880  147.2270 C   0  0  0  0  0  2  0  0  0  0  0  0
  161.2240  201.8270  146.8980 N   0  0  0  0  0  0  0  0  0  0  0  0
  1  6  1  0  0  0  0
  2  1  1  0  0  0  0
  3  6  1  0  0  0  0
  3 10  1  1  0  0  0
  4  7  2  0  0  0  0
  5  4  2  0  0  0  0
  5  2  1  0  0  0  0
  7  3  1  0  0  0  0
  8 11  1  0  0  0  0
  9 10  2  0  0  0  0
 10  8  1  0  0  0  0
 12 11  1  1  0  0  0
 12 16  1  0  0  0  0
 12 20  1  0  0  0  0
 13 16  1  0  0  0  0
 13 18  1  0  0  0  0
 14 17  1  0  0  0  0
 14 18  1  0  0  0  0
 15 17  1  0  0  0  0
 15 16  1  0  0  0  0
 19 20  2  0  0  0  0
 19 21  1  0  0  0  0
 21 22  2  0  0  0  0
 21 23  1  0  0  0  0
 24  7  1  0  0  0  0
 25 26  1  0  0  0  0
 25 27  1  0  0  0  0
 25 30  1  1  0  0  0
 26 28  1  6  0  0  0
 26 27  1  0  0  0  0
 27 24  1  1  0  0  0
 29 30  1  0  0  0  0
 29 31  2  0  0  0  0
 32 33  2  0  0  0  0
 33 29  1  0  0  0  0
 34 33  1  0  0  0  0
 35 34  1  0  0  0  0
 36  5  1  0  0  0  0
 37 40  2  0  0  0  0
 37 41  1  0  0  0  0
 39 38  1  0  0  0  0
 40 42  1  0  0  0  0
 41 39  2  0  0  0  0
 42 36  1  0  0  0  0
 42 38  2  0  0  0  0
 44 46  1  0  0  0  0
 45 44  1  0  0  0  0
 45 47  1  0  0  0  0
 46 43  1  0  0  0  0
 47 41  1  0  0  0  0
 47 43  1  0  0  0  0
M  END
>  <MODEL>
1

>  <REMARK>
 VINA RESULT:      -7.1      0.000      0.000
  Name = 
  14 active torsions:
  status: ('A' for Active; 'I' for Inactive)
    1  A    between atoms: C_1  and  N_5
    2  A    between atoms: C_2  and  C_43
    3  A    between atoms: C_3  and  N_12
    4  A    between atoms: C_3  and  C_18
    5  A    between atoms: C_4  and  N_9
    6  A    between atoms: C_7  and  C_31
    7  A    between atoms: C_18  and  N_26
    8  A    between atoms: C_18  and  C_34
    9  A    between atoms: C_19  and  C_20
   10  A    between atoms: C_22  and  C_43
   11  A    between atoms: C_30  and  C_42
   12  A    between atoms: C_31  and  C_46
   13  A    between atoms: N_41  and  C_45
   14  A    between atoms: C_42  and  C_47
                            x       y       z     vdW  Elec       q    Type
                         _______ _______ _______ _____ _____    ______ ____

>  <TORSDO>
F 14

$$$$
=
 OpenBabel11042421553D

 47 51  0  0  1  0  0  0  0  0999 V2000
  158.8290  213.0590  150.5980 C   0  0  0  0  0  2  0  0  0  0  0  0
  159.8610  213.7080  149.6440 C   0  0  0  0  0  2  0  0  0  0  0  0
  160.1090  211.4410  152.2150 C   0  0  1  0  0  3  0  0  0  0  0  0
  161.2750  211.8750  150.1650 C   0  0  0  0  0  0  0  0  0  0  0  0
  161.0210  212.8040  149.2970 C   0  0  0  0  0  0  0  0  0  0  0  0
  159.4080  212.8170  152.0100 C   0  0  0  0  0  2  0  0  0  0  0  0
  161.1770  211.0910  151.1960 C   0  0  0  0  0  0  0  0  0  0  0  0
  159.8760  211.9280  154.6790 N   0  0  0  0  0  2  0  0  0  0  0  0
  161.8320  210.9950  153.8070 O   0  0  0  0  0  0  0  0  0  0  0  0
  160.6540  211.4030  153.6030 C   0  0  0  0  0  0  0  0  0  0  0  0
  160.4670  212.1980  155.9810 C   0  0  0  0  0  2  0  0  0  0  0  0
  159.7290  211.4460  157.1020 C   0  0  2  0  0  3  0  0  0  0  0  0
  161.6770  210.0700  157.0510 C   0  0  0  0  0  2  0  0  0  0  0  0
  161.6280  207.9000  156.0180 O   0  0  0  0  0  0  0  0  0  0  0  0
  159.6270  209.2220  156.2120 C   0  0  0  0  0  2  0  0  0  0  0  0
  160.2200  210.0660  157.2600 N   0  0  0  0  0  0  0  0  0  0  0  0
  160.2450  207.8220  156.2730 C   0  0  0  0  0  2  0  0  0  0  0  0
  162.2040  208.6330  157.0730 C   0  0  0  0  0  2  0  0  0  0  0  0
  157.6290  212.5390  156.5000 N   0  0  0  0  0  0  0  0  0  0  0  0
  158.2460  211.4550  156.8500 C   0  0  0  0  0  3  0  0  0  0  0  0
  156.2200  212.5630  156.2580 C   0  0  0  0  0  0  0  0  0  0  0  0
  155.4320  211.8560  156.9440 O   0  0  0  0  0  0  0  0  0  0  0  0
  155.6730  213.4340  155.1830 C   0  0  0  0  0  1  0  0  0  0  0  0
  161.8550  209.7570  151.2220 C   0  0  0  0  0  2  0  0  0  0  0  0
  160.6960  207.5020  150.7940 C   0  0  1  0  0  3  0  0  0  0  0  0
  161.6560  207.3780  151.9610 C   0  0  1  0  0  3  0  0  0  0  0  0
  160.9050  208.6780  151.7510 C   0  0  1  0  0  3  0  0  0  0  0  0
  161.0380  206.6520  152.9790 O   0  0  0  0  0  1  0  0  0  0  0  0
  161.8490  206.5350  148.6970 C   0  0  0  0  0  0  0  0  0  0  0  0
  161.4640  207.6210  149.5580 N   0  0  0  0  0  2  0  0  0  0  0  0
  162.6930  206.7760  147.7890 O   0  0  0  0  0  0  0  0  0  0  0  0
  161.2480  204.3230  147.7840 C   0  0  0  0  0  2  0  0  0  0  0  0
  161.3040  205.1580  148.8150 C   0  0  0  0  0  0  0  0  0  0  0  0
  160.9450  204.6170  150.1570 C   0  0  0  0  0  2  0  0  0  0  0  0
  160.6760  203.1230  150.0760 C   0  0  0  0  0  1  0  0  0  0  0  0
  162.0840  213.2440  148.3450 C   0  0  0  0  0  2  0  0  0  0  0  0
  162.1600  213.2170  144.5590 C   0  0  0  0  0  3  0  0  0  0  0  0
  160.4070  212.5180  146.6190 C   0  0  0  0  0  3  0  0  0  0  0  0
  160.0210  212.3470  145.2880 C   0  0  0  0  0  3  0  0  0  0  0  0
  162.5430  213.3900  145.8910 C   0  0  0  0  0  3  0  0  0  0  0  0
  160.8960  212.6890  144.2440 C   0  0  0  0  0  0  0  0  0  0  0  0
  161.6710  213.0390  146.9240 C   0  0  0  0  0  0  0  0  0  0  0  0
  161.3250  211.8590  141.8760 C   0  0  0  0  0  2  0  0  0  0  0  0
  159.2730  212.7070  140.8560 C   0  0  0  0  0  2  0  0  0  0  0  0
  159.2200  212.9720  142.3490 C   0  0  0  0  0  2  0  0  0  0  0  0
  160.4750  211.7960  140.6200 C   0  0  0  0  0  2  0  0  0  0  0  0
  160.4970  212.5180  142.8730 N   0  0  0  0  0  0  0  0  0  0  0  0
  1  6  1  0  0  0  0
  2  1  1  0  0  0  0
  3 10  1  1  0  0  0
  4  7  2  0  0  0  0
  5  2  1  0  0  0  0
  5  4  2  0  0  0  0
  6  3  1  0  0  0  0
  7 24  1  0  0  0  0
  7  3  1  0  0  0  0
  8 11  1  0  0  0  0
 10  9  2  0  0  0  0
 10  8  1  0  0  0  0
 12 11  1  6  0  0  0
 12 16  1  0  0  0  0
 13 18  1  0  0  0  0
 13 16  1  0  0  0  0
 14 17  1  0  0  0  0
 14 18  1  0  0  0  0
 15 17  1  0  0  0  0
 15 16  1  0  0  0  0
 19 20  2  0  0  0  0
 20 12  1  0  0  0  0
 21 19  1  0  0  0  0
 21 22  2  0  0  0  0
 23 21  1  0  0  0  0
 25 30  1  6  0  0  0
 25 27  1  0  0  0  0
 25 26  1  0  0  0  0
 26 28  1  1  0  0  0
 27 24  1  6  0  0  0
 27 26  1  0  0  0  0
 29 33  1  0  0  0  0
 29 30  1  0  0  0  0
 31 29  2  0  0  0  0
 32 33  2  0  0  0  0
 33 34  1  0  0  0  0
 35 34  1  0  0  0  0
 36  5  1  0  0  0  0
 37 40  1  0  0  0  0
 38 42  1  0  0  0  0
 39 38  2  0  0  0  0
 40 42  2  0  0  0  0
 41 37  2  0  0  0  0
 41 39  1  0  0  0  0
 42 36  1  0  0  0  0
 43 47  1  0  0  0  0
 44 45  1  0  0  0  0
 45 47  1  0  0  0  0
 46 44  1  0  0  0  0
 46 43  1  0  0  0  0
 47 41  1  0  0  0  0
M  END
>  <MODEL>
2

>  <REMARK>
 VINA RESULT:      -6.8      2.593      7.549
  Name = 
  14 active torsions:
  status: ('A' for Active; 'I' for Inactive)
    1  A    between atoms: C_1  and  N_5
    2  A    between atoms: C_2  and  C_43
    3  A    between atoms: C_3  and  N_12
    4  A    between atoms: C_3  and  C_18
    5  A    between atoms: C_4  and  N_9
    6  A    between atoms: C_7  and  C_31
    7  A    between atoms: C_18  and  N_26
    8  A    between atoms: C_18  and  C_34
    9  A    between atoms: C_19  and  C_20
   10  A    between atoms: C_22  and  C_43
   11  A    between atoms: C_30  and  C_42
   12  A    between atoms: C_31  and  C_46
   13  A    between atoms: N_41  and  C_45
   14  A    between atoms: C_42  and  C_47
                            x       y       z     vdW  Elec       q    Type
                         _______ _______ _______ _____ _____    ______ ____

>  <TORSDO>
F 14

$$$$
=
 OpenBabel11042421553D

 47 51  0  0  1  0  0  0  0  0999 V2000
  162.5370  208.1700  151.7750 C   0  0  0  0  0  2  0  0  0  0  0  0
  162.1340  207.5480  150.4150 C   0  0  0  0  0  2  0  0  0  0  0  0
  161.4410  210.5440  151.9520 C   0  0  1  0  0  3  0  0  0  0  0  0
  161.7000  209.7680  149.6980 C   0  0  0  0  0  0  0  0  0  0  0  0
  161.9740  208.5630  149.3060 C   0  0  0  0  0  0  0  0  0  0  0  0
  161.4150  209.0440  152.3750 C   0  0  0  0  0  2  0  0  0  0  0  0
  161.4980  210.8010  150.4580 C   0  0  0  0  0  0  0  0  0  0  0  0
  160.4710  212.2030  153.5860 N   0  0  0  0  0  2  0  0  0  0  0  0
  159.0940  210.8530  152.2670 O   0  0  0  0  0  0  0  0  0  0  0  0
  160.2640  211.2190  152.5720 C   0  0  0  0  0  0  0  0  0  0  0  0
  159.3790  212.6630  154.4300 C   0  0  0  0  0  2  0  0  0  0  0  0
  159.3270  211.8870  155.7580 C   0  0  2  0  0  3  0  0  0  0  0  0
  159.2020  209.5430  156.1790 C   0  0  0  0  0  2  0  0  0  0  0  0
  161.0510  208.3680  157.1690 O   0  0  0  0  0  0  0  0  0  0  0  0
  161.2320  210.6970  156.5960 C   0  0  0  0  0  2  0  0  0  0  0  0
  160.0770  210.6210  155.6900 N   0  0  0  0  0  0  0  0  0  0  0  0
  161.9320  209.3350  156.6480 C   0  0  0  0  0  2  0  0  0  0  0  0
  159.9920  208.2330  156.2520 C   0  0  0  0  0  2  0  0  0  0  0  0
  157.0760  212.6140  156.3730 N   0  0  0  0  0  0  0  0  0  0  0  0
  157.9000  211.6360  156.1610 C   0  0  0  0  0  3  0  0  0  0  0  0
  155.7180  212.3900  156.7570 C   0  0  0  0  0  0  0  0  0  0  0  0
  155.3020  211.2290  157.0220 O   0  0  0  0  0  0  0  0  0  0  0  0
  154.7800  213.5410  156.8470 C   0  0  0  0  0  1  0  0  0  0  0  0
  161.6280  212.1940  149.9240 C   0  0  0  0  0  2  0  0  0  0  0  0
  160.7270  212.7510  147.5810 C   0  0  1  0  0  3  0  0  0  0  0  0
  161.9570  213.5880  147.8750 C   0  0  1  0  0  3  0  0  0  0  0  0
  161.8750  212.1720  148.4120 C   0  0  1  0  0  3  0  0  0  0  0  0
  162.7740  213.6020  146.7460 O   0  0  0  0  0  1  0  0  0  0  0  0
  158.3290  213.6510  147.9000 C   0  0  0  0  0  0  0  0  0  0  0  0
  159.6160  213.2380  148.3930 N   0  0  0  0  0  2  0  0  0  0  0  0
  157.5580  214.2500  148.7010 O   0  0  0  0  0  0  0  0  0  0  0  0
  157.1400  212.3440  146.1770 C   0  0  0  0  0  2  0  0  0  0  0  0
  157.8630  213.4070  146.5100 C   0  0  0  0  0  0  0  0  0  0  0  0
  158.0670  214.4530  145.4670 C   0  0  0  0  0  2  0  0  0  0  0  0
  159.4240  214.2860  144.8030 C   0  0  0  0  0  1  0  0  0  0  0  0
  161.6420  208.1380  147.9140 C   0  0  0  0  0  2  0  0  0  0  0  0
  162.1490  204.6130  146.6270 C   0  0  0  0  0  3  0  0  0  0  0  0
  160.8020  205.9050  148.7070 C   0  0  0  0  0  3  0  0  0  0  0  0
  160.7180  204.5180  148.5780 C   0  0  0  0  0  3  0  0  0  0  0  0
  162.2300  206.0020  146.7550 C   0  0  0  0  0  3  0  0  0  0  0  0
  161.3950  203.8560  147.5400 C   0  0  0  0  0  0  0  0  0  0  0  0
  161.5610  206.6510  147.7960 C   0  0  0  0  0  0  0  0  0  0  0  0
  161.5800  201.5030  148.4910 C   0  0  0  0  0  2  0  0  0  0  0  0
  161.0730  200.2790  146.4380 C   0  0  0  0  0  2  0  0  0  0  0  0
  160.9110  201.7650  146.1730 C   0  0  0  0  0  2  0  0  0  0  0  0
  161.2470  200.1260  147.9470 C   0  0  0  0  0  2  0  0  0  0  0  0
  161.3040  202.4280  147.4050 N   0  0  0  0  0  0  0  0  0  0  0  0
  1  6  1  0  0  0  0
  2  1  1  0  0  0  0
  3  6  1  0  0  0  0
  3 10  1  6  0  0  0
  4  7  2  0  0  0  0
  5  4  2  0  0  0  0
  5  2  1  0  0  0  0
  7  3  1  0  0  0  0
  8 11  1  0  0  0  0
  9 10  2  0  0  0  0
 10  8  1  0  0  0  0
 12 11  1  6  0  0  0
 12 20  1  0  0  0  0
 13 18  1  0  0  0  0
 15 17  1  0  0  0  0
 16 12  1  0  0  0  0
 16 13  1  0  0  0  0
 16 15  1  0  0  0  0
 17 14  1  0  0  0  0
 18 14  1  0  0  0  0
 19 21  1  0  0  0  0
 20 19  2  0  0  0  0
 21 23  1  0  0  0  0
 21 22  2  0  0  0  0
 24  7  1  0  0  0  0
 25 26  1  0  0  0  0
 25 30  1  1  0  0  0
 25 27  1  0  0  0  0
 26 28  1  6  0  0  0
 26 27  1  0  0  0  0
 27 24  1  1  0  0  0
 29 30  1  0  0  0  0
 29 31  2  0  0  0  0
 32 33  2  0  0  0  0
 33 29  1  0  0  0  0
 34 33  1  0  0  0  0
 35 34  1  0  0  0  0
 36  5  1  0  0  0  0
 37 40  2  0  0  0  0
 37 41  1  0  0  0  0
 39 38  1  0  0  0  0
 40 42  1  0  0  0  0
 41 39  2  0  0  0  0
 42 36  1  0  0  0  0
 42 38  2  0  0  0  0
 44 46  1  0  0  0  0
 45 44  1  0  0  0  0
 45 47  1  0  0  0  0
 46 43  1  0  0  0  0
 47 41  1  0  0  0  0
 47 43  1  0  0  0  0
M  END
>  <MODEL>
3

>  <REMARK>
 VINA RESULT:      -6.5      1.030      2.926
  Name = 
  14 active torsions:
  status: ('A' for Active; 'I' for Inactive)
    1  A    between atoms: C_1  and  N_5
    2  A    between atoms: C_2  and  C_43
    3  A    between atoms: C_3  and  N_12
    4  A    between atoms: C_3  and  C_18
    5  A    between atoms: C_4  and  N_9
    6  A    between atoms: C_7  and  C_31
    7  A    between atoms: C_18  and  N_26
    8  A    between atoms: C_18  and  C_34
    9  A    between atoms: C_19  and  C_20
   10  A    between atoms: C_22  and  C_43
   11  A    between atoms: C_30  and  C_42
   12  A    between atoms: C_31  and  C_46
   13  A    between atoms: N_41  and  C_45
   14  A    between atoms: C_42  and  C_47
                            x       y       z     vdW  Elec       q    Type
                         _______ _______ _______ _____ _____    ______ ____

>  <TORSDO>
F 14

$$$$
=
 OpenBabel11042421553D

 47 51  0  0  1  0  0  0  0  0999 V2000
  163.2120  212.3310  147.9360 C   0  0  0  0  0  2  0  0  0  0  0  0
  162.1040  212.6240  146.8930 C   0  0  0  0  0  2  0  0  0  0  0  0
  162.0590  211.6230  150.1810 C   0  0  1  0  0  3  0  0  0  0  0  0
  160.6490  212.9240  148.7430 C   0  0  0  0  0  0  0  0  0  0  0  0
  160.8440  213.2030  147.4920 C   0  0  0  0  0  0  0  0  0  0  0  0
  162.8230  211.1850  148.8960 C   0  0  0  0  0  2  0  0  0  0  0  0
  160.8350  212.4880  149.9520 C   0  0  0  0  0  0  0  0  0  0  0  0
  161.6530  209.1360  150.2850 N   0  0  0  0  0  2  0  0  0  0  0  0
  161.3920  210.4870  152.1730 O   0  0  0  0  0  0  0  0  0  0  0  0
  161.7160  210.3940  150.9560 C   0  0  0  0  0  0  0  0  0  0  0  0
  161.0330  207.9760  150.9070 C   0  0  0  0  0  2  0  0  0  0  0  0
  162.0780  207.0710  151.5830 C   0  0  2  0  0  3  0  0  0  0  0  0
  161.1980  205.6840  149.8540 C   0  0  0  0  0  2  0  0  0  0  0  0
  160.3650  203.4820  150.3430 O   0  0  0  0  0  0  0  0  0  0  0  0
  161.4000  204.8200  152.0540 C   0  0  0  0  0  2  0  0  0  0  0  0
  162.0410  205.6940  151.0610 N   0  0  0  0  0  0  0  0  0  0  0  0
  161.2190  203.4190  151.4610 C   0  0  0  0  0  2  0  0  0  0  0  0
  161.0230  204.2450  149.3600 C   0  0  0  0  0  2  0  0  0  0  0  0
  160.8650  207.6550  153.6220 N   0  0  0  0  0  0  0  0  0  0  0  0
  161.8870  207.0770  153.0750 C   0  0  0  0  0  3  0  0  0  0  0  0
  160.6710  207.6690  155.0380 C   0  0  0  0  0  0  0  0  0  0  0  0
  159.7210  207.0300  155.5690 O   0  0  0  0  0  0  0  0  0  0  0  0
  161.6010  208.4450  155.9000 C   0  0  0  0  0  1  0  0  0  0  0  0
  160.0710  213.0580  151.1070 C   0  0  0  0  0  2  0  0  0  0  0  0
  157.7080  213.6390  151.9380 C   0  0  1  0  0  3  0  0  0  0  0  0
  158.0350  214.4500  150.6990 C   0  0  1  0  0  3  0  0  0  0  0  0
  158.5660  213.0350  150.8240 C   0  0  1  0  0  3  0  0  0  0  0  0
  156.9260  214.4500  149.8540 O   0  0  0  0  0  1  0  0  0  0  0  0
  158.6170  213.5260  154.3510 C   0  0  0  0  0  0  0  0  0  0  0  0
  158.4940  214.1460  153.0590 N   0  0  0  0  0  2  0  0  0  0  0  0
  159.1520  214.1970  155.2770 O   0  0  0  0  0  0  0  0  0  0  0  0
  158.9770  211.1000  154.6310 C   0  0  0  0  0  2  0  0  0  0  0  0
  158.1560  212.1440  154.6480 C   0  0  0  0  0  0  0  0  0  0  0  0
  156.7650  211.9170  155.1350 C   0  0  0  0  0  2  0  0  0  0  0  0
  156.0480  213.2410  155.3380 C   0  0  0  0  0  1  0  0  0  0  0  0
  159.6910  213.5990  146.6290 C   0  0  0  0  0  2  0  0  0  0  0  0
  159.8370  212.3770  143.0480 C   0  0  0  0  0  3  0  0  0  0  0  0
  160.8960  214.4500  144.5930 C   0  0  0  0  0  3  0  0  0  0  0  0
  161.2260  214.3520  143.2400 C   0  0  0  0  0  3  0  0  0  0  0  0
  159.5090  212.4760  144.4020 C   0  0  0  0  0  3  0  0  0  0  0  0
  160.6950  213.3170  142.4520 C   0  0  0  0  0  0  0  0  0  0  0  0
  160.0340  213.5130  145.1780 C   0  0  0  0  0  0  0  0  0  0  0  0
  160.8820  214.3040  140.1130 C   0  0  0  0  0  2  0  0  0  0  0  0
  161.6800  212.2960  138.9730 C   0  0  0  0  0  2  0  0  0  0  0  0
  161.5920  212.0100  140.4610 C   0  0  0  0  0  2  0  0  0  0  0  0
  161.4710  213.7990  138.8090 C   0  0  0  0  0  2  0  0  0  0  0  0
  161.0390  213.2120  141.0600 N   0  0  0  0  0  0  0  0  0  0  0  0
  1  6  1  0  0  0  0
  2  5  1  0  0  0  0
  2  1  1  0  0  0  0
  3 10  1  6  0  0  0
  4  7  2  0  0  0  0
  5  4  2  0  0  0  0
  6  3  1  0  0  0  0
  7  3  1  0  0  0  0
  7 24  1  0  0  0  0
  8 11  1  0  0  0  0
  8 10  1  0  0  0  0
 10  9  2  0  0  0  0
 12 11  1  6  0  0  0
 12 20  1  0  0  0  0
 13 16  1  0  0  0  0
 14 17  1  0  0  0  0
 16 12  1  0  0  0  0
 16 15  1  0  0  0  0
 17 15  1  0  0  0  0
 18 13  1  0  0  0  0
 18 14  1  0  0  0  0
 19 21  1  0  0  0  0
 20 19  2  0  0  0  0
 21 22  2  0  0  0  0
 21 23  1  0  0  0  0
 25 30  1  1  0  0  0
 26 28  1  6  0  0  0
 26 27  1  0  0  0  0
 26 25  1  0  0  0  0
 27 24  1  1  0  0  0
 27 25  1  0  0  0  0
 29 33  1  0  0  0  0
 29 31  2  0  0  0  0
 30 29  1  0  0  0  0
 32 33  2  0  0  0  0
 33 34  1  0  0  0  0
 34 35  1  0  0  0  0
 36  5  1  0  0  0  0
 37 40  1  0  0  0  0
 38 42  1  0  0  0  0
 39 38  2  0  0  0  0
 40 42  2  0  0  0  0
 41 37  2  0  0  0  0
 41 39  1  0  0  0  0
 42 36  1  0  0  0  0
 43 47  1  0  0  0  0
 44 45  1  0  0  0  0
 45 47  1  0  0  0  0
 46 44  1  0  0  0  0
 46 43  1  0  0  0  0
 47 41  1  0  0  0  0
M  END
>  <MODEL>
4

>  <REMARK>
 VINA RESULT:      -6.2      3.150      8.226
  Name = 
  14 active torsions:
  status: ('A' for Active; 'I' for Inactive)
    1  A    between atoms: C_1  and  N_5
    2  A    between atoms: C_2  and  C_43
    3  A    between atoms: C_3  and  N_12
    4  A    between atoms: C_3  and  C_18
    5  A    between atoms: C_4  and  N_9
    6  A    between atoms: C_7  and  C_31
    7  A    between atoms: C_18  and  N_26
    8  A    between atoms: C_18  and  C_34
    9  A    between atoms: C_19  and  C_20
   10  A    between atoms: C_22  and  C_43
   11  A    between atoms: C_30  and  C_42
   12  A    between atoms: C_31  and  C_46
   13  A    between atoms: N_41  and  C_45
   14  A    between atoms: C_42  and  C_47
                            x       y       z     vdW  Elec       q    Type
                         _______ _______ _______ _____ _____    ______ ____

>  <TORSDO>
F 14

$$$$
=
 OpenBabel11042421553D

 47 51  0  0  1  0  0  0  0  0999 V2000
  159.7720  213.0460  150.3120 C   0  0  0  0  0  2  0  0  0  0  0  0
  160.8050  213.7850  149.4250 C   0  0  0  0  0  2  0  0  0  0  0  0
  160.8460  210.7960  151.1230 C   0  0  1  0  0  3  0  0  0  0  0  0
  161.8360  211.6700  149.1210 C   0  0  0  0  0  0  0  0  0  0  0  0
  161.6930  212.8600  148.6260 C   0  0  0  0  0  0  0  0  0  0  0  0
  160.4420  212.2630  151.4620 C   0  0  0  0  0  2  0  0  0  0  0  0
  161.6890  210.6220  149.8730 C   0  0  0  0  0  0  0  0  0  0  0  0
  160.7410  209.6460  153.3650 N   0  0  0  0  0  2  0  0  0  0  0  0
  162.7790  210.3160  152.4400 O   0  0  0  0  0  0  0  0  0  0  0  0
  161.5260  210.2160  152.3180 C   0  0  0  0  0  0  0  0  0  0  0  0
  161.3160  209.3510  154.6680 C   0  0  0  0  0  2  0  0  0  0  0  0
  161.0180  210.4680  155.6830 C   0  0  2  0  0  3  0  0  0  0  0  0
  160.0480  212.6090  156.0930 C   0  0  0  0  0  2  0  0  0  0  0  0
  157.7580  213.0570  155.5150 O   0  0  0  0  0  0  0  0  0  0  0  0
  158.7850  210.9540  154.9570 C   0  0  0  0  0  2  0  0  0  0  0  0
  160.1360  211.5070  155.1210 N   0  0  0  0  0  0  0  0  0  0  0  0
  157.8270  212.0650  154.5170 C   0  0  0  0  0  2  0  0  0  0  0  0
  159.0330  213.6460  155.6040 C   0  0  0  0  0  2  0  0  0  0  0  0
  163.4230  210.8830  155.5650 N   0  0  0  0  0  0  0  0  0  0  0  0
  162.3000  211.0760  156.1820 C   0  0  0  0  0  3  0  0  0  0  0  0
  164.6490  211.4530  156.0290 C   0  0  0  0  0  0  0  0  0  0  0  0
  164.8420  211.6650  157.2570 O   0  0  0  0  0  0  0  0  0  0  0  0
  165.7140  211.8020  155.0510 C   0  0  0  0  0  1  0  0  0  0  0  0
  162.0590  209.2570  149.3820 C   0  0  0  0  0  2  0  0  0  0  0  0
  161.0780  206.8800  149.3380 C   0  0  1  0  0  3  0  0  0  0  0  0
  162.1440  206.9810  150.4120 C   0  0  1  0  0  3  0  0  0  0  0  0
  161.2620  208.1810  150.1250 C   0  0  1  0  0  3  0  0  0  0  0  0
  161.6870  206.3420  151.5630 O   0  0  0  0  0  1  0  0  0  0  0  0
  161.9710  205.7620  147.1900 C   0  0  0  0  0  0  0  0  0  0  0  0
  161.7200  206.9050  148.0280 N   0  0  0  0  0  2  0  0  0  0  0  0
  162.7270  205.9200  146.1910 O   0  0  0  0  0  0  0  0  0  0  0  0
  161.3080  203.4910  146.4860 C   0  0  0  0  0  2  0  0  0  0  0  0
  161.3860  204.4180  147.4350 C   0  0  0  0  0  0  0  0  0  0  0  0
  161.0080  204.0160  148.8200 C   0  0  0  0  0  2  0  0  0  0  0  0
  161.0970  202.5080  148.9810 C   0  0  0  0  0  1  0  0  0  0  0  0
  162.7100  213.3980  147.6740 C   0  0  0  0  0  2  0  0  0  0  0  0
  162.8760  213.1180  143.9010 C   0  0  0  0  0  3  0  0  0  0  0  0
  160.9690  212.8940  145.9320 C   0  0  0  0  0  3  0  0  0  0  0  0
  160.5930  212.7150  144.5990 C   0  0  0  0  0  3  0  0  0  0  0  0
  163.2510  213.3000  145.2350 C   0  0  0  0  0  3  0  0  0  0  0  0
  161.5430  212.8190  143.5710 C   0  0  0  0  0  0  0  0  0  0  0  0
  162.3010  213.1850  146.2530 C   0  0  0  0  0  0  0  0  0  0  0  0
  161.4080  213.6250  141.1600 C   0  0  0  0  0  2  0  0  0  0  0  0
  160.1490  211.7370  140.2540 C   0  0  0  0  0  2  0  0  0  0  0  0
  160.4810  211.4500  141.7060 C   0  0  0  0  0  2  0  0  0  0  0  0
  160.9460  212.9800  139.8660 C   0  0  0  0  0  2  0  0  0  0  0  0
  161.1540  212.6400  142.1980 N   0  0  0  0  0  0  0  0  0  0  0  0
  1  6  1  0  0  0  0
  2  1  1  0  0  0  0
  3  6  1  0  0  0  0
  3 10  1  1  0  0  0
  4  7  2  0  0  0  0
  5  4  2  0  0  0  0
  5  2  1  0  0  0  0
  7  3  1  0  0  0  0
  8 11  1  0  0  0  0
 10  9  2  0  0  0  0
 10  8  1  0  0  0  0
 12 11  1  6  0  0  0
 12 20  1  0  0  0  0
 14 18  1  0  0  0  0
 15 16  1  0  0  0  0
 16 12  1  0  0  0  0
 16 13  1  0  0  0  0
 17 15  1  0  0  0  0
 17 14  1  0  0  0  0
 18 13  1  0  0  0  0
 19 21  1  0  0  0  0
 19 20  2  0  0  0  0
 21 22  2  0  0  0  0
 23 21  1  0  0  0  0
 24  7  1  0  0  0  0
 25 30  1  6  0  0  0
 25 27  1  0  0  0  0
 25 26  1  0  0  0  0
 26 28  1  1  0  0  0
 27 24  1  6  0  0  0
 27 26  1  0  0  0  0
 29 33  1  0  0  0  0
 29 30  1  0  0  0  0
 31 29  2  0  0  0  0
 32 33  2  0  0  0  0
 33 34  1  0  0  0  0
 34 35  1  0  0  0  0
 36  5  1  0  0  0  0
 37 40  1  0  0  0  0
 38 42  1  0  0  0  0
 39 38  2  0  0  0  0
 40 42  2  0  0  0  0
 41 37  2  0  0  0  0
 41 39  1  0  0  0  0
 42 36  1  0  0  0  0
 43 47  1  0  0  0  0
 44 45  1  0  0  0  0
 45 47  1  0  0  0  0
 46 44  1  0  0  0  0
 46 43  1  0  0  0  0
 47 41  1  0  0  0  0
M  END
>  <MODEL>
5

>  <REMARK>
 VINA RESULT:      -6.0      2.989      7.383
  Name = 
  14 active torsions:
  status: ('A' for Active; 'I' for Inactive)
    1  A    between atoms: C_1  and  N_5
    2  A    between atoms: C_2  and  C_43
    3  A    between atoms: C_3  and  N_12
    4  A    between atoms: C_3  and  C_18
    5  A    between atoms: C_4  and  N_9
    6  A    between atoms: C_7  and  C_31
    7  A    between atoms: C_18  and  N_26
    8  A    between atoms: C_18  and  C_34
    9  A    between atoms: C_19  and  C_20
   10  A    between atoms: C_22  and  C_43
   11  A    between atoms: C_30  and  C_42
   12  A    between atoms: C_31  and  C_46
   13  A    between atoms: N_41  and  C_45
   14  A    between atoms: C_42  and  C_47
                            x       y       z     vdW  Elec       q    Type
                         _______ _______ _______ _____ _____    ______ ____

>  <TORSDO>
F 14

$$$$
=
 OpenBabel11042421553D

 47 51  0  0  1  0  0  0  0  0999 V2000
  161.7300  208.3740  155.3370 C   0  0  0  0  0  2  0  0  0  0  0  0
  161.1180  206.9840  155.0340 C   0  0  0  0  0  2  0  0  0  0  0  0
  161.5610  209.8370  153.1690 C   0  0  1  0  0  3  0  0  0  0  0  0
  161.5040  207.4780  152.7450 C   0  0  0  0  0  0  0  0  0  0  0  0
  161.3240  206.5270  153.6080 C   0  0  0  0  0  0  0  0  0  0  0  0
  161.0020  209.5110  154.5870 C   0  0  0  0  0  2  0  0  0  0  0  0
  161.6930  208.6540  152.2290 C   0  0  0  0  0  0  0  0  0  0  0  0
  159.3540  211.0460  152.9960 N   0  0  0  0  0  2  0  0  0  0  0  0
  161.1620  211.6230  151.6350 O   0  0  0  0  0  0  0  0  0  0  0  0
  160.7100  210.9080  152.5730 C   0  0  0  0  0  0  0  0  0  0  0  0
  158.4030  211.8510  152.2450 C   0  0  0  0  0  2  0  0  0  0  0  0
  158.0030  213.1200  153.0190 C   0  0  2  0  0  3  0  0  0  0  0  0
  156.3500  213.1440  154.7390 C   0  0  0  0  0  2  0  0  0  0  0  0
  156.8790  213.9310  156.9470 O   0  0  0  0  0  0  0  0  0  0  0  0
  158.5820  213.7550  155.2570 C   0  0  0  0  0  2  0  0  0  0  0  0
  157.7610  212.8450  154.4460 N   0  0  0  0  0  0  0  0  0  0  0  0
  158.2280  213.5830  156.7370 C   0  0  0  0  0  2  0  0  0  0  0  0
  156.0940  213.0000  156.2420 C   0  0  0  0  0  2  0  0  0  0  0  0
  156.5020  213.5630  151.1430 N   0  0  0  0  0  0  0  0  0  0  0  0
  156.7930  213.7550  152.3910 C   0  0  0  0  0  3  0  0  0  0  0  0
  155.3560  214.1610  150.5320 C   0  0  0  0  0  0  0  0  0  0  0  0
  154.3360  214.4530  151.2140 O   0  0  0  0  0  0  0  0  0  0  0  0
  155.3650  214.4460  149.0720 C   0  0  0  0  0  1  0  0  0  0  0  0
  162.3100  208.8160  150.8740 C   0  0  0  0  0  2  0  0  0  0  0  0
  161.2630  209.7690  148.7280 C   0  0  1  0  0  3  0  0  0  0  0  0
  161.9230  208.4360  148.4350 C   0  0  1  0  0  3  0  0  0  0  0  0
  161.2540  208.6540  149.7770 C   0  0  1  0  0  3  0  0  0  0  0  0
  161.0780  207.6840  147.6190 O   0  0  0  0  0  1  0  0  0  0  0  0
  162.3000  212.1160  148.4530 C   0  0  0  0  0  0  0  0  0  0  0  0
  162.2990  210.7700  148.9610 N   0  0  0  0  0  2  0  0  0  0  0  0
  163.3660  212.7840  148.5600 O   0  0  0  0  0  0  0  0  0  0  0  0
  160.1460  213.3190  148.5260 C   0  0  0  0  0  2  0  0  0  0  0  0
  161.1190  212.7570  147.8170 C   0  0  0  0  0  0  0  0  0  0  0  0
  161.0760  212.9270  146.3360 C   0  0  0  0  0  2  0  0  0  0  0  0
  159.6890  212.6070  145.8030 C   0  0  0  0  0  1  0  0  0  0  0  0
  160.8480  205.1870  153.1510 C   0  0  0  0  0  2  0  0  0  0  0  0
  160.4410  203.9650  149.5900 C   0  0  0  0  0  3  0  0  0  0  0  0
  162.1700  205.6020  151.0530 C   0  0  0  0  0  3  0  0  0  0  0  0
  162.3910  205.3970  149.6900 C   0  0  0  0  0  3  0  0  0  0  0  0
  160.2220  204.1690  150.9550 C   0  0  0  0  0  3  0  0  0  0  0  0
  161.5250  204.5810  148.9430 C   0  0  0  0  0  0  0  0  0  0  0  0
  161.0820  204.9890  151.6890 C   0  0  0  0  0  0  0  0  0  0  0  0
  162.5630  205.2520  146.7180 C   0  0  0  0  0  2  0  0  0  0  0  0
  161.5970  203.4690  145.3540 C   0  0  0  0  0  2  0  0  0  0  0  0
  161.2200  203.2320  146.8050 C   0  0  0  0  0  2  0  0  0  0  0  0
  162.6350  204.5880  145.3550 C   0  0  0  0  0  2  0  0  0  0  0  0
  161.7570  204.3660  147.5400 N   0  0  0  0  0  0  0  0  0  0  0  0
  2  1  1  0  0  0  0
  3 10  1  6  0  0  0
  3  6  1  0  0  0  0
  4  5  2  0  0  0  0
  5  2  1  0  0  0  0
  6  1  1  0  0  0  0
  7  4  2  0  0  0  0
  7  3  1  0  0  0  0
  9 10  2  0  0  0  0
 10  8  1  0  0  0  0
 11  8  1  0  0  0  0
 12 11  1  6  0  0  0
 12 16  1  0  0  0  0
 13 18  1  0  0  0  0
 15 17  1  0  0  0  0
 16 13  1  0  0  0  0
 16 15  1  0  0  0  0
 17 14  1  0  0  0  0
 18 14  1  0  0  0  0
 19 20  2  0  0  0  0
 20 12  1  0  0  0  0
 21 19  1  0  0  0  0
 21 22  2  0  0  0  0
 23 21  1  0  0  0  0
 24  7  1  0  0  0  0
 25 30  1  1  0  0  0
 25 27  1  0  0  0  0
 26 28  1  6  0  0  0
 26 25  1  0  0  0  0
 26 27  1  0  0  0  0
 27 24  1  1  0  0  0
 29 31  2  0  0  0  0
 29 30  1  0  0  0  0
 33 29  1  0  0  0  0
 33 32  2  0  0  0  0
 34 33  1  0  0  0  0
 35 34  1  0  0  0  0
 36  5  1  0  0  0  0
 37 40  1  0  0  0  0
 38 42  1  0  0  0  0
 39 38  2  0  0  0  0
 40 42  2  0  0  0  0
 41 37  2  0  0  0  0
 41 39  1  0  0  0  0
 42 36  1  0  0  0  0
 43 47  1  0  0  0  0
 44 46  1  0  0  0  0
 44 45  1  0  0  0  0
 45 47  1  0  0  0  0
 46 43  1  0  0  0  0
 47 41  1  0  0  0  0
M  END
>  <MODEL>
6

>  <REMARK>
 VINA RESULT:      -5.6      2.206      4.518
  Name = 
  14 active torsions:
  status: ('A' for Active; 'I' for Inactive)
    1  A    between atoms: C_1  and  N_5
    2  A    between atoms: C_2  and  C_43
    3  A    between atoms: C_3  and  N_12
    4  A    between atoms: C_3  and  C_18
    5  A    between atoms: C_4  and  N_9
    6  A    between atoms: C_7  and  C_31
    7  A    between atoms: C_18  and  N_26
    8  A    between atoms: C_18  and  C_34
    9  A    between atoms: C_19  and  C_20
   10  A    between atoms: C_22  and  C_43
   11  A    between atoms: C_30  and  C_42
   12  A    between atoms: C_31  and  C_46
   13  A    between atoms: N_41  and  C_45
   14  A    between atoms: C_42  and  C_47
                            x       y       z     vdW  Elec       q    Type
                         _______ _______ _______ _____ _____    ______ ____

>  <TORSDO>
F 14

$$$$
=
 OpenBabel11042421553D

 47 51  0  0  1  0  0  0  0  0999 V2000
  162.7280  207.9150  151.5340 C   0  0  0  0  0  2  0  0  0  0  0  0
  162.3080  207.2990  150.1760 C   0  0  0  0  0  2  0  0  0  0  0  0
  161.3810  210.1370  151.8800 C   0  0  1  0  0  3  0  0  0  0  0  0
  161.5760  209.4760  149.5830 C   0  0  0  0  0  0  0  0  0  0  0  0
  161.9600  208.3260  149.1240 C   0  0  0  0  0  0  0  0  0  0  0  0
  161.5560  208.6310  152.2400 C   0  0  0  0  0  2  0  0  0  0  0  0
  161.3080  210.4510  150.3970 C   0  0  0  0  0  0  0  0  0  0  0  0
  160.1100  212.0260  152.9660 N   0  0  0  0  0  2  0  0  0  0  0  0
  159.2730  209.8440  152.9640 O   0  0  0  0  0  0  0  0  0  0  0  0
  160.1780  210.6470  152.6000 C   0  0  0  0  0  0  0  0  0  0  0  0
  159.1250  212.5090  153.9210 C   0  0  0  0  0  2  0  0  0  0  0  0
  158.8180  214.0010  153.7100 C   0  0  2  0  0  3  0  0  0  0  0  0
  157.7500  214.1180  155.8400 C   0  0  0  0  0  2  0  0  0  0  0  0
  155.4200  213.5800  156.0830 O   0  0  0  0  0  0  0  0  0  0  0  0
  156.4600  213.6190  153.9140 C   0  0  0  0  0  2  0  0  0  0  0  0
  157.5890  214.4190  154.4080 N   0  0  0  0  0  0  0  0  0  0  0  0
  155.2080  213.9370  154.7370 C   0  0  0  0  0  2  0  0  0  0  0  0
  156.4410  214.4120  156.5780 C   0  0  0  0  0  2  0  0  0  0  0  0
  158.1090  213.5200  151.4220 N   0  0  0  0  0  0  0  0  0  0  0  0
  158.7240  214.3130  152.2420 C   0  0  0  0  0  3  0  0  0  0  0  0
  158.0130  213.8030  150.0250 C   0  0  0  0  0  0  0  0  0  0  0  0
  158.9360  214.4150  149.4210 O   0  0  0  0  0  0  0  0  0  0  0  0
  156.8080  213.3690  149.2680 C   0  0  0  0  0  1  0  0  0  0  0  0
  161.2410  211.8670  149.9160 C   0  0  0  0  0  2  0  0  0  0  0  0
  161.8280  212.2850  147.4470 C   0  0  1  0  0  3  0  0  0  0  0  0
  162.1540  213.5140  148.2720 C   0  0  1  0  0  3  0  0  0  0  0  0
  162.3390  212.1390  148.8830 C   0  0  1  0  0  3  0  0  0  0  0  0
  163.3950  214.0100  147.8740 O   0  0  0  0  0  1  0  0  0  0  0  0
  159.5880  212.4920  146.1820 C   0  0  0  0  0  0  0  0  0  0  0  0
  160.3780  212.1570  147.3370 N   0  0  0  0  0  2  0  0  0  0  0  0
  158.3330  212.5330  146.3200 O   0  0  0  0  0  0  0  0  0  0  0  0
  161.0130  213.7900  144.6390 C   0  0  0  0  0  2  0  0  0  0  0  0
  160.1670  212.7860  144.8450 C   0  0  0  0  0  0  0  0  0  0  0  0
  159.9300  211.8450  143.7130 C   0  0  0  0  0  2  0  0  0  0  0  0
  160.4820  212.4180  142.4180 C   0  0  0  0  0  1  0  0  0  0  0  0
  161.5860  207.9140  147.7380 C   0  0  0  0  0  2  0  0  0  0  0  0
  160.9410  204.2780  148.5790 C   0  0  0  0  0  3  0  0  0  0  0  0
  161.9050  205.7880  146.4340 C   0  0  0  0  0  3  0  0  0  0  0  0
  161.8330  204.3980  146.3300 C   0  0  0  0  0  3  0  0  0  0  0  0
  161.0160  205.6700  148.6820 C   0  0  0  0  0  3  0  0  0  0  0  0
  161.3440  203.6290  147.4000 C   0  0  0  0  0  0  0  0  0  0  0  0
  161.4940  206.4280  147.6110 C   0  0  0  0  0  0  0  0  0  0  0  0
  160.9980  201.4990  146.0500 C   0  0  0  0  0  2  0  0  0  0  0  0
  161.1980  199.9070  147.8930 C   0  0  0  0  0  2  0  0  0  0  0  0
  161.4900  201.3010  148.4180 C   0  0  0  0  0  2  0  0  0  0  0  0
  161.1380  200.0220  146.3720 C   0  0  0  0  0  2  0  0  0  0  0  0
  161.2750  202.1970  147.2950 N   0  0  0  0  0  0  0  0  0  0  0  0
  1  6  1  0  0  0  0
  2  1  1  0  0  0  0
  3  6  1  0  0  0  0
  3 10  1  1  0  0  0
  4  7  2  0  0  0  0
  5  4  2  0  0  0  0
  5  2  1  0  0  0  0
  7  3  1  0  0  0  0
  8 11  1  0  0  0  0
 10  9  2  0  0  0  0
 10  8  1  0  0  0  0
 12 20  1  6  0  0  0
 12 11  1  0  0  0  0
 12 16  1  0  0  0  0
 13 18  1  0  0  0  0
 14 18  1  0  0  0  0
 15 16  1  0  0  0  0
 15 17  1  0  0  0  0
 16 13  1  0  0  0  0
 17 14  1  0  0  0  0
 19 20  2  0  0  0  0
 21 19  1  0  0  0  0
 22 21  2  0  0  0  0
 23 21  1  0  0  0  0
 24  7  1  0  0  0  0
 25 30  1  1  0  0  0
 25 26  1  0  0  0  0
 25 27  1  0  0  0  0
 26 28  1  6  0  0  0
 26 27  1  0  0  0  0
 27 24  1  1  0  0  0
 29 31  2  0  0  0  0
 29 30  1  0  0  0  0
 32 33  2  0  0  0  0
 33 29  1  0  0  0  0
 34 33  1  0  0  0  0
 35 34  1  0  0  0  0
 36  5  1  0  0  0  0
 37 40  1  0  0  0  0
 38 42  1  0  0  0  0
 39 38  2  0  0  0  0
 39 41  1  0  0  0  0
 41 37  2  0  0  0  0
 42 36  1  0  0  0  0
 42 40  2  0  0  0  0
 43 46  1  0  0  0  0
 43 47  1  0  0  0  0
 44 45  1  0  0  0  0
 46 44  1  0  0  0  0
 47 41  1  0  0  0  0
 47 45  1  0  0  0  0
M  END
>  <MODEL>
7

>  <REMARK>
 VINA RESULT:      -5.6      1.989      3.493
  Name = 
  14 active torsions:
  status: ('A' for Active; 'I' for Inactive)
    1  A    between atoms: C_1  and  N_5
    2  A    between atoms: C_2  and  C_43
    3  A    between atoms: C_3  and  N_12
    4  A    between atoms: C_3  and  C_18
    5  A    between atoms: C_4  and  N_9
    6  A    between atoms: C_7  and  C_31
    7  A    between atoms: C_18  and  N_26
    8  A    between atoms: C_18  and  C_34
    9  A    between atoms: C_19  and  C_20
   10  A    between atoms: C_22  and  C_43
   11  A    between atoms: C_30  and  C_42
   12  A    between atoms: C_31  and  C_46
   13  A    between atoms: N_41  and  C_45
   14  A    between atoms: C_42  and  C_47
                            x       y       z     vdW  Elec       q    Type
                         _______ _______ _______ _____ _____    ______ ____

>  <TORSDO>
F 14

$$$$
=
 OpenBabel11042421553D

 47 51  0  0  1  0  0  0  0  0999 V2000
  162.4550  209.9840  154.7930 C   0  0  0  0  0  2  0  0  0  0  0  0
  161.8610  208.6560  155.3240 C   0  0  0  0  0  2  0  0  0  0  0  0
  161.1960  210.6220  152.5840 C   0  0  1  0  0  3  0  0  0  0  0  0
  161.0970  208.2840  153.1080 C   0  0  0  0  0  0  0  0  0  0  0  0
  161.4030  207.7160  154.2330 C   0  0  0  0  0  0  0  0  0  0  0  0
  161.3890  210.8700  154.1100 C   0  0  0  0  0  2  0  0  0  0  0  0
  160.9460  209.1810  152.1820 C   0  0  0  0  0  0  0  0  0  0  0  0
  160.4210  212.6810  151.3500 N   0  0  0  0  0  2  0  0  0  0  0  0
  158.9060  211.2860  152.4530 O   0  0  0  0  0  0  0  0  0  0  0  0
  160.0990  211.5140  152.1070 C   0  0  0  0  0  0  0  0  0  0  0  0
  159.4420  213.7340  151.1270 C   0  0  0  0  0  2  0  0  0  0  0  0
  159.6700  214.4410  149.7800 C   0  0  2  0  0  3  0  0  0  0  0  0
  157.5580  213.3890  149.4310 C   0  0  0  0  0  2  0  0  0  0  0  0
  156.7690  212.9110  147.2120 O   0  0  0  0  0  0  0  0  0  0  0  0
  158.8220  214.1150  147.5610 C   0  0  0  0  0  2  0  0  0  0  0  0
  158.4560  214.4480  148.9440 N   0  0  0  0  0  0  0  0  0  0  0  0
  157.5530  213.9710  146.7160 C   0  0  0  0  0  2  0  0  0  0  0  0
  156.3450  213.2760  148.5030 C   0  0  0  0  0  2  0  0  0  0  0  0
  161.3600  214.3770  148.0160 N   0  0  0  0  0  0  0  0  0  0  0  0
  160.8160  213.8030  149.0420 C   0  0  0  0  0  3  0  0  0  0  0  0
  162.4480  213.7830  147.3050 C   0  0  0  0  0  0  0  0  0  0  0  0
  163.4910  213.4090  147.9090 O   0  0  0  0  0  0  0  0  0  0  0  0
  162.3520  213.5990  145.8320 C   0  0  0  0  0  1  0  0  0  0  0  0
  160.8430  208.7940  150.7390 C   0  0  0  0  0  2  0  0  0  0  0  0
  162.3400  208.2070  148.7320 C   0  0  1  0  0  3  0  0  0  0  0  0
  161.9540  209.6720  148.6790 C   0  0  1  0  0  3  0  0  0  0  0  0
  162.1810  209.0110  150.0250 C   0  0  1  0  0  3  0  0  0  0  0  0
  163.0800  210.4230  148.3430 O   0  0  0  0  0  1  0  0  0  0  0  0
  161.0760  206.4350  147.3440 C   0  0  0  0  0  0  0  0  0  0  0  0
  161.1690  207.3960  148.4110 N   0  0  0  0  0  2  0  0  0  0  0  0
  159.9320  205.9790  147.0620 O   0  0  0  0  0  0  0  0  0  0  0  0
  163.3500  205.4980  147.1500 C   0  0  0  0  0  2  0  0  0  0  0  0
  162.2470  205.9520  146.5670 C   0  0  0  0  0  0  0  0  0  0  0  0
  162.1470  205.8160  145.0850 C   0  0  0  0  0  2  0  0  0  0  0  0
  161.6410  204.4330  144.7090 C   0  0  0  0  0  1  0  0  0  0  0  0
  160.8540  206.3650  154.5580 C   0  0  0  0  0  2  0  0  0  0  0  0
  161.2270  205.1270  150.9990 C   0  0  0  0  0  3  0  0  0  0  0  0
  160.6390  204.0840  153.5240 C   0  0  0  0  0  3  0  0  0  0  0  0
  160.6690  203.2410  152.4110 C   0  0  0  0  0  3  0  0  0  0  0  0
  161.1940  205.9700  152.1130 C   0  0  0  0  0  3  0  0  0  0  0  0
  160.9700  203.7530  151.1380 C   0  0  0  0  0  0  0  0  0  0  0  0
  160.9030  205.4520  153.3770 C   0  0  0  0  0  0  0  0  0  0  0  0
  161.2190  203.3580  148.6360 C   0  0  0  0  0  2  0  0  0  0  0  0
  160.7870  200.9530  148.6390 C   0  0  0  0  0  2  0  0  0  0  0  0
  160.8150  201.4450  150.0740 C   0  0  0  0  0  2  0  0  0  0  0  0
  161.2850  202.1100  147.7760 C   0  0  0  0  0  2  0  0  0  0  0  0
  160.9950  202.8850  149.9920 N   0  0  0  0  0  0  0  0  0  0  0  0
  1  2  1  0  0  0  0
  3 10  1  1  0  0  0
  3  6  1  0  0  0  0
  4  5  2  0  0  0  0
  5 36  1  0  0  0  0
  5  2  1  0  0  0  0
  6  1  1  0  0  0  0
  7  3  1  0  0  0  0
  7  4  2  0  0  0  0
  8 10  1  0  0  0  0
 10  9  2  0  0  0  0
 11  8  1  0  0  0  0
 12 20  1  6  0  0  0
 12 11  1  0  0  0  0
 14 18  1  0  0  0  0
 15 16  1  0  0  0  0
 16 13  1  0  0  0  0
 16 12  1  0  0  0  0
 17 14  1  0  0  0  0
 17 15  1  0  0  0  0
 18 13  1  0  0  0  0
 19 20  2  0  0  0  0
 21 22  2  0  0  0  0
 21 19  1  0  0  0  0
 23 21  1  0  0  0  0
 24  7  1  0  0  0  0
 25 30  1  1  0  0  0
 25 27  1  0  0  0  0
 26 28  1  6  0  0  0
 26 25  1  0  0  0  0
 26 27  1  0  0  0  0
 27 24  1  1  0  0  0
 29 30  1  0  0  0  0
 31 29  2  0  0  0  0
 33 32  2  0  0  0  0
 33 29  1  0  0  0  0
 34 33  1  0  0  0  0
 35 34  1  0  0  0  0
 37 41  2  0  0  0  0
 37 40  1  0  0  0  0
 39 38  2  0  0  0  0
 40 42  2  0  0  0  0
 41 39  1  0  0  0  0
 42 38  1  0  0  0  0
 42 36  1  0  0  0  0
 43 47  1  0  0  0  0
 44 45  1  0  0  0  0
 46 43  1  0  0  0  0
 46 44  1  0  0  0  0
 47 45  1  0  0  0  0
 47 41  1  0  0  0  0
M  END
>  <MODEL>
8

>  <REMARK>
 VINA RESULT:      -5.4      2.781      6.392
  Name = 
  14 active torsions:
  status: ('A' for Active; 'I' for Inactive)
    1  A    between atoms: C_1  and  N_5
    2  A    between atoms: C_2  and  C_43
    3  A    between atoms: C_3  and  N_12
    4  A    between atoms: C_3  and  C_18
    5  A    between atoms: C_4  and  N_9
    6  A    between atoms: C_7  and  C_31
    7  A    between atoms: C_18  and  N_26
    8  A    between atoms: C_18  and  C_34
    9  A    between atoms: C_19  and  C_20
   10  A    between atoms: C_22  and  C_43
   11  A    between atoms: C_30  and  C_42
   12  A    between atoms: C_31  and  C_46
   13  A    between atoms: N_41  and  C_45
   14  A    between atoms: C_42  and  C_47
                            x       y       z     vdW  Elec       q    Type
                         _______ _______ _______ _____ _____    ______ ____

>  <TORSDO>
F 14

$$$$
=
 OpenBabel11042421553D

 47 51  0  0  1  0  0  0  0  0999 V2000
  162.9450  213.2600  148.5360 C   0  0  0  0  0  2  0  0  0  0  0  0
  161.6550  214.1170  148.5010 C   0  0  0  0  0  2  0  0  0  0  0  0
  162.2880  210.8150  149.2160 C   0  0  1  0  0  3  0  0  0  0  0  0
  160.6980  212.4690  149.9150 C   0  0  0  0  0  0  0  0  0  0  0  0
  160.6220  213.7020  149.5220 C   0  0  0  0  0  0  0  0  0  0  0  0
  162.6930  211.8050  148.0830 C   0  0  0  0  0  2  0  0  0  0  0  0
  161.1210  211.2530  150.0820 C   0  0  0  0  0  0  0  0  0  0  0  0
  162.7090  208.3310  149.0950 N   0  0  0  0  0  2  0  0  0  0  0  0
  161.2880  209.3960  147.5770 O   0  0  0  0  0  0  0  0  0  0  0  0
  162.0300  209.4830  148.5950 C   0  0  0  0  0  0  0  0  0  0  0  0
  162.7350  207.0830  148.3480 C   0  0  0  0  0  2  0  0  0  0  0  0
  161.4240  206.2960  148.5170 C   0  0  2  0  0  3  0  0  0  0  0  0
  160.8490  204.0010  148.8220 C   0  0  0  0  0  2  0  0  0  0  0  0
  160.2400  203.1590  150.9890 O   0  0  0  0  0  0  0  0  0  0  0  0
  160.9750  205.4320  150.7080 C   0  0  0  0  0  2  0  0  0  0  0  0
  161.5870  205.1320  149.4060 N   0  0  0  0  0  0  0  0  0  0  0  0
  161.0040  204.1790  151.5890 C   0  0  0  0  0  2  0  0  0  0  0  0
  160.8820  202.8110  149.7860 C   0  0  0  0  0  2  0  0  0  0  0  0
  161.6040  205.1330  146.3760 N   0  0  0  0  0  0  0  0  0  0  0  0
  160.8960  205.8660  147.1760 C   0  0  0  0  0  3  0  0  0  0  0  0
  161.1150  204.7180  145.0980 C   0  0  0  0  0  0  0  0  0  0  0  0
  161.0790  205.5200  144.1250 O   0  0  0  0  0  0  0  0  0  0  0  0
  160.6430  203.3200  144.9090 C   0  0  0  0  0  1  0  0  0  0  0  0
  160.6970  210.4410  151.2660 C   0  0  0  0  0  2  0  0  0  0  0  0
  161.9740  209.6160  153.3400 C   0  0  1  0  0  3  0  0  0  0  0  0
  161.3650  208.4380  152.6040 C   0  0  1  0  0  3  0  0  0  0  0  0
  161.8740  209.6270  151.8120 C   0  0  1  0  0  3  0  0  0  0  0  0
  162.3040  207.4100  152.5420 O   0  0  0  0  0  1  0  0  0  0  0  0
  160.1720  209.9570  155.1560 C   0  0  0  0  0  0  0  0  0  0  0  0
  160.9080  210.3710  153.9920 N   0  0  0  0  0  2  0  0  0  0  0  0
  159.1400  210.6160  155.4650 O   0  0  0  0  0  0  0  0  0  0  0  0
  159.7620  207.7650  156.2160 C   0  0  0  0  0  2  0  0  0  0  0  0
  160.5630  208.8050  156.0110 C   0  0  0  0  0  0  0  0  0  0  0  0
  161.9540  208.7160  156.5420 C   0  0  0  0  0  2  0  0  0  0  0  0
  162.3650  210.0320  157.1830 C   0  0  0  0  0  1  0  0  0  0  0  0
  159.3380  214.4520  149.6690 C   0  0  0  0  0  2  0  0  0  0  0  0
  158.8460  213.8440  153.3740 C   0  0  0  0  0  3  0  0  0  0  0  0
  157.3040  213.9190  151.0460 C   0  0  0  0  0  3  0  0  0  0  0  0
  156.7000  213.6350  152.2720 C   0  0  0  0  0  3  0  0  0  0  0  0
  159.4490  214.1250  152.1460 C   0  0  0  0  0  3  0  0  0  0  0  0
  157.4640  213.6010  153.4500 C   0  0  0  0  0  0  0  0  0  0  0  0
  158.6810  214.1670  150.9800 C   0  0  0  0  0  0  0  0  0  0  0  0
  157.1560  214.0110  155.9430 C   0  0  0  0  0  2  0  0  0  0  0  0
  155.5550  212.2160  156.3750 C   0  0  0  0  0  2  0  0  0  0  0  0
  155.8310  212.2750  154.8840 C   0  0  0  0  0  2  0  0  0  0  0  0
  156.1960  213.4610  156.9830 C   0  0  0  0  0  2  0  0  0  0  0  0
  156.8440  213.3030  154.7130 N   0  0  0  0  0  0  0  0  0  0  0  0
  2  1  1  0  0  0  0
  2  5  1  0  0  0  0
  3 10  1  6  0  0  0
  3  7  1  0  0  0  0
  4  7  2  0  0  0  0
  5 36  1  0  0  0  0
  5  4  2  0  0  0  0
  6  1  1  0  0  0  0
  6  3  1  0  0  0  0
  7 24  1  0  0  0  0
  9 10  2  0  0  0  0
 10  8  1  0  0  0  0
 11 12  1  0  0  0  0
 11  8  1  0  0  0  0
 12 20  1  6  0  0  0
 12 16  1  0  0  0  0
 13 16  1  0  0  0  0
 13 18  1  0  0  0  0
 14 17  1  0  0  0  0
 15 17  1  0  0  0  0
 16 15  1  0  0  0  0
 18 14  1  0  0  0  0
 19 20  2  0  0  0  0
 21 19  1  0  0  0  0
 22 21  2  0  0  0  0
 23 21  1  0  0  0  0
 25 30  1  1  0  0  0
 26 28  1  6  0  0  0
 26 25  1  0  0  0  0
 27 24  1  1  0  0  0
 27 26  1  0  0  0  0
 27 25  1  0  0  0  0
 29 31  2  0  0  0  0
 29 33  1  0  0  0  0
 30 29  1  0  0  0  0
 33 32  2  0  0  0  0
 33 34  1  0  0  0  0
 34 35  1  0  0  0  0
 36 42  1  0  0  0  0
 37 41  1  0  0  0  0
 38 39  1  0  0  0  0
 39 41  2  0  0  0  0
 40 37  2  0  0  0  0
 41 47  1  0  0  0  0
 42 38  2  0  0  0  0
 42 40  1  0  0  0  0
 43 46  1  0  0  0  0
 44 46  1  0  0  0  0
 45 44  1  0  0  0  0
 47 45  1  0  0  0  0
 47 43  1  0  0  0  0
M  END
>  <MODEL>
9

>  <REMARK>
 VINA RESULT:      -5.1      2.677     10.082
  Name = 
  14 active torsions:
  status: ('A' for Active; 'I' for Inactive)
    1  A    between atoms: C_1  and  N_5
    2  A    between atoms: C_2  and  C_43
    3  A    between atoms: C_3  and  N_12
    4  A    between atoms: C_3  and  C_18
    5  A    between atoms: C_4  and  N_9
    6  A    between atoms: C_7  and  C_31
    7  A    between atoms: C_18  and  N_26
    8  A    between atoms: C_18  and  C_34
    9  A    between atoms: C_19  and  C_20
   10  A    between atoms: C_22  and  C_43
   11  A    between atoms: C_30  and  C_42
   12  A    between atoms: C_31  and  C_46
   13  A    between atoms: N_41  and  C_45
   14  A    between atoms: C_42  and  C_47
                            x       y       z     vdW  Elec       q    Type
                         _______ _______ _______ _____ _____    ______ ____

>  <TORSDO>
F 14

$$$$
