=
 OpenBabel11052410323D

 65 73  0  0  1  0  0  0  0  0999 V2000
  161.3820  212.9160  149.2180 C   0  0  2  0  0  3  0  0  0  0  0  0
  161.3870  214.1320  148.2870 C   0  0  2  0  0  3  0  0  0  0  0  0
  160.4570  211.7700  148.7980 C   0  0  2  0  0  3  0  0  0  0  0  0
  159.0520  213.6550  149.3080 C   0  0  0  0  0  2  0  0  0  0  0  0
  160.4920  214.1150  149.5330 C   0  0  1  0  0  3  0  0  0  0  0  0
  159.0780  212.1450  149.3080 C   0  0  0  0  0  2  0  0  0  0  0  0
  161.2760  210.3110  150.6920 C   0  0  0  0  0  3  0  0  0  0  0  0
  161.7500  209.0740  151.0790 C   0  0  0  0  0  0  0  0  0  0  0  0
  160.9340  210.4340  149.3180 C   0  0  0  0  0  0  0  0  0  0  0  0
  161.0270  208.0620  153.1930 C   0  0  1  0  0  3  0  0  0  0  0  0
  161.6200  208.0730  148.8360 C   0  0  0  0  0  3  0  0  0  0  0  0
  162.2070  208.2370  152.2260 C   0  0  1  0  0  3  0  0  0  0  0  0
  160.8990  205.6780  152.6360 C   0  0  0  0  0  3  0  0  0  0  0  0
  161.5640  205.8860  151.4900 C   0  0  0  0  0  0  0  0  0  0  0  0
  162.4260  207.1230  151.2850 C   0  0  1  0  0  3  0  0  0  0  0  0
  161.0050  206.6540  153.7670 C   0  0  0  0  0  2  0  0  0  0  0  0
  161.1290  209.3330  148.4150 C   0  0  0  0  0  3  0  0  0  0  0  0
  161.9120  207.9880  150.1820 C   0  0  0  0  0  0  0  0  0  0  0  0
  159.2080  210.2030  153.5990 O   0  0  0  0  0  0  0  0  0  0  0  0
  160.3170  211.0290  155.4800 N   0  0  0  0  0  2  0  0  0  0  0  0
  161.1180  209.0400  154.2640 N   0  0  0  0  0  2  0  0  0  0  0  0
  160.1670  210.0940  154.4110 C   0  0  0  0  0  0  0  0  0  0  0  0
  159.4140  212.1550  155.6620 C   0  0  1  0  0  3  0  0  0  0  0  0
  156.4590  212.4360  153.4350 O   0  0  0  0  0  1  0  0  0  0  0  0
  157.3940  212.2660  154.4470 C   0  0  0  0  0  0  0  0  0  0  0  0
  158.8430  212.5750  154.3000 C   0  0  1  0  0  3  0  0  0  0  0  0
  158.2810  211.7460  156.4180 O   0  0  0  0  0  0  0  0  0  0  0  0
  159.0180  214.0070  154.1280 N   0  0  0  0  0  1  0  0  0  0  0  0
  157.1300  211.8110  155.6580 C   0  0  0  0  0  0  0  0  0  0  0  0
  155.8810  211.4280  156.1620 O   0  0  0  0  0  0  0  0  0  0  0  0
  155.2380  210.2060  155.8300 C   0  0  0  0  0  1  0  0  0  0  0  0
  161.6150  203.5320  150.9360 N   0  0  0  0  0  1  0  0  0  0  0  0
  161.4730  204.8720  150.3930 C   0  0  0  0  0  2  0  0  0  0  0  0
  160.6310  213.9670  146.9600 C   0  0  0  0  0  2  0  0  0  0  0  0
  161.4920  213.2520  145.9300 C   0  0  0  0  0  2  0  0  0  0  0  0
  161.7980  214.1440  144.7360 C   0  0  0  0  0  2  0  0  0  0  0  0
  163.2580  214.0410  144.3170 C   0  0  0  0  0  2  0  0  0  0  0  0
  163.4630  212.9830  143.2410 C   0  0  0  0  0  2  0  0  0  0  0  0
  162.8470  213.4470  141.9230 C   0  0  0  0  0  2  0  0  0  0  0  0
  161.6780  212.5720  141.4790 C   0  0  1  0  0  3  0  0  0  0  0  0
  160.4070  213.2670  141.6630 N   0  0  0  0  0  2  0  0  0  0  0  0
  159.7650  213.1190  139.3840 N   0  0  0  0  0  0  0  0  0  0  0  0
  157.9700  214.3710  140.8310 S   0  0  0  0  0  0  0  0  0  0  0  0
  159.5030  213.5030  140.5830 C   0  0  0  0  0  0  0  0  0  0  0  0
  157.7780  214.4490  139.0210 C   0  0  1  0  0  3  0  0  0  0  0  0
  158.7520  213.4450  138.3980 C   0  0  1  0  0  3  0  0  0  0  0  0
  160.7080  214.0800  137.0120 C   0  0  0  0  0  2  0  0  0  0  0  0
  159.3860  213.9820  137.1490 C   0  0  0  0  0  3  0  0  0  0  0  0
  156.4100  214.0980  138.6680 N   0  0  0  0  0  2  0  0  0  0  0  0
  155.0880  212.5090  137.4050 C   0  0  0  0  0  2  0  0  0  0  0  0
  155.5040  211.7150  140.0070 O   0  0  0  0  0  0  0  0  0  0  0  0
  156.4230  212.7760  138.0580 C   0  0  2  0  0  3  0  0  0  0  0  0
  154.6250  211.2010  137.8530 N   0  0  0  0  0  0  0  0  0  0  0  0
  155.4720  210.7570  138.9690 C   0  0  1  0  0  3  0  0  0  0  0  0
  156.5980  211.7040  139.1200 C   0  0  2  0  0  3  0  0  0  0  0  0
  152.3300  212.5580  137.7600 O   0  0  0  0  0  0  0  0  0  0  0  0
  152.2080  210.1200  137.9490 O   0  0  0  0  0  0  0  0  0  0  0  0
  152.9700  211.3440  138.3740 S   0  0  0  0  0  0  0  0  0  0  0  0
  152.2060  212.6390  140.5050 O   0  0  0  0  0  1  0  0  0  0  0  0
  152.8960  211.4810  140.1490 C   0  0  0  0  0  2  0  0  0  0  0  0
  161.8540  212.1340  140.0270 C   0  0  0  0  0  2  0  0  0  0  0  0
  163.0990  211.3310  139.8640 C   0  0  0  0  0  0  0  0  0  0  0  0
  163.1850  210.1970  140.4090 O   0  0  0  0  0  0  0  0  0  0  0  0
  163.9540  212.8720  138.1510 C   0  0  0  0  0  1  0  0  0  0  0  0
  164.1530  211.8470  139.1120 O   0  0  0  0  0  0  0  0  0  0  0  0
  1  5  1  0  0  0  0
  2  1  1  0  0  0  0
  2  5  1  0  0  0  0
  3  1  1  0  0  0  0
  3  6  1  0  0  0  0
  3  9  1  0  0  0  0
  4  6  1  0  0  0  0
  4  5  1  0  0  0  0
  7  8  1  0  0  0  0
  8 12  1  0  0  0  0
  9  7  2  0  0  0  0
 10 16  1  0  0  0  0
 10 21  1  0  0  0  0
 11 18  1  0  0  0  0
 12 10  1  0  0  0  0
 13 16  1  0  0  0  0
 14 13  2  0  0  0  0
 15 14  1  0  0  0  0
 15 12  1  0  0  0  0
 17 11  2  0  0  0  0
 17  9  1  0  0  0  0
 18  8  2  0  0  0  0
 18 15  1  0  0  0  0
 19 22  2  0  0  0  0
 20 23  1  0  0  0  0
 21 22  1  0  0  0  0
 22 20  1  0  0  0  0
 23 27  1  0  0  0  0
 24 25  1  0  0  0  0
 25 29  2  0  0  0  0
 26 25  1  0  0  0  0
 26 23  1  0  0  0  0
 28 26  1  0  0  0  0
 29 30  1  0  0  0  0
 29 27  1  0  0  0  0
 31 30  1  0  0  0  0
 33 32  1  0  0  0  0
 33 14  1  0  0  0  0
 34  2  1  0  0  0  0
 35 34  1  0  0  0  0
 36 35  1  0  0  0  0
 37 36  1  0  0  0  0
 38 37  1  0  0  0  0
 39 38  1  0  0  0  0
 40 41  1  0  0  0  0
 40 39  1  0  0  0  0
 42 44  2  0  0  0  0
 44 43  1  0  0  0  0
 44 41  1  0  0  0  0
 45 43  1  0  0  0  0
 46 45  1  0  0  0  0
 46 42  1  0  0  0  0
 47 48  2  0  0  0  0
 48 46  1  0  0  0  0
 49 45  1  0  0  0  0
 50 53  1  0  0  0  0
 50 52  1  0  0  0  0
 52 49  1  0  0  0  0
 52 55  1  0  0  0  0
 53 58  1  0  0  0  0
 53 54  1  0  0  0  0
 54 55  1  0  0  0  0
 54 51  1  0  0  0  0
 55 51  1  0  0  0  0
 56 58  2  0  0  0  0
 57 58  2  0  0  0  0
 58 60  1  0  0  0  0
 60 59  1  0  0  0  0
 61 40  1  0  0  0  0
 62 61  1  0  0  0  0
 62 63  2  0  0  0  0
 64 65  1  0  0  0  0
 65 62  1  0  0  0  0
M  END
>  <MODEL>
1

>  <REMARK>
 VINA RESULT:      -1.7      0.000      0.000
  Name = 
  21 active torsions:
  status: ('A' for Active; 'I' for Inactive)
    1  A    between atoms: N_8  and  C_44
    2  A    between atoms: C_9  and  N_35
    3  A    between atoms: C_11  and  C_34
    4  A    between atoms: S_12  and  N_24
    5  A    between atoms: S_12  and  C_57
    6  A    between atoms: C_14  and  C_16
    7  A    between atoms: C_18  and  N_27
    8  A    between atoms: C_20  and  C_42
    9  A    between atoms: C_20  and  C_44
   10  A    between atoms: O_21  and  C_42
   11  A    between atoms: C_23  and  C_45
   12  A    between atoms: C_23  and  C_48
   13  A    between atoms: C_26  and  C_44
   14  A    between atoms: C_26  and  C_48
   15  A    between atoms: N_27  and  C_52
   16  A    between atoms: C_29  and  N_58
   17  A    between atoms: C_34  and  C_47
   18  A    between atoms: C_39  and  C_62
   19  A    between atoms: O_41  and  C_60
   20  A    between atoms: C_45  and  C_47
   21  A    between atoms: C_54  and  C_59
                            x       y       z     vdW  Elec       q    Type
                         _______ _______ _______ _____ _____    ______ ____

>  <TORSDO>
F 21

$$$$
=
 OpenBabel11052410323D

 65 73  0  0  1  0  0  0  0  0999 V2000
  159.9910  208.8940  153.5760 C   0  0  2  0  0  3  0  0  0  0  0  0
  160.8090  208.0250  152.6170 C   0  0  2  0  0  3  0  0  0  0  0  0
  160.7150  210.1270  154.1240 C   0  0  2  0  0  3  0  0  0  0  0  0
  161.8740  208.1980  154.9740 C   0  0  0  0  0  2  0  0  0  0  0  0
  160.7310  207.6700  154.1080 C   0  0  1  0  0  3  0  0  0  0  0  0
  161.5370  209.6340  155.3000 C   0  0  0  0  0  2  0  0  0  0  0  0
  159.1710  212.0200  153.4730 C   0  0  0  0  0  3  0  0  0  0  0  0
  158.3440  213.0390  153.9000 C   0  0  0  0  0  0  0  0  0  0  0  0
  159.7540  211.2300  154.5010 C   0  0  0  0  0  0  0  0  0  0  0  0
  156.2290  213.5000  152.7480 C   0  0  1  0  0  3  0  0  0  0  0  0
  158.6580  212.5900  156.2990 C   0  0  0  0  0  3  0  0  0  0  0  0
  157.4230  214.1320  153.4770 C   0  0  1  0  0  3  0  0  0  0  0  0
  154.7390  214.1430  154.5860 C   0  0  0  0  0  3  0  0  0  0  0  0
  155.7830  214.2620  155.4210 C   0  0  0  0  0  0  0  0  0  0  0  0
  157.1990  214.4520  154.9000 C   0  0  1  0  0  3  0  0  0  0  0  0
  154.9370  214.2190  153.1040 C   0  0  0  0  0  2  0  0  0  0  0  0
  159.5090  211.5360  155.8850 C   0  0  0  0  0  3  0  0  0  0  0  0
  158.0900  213.3120  155.2680 C   0  0  0  0  0  0  0  0  0  0  0  0
  158.6450  214.3070  151.4960 O   0  0  0  0  0  0  0  0  0  0  0  0
  157.8420  213.9870  149.3280 N   0  0  0  0  0  2  0  0  0  0  0  0
  156.4490  213.5420  151.3120 N   0  0  0  0  0  2  0  0  0  0  0  0
  157.6910  213.9590  150.7480 C   0  0  0  0  0  0  0  0  0  0  0  0
  159.0620  214.4460  148.6820 C   0  0  1  0  0  3  0  0  0  0  0  0
  161.6620  211.9410  147.8220 O   0  0  0  0  0  1  0  0  0  0  0  0
  160.6460  212.8840  147.8920 C   0  0  0  0  0  0  0  0  0  0  0  0
  160.2400  213.5780  149.1460 C   0  0  1  0  0  3  0  0  0  0  0  0
  158.9780  214.2210  147.2810 O   0  0  0  0  0  0  0  0  0  0  0  0
  161.3220  214.4380  149.5960 N   0  0  0  0  0  1  0  0  0  0  0  0
  159.9110  213.2890  146.8730 C   0  0  0  0  0  0  0  0  0  0  0  0
  160.0100  212.8670  145.5410 O   0  0  0  0  0  0  0  0  0  0  0  0
  158.9560  212.2290  144.8360 C   0  0  0  0  0  1  0  0  0  0  0  0
  154.1460  213.9760  157.1780 N   0  0  0  0  0  1  0  0  0  0  0  0
  155.5490  214.2240  156.8990 C   0  0  0  0  0  2  0  0  0  0  0  0
  162.1600  208.6010  152.1710 C   0  0  0  0  0  2  0  0  0  0  0  0
  161.9760  209.6040  151.0410 C   0  0  0  0  0  2  0  0  0  0  0  0
  161.7130  208.9120  149.7120 C   0  0  0  0  0  2  0  0  0  0  0  0
  162.5340  207.6370  149.5700 C   0  0  0  0  0  2  0  0  0  0  0  0
  161.6800  206.3920  149.7680 C   0  0  0  0  0  2  0  0  0  0  0  0
  162.3870  205.1700  149.1860 C   0  0  0  0  0  2  0  0  0  0  0  0
  161.6970  204.6280  147.9380 C   0  0  1  0  0  3  0  0  0  0  0  0
  162.4230  205.0130  146.7320 N   0  0  0  0  0  2  0  0  0  0  0  0
  160.5480  204.8010  145.2930 N   0  0  0  0  0  0  0  0  0  0  0  0
  162.7060  205.5350  143.9940 S   0  0  0  0  0  0  0  0  0  0  0  0
  161.7940  205.0830  145.4510 C   0  0  0  0  0  0  0  0  0  0  0  0
  161.2690  205.0270  142.9950 C   0  0  1  0  0  3  0  0  0  0  0  0
  160.0620  204.9060  143.9300 C   0  0  1  0  0  3  0  0  0  0  0  0
  159.2140  202.6070  144.3070 C   0  0  0  0  0  2  0  0  0  0  0  0
  159.2020  203.7270  143.5840 C   0  0  0  0  0  3  0  0  0  0  0  0
  161.0110  206.0350  141.9770 N   0  0  0  0  0  2  0  0  0  0  0  0
  162.0810  208.0390  141.1380 C   0  0  0  0  0  2  0  0  0  0  0  0
  161.9660  206.0290  139.2610 O   0  0  0  0  0  0  0  0  0  0  0  0
  162.2860  206.6070  141.5700 C   0  0  2  0  0  3  0  0  0  0  0  0
  162.7270  208.2100  139.8410 N   0  0  0  0  0  0  0  0  0  0  0  0
  163.0870  206.8870  139.3140 C   0  0  1  0  0  3  0  0  0  0  0  0
  162.8340  205.8710  140.3590 C   0  0  2  0  0  3  0  0  0  0  0  0
  161.8830  208.6020  137.3410 O   0  0  0  0  0  0  0  0  0  0  0  0
  160.2080  208.6140  139.1270 O   0  0  0  0  0  0  0  0  0  0  0  0
  161.6130  209.0050  138.7640 S   0  0  0  0  0  0  0  0  0  0  0  0
  160.8300  211.2610  139.8110 O   0  0  0  0  0  1  0  0  0  0  0  0
  161.7760  210.7730  138.9110 C   0  0  0  0  0  2  0  0  0  0  0  0
  161.5460  203.1110  148.0230 C   0  0  0  0  0  2  0  0  0  0  0  0
  160.8720  202.7160  149.2920 C   0  0  0  0  0  0  0  0  0  0  0  0
  159.7590  202.1230  149.2480 O   0  0  0  0  0  0  0  0  0  0  0  0
  160.8120  202.8130  151.7470 C   0  0  0  0  0  1  0  0  0  0  0  0
  161.4810  203.0090  150.5100 O   0  0  0  0  0  0  0  0  0  0  0  0
  1  5  1  0  0  0  0
  1  3  1  0  0  0  0
  2  1  1  0  0  0  0
  2  5  1  0  0  0  0
  3  9  1  0  0  0  0
  3  6  1  0  0  0  0
  4  6  1  0  0  0  0
  5  4  1  0  0  0  0
  7  8  2  0  0  0  0
  7  9  1  0  0  0  0
  8 18  1  0  0  0  0
  9 17  2  0  0  0  0
 10 16  1  0  0  0  0
 10 12  1  0  0  0  0
 12  8  1  0  0  0  0
 12 15  1  0  0  0  0
 13 14  2  0  0  0  0
 14 33  1  0  0  0  0
 15 18  1  0  0  0  0
 15 14  1  0  0  0  0
 16 13  1  0  0  0  0
 17 11  1  0  0  0  0
 18 11  2  0  0  0  0
 20 22  1  0  0  0  0
 21 10  1  0  0  0  0
 22 21  1  0  0  0  0
 22 19  2  0  0  0  0
 23 26  1  0  0  0  0
 23 20  1  0  0  0  0
 24 25  1  0  0  0  0
 25 26  1  0  0  0  0
 26 28  1  0  0  0  0
 27 23  1  0  0  0  0
 29 27  1  0  0  0  0
 29 25  2  0  0  0  0
 30 29  1  0  0  0  0
 31 30  1  0  0  0  0
 33 32  1  0  0  0  0
 34  2  1  0  0  0  0
 35 34  1  0  0  0  0
 36 35  1  0  0  0  0
 37 36  1  0  0  0  0
 37 38  1  0  0  0  0
 39 38  1  0  0  0  0
 40 61  1  0  0  0  0
 40 39  1  0  0  0  0
 41 40  1  0  0  0  0
 42 44  2  0  0  0  0
 43 44  1  0  0  0  0
 44 41  1  0  0  0  0
 45 46  1  0  0  0  0
 45 43  1  0  0  0  0
 46 42  1  0  0  0  0
 48 46  1  0  0  0  0
 48 47  2  0  0  0  0
 49 45  1  0  0  0  0
 50 52  1  0  0  0  0
 51 54  1  0  0  0  0
 51 55  1  0  0  0  0
 52 49  1  0  0  0  0
 53 50  1  0  0  0  0
 54 53  1  0  0  0  0
 54 55  1  0  0  0  0
 55 52  1  0  0  0  0
 56 58  2  0  0  0  0
 58 60  1  0  0  0  0
 58 57  2  0  0  0  0
 58 53  1  0  0  0  0
 60 59  1  0  0  0  0
 61 62  1  0  0  0  0
 62 65  1  0  0  0  0
 63 62  2  0  0  0  0
 65 64  1  0  0  0  0
M  END
>  <MODEL>
2

>  <REMARK>
 VINA RESULT:      -0.5      4.488      9.442
  Name = 
  21 active torsions:
  status: ('A' for Active; 'I' for Inactive)
    1  A    between atoms: N_8  and  C_44
    2  A    between atoms: C_9  and  N_35
    3  A    between atoms: C_11  and  C_34
    4  A    between atoms: S_12  and  N_24
    5  A    between atoms: S_12  and  C_57
    6  A    between atoms: C_14  and  C_16
    7  A    between atoms: C_18  and  N_27
    8  A    between atoms: C_20  and  C_42
    9  A    between atoms: C_20  and  C_44
   10  A    between atoms: O_21  and  C_42
   11  A    between atoms: C_23  and  C_45
   12  A    between atoms: C_23  and  C_48
   13  A    between atoms: C_26  and  C_44
   14  A    between atoms: C_26  and  C_48
   15  A    between atoms: N_27  and  C_52
   16  A    between atoms: C_29  and  N_58
   17  A    between atoms: C_34  and  C_47
   18  A    between atoms: C_39  and  C_62
   19  A    between atoms: O_41  and  C_60
   20  A    between atoms: C_45  and  C_47
   21  A    between atoms: C_54  and  C_59
                            x       y       z     vdW  Elec       q    Type
                         _______ _______ _______ _____ _____    ______ ____

>  <TORSDO>
F 21

$$$$
=
 OpenBabel11052410323D

 65 73  0  0  1  0  0  0  0  0999 V2000
  162.5040  206.4140  147.3470 C   0  0  2  0  0  3  0  0  0  0  0  0
  162.4490  204.8900  147.4790 C   0  0  2  0  0  3  0  0  0  0  0  0
  161.1740  207.1420  147.5670 C   0  0  2  0  0  3  0  0  0  0  0  0
  160.9190  205.7920  145.5910 C   0  0  0  0  0  2  0  0  0  0  0  0
  162.3400  205.5510  146.0990 C   0  0  1  0  0  3  0  0  0  0  0  0
  160.4410  207.0700  146.2400 C   0  0  0  0  0  2  0  0  0  0  0  0
  161.6640  209.5780  147.1060 C   0  0  0  0  0  3  0  0  0  0  0  0
  161.8820  210.8350  147.6330 C   0  0  0  0  0  0  0  0  0  0  0  0
  161.3740  208.5580  148.0520 C   0  0  0  0  0  0  0  0  0  0  0  0
  160.9430  212.8260  146.5520 C   0  0  1  0  0  3  0  0  0  0  0  0
  161.5960  210.1460  149.9780 C   0  0  0  0  0  3  0  0  0  0  0  0
  162.1500  212.2680  147.3210 C   0  0  1  0  0  3  0  0  0  0  0  0
  160.3630  214.2540  148.4580 C   0  0  0  0  0  3  0  0  0  0  0  0
  161.0740  213.4760  149.2880 C   0  0  0  0  0  0  0  0  0  0  0  0
  162.1630  212.5490  148.7690 C   0  0  1  0  0  3  0  0  0  0  0  0
  160.6390  214.2500  146.9860 C   0  0  0  0  0  2  0  0  0  0  0  0
  161.3650  208.8480  149.4610 C   0  0  0  0  0  3  0  0  0  0  0  0
  161.8440  211.1120  149.0230 C   0  0  0  0  0  0  0  0  0  0  0  0
  158.9900  212.3210  144.5550 O   0  0  0  0  0  0  0  0  0  0  0  0
  160.4980  212.4820  142.7810 N   0  0  0  0  0  2  0  0  0  0  0  0
  161.2050  212.7800  145.1230 N   0  0  0  0  0  2  0  0  0  0  0  0
  160.1750  212.5210  144.1710 C   0  0  0  0  0  0  0  0  0  0  0  0
  159.5090  212.1750  141.7590 C   0  0  1  0  0  3  0  0  0  0  0  0
  159.7020  213.9670  138.5140 O   0  0  0  0  0  1  0  0  0  0  0  0
  159.7160  213.0960  139.5950 C   0  0  0  0  0  0  0  0  0  0  0  0
  159.2050  213.4440  140.9500 C   0  0  1  0  0  3  0  0  0  0  0  0
  160.0620  211.2680  140.8130 O   0  0  0  0  0  0  0  0  0  0  0  0
  157.7660  213.6400  140.8900 N   0  0  0  0  0  1  0  0  0  0  0  0
  160.1780  211.8590  139.5710 C   0  0  0  0  0  0  0  0  0  0  0  0
  160.7260  211.1850  138.4720 O   0  0  0  0  0  0  0  0  0  0  0  0
  161.9300  210.4350  138.5280 C   0  0  0  0  0  1  0  0  0  0  0  0
  159.5740  214.2600  151.0150 N   0  0  0  0  0  1  0  0  0  0  0  0
  160.8040  213.5320  150.7590 C   0  0  0  0  0  2  0  0  0  0  0  0
  161.1310  204.3070  148.0100 C   0  0  0  0  0  2  0  0  0  0  0  0
  161.2530  202.8070  148.2370 C   0  0  0  0  0  2  0  0  0  0  0  0
  160.7490  202.4040  149.6150 C   0  0  0  0  0  2  0  0  0  0  0  0
  161.3520  203.2730  150.7100 C   0  0  0  0  0  2  0  0  0  0  0  0
  160.3550  203.5400  151.8300 C   0  0  0  0  0  2  0  0  0  0  0  0
  160.3380  205.0260  152.1770 C   0  0  0  0  0  2  0  0  0  0  0  0
  160.5830  205.9180  150.9620 C   0  0  1  0  0  3  0  0  0  0  0  0
  160.4280  207.3270  151.3100 N   0  0  0  0  0  2  0  0  0  0  0  0
  160.7670  206.9970  153.6360 N   0  0  0  0  0  0  0  0  0  0  0  0
  160.3210  209.5170  153.0550 S   0  0  0  0  0  0  0  0  0  0  0  0
  160.5340  207.7980  152.6550 C   0  0  0  0  0  0  0  0  0  0  0  0
  160.2880  209.0530  154.8170 C   0  0  1  0  0  3  0  0  0  0  0  0
  160.8320  207.6270  154.9410 C   0  0  1  0  0  3  0  0  0  0  0  0
  160.1560  207.0690  157.2600 C   0  0  0  0  0  2  0  0  0  0  0  0
  160.0700  206.8240  155.9530 C   0  0  0  0  0  3  0  0  0  0  0  0
  161.1260  209.9730  155.5710 N   0  0  0  0  0  2  0  0  0  0  0  0
  158.8380  210.4340  156.2180 C   0  0  0  0  0  2  0  0  0  0  0  0
  160.1490  212.6660  155.2810 O   0  0  0  0  0  0  0  0  0  0  0  0
  160.2940  210.6400  156.5620 C   0  0  2  0  0  3  0  0  0  0  0  0
  158.1830  211.7370  156.2550 N   0  0  0  0  0  0  0  0  0  0  0  0
  159.2130  212.7820  156.3330 C   0  0  1  0  0  3  0  0  0  0  0  0
  160.5310  212.1390  156.5300 C   0  0  2  0  0  3  0  0  0  0  0  0
  157.9540  211.3110  153.6310 O   0  0  0  0  0  0  0  0  0  0  0  0
  155.9110  211.2520  154.9800 O   0  0  0  0  0  0  0  0  0  0  0  0
  157.2420  211.9290  154.8030 S   0  0  0  0  0  0  0  0  0  0  0  0
  155.6290  213.8730  154.1530 O   0  0  0  0  0  1  0  0  0  0  0  0
  156.9690  213.6590  154.4730 C   0  0  0  0  0  2  0  0  0  0  0  0
  161.9640  205.6520  150.3690 C   0  0  0  0  0  2  0  0  0  0  0  0
  163.0270  206.2940  151.1930 C   0  0  0  0  0  0  0  0  0  0  0  0
  163.3380  207.4980  150.9780 O   0  0  0  0  0  0  0  0  0  0  0  0
  163.3350  205.7100  153.5590 C   0  0  0  0  0  1  0  0  0  0  0  0
  163.6640  205.5550  152.1870 O   0  0  0  0  0  0  0  0  0  0  0  0
  1  2  1  0  0  0  0
  1  3  1  0  0  0  0
  2 34  1  0  0  0  0
  3  9  1  0  0  0  0
  4  5  1  0  0  0  0
  4  6  1  0  0  0  0
  5  1  1  0  0  0  0
  5  2  1  0  0  0  0
  6  3  1  0  0  0  0
  7  8  2  0  0  0  0
  7  9  1  0  0  0  0
  8 18  1  0  0  0  0
  9 17  2  0  0  0  0
 10 16  1  0  0  0  0
 10 12  1  0  0  0  0
 12  8  1  0  0  0  0
 12 15  1  0  0  0  0
 13 14  2  0  0  0  0
 14 33  1  0  0  0  0
 15 18  1  0  0  0  0
 15 14  1  0  0  0  0
 16 13  1  0  0  0  0
 17 11  1  0  0  0  0
 18 11  2  0  0  0  0
 20 22  1  0  0  0  0
 21 10  1  0  0  0  0
 22 19  2  0  0  0  0
 22 21  1  0  0  0  0
 23 20  1  0  0  0  0
 24 25  1  0  0  0  0
 25 26  1  0  0  0  0
 26 23  1  0  0  0  0
 27 23  1  0  0  0  0
 28 26  1  0  0  0  0
 29 25  2  0  0  0  0
 29 27  1  0  0  0  0
 30 31  1  0  0  0  0
 30 29  1  0  0  0  0
 33 32  1  0  0  0  0
 34 35  1  0  0  0  0
 35 36  1  0  0  0  0
 36 37  1  0  0  0  0
 37 38  1  0  0  0  0
 38 39  1  0  0  0  0
 40 41  1  0  0  0  0
 40 39  1  0  0  0  0
 41 44  1  0  0  0  0
 42 46  1  0  0  0  0
 43 45  1  0  0  0  0
 44 43  1  0  0  0  0
 44 42  2  0  0  0  0
 45 46  1  0  0  0  0
 45 49  1  0  0  0  0
 46 48  1  0  0  0  0
 48 47  2  0  0  0  0
 49 52  1  0  0  0  0
 50 53  1  0  0  0  0
 50 52  1  0  0  0  0
 51 54  1  0  0  0  0
 51 55  1  0  0  0  0
 53 54  1  0  0  0  0
 54 55  1  0  0  0  0
 55 52  1  0  0  0  0
 56 58  2  0  0  0  0
 58 57  2  0  0  0  0
 58 53  1  0  0  0  0
 59 60  1  0  0  0  0
 60 58  1  0  0  0  0
 61 40  1  0  0  0  0
 61 62  1  0  0  0  0
 62 65  1  0  0  0  0
 63 62  2  0  0  0  0
 65 64  1  0  0  0  0
M  END
>  <MODEL>
3

>  <REMARK>
 VINA RESULT:      -0.0      3.994     13.254
  Name = 
  21 active torsions:
  status: ('A' for Active; 'I' for Inactive)
    1  A    between atoms: N_8  and  C_44
    2  A    between atoms: C_9  and  N_35
    3  A    between atoms: C_11  and  C_34
    4  A    between atoms: S_12  and  N_24
    5  A    between atoms: S_12  and  C_57
    6  A    between atoms: C_14  and  C_16
    7  A    between atoms: C_18  and  N_27
    8  A    between atoms: C_20  and  C_42
    9  A    between atoms: C_20  and  C_44
   10  A    between atoms: O_21  and  C_42
   11  A    between atoms: C_23  and  C_45
   12  A    between atoms: C_23  and  C_48
   13  A    between atoms: C_26  and  C_44
   14  A    between atoms: C_26  and  C_48
   15  A    between atoms: N_27  and  C_52
   16  A    between atoms: C_29  and  N_58
   17  A    between atoms: C_34  and  C_47
   18  A    between atoms: C_39  and  C_62
   19  A    between atoms: O_41  and  C_60
   20  A    between atoms: C_45  and  C_47
   21  A    between atoms: C_54  and  C_59
                            x       y       z     vdW  Elec       q    Type
                         _______ _______ _______ _____ _____    ______ ____

>  <TORSDO>
F 21

$$$$
