=
 OpenBabel11042422533D

 54 59  0  0  1  0  0  0  0  0999 V2000
  160.7310  212.8650  146.7890 C   0  0  2  0  0  3  0  0  0  0  0  0
  161.2760  211.8590  149.0810 C   0  0  0  0  0  2  0  0  0  0  0  0
  159.4210  214.2630  144.5650 C   0  0  2  0  0  3  0  0  0  0  0  0
  161.4790  213.1930  145.4940 C   0  0  0  0  0  2  0  0  0  0  0  0
  159.5080  213.6980  149.5540 C   0  0  0  0  0  2  0  0  0  0  0  0
  160.2190  212.4240  150.0500 C   0  0  2  0  0  3  0  0  0  0  0  0
  162.5840  213.7200  148.1940 C   0  0  0  0  0  2  0  0  0  0  0  0
  160.5130  213.2250  144.3190 C   0  0  0  0  0  2  0  0  0  0  0  0
  159.5800  213.8560  147.0450 C   0  0  2  0  0  3  0  0  0  0  0  0
  158.7470  213.4510  148.2590 C   0  0  0  0  0  2  0  0  0  0  0  0
  158.6510  213.9070  145.8330 C   0  0  0  0  0  2  0  0  0  0  0  0
  161.6680  212.7750  147.9630 C   0  0  0  0  0  0  0  0  0  0  0  0
  159.1810  212.6870  153.1550 C   0  0  2  0  0  3  0  0  0  0  0  0
  160.8110  212.6040  151.4630 C   0  0  1  0  0  3  0  0  0  0  0  0
  162.7170  210.3480  151.2510 O   0  0  0  0  0  0  0  0  0  0  0  0
  159.9760  213.5180  152.2470 N   0  0  0  0  0  2  0  0  0  0  0  0
  160.1950  206.8850  154.2000 C   0  0  0  0  0  2  0  0  0  0  0  0
  160.4930  207.6380  155.4880 C   0  0  0  0  0  2  0  0  0  0  0  0
  160.8210  211.3390  152.1880 N   0  0  0  0  0  0  0  0  0  0  0  0
  161.0670  208.8140  152.0280 C   0  0  0  0  0  2  0  0  0  0  0  0
  160.1370  209.0390  155.3300 N   0  0  0  0  0  2  0  0  0  0  0  0
  160.6620  211.4100  154.6320 C   0  0  0  0  0  2  0  0  0  0  0  0
  161.6000  210.1930  151.8110 C   0  0  0  0  0  0  0  0  0  0  0  0
  159.9010  211.3650  153.3080 C   0  0  1  0  0  3  0  0  0  0  0  0
  161.4510  206.6730  153.3540 C   0  0  2  0  0  3  0  0  0  0  0  0
  162.3370  209.8150  155.1810 O   0  0  0  0  0  0  0  0  0  0  0  0
  161.1050  210.0550  155.0620 C   0  0  0  0  0  0  0  0  0  0  0  0
  162.0610  207.9710  152.8200 C   0  0  0  0  0  2  0  0  0  0  0  0
  160.6130  204.5970  152.4980 O   0  0  0  0  0  0  0  0  0  0  0  0
  161.2040  205.6880  152.2560 C   0  0  0  0  0  0  0  0  0  0  0  0
  161.6220  205.9960  150.9630 O   0  0  0  0  0  0  0  0  0  0  0  0
  160.8410  205.6700  149.8240 C   0  0  0  0  0  1  0  0  0  0  0  0
  157.7950  212.4460  152.5660 C   0  0  0  0  0  2  0  0  0  0  0  0
  157.0450  213.7560  152.3830 C   0  0  0  0  0  2  0  0  0  0  0  0
  155.8010  213.7780  153.2540 C   0  0  0  0  0  2  0  0  0  0  0  0
  155.7650  212.5640  154.1640 C   0  0  0  0  0  2  0  0  0  0  0  0
  155.9070  212.9840  155.6150 C   0  0  0  0  0  1  0  0  0  0  0  0
  158.4610  214.2790  143.3870 C   0  0  0  0  0  2  0  0  0  0  0  0
  163.5820  214.3490  140.5410 O   0  0  0  0  0  1  0  0  0  0  0  0
  158.3450  213.7790  140.9390 C   0  0  0  0  0  0  0  0  0  0  0  0
  162.5250  213.5610  141.0110 C   0  0  1  0  0  0  0  0  0  0  0  0
  162.8690  212.2820  141.7590 C   0  0  0  0  0  1  0  0  0  0  0  0
  159.2050  214.3080  142.0570 C   0  0  2  0  0  3  0  0  0  0  0  0
  158.3950  214.4500  139.6010 C   0  0  0  0  0  2  0  0  0  0  0  0
  159.0170  213.5060  138.5790 C   0  0  2  0  0  3  0  0  0  0  0  0
  161.2560  214.2420  141.2370 C   0  0  1  0  0  3  0  0  0  0  0  0
  157.6740  212.7690  141.0930 O   0  0  0  0  0  0  0  0  0  0  0  0
  160.3010  214.0580  137.9470 C   0  0  0  0  0  2  0  0  0  0  0  0
  161.4220  213.3870  140.0410 N   0  0  1  0  0  0  0  0  0  0  0  0
  161.4310  214.3450  138.9410 C   0  0  0  0  0  2  0  0  0  0  0  0
  160.4060  213.5860  142.1330 O   0  0  0  0  0  0  0  0  0  0  0  0
  157.9550  211.9730  137.0960 O   0  0  0  0  0  1  0  0  0  0  0  0
  157.1330  214.1130  137.0440 O   0  0  0  0  0  0  0  0  0  0  0  0
  158.0190  213.1550  137.5270 C   0  0  0  0  0  0  0  0  0  0  0  0
  1  4  1  6  0  0  0
  1  9  1  0  0  0  0
  1 12  1  0  0  0  0
  3 38  1  6  0  0  0
  3 11  1  0  0  0  0
  5  6  1  0  0  0  0
  6  2  1  6  0  0  0
  6 14  1  0  0  0  0
  8  3  1  0  0  0  0
  8  4  1  0  0  0  0
  9 11  1  6  0  0  0
  9 10  1  0  0  0  0
 10  5  1  0  0  0  0
 12  7  2  0  0  0  0
 12  2  1  0  0  0  0
 13 33  1  6  0  0  0
 13 24  1  0  0  0  0
 14 19  1  0  0  0  0
 14 16  1  1  0  0  0
 15 23  2  0  0  0  0
 16 13  1  0  0  0  0
 17 18  1  0  0  0  0
 19 24  1  0  0  0  0
 20 28  1  0  0  0  0
 21 18  1  0  0  0  0
 22 27  1  0  0  0  0
 23 20  1  0  0  0  0
 23 19  1  0  0  0  0
 24 22  1  1  0  0  0
 25 30  1  6  0  0  0
 25 17  1  0  0  0  0
 27 26  2  0  0  0  0
 27 21  1  0  0  0  0
 28 25  1  0  0  0  0
 30 29  2  0  0  0  0
 31 30  1  0  0  0  0
 32 31  1  0  0  0  0
 34 33  1  0  0  0  0
 34 35  1  0  0  0  0
 35 36  1  0  0  0  0
 36 37  1  0  0  0  0
 39 41  1  0  0  0  0
 40 47  2  0  0  0  0
 40 43  1  0  0  0  0
 41 46  1  0  0  0  0
 41 42  1  1  0  0  0
 43 51  1  0  0  0  0
 43 38  1  1  0  0  0
 44 40  1  0  0  0  0
 45 54  1  6  0  0  0
 45 44  1  0  0  0  0
 46 51  1  1  0  0  0
 48 45  1  0  0  0  0
 48 50  1  0  0  0  0
 49 50  1  6  0  0  0
 49 41  1  0  0  0  0
 49 46  1  0  0  0  0
 52 54  1  0  0  0  0
 53 54  2  0  0  0  0
M  END
>  <MODEL>
1

>  <REMARK>
 VINA RESULT:      -4.7      0.000      0.000
  Name = 
  10 active torsions:
  status: ('A' for Active; 'I' for Inactive)
    1  A    between atoms: C_2  and  C_33
    2  A    between atoms: C_4  and  C_13
    3  A    between atoms: C_4  and  C_17
    4  A    between atoms: C_11  and  C_20
    5  A    between atoms: C_11  and  C_46
    6  A    between atoms: C_12  and  C_34
    7  A    between atoms: O_19  and  C_25
    8  A    between atoms: C_25  and  C_40
    9  A    between atoms: C_26  and  C_35
   10  A    between atoms: C_33  and  C_46
                            x       y       z     vdW  Elec       q    Type
                         _______ _______ _______ _____ _____    ______ ____

>  <TORSDO>
F 10

$$$$
=
 OpenBabel11042422533D

 54 59  0  0  1  0  0  0  0  0999 V2000
  162.0540  208.6480  151.0160 C   0  0  2  0  0  3  0  0  0  0  0  0
  162.0790  209.3420  153.4820 C   0  0  0  0  0  2  0  0  0  0  0  0
  161.8780  207.1060  148.5240 C   0  0  2  0  0  3  0  0  0  0  0  0
  161.9470  209.3340  149.6520 C   0  0  0  0  0  2  0  0  0  0  0  0
  160.7890  207.0920  153.4270 C   0  0  0  0  0  2  0  0  0  0  0  0
  161.5740  208.1160  154.2680 C   0  0  2  0  0  3  0  0  0  0  0  0
  160.2950  210.0940  151.9940 C   0  0  0  0  0  2  0  0  0  0  0  0
  162.5720  208.4650  148.5710 C   0  0  0  0  0  2  0  0  0  0  0  0
  161.4170  207.2460  150.9960 C   0  0  2  0  0  3  0  0  0  0  0  0
  161.6430  206.5050  152.3120 C   0  0  0  0  0  2  0  0  0  0  0  0
  162.0260  206.4070  149.8730 C   0  0  0  0  0  2  0  0  0  0  0  0
  161.4900  209.5070  152.1160 C   0  0  0  0  0  0  0  0  0  0  0  0
  161.9100  210.1820  156.8000 C   0  0  2  0  0  3  0  0  0  0  0  0
  160.7920  208.5540  155.5240 C   0  0  1  0  0  3  0  0  0  0  0  0
  158.2790  209.1640  154.0830 O   0  0  0  0  0  0  0  0  0  0  0  0
  161.7100  208.7380  156.6510 N   0  0  0  0  0  2  0  0  0  0  0  0
  158.5850  214.3560  154.0970 C   0  0  0  0  0  2  0  0  0  0  0  0
  158.3110  214.4530  155.5900 C   0  0  0  0  0  2  0  0  0  0  0  0
  160.1460  209.8430  155.3110 N   0  0  0  0  0  0  0  0  0  0  0  0
  159.0130  211.3880  153.6400 C   0  0  0  0  0  2  0  0  0  0  0  0
  159.1920  213.5470  156.3110 N   0  0  0  0  0  2  0  0  0  0  0  0
  159.7660  211.2780  157.2610 C   0  0  0  0  0  2  0  0  0  0  0  0
  159.1000  210.0790  154.3560 C   0  0  0  0  0  0  0  0  0  0  0  0
  160.7320  210.8720  156.1480 C   0  0  1  0  0  3  0  0  0  0  0  0
  157.5660  213.4690  153.3810 C   0  0  2  0  0  3  0  0  0  0  0  0
  157.5390  211.9730  156.8100 O   0  0  0  0  0  0  0  0  0  0  0  0
  158.7630  212.2710  156.7880 C   0  0  0  0  0  0  0  0  0  0  0  0
  157.6240  211.9990  153.8020 C   0  0  0  0  0  2  0  0  0  0  0  0
  156.6660  214.0060  151.2260 O   0  0  0  0  0  0  0  0  0  0  0  0
  157.6650  213.6210  151.8960 C   0  0  0  0  0  0  0  0  0  0  0  0
  158.8790  213.3470  151.2670 O   0  0  0  0  0  0  0  0  0  0  0  0
  159.1720  213.8230  149.9630 C   0  0  0  0  0  1  0  0  0  0  0  0
  163.1970  210.6070  156.1030 C   0  0  0  0  0  2  0  0  0  0  0  0
  163.8220  211.8070  156.7980 C   0  0  0  0  0  2  0  0  0  0  0  0
  165.3050  211.5700  157.0290 C   0  0  0  0  0  2  0  0  0  0  0  0
  166.1030  212.8180  156.7000 C   0  0  0  0  0  2  0  0  0  0  0  0
  167.0130  212.5670  155.5120 C   0  0  0  0  0  1  0  0  0  0  0  0
  162.5160  206.2470  147.4460 C   0  0  0  0  0  2  0  0  0  0  0  0
  161.4780  201.7220  151.0210 O   0  0  0  0  0  1  0  0  0  0  0  0
  161.3940  204.2730  146.3960 C   0  0  0  0  0  0  0  0  0  0  0  0
  160.9180  202.7610  150.2710 C   0  0  1  0  0  0  0  0  0  0  0  0
  159.8630  203.6310  150.9370 C   0  0  0  0  0  1  0  0  0  0  0  0
  162.1400  204.7770  147.6030 C   0  0  2  0  0  3  0  0  0  0  0  0
  161.6800  202.8950  145.8850 C   0  0  0  0  0  2  0  0  0  0  0  0
  160.4580  202.0090  146.0930 C   0  0  2  0  0  3  0  0  0  0  0  0
  161.7190  203.2720  149.1650 C   0  0  1  0  0  3  0  0  0  0  0  0
  160.5080  204.9440  145.8850 O   0  0  0  0  0  0  0  0  0  0  0  0
  160.7340  200.8010  146.9990 C   0  0  0  0  0  2  0  0  0  0  0  0
  160.5680  202.3860  148.8830 N   0  0  1  0  0  0  0  0  0  0  0  0
  161.1970  201.1560  148.4150 C   0  0  0  0  0  2  0  0  0  0  0  0
  161.3840  204.5700  148.7670 O   0  0  0  0  0  0  0  0  0  0  0  0
  160.0350  200.3680  144.4200 O   0  0  0  0  0  1  0  0  0  0  0  0
  159.2300  202.4640  143.9590 O   0  0  0  0  0  0  0  0  0  0  0  0
  159.9100  201.5690  144.7780 C   0  0  0  0  0  0  0  0  0  0  0  0
  1  4  1  6  0  0  0
  1 12  1  0  0  0  0
  2  6  1  0  0  0  0
  3 38  1  6  0  0  0
  3  8  1  0  0  0  0
  3 11  1  0  0  0  0
  6  5  1  6  0  0  0
  6 14  1  0  0  0  0
  7 12  2  0  0  0  0
  8  4  1  0  0  0  0
  9 11  1  6  0  0  0
  9  1  1  0  0  0  0
  9 10  1  0  0  0  0
 10  5  1  0  0  0  0
 12  2  1  0  0  0  0
 13 33  1  6  0  0  0
 14 16  1  1  0  0  0
 15 23  2  0  0  0  0
 16 13  1  0  0  0  0
 17 18  1  0  0  0  0
 18 21  1  0  0  0  0
 19 14  1  0  0  0  0
 19 24  1  0  0  0  0
 20 28  1  0  0  0  0
 20 23  1  0  0  0  0
 21 27  1  0  0  0  0
 23 19  1  0  0  0  0
 24 13  1  0  0  0  0
 24 22  1  1  0  0  0
 25 30  1  6  0  0  0
 25 28  1  0  0  0  0
 25 17  1  0  0  0  0
 27 26  2  0  0  0  0
 27 22  1  0  0  0  0
 29 30  2  0  0  0  0
 31 30  1  0  0  0  0
 32 31  1  0  0  0  0
 33 34  1  0  0  0  0
 34 35  1  0  0  0  0
 36 35  1  0  0  0  0
 37 36  1  0  0  0  0
 40 43  1  0  0  0  0
 41 42  1  1  0  0  0
 41 39  1  0  0  0  0
 43 38  1  6  0  0  0
 43 51  1  0  0  0  0
 44 45  1  0  0  0  0
 44 40  1  0  0  0  0
 45 54  1  6  0  0  0
 45 48  1  0  0  0  0
 46 51  1  6  0  0  0
 46 41  1  0  0  0  0
 47 40  2  0  0  0  0
 48 50  1  0  0  0  0
 49 50  1  1  0  0  0
 49 46  1  0  0  0  0
 49 41  1  0  0  0  0
 52 54  1  0  0  0  0
 53 54  2  0  0  0  0
M  END
>  <MODEL>
2

>  <REMARK>
 VINA RESULT:      -3.2      6.368      9.528
  Name = 
  10 active torsions:
  status: ('A' for Active; 'I' for Inactive)
    1  A    between atoms: C_2  and  C_33
    2  A    between atoms: C_4  and  C_13
    3  A    between atoms: C_4  and  C_17
    4  A    between atoms: C_11  and  C_20
    5  A    between atoms: C_11  and  C_46
    6  A    between atoms: C_12  and  C_34
    7  A    between atoms: O_19  and  C_25
    8  A    between atoms: C_25  and  C_40
    9  A    between atoms: C_26  and  C_35
   10  A    between atoms: C_33  and  C_46
                            x       y       z     vdW  Elec       q    Type
                         _______ _______ _______ _____ _____    ______ ____

>  <TORSDO>
F 10

$$$$
=
 OpenBabel11042422533D

 54 59  0  0  1  0  0  0  0  0999 V2000
  160.0350  213.0340  144.6600 C   0  0  2  0  0  3  0  0  0  0  0  0
  160.2120  213.8420  147.0840 C   0  0  0  0  0  2  0  0  0  0  0  0
  160.6380  212.3110  141.8790 C   0  0  2  0  0  3  0  0  0  0  0  0
  159.0570  212.2170  143.8110 C   0  0  0  0  0  2  0  0  0  0  0  0
  162.6470  213.2920  146.3760 C   0  0  0  0  0  2  0  0  0  0  0  0
  161.7170  214.0380  147.3520 C   0  0  2  0  0  3  0  0  0  0  0  0
  159.8180  211.4860  146.5820 C   0  0  0  0  0  2  0  0  0  0  0  0
  159.2060  212.5740  142.3400 C   0  0  0  0  0  2  0  0  0  0  0  0
  161.4890  212.8430  144.1890 C   0  0  2  0  0  3  0  0  0  0  0  0
  162.4500  213.7610  144.9410 C   0  0  0  0  0  2  0  0  0  0  0  0
  161.6050  213.1610  142.6990 C   0  0  0  0  0  2  0  0  0  0  0  0
  159.8760  212.7410  146.1270 C   0  0  0  0  0  0  0  0  0  0  0  0
  160.1590  213.4770  150.1890 C   0  0  2  0  0  3  0  0  0  0  0  0
  162.0570  213.7290  148.8250 C   0  0  1  0  0  3  0  0  0  0  0  0
  163.8500  211.4510  148.2200 O   0  0  0  0  0  0  0  0  0  0  0  0
  161.1450  214.4520  149.7150 N   0  0  0  0  0  2  0  0  0  0  0  0
  160.6640  207.5530  149.5290 C   0  0  0  0  0  2  0  0  0  0  0  0
  160.7680  207.8560  151.0160 C   0  0  0  0  0  2  0  0  0  0  0  0
  161.8720  212.3120  149.1150 N   0  0  0  0  0  0  0  0  0  0  0  0
  162.0090  209.9360  148.2210 C   0  0  0  0  0  2  0  0  0  0  0  0
  160.5200  209.2700  151.2480 N   0  0  0  0  0  2  0  0  0  0  0  0
  161.2850  211.6720  151.4070 C   0  0  0  0  0  2  0  0  0  0  0  0
  162.6440  211.2550  148.5260 C   0  0  0  0  0  0  0  0  0  0  0  0
  160.7700  212.1020  150.0340 C   0  0  1  0  0  3  0  0  0  0  0  0
  162.0380  207.4710  148.8610 C   0  0  2  0  0  3  0  0  0  0  0  0
  162.7490  209.8210  151.6850 O   0  0  0  0  0  0  0  0  0  0  0  0
  161.5720  210.2120  151.4580 C   0  0  0  0  0  0  0  0  0  0  0  0
  162.8010  208.7980  148.8560 C   0  0  0  0  0  2  0  0  0  0  0  0
  162.9750  206.4910  146.8860 O   0  0  0  0  0  0  0  0  0  0  0  0
  161.9380  206.8860  147.4880 C   0  0  0  0  0  0  0  0  0  0  0  0
  160.6830  206.7720  146.8910 O   0  0  0  0  0  0  0  0  0  0  0  0
  160.5160  206.2040  145.6010 C   0  0  0  0  0  1  0  0  0  0  0  0
  158.8890  213.5670  149.3490 C   0  0  0  0  0  2  0  0  0  0  0  0
  157.6740  213.8290  150.2250 C   0  0  0  0  0  2  0  0  0  0  0  0
  158.0200  213.6070  151.6880 C   0  0  0  0  0  2  0  0  0  0  0  0
  157.1300  214.4520  152.5810 C   0  0  0  0  0  2  0  0  0  0  0  0
  156.5690  213.6140  153.7150 C   0  0  0  0  0  1  0  0  0  0  0  0
  160.7740  212.6780  140.4110 C   0  0  0  0  0  2  0  0  0  0  0  0
  162.4510  207.4650  138.3270 O   0  0  0  0  0  1  0  0  0  0  0  0
  159.0040  211.3670  139.2250 C   0  0  0  0  0  0  0  0  0  0  0  0
  161.6740  208.1420  139.2740 C   0  0  1  0  0  0  0  0  0  0  0  0
  161.7470  207.6750  140.7190 C   0  0  0  0  0  1  0  0  0  0  0  0
  160.4790  211.4880  139.5050 C   0  0  2  0  0  3  0  0  0  0  0  0
  158.5520  210.9820  137.8500 C   0  0  0  0  0  2  0  0  0  0  0  0
  157.9080  209.6020  137.8910 C   0  0  2  0  0  3  0  0  0  0  0  0
  161.2980  209.5130  138.9480 C   0  0  1  0  0  3  0  0  0  0  0  0
  158.1860  211.5010  140.1230 O   0  0  0  0  0  0  0  0  0  0  0  0
  158.6270  208.5710  137.0120 C   0  0  0  0  0  2  0  0  0  0  0  0
  160.2930  208.4330  138.8270 N   0  0  1  0  0  0  0  0  0  0  0  0
  160.0910  208.3210  137.3860 C   0  0  0  0  0  2  0  0  0  0  0  0
  160.9710  210.2960  140.0590 O   0  0  0  0  0  0  0  0  0  0  0  0
  155.7190  208.6900  137.6580 O   0  0  0  0  0  1  0  0  0  0  0  0
  155.9270  210.8950  137.0660 O   0  0  0  0  0  0  0  0  0  0  0  0
  156.4650  209.6960  137.5230 C   0  0  0  0  0  0  0  0  0  0  0  0
  1  4  1  6  0  0  0
  1 12  1  0  0  0  0
  2  6  1  0  0  0  0
  3 38  1  6  0  0  0
  3  8  1  0  0  0  0
  3 11  1  0  0  0  0
  6  5  1  6  0  0  0
  6 14  1  0  0  0  0
  8  4  1  0  0  0  0
  9 11  1  6  0  0  0
  9  1  1  0  0  0  0
  9 10  1  0  0  0  0
 10  5  1  0  0  0  0
 12  7  2  0  0  0  0
 12  2  1  0  0  0  0
 13 33  1  6  0  0  0
 14 19  1  0  0  0  0
 14 16  1  1  0  0  0
 15 23  2  0  0  0  0
 16 13  1  0  0  0  0
 17 18  1  0  0  0  0
 18 21  1  0  0  0  0
 19 24  1  0  0  0  0
 20 23  1  0  0  0  0
 20 28  1  0  0  0  0
 21 27  1  0  0  0  0
 22 27  1  0  0  0  0
 23 19  1  0  0  0  0
 24 13  1  0  0  0  0
 24 22  1  1  0  0  0
 25 30  1  6  0  0  0
 25 17  1  0  0  0  0
 27 26  2  0  0  0  0
 28 25  1  0  0  0  0
 29 30  2  0  0  0  0
 31 30  1  0  0  0  0
 32 31  1  0  0  0  0
 33 34  1  0  0  0  0
 34 35  1  0  0  0  0
 35 36  1  0  0  0  0
 36 37  1  0  0  0  0
 39 41  1  0  0  0  0
 40 43  1  0  0  0  0
 40 47  2  0  0  0  0
 41 42  1  1  0  0  0
 43 51  1  0  0  0  0
 43 38  1  1  0  0  0
 44 45  1  0  0  0  0
 44 40  1  0  0  0  0
 45 54  1  6  0  0  0
 46 41  1  0  0  0  0
 46 51  1  1  0  0  0
 48 50  1  0  0  0  0
 48 45  1  0  0  0  0
 49 50  1  6  0  0  0
 49 46  1  0  0  0  0
 49 41  1  0  0  0  0
 53 54  2  0  0  0  0
 54 52  1  0  0  0  0
M  END
>  <MODEL>
3

>  <REMARK>
 VINA RESULT:      -2.7      2.852      4.069
  Name = 
  10 active torsions:
  status: ('A' for Active; 'I' for Inactive)
    1  A    between atoms: C_2  and  C_33
    2  A    between atoms: C_4  and  C_13
    3  A    between atoms: C_4  and  C_17
    4  A    between atoms: C_11  and  C_20
    5  A    between atoms: C_11  and  C_46
    6  A    between atoms: C_12  and  C_34
    7  A    between atoms: O_19  and  C_25
    8  A    between atoms: C_25  and  C_40
    9  A    between atoms: C_26  and  C_35
   10  A    between atoms: C_33  and  C_46
                            x       y       z     vdW  Elec       q    Type
                         _______ _______ _______ _____ _____    ______ ____

>  <TORSDO>
F 10

$$$$
=
 OpenBabel11042422533D

 54 59  0  0  1  0  0  0  0  0999 V2000
  157.5290  213.4070  151.6310 C   0  0  2  0  0  3  0  0  0  0  0  0
  158.1390  213.4770  154.1180 C   0  0  0  0  0  2  0  0  0  0  0  0
  157.6530  213.3890  148.6980 C   0  0  2  0  0  3  0  0  0  0  0  0
  156.3170  213.0250  150.7770 C   0  0  0  0  0  2  0  0  0  0  0  0
  160.3180  212.7560  152.9070 C   0  0  0  0  0  2  0  0  0  0  0  0
  159.6740  213.3450  154.1770 C   0  0  2  0  0  3  0  0  0  0  0  0
  157.2280  211.4460  153.1160 C   0  0  0  0  0  2  0  0  0  0  0  0
  156.3650  213.7440  149.4370 C   0  0  0  0  0  2  0  0  0  0  0  0
  158.8520  213.1200  150.8960 C   0  0  2  0  0  3  0  0  0  0  0  0
  160.0560  213.6270  151.6860 C   0  0  0  0  0  2  0  0  0  0  0  0
  158.8580  213.8120  149.5340 C   0  0  0  0  0  2  0  0  0  0  0  0
  157.4830  212.7510  152.9850 C   0  0  0  0  0  0  0  0  0  0  0  0
  158.3510  211.4500  156.5120 C   0  0  2  0  0  3  0  0  0  0  0  0
  160.1110  212.5910  155.4500 C   0  0  1  0  0  3  0  0  0  0  0  0
  162.3470  211.1430  154.1570 O   0  0  0  0  0  0  0  0  0  0  0  0
  159.0860  212.7190  156.4890 N   0  0  0  0  0  2  0  0  0  0  0  0
  160.1360  206.4530  153.7520 C   0  0  0  0  0  2  0  0  0  0  0  0
  160.2080  206.1960  155.2490 C   0  0  0  0  0  2  0  0  0  0  0  0
  160.2510  211.1640  155.1880 N   0  0  0  0  0  0  0  0  0  0  0  0
  160.8870  209.3800  153.4930 C   0  0  0  0  0  2  0  0  0  0  0  0
  159.6600  207.3340  155.9700 N   0  0  0  0  0  2  0  0  0  0  0  0
  159.8790  209.6090  157.0450 C   0  0  0  0  0  2  0  0  0  0  0  0
  161.2220  210.5930  154.2980 C   0  0  0  0  0  0  0  0  0  0  0  0
  159.2470  210.3970  155.8980 C   0  0  1  0  0  3  0  0  0  0  0  0
  161.4760  206.9210  153.1830 C   0  0  2  0  0  3  0  0  0  0  0  0
  161.7220  208.1470  156.7090 O   0  0  0  0  0  0  0  0  0  0  0  0
  160.4830  208.3330  156.5730 C   0  0  0  0  0  0  0  0  0  0  0  0
  161.9270  208.2850  153.7100 C   0  0  0  0  0  2  0  0  0  0  0  0
  160.6630  206.1340  151.0710 O   0  0  0  0  0  0  0  0  0  0  0  0
  161.4730  206.8810  151.6880 C   0  0  0  0  0  0  0  0  0  0  0  0
  162.3660  207.6900  150.9870 O   0  0  0  0  0  0  0  0  0  0  0  0
  162.1410  208.0610  149.6360 C   0  0  0  0  0  1  0  0  0  0  0  0
  157.0720  211.5710  155.6910 C   0  0  0  0  0  2  0  0  0  0  0  0
  155.8430  211.4600  156.5780 C   0  0  0  0  0  2  0  0  0  0  0  0
  155.2500  212.8350  156.8340 C   0  0  0  0  0  2  0  0  0  0  0  0
  155.3530  213.7000  155.5910 C   0  0  0  0  0  2  0  0  0  0  0  0
  154.0560  214.4530  155.3600 C   0  0  0  0  0  1  0  0  0  0  0  0
  157.6910  214.1190  147.3660 C   0  0  0  0  0  2  0  0  0  0  0  0
  163.5170  213.6500  147.7750 O   0  0  0  0  0  1  0  0  0  0  0  0
  158.8530  213.2600  145.3240 C   0  0  0  0  0  0  0  0  0  0  0  0
  162.3000  212.9650  147.6820 C   0  0  1  0  0  0  0  0  0  0  0  0
  162.0620  211.8060  148.6370 C   0  0  0  0  0  1  0  0  0  0  0  0
  159.0300  213.9320  146.6610 C   0  0  2  0  0  3  0  0  0  0  0  0
  159.6780  213.7210  144.1620 C   0  0  0  0  0  2  0  0  0  0  0  0
  160.6510  212.6210  143.7590 C   0  0  2  0  0  3  0  0  0  0  0  0
  161.1820  213.6990  147.1020 C   0  0  1  0  0  3  0  0  0  0  0  0
  158.1080  212.2990  145.2030 O   0  0  0  0  0  0  0  0  0  0  0  0
  162.1230  213.0440  143.8680 C   0  0  0  0  0  2  0  0  0  0  0  0
  161.8760  212.6710  146.2950 N   0  0  1  0  0  0  0  0  0  0  0  0
  162.5670  213.4530  145.2750 C   0  0  0  0  0  2  0  0  0  0  0  0
  159.9240  213.2040  147.4600 O   0  0  0  0  0  0  0  0  0  0  0  0
  161.2660  211.6840  141.6570 O   0  0  0  0  0  0  0  0  0  0  0  0
  159.0350  212.1500  141.9040 O   0  0  0  0  0  1  0  0  0  0  0  0
  160.3420  212.1370  142.3820 C   0  0  0  0  0  0  0  0  0  0  0  0
  1  4  1  6  0  0  0
  1 12  1  0  0  0  0
  2  6  1  0  0  0  0
  3 38  1  6  0  0  0
  3  8  1  0  0  0  0
  3 11  1  0  0  0  0
  6  5  1  6  0  0  0
  6 14  1  0  0  0  0
  8  4  1  0  0  0  0
  9 11  1  6  0  0  0
  9  1  1  0  0  0  0
  9 10  1  0  0  0  0
 10  5  1  0  0  0  0
 12  7  2  0  0  0  0
 12  2  1  0  0  0  0
 13 33  1  6  0  0  0
 14 16  1  1  0  0  0
 15 23  2  0  0  0  0
 16 13  1  0  0  0  0
 17 18  1  0  0  0  0
 18 21  1  0  0  0  0
 19 14  1  0  0  0  0
 19 24  1  0  0  0  0
 20 28  1  0  0  0  0
 20 23  1  0  0  0  0
 21 27  1  0  0  0  0
 23 19  1  0  0  0  0
 24 13  1  0  0  0  0
 24 22  1  1  0  0  0
 25 30  1  6  0  0  0
 25 28  1  0  0  0  0
 25 17  1  0  0  0  0
 27 26  2  0  0  0  0
 27 22  1  0  0  0  0
 29 30  2  0  0  0  0
 31 30  1  0  0  0  0
 32 31  1  0  0  0  0
 33 34  1  0  0  0  0
 34 35  1  0  0  0  0
 36 35  1  0  0  0  0
 37 36  1  0  0  0  0
 40 43  1  0  0  0  0
 41 39  1  0  0  0  0
 41 42  1  1  0  0  0
 43 38  1  1  0  0  0
 43 51  1  0  0  0  0
 44 40  1  0  0  0  0
 45 54  1  6  0  0  0
 45 48  1  0  0  0  0
 45 44  1  0  0  0  0
 46 51  1  1  0  0  0
 46 41  1  0  0  0  0
 47 40  2  0  0  0  0
 48 50  1  0  0  0  0
 49 50  1  6  0  0  0
 49 46  1  0  0  0  0
 49 41  1  0  0  0  0
 52 54  2  0  0  0  0
 53 54  1  0  0  0  0
M  END
>  <MODEL>
4

>  <REMARK>
 VINA RESULT:      -2.1      2.535      4.526
  Name = 
  10 active torsions:
  status: ('A' for Active; 'I' for Inactive)
    1  A    between atoms: C_2  and  C_33
    2  A    between atoms: C_4  and  C_13
    3  A    between atoms: C_4  and  C_17
    4  A    between atoms: C_11  and  C_20
    5  A    between atoms: C_11  and  C_46
    6  A    between atoms: C_12  and  C_34
    7  A    between atoms: O_19  and  C_25
    8  A    between atoms: C_25  and  C_40
    9  A    between atoms: C_26  and  C_35
   10  A    between atoms: C_33  and  C_46
                            x       y       z     vdW  Elec       q    Type
                         _______ _______ _______ _____ _____    ______ ____

>  <TORSDO>
F 10

$$$$
=
 OpenBabel11042422533D

 54 59  0  0  1  0  0  0  0  0999 V2000
  160.6900  206.4310  152.3560 C   0  0  2  0  0  3  0  0  0  0  0  0
  159.9710  208.8750  152.6190 C   0  0  0  0  0  2  0  0  0  0  0  0
  161.8860  203.9340  151.3770 C   0  0  2  0  0  3  0  0  0  0  0  0
  160.7480  205.1720  153.2260 C   0  0  0  0  0  2  0  0  0  0  0  0
  162.0370  208.9440  151.0490 C   0  0  0  0  0  2  0  0  0  0  0  0
  160.7780  209.6650  151.5700 C   0  0  2  0  0  3  0  0  0  0  0  0
  161.5370  207.8610  154.1940 C   0  0  0  0  0  2  0  0  0  0  0  0
  160.7130  203.9250  152.3540 C   0  0  0  0  0  2  0  0  0  0  0  0
  161.8240  206.4510  151.3140 C   0  0  2  0  0  3  0  0  0  0  0  0
  161.6890  207.6330  150.3560 C   0  0  0  0  0  2  0  0  0  0  0  0
  161.7980  205.1690  150.4840 C   0  0  0  0  0  2  0  0  0  0  0  0
  160.6710  207.6820  153.1920 C   0  0  0  0  0  0  0  0  0  0  0  0
  160.1000  212.7840  150.7920 C   0  0  2  0  0  3  0  0  0  0  0  0
  161.0960  211.0870  152.0780 C   0  0  1  0  0  3  0  0  0  0  0  0
  160.2700  210.5680  154.8740 O   0  0  0  0  0  0  0  0  0  0  0  0
  161.3220  211.9890  150.9460 N   0  0  0  0  0  2  0  0  0  0  0  0
  155.6980  213.0470  154.8330 C   0  0  0  0  0  2  0  0  0  0  0  0
  156.3480  214.4210  154.7780 C   0  0  0  0  0  2  0  0  0  0  0  0
  159.9680  211.6380  152.8200 N   0  0  0  0  0  0  0  0  0  0  0  0
  158.0130  211.1440  154.3680 C   0  0  0  0  0  2  0  0  0  0  0  0
  157.3410  214.4520  153.7160 N   0  0  0  0  0  2  0  0  0  0  0  0
  159.6770  214.0710  152.8350 C   0  0  0  0  0  2  0  0  0  0  0  0
  159.4750  211.1090  154.0600 C   0  0  0  0  0  0  0  0  0  0  0  0
  159.3710  212.7560  152.1180 C   0  0  1  0  0  3  0  0  0  0  0  0
  156.2920  212.1730  155.9390 C   0  0  2  0  0  3  0  0  0  0  0  0
  159.1940  214.3950  155.1390 O   0  0  0  0  0  0  0  0  0  0  0  0
  158.7400  214.3150  153.9660 C   0  0  0  0  0  0  0  0  0  0  0  0
  157.7630  211.8120  155.7160 C   0  0  0  0  0  2  0  0  0  0  0  0
  155.5520  209.9560  155.4100 O   0  0  0  0  0  0  0  0  0  0  0  0
  155.4550  210.9560  156.1750 C   0  0  0  0  0  0  0  0  0  0  0  0
  154.5790  210.9370  157.2600 O   0  0  0  0  0  0  0  0  0  0  0  0
  153.3350  210.2570  157.2070 C   0  0  0  0  0  1  0  0  0  0  0  0
  159.2130  212.1760  149.7110 C   0  0  0  0  0  2  0  0  0  0  0  0
  158.8580  213.2080  148.6530 C   0  0  0  0  0  2  0  0  0  0  0  0
  157.4030  213.0620  148.2400 C   0  0  0  0  0  2  0  0  0  0  0  0
  157.2240  213.4290  146.7780 C   0  0  0  0  0  2  0  0  0  0  0  0
  158.2320  212.6890  145.9190 C   0  0  0  0  0  1  0  0  0  0  0  0
  161.8340  202.6880  150.5100 C   0  0  0  0  0  2  0  0  0  0  0  0
  161.1610  206.6330  146.2310 O   0  0  0  0  0  1  0  0  0  0  0  0
  161.2570  201.7570  148.2610 C   0  0  0  0  0  0  0  0  0  0  0  0
  161.9500  205.5950  146.7400 C   0  0  1  0  0  0  0  0  0  0  0  0
  163.4530  205.8140  146.8120 C   0  0  0  0  0  1  0  0  0  0  0  0
  161.3390  203.0030  149.1030 C   0  0  2  0  0  3  0  0  0  0  0  0
  160.1020  201.5850  147.3230 C   0  0  0  0  0  2  0  0  0  0  0  0
  160.6000  201.6360  145.8850 C   0  0  2  0  0  3  0  0  0  0  0  0
  161.2870  204.6520  147.6330 C   0  0  1  0  0  3  0  0  0  0  0  0
  162.1580  200.9310  148.2800 O   0  0  0  0  0  0  0  0  0  0  0  0
  159.9820  202.7810  145.0700 C   0  0  0  0  0  2  0  0  0  0  0  0
  161.5810  204.2530  146.2380 N   0  0  1  0  0  0  0  0  0  0  0  0
  160.2610  204.1820  145.6220 C   0  0  0  0  0  2  0  0  0  0  0  0
  162.1570  203.9590  148.4820 O   0  0  0  0  0  0  0  0  0  0  0  0
  159.6380  200.2690  144.1880 O   0  0  0  0  0  0  0  0  0  0  0  0
  160.9830  199.1690  145.6840 O   0  0  0  0  0  1  0  0  0  0  0  0
  160.3690  200.3250  145.2120 C   0  0  0  0  0  0  0  0  0  0  0  0
  1 12  1  0  0  0  0
  1  4  1  1  0  0  0
  2 12  1  0  0  0  0
  3 38  1  6  0  0  0
  3  8  1  0  0  0  0
  6  5  1  1  0  0  0
  6 14  1  0  0  0  0
  6  2  1  0  0  0  0
  8  4  1  0  0  0  0
  9 10  1  6  0  0  0
  9  1  1  0  0  0  0
 10  5  1  0  0  0  0
 11  9  1  0  0  0  0
 11  3  1  0  0  0  0
 12  7  2  0  0  0  0
 13 33  1  6  0  0  0
 13 16  1  0  0  0  0
 13 24  1  0  0  0  0
 14 16  1  6  0  0  0
 14 19  1  0  0  0  0
 17 25  1  0  0  0  0
 18 17  1  0  0  0  0
 19 23  1  0  0  0  0
 20 28  1  0  0  0  0
 21 27  1  0  0  0  0
 21 18  1  0  0  0  0
 22 27  1  0  0  0  0
 23 20  1  0  0  0  0
 23 15  2  0  0  0  0
 24 19  1  0  0  0  0
 24 22  1  1  0  0  0
 25 30  1  6  0  0  0
 27 26  2  0  0  0  0
 28 25  1  0  0  0  0
 29 30  2  0  0  0  0
 30 31  1  0  0  0  0
 32 31  1  0  0  0  0
 34 33  1  0  0  0  0
 35 34  1  0  0  0  0
 36 35  1  0  0  0  0
 37 36  1  0  0  0  0
 39 41  1  0  0  0  0
 40 47  2  0  0  0  0
 40 43  1  0  0  0  0
 41 42  1  1  0  0  0
 41 46  1  0  0  0  0
 43 38  1  1  0  0  0
 44 40  1  0  0  0  0
 45 54  1  6  0  0  0
 45 44  1  0  0  0  0
 46 51  1  1  0  0  0
 48 50  1  0  0  0  0
 48 45  1  0  0  0  0
 49 50  1  6  0  0  0
 49 41  1  0  0  0  0
 49 46  1  0  0  0  0
 51 43  1  0  0  0  0
 52 54  2  0  0  0  0
 54 53  1  0  0  0  0
M  END
>  <MODEL>
5

>  <REMARK>
 VINA RESULT:      -2.0      4.873      9.493
  Name = 
  10 active torsions:
  status: ('A' for Active; 'I' for Inactive)
    1  A    between atoms: C_2  and  C_33
    2  A    between atoms: C_4  and  C_13
    3  A    between atoms: C_4  and  C_17
    4  A    between atoms: C_11  and  C_20
    5  A    between atoms: C_11  and  C_46
    6  A    between atoms: C_12  and  C_34
    7  A    between atoms: O_19  and  C_25
    8  A    between atoms: C_25  and  C_40
    9  A    between atoms: C_26  and  C_35
   10  A    between atoms: C_33  and  C_46
                            x       y       z     vdW  Elec       q    Type
                         _______ _______ _______ _____ _____    ______ ____

>  <TORSDO>
F 10

$$$$
