=
 OpenBabel11052411493D

 40 44  0  0  1  0  0  0  0  0999 V2000
  161.9580  209.4670  148.6560 C   0  0  0  0  0  1  0  0  0  0  0  0
  159.2380  213.5570  150.2320 C   0  0  0  0  0  1  0  0  0  0  0  0
  159.8200  212.6680  151.3110 C   0  0  1  0  0  0  0  0  0  0  0  0
  159.2320  212.0000  154.6810 C   0  0  0  0  0  2  0  0  0  0  0  0
  160.4460  211.4060  150.6810 C   0  0  1  0  0  3  0  0  0  0  0  0
  160.1780  210.2580  153.0040 C   0  0  1  0  0  0  0  0  0  0  0  0
  161.7410  211.5510  149.8890 C   0  0  1  0  0  3  0  0  0  0  0  0
  159.0490  211.2570  153.3490 C   0  0  2  0  0  3  0  0  0  0  0  0
  160.2200  211.3540  155.6650 C   0  0  2  0  0  3  0  0  0  0  0  0
  160.3640  208.9940  153.8430 C   0  0  0  0  0  2  0  0  0  0  0  0
  160.7660  213.4030  152.0320 O   0  0  0  0  0  1  0  0  0  0  0  0
  160.8570  210.3540  151.6810 C   0  0  2  0  0  0  0  0  0  0  0  0
  159.8200  209.9460  156.1590 C   0  0  1  0  0  3  0  0  0  0  0  0
  162.4010  210.2200  149.8320 N   0  0  0  0  0  0  0  0  0  0  0  0
  161.3900  210.9420  152.8530 O   0  0  0  0  0  0  0  0  0  0  0  0
  161.9980  209.5490  151.0960 C   0  0  2  0  0  3  0  0  0  0  0  0
  158.6640  212.2390  152.2260 C   0  0  0  0  0  2  0  0  0  0  0  0
  159.4140  208.9720  155.0410 C   0  0  0  0  0  2  0  0  0  0  0  0
  161.7500  208.0600  151.0310 C   0  0  0  0  0  0  0  0  0  0  0  0
  161.3440  205.2890  150.9410 C   0  0  0  0  0  0  0  0  0  0  0  0
  162.2070  205.8390  151.8920 C   0  0  0  0  0  3  0  0  0  0  0  0
  162.4120  207.2220  151.9360 C   0  0  0  0  0  3  0  0  0  0  0  0
  160.6860  206.1200  150.0310 C   0  0  0  0  0  3  0  0  0  0  0  0
  160.8890  207.5020  150.0720 C   0  0  0  0  0  3  0  0  0  0  0  0
  160.9660  202.7250  150.8630 N   0  0  0  0  0  0  0  0  0  0  0  0
  161.1350  203.8700  150.8980 C   0  0  0  0  0  0  0  0  0  0  0  0
  160.9470  209.3350  156.9820 C   0  0  0  0  0  2  0  0  0  0  0  0
  160.7080  207.9760  157.1860 O   0  0  0  0  0  1  0  0  0  0  0  0
  161.6670  212.3680  148.5800 C   0  0  1  0  0  3  0  0  0  0  0  0
  163.0350  212.5200  147.9390 C   0  0  0  0  0  1  0  0  0  0  0  0
  160.4400  211.7490  147.3740 S   0  0  0  0  0  0  0  0  0  0  0  0
  160.9180  212.9610  146.1070 C   0  0  2  0  0  3  0  0  0  0  0  0
  160.1280  214.2370  146.3200 C   0  0  0  0  0  1  0  0  0  0  0  0
  160.6340  212.4240  144.7840 N   0  0  0  0  0  2  0  0  0  0  0  0
  161.6990  212.1570  142.7350 O   0  0  0  0  0  1  0  0  0  0  0  0
  161.6210  212.9690  143.8650 C   0  0  0  0  0  3  0  0  0  0  0  0
  162.8700  213.0150  144.4880 O   0  0  0  0  0  1  0  0  0  0  0  0
  160.4680  212.3060  156.8320 C   0  0  0  0  0  2  0  0  0  0  0  0
  159.9820  214.4480  157.0460 C   0  0  0  0  0  1  0  0  0  0  0  0
  159.3940  213.1850  156.9910 O   0  0  0  0  0  0  0  0  0  0  0  0
  1 14  1  0  0  0  0
  3  2  1  6  0  0  0
  3 11  1  0  0  0  0
  3 17  1  0  0  0  0
  4  9  1  0  0  0  0
  5  3  1  0  0  0  0
  5 12  1  0  0  0  0
  6  8  1  0  0  0  0
  6 10  1  0  0  0  0
  7  5  1  0  0  0  0
  8  4  1  0  0  0  0
  9 13  1  0  0  0  0
  9 38  1  0  0  0  0
 10 18  1  0  0  0  0
 12 15  1  0  0  0  0
 12  6  1  0  0  0  0
 13 27  1  0  0  0  0
 14  7  1  0  0  0  0
 14 16  1  0  0  0  0
 15  6  1  0  0  0  0
 16 12  1  0  0  0  0
 17  8  1  0  0  0  0
 18 13  1  0  0  0  0
 19 16  1  0  0  0  0
 19 22  1  0  0  0  0
 20 21  1  0  0  0  0
 21 22  2  0  0  0  0
 23 24  1  0  0  0  0
 23 20  2  0  0  0  0
 24 19  2  0  0  0  0
 25 26  3  0  0  0  0
 26 20  1  0  0  0  0
 27 28  1  0  0  0  0
 29  7  1  0  0  0  0
 30 29  1  0  0  0  0
 31 29  1  0  0  0  0
 32 33  1  0  0  0  0
 32 31  1  0  0  0  0
 34 32  1  0  0  0  0
 35 36  1  0  0  0  0
 36 37  1  0  0  0  0
 36 34  1  0  0  0  0
 38 40  1  0  0  0  0
 40 39  1  0  0  0  0
M  END
>  <MODEL>
1

>  <REMARK>
 VINA RESULT:      -4.5      0.000      0.000
  Name = 
  10 active torsions:
  status: ('A' for Active; 'I' for Inactive)
    1  A    between atoms: C_7  and  C_21
    2  A    between atoms: C_9  and  C_20
    3  A    between atoms: C_10  and  C_30
    4  A    between atoms: C_14  and  N_29
    5  A    between atoms: C_14  and  S_32
    6  A    between atoms: C_16  and  C_36
    7  A    between atoms: O_19  and  C_30
    8  A    between atoms: C_21  and  S_32
    9  A    between atoms: C_22  and  C_40
   10  A    between atoms: C_24  and  N_29
                            x       y       z     vdW  Elec       q    Type
                         _______ _______ _______ _____ _____    ______ ____

>  <TORSDO>
F 10

$$$$
=
 OpenBabel11052411493D

 40 44  0  0  1  0  0  0  0  0999 V2000
  161.9350  209.2030  148.6420 C   0  0  0  0  0  1  0  0  0  0  0  0
  159.3970  213.0800  150.9110 C   0  0  0  0  0  1  0  0  0  0  0  0
  160.0010  212.0330  151.8240 C   0  0  1  0  0  0  0  0  0  0  0  0
  159.5410  210.8990  155.0870 C   0  0  0  0  0  2  0  0  0  0  0  0
  160.5650  210.8610  150.9910 C   0  0  1  0  0  3  0  0  0  0  0  0
  160.3660  209.3980  153.1370 C   0  0  1  0  0  0  0  0  0  0  0  0
  161.8280  211.0920  150.1690 C   0  0  1  0  0  3  0  0  0  0  0  0
  159.2810  210.3590  153.6730 C   0  0  2  0  0  3  0  0  0  0  0  0
  160.5530  210.0970  155.9220 C   0  0  2  0  0  3  0  0  0  0  0  0
  160.5540  208.0220  153.7770 C   0  0  0  0  0  2  0  0  0  0  0  0
  160.9970  212.6360  152.5980 O   0  0  0  0  0  1  0  0  0  0  0  0
  160.9900  209.6680  151.8110 C   0  0  2  0  0  0  0  0  0  0  0  0
  160.1360  208.6420  156.2280 C   0  0  1  0  0  3  0  0  0  0  0  0
  162.4490  209.7700  149.8920 N   0  0  0  0  0  0  0  0  0  0  0  0
  161.5890  210.0710  153.0290 O   0  0  0  0  0  0  0  0  0  0  0  0
  162.0830  208.9330  151.0650 C   0  0  2  0  0  3  0  0  0  0  0  0
  158.8750  211.5000  152.7220 C   0  0  0  0  0  2  0  0  0  0  0  0
  159.6570  207.8470  155.0030 C   0  0  0  0  0  2  0  0  0  0  0  0
  161.7920  207.4740  150.7990 C   0  0  0  0  0  0  0  0  0  0  0  0
  161.1990  204.7860  150.2780 C   0  0  0  0  0  0  0  0  0  0  0  0
  160.5860  205.7950  149.5310 C   0  0  0  0  0  3  0  0  0  0  0  0
  160.8800  207.1370  149.7920 C   0  0  0  0  0  3  0  0  0  0  0  0
  162.1060  205.1170  151.2890 C   0  0  0  0  0  3  0  0  0  0  0  0
  162.4010  206.4570  151.5520 C   0  0  0  0  0  3  0  0  0  0  0  0
  160.6530  202.2980  149.7930 N   0  0  0  0  0  0  0  0  0  0  0  0
  160.8970  203.4080  150.0090 C   0  0  0  0  0  0  0  0  0  0  0  0
  161.2810  207.8950  156.9020 C   0  0  0  0  0  2  0  0  0  0  0  0
  160.8700  206.6110  157.2600 O   0  0  0  0  0  1  0  0  0  0  0  0
  161.7200  212.0900  148.9960 C   0  0  1  0  0  3  0  0  0  0  0  0
  163.0870  212.4570  148.4460 C   0  0  0  0  0  1  0  0  0  0  0  0
  160.5940  211.5600  147.6570 S   0  0  0  0  0  0  0  0  0  0  0  0
  159.9120  213.2280  147.4260 C   0  0  2  0  0  3  0  0  0  0  0  0
  158.4010  213.1360  147.3350 C   0  0  0  0  0  1  0  0  0  0  0  0
  160.4410  213.8090  146.2010 N   0  0  0  0  0  2  0  0  0  0  0  0
  162.1810  213.0620  144.8520 O   0  0  0  0  0  1  0  0  0  0  0  0
  160.9340  212.7200  145.3730 C   0  0  0  0  0  3  0  0  0  0  0  0
  160.0440  212.4850  144.3240 O   0  0  0  0  0  1  0  0  0  0  0  0
  160.8770  210.8660  157.2000 C   0  0  0  0  0  2  0  0  0  0  0  0
  163.0810  210.9620  157.2600 C   0  0  0  0  0  1  0  0  0  0  0  0
  161.9510  211.7360  156.9960 O   0  0  0  0  0  0  0  0  0  0  0  0
  1 14  1  0  0  0  0
  3  2  1  6  0  0  0
  3 11  1  0  0  0  0
  3 17  1  0  0  0  0
  4  9  1  0  0  0  0
  5 12  1  0  0  0  0
  5  3  1  0  0  0  0
  6  8  1  0  0  0  0
  6 10  1  0  0  0  0
  7  5  1  0  0  0  0
  8  4  1  0  0  0  0
  9 13  1  0  0  0  0
  9 38  1  0  0  0  0
 10 18  1  0  0  0  0
 12 15  1  0  0  0  0
 12  6  1  0  0  0  0
 13 27  1  0  0  0  0
 14  7  1  0  0  0  0
 14 16  1  0  0  0  0
 15  6  1  0  0  0  0
 16 12  1  0  0  0  0
 17  8  1  0  0  0  0
 18 13  1  0  0  0  0
 19 16  1  0  0  0  0
 19 24  1  0  0  0  0
 20 23  1  0  0  0  0
 21 22  1  0  0  0  0
 21 20  2  0  0  0  0
 22 19  2  0  0  0  0
 23 24  2  0  0  0  0
 25 26  3  0  0  0  0
 26 20  1  0  0  0  0
 27 28  1  0  0  0  0
 29  7  1  0  0  0  0
 30 29  1  0  0  0  0
 31 29  1  0  0  0  0
 32 31  1  0  0  0  0
 33 32  1  0  0  0  0
 34 32  1  0  0  0  0
 35 36  1  0  0  0  0
 36 34  1  0  0  0  0
 37 36  1  0  0  0  0
 40 38  1  0  0  0  0
 40 39  1  0  0  0  0
M  END
>  <MODEL>
2

>  <REMARK>
 VINA RESULT:      -4.5      1.246      1.659
  Name = 
  10 active torsions:
  status: ('A' for Active; 'I' for Inactive)
    1  A    between atoms: C_7  and  C_21
    2  A    between atoms: C_9  and  C_20
    3  A    between atoms: C_10  and  C_30
    4  A    between atoms: C_14  and  N_29
    5  A    between atoms: C_14  and  S_32
    6  A    between atoms: C_16  and  C_36
    7  A    between atoms: O_19  and  C_30
    8  A    between atoms: C_21  and  S_32
    9  A    between atoms: C_22  and  C_40
   10  A    between atoms: C_24  and  N_29
                            x       y       z     vdW  Elec       q    Type
                         _______ _______ _______ _____ _____    ______ ____

>  <TORSDO>
F 10

$$$$
