=
 OpenBabel11042422313D

 26 29  0  0  1  0  0  0  0  0999 V2000
  160.3530  203.1180  149.0640 C   0  0  1  0  0  3  0  0  0  0  0  0
  161.6430  203.4210  151.1340 C   0  0  0  0  0  3  0  0  0  0  0  0
  160.3350  205.4110  150.2490 C   0  0  1  0  0  3  0  0  0  0  0  0
  159.7590  205.8300  148.9610 N   0  0  0  0  0  0  0  0  0  0  0  0
  161.4100  200.5930  148.5860 N   0  0  0  0  0  2  0  0  0  0  0  0
  161.8120  205.4830  147.5980 C   0  0  2  0  0  3  0  0  0  0  0  0
  159.8170  206.4190  146.6980 O   0  0  0  0  0  0  0  0  0  0  0  0
  161.3170  205.0720  152.9840 C   0  0  0  0  0  2  0  0  0  0  0  0
  160.8280  203.9720  150.2070 C   0  0  0  0  0  0  0  0  0  0  0  0
  161.4370  202.8930  148.0440 C   0  0  0  0  0  0  0  0  0  0  0  0
  160.7870  206.6200  145.6890 C   0  0  0  0  0  2  0  0  0  0  0  0
  162.0000  204.0110  147.2460 C   0  0  0  0  0  0  0  0  0  0  0  0
  160.6660  200.7850  149.7640 N   0  0  0  0  0  2  0  0  0  0  0  0
  160.3890  205.8640  147.8210 C   0  0  0  0  0  0  0  0  0  0  0  0
  162.1320  206.3500  146.3740 C   0  0  0  0  0  2  0  0  0  0  0  0
  161.8800  201.6880  147.8390 N   0  0  0  0  0  0  0  0  0  0  0  0
  159.6700  201.8150  149.4990 C   0  0  0  0  0  2  0  0  0  0  0  0
  162.7590  203.7140  146.2810 O   0  0  0  0  0  0  0  0  0  0  0  0
  161.3780  206.4140  150.7920 C   0  0  2  0  0  3  0  0  0  0  0  0
  162.2810  204.1190  152.3030 C   0  0  0  0  0  2  0  0  0  0  0  0
  161.3720  206.4510  152.3300 C   0  0  0  0  0  2  0  0  0  0  0  0
  161.2290  207.8300  150.2200 C   0  0  1  0  0  3  0  0  0  0  0  0
  160.8870  208.7410  151.2240 O   0  0  0  0  0  1  0  0  0  0  0  0
  162.5050  208.2670  149.5120 C   0  0  0  0  0  2  0  0  0  0  0  0
  162.2600  210.5860  148.9900 O   0  0  0  0  0  1  0  0  0  0  0  0
  162.2060  209.3040  148.4440 C   0  0  0  0  0  2  0  0  0  0  0  0
  1 17  1  1  0  0  0
  1  9  1  0  0  0  0
  2 20  1  0  0  0  0
  3  4  1  6  0  0  0
  3 19  1  0  0  0  0
  5 13  1  0  0  0  0
  6 15  1  6  0  0  0
  6 14  1  0  0  0  0
  7 14  1  0  0  0  0
  9  3  1  0  0  0  0
  9  2  2  0  0  0  0
 10  1  1  0  0  0  0
 11 15  1  0  0  0  0
 11  7  1  0  0  0  0
 12  6  1  0  0  0  0
 12 10  1  0  0  0  0
 14  4  2  0  0  0  0
 16 10  2  0  0  0  0
 16  5  1  0  0  0  0
 17 13  1  0  0  0  0
 18 12  2  0  0  0  0
 19 22  1  6  0  0  0
 19 21  1  0  0  0  0
 20  8  1  0  0  0  0
 21  8  1  0  0  0  0
 22 23  1  1  0  0  0
 24 22  1  0  0  0  0
 26 25  1  0  0  0  0
 26 24  1  0  0  0  0
M  END
>  <MODEL>
1

>  <REMARK>
 VINA RESULT:      -5.8      0.000      0.000
  Name = 
  3 active torsions:
  status: ('A' for Active; 'I' for Inactive)
    1  A    between atoms: C_3  and  C_14
    2  A    between atoms: C_3  and  C_24
    3  A    between atoms: C_14  and  C_23
                            x       y       z     vdW  Elec       q    Type
                         _______ _______ _______ _____ _____    ______ ____

>  <TORSDO>
F 3

$$$$
=
 OpenBabel11042422313D

 26 29  0  0  1  0  0  0  0  0999 V2000
  161.8400  209.7360  152.7520 C   0  0  1  0  0  3  0  0  0  0  0  0
  159.8940  211.0460  152.0190 C   0  0  0  0  0  3  0  0  0  0  0  0
  160.8320  211.5090  154.3340 C   0  0  1  0  0  3  0  0  0  0  0  0
  161.6730  210.8010  155.3120 N   0  0  0  0  0  0  0  0  0  0  0  0
  161.7340  208.0480  150.5480 N   0  0  0  0  0  2  0  0  0  0  0  0
  160.3790  208.6760  155.3240 C   0  0  2  0  0  3  0  0  0  0  0  0
  162.2270  209.0610  156.7740 O   0  0  0  0  0  0  0  0  0  0  0  0
  159.1140  213.2970  152.7820 C   0  0  0  0  0  2  0  0  0  0  0  0
  160.7930  210.7870  152.9950 C   0  0  0  0  0  0  0  0  0  0  0  0
  161.2690  208.3450  152.8450 C   0  0  0  0  0  0  0  0  0  0  0  0
  161.6400  207.8700  157.2610 C   0  0  0  0  0  2  0  0  0  0  0  0
  160.7290  207.8090  154.1190 C   0  0  0  0  0  0  0  0  0  0  0  0
  161.9540  209.4180  150.3200 N   0  0  0  0  0  2  0  0  0  0  0  0
  161.4830  209.5860  155.7420 C   0  0  0  0  0  0  0  0  0  0  0  0
  160.2700  207.7960  156.5760 C   0  0  0  0  0  2  0  0  0  0  0  0
  161.2670  207.5850  151.7900 N   0  0  0  0  0  0  0  0  0  0  0  0
  162.6620  209.9550  151.4760 C   0  0  0  0  0  2  0  0  0  0  0  0
  160.4520  206.5770  154.1620 O   0  0  0  0  0  0  0  0  0  0  0  0
  159.4360  211.8660  154.8930 C   0  0  2  0  0  3  0  0  0  0  0  0
  158.7340  212.0010  152.0900 C   0  0  0  0  0  2  0  0  0  0  0  0
  158.9110  213.1810  154.2910 C   0  0  0  0  0  2  0  0  0  0  0  0
  159.3790  211.9170  156.4260 C   0  0  1  0  0  3  0  0  0  0  0  0
  159.4280  213.2370  156.8840 O   0  0  0  0  0  1  0  0  0  0  0  0
  158.1320  211.2150  156.9470 C   0  0  0  0  0  2  0  0  0  0  0  0
  155.9950  212.0570  156.2840 O   0  0  0  0  0  1  0  0  0  0  0  0
  157.0190  212.2130  157.2180 C   0  0  0  0  0  2  0  0  0  0  0  0
  1 17  1  6  0  0  0
  1 10  1  0  0  0  0
  1  9  1  0  0  0  0
  2 20  1  0  0  0  0
  2  9  2  0  0  0  0
  3  9  1  6  0  0  0
  3 19  1  0  0  0  0
  3  4  1  0  0  0  0
  4 14  2  0  0  0  0
  5 16  1  0  0  0  0
  6 14  1  0  0  0  0
  6 15  1  1  0  0  0
  7 11  1  0  0  0  0
  8 21  1  0  0  0  0
 10 12  1  0  0  0  0
 12 18  2  0  0  0  0
 12  6  1  0  0  0  0
 13  5  1  0  0  0  0
 13 17  1  0  0  0  0
 14  7  1  0  0  0  0
 15 11  1  0  0  0  0
 16 10  2  0  0  0  0
 19 22  1  1  0  0  0
 20  8  1  0  0  0  0
 21 19  1  0  0  0  0
 22 23  1  6  0  0  0
 22 24  1  0  0  0  0
 24 26  1  0  0  0  0
 25 26  1  0  0  0  0
M  END
>  <MODEL>
2

>  <REMARK>
 VINA RESULT:      -5.4      5.724      8.598
  Name = 
  3 active torsions:
  status: ('A' for Active; 'I' for Inactive)
    1  A    between atoms: C_3  and  C_14
    2  A    between atoms: C_3  and  C_24
    3  A    between atoms: C_14  and  C_23
                            x       y       z     vdW  Elec       q    Type
                         _______ _______ _______ _____ _____    ______ ____

>  <TORSDO>
F 3

$$$$
=
 OpenBabel11042422313D

 26 29  0  0  1  0  0  0  0  0999 V2000
  161.3560  209.9110  154.7930 C   0  0  1  0  0  3  0  0  0  0  0  0
  160.9180  207.5070  154.5240 C   0  0  0  0  0  3  0  0  0  0  0  0
  161.9060  208.7620  152.5480 C   0  0  1  0  0  3  0  0  0  0  0  0
  161.9940  210.1610  152.1010 N   0  0  0  0  0  0  0  0  0  0  0  0
  160.0830  210.0280  157.2610 N   0  0  0  0  0  2  0  0  0  0  0  0
  159.5730  210.6910  152.3260 C   0  0  2  0  0  3  0  0  0  0  0  0
  161.1460  212.2340  151.4260 O   0  0  0  0  0  0  0  0  0  0  0  0
  161.9680  205.8650  152.9560 C   0  0  0  0  0  2  0  0  0  0  0  0
  161.3660  208.6550  153.9670 C   0  0  0  0  0  0  0  0  0  0  0  0
  159.9660  210.4710  154.9430 C   0  0  0  0  0  0  0  0  0  0  0  0
  159.8860  212.8160  151.1540 C   0  0  0  0  0  2  0  0  0  0  0  0
  159.2040  210.9850  153.7770 C   0  0  0  0  0  0  0  0  0  0  0  0
  161.2120  209.1980  157.1390 N   0  0  0  0  0  2  0  0  0  0  0  0
  160.9960  210.9930  152.0030 C   0  0  0  0  0  0  0  0  0  0  0  0
  158.8700  211.6950  151.4040 C   0  0  0  0  0  2  0  0  0  0  0  0
  159.4250  210.5280  156.1240 N   0  0  0  0  0  0  0  0  0  0  0  0
  162.0900  209.7830  156.1340 C   0  0  0  0  0  2  0  0  0  0  0  0
  158.1330  211.6130  154.0120 O   0  0  0  0  0  0  0  0  0  0  0  0
  161.1760  207.8540  151.5320 C   0  0  2  0  0  3  0  0  0  0  0  0
  160.7800  206.1700  153.8500 C   0  0  0  0  0  2  0  0  0  0  0  0
  161.7420  206.4240  151.5530 C   0  0  0  0  0  2  0  0  0  0  0  0
  161.1720  208.4090  150.1010 C   0  0  1  0  0  3  0  0  0  0  0  0
  162.4100  208.9730  149.7790 O   0  0  0  0  0  1  0  0  0  0  0  0
  160.8020  207.3230  149.0990 C   0  0  0  0  0  2  0  0  0  0  0  0
  161.3470  206.5440  146.9060 O   0  0  0  0  0  1  0  0  0  0  0  0
  161.8710  207.1840  148.0290 C   0  0  0  0  0  2  0  0  0  0  0  0
  1 10  1  0  0  0  0
  1 17  1  1  0  0  0
  3  4  1  6  0  0  0
  3  9  1  0  0  0  0
  6 15  1  6  0  0  0
  6 12  1  0  0  0  0
  7 14  1  0  0  0  0
  8 20  1  0  0  0  0
  9  2  2  0  0  0  0
  9  1  1  0  0  0  0
 10 16  2  0  0  0  0
 11 15  1  0  0  0  0
 11  7  1  0  0  0  0
 12 18  2  0  0  0  0
 12 10  1  0  0  0  0
 13  5  1  0  0  0  0
 14  4  2  0  0  0  0
 14  6  1  0  0  0  0
 16  5  1  0  0  0  0
 17 13  1  0  0  0  0
 19 22  1  6  0  0  0
 19 21  1  0  0  0  0
 19  3  1  0  0  0  0
 20  2  1  0  0  0  0
 21  8  1  0  0  0  0
 22 23  1  6  0  0  0
 24 22  1  0  0  0  0
 25 26  1  0  0  0  0
 26 24  1  0  0  0  0
M  END
>  <MODEL>
3

>  <REMARK>
 VINA RESULT:      -3.9      4.450      7.452
  Name = 
  3 active torsions:
  status: ('A' for Active; 'I' for Inactive)
    1  A    between atoms: C_3  and  C_14
    2  A    between atoms: C_3  and  C_24
    3  A    between atoms: C_14  and  C_23
                            x       y       z     vdW  Elec       q    Type
                         _______ _______ _______ _____ _____    ______ ____

>  <TORSDO>
F 3

$$$$
=
 OpenBabel11042422313D

 26 29  0  0  1  0  0  0  0  0999 V2000
  162.3280  206.0330  148.9870 C   0  0  1  0  0  3  0  0  0  0  0  0
  160.8090  204.7920  150.4670 C   0  0  0  0  0  3  0  0  0  0  0  0
  162.0410  203.4870  148.6680 C   0  0  1  0  0  3  0  0  0  0  0  0
  162.7130  203.7900  147.3940 N   0  0  0  0  0  0  0  0  0  0  0  0
  161.5290  208.5040  149.9750 N   0  0  0  0  0  2  0  0  0  0  0  0
  160.8470  205.0870  146.3820 C   0  0  2  0  0  3  0  0  0  0  0  0
  162.8450  204.5730  145.1940 O   0  0  0  0  0  0  0  0  0  0  0  0
  160.8100  202.3650  151.0730 C   0  0  0  0  0  2  0  0  0  0  0  0
  161.6710  204.7550  149.4260 C   0  0  0  0  0  0  0  0  0  0  0  0
  161.3770  206.9200  148.2270 C   0  0  0  0  0  0  0  0  0  0  0  0
  161.9720  205.0890  144.2090 C   0  0  0  0  0  2  0  0  0  0  0  0
  160.8140  206.5160  146.9150 C   0  0  0  0  0  0  0  0  0  0  0  0
  162.1300  207.5990  150.8680 N   0  0  0  0  0  2  0  0  0  0  0  0
  162.2050  204.4740  146.4090 C   0  0  0  0  0  0  0  0  0  0  0  0
  160.5890  205.0970  144.8700 C   0  0  0  0  0  2  0  0  0  0  0  0
  161.0550  208.0790  148.7220 N   0  0  0  0  0  0  0  0  0  0  0  0
  163.0630  206.7760  150.1090 C   0  0  0  0  0  2  0  0  0  0  0  0
  160.1850  207.3910  146.2560 O   0  0  0  0  0  0  0  0  0  0  0  0
  160.8710  202.4920  148.5060 C   0  0  2  0  0  3  0  0  0  0  0  0
  160.0000  203.6470  151.0110 C   0  0  0  0  0  2  0  0  0  0  0  0
  160.7140  201.6040  149.7520 C   0  0  0  0  0  2  0  0  0  0  0  0
  160.9660  201.6280  147.2410 C   0  0  1  0  0  3  0  0  0  0  0  0
  161.3240  200.3140  147.5570 O   0  0  0  0  0  1  0  0  0  0  0  0
  159.6550  201.6540  146.4660 C   0  0  0  0  0  2  0  0  0  0  0  0
  160.0870  200.2860  144.5540 O   0  0  0  0  0  1  0  0  0  0  0  0
  159.9080  201.6060  144.9680 C   0  0  0  0  0  2  0  0  0  0  0  0
  1  9  1  0  0  0  0
  1 17  1  1  0  0  0
  2 20  1  0  0  0  0
  3  4  1  6  0  0  0
  3  9  1  0  0  0  0
  5 13  1  0  0  0  0
  6 15  1  6  0  0  0
  6 14  1  0  0  0  0
  6 12  1  0  0  0  0
  7 14  1  0  0  0  0
  9  2  2  0  0  0  0
 10 16  2  0  0  0  0
 10  1  1  0  0  0  0
 11 15  1  0  0  0  0
 11  7  1  0  0  0  0
 12 10  1  0  0  0  0
 14  4  2  0  0  0  0
 16  5  1  0  0  0  0
 17 13  1  0  0  0  0
 18 12  2  0  0  0  0
 19 22  1  6  0  0  0
 19  3  1  0  0  0  0
 19 21  1  0  0  0  0
 20  8  1  0  0  0  0
 21  8  1  0  0  0  0
 22 23  1  1  0  0  0
 24 22  1  0  0  0  0
 25 26  1  0  0  0  0
 26 24  1  0  0  0  0
M  END
>  <MODEL>
4

>  <REMARK>
 VINA RESULT:      -3.7      2.378      5.498
  Name = 
  3 active torsions:
  status: ('A' for Active; 'I' for Inactive)
    1  A    between atoms: C_3  and  C_14
    2  A    between atoms: C_3  and  C_24
    3  A    between atoms: C_14  and  C_23
                            x       y       z     vdW  Elec       q    Type
                         _______ _______ _______ _____ _____    ______ ____

>  <TORSDO>
F 3

$$$$
=
 OpenBabel11042422313D

 26 29  0  0  1  0  0  0  0  0999 V2000
  160.8050  205.3770  147.0580 C   0  0  1  0  0  3  0  0  0  0  0  0
  161.5810  203.0900  147.5140 C   0  0  0  0  0  3  0  0  0  0  0  0
  160.2970  204.2940  149.3460 C   0  0  1  0  0  3  0  0  0  0  0  0
  159.9730  205.6880  149.6900 N   0  0  0  0  0  0  0  0  0  0  0  0
  162.1940  205.5410  144.6570 N   0  0  0  0  0  2  0  0  0  0  0  0
  162.2950  206.5700  149.5540 C   0  0  2  0  0  3  0  0  0  0  0  0
  160.4560  207.9030  150.2640 O   0  0  0  0  0  0  0  0  0  0  0  0
  160.6960  201.4040  149.1360 C   0  0  0  0  0  2  0  0  0  0  0  0
  160.9330  204.1860  147.9670 C   0  0  0  0  0  0  0  0  0  0  0  0
  162.1010  206.1350  146.9430 C   0  0  0  0  0  0  0  0  0  0  0  0
  161.5950  208.6880  150.5600 C   0  0  0  0  0  2  0  0  0  0  0  0
  162.7040  206.8290  148.1070 C   0  0  0  0  0  0  0  0  0  0  0  0
  161.1970  204.5550  144.7770 N   0  0  0  0  0  2  0  0  0  0  0  0
  160.8260  206.6680  149.7830 C   0  0  0  0  0  0  0  0  0  0  0  0
  162.7810  207.7240  150.4400 C   0  0  0  0  0  2  0  0  0  0  0  0
  162.6980  206.2030  145.7890 N   0  0  0  0  0  0  0  0  0  0  0  0
  160.1810  205.0580  145.6940 C   0  0  0  0  0  2  0  0  0  0  0  0
  163.6800  207.6000  147.8860 O   0  0  0  0  0  0  0  0  0  0  0  0
  161.0910  203.5730  150.4580 C   0  0  2  0  0  3  0  0  0  0  0  0
  161.8770  201.8330  148.2850 C   0  0  0  0  0  2  0  0  0  0  0  0
  160.7490  202.0740  150.5070 C   0  0  0  0  0  2  0  0  0  0  0  0
  160.9240  204.2060  151.8460 C   0  0  1  0  0  3  0  0  0  0  0  0
  160.4560  203.2680  152.7710 O   0  0  0  0  0  1  0  0  0  0  0  0
  162.2330  204.8220  152.3220 C   0  0  0  0  0  2  0  0  0  0  0  0
  160.7990  206.5210  153.2010 O   0  0  0  0  0  1  0  0  0  0  0  0
  161.9870  205.8280  153.4340 C   0  0  0  0  0  2  0  0  0  0  0  0
  1 17  1  6  0  0  0
  1  9  1  0  0  0  0
  2  9  2  0  0  0  0
  2 20  1  0  0  0  0
  3  9  1  6  0  0  0
  3  4  1  0  0  0  0
  3 19  1  0  0  0  0
  4 14  2  0  0  0  0
  5 13  1  0  0  0  0
  5 16  1  0  0  0  0
  6 14  1  0  0  0  0
  6 15  1  1  0  0  0
  7 11  1  0  0  0  0
  8 21  1  0  0  0  0
 10  1  1  0  0  0  0
 10 12  1  0  0  0  0
 12  6  1  0  0  0  0
 13 17  1  0  0  0  0
 14  7  1  0  0  0  0
 15 11  1  0  0  0  0
 16 10  2  0  0  0  0
 18 12  2  0  0  0  0
 19 21  1  0  0  0  0
 19 22  1  1  0  0  0
 20  8  1  0  0  0  0
 22 24  1  0  0  0  0
 22 23  1  1  0  0  0
 24 26  1  0  0  0  0
 25 26  1  0  0  0  0
M  END
>  <MODEL>
5

>  <REMARK>
 VINA RESULT:      -3.6      2.363      4.369
  Name = 
  3 active torsions:
  status: ('A' for Active; 'I' for Inactive)
    1  A    between atoms: C_3  and  C_14
    2  A    between atoms: C_3  and  C_24
    3  A    between atoms: C_14  and  C_23
                            x       y       z     vdW  Elec       q    Type
                         _______ _______ _______ _____ _____    ______ ____

>  <TORSDO>
F 3

$$$$
=
 OpenBabel11042422313D

 26 29  0  0  1  0  0  0  0  0999 V2000
  159.3300  213.0230  155.0210 C   0  0  1  0  0  3  0  0  0  0  0  0
  159.1190  210.7170  155.8430 C   0  0  0  0  0  3  0  0  0  0  0  0
  160.6830  211.1400  153.8860 C   0  0  1  0  0  3  0  0  0  0  0  0
  160.8620  212.1820  152.8620 N   0  0  0  0  0  0  0  0  0  0  0  0
  157.2670  213.9550  156.6320 N   0  0  0  0  0  2  0  0  0  0  0  0
  158.4960  212.2430  152.0930 C   0  0  2  0  0  3  0  0  0  0  0  0
  160.2170  213.5160  151.0520 O   0  0  0  0  0  0  0  0  0  0  0  0
  160.7230  208.8070  155.6510 C   0  0  0  0  0  2  0  0  0  0  0  0
  159.6840  211.5640  154.9540 C   0  0  0  0  0  0  0  0  0  0  0  0
  157.9530  213.2910  154.4710 C   0  0  0  0  0  0  0  0  0  0  0  0
  159.1090  213.6420  150.1820 C   0  0  0  0  0  2  0  0  0  0  0  0
  157.6280  213.0650  153.0410 C   0  0  0  0  0  0  0  0  0  0  0  0
  158.4010  213.4110  157.2610 N   0  0  0  0  0  2  0  0  0  0  0  0
  159.9280  212.6570  152.0880 C   0  0  0  0  0  0  0  0  0  0  0  0
  158.1200  212.5650  150.6410 C   0  0  0  0  0  2  0  0  0  0  0  0
  157.0300  213.7520  155.2620 N   0  0  0  0  0  0  0  0  0  0  0  0
  159.5510  213.6580  156.3990 C   0  0  0  0  0  2  0  0  0  0  0  0
  156.5180  213.4960  152.6200 O   0  0  0  0  0  0  0  0  0  0  0  0
  160.3980  209.7480  153.2800 C   0  0  2  0  0  3  0  0  0  0  0  0
  159.2850  209.2230  155.8980 C   0  0  0  0  0  2  0  0  0  0  0  0
  160.9810  208.6260  154.1570 C   0  0  0  0  0  2  0  0  0  0  0  0
  160.8730  209.5970  151.8290 C   0  0  1  0  0  3  0  0  0  0  0  0
  162.1770  210.0770  151.6770 O   0  0  0  0  0  1  0  0  0  0  0  0
  160.7810  208.1460  151.3760 C   0  0  0  0  0  2  0  0  0  0  0  0
  161.1420  207.7280  149.0500 O   0  0  0  0  0  1  0  0  0  0  0  0
  161.7900  207.8540  150.2780 C   0  0  0  0  0  2  0  0  0  0  0  0
  1 17  1  1  0  0  0
  2 20  1  0  0  0  0
  3  4  1  6  0  0  0
  3  9  1  0  0  0  0
  5 13  1  0  0  0  0
  6 15  1  6  0  0  0
  6 12  1  0  0  0  0
  7 14  1  0  0  0  0
  8 20  1  0  0  0  0
  9  1  1  0  0  0  0
  9  2  2  0  0  0  0
 10  1  1  0  0  0  0
 10 16  2  0  0  0  0
 11 15  1  0  0  0  0
 11  7  1  0  0  0  0
 12 10  1  0  0  0  0
 14  6  1  0  0  0  0
 14  4  2  0  0  0  0
 16  5  1  0  0  0  0
 17 13  1  0  0  0  0
 18 12  2  0  0  0  0
 19 22  1  6  0  0  0
 19  3  1  0  0  0  0
 19 21  1  0  0  0  0
 21  8  1  0  0  0  0
 22 23  1  1  0  0  0
 24 22  1  0  0  0  0
 25 26  1  0  0  0  0
 26 24  1  0  0  0  0
M  END
>  <MODEL>
6

>  <REMARK>
 VINA RESULT:      -3.2      6.256      9.299
  Name = 
  3 active torsions:
  status: ('A' for Active; 'I' for Inactive)
    1  A    between atoms: C_3  and  C_14
    2  A    between atoms: C_3  and  C_24
    3  A    between atoms: C_14  and  C_23
                            x       y       z     vdW  Elec       q    Type
                         _______ _______ _______ _____ _____    ______ ____

>  <TORSDO>
F 3

$$$$
=
 OpenBabel11042422313D

 26 29  0  0  1  0  0  0  0  0999 V2000
  160.6650  210.1310  155.3750 C   0  0  1  0  0  3  0  0  0  0  0  0
  160.9550  209.0170  153.2030 C   0  0  0  0  0  3  0  0  0  0  0  0
  160.8800  211.5560  153.2340 C   0  0  1  0  0  3  0  0  0  0  0  0
  160.3870  212.6040  154.1410 N   0  0  0  0  0  0  0  0  0  0  0  0
  160.1880  207.7440  156.7150 N   0  0  0  0  0  2  0  0  0  0  0  0
  158.0960  211.6790  154.4370 C   0  0  2  0  0  3  0  0  0  0  0  0
  158.7690  213.7620  155.3710 O   0  0  0  0  0  0  0  0  0  0  0  0
  161.9730  209.8900  151.0920 C   0  0  0  0  0  2  0  0  0  0  0  0
  160.8350  210.1800  153.8820 C   0  0  0  0  0  0  0  0  0  0  0  0
  159.2740  209.7060  155.7660 C   0  0  0  0  0  0  0  0  0  0  0  0
  157.3670  213.7280  155.5580 C   0  0  0  0  0  2  0  0  0  0  0  0
  158.0870  210.5390  155.4500 C   0  0  0  0  0  0  0  0  0  0  0  0
  161.4360  207.9110  156.0890 N   0  0  0  0  0  2  0  0  0  0  0  0
  159.1930  212.6630  154.6590 C   0  0  0  0  0  0  0  0  0  0  0  0
  156.8770  212.5810  154.6660 C   0  0  0  0  0  2  0  0  0  0  0  0
  159.1070  208.5910  156.4160 N   0  0  0  0  0  0  0  0  0  0  0  0
  161.7540  209.3340  156.1030 C   0  0  0  0  0  2  0  0  0  0  0  0
  156.9880  210.2120  155.9800 O   0  0  0  0  0  0  0  0  0  0  0  0
  160.2170  211.6120  151.8390 C   0  0  2  0  0  3  0  0  0  0  0  0
  161.0600  208.8480  151.7130 C   0  0  0  0  0  2  0  0  0  0  0  0
  161.1880  211.1510  150.7390 C   0  0  0  0  0  2  0  0  0  0  0  0
  159.6250  212.9850  151.4910 C   0  0  1  0  0  3  0  0  0  0  0  0
  160.3310  213.5830  150.4430 O   0  0  0  0  0  1  0  0  0  0  0  0
  158.1470  212.8670  151.1430 C   0  0  0  0  0  2  0  0  0  0  0  0
  156.9610  212.8600  149.0680 O   0  0  0  0  0  1  0  0  0  0  0  0
  157.8310  213.6120  149.8570 C   0  0  0  0  0  2  0  0  0  0  0  0
  1 10  1  0  0  0  0
  1 17  1  1  0  0  0
  2  9  2  0  0  0  0
  3  9  1  1  0  0  0
  3  4  1  0  0  0  0
  4 14  2  0  0  0  0
  6 14  1  0  0  0  0
  6 15  1  1  0  0  0
  6 12  1  0  0  0  0
  7 11  1  0  0  0  0
  8 20  1  0  0  0  0
  9  1  1  0  0  0  0
 10 16  2  0  0  0  0
 12 10  1  0  0  0  0
 12 18  2  0  0  0  0
 13 17  1  0  0  0  0
 13  5  1  0  0  0  0
 14  7  1  0  0  0  0
 15 11  1  0  0  0  0
 16  5  1  0  0  0  0
 19 22  1  6  0  0  0
 19  3  1  0  0  0  0
 20  2  1  0  0  0  0
 21  8  1  0  0  0  0
 21 19  1  0  0  0  0
 22 23  1  6  0  0  0
 24 22  1  0  0  0  0
 25 26  1  0  0  0  0
 26 24  1  0  0  0  0
M  END
>  <MODEL>
7

>  <REMARK>
 VINA RESULT:      -3.2      6.326      8.861
  Name = 
  3 active torsions:
  status: ('A' for Active; 'I' for Inactive)
    1  A    between atoms: C_3  and  C_14
    2  A    between atoms: C_3  and  C_24
    3  A    between atoms: C_14  and  C_23
                            x       y       z     vdW  Elec       q    Type
                         _______ _______ _______ _____ _____    ______ ____

>  <TORSDO>
F 3

$$$$
