=
 OpenBabel11052409443D

 31 33  0  0  0  0  0  0  0  0999 V2000
  161.3310  209.5540  153.2760 C   0  0  0  0  0  3  0  0  0  0  0  0
  160.6940  207.6390  154.6320 N   0  0  0  0  0  0  0  0  0  0  0  0
  160.7720  206.6200  153.8210 C   0  0  0  0  0  3  0  0  0  0  0  0
  161.6000  207.6770  151.7270 C   0  0  0  0  0  0  0  0  0  0  0  0
  160.8330  208.9210  152.0250 C   0  0  0  0  0  2  0  0  0  0  0  0
  161.4910  206.5920  152.5220 C   0  0  0  0  0  0  0  0  0  0  0  0
  161.2600  208.9490  154.4620 C   0  0  0  0  0  0  0  0  0  0  0  0
  160.5440  206.9750  149.1110 O   0  0  0  0  0  0  0  0  0  0  0  0
  162.3200  207.6350  150.4870 N   0  0  0  0  0  2  0  0  0  0  0  0
  161.7290  207.3890  149.2060 C   0  0  0  0  0  0  0  0  0  0  0  0
  162.5400  207.5790  147.9770 C   0  0  0  0  0  1  0  0  0  0  0  0
  161.6640  209.7180  155.6740 C   0  0  0  0  0  2  0  0  0  0  0  0
  160.4870  210.2290  156.3660 N   0  0  0  0  0  2  0  0  0  0  0  0
  159.0360  213.3000  154.7860 C   0  0  0  0  0  3  0  0  0  0  0  0
  159.9610  212.4230  155.3590 C   0  0  0  0  0  3  0  0  0  0  0  0
  155.9440  211.2310  154.8840 N   0  0  0  0  0  1  0  0  0  0  0  0
  157.7050  212.9040  154.6290 C   0  0  0  0  0  3  0  0  0  0  0  0
  159.5580  211.1470  155.7810 C   0  0  0  0  0  0  0  0  0  0  0  0
  158.2250  210.7560  155.6190 C   0  0  0  0  0  3  0  0  0  0  0  0
  157.2990  211.6340  155.0450 C   0  0  0  0  0  0  0  0  0  0  0  0
  161.9860  205.3310  152.0550 N   0  0  0  0  0  2  0  0  0  0  0  0
  161.2340  204.1490  152.1430 N   0  0  0  0  0  2  0  0  0  0  0  0
  160.4610  204.0290  150.9140 C   0  0  0  0  0  2  0  0  0  0  0  0
  160.8840  202.8080  150.1620 C   0  0  0  0  0  0  0  0  0  0  0  0
  161.1480  201.7590  150.8080 O   0  0  0  0  0  0  0  0  0  0  0  0
  161.5030  203.9770  148.0440 C   0  0  0  0  0  3  0  0  0  0  0  0
  161.6360  204.0020  146.6530 C   0  0  0  0  0  3  0  0  0  0  0  0
  160.6790  201.7050  147.9250 C   0  0  0  0  0  3  0  0  0  0  0  0
  161.0230  202.8280  148.6930 C   0  0  0  0  0  0  0  0  0  0  0  0
  161.2900  202.8780  145.8980 C   0  0  0  0  0  3  0  0  0  0  0  0
  160.8120  201.7290  146.5340 C   0  0  0  0  0  3  0  0  0  0  0  0
  1  7  2  0  0  0  0
  3  2  2  0  0  0  0
  4  5  1  0  0  0  0
  4  6  2  0  0  0  0
  5  1  1  0  0  0  0
  6  3  1  0  0  0  0
  7  2  1  0  0  0  0
  7 12  1  0  0  0  0
  8 10  2  0  0  0  0
  9  4  1  0  0  0  0
 10  9  1  0  0  0  0
 11 10  1  0  0  0  0
 12 13  1  0  0  0  0
 14 15  1  0  0  0  0
 15 18  2  0  0  0  0
 16 20  1  0  0  0  0
 17 14  2  0  0  0  0
 17 20  1  0  0  0  0
 18 13  1  0  0  0  0
 19 18  1  0  0  0  0
 20 19  2  0  0  0  0
 21 22  1  0  0  0  0
 21  6  1  0  0  0  0
 23 22  1  0  0  0  0
 24 25  2  0  0  0  0
 24 23  1  0  0  0  0
 26 29  1  0  0  0  0
 27 26  2  0  0  0  0
 28 29  2  0  0  0  0
 29 24  1  0  0  0  0
 30 31  2  0  0  0  0
 30 27  1  0  0  0  0
 31 28  1  0  0  0  0
M  END
>  <MODEL>
1

>  <REMARK>
 VINA RESULT:      -8.2      0.000      0.000
  Name = 
  9 active torsions:
  status: ('A' for Active; 'I' for Inactive)
    1  A    between atoms: C_3  and  N_24
    2  A    between atoms: C_3  and  C_27
    3  A    between atoms: C_11  and  C_12
    4  A    between atoms: C_11  and  C_29
    5  A    between atoms: C_12  and  N_17
    6  A    between atoms: C_14  and  N_22
    7  A    between atoms: C_15  and  N_24
    8  A    between atoms: N_17  and  N_25
    9  A    between atoms: C_21  and  N_25
                            x       y       z     vdW  Elec       q    Type
                         _______ _______ _______ _____ _____    ______ ____

>  <TORSDO>
F 9

$$$$
=
 OpenBabel11052409443D

 31 33  0  0  1  0  0  0  0  0999 V2000
  161.7400  210.9140  150.9090 C   0  0  0  0  0  3  0  0  0  0  0  0
  162.1650  210.4840  148.5540 N   0  0  0  0  0  0  0  0  0  0  0  0
  162.1500  209.1850  148.4480 C   0  0  0  0  0  3  0  0  0  0  0  0
  161.5960  208.4740  150.7660 C   0  0  1  0  0  3  0  0  0  0  0  0
  162.3590  209.6270  151.3250 C   0  0  0  0  0  2  0  0  0  0  0  0
  161.5830  208.2340  149.4380 C   0  0  0  0  0  0  0  0  0  0  0  0
  161.6580  211.2890  149.6320 C   0  0  0  0  0  0  0  0  0  0  0  0
  162.8690  206.1330  151.9290 O   0  0  0  0  0  0  0  0  0  0  0  0
  161.0220  207.5540  151.7050 N   0  0  0  0  0  2  0  0  0  0  0  0
  161.7270  206.4780  152.3320 C   0  0  0  0  0  0  0  0  0  0  0  0
  161.0830  205.7280  153.4410 C   0  0  0  0  0  1  0  0  0  0  0  0
  161.1410  212.6530  149.3270 C   0  0  0  0  0  2  0  0  0  0  0  0
  161.8480  213.2200  148.1840 N   0  0  0  0  0  2  0  0  0  0  0  0
  159.7510  212.4820  145.1690 C   0  0  0  0  0  3  0  0  0  0  0  0
  160.1280  212.6540  146.5040 C   0  0  0  0  0  3  0  0  0  0  0  0
  162.9400  213.2820  143.4260 N   0  0  0  0  0  1  0  0  0  0  0  0
  160.6840  212.6890  144.1490 C   0  0  0  0  0  3  0  0  0  0  0  0
  161.4400  213.0320  146.8260 C   0  0  0  0  0  0  0  0  0  0  0  0
  162.3680  213.2410  145.8000 C   0  0  0  0  0  3  0  0  0  0  0  0
  161.9920  213.0690  144.4640 C   0  0  0  0  0  0  0  0  0  0  0  0
  161.1080  206.9690  148.9610 N   0  0  0  0  0  0  0  0  0  0  0  0
  161.1080  206.6330  147.5980 N   0  0  0  0  0  2  0  0  0  0  0  0
  162.1580  205.6450  147.3890 C   0  0  0  0  0  2  0  0  0  0  0  0
  161.5520  204.3130  147.0850 C   0  0  0  0  0  0  0  0  0  0  0  0
  161.2510  204.0410  145.8930 O   0  0  0  0  0  0  0  0  0  0  0  0
  161.0940  203.7720  149.4790 C   0  0  0  0  0  3  0  0  0  0  0  0
  160.8370  202.8520  150.4990 C   0  0  0  0  0  3  0  0  0  0  0  0
  161.2080  201.9630  147.8760 C   0  0  0  0  0  3  0  0  0  0  0  0
  161.2820  203.3360  148.1580 C   0  0  0  0  0  0  0  0  0  0  0  0
  160.7660  201.4870  150.2080 C   0  0  0  0  0  3  0  0  0  0  0  0
  160.9510  201.0420  148.8960 C   0  0  0  0  0  3  0  0  0  0  0  0
  1  5  1  0  0  0  0
  2  7  1  0  0  0  0
  3  2  2  0  0  0  0
  3  6  1  0  0  0  0
  4  5  1  0  0  0  0
  4  9  1  1  0  0  0
  6  4  1  0  0  0  0
  7  1  2  0  0  0  0
  8 10  2  0  0  0  0
  9 10  1  0  0  0  0
 10 11  1  0  0  0  0
 12  7  1  0  0  0  0
 13 12  1  0  0  0  0
 14 15  1  0  0  0  0
 15 18  2  0  0  0  0
 16 20  1  0  0  0  0
 17 20  1  0  0  0  0
 17 14  2  0  0  0  0
 18 13  1  0  0  0  0
 19 18  1  0  0  0  0
 20 19  2  0  0  0  0
 21  6  2  0  0  0  0
 22 21  1  0  0  0  0
 23 22  1  0  0  0  0
 24 23  1  0  0  0  0
 24 29  1  0  0  0  0
 25 24  2  0  0  0  0
 26 27  1  0  0  0  0
 28 29  1  0  0  0  0
 28 31  2  0  0  0  0
 29 26  2  0  0  0  0
 30 27  2  0  0  0  0
 31 30  1  0  0  0  0
M  END
>  <MODEL>
2

>  <REMARK>
 VINA RESULT:      -8.0      3.896      6.458
  Name = 
  9 active torsions:
  status: ('A' for Active; 'I' for Inactive)
    1  A    between atoms: C_3  and  N_24
    2  A    between atoms: C_3  and  C_27
    3  A    between atoms: C_11  and  C_12
    4  A    between atoms: C_11  and  C_29
    5  A    between atoms: C_12  and  N_17
    6  A    between atoms: C_14  and  N_22
    7  A    between atoms: C_15  and  N_24
    8  A    between atoms: N_17  and  N_25
    9  A    between atoms: C_21  and  N_25
                            x       y       z     vdW  Elec       q    Type
                         _______ _______ _______ _____ _____    ______ ____

>  <TORSDO>
F 9

$$$$
=
 OpenBabel11052409443D

 31 33  0  0  0  0  0  0  0  0999 V2000
  160.9220  206.1430  150.5310 C   0  0  0  0  0  3  0  0  0  0  0  0
  161.4690  204.7960  152.4790 N   0  0  0  0  0  0  0  0  0  0  0  0
  161.5230  205.6480  153.4650 C   0  0  0  0  0  3  0  0  0  0  0  0
  160.9050  207.7830  152.3490 C   0  0  0  0  0  0  0  0  0  0  0  0
  161.5850  207.3500  151.0940 C   0  0  0  0  0  2  0  0  0  0  0  0
  160.9610  207.0230  153.4620 C   0  0  0  0  0  0  0  0  0  0  0  0
  160.8770  204.9820  151.1820 C   0  0  0  0  0  0  0  0  0  0  0  0
  162.3140  210.2960  152.7410 O   0  0  0  0  0  0  0  0  0  0  0  0
  160.3360  209.1000  152.3610 N   0  0  0  0  0  2  0  0  0  0  0  0
  161.0890  210.3150  152.4500 C   0  0  0  0  0  0  0  0  0  0  0  0
  160.4040  211.6170  152.2420 C   0  0  0  0  0  1  0  0  0  0  0  0
  160.3070  203.7970  150.4790 C   0  0  0  0  0  2  0  0  0  0  0  0
  161.3250  203.1580  149.6550 N   0  0  0  0  0  2  0  0  0  0  0  0
  160.8050  201.9230  146.1560 C   0  0  0  0  0  3  0  0  0  0  0  0
  160.8540  201.9480  147.5530 C   0  0  0  0  0  3  0  0  0  0  0  0
  161.9590  205.3670  145.3470 N   0  0  0  0  0  1  0  0  0  0  0  0
  161.1720  203.0570  145.4260 C   0  0  0  0  0  3  0  0  0  0  0  0
  161.2720  203.1050  148.2260 C   0  0  0  0  0  0  0  0  0  0  0  0
  161.6350  204.2370  147.4880 C   0  0  0  0  0  3  0  0  0  0  0  0
  161.5870  204.2130  146.0910 C   0  0  0  0  0  0  0  0  0  0  0  0
  160.5710  207.5920  154.7180 N   0  0  0  0  0  2  0  0  0  0  0  0
  161.5050  207.9590  155.6990 N   0  0  0  0  0  2  0  0  0  0  0  0
  160.8440  208.8810  156.6130 C   0  0  0  0  0  2  0  0  0  0  0  0
  161.0790  210.2910  156.1750 C   0  0  0  0  0  0  0  0  0  0  0  0
  162.2620  210.7210  156.1270 O   0  0  0  0  0  0  0  0  0  0  0  0
  160.1160  212.5740  155.8730 C   0  0  0  0  0  3  0  0  0  0  0  0
  159.0530  213.4210  155.5480 C   0  0  0  0  0  3  0  0  0  0  0  0
  158.7080  210.6500  155.4580 C   0  0  0  0  0  3  0  0  0  0  0  0
  159.9530  211.1800  155.8310 C   0  0  0  0  0  0  0  0  0  0  0  0
  157.8170  212.8830  155.1790 C   0  0  0  0  0  3  0  0  0  0  0  0
  157.6450  211.4970  155.1330 C   0  0  0  0  0  3  0  0  0  0  0  0
  1  5  1  0  0  0  0
  1  7  2  0  0  0  0
  2  3  2  0  0  0  0
  4  9  1  0  0  0  0
  4  6  2  0  0  0  0
  5  4  1  0  0  0  0
  6  3  1  0  0  0  0
  6 21  1  0  0  0  0
  7  2  1  0  0  0  0
  9 10  1  0  0  0  0
 10  8  2  0  0  0  0
 11 10  1  0  0  0  0
 12  7  1  0  0  0  0
 13 12  1  0  0  0  0
 14 15  1  0  0  0  0
 15 18  2  0  0  0  0
 16 20  1  0  0  0  0
 17 20  1  0  0  0  0
 17 14  2  0  0  0  0
 18 13  1  0  0  0  0
 19 18  1  0  0  0  0
 20 19  2  0  0  0  0
 21 22  1  0  0  0  0
 22 23  1  0  0  0  0
 24 23  1  0  0  0  0
 25 24  2  0  0  0  0
 27 26  2  0  0  0  0
 28 29  2  0  0  0  0
 29 26  1  0  0  0  0
 29 24  1  0  0  0  0
 30 27  1  0  0  0  0
 31 30  2  0  0  0  0
 31 28  1  0  0  0  0
M  END
>  <MODEL>
3

>  <REMARK>
 VINA RESULT:      -7.8      2.431      9.343
  Name = 
  9 active torsions:
  status: ('A' for Active; 'I' for Inactive)
    1  A    between atoms: C_3  and  N_24
    2  A    between atoms: C_3  and  C_27
    3  A    between atoms: C_11  and  C_12
    4  A    between atoms: C_11  and  C_29
    5  A    between atoms: C_12  and  N_17
    6  A    between atoms: C_14  and  N_22
    7  A    between atoms: C_15  and  N_24
    8  A    between atoms: N_17  and  N_25
    9  A    between atoms: C_21  and  N_25
                            x       y       z     vdW  Elec       q    Type
                         _______ _______ _______ _____ _____    ______ ____

>  <TORSDO>
F 9

$$$$
=
 OpenBabel11052409443D

 31 33  0  0  0  0  0  0  0  0999 V2000
  161.7310  206.5910  153.3710 C   0  0  0  0  0  3  0  0  0  0  0  0
  161.1640  208.5450  152.0400 N   0  0  0  0  0  0  0  0  0  0  0  0
  161.1700  208.1180  150.8080 C   0  0  0  0  0  3  0  0  0  0  0  0
  161.6580  205.6950  151.0920 C   0  0  0  0  0  0  0  0  0  0  0  0
  162.5280  205.9870  152.2690 C   0  0  0  0  0  2  0  0  0  0  0  0
  161.1090  206.6980  150.3760 C   0  0  0  0  0  0  0  0  0  0  0  0
  161.1110  207.7640  153.2460 C   0  0  0  0  0  0  0  0  0  0  0  0
  160.5750  203.4620  152.6070 O   0  0  0  0  0  0  0  0  0  0  0  0
  161.5680  204.3280  150.6710 N   0  0  0  0  0  2  0  0  0  0  0  0
  160.9260  203.2840  151.4110 C   0  0  0  0  0  0  0  0  0  0  0  0
  160.7160  201.9580  150.7750 C   0  0  0  0  0  1  0  0  0  0  0  0
  160.4490  208.3460  154.4480 C   0  0  0  0  0  2  0  0  0  0  0  0
  160.6030  209.7960  154.4590 N   0  0  0  0  0  2  0  0  0  0  0  0
  158.1030  212.2470  153.1250 C   0  0  0  0  0  3  0  0  0  0  0  0
  159.1840  211.3620  153.1800 C   0  0  0  0  0  3  0  0  0  0  0  0
  156.8710  212.0740  156.6320 N   0  0  0  0  0  1  0  0  0  0  0  0
  157.3380  212.4830  154.2710 C   0  0  0  0  0  3  0  0  0  0  0  0
  159.5050  210.7110  154.3800 C   0  0  0  0  0  0  0  0  0  0  0  0
  158.7320  210.9490  155.5210 C   0  0  0  0  0  3  0  0  0  0  0  0
  157.6510  211.8340  155.4680 C   0  0  0  0  0  0  0  0  0  0  0  0
  160.5410  206.4100  149.0920 N   0  0  0  0  0  2  0  0  0  0  0  0
  161.0390  206.9740  147.9070 N   0  0  0  0  0  2  0  0  0  0  0  0
  162.2850  206.2910  147.5850 C   0  0  0  0  0  2  0  0  0  0  0  0
  162.1290  205.5130  146.3180 C   0  0  0  0  0  0  0  0  0  0  0  0
  162.4410  206.0610  145.2280 O   0  0  0  0  0  0  0  0  0  0  0  0
  161.0060  203.6000  145.1730 C   0  0  0  0  0  3  0  0  0  0  0  0
  160.4970  202.2990  145.1770 C   0  0  0  0  0  3  0  0  0  0  0  0
  161.6610  203.3510  147.4890 C   0  0  0  0  0  3  0  0  0  0  0  0
  161.5930  204.1380  146.3290 C   0  0  0  0  0  0  0  0  0  0  0  0
  160.5690  201.5230  146.3380 C   0  0  0  0  0  3  0  0  0  0  0  0
  161.1520  202.0490  147.4940 C   0  0  0  0  0  3  0  0  0  0  0  0
  2  7  1  0  0  0  0
  3  2  2  0  0  0  0
  4  5  1  0  0  0  0
  5  1  1  0  0  0  0
  6  3  1  0  0  0  0
  6  4  2  0  0  0  0
  7  1  2  0  0  0  0
  7 12  1  0  0  0  0
  9  4  1  0  0  0  0
  9 10  1  0  0  0  0
 10  8  2  0  0  0  0
 11 10  1  0  0  0  0
 12 13  1  0  0  0  0
 14 15  2  0  0  0  0
 14 17  1  0  0  0  0
 15 18  1  0  0  0  0
 17 20  2  0  0  0  0
 18 13  1  0  0  0  0
 18 19  2  0  0  0  0
 20 19  1  0  0  0  0
 20 16  1  0  0  0  0
 21  6  1  0  0  0  0
 22 21  1  0  0  0  0
 23 22  1  0  0  0  0
 24 29  1  0  0  0  0
 24 23  1  0  0  0  0
 25 24  2  0  0  0  0
 26 27  2  0  0  0  0
 26 29  1  0  0  0  0
 27 30  1  0  0  0  0
 28 31  1  0  0  0  0
 29 28  2  0  0  0  0
 30 31  2  0  0  0  0
M  END
>  <MODEL>
4

>  <REMARK>
 VINA RESULT:      -7.7      1.716      3.328
  Name = 
  9 active torsions:
  status: ('A' for Active; 'I' for Inactive)
    1  A    between atoms: C_3  and  N_24
    2  A    between atoms: C_3  and  C_27
    3  A    between atoms: C_11  and  C_12
    4  A    between atoms: C_11  and  C_29
    5  A    between atoms: C_12  and  N_17
    6  A    between atoms: C_14  and  N_22
    7  A    between atoms: C_15  and  N_24
    8  A    between atoms: N_17  and  N_25
    9  A    between atoms: C_21  and  N_25
                            x       y       z     vdW  Elec       q    Type
                         _______ _______ _______ _____ _____    ______ ____

>  <TORSDO>
F 9

$$$$
=
 OpenBabel11052409443D

 31 33  0  0  0  0  0  0  0  0999 V2000
  161.6860  209.4200  150.5060 C   0  0  0  0  0  3  0  0  0  0  0  0
  162.9010  207.3250  150.2930 N   0  0  0  0  0  0  0  0  0  0  0  0
  162.7930  206.7610  151.4640 C   0  0  0  0  0  3  0  0  0  0  0  0
  161.3550  208.3740  152.6950 C   0  0  0  0  0  0  0  0  0  0  0  0
  161.9730  209.5170  151.9620 C   0  0  0  0  0  2  0  0  0  0  0  0
  161.8070  207.1150  152.5170 C   0  0  0  0  0  0  0  0  0  0  0  0
  162.1190  208.4050  149.7580 C   0  0  0  0  0  0  0  0  0  0  0  0
  161.8750  209.3420  155.3870 O   0  0  0  0  0  0  0  0  0  0  0  0
  160.3840  208.6930  153.7020 N   0  0  0  0  0  2  0  0  0  0  0  0
  160.6870  209.2700  154.9760 C   0  0  0  0  0  0  0  0  0  0  0  0
  159.5810  209.7460  155.8460 C   0  0  0  0  0  1  0  0  0  0  0  0
  161.8930  208.4650  148.2850 C   0  0  0  0  0  2  0  0  0  0  0  0
  161.0330  207.3670  147.8590 N   0  0  0  0  0  2  0  0  0  0  0  0
  163.1290  204.7180  146.2390 C   0  0  0  0  0  3  0  0  0  0  0  0
  162.7360  205.7450  147.1010 C   0  0  0  0  0  3  0  0  0  0  0  0
  160.0780  204.3510  144.1400 N   0  0  0  0  0  1  0  0  0  0  0  0
  162.2480  204.2570  145.2570 C   0  0  0  0  0  3  0  0  0  0  0  0
  161.4610  206.3180  146.9840 C   0  0  0  0  0  0  0  0  0  0  0  0
  160.5830  205.8490  146.0020 C   0  0  0  0  0  3  0  0  0  0  0  0
  160.9750  204.8210  145.1380 C   0  0  0  0  0  0  0  0  0  0  0  0
  161.4140  206.0940  153.4420 N   0  0  0  0  0  2  0  0  0  0  0  0
  160.5050  205.0810  153.1010 N   0  0  0  0  0  2  0  0  0  0  0  0
  161.2180  204.1050  152.2870 C   0  0  0  0  0  2  0  0  0  0  0  0
  160.6930  204.1260  150.8880 C   0  0  0  0  0  0  0  0  0  0  0  0
  160.0780  205.1490  150.4860 O   0  0  0  0  0  0  0  0  0  0  0  0
  160.8340  203.1360  148.6010 C   0  0  0  0  0  3  0  0  0  0  0  0
  160.9920  202.0390  147.7490 C   0  0  0  0  0  3  0  0  0  0  0  0
  161.0480  201.6760  150.5190 C   0  0  0  0  0  3  0  0  0  0  0  0
  160.8610  202.9640  149.9940 C   0  0  0  0  0  0  0  0  0  0  0  0
  161.1780  200.7610  148.2820 C   0  0  0  0  0  3  0  0  0  0  0  0
  161.2060  200.5790  149.6670 C   0  0  0  0  0  3  0  0  0  0  0  0
  1  5  1  0  0  0  0
  2  3  2  0  0  0  0
  3  6  1  0  0  0  0
  4  9  1  0  0  0  0
  5  4  1  0  0  0  0
  6  4  2  0  0  0  0
  6 21  1  0  0  0  0
  7  2  1  0  0  0  0
  7  1  2  0  0  0  0
  9 10  1  0  0  0  0
 10  8  2  0  0  0  0
 10 11  1  0  0  0  0
 12  7  1  0  0  0  0
 13 12  1  0  0  0  0
 14 15  1  0  0  0  0
 16 20  1  0  0  0  0
 17 14  2  0  0  0  0
 18 15  2  0  0  0  0
 18 13  1  0  0  0  0
 19 18  1  0  0  0  0
 20 17  1  0  0  0  0
 20 19  2  0  0  0  0
 22 21  1  0  0  0  0
 23 22  1  0  0  0  0
 24 23  1  0  0  0  0
 25 24  2  0  0  0  0
 26 29  1  0  0  0  0
 27 30  1  0  0  0  0
 27 26  2  0  0  0  0
 29 28  2  0  0  0  0
 29 24  1  0  0  0  0
 30 31  2  0  0  0  0
 31 28  1  0  0  0  0
M  END
>  <MODEL>
5

>  <REMARK>
 VINA RESULT:      -7.6      2.346      6.890
  Name = 
  9 active torsions:
  status: ('A' for Active; 'I' for Inactive)
    1  A    between atoms: C_3  and  N_24
    2  A    between atoms: C_3  and  C_27
    3  A    between atoms: C_11  and  C_12
    4  A    between atoms: C_11  and  C_29
    5  A    between atoms: C_12  and  N_17
    6  A    between atoms: C_14  and  N_22
    7  A    between atoms: C_15  and  N_24
    8  A    between atoms: N_17  and  N_25
    9  A    between atoms: C_21  and  N_25
                            x       y       z     vdW  Elec       q    Type
                         _______ _______ _______ _____ _____    ______ ____

>  <TORSDO>
F 9

$$$$
=
 OpenBabel11052409443D

 31 33  0  0  0  0  0  0  0  0999 V2000
  161.8410  206.6990  153.1380 C   0  0  0  0  0  3  0  0  0  0  0  0
  161.2690  208.5910  151.7220 N   0  0  0  0  0  0  0  0  0  0  0  0
  161.2310  208.1000  150.5140 C   0  0  0  0  0  3  0  0  0  0  0  0
  161.6850  205.6870  150.9130 C   0  0  0  0  0  0  0  0  0  0  0  0
  162.5950  206.0230  152.0470 C   0  0  0  0  0  2  0  0  0  0  0  0
  161.1330  206.6610  150.1600 C   0  0  0  0  0  0  0  0  0  0  0  0
  161.2380  207.8760  152.9680 C   0  0  0  0  0  0  0  0  0  0  0  0
  160.5660  203.5660  152.5560 O   0  0  0  0  0  0  0  0  0  0  0  0
  161.5590  204.3010  150.5670 N   0  0  0  0  0  2  0  0  0  0  0  0
  160.9010  203.3140  151.3690 C   0  0  0  0  0  0  0  0  0  0  0  0
  160.6530  201.9610  150.8080 C   0  0  0  0  0  1  0  0  0  0  0  0
  160.6220  208.5320  154.1560 C   0  0  0  0  0  2  0  0  0  0  0  0
  160.9030  209.9640  154.1470 N   0  0  0  0  0  2  0  0  0  0  0  0
  157.8480  212.1160  154.4120 C   0  0  0  0  0  3  0  0  0  0  0  0
  158.7950  211.1280  154.6980 C   0  0  0  0  0  3  0  0  0  0  0  0
  159.3130  213.6320  151.3450 N   0  0  0  0  0  1  0  0  0  0  0  0
  158.0200  212.9450  153.2990 C   0  0  0  0  0  3  0  0  0  0  0  0
  159.9170  210.9630  153.8720 C   0  0  0  0  0  0  0  0  0  0  0  0
  160.0840  211.7990  152.7630 C   0  0  0  0  0  3  0  0  0  0  0  0
  159.1380  212.7870  152.4760 C   0  0  0  0  0  0  0  0  0  0  0  0
  160.5220  206.3160  148.9100 N   0  0  0  0  0  2  0  0  0  0  0  0
  160.9540  206.8570  147.6890 N   0  0  0  0  0  2  0  0  0  0  0  0
  162.2160  206.2140  147.3460 C   0  0  0  0  0  2  0  0  0  0  0  0
  162.0370  205.3500  146.1400 C   0  0  0  0  0  0  0  0  0  0  0  0
  162.3060  205.8290  145.0060 O   0  0  0  0  0  0  0  0  0  0  0  0
  160.9370  203.3380  145.1550 C   0  0  0  0  0  3  0  0  0  0  0  0
  160.4530  202.0310  145.2620 C   0  0  0  0  0  3  0  0  0  0  0  0
  161.6290  203.2710  147.4730 C   0  0  0  0  0  3  0  0  0  0  0  0
  161.5290  203.9700  146.2590 C   0  0  0  0  0  0  0  0  0  0  0  0
  160.5570  201.3440  146.4750 C   0  0  0  0  0  3  0  0  0  0  0  0
  161.1460  201.9640  147.5800 C   0  0  0  0  0  3  0  0  0  0  0  0
  2  7  1  0  0  0  0
  3  2  2  0  0  0  0
  4  5  1  0  0  0  0
  5  1  1  0  0  0  0
  6  3  1  0  0  0  0
  6  4  2  0  0  0  0
  7  1  2  0  0  0  0
  7 12  1  0  0  0  0
  9  4  1  0  0  0  0
  9 10  1  0  0  0  0
 10  8  2  0  0  0  0
 11 10  1  0  0  0  0
 13 12  1  0  0  0  0
 14 15  1  0  0  0  0
 16 20  1  0  0  0  0
 17 14  2  0  0  0  0
 18 13  1  0  0  0  0
 18 15  2  0  0  0  0
 19 18  1  0  0  0  0
 20 19  2  0  0  0  0
 20 17  1  0  0  0  0
 21  6  1  0  0  0  0
 22 21  1  0  0  0  0
 23 22  1  0  0  0  0
 24 29  1  0  0  0  0
 24 23  1  0  0  0  0
 25 24  2  0  0  0  0
 26 27  2  0  0  0  0
 26 29  1  0  0  0  0
 27 30  1  0  0  0  0
 28 31  1  0  0  0  0
 29 28  2  0  0  0  0
 30 31  2  0  0  0  0
M  END
>  <MODEL>
6

>  <REMARK>
 VINA RESULT:      -7.6      2.044      3.596
  Name = 
  9 active torsions:
  status: ('A' for Active; 'I' for Inactive)
    1  A    between atoms: C_3  and  N_24
    2  A    between atoms: C_3  and  C_27
    3  A    between atoms: C_11  and  C_12
    4  A    between atoms: C_11  and  C_29
    5  A    between atoms: C_12  and  N_17
    6  A    between atoms: C_14  and  N_22
    7  A    between atoms: C_15  and  N_24
    8  A    between atoms: N_17  and  N_25
    9  A    between atoms: C_21  and  N_25
                            x       y       z     vdW  Elec       q    Type
                         _______ _______ _______ _____ _____    ______ ____

>  <TORSDO>
F 9

$$$$
=
 OpenBabel11052409443D

 31 33  0  0  0  0  0  0  0  0999 V2000
  160.5430  208.8490  152.9430 C   0  0  0  0  0  3  0  0  0  0  0  0
  161.8790  209.8860  151.1960 N   0  0  0  0  0  0  0  0  0  0  0  0
  162.2930  208.8900  150.4620 C   0  0  0  0  0  3  0  0  0  0  0  0
  161.1960  206.9420  151.5530 C   0  0  0  0  0  0  0  0  0  0  0  0
  161.3300  207.5870  152.8910 C   0  0  0  0  0  2  0  0  0  0  0  0
  161.7240  207.5180  150.4530 C   0  0  0  0  0  0  0  0  0  0  0  0
  160.8090  209.8910  152.1560 C   0  0  0  0  0  0  0  0  0  0  0  0
  162.6060  204.4200  151.8800 O   0  0  0  0  0  0  0  0  0  0  0  0
  160.6300  205.6240  151.5180 N   0  0  0  0  0  2  0  0  0  0  0  0
  161.3500  204.4180  151.7930 C   0  0  0  0  0  0  0  0  0  0  0  0
  160.6080  203.1380  151.9310 C   0  0  0  0  0  1  0  0  0  0  0  0
  160.0500  211.1560  152.3750 C   0  0  0  0  0  2  0  0  0  0  0  0
  160.3500  211.7050  153.6930 N   0  0  0  0  0  2  0  0  0  0  0  0
  158.5950  213.1330  156.6790 C   0  0  0  0  0  3  0  0  0  0  0  0
  159.5840  212.8890  155.7220 C   0  0  0  0  0  3  0  0  0  0  0  0
  155.8930  210.8630  155.4990 N   0  0  0  0  0  1  0  0  0  0  0  0
  157.3720  212.4600  156.6050 C   0  0  0  0  0  3  0  0  0  0  0  0
  159.3560  211.9690  154.6870 C   0  0  0  0  0  0  0  0  0  0  0  0
  158.1280  211.3020  154.6170 C   0  0  0  0  0  3  0  0  0  0  0  0
  157.1380  211.5460  155.5750 C   0  0  0  0  0  0  0  0  0  0  0  0
  161.8510  206.7460  149.2520 N   0  0  0  0  0  2  0  0  0  0  0  0
  161.9560  207.3400  147.9850 N   0  0  0  0  0  2  0  0  0  0  0  0
  161.0320  206.6470  147.0970 C   0  0  0  0  0  2  0  0  0  0  0  0
  161.7410  205.5380  146.3890 C   0  0  0  0  0  0  0  0  0  0  0  0
  162.5980  205.8270  145.5120 O   0  0  0  0  0  0  0  0  0  0  0  0
  161.1300  203.2370  145.6360 C   0  0  0  0  0  3  0  0  0  0  0  0
  160.8340  201.8980  145.9070 C   0  0  0  0  0  3  0  0  0  0  0  0
  161.4280  203.6490  148.0020 C   0  0  0  0  0  3  0  0  0  0  0  0
  161.4290  204.1250  146.6810 C   0  0  0  0  0  0  0  0  0  0  0  0
  160.8350  201.4350  147.2260 C   0  0  0  0  0  3  0  0  0  0  0  0
  161.1320  202.3110  148.2730 C   0  0  0  0  0  3  0  0  0  0  0  0
  2  7  1  0  0  0  0
  3  2  2  0  0  0  0
  4  5  1  0  0  0  0
  5  1  1  0  0  0  0
  6  3  1  0  0  0  0
  6  4  2  0  0  0  0
  7 12  1  0  0  0  0
  7  1  2  0  0  0  0
  9  4  1  0  0  0  0
  9 10  1  0  0  0  0
 10  8  2  0  0  0  0
 10 11  1  0  0  0  0
 12 13  1  0  0  0  0
 13 18  1  0  0  0  0
 15 14  2  0  0  0  0
 16 20  1  0  0  0  0
 17 14  1  0  0  0  0
 18 15  1  0  0  0  0
 19 18  2  0  0  0  0
 19 20  1  0  0  0  0
 20 17  2  0  0  0  0
 21  6  1  0  0  0  0
 22 21  1  0  0  0  0
 23 22  1  0  0  0  0
 24 29  1  0  0  0  0
 24 23  1  0  0  0  0
 25 24  2  0  0  0  0
 26 27  2  0  0  0  0
 26 29  1  0  0  0  0
 27 30  1  0  0  0  0
 28 31  1  0  0  0  0
 29 28  2  0  0  0  0
 30 31  2  0  0  0  0
M  END
>  <MODEL>
7

>  <REMARK>
 VINA RESULT:      -7.6      1.788      3.265
  Name = 
  9 active torsions:
  status: ('A' for Active; 'I' for Inactive)
    1  A    between atoms: C_3  and  N_24
    2  A    between atoms: C_3  and  C_27
    3  A    between atoms: C_11  and  C_12
    4  A    between atoms: C_11  and  C_29
    5  A    between atoms: C_12  and  N_17
    6  A    between atoms: C_14  and  N_22
    7  A    between atoms: C_15  and  N_24
    8  A    between atoms: N_17  and  N_25
    9  A    between atoms: C_21  and  N_25
                            x       y       z     vdW  Elec       q    Type
                         _______ _______ _______ _____ _____    ______ ____

>  <TORSDO>
F 9

$$$$
=
 OpenBabel11052409443D

 31 33  0  0  1  0  0  0  0  0999 V2000
  161.6180  209.6310  151.2720 C   0  0  0  0  0  3  0  0  0  0  0  0
  162.8340  207.8020  150.2280 N   0  0  0  0  0  0  0  0  0  0  0  0
  162.7020  206.8030  151.0560 C   0  0  0  0  0  3  0  0  0  0  0  0
  161.2430  207.7720  152.8220 C   0  0  1  0  0  3  0  0  0  0  0  0
  161.8770  209.1110  152.6420 C   0  0  0  0  0  2  0  0  0  0  0  0
  161.6970  206.6980  152.1440 C   0  0  0  0  0  0  0  0  0  0  0  0
  162.0630  209.0150  150.1770 C   0  0  0  0  0  0  0  0  0  0  0  0
  161.7050  207.6930  155.6920 O   0  0  0  0  0  0  0  0  0  0  0  0
  160.2540  207.6530  153.8540 N   0  0  0  0  0  2  0  0  0  0  0  0
  160.5240  207.7280  155.2580 C   0  0  0  0  0  0  0  0  0  0  0  0
  159.3920  207.8000  156.2180 C   0  0  0  0  0  1  0  0  0  0  0  0
  161.8660  209.6840  148.8590 C   0  0  0  0  0  2  0  0  0  0  0  0
  162.3260  211.0660  148.9180 N   0  0  0  0  0  2  0  0  0  0  0  0
  162.2700  214.2330  146.9180 C   0  0  0  0  0  3  0  0  0  0  0  0
  162.6610  213.2690  147.8510 C   0  0  0  0  0  3  0  0  0  0  0  0
  159.3130  212.5730  145.3840 N   0  0  0  0  0  1  0  0  0  0  0  0
  161.1600  214.0020  146.1010 C   0  0  0  0  0  3  0  0  0  0  0  0
  161.9430  212.0710  147.9740 C   0  0  0  0  0  0  0  0  0  0  0  0
  160.8340  211.8450  147.1510 C   0  0  0  0  0  3  0  0  0  0  0  0
  160.4420  212.8090  146.2170 C   0  0  0  0  0  0  0  0  0  0  0  0
  161.2850  205.3880  152.5540 N   0  0  0  0  0  0  0  0  0  0  0  0
  161.5890  204.2380  151.8100 N   0  0  0  0  0  2  0  0  0  0  0  0
  160.4300  203.9320  150.9810 C   0  0  0  0  0  2  0  0  0  0  0  0
  160.8720  203.3160  149.6930 C   0  0  0  0  0  0  0  0  0  0  0  0
  161.0490  202.0690  149.6460 O   0  0  0  0  0  0  0  0  0  0  0  0
  161.6740  203.5680  147.3420 C   0  0  0  0  0  3  0  0  0  0  0  0
  161.9180  204.3490  146.2090 C   0  0  0  0  0  3  0  0  0  0  0  0
  160.8300  205.5170  148.5020 C   0  0  0  0  0  3  0  0  0  0  0  0
  161.1280  204.1460  148.4990 C   0  0  0  0  0  0  0  0  0  0  0  0
  161.6190  205.7140  146.2220 C   0  0  0  0  0  3  0  0  0  0  0  0
  161.0750  206.2980  147.3690 C   0  0  0  0  0  3  0  0  0  0  0  0
  1  5  1  0  0  0  0
  2  3  2  0  0  0  0
  3  6  1  0  0  0  0
  4  9  1  1  0  0  0
  5  4  1  0  0  0  0
  6 21  2  0  0  0  0
  6  4  1  0  0  0  0
  7  2  1  0  0  0  0
  7  1  2  0  0  0  0
  9 10  1  0  0  0  0
 10  8  2  0  0  0  0
 10 11  1  0  0  0  0
 12 13  1  0  0  0  0
 12  7  1  0  0  0  0
 14 15  1  0  0  0  0
 15 18  2  0  0  0  0
 16 20  1  0  0  0  0
 17 20  1  0  0  0  0
 17 14  2  0  0  0  0
 18 13  1  0  0  0  0
 19 18  1  0  0  0  0
 20 19  2  0  0  0  0
 22 21  1  0  0  0  0
 23 22  1  0  0  0  0
 24 23  1  0  0  0  0
 25 24  2  0  0  0  0
 26 29  1  0  0  0  0
 27 30  1  0  0  0  0
 27 26  2  0  0  0  0
 29 28  2  0  0  0  0
 29 24  1  0  0  0  0
 30 31  2  0  0  0  0
 31 28  1  0  0  0  0
M  END
>  <MODEL>
8

>  <REMARK>
 VINA RESULT:      -7.5      3.420      5.560
  Name = 
  9 active torsions:
  status: ('A' for Active; 'I' for Inactive)
    1  A    between atoms: C_3  and  N_24
    2  A    between atoms: C_3  and  C_27
    3  A    between atoms: C_11  and  C_12
    4  A    between atoms: C_11  and  C_29
    5  A    between atoms: C_12  and  N_17
    6  A    between atoms: C_14  and  N_22
    7  A    between atoms: C_15  and  N_24
    8  A    between atoms: N_17  and  N_25
    9  A    between atoms: C_21  and  N_25
                            x       y       z     vdW  Elec       q    Type
                         _______ _______ _______ _____ _____    ______ ____

>  <TORSDO>
F 9

$$$$
=
 OpenBabel11052409443D

 31 33  0  0  0  0  0  0  0  0999 V2000
  162.3300  207.9280  151.6710 C   0  0  0  0  0  3  0  0  0  0  0  0
  161.9380  209.1710  149.6180 N   0  0  0  0  0  0  0  0  0  0  0  0
  161.7130  208.2560  148.7170 C   0  0  0  0  0  3  0  0  0  0  0  0
  161.8150  206.1620  150.0560 C   0  0  0  0  0  0  0  0  0  0  0  0
  162.8650  206.7500  150.9370 C   0  0  0  0  0  2  0  0  0  0  0  0
  161.3570  206.8380  148.9820 C   0  0  0  0  0  0  0  0  0  0  0  0
  161.9080  209.0290  151.0490 C   0  0  0  0  0  0  0  0  0  0  0  0
  161.0810  204.9900  152.6130 O   0  0  0  0  0  0  0  0  0  0  0  0
  161.4400  204.8000  150.3070 N   0  0  0  0  0  2  0  0  0  0  0  0
  160.9810  204.2970  151.5670 C   0  0  0  0  0  0  0  0  0  0  0  0
  160.4260  202.9220  151.6470 C   0  0  0  0  0  1  0  0  0  0  0  0
  161.5140  210.2040  151.8770 C   0  0  0  0  0  2  0  0  0  0  0  0
  160.6280  209.7880  152.9580 N   0  0  0  0  0  2  0  0  0  0  0  0
  162.3400  210.4290  156.2280 C   0  0  0  0  0  3  0  0  0  0  0  0
  161.9540  210.5670  154.8920 C   0  0  0  0  0  3  0  0  0  0  0  0
  160.3730  207.4320  157.2270 N   0  0  0  0  0  1  0  0  0  0  0  0
  161.8160  209.3890  157.0010 C   0  0  0  0  0  3  0  0  0  0  0  0
  161.0430  209.6650  154.3220 C   0  0  0  0  0  0  0  0  0  0  0  0
  160.5210  208.6280  155.1020 C   0  0  0  0  0  3  0  0  0  0  0  0
  160.9070  208.4890  156.4400 C   0  0  0  0  0  0  0  0  0  0  0  0
  160.5880  206.1420  147.9930 N   0  0  0  0  0  2  0  0  0  0  0  0
  160.7270  206.3940  146.6190 N   0  0  0  0  0  2  0  0  0  0  0  0
  161.7760  205.5170  146.1160 C   0  0  0  0  0  2  0  0  0  0  0  0
  161.1710  204.2810  145.5330 C   0  0  0  0  0  0  0  0  0  0  0  0
  160.6490  204.3430  144.3880 O   0  0  0  0  0  0  0  0  0  0  0  0
  161.4670  203.0000  147.6550 C   0  0  0  0  0  3  0  0  0  0  0  0
  161.4530  201.8020  148.3740 C   0  0  0  0  0  3  0  0  0  0  0  0
  160.8280  201.8040  145.6510 C   0  0  0  0  0  3  0  0  0  0  0  0
  161.1550  203.0120  146.2870 C   0  0  0  0  0  0  0  0  0  0  0  0
  161.1270  200.6040  147.7310 C   0  0  0  0  0  3  0  0  0  0  0  0
  160.8130  200.6060  146.3700 C   0  0  0  0  0  3  0  0  0  0  0  0
  2  7  1  0  0  0  0
  3  6  1  0  0  0  0
  3  2  2  0  0  0  0
  4  9  1  0  0  0  0
  4  5  1  0  0  0  0
  5  1  1  0  0  0  0
  6  4  2  0  0  0  0
  7  1  2  0  0  0  0
  7 12  1  0  0  0  0
  9 10  1  0  0  0  0
 10 11  1  0  0  0  0
 10  8  2  0  0  0  0
 12 13  1  0  0  0  0
 13 18  1  0  0  0  0
 14 17  1  0  0  0  0
 15 14  2  0  0  0  0
 18 15  1  0  0  0  0
 18 19  2  0  0  0  0
 19 20  1  0  0  0  0
 20 17  2  0  0  0  0
 20 16  1  0  0  0  0
 21  6  1  0  0  0  0
 22 21  1  0  0  0  0
 23 22  1  0  0  0  0
 24 23  1  0  0  0  0
 24 29  1  0  0  0  0
 25 24  2  0  0  0  0
 26 27  1  0  0  0  0
 28 29  1  0  0  0  0
 28 31  2  0  0  0  0
 29 26  2  0  0  0  0
 30 27  2  0  0  0  0
 31 30  1  0  0  0  0
M  END
>  <MODEL>
9

>  <REMARK>
 VINA RESULT:      -7.3      2.476      4.174
  Name = 
  9 active torsions:
  status: ('A' for Active; 'I' for Inactive)
    1  A    between atoms: C_3  and  N_24
    2  A    between atoms: C_3  and  C_27
    3  A    between atoms: C_11  and  C_12
    4  A    between atoms: C_11  and  C_29
    5  A    between atoms: C_12  and  N_17
    6  A    between atoms: C_14  and  N_22
    7  A    between atoms: C_15  and  N_24
    8  A    between atoms: N_17  and  N_25
    9  A    between atoms: C_21  and  N_25
                            x       y       z     vdW  Elec       q    Type
                         _______ _______ _______ _____ _____    ______ ____

>  <TORSDO>
F 9

$$$$
