=
 OpenBabel11052410583D

 37 41  0  0  1  0  0  0  0  0999 V2000
  161.4180  211.3480  150.5850 C   0  0  0  0  0  0  0  0  0  0  0  0
  159.6400  212.4430  152.1360 C   0  0  1  0  0  3  0  0  0  0  0  0
  160.5760  212.4340  150.9640 C   0  0  0  0  0  0  0  0  0  0  0  0
  160.5130  213.5390  150.0940 C   0  0  0  0  0  3  0  0  0  0  0  0
  157.7290  212.4660  154.1510 C   0  0  2  0  0  3  0  0  0  0  0  0
  160.6090  208.3790  152.8800 C   0  0  2  0  0  3  0  0  0  0  0  0
  161.2770  210.2160  154.5870 C   0  0  0  0  0  2  0  0  0  0  0  0
  162.1330  211.4230  149.3830 C   0  0  0  0  0  3  0  0  0  0  0  0
  161.1540  211.3230  153.6930 O   0  0  0  0  0  0  0  0  0  0  0  0
  162.0210  212.5450  148.5570 C   0  0  0  0  0  0  0  0  0  0  0  0
  157.4460  213.0000  152.9370 N   0  0  0  0  0  0  0  0  0  0  0  0
  158.3680  213.0010  151.9440 C   0  0  0  0  0  3  0  0  0  0  0  0
  158.9600  211.9370  154.3760 N   0  0  0  0  0  0  0  0  0  0  0  0
  159.9210  211.9150  153.4130 C   0  0  0  0  0  0  0  0  0  0  0  0
  160.4430  209.2710  151.6430 C   0  0  0  0  0  2  0  0  0  0  0  0
  161.6790  210.1270  151.4040 C   0  0  0  0  0  2  0  0  0  0  0  0
  160.3090  209.0830  154.2120 C   0  0  0  0  0  2  0  0  0  0  0  0
  161.2230  213.5750  148.9380 N   0  0  0  0  0  0  0  0  0  0  0  0
  156.6970  212.4290  155.2080 C   0  0  0  0  0  0  0  0  0  0  0  0
  154.4520  210.0190  156.8260 F   0  0  0  0  0  0  0  0  0  0  0  0
  155.4360  213.5390  156.9690 C   0  0  0  0  0  3  0  0  0  0  0  0
  154.7790  212.3410  157.2610 C   0  0  0  0  0  3  0  0  0  0  0  0
  156.3940  213.5830  155.9490 C   0  0  0  0  0  3  0  0  0  0  0  0
  156.0320  211.2280  155.5120 C   0  0  0  0  0  3  0  0  0  0  0  0
  155.0760  211.1850  156.5310 C   0  0  0  0  0  0  0  0  0  0  0  0
  162.1560  213.2090  146.1710 O   0  0  0  0  0  0  0  0  0  0  0  0
  162.7380  212.6010  147.2790 C   0  0  0  0  0  0  0  0  0  0  0  0
  163.8980  212.1220  147.1800 O   0  0  0  0  0  1  0  0  0  0  0  0
  161.9240  207.6130  152.9150 C   0  0  0  0  0  2  0  0  0  0  0  0
  161.6400  206.1320  153.0710 C   0  0  0  0  0  2  0  0  0  0  0  0
  160.9720  204.1770  151.6490 C   0  0  0  0  0  0  0  0  0  0  0  0
  160.9880  204.3620  149.2410 C   0  0  0  0  0  3  0  0  0  0  0  0
  160.7640  203.6070  150.3940 C   0  0  0  0  0  3  0  0  0  0  0  0
  160.7550  203.4410  152.7690 F   0  0  0  0  0  0  0  0  0  0  0  0
  161.6230  206.2240  150.5990 N   0  0  0  0  0  0  0  0  0  0  0  0
  161.4250  205.6850  149.3660 C   0  0  0  0  0  3  0  0  0  0  0  0
  161.4100  205.5060  151.7370 C   0  0  0  0  0  0  0  0  0  0  0  0
  1  3  1  0  0  0  0
  1 16  1  0  0  0  0
  2 12  1  6  0  0  0
  2 14  1  0  0  0  0
  3  2  1  0  0  0  0
  4  3  2  0  0  0  0
  5 13  1  0  0  0  0
  5 19  1  6  0  0  0
  6 29  1  1  0  0  0
  6 17  1  0  0  0  0
  8  1  2  0  0  0  0
  9  7  1  0  0  0  0
 10 18  2  0  0  0  0
 10  8  1  0  0  0  0
 11  5  1  0  0  0  0
 12 11  2  0  0  0  0
 14  9  1  0  0  0  0
 14 13  2  0  0  0  0
 15  6  1  0  0  0  0
 16 15  1  0  0  0  0
 17  7  1  0  0  0  0
 18  4  1  0  0  0  0
 19 24  2  0  0  0  0
 19 23  1  0  0  0  0
 21 22  1  0  0  0  0
 23 21  2  0  0  0  0
 24 25  1  0  0  0  0
 25 20  1  0  0  0  0
 25 22  2  0  0  0  0
 26 27  2  0  0  0  0
 27 10  1  0  0  0  0
 28 27  1  0  0  0  0
 29 30  1  0  0  0  0
 31 37  1  0  0  0  0
 31 34  1  0  0  0  0
 32 36  2  0  0  0  0
 32 33  1  0  0  0  0
 33 31  2  0  0  0  0
 35 37  2  0  0  0  0
 36 35  1  0  0  0  0
 37 30  1  0  0  0  0
M  END
>  <MODEL>
1

>  <REMARK>
 VINA RESULT:      -7.1      0.000      0.000
  Name = 
  5 active torsions:
  status: ('A' for Active; 'I' for Inactive)
    1  A    between atoms: C_3  and  C_7
    2  A    between atoms: C_10  and  C_25
    3  A    between atoms: CA_16  and  C_21
    4  A    between atoms: C_22  and  C_25
    5  A    between atoms: C_22  and  C_36
                            x       y       z     vdW  Elec       q    Type
                         _______ _______ _______ _____ _____    ______ ____

>  <TORSDO>
F 5

$$$$
=
 OpenBabel11052410583D

 37 41  0  0  1  0  0  0  0  0999 V2000
  161.3360  208.4020  152.8270 C   0  0  0  0  0  0  0  0  0  0  0  0
  161.2650  205.9750  151.8950 C   0  0  1  0  0  3  0  0  0  0  0  0
  161.2040  206.9930  152.9940 C   0  0  0  0  0  0  0  0  0  0  0  0
  160.8540  206.5220  154.2740 C   0  0  0  0  0  3  0  0  0  0  0  0
  161.1490  204.0470  149.8980 C   0  0  2  0  0  3  0  0  0  0  0  0
  161.5310  209.1230  149.0610 C   0  0  2  0  0  3  0  0  0  0  0  0
  163.5280  207.5020  149.4050 C   0  0  0  0  0  2  0  0  0  0  0  0
  161.1130  209.2460  153.9220 C   0  0  0  0  0  3  0  0  0  0  0  0
  163.1180  207.0060  150.6810 O   0  0  0  0  0  0  0  0  0  0  0  0
  160.7580  208.7180  155.1660 C   0  0  0  0  0  0  0  0  0  0  0  0
  160.2870  203.9980  150.9450 N   0  0  0  0  0  0  0  0  0  0  0  0
  160.3330  204.9280  151.9300 C   0  0  0  0  0  3  0  0  0  0  0  0
  162.0790  205.0360  149.8460 N   0  0  0  0  0  0  0  0  0  0  0  0
  162.1670  205.9930  150.8100 C   0  0  0  0  0  0  0  0  0  0  0  0
  160.8220  208.8950  150.4030 C   0  0  0  0  0  2  0  0  0  0  0  0
  161.7730  209.0880  151.5740 C   0  0  0  0  0  2  0  0  0  0  0  0
  162.3190  207.9080  148.5480 C   0  0  0  0  0  2  0  0  0  0  0  0
  160.6470  207.3730  155.3120 N   0  0  0  0  0  0  0  0  0  0  0  0
  161.0550  203.0530  148.8080 C   0  0  0  0  0  0  0  0  0  0  0  0
  161.2000  202.9170  145.1450 F   0  0  0  0  0  0  0  0  0  0  0  0
  160.8480  200.7450  148.0670 C   0  0  0  0  0  3  0  0  0  0  0  0
  160.9410  201.1590  146.7350 C   0  0  0  0  0  3  0  0  0  0  0  0
  160.9080  201.6880  149.1000 C   0  0  0  0  0  3  0  0  0  0  0  0
  161.1500  203.4580  147.4660 C   0  0  0  0  0  3  0  0  0  0  0  0
  161.0910  202.5170  146.4350 C   0  0  0  0  0  0  0  0  0  0  0  0
  159.2870  210.3140  156.3670 O   0  0  0  0  0  0  0  0  0  0  0  0
  160.4830  209.6070  156.3000 C   0  0  0  0  0  0  0  0  0  0  0  0
  161.3180  209.7180  157.2360 O   0  0  0  0  0  1  0  0  0  0  0  0
  162.3470  210.4070  149.0060 C   0  0  0  0  0  2  0  0  0  0  0  0
  161.4100  211.5980  148.9790 C   0  0  0  0  0  2  0  0  0  0  0  0
  162.4890  212.9370  147.1540 C   0  0  0  0  0  0  0  0  0  0  0  0
  161.3180  213.3310  145.0780 C   0  0  0  0  0  3  0  0  0  0  0  0
  162.4500  213.5010  145.8780 C   0  0  0  0  0  3  0  0  0  0  0  0
  163.5890  213.1040  147.9310 F   0  0  0  0  0  0  0  0  0  0  0  0
  160.2920  212.0550  146.8200 N   0  0  0  0  0  0  0  0  0  0  0  0
  160.2350  212.5970  145.5730 C   0  0  0  0  0  3  0  0  0  0  0  0
  161.3860  212.2070  147.6170 C   0  0  0  0  0  0  0  0  0  0  0  0
  1  3  2  0  0  0  0
  1  8  1  0  0  0  0
  2 12  1  6  0  0  0
  2  3  1  0  0  0  0
  3  4  1  0  0  0  0
  4 18  2  0  0  0  0
  5 19  1  6  0  0  0
  5 11  1  0  0  0  0
  6 29  1  1  0  0  0
  6 15  1  0  0  0  0
  7  9  1  0  0  0  0
  8 10  2  0  0  0  0
  9 14  1  0  0  0  0
 10 18  1  0  0  0  0
 10 27  1  0  0  0  0
 11 12  2  0  0  0  0
 13  5  1  0  0  0  0
 13 14  2  0  0  0  0
 14  2  1  0  0  0  0
 15 16  1  0  0  0  0
 16  1  1  0  0  0  0
 17  6  1  0  0  0  0
 17  7  1  0  0  0  0
 19 23  1  0  0  0  0
 20 25  1  0  0  0  0
 21 23  2  0  0  0  0
 22 21  1  0  0  0  0
 24 19  2  0  0  0  0
 25 22  2  0  0  0  0
 25 24  1  0  0  0  0
 27 26  2  0  0  0  0
 27 28  1  0  0  0  0
 30 29  1  0  0  0  0
 31 37  1  0  0  0  0
 31 34  1  0  0  0  0
 32 36  2  0  0  0  0
 32 33  1  0  0  0  0
 33 31  2  0  0  0  0
 35 37  2  0  0  0  0
 36 35  1  0  0  0  0
 37 30  1  0  0  0  0
M  END
>  <MODEL>
2

>  <REMARK>
 VINA RESULT:      -6.8      4.371      9.526
  Name = 
  5 active torsions:
  status: ('A' for Active; 'I' for Inactive)
    1  A    between atoms: C_3  and  C_7
    2  A    between atoms: C_10  and  C_25
    3  A    between atoms: CA_16  and  C_21
    4  A    between atoms: C_22  and  C_25
    5  A    between atoms: C_22  and  C_36
                            x       y       z     vdW  Elec       q    Type
                         _______ _______ _______ _____ _____    ______ ____

>  <TORSDO>
F 5

$$$$
=
 OpenBabel11052410583D

 37 41  0  0  1  0  0  0  0  0999 V2000
  161.2090  204.9940  150.3270 C   0  0  0  0  0  0  0  0  0  0  0  0
  161.7390  207.1970  149.0490 C   0  0  1  0  0  3  0  0  0  0  0  0
  161.5530  205.7120  149.1450 C   0  0  0  0  0  0  0  0  0  0  0  0
  161.5910  204.9900  147.9370 C   0  0  0  0  0  3  0  0  0  0  0  0
  161.8910  209.9530  148.7380 C   0  0  2  0  0  3  0  0  0  0  0  0
  160.5230  207.5600  153.0990 C   0  0  2  0  0  3  0  0  0  0  0  0
  162.9540  208.1490  152.4060 C   0  0  0  0  0  2  0  0  0  0  0  0
  160.9240  203.6260  150.2390 C   0  0  0  0  0  3  0  0  0  0  0  0
  162.9430  207.4490  151.1610 O   0  0  0  0  0  0  0  0  0  0  0  0
  160.9690  202.9670  149.0080 C   0  0  0  0  0  0  0  0  0  0  0  0
  161.2790  209.1920  147.7950 N   0  0  0  0  0  0  0  0  0  0  0  0
  161.2000  207.8460  147.9290 C   0  0  0  0  0  3  0  0  0  0  0  0
  162.4420  209.3520  149.8240 N   0  0  0  0  0  0  0  0  0  0  0  0
  162.3910  208.0040  150.0050 C   0  0  0  0  0  0  0  0  0  0  0  0
  160.1610  206.6630  151.9080 C   0  0  0  0  0  2  0  0  0  0  0  0
  161.1900  205.5600  151.7090 C   0  0  0  0  0  2  0  0  0  0  0  0
  161.5510  208.6550  152.7760 C   0  0  0  0  0  2  0  0  0  0  0  0
  161.3100  203.6620  147.8920 N   0  0  0  0  0  0  0  0  0  0  0  0
  161.9260  211.4240  148.6010 C   0  0  0  0  0  0  0  0  0  0  0  0
  160.0920  214.3760  149.7790 F   0  0  0  0  0  0  0  0  0  0  0  0
  162.9910  213.4410  147.7530 C   0  0  0  0  0  3  0  0  0  0  0  0
  162.0280  214.2250  148.3950 C   0  0  0  0  0  3  0  0  0  0  0  0
  162.9420  212.0460  147.8580 C   0  0  0  0  0  3  0  0  0  0  0  0
  160.9650  212.2220  149.2450 C   0  0  0  0  0  3  0  0  0  0  0  0
  161.0140  213.6140  149.1410 C   0  0  0  0  0  0  0  0  0  0  0  0
  161.5150  200.6450  148.3270 O   0  0  0  0  0  0  0  0  0  0  0  0
  160.6290  201.5440  148.9130 C   0  0  0  0  0  0  0  0  0  0  0  0
  159.5410  201.1180  149.3840 O   0  0  0  0  0  1  0  0  0  0  0  0
  160.8770  206.7910  154.3650 C   0  0  0  0  0  2  0  0  0  0  0  0
  160.0560  207.3230  155.5230 C   0  0  0  0  0  2  0  0  0  0  0  0
  160.0810  209.7680  156.0780 C   0  0  0  0  0  0  0  0  0  0  0  0
  161.9670  210.7330  157.2390 C   0  0  0  0  0  3  0  0  0  0  0  0
  160.7130  210.8770  156.6400 C   0  0  0  0  0  3  0  0  0  0  0  0
  158.8630  209.9090  155.4960 F   0  0  0  0  0  0  0  0  0  0  0  0
  161.9400  208.4020  156.7070 N   0  0  0  0  0  0  0  0  0  0  0  0
  162.5720  209.4720  157.2610 C   0  0  0  0  0  3  0  0  0  0  0  0
  160.7160  208.5190  156.1200 C   0  0  0  0  0  0  0  0  0  0  0  0
  1 16  1  0  0  0  0
  2 12  1  1  0  0  0
  2  3  1  0  0  0  0
  2 14  1  0  0  0  0
  3  1  2  0  0  0  0
  4  3  1  0  0  0  0
  5 19  1  1  0  0  0
  5 13  1  0  0  0  0
  6 29  1  1  0  0  0
  7 17  1  0  0  0  0
  8  1  1  0  0  0  0
  9  7  1  0  0  0  0
 10  8  2  0  0  0  0
 11 12  2  0  0  0  0
 11  5  1  0  0  0  0
 13 14  2  0  0  0  0
 14  9  1  0  0  0  0
 15  6  1  0  0  0  0
 16 15  1  0  0  0  0
 17  6  1  0  0  0  0
 18  4  2  0  0  0  0
 18 10  1  0  0  0  0
 19 24  1  0  0  0  0
 21 23  1  0  0  0  0
 21 22  2  0  0  0  0
 22 25  1  0  0  0  0
 23 19  2  0  0  0  0
 25 24  2  0  0  0  0
 25 20  1  0  0  0  0
 26 27  2  0  0  0  0
 27 10  1  0  0  0  0
 27 28  1  0  0  0  0
 29 30  1  0  0  0  0
 30 37  1  0  0  0  0
 31 37  2  0  0  0  0
 31 33  1  0  0  0  0
 32 36  1  0  0  0  0
 33 32  2  0  0  0  0
 34 31  1  0  0  0  0
 35 36  2  0  0  0  0
 37 35  1  0  0  0  0
M  END
>  <MODEL>
3

>  <REMARK>
 VINA RESULT:      -6.0      3.898      8.035
  Name = 
  5 active torsions:
  status: ('A' for Active; 'I' for Inactive)
    1  A    between atoms: C_3  and  C_7
    2  A    between atoms: C_10  and  C_25
    3  A    between atoms: CA_16  and  C_21
    4  A    between atoms: C_22  and  C_25
    5  A    between atoms: C_22  and  C_36
                            x       y       z     vdW  Elec       q    Type
                         _______ _______ _______ _____ _____    ______ ____

>  <TORSDO>
F 5

$$$$
=
 OpenBabel11052410583D

 37 41  0  0  1  0  0  0  0  0999 V2000
  161.8100  208.6420  149.8840 C   0  0  0  0  0  0  0  0  0  0  0  0
  161.2780  206.6120  148.3480 C   0  0  1  0  0  3  0  0  0  0  0  0
  161.4360  208.0760  148.6300 C   0  0  0  0  0  0  0  0  0  0  0  0
  161.3380  208.9470  147.5290 C   0  0  0  0  0  3  0  0  0  0  0  0
  161.1730  203.9160  147.6840 C   0  0  2  0  0  3  0  0  0  0  0  0
  162.6530  205.7560  152.2710 C   0  0  2  0  0  3  0  0  0  0  0  0
  160.2110  205.2000  151.5910 C   0  0  0  0  0  2  0  0  0  0  0  0
  162.0620  210.0170  149.9660 C   0  0  0  0  0  3  0  0  0  0  0  0
  160.1600  206.0560  150.4490 O   0  0  0  0  0  0  0  0  0  0  0  0
  161.9560  210.8290  148.8340 C   0  0  0  0  0  0  0  0  0  0  0  0
  161.7330  204.8090  146.8280 N   0  0  0  0  0  0  0  0  0  0  0  0
  161.7880  206.1280  147.1340 C   0  0  0  0  0  3  0  0  0  0  0  0
  160.6500  204.3560  148.8580 N   0  0  0  0  0  0  0  0  0  0  0  0
  160.6790  205.6700  149.2110 C   0  0  0  0  0  0  0  0  0  0  0  0
  162.9510  206.8100  151.1950 C   0  0  0  0  0  2  0  0  0  0  0  0
  161.8930  207.9020  151.1780 C   0  0  0  0  0  2  0  0  0  0  0  0
  161.6370  204.6860  151.8430 C   0  0  0  0  0  2  0  0  0  0  0  0
  161.5890  210.2760  147.6490 N   0  0  0  0  0  0  0  0  0  0  0  0
  161.1640  202.4750  147.3570 C   0  0  0  0  0  0  0  0  0  0  0  0
  160.4560  200.2700  144.5110 F   0  0  0  0  0  0  0  0  0  0  0  0
  161.5860  200.1630  147.9880 C   0  0  0  0  0  3  0  0  0  0  0  0
  161.2060  199.7400  146.7120 C   0  0  0  0  0  3  0  0  0  0  0  0
  161.5670  201.5260  148.3090 C   0  0  0  0  0  3  0  0  0  0  0  0
  160.7880  202.0390  146.0750 C   0  0  0  0  0  3  0  0  0  0  0  0
  160.8060  200.6790  145.7550 C   0  0  0  0  0  0  0  0  0  0  0  0
  163.3760  212.7820  148.2630 O   0  0  0  0  0  0  0  0  0  0  0  0
  162.2630  212.2610  148.9150 C   0  0  0  0  0  0  0  0  0  0  0  0
  161.5040  213.0370  149.5540 O   0  0  0  0  0  1  0  0  0  0  0  0
  162.3310  206.3440  153.6370 C   0  0  0  0  0  2  0  0  0  0  0  0
  160.8590  206.7000  153.6980 C   0  0  0  0  0  2  0  0  0  0  0  0
  160.4560  208.9570  154.7120 C   0  0  0  0  0  0  0  0  0  0  0  0
  160.0730  209.1740  157.0880 C   0  0  0  0  0  3  0  0  0  0  0  0
  160.2010  209.7580  155.8260 C   0  0  0  0  0  3  0  0  0  0  0  0
  160.5820  209.5270  153.4870 F   0  0  0  0  0  0  0  0  0  0  0  0
  160.4570  207.0230  156.1170 N   0  0  0  0  0  0  0  0  0  0  0  0
  160.2080  207.7870  157.2150 C   0  0  0  0  0  3  0  0  0  0  0  0
  160.5840  207.5710  154.8770 C   0  0  0  0  0  0  0  0  0  0  0  0
  1  8  1  0  0  0  0
  1 16  1  0  0  0  0
  2 12  1  1  0  0  0
  2  3  1  0  0  0  0
  2 14  1  0  0  0  0
  3  1  2  0  0  0  0
  4 18  2  0  0  0  0
  4  3  1  0  0  0  0
  5 19  1  1  0  0  0
  5 13  1  0  0  0  0
  6 29  1  1  0  0  0
  7 17  1  0  0  0  0
  9  7  1  0  0  0  0
 10 27  1  0  0  0  0
 10  8  2  0  0  0  0
 11 12  2  0  0  0  0
 11  5  1  0  0  0  0
 13 14  2  0  0  0  0
 14  9  1  0  0  0  0
 15  6  1  0  0  0  0
 16 15  1  0  0  0  0
 17  6  1  0  0  0  0
 18 10  1  0  0  0  0
 19 23  1  0  0  0  0
 20 25  1  0  0  0  0
 21 23  2  0  0  0  0
 22 21  1  0  0  0  0
 24 19  2  0  0  0  0
 25 24  1  0  0  0  0
 25 22  2  0  0  0  0
 26 27  2  0  0  0  0
 27 28  1  0  0  0  0
 29 30  1  0  0  0  0
 30 37  1  0  0  0  0
 31 37  2  0  0  0  0
 31 33  1  0  0  0  0
 32 36  1  0  0  0  0
 33 32  2  0  0  0  0
 34 31  1  0  0  0  0
 35 36  2  0  0  0  0
 37 35  1  0  0  0  0
M  END
>  <MODEL>
4

>  <REMARK>
 VINA RESULT:      -5.3      3.683      8.794
  Name = 
  5 active torsions:
  status: ('A' for Active; 'I' for Inactive)
    1  A    between atoms: C_3  and  C_7
    2  A    between atoms: C_10  and  C_25
    3  A    between atoms: CA_16  and  C_21
    4  A    between atoms: C_22  and  C_25
    5  A    between atoms: C_22  and  C_36
                            x       y       z     vdW  Elec       q    Type
                         _______ _______ _______ _____ _____    ______ ____

>  <TORSDO>
F 5

$$$$
=
 OpenBabel11052410583D

 37 41  0  0  1  0  0  0  0  0999 V2000
  161.8090  208.6980  149.8690 C   0  0  0  0  0  0  0  0  0  0  0  0
  161.2780  206.6540  148.3510 C   0  0  1  0  0  3  0  0  0  0  0  0
  161.4360  208.1210  148.6210 C   0  0  0  0  0  0  0  0  0  0  0  0
  161.3380  208.9830  147.5120 C   0  0  0  0  0  3  0  0  0  0  0  0
  161.1740  203.9530  147.7100 C   0  0  2  0  0  3  0  0  0  0  0  0
  162.6530  205.8320  152.2810 C   0  0  2  0  0  3  0  0  0  0  0  0
  160.2110  205.2700  151.6050 C   0  0  0  0  0  2  0  0  0  0  0  0
  162.0610  210.0730  149.9400 C   0  0  0  0  0  3  0  0  0  0  0  0
  160.1600  206.1160  150.4560 O   0  0  0  0  0  0  0  0  0  0  0  0
  161.9560  210.8750  148.8010 C   0  0  0  0  0  0  0  0  0  0  0  0
  161.7330  204.8380  146.8470 N   0  0  0  0  0  0  0  0  0  0  0  0
  161.7890  206.1600  147.1420 C   0  0  0  0  0  3  0  0  0  0  0  0
  160.6500  204.4030  148.8800 N   0  0  0  0  0  0  0  0  0  0  0  0
  160.6790  205.7200  149.2220 C   0  0  0  0  0  0  0  0  0  0  0  0
  162.9510  206.8770  151.1970 C   0  0  0  0  0  2  0  0  0  0  0  0
  161.8920  207.9690  151.1700 C   0  0  0  0  0  2  0  0  0  0  0  0
  161.6370  204.7590  151.8620 C   0  0  0  0  0  2  0  0  0  0  0  0
  161.5890  210.3120  147.6210 N   0  0  0  0  0  0  0  0  0  0  0  0
  161.1640  202.5090  147.3950 C   0  0  0  0  0  0  0  0  0  0  0  0
  160.4590  200.2800  144.5680 F   0  0  0  0  0  0  0  0  0  0  0  0
  161.5850  200.2030  148.0470 C   0  0  0  0  0  3  0  0  0  0  0  0
  161.2070  199.7690  146.7730 C   0  0  0  0  0  3  0  0  0  0  0  0
  161.5670  201.5680  148.3560 C   0  0  0  0  0  3  0  0  0  0  0  0
  160.7890  202.0620  146.1170 C   0  0  0  0  0  3  0  0  0  0  0  0
  160.8080  200.6990  145.8080 C   0  0  0  0  0  0  0  0  0  0  0  0
  163.4140  212.8120  148.2740 O   0  0  0  0  0  0  0  0  0  0  0  0
  162.2620  212.3080  148.8690 C   0  0  0  0  0  0  0  0  0  0  0  0
  161.4700  213.1000  149.4460 O   0  0  0  0  0  1  0  0  0  0  0  0
  162.3300  206.4320  153.6430 C   0  0  0  0  0  2  0  0  0  0  0  0
  160.8610  206.8030  153.6940 C   0  0  0  0  0  2  0  0  0  0  0  0
  160.2780  207.8190  155.9110 C   0  0  0  0  0  0  0  0  0  0  0  0
  160.2850  210.2180  156.1900 C   0  0  0  0  0  3  0  0  0  0  0  0
  160.0900  208.9410  156.7190 C   0  0  0  0  0  3  0  0  0  0  0  0
  160.0860  206.5780  156.4250 F   0  0  0  0  0  0  0  0  0  0  0  0
  160.8420  209.2470  154.0780 N   0  0  0  0  0  0  0  0  0  0  0  0
  160.6640  210.3530  154.8500 C   0  0  0  0  0  3  0  0  0  0  0  0
  160.6580  207.9910  154.5730 C   0  0  0  0  0  0  0  0  0  0  0  0
  1  8  1  0  0  0  0
  1 16  1  0  0  0  0
  2 12  1  1  0  0  0
  2  3  1  0  0  0  0
  2 14  1  0  0  0  0
  3  1  2  0  0  0  0
  4 18  2  0  0  0  0
  4  3  1  0  0  0  0
  5 19  1  1  0  0  0
  5 13  1  0  0  0  0
  6 29  1  1  0  0  0
  7 17  1  0  0  0  0
  9  7  1  0  0  0  0
 10 27  1  0  0  0  0
 10  8  2  0  0  0  0
 11 12  2  0  0  0  0
 11  5  1  0  0  0  0
 13 14  2  0  0  0  0
 14  9  1  0  0  0  0
 15  6  1  0  0  0  0
 16 15  1  0  0  0  0
 17  6  1  0  0  0  0
 18 10  1  0  0  0  0
 19 23  1  0  0  0  0
 20 25  1  0  0  0  0
 21 23  2  0  0  0  0
 22 21  1  0  0  0  0
 24 19  2  0  0  0  0
 25 24  1  0  0  0  0
 25 22  2  0  0  0  0
 26 27  2  0  0  0  0
 27 28  1  0  0  0  0
 29 30  1  0  0  0  0
 30 37  1  0  0  0  0
 31 34  1  0  0  0  0
 31 33  1  0  0  0  0
 32 33  2  0  0  0  0
 35 37  1  0  0  0  0
 35 36  2  0  0  0  0
 36 32  1  0  0  0  0
 37 31  2  0  0  0  0
M  END
>  <MODEL>
5

>  <REMARK>
 VINA RESULT:      -5.2      3.339      8.698
  Name = 
  5 active torsions:
  status: ('A' for Active; 'I' for Inactive)
    1  A    between atoms: C_3  and  C_7
    2  A    between atoms: C_10  and  C_25
    3  A    between atoms: CA_16  and  C_21
    4  A    between atoms: C_22  and  C_25
    5  A    between atoms: C_22  and  C_36
                            x       y       z     vdW  Elec       q    Type
                         _______ _______ _______ _____ _____    ______ ____

>  <TORSDO>
F 5

$$$$
=
 OpenBabel11052410583D

 37 41  0  0  1  0  0  0  0  0999 V2000
  161.9290  211.6620  148.3090 C   0  0  0  0  0  0  0  0  0  0  0  0
  160.7430  212.4180  150.4970 C   0  0  1  0  0  3  0  0  0  0  0  0
  161.3560  212.6600  149.1500 C   0  0  0  0  0  0  0  0  0  0  0  0
  161.2300  213.9590  148.6210 C   0  0  0  0  0  3  0  0  0  0  0  0
  159.4000  212.0270  152.8970 C   0  0  2  0  0  3  0  0  0  0  0  0
  161.3160  208.2480  149.9550 C   0  0  2  0  0  3  0  0  0  0  0  0
  162.6170  209.5170  151.8080 C   0  0  0  0  0  2  0  0  0  0  0  0
  162.3330  212.0080  147.0140 C   0  0  0  0  0  3  0  0  0  0  0  0
  162.4280  210.8270  151.2720 O   0  0  0  0  0  0  0  0  0  0  0  0
  162.1730  213.3130  146.5430 C   0  0  0  0  0  0  0  0  0  0  0  0
  158.9040  212.8840  151.9680 N   0  0  0  0  0  0  0  0  0  0  0  0
  159.5480  213.0890  150.7940 C   0  0  0  0  0  3  0  0  0  0  0  0
  160.5680  211.3790  152.6480 N   0  0  0  0  0  0  0  0  0  0  0  0
  161.2540  211.5520  151.4860 C   0  0  0  0  0  0  0  0  0  0  0  0
  160.9740  209.4470  149.0590 C   0  0  0  0  0  2  0  0  0  0  0  0
  162.2160  210.2520  148.7090 C   0  0  0  0  0  2  0  0  0  0  0  0
  161.4460  208.5900  151.4460 C   0  0  0  0  0  2  0  0  0  0  0  0
  161.6360  214.2550  147.3600 N   0  0  0  0  0  0  0  0  0  0  0  0
  158.6610  211.7780  154.1520 C   0  0  0  0  0  0  0  0  0  0  0  0
  155.2750  210.9010  155.2620 F   0  0  0  0  0  0  0  0  0  0  0  0
  158.6300  211.5380  156.5730 C   0  0  0  0  0  3  0  0  0  0  0  0
  157.2650  211.2400  156.5310 C   0  0  0  0  0  3  0  0  0  0  0  0
  159.3260  211.8030  155.3880 C   0  0  0  0  0  3  0  0  0  0  0  0
  157.2890  211.4740  154.1210 C   0  0  0  0  0  3  0  0  0  0  0  0
  156.5950  211.2090  155.3040 C   0  0  0  0  0  0  0  0  0  0  0  0
  163.6940  213.1030  144.5940 O   0  0  0  0  0  1  0  0  0  0  0  0
  162.5580  213.6620  145.1710 C   0  0  0  0  0  0  0  0  0  0  0  0
  161.8490  214.4530  144.4940 O   0  0  0  0  0  0  0  0  0  0  0  0
  162.4870  207.4160  149.4490 C   0  0  0  0  0  2  0  0  0  0  0  0
  162.0530  206.6260  148.2300 C   0  0  0  0  0  2  0  0  0  0  0  0
  161.6420  204.2080  147.7080 C   0  0  0  0  0  0  0  0  0  0  0  0
  160.7520  202.7320  149.4010 C   0  0  0  0  0  3  0  0  0  0  0  0
  161.2130  202.9400  148.0990 C   0  0  0  0  0  3  0  0  0  0  0  0
  162.0880  204.4090  146.4430 F   0  0  0  0  0  0  0  0  0  0  0  0
  161.1450  205.0380  149.8950 N   0  0  0  0  0  0  0  0  0  0  0  0
  160.7230  203.8080  150.2950 C   0  0  0  0  0  3  0  0  0  0  0  0
  161.6000  205.2630  148.6310 C   0  0  0  0  0  0  0  0  0  0  0  0
  1 16  1  0  0  0  0
  1  3  1  0  0  0  0
  2 12  1  6  0  0  0
  2 14  1  0  0  0  0
  3  2  1  0  0  0  0
  4  3  2  0  0  0  0
  5 19  1  6  0  0  0
  6 29  1  6  0  0  0
  6 17  1  0  0  0  0
  8  1  2  0  0  0  0
  9 14  1  0  0  0  0
  9  7  1  0  0  0  0
 10  8  1  0  0  0  0
 10 18  2  0  0  0  0
 11  5  1  0  0  0  0
 12 11  2  0  0  0  0
 13  5  1  0  0  0  0
 14 13  2  0  0  0  0
 15  6  1  0  0  0  0
 16 15  1  0  0  0  0
 17  7  1  0  0  0  0
 18  4  1  0  0  0  0
 19 23  1  0  0  0  0
 20 25  1  0  0  0  0
 22 21  1  0  0  0  0
 23 21  2  0  0  0  0
 24 19  2  0  0  0  0
 24 25  1  0  0  0  0
 25 22  2  0  0  0  0
 26 27  1  0  0  0  0
 27 10  1  0  0  0  0
 28 27  2  0  0  0  0
 30 37  1  0  0  0  0
 30 29  1  0  0  0  0
 31 33  2  0  0  0  0
 31 37  1  0  0  0  0
 32 36  2  0  0  0  0
 33 32  1  0  0  0  0
 34 31  1  0  0  0  0
 35 36  1  0  0  0  0
 37 35  2  0  0  0  0
M  END
>  <MODEL>
6

>  <REMARK>
 VINA RESULT:      -5.1      2.102      2.853
  Name = 
  5 active torsions:
  status: ('A' for Active; 'I' for Inactive)
    1  A    between atoms: C_3  and  C_7
    2  A    between atoms: C_10  and  C_25
    3  A    between atoms: CA_16  and  C_21
    4  A    between atoms: C_22  and  C_25
    5  A    between atoms: C_22  and  C_36
                            x       y       z     vdW  Elec       q    Type
                         _______ _______ _______ _____ _____    ______ ____

>  <TORSDO>
F 5

$$$$
=
 OpenBabel11052410583D

 37 41  0  0  1  0  0  0  0  0999 V2000
  161.3900  205.2090  148.5320 C   0  0  0  0  0  0  0  0  0  0  0  0
  161.5350  207.2710  150.1110 C   0  0  1  0  0  3  0  0  0  0  0  0
  161.5470  206.6060  148.7670 C   0  0  0  0  0  0  0  0  0  0  0  0
  161.5820  207.4520  147.6430 C   0  0  0  0  0  3  0  0  0  0  0  0
  161.3090  208.6050  152.5370 C   0  0  2  0  0  3  0  0  0  0  0  0
  160.6020  203.5350  151.8970 C   0  0  2  0  0  3  0  0  0  0  0  0
  162.8770  204.6860  152.3840 C   0  0  0  0  0  2  0  0  0  0  0  0
  161.2760  204.7440  147.2170 C   0  0  0  0  0  3  0  0  0  0  0  0
  162.8580  205.5680  151.2610 O   0  0  0  0  0  0  0  0  0  0  0  0
  161.3080  205.6360  146.1420 C   0  0  0  0  0  0  0  0  0  0  0  0
  160.7280  209.1140  151.4220 N   0  0  0  0  0  0  0  0  0  0  0  0
  160.8320  208.4780  150.2300 C   0  0  0  0  0  3  0  0  0  0  0  0
  162.0160  207.4480  152.4510 N   0  0  0  0  0  0  0  0  0  0  0  0
  162.1520  206.7720  151.2780 C   0  0  0  0  0  0  0  0  0  0  0  0
  160.2650  204.2510  150.5820 C   0  0  0  0  0  2  0  0  0  0  0  0
  161.4070  204.1470  149.5820 C   0  0  0  0  0  2  0  0  0  0  0  0
  161.4540  204.3650  152.8680 C   0  0  0  0  0  2  0  0  0  0  0  0
  161.4690  206.9630  146.3810 N   0  0  0  0  0  0  0  0  0  0  0  0
  161.1470  209.2840  153.8390 C   0  0  0  0  0  0  0  0  0  0  0  0
  160.4470  212.6340  155.1640 F   0  0  0  0  0  0  0  0  0  0  0  0
  161.0230  209.1950  156.2680 C   0  0  0  0  0  3  0  0  0  0  0  0
  160.7730  210.5690  156.3110 C   0  0  0  0  0  3  0  0  0  0  0  0
  161.2060  208.5540  155.0370 C   0  0  0  0  0  3  0  0  0  0  0  0
  160.8920  210.6660  153.8940 C   0  0  0  0  0  3  0  0  0  0  0  0
  160.7090  211.3040  155.1230 C   0  0  0  0  0  0  0  0  0  0  0  0
  160.4850  203.9520  144.5160 O   0  0  0  0  0  1  0  0  0  0  0  0
  161.1450  205.1500  144.7670 C   0  0  0  0  0  0  0  0  0  0  0  0
  161.5810  205.8280  143.7990 O   0  0  0  0  0  0  0  0  0  0  0  0
  161.1490  202.1260  151.7080 C   0  0  0  0  0  2  0  0  0  0  0  0
  160.0950  201.2630  151.0430 C   0  0  0  0  0  2  0  0  0  0  0  0
  159.3990  201.3360  148.6350 C   0  0  0  0  0  0  0  0  0  0  0  0
  160.9850  200.8020  146.8920 C   0  0  0  0  0  3  0  0  0  0  0  0
  159.6980  201.1810  147.2810 C   0  0  0  0  0  3  0  0  0  0  0  0
  158.1480  201.7030  149.0110 F   0  0  0  0  0  0  0  0  0  0  0  0
  161.6450  200.7340  149.1890 N   0  0  0  0  0  0  0  0  0  0  0  0
  161.9560  200.5780  147.8740 C   0  0  0  0  0  3  0  0  0  0  0  0
  160.3970  201.1040  149.5900 C   0  0  0  0  0  0  0  0  0  0  0  0
  1  3  1  0  0  0  0
  1 16  1  0  0  0  0
  2 12  1  1  0  0  0
  2 14  1  0  0  0  0
  3  2  1  0  0  0  0
  4  3  2  0  0  0  0
  5 19  1  1  0  0  0
  6 29  1  6  0  0  0
  6 17  1  0  0  0  0
  7 17  1  0  0  0  0
  8  1  2  0  0  0  0
  9 14  1  0  0  0  0
  9  7  1  0  0  0  0
 10 18  2  0  0  0  0
 10  8  1  0  0  0  0
 11  5  1  0  0  0  0
 12 11  2  0  0  0  0
 13  5  1  0  0  0  0
 14 13  2  0  0  0  0
 15  6  1  0  0  0  0
 16 15  1  0  0  0  0
 18  4  1  0  0  0  0
 19 24  2  0  0  0  0
 19 23  1  0  0  0  0
 21 22  1  0  0  0  0
 23 21  2  0  0  0  0
 24 25  1  0  0  0  0
 25 20  1  0  0  0  0
 25 22  2  0  0  0  0
 26 27  1  0  0  0  0
 27 10  1  0  0  0  0
 28 27  2  0  0  0  0
 30 29  1  0  0  0  0
 31 34  1  0  0  0  0
 31 37  1  0  0  0  0
 32 33  1  0  0  0  0
 32 36  2  0  0  0  0
 33 31  2  0  0  0  0
 35 37  2  0  0  0  0
 36 35  1  0  0  0  0
 37 30  1  0  0  0  0
M  END
>  <MODEL>
7

>  <REMARK>
 VINA RESULT:      -4.8      4.155      6.114
  Name = 
  5 active torsions:
  status: ('A' for Active; 'I' for Inactive)
    1  A    between atoms: C_3  and  C_7
    2  A    between atoms: C_10  and  C_25
    3  A    between atoms: CA_16  and  C_21
    4  A    between atoms: C_22  and  C_25
    5  A    between atoms: C_22  and  C_36
                            x       y       z     vdW  Elec       q    Type
                         _______ _______ _______ _____ _____    ______ ____

>  <TORSDO>
F 5

$$$$
