=
 OpenBabel11042422003D

 46 48  0  0  1  0  0  0  0  0999 V2000
  162.3220  210.5750  149.8550 C   0  0  1  0  0  3  0  0  0  0  0  0
  162.0710  209.3060  149.1830 N   0  0  0  0  0  2  0  0  0  0  0  0
  161.8100  208.0860  149.8830 C   0  0  0  0  0  0  0  0  0  0  0  0
  161.3270  205.6970  151.2880 C   0  0  0  0  0  0  0  0  0  0  0  0
  162.3680  206.5560  151.6770 C   0  0  0  0  0  3  0  0  0  0  0  0
  160.7720  207.2290  149.4880 C   0  0  0  0  0  3  0  0  0  0  0  0
  160.5350  206.0440  150.1900 C   0  0  0  0  0  3  0  0  0  0  0  0
  162.6070  207.7420  150.9780 C   0  0  0  0  0  3  0  0  0  0  0  0
  161.0530  204.4920  151.9500 O   0  0  0  0  0  0  0  0  0  0  0  0
  162.1400  202.4390  151.8410 O   0  0  0  0  0  0  0  0  0  0  0  0
  161.2260  203.2010  151.4300 C   0  0  0  0  0  0  0  0  0  0  0  0
  160.3200  202.7330  150.3430 C   0  0  0  0  0  2  0  0  0  0  0  0
  161.4700  202.3620  146.2140 C   0  0  1  0  0  3  0  0  0  0  0  0
  160.7730  201.2110  148.3970 C   0  0  0  0  0  2  0  0  0  0  0  0
  160.8530  203.6370  148.1830 O   0  0  0  0  0  0  0  0  0  0  0  0
  160.5360  201.3450  146.8860 C   0  0  0  0  0  2  0  0  0  0  0  0
  161.1050  202.5620  149.0540 C   0  0  1  0  0  3  0  0  0  0  0  0
  160.8540  202.8330  145.0530 O   0  0  0  0  0  1  0  0  0  0  0  0
  161.8230  203.5190  147.1760 C   0  0  2  0  0  3  0  0  0  0  0  0
  162.0620  204.8550  146.4760 C   0  0  0  0  0  2  0  0  0  0  0  0
  160.8540  205.7810  146.5790 C   0  0  0  0  0  2  0  0  0  0  0  0
  160.2660  206.0890  145.2120 C   0  0  0  0  0  2  0  0  0  0  0  0
  161.2260  205.8820  144.2220 O   0  0  0  0  0  1  0  0  0  0  0  0
  162.7080  211.5500  148.8920 O   0  0  0  0  0  0  0  0  0  0  0  0
  161.7950  212.4290  148.3050 C   0  0  0  0  0  0  0  0  0  0  0  0
  161.0000  211.9740  147.2100 N   0  0  0  0  0  2  0  0  0  0  0  0
  161.6730  213.6100  148.7320 O   0  0  0  0  0  0  0  0  0  0  0  0
  160.0200  212.8290  146.5590 C   0  0  0  0  0  2  0  0  0  0  0  0
  158.9230  213.2320  144.4270 N   0  0  0  0  0  1  0  0  0  0  0  0
  159.6320  212.2390  145.2170 C   0  0  0  0  0  2  0  0  0  0  0  0
  161.0610  211.0320  150.5710 C   0  0  0  0  0  2  0  0  0  0  0  0
  161.2250  210.9120  152.0770 C   0  0  0  0  0  2  0  0  0  0  0  0
  159.9790  210.3030  152.7000 C   0  0  0  0  0  2  0  0  0  0  0  0
  158.4100  212.2240  155.4460 C   0  0  0  0  0  3  0  0  0  0  0  0
  158.9400  212.5160  153.1870 C   0  0  0  0  0  3  0  0  0  0  0  0
  159.2710  211.2940  153.5660 C   0  0  0  0  0  0  0  0  0  0  0  0
  158.3030  213.2280  154.3400 C   0  0  0  0  0  3  0  0  0  0  0  0
  158.9180  211.1030  154.9570 C   0  0  1  0  0  3  0  0  0  0  0  0
  160.4610  209.6970  156.2770 C   0  0  0  0  0  0  0  0  0  0  0  0
  159.3060  209.9570  155.7300 N   0  0  0  0  0  0  0  0  0  0  0  0
  162.5220  210.7290  155.3160 O   0  0  0  0  0  0  0  0  0  0  0  0
  161.6240  211.5240  157.2600 O   0  0  0  0  0  1  0  0  0  0  0  0
  161.5740  210.6760  156.3300 C   0  0  0  0  0  0  0  0  0  0  0  0
  161.9800  207.9920  156.9580 O   0  0  0  0  0  1  0  0  0  0  0  0
  160.6320  208.3450  156.9000 C   0  0  2  0  0  3  0  0  0  0  0  0
  159.8500  207.2930  156.1360 C   0  0  0  0  0  1  0  0  0  0  0  0
  1 31  1  6  0  0  0
  2  1  1  0  0  0  0
  2  3  1  0  0  0  0
  3  8  1  0  0  0  0
  4  5  1  0  0  0  0
  4  9  1  0  0  0  0
  6  3  2  0  0  0  0
  6  7  1  0  0  0  0
  7  4  2  0  0  0  0
  8  5  2  0  0  0  0
 11 10  2  0  0  0  0
 11  9  1  0  0  0  0
 12 11  1  0  0  0  0
 13 18  1  6  0  0  0
 13 16  1  0  0  0  0
 13 19  1  0  0  0  0
 14 17  1  0  0  0  0
 15 17  1  0  0  0  0
 16 14  1  0  0  0  0
 17 12  1  1  0  0  0
 19 20  1  6  0  0  0
 19 15  1  0  0  0  0
 20 21  1  0  0  0  0
 22 21  1  0  0  0  0
 23 22  1  0  0  0  0
 24  1  1  0  0  0  0
 25 27  2  0  0  0  0
 25 24  1  0  0  0  0
 26 25  1  0  0  0  0
 28 26  1  0  0  0  0
 29 30  1  0  0  0  0
 30 28  1  0  0  0  0
 31 32  1  0  0  0  0
 32 33  1  0  0  0  0
 33 36  1  0  0  0  0
 35 36  2  0  0  0  0
 35 37  1  0  0  0  0
 36 38  1  0  0  0  0
 37 34  2  0  0  0  0
 38 34  1  0  0  0  0
 38 40  1  1  0  0  0
 39 43  1  0  0  0  0
 39 45  1  0  0  0  0
 40 39  2  0  0  0  0
 41 43  2  0  0  0  0
 43 42  1  0  0  0  0
 45 46  1  6  0  0  0
 45 44  1  0  0  0  0
M  END
>  <MODEL>
1

>  <REMARK>
 VINA RESULT:      -7.0      0.000      0.000
  Name = 
  20 active torsions:
  status: ('A' for Active; 'I' for Inactive)
    1  A    between atoms: C_1  and  N_32
    2  A    between atoms: C_2  and  O_45
    3  A    between atoms: C_7  and  C_18
    4  A    between atoms: C_7  and  O_27
    5  A    between atoms: C_7  and  N_32
    6  A    between atoms: C_8  and  C_16
    7  A    between atoms: CA_10  and  C_28
    8  A    between atoms: CA_10  and  CB_43
    9  A    between atoms: N_11  and  C_35
   10  A    between atoms: C_15  and  C_18
   11  A    between atoms: C_15  and  C_41
   12  A    between atoms: C_16  and  C_17
   13  A    between atoms: C_17  and  C_39
   14  A    between atoms: C_21  and  C_41
   15  A    between atoms: C_22  and  O_27
   16  A    between atoms: C_23  and  C_36
   17  A    between atoms: C_23  and  C_42
   18  A    between atoms: N_25  and  C_29
   19  A    between atoms: C_29  and  C_38
   20  A    between atoms: C_42  and  O_45
                            x       y       z     vdW  Elec       q    Type
                         _______ _______ _______ _____ _____    ______ ____

>  <TORSDO>
F 20

$$$$
=
 OpenBabel11042422003D

 46 48  0  0  1  0  0  0  0  0999 V2000
  162.5720  209.8560  150.8610 C   0  0  1  0  0  3  0  0  0  0  0  0
  162.3870  208.4130  150.7660 N   0  0  0  0  0  2  0  0  0  0  0  0
  161.9240  207.7580  149.5830 C   0  0  0  0  0  0  0  0  0  0  0  0
  160.9720  206.4600  147.2750 C   0  0  0  0  0  0  0  0  0  0  0  0
  160.1800  206.5300  148.4320 C   0  0  0  0  0  3  0  0  0  0  0  0
  162.7200  207.6870  148.4310 C   0  0  0  0  0  3  0  0  0  0  0  0
  162.2440  207.0420  147.2860 C   0  0  0  0  0  3  0  0  0  0  0  0
  160.6530  207.1740  149.5780 C   0  0  0  0  0  3  0  0  0  0  0  0
  160.5470  205.8180  146.1030 O   0  0  0  0  0  0  0  0  0  0  0  0
  161.1260  204.6220  144.1940 O   0  0  0  0  0  0  0  0  0  0  0  0
  161.2110  204.7750  145.4410 C   0  0  0  0  0  0  0  0  0  0  0  0
  162.0140  203.8070  146.2410 C   0  0  0  0  0  2  0  0  0  0  0  0
  160.5150  201.3580  149.4450 C   0  0  1  0  0  3  0  0  0  0  0  0
  161.0920  201.5840  146.9560 C   0  0  0  0  0  2  0  0  0  0  0  0
  161.5440  203.3660  148.5540 O   0  0  0  0  0  0  0  0  0  0  0  0
  161.2430  200.7500  148.2370 C   0  0  0  0  0  2  0  0  0  0  0  0
  161.1210  203.0950  147.2400 C   0  0  1  0  0  3  0  0  0  0  0  0
  161.1350  200.9080  150.6120 O   0  0  0  0  0  1  0  0  0  0  0  0
  160.5020  202.9030  149.3710 C   0  0  2  0  0  3  0  0  0  0  0  0
  160.5190  203.5870  150.7360 C   0  0  0  0  0  2  0  0  0  0  0  0
  161.8400  204.3040  151.0010 C   0  0  0  0  0  2  0  0  0  0  0  0
  161.9000  204.8620  152.4130 C   0  0  0  0  0  2  0  0  0  0  0  0
  160.9310  205.8510  152.5780 O   0  0  0  0  0  1  0  0  0  0  0  0
  161.6050  210.5110  150.0460 O   0  0  0  0  0  0  0  0  0  0  0  0
  161.9510  211.4700  149.0920 C   0  0  0  0  0  0  0  0  0  0  0  0
  161.1680  212.6580  148.9880 N   0  0  0  0  0  2  0  0  0  0  0  0
  162.9400  211.2910  148.3300 O   0  0  0  0  0  0  0  0  0  0  0  0
  161.4780  213.7050  148.0270 C   0  0  0  0  0  2  0  0  0  0  0  0
  162.2490  213.3200  145.7540 N   0  0  0  0  0  1  0  0  0  0  0  0
  161.0930  213.2530  146.6310 C   0  0  0  0  0  2  0  0  0  0  0  0
  162.4090  210.2980  152.3060 C   0  0  0  0  0  2  0  0  0  0  0  0
  161.3360  209.4780  153.0020 C   0  0  0  0  0  2  0  0  0  0  0  0
  159.9570  209.8580  152.4840 C   0  0  0  0  0  2  0  0  0  0  0  0
  158.7630  212.3330  154.9600 C   0  0  0  0  0  3  0  0  0  0  0  0
  159.2190  212.2310  152.6690 C   0  0  0  0  0  3  0  0  0  0  0  0
  159.4160  211.0430  153.2140 C   0  0  0  0  0  0  0  0  0  0  0  0
  158.7270  213.1750  153.7230 C   0  0  0  0  0  3  0  0  0  0  0  0
  159.1070  211.0980  154.6280 C   0  0  1  0  0  3  0  0  0  0  0  0
  160.4240  209.8830  156.3270 C   0  0  0  0  0  0  0  0  0  0  0  0
  159.3890  210.0340  155.5500 N   0  0  0  0  0  0  0  0  0  0  0  0
  162.6570  210.8770  155.8170 O   0  0  0  0  0  0  0  0  0  0  0  0
  161.2240  211.9210  157.2560 O   0  0  0  0  0  1  0  0  0  0  0  0
  161.4580  210.9290  156.5160 C   0  0  0  0  0  0  0  0  0  0  0  0
  161.8670  208.2310  157.2590 O   0  0  0  0  0  1  0  0  0  0  0  0
  160.5310  208.5900  157.0770 C   0  0  2  0  0  3  0  0  0  0  0  0
  159.7880  207.4820  156.3550 C   0  0  0  0  0  1  0  0  0  0  0  0
  1 31  1  1  0  0  0
  2  1  1  0  0  0  0
  3  2  1  0  0  0  0
  4  7  2  0  0  0  0
  4  5  1  0  0  0  0
  5  8  2  0  0  0  0
  6  3  2  0  0  0  0
  7  6  1  0  0  0  0
  8  3  1  0  0  0  0
  9  4  1  0  0  0  0
 10 11  2  0  0  0  0
 11  9  1  0  0  0  0
 11 12  1  0  0  0  0
 13 18  1  1  0  0  0
 14 17  1  0  0  0  0
 14 16  1  0  0  0  0
 15 19  1  0  0  0  0
 16 13  1  0  0  0  0
 17 12  1  6  0  0  0
 17 15  1  0  0  0  0
 19 13  1  0  0  0  0
 19 20  1  1  0  0  0
 20 21  1  0  0  0  0
 21 22  1  0  0  0  0
 22 23  1  0  0  0  0
 24  1  1  0  0  0  0
 25 24  1  0  0  0  0
 26 25  1  0  0  0  0
 27 25  2  0  0  0  0
 28 26  1  0  0  0  0
 29 30  1  0  0  0  0
 30 28  1  0  0  0  0
 31 32  1  0  0  0  0
 33 32  1  0  0  0  0
 33 36  1  0  0  0  0
 35 36  2  0  0  0  0
 35 37  1  0  0  0  0
 36 38  1  0  0  0  0
 37 34  2  0  0  0  0
 38 34  1  0  0  0  0
 38 40  1  1  0  0  0
 39 43  1  0  0  0  0
 39 45  1  0  0  0  0
 40 39  2  0  0  0  0
 41 43  2  0  0  0  0
 43 42  1  0  0  0  0
 45 46  1  6  0  0  0
 45 44  1  0  0  0  0
M  END
>  <MODEL>
2

>  <REMARK>
 VINA RESULT:      -6.9      1.311      3.313
  Name = 
  20 active torsions:
  status: ('A' for Active; 'I' for Inactive)
    1  A    between atoms: C_1  and  N_32
    2  A    between atoms: C_2  and  O_45
    3  A    between atoms: C_7  and  C_18
    4  A    between atoms: C_7  and  O_27
    5  A    between atoms: C_7  and  N_32
    6  A    between atoms: C_8  and  C_16
    7  A    between atoms: CA_10  and  C_28
    8  A    between atoms: CA_10  and  CB_43
    9  A    between atoms: N_11  and  C_35
   10  A    between atoms: C_15  and  C_18
   11  A    between atoms: C_15  and  C_41
   12  A    between atoms: C_16  and  C_17
   13  A    between atoms: C_17  and  C_39
   14  A    between atoms: C_21  and  C_41
   15  A    between atoms: C_22  and  O_27
   16  A    between atoms: C_23  and  C_36
   17  A    between atoms: C_23  and  C_42
   18  A    between atoms: N_25  and  C_29
   19  A    between atoms: C_29  and  C_38
   20  A    between atoms: C_42  and  O_45
                            x       y       z     vdW  Elec       q    Type
                         _______ _______ _______ _____ _____    ______ ____

>  <TORSDO>
F 20

$$$$
=
 OpenBabel11042422003D

 46 48  0  0  1  0  0  0  0  0999 V2000
  161.6770  206.4030  152.9520 C   0  0  1  0  0  3  0  0  0  0  0  0
  162.6010  206.7440  151.8780 N   0  0  0  0  0  2  0  0  0  0  0  0
  162.3480  207.7770  150.9240 C   0  0  0  0  0  0  0  0  0  0  0  0
  161.8390  209.7810  149.0150 C   0  0  0  0  0  0  0  0  0  0  0  0
  161.7860  208.4240  148.6570 C   0  0  0  0  0  3  0  0  0  0  0  0
  162.4070  209.1310  151.2850 C   0  0  0  0  0  3  0  0  0  0  0  0
  162.1530  210.1240  150.3330 C   0  0  0  0  0  3  0  0  0  0  0  0
  162.0390  207.4300  149.6050 C   0  0  0  0  0  3  0  0  0  0  0  0
  161.6030  210.8150  148.0980 O   0  0  0  0  0  0  0  0  0  0  0  0
  161.3970  212.8990  149.1130 O   0  0  0  0  0  0  0  0  0  0  0  0
  161.9580  212.1630  148.2580 C   0  0  0  0  0  0  0  0  0  0  0  0
  163.0070  212.7430  147.3730 C   0  0  0  0  0  2  0  0  0  0  0  0
  160.9230  213.6840  143.7290 C   0  0  1  0  0  3  0  0  0  0  0  0
  163.1500  213.2190  144.9110 C   0  0  0  0  0  2  0  0  0  0  0  0
  161.0140  213.0690  146.0730 O   0  0  0  0  0  0  0  0  0  0  0  0
  162.2340  212.8840  143.7250 C   0  0  0  0  0  2  0  0  0  0  0  0
  162.3570  213.4650  146.2060 C   0  0  1  0  0  3  0  0  0  0  0  0
  159.9590  212.9630  143.0200 O   0  0  0  0  0  1  0  0  0  0  0  0
  160.4550  213.9860  145.1710 C   0  0  2  0  0  3  0  0  0  0  0  0
  158.9380  214.0640  145.3260 C   0  0  0  0  0  2  0  0  0  0  0  0
  158.4950  213.8170  146.7650 C   0  0  0  0  0  2  0  0  0  0  0  0
  157.0600  213.3220  146.8320 C   0  0  0  0  0  2  0  0  0  0  0  0
  156.3730  213.6910  145.6760 O   0  0  0  0  0  1  0  0  0  0  0  0
  160.8690  207.5350  153.2580 O   0  0  0  0  0  0  0  0  0  0  0  0
  160.9760  208.2310  154.4630 C   0  0  0  0  0  0  0  0  0  0  0  0
  160.6640  209.6230  154.4900 N   0  0  0  0  0  2  0  0  0  0  0  0
  161.3450  207.6410  155.5160 O   0  0  0  0  0  0  0  0  0  0  0  0
  160.7400  210.4080  155.7130 C   0  0  0  0  0  2  0  0  0  0  0  0
  158.6460  211.0960  154.6880 N   0  0  0  0  0  1  0  0  0  0  0  0
  159.4840  211.2450  155.8660 C   0  0  0  0  0  2  0  0  0  0  0  0
  160.7930  205.2440  152.5180 C   0  0  0  0  0  2  0  0  0  0  0  0
  161.5130  204.3700  151.5040 C   0  0  0  0  0  2  0  0  0  0  0  0
  160.6790  204.2270  150.2400 C   0  0  0  0  0  2  0  0  0  0  0  0
  161.3140  201.2080  148.1980 C   0  0  0  0  0  3  0  0  0  0  0  0
  160.6050  201.7380  150.3620 C   0  0  0  0  0  3  0  0  0  0  0  0
  160.7940  202.8500  149.6720 C   0  0  0  0  0  0  0  0  0  0  0  0
  160.8660  200.5630  149.4730 C   0  0  0  0  0  2  0  0  0  0  0  0
  161.2070  202.5220  148.3240 C   0  0  0  0  0  0  0  0  0  0  0  0
  161.4980  203.5120  146.0800 C   0  0  0  0  0  0  0  0  0  0  0  0
  161.6720  203.4910  147.3720 N   0  0  0  0  0  0  0  0  0  0  0  0
  160.6520  201.2070  145.6240 O   0  0  0  0  0  1  0  0  0  0  0  0
  159.7280  203.0110  144.5720 O   0  0  0  0  0  0  0  0  0  0  0  0
  160.6020  202.5710  145.3660 C   0  0  0  0  0  0  0  0  0  0  0  0
  163.5680  204.6290  145.7000 O   0  0  0  0  0  1  0  0  0  0  0  0
  162.2300  204.5680  145.3100 C   0  0  2  0  0  3  0  0  0  0  0  0
  161.5730  205.9230  145.4900 C   0  0  0  0  0  1  0  0  0  0  0  0
  1 31  1  6  0  0  0
  1 24  1  0  0  0  0
  2  1  1  0  0  0  0
  3  6  1  0  0  0  0
  3  2  1  0  0  0  0
  4  7  1  0  0  0  0
  5  4  2  0  0  0  0
  5  8  1  0  0  0  0
  7  6  2  0  0  0  0
  8  3  2  0  0  0  0
  9 11  1  0  0  0  0
  9  4  1  0  0  0  0
 11 10  2  0  0  0  0
 12 11  1  0  0  0  0
 13 18  1  1  0  0  0
 13 19  1  0  0  0  0
 14 17  1  0  0  0  0
 15 17  1  0  0  0  0
 16 13  1  0  0  0  0
 16 14  1  0  0  0  0
 17 12  1  1  0  0  0
 19 20  1  6  0  0  0
 19 15  1  0  0  0  0
 20 21  1  0  0  0  0
 21 22  1  0  0  0  0
 23 22  1  0  0  0  0
 24 25  1  0  0  0  0
 25 26  1  0  0  0  0
 25 27  2  0  0  0  0
 26 28  1  0  0  0  0
 28 30  1  0  0  0  0
 29 30  1  0  0  0  0
 32 31  1  0  0  0  0
 33 32  1  0  0  0  0
 34 38  2  0  0  0  0
 34 37  1  0  0  0  0
 36 33  1  0  0  0  0
 36 35  2  0  0  0  0
 37 35  1  0  0  0  0
 38 36  1  0  0  0  0
 39 40  2  0  0  0  0
 40 38  1  0  0  0  0
 42 43  2  0  0  0  0
 43 41  1  0  0  0  0
 43 39  1  0  0  0  0
 45 46  1  1  0  0  0
 45 44  1  0  0  0  0
 45 39  1  0  0  0  0
M  END
>  <MODEL>
3

>  <REMARK>
 VINA RESULT:      -6.8      2.800      9.738
  Name = 
  20 active torsions:
  status: ('A' for Active; 'I' for Inactive)
    1  A    between atoms: C_1  and  N_32
    2  A    between atoms: C_2  and  O_45
    3  A    between atoms: C_7  and  C_18
    4  A    between atoms: C_7  and  O_27
    5  A    between atoms: C_7  and  N_32
    6  A    between atoms: C_8  and  C_16
    7  A    between atoms: CA_10  and  C_28
    8  A    between atoms: CA_10  and  CB_43
    9  A    between atoms: N_11  and  C_35
   10  A    between atoms: C_15  and  C_18
   11  A    between atoms: C_15  and  C_41
   12  A    between atoms: C_16  and  C_17
   13  A    between atoms: C_17  and  C_39
   14  A    between atoms: C_21  and  C_41
   15  A    between atoms: C_22  and  O_27
   16  A    between atoms: C_23  and  C_36
   17  A    between atoms: C_23  and  C_42
   18  A    between atoms: N_25  and  C_29
   19  A    between atoms: C_29  and  C_38
   20  A    between atoms: C_42  and  O_45
                            x       y       z     vdW  Elec       q    Type
                         _______ _______ _______ _____ _____    ______ ____

>  <TORSDO>
F 20

$$$$
=
 OpenBabel11042422003D

 46 48  0  0  1  0  0  0  0  0999 V2000
  162.3620  209.8130  150.9310 C   0  0  1  0  0  3  0  0  0  0  0  0
  162.1780  208.3770  150.7620 N   0  0  0  0  0  2  0  0  0  0  0  0
  161.8580  207.7700  149.5080 C   0  0  0  0  0  0  0  0  0  0  0  0
  161.1880  206.5620  147.0560 C   0  0  0  0  0  0  0  0  0  0  0  0
  160.3290  206.4550  148.1620 C   0  0  0  0  0  3  0  0  0  0  0  0
  162.7210  207.8740  148.4070 C   0  0  0  0  0  3  0  0  0  0  0  0
  162.3850  207.2730  147.1910 C   0  0  0  0  0  3  0  0  0  0  0  0
  160.6630  207.0550  149.3790 C   0  0  0  0  0  3  0  0  0  0  0  0
  160.9040  205.9710  145.8170 O   0  0  0  0  0  0  0  0  0  0  0  0
  160.4940  204.1010  144.4960 O   0  0  0  0  0  0  0  0  0  0  0  0
  161.0800  204.6200  145.4820 C   0  0  0  0  0  0  0  0  0  0  0  0
  161.9620  203.7730  146.3340 C   0  0  0  0  0  2  0  0  0  0  0  0
  160.6530  201.4360  149.7010 C   0  0  1  0  0  3  0  0  0  0  0  0
  160.7100  201.7580  147.1580 C   0  0  0  0  0  2  0  0  0  0  0  0
  161.9150  203.2350  148.6740 O   0  0  0  0  0  0  0  0  0  0  0  0
  160.9320  200.7960  148.3330 C   0  0  0  0  0  2  0  0  0  0  0  0
  161.1630  203.1900  147.4860 C   0  0  1  0  0  3  0  0  0  0  0  0
  161.3860  200.7510  150.6710 O   0  0  0  0  0  1  0  0  0  0  0  0
  160.9960  202.9440  149.6930 C   0  0  2  0  0  3  0  0  0  0  0  0
  161.4750  203.4760  151.0420 C   0  0  0  0  0  2  0  0  0  0  0  0
  160.5200  204.5150  151.6210 C   0  0  0  0  0  2  0  0  0  0  0  0
  161.1620  205.2960  152.7550 C   0  0  0  0  0  2  0  0  0  0  0  0
  162.4610  205.6650  152.4050 O   0  0  0  0  0  1  0  0  0  0  0  0
  161.5150  210.5080  150.0230 O   0  0  0  0  0  0  0  0  0  0  0  0
  161.9830  211.5240  149.1870 C   0  0  0  0  0  0  0  0  0  0  0  0
  161.1850  212.6940  149.0030 N   0  0  0  0  0  2  0  0  0  0  0  0
  163.0930  211.4130  148.5990 O   0  0  0  0  0  0  0  0  0  0  0  0
  161.6150  213.7970  148.1580 C   0  0  0  0  0  2  0  0  0  0  0  0
  162.0950  213.2800  145.8320 N   0  0  0  0  0  1  0  0  0  0  0  0
  161.0380  213.6330  146.7650 C   0  0  0  0  0  2  0  0  0  0  0  0
  162.0180  210.2080  152.3590 C   0  0  0  0  0  2  0  0  0  0  0  0
  160.7030  209.5790  152.7880 C   0  0  0  0  0  2  0  0  0  0  0  0
  159.6720  210.6560  153.0870 C   0  0  0  0  0  2  0  0  0  0  0  0
  159.9100  212.9700  155.9640 C   0  0  0  0  0  3  0  0  0  0  0  0
  160.6800  210.8460  155.3580 C   0  0  0  0  0  3  0  0  0  0  0  0
  159.9930  211.3720  154.3580 C   0  0  0  0  0  0  0  0  0  0  0  0
  160.7450  211.8390  156.4780 C   0  0  0  0  0  2  0  0  0  0  0  0
  159.5390  212.6970  154.7220 C   0  0  0  0  0  0  0  0  0  0  0  0
  157.3140  213.3950  153.9090 C   0  0  0  0  0  0  0  0  0  0  0  0
  158.6150  213.4680  153.9390 N   0  0  0  0  0  0  0  0  0  0  0  0
  156.3020  211.2200  154.6050 O   0  0  0  0  0  0  0  0  0  0  0  0
  156.1150  213.0650  155.9370 O   0  0  0  0  0  1  0  0  0  0  0  0
  156.5250  212.5680  154.8550 C   0  0  0  0  0  0  0  0  0  0  0  0
  155.2780  213.8150  152.7440 O   0  0  0  0  0  1  0  0  0  0  0  0
  156.6060  214.2200  152.8780 C   0  0  2  0  0  3  0  0  0  0  0  0
  157.3140  214.1360  151.5390 C   0  0  0  0  0  1  0  0  0  0  0  0
  1 31  1  1  0  0  0
  2  1  1  0  0  0  0
  3  2  1  0  0  0  0
  4  7  2  0  0  0  0
  4  5  1  0  0  0  0
  5  8  2  0  0  0  0
  6  3  2  0  0  0  0
  7  6  1  0  0  0  0
  8  3  1  0  0  0  0
  9  4  1  0  0  0  0
 10 11  2  0  0  0  0
 11  9  1  0  0  0  0
 11 12  1  0  0  0  0
 13 18  1  1  0  0  0
 14 17  1  0  0  0  0
 14 16  1  0  0  0  0
 15 19  1  0  0  0  0
 16 13  1  0  0  0  0
 17 12  1  6  0  0  0
 17 15  1  0  0  0  0
 19 13  1  0  0  0  0
 19 20  1  1  0  0  0
 20 21  1  0  0  0  0
 21 22  1  0  0  0  0
 23 22  1  0  0  0  0
 24  1  1  0  0  0  0
 25 24  1  0  0  0  0
 26 25  1  0  0  0  0
 27 25  2  0  0  0  0
 28 26  1  0  0  0  0
 29 30  1  0  0  0  0
 30 28  1  0  0  0  0
 31 32  1  0  0  0  0
 32 33  1  0  0  0  0
 33 36  1  0  0  0  0
 34 37  1  0  0  0  0
 35 37  1  0  0  0  0
 36 38  1  0  0  0  0
 36 35  2  0  0  0  0
 38 34  2  0  0  0  0
 39 40  2  0  0  0  0
 39 43  1  0  0  0  0
 40 38  1  0  0  0  0
 41 43  2  0  0  0  0
 43 42  1  0  0  0  0
 44 45  1  0  0  0  0
 45 46  1  6  0  0  0
 45 39  1  0  0  0  0
M  END
>  <MODEL>
4

>  <REMARK>
 VINA RESULT:      -6.6      2.260      4.503
  Name = 
  20 active torsions:
  status: ('A' for Active; 'I' for Inactive)
    1  A    between atoms: C_1  and  N_32
    2  A    between atoms: C_2  and  O_45
    3  A    between atoms: C_7  and  C_18
    4  A    between atoms: C_7  and  O_27
    5  A    between atoms: C_7  and  N_32
    6  A    between atoms: C_8  and  C_16
    7  A    between atoms: CA_10  and  C_28
    8  A    between atoms: CA_10  and  CB_43
    9  A    between atoms: N_11  and  C_35
   10  A    between atoms: C_15  and  C_18
   11  A    between atoms: C_15  and  C_41
   12  A    between atoms: C_16  and  C_17
   13  A    between atoms: C_17  and  C_39
   14  A    between atoms: C_21  and  C_41
   15  A    between atoms: C_22  and  O_27
   16  A    between atoms: C_23  and  C_36
   17  A    between atoms: C_23  and  C_42
   18  A    between atoms: N_25  and  C_29
   19  A    between atoms: C_29  and  C_38
   20  A    between atoms: C_42  and  O_45
                            x       y       z     vdW  Elec       q    Type
                         _______ _______ _______ _____ _____    ______ ____

>  <TORSDO>
F 20

$$$$
=
 OpenBabel11042422003D

 46 48  0  0  1  0  0  0  0  0999 V2000
  161.5810  212.9780  148.8590 C   0  0  1  0  0  3  0  0  0  0  0  0
  161.9020  211.6960  148.2440 N   0  0  0  0  0  2  0  0  0  0  0  0
  162.0370  210.4820  148.9870 C   0  0  0  0  0  0  0  0  0  0  0  0
  162.3040  208.1160  150.4860 C   0  0  0  0  0  0  0  0  0  0  0  0
  162.3030  209.3680  151.1230 C   0  0  0  0  0  3  0  0  0  0  0  0
  162.0430  209.2340  148.3470 C   0  0  0  0  0  3  0  0  0  0  0  0
  162.1750  208.0610  149.0950 C   0  0  0  0  0  3  0  0  0  0  0  0
  162.1710  210.5420  150.3770 C   0  0  0  0  0  3  0  0  0  0  0  0
  162.4430  206.9100  151.1880 O   0  0  0  0  0  0  0  0  0  0  0  0
  161.3600  206.2490  153.1380 O   0  0  0  0  0  0  0  0  0  0  0  0
  161.4290  206.2310  151.8800 C   0  0  0  0  0  0  0  0  0  0  0  0
  160.4270  205.4450  151.1060 C   0  0  0  0  0  2  0  0  0  0  0  0
  161.2910  202.0340  148.6310 C   0  0  1  0  0  3  0  0  0  0  0  0
  160.8870  202.9800  150.9800 C   0  0  0  0  0  2  0  0  0  0  0  0
  160.6960  204.3590  148.9810 O   0  0  0  0  0  0  0  0  0  0  0  0
  160.5230  201.8980  149.9540 C   0  0  0  0  0  2  0  0  0  0  0  0
  161.1240  204.3490  150.3210 C   0  0  1  0  0  3  0  0  0  0  0  0
  160.5430  201.4340  147.6170 O   0  0  0  0  0  1  0  0  0  0  0  0
  161.5940  203.5160  148.3100 C   0  0  2  0  0  3  0  0  0  0  0  0
  161.6370  203.8280  146.8160 C   0  0  0  0  0  2  0  0  0  0  0  0
  162.5660  204.9960  146.5010 C   0  0  0  0  0  2  0  0  0  0  0  0
  161.9490  205.9440  145.4850 C   0  0  0  0  0  2  0  0  0  0  0  0
  161.3770  205.2190  144.4410 O   0  0  0  0  0  1  0  0  0  0  0  0
  161.7230  214.0140  147.8930 O   0  0  0  0  0  0  0  0  0  0  0  0
  161.1540  213.9380  146.6200 C   0  0  0  0  0  0  0  0  0  0  0  0
  161.9850  213.6070  145.5080 N   0  0  0  0  0  2  0  0  0  0  0  0
  159.9230  214.1590  146.4510 O   0  0  0  0  0  0  0  0  0  0  0  0
  161.4580  213.4960  144.1560 C   0  0  0  0  0  2  0  0  0  0  0  0
  162.0730  212.2980  142.1320 N   0  0  0  0  0  1  0  0  0  0  0  0
  162.5790  213.1530  143.1930 C   0  0  0  0  0  2  0  0  0  0  0  0
  160.1520  212.9530  149.3780 C   0  0  0  0  0  2  0  0  0  0  0  0
  159.8340  214.2290  150.1410 C   0  0  0  0  0  2  0  0  0  0  0  0
  159.2720  213.8990  151.5150 C   0  0  0  0  0  2  0  0  0  0  0  0
  155.7200  214.4300  152.4000 C   0  0  0  0  0  3  0  0  0  0  0  0
  157.0340  214.2480  150.4750 C   0  0  0  0  0  3  0  0  0  0  0  0
  157.7890  214.0720  151.5460 C   0  0  0  0  0  0  0  0  0  0  0  0
  155.6140  214.4440  150.9070 C   0  0  0  0  0  3  0  0  0  0  0  0
  156.9710  214.1570  152.7380 C   0  0  1  0  0  3  0  0  0  0  0  0
  157.8910  213.2020  154.8210 C   0  0  0  0  0  0  0  0  0  0  0  0
  157.5030  214.1950  154.0710 N   0  0  0  0  0  0  0  0  0  0  0  0
  159.2520  211.2210  154.1420 O   0  0  0  0  0  0  0  0  0  0  0  0
  156.9710  211.1150  154.1470 O   0  0  0  0  0  1  0  0  0  0  0  0
  158.0070  211.8080  154.3280 C   0  0  0  0  0  0  0  0  0  0  0  0
  157.1840  214.0940  156.9150 O   0  0  0  0  0  1  0  0  0  0  0  0
  158.2610  213.5210  156.2380 C   0  0  2  0  0  3  0  0  0  0  0  0
  159.4610  214.4470  156.2890 C   0  0  0  0  0  1  0  0  0  0  0  0
  1 31  1  6  0  0  0
  2  1  1  0  0  0  0
  2  3  1  0  0  0  0
  3  8  1  0  0  0  0
  4  5  1  0  0  0  0
  4  9  1  0  0  0  0
  6  3  2  0  0  0  0
  6  7  1  0  0  0  0
  7  4  2  0  0  0  0
  8  5  2  0  0  0  0
  9 11  1  0  0  0  0
 11 10  2  0  0  0  0
 12 11  1  0  0  0  0
 13 18  1  6  0  0  0
 13 16  1  0  0  0  0
 15 17  1  0  0  0  0
 16 14  1  0  0  0  0
 17 14  1  0  0  0  0
 17 12  1  1  0  0  0
 19 20  1  6  0  0  0
 19 13  1  0  0  0  0
 19 15  1  0  0  0  0
 21 20  1  0  0  0  0
 22 21  1  0  0  0  0
 23 22  1  0  0  0  0
 24  1  1  0  0  0  0
 25 24  1  0  0  0  0
 26 25  1  0  0  0  0
 27 25  2  0  0  0  0
 28 26  1  0  0  0  0
 29 30  1  0  0  0  0
 30 28  1  0  0  0  0
 31 32  1  0  0  0  0
 32 33  1  0  0  0  0
 33 36  1  0  0  0  0
 34 38  1  0  0  0  0
 35 37  1  0  0  0  0
 35 36  2  0  0  0  0
 36 38  1  0  0  0  0
 37 34  2  0  0  0  0
 38 40  1  1  0  0  0
 39 45  1  0  0  0  0
 40 39  2  0  0  0  0
 41 43  2  0  0  0  0
 42 43  1  0  0  0  0
 43 39  1  0  0  0  0
 45 46  1  6  0  0  0
 45 44  1  0  0  0  0
M  END
>  <MODEL>
5

>  <REMARK>
 VINA RESULT:      -6.3      2.456      3.597
  Name = 
  20 active torsions:
  status: ('A' for Active; 'I' for Inactive)
    1  A    between atoms: C_1  and  N_32
    2  A    between atoms: C_2  and  O_45
    3  A    between atoms: C_7  and  C_18
    4  A    between atoms: C_7  and  O_27
    5  A    between atoms: C_7  and  N_32
    6  A    between atoms: C_8  and  C_16
    7  A    between atoms: CA_10  and  C_28
    8  A    between atoms: CA_10  and  CB_43
    9  A    between atoms: N_11  and  C_35
   10  A    between atoms: C_15  and  C_18
   11  A    between atoms: C_15  and  C_41
   12  A    between atoms: C_16  and  C_17
   13  A    between atoms: C_17  and  C_39
   14  A    between atoms: C_21  and  C_41
   15  A    between atoms: C_22  and  O_27
   16  A    between atoms: C_23  and  C_36
   17  A    between atoms: C_23  and  C_42
   18  A    between atoms: N_25  and  C_29
   19  A    between atoms: C_29  and  C_38
   20  A    between atoms: C_42  and  O_45
                            x       y       z     vdW  Elec       q    Type
                         _______ _______ _______ _____ _____    ______ ____

>  <TORSDO>
F 20

$$$$
=
 OpenBabel11042422003D

 46 48  0  0  1  0  0  0  0  0999 V2000
  162.3200  210.1660  150.3550 C   0  0  1  0  0  3  0  0  0  0  0  0
  161.8140  211.5190  150.1590 N   0  0  0  0  0  2  0  0  0  0  0  0
  161.7860  212.1700  148.8870 C   0  0  0  0  0  0  0  0  0  0  0  0
  161.7730  213.4370  146.3750 C   0  0  0  0  0  0  0  0  0  0  0  0
  162.9470  212.8460  146.8700 C   0  0  0  0  0  3  0  0  0  0  0  0
  160.6130  212.7630  148.3980 C   0  0  0  0  0  3  0  0  0  0  0  0
  160.6100  213.3910  147.1500 C   0  0  0  0  0  3  0  0  0  0  0  0
  162.9520  212.2170  148.1170 C   0  0  0  0  0  3  0  0  0  0  0  0
  161.7180  214.0880  145.1350 O   0  0  0  0  0  0  0  0  0  0  0  0
  160.3080  213.2450  143.4870 O   0  0  0  0  0  0  0  0  0  0  0  0
  161.4770  213.4860  143.8910 C   0  0  0  0  0  0  0  0  0  0  0  0
  162.6360  213.0970  143.0390 C   0  0  0  0  0  2  0  0  0  0  0  0
  162.4290  211.9800  138.8900 C   0  0  1  0  0  3  0  0  0  0  0  0
  162.8370  213.8100  140.6400 C   0  0  0  0  0  2  0  0  0  0  0  0
  162.4200  211.4920  141.2660 O   0  0  0  0  0  0  0  0  0  0  0  0
  163.3550  213.1040  139.3780 C   0  0  0  0  0  2  0  0  0  0  0  0
  162.1690  212.8310  141.6200 C   0  0  1  0  0  3  0  0  0  0  0  0
  163.1860  211.0660  138.1560 O   0  0  0  0  0  1  0  0  0  0  0  0
  161.7070  211.2950  140.0740 C   0  0  2  0  0  3  0  0  0  0  0  0
  161.4080  209.8160  139.8440 C   0  0  0  0  0  2  0  0  0  0  0  0
  160.4320  209.6000  138.6910 C   0  0  0  0  0  2  0  0  0  0  0  0
  160.6990  208.2900  137.9690 C   0  0  0  0  0  2  0  0  0  0  0  0
  161.5610  207.4950  138.7240 O   0  0  0  0  0  1  0  0  0  0  0  0
  162.5990  209.9610  151.7360 O   0  0  0  0  0  0  0  0  0  0  0  0
  161.6270  210.1080  152.7290 C   0  0  0  0  0  0  0  0  0  0  0  0
  161.2080  208.9590  153.4650 N   0  0  0  0  0  2  0  0  0  0  0  0
  161.1230  211.2380  152.9730 O   0  0  0  0  0  0  0  0  0  0  0  0
  160.2110  209.0400  154.5210 C   0  0  0  0  0  2  0  0  0  0  0  0
  160.4920  206.9150  155.6670 N   0  0  0  0  0  1  0  0  0  0  0  0
  160.7260  208.3460  155.7680 C   0  0  0  0  0  2  0  0  0  0  0  0
  161.2810  209.1590  149.8870 C   0  0  0  0  0  2  0  0  0  0  0  0
  161.8910  207.7730  149.7680 C   0  0  0  0  0  2  0  0  0  0  0  0
  160.8130  206.7420  149.4700 C   0  0  0  0  0  2  0  0  0  0  0  0
  161.3410  203.3720  150.9020 C   0  0  0  0  0  3  0  0  0  0  0  0
  161.0750  205.5700  151.6540 C   0  0  0  0  0  3  0  0  0  0  0  0
  160.9670  205.5350  150.3370 C   0  0  0  0  0  0  0  0  0  0  0  0
  161.2740  204.1760  152.1630 C   0  0  0  0  0  2  0  0  0  0  0  0
  161.1040  204.1710  149.8730 C   0  0  0  0  0  0  0  0  0  0  0  0
  161.0780  202.6300  147.9430 C   0  0  0  0  0  0  0  0  0  0  0  0
  161.2210  203.8050  148.4890 N   0  0  0  0  0  0  0  0  0  0  0  0
  159.2540  201.3600  149.0820 O   0  0  0  0  0  1  0  0  0  0  0  0
  161.3470  200.4650  148.8900 O   0  0  0  0  0  0  0  0  0  0  0  0
  160.5820  201.4450  148.6830 C   0  0  0  0  0  0  0  0  0  0  0  0
  161.3780  203.7590  145.8650 O   0  0  0  0  0  1  0  0  0  0  0  0
  161.4110  202.5100  146.4870 C   0  0  2  0  0  3  0  0  0  0  0  0
  160.4590  201.5570  145.7910 C   0  0  0  0  0  1  0  0  0  0  0  0
  1 31  1  1  0  0  0
  1 24  1  0  0  0  0
  2  1  1  0  0  0  0
  3  2  1  0  0  0  0
  4  5  2  0  0  0  0
  4  7  1  0  0  0  0
  5  8  1  0  0  0  0
  6  3  1  0  0  0  0
  7  6  2  0  0  0  0
  8  3  2  0  0  0  0
  9  4  1  0  0  0  0
 10 11  2  0  0  0  0
 11  9  1  0  0  0  0
 12 11  1  0  0  0  0
 13 18  1  1  0  0  0
 13 16  1  0  0  0  0
 13 19  1  0  0  0  0
 14 17  1  0  0  0  0
 15 17  1  0  0  0  0
 16 14  1  0  0  0  0
 17 12  1  1  0  0  0
 19 20  1  6  0  0  0
 19 15  1  0  0  0  0
 21 20  1  0  0  0  0
 22 21  1  0  0  0  0
 22 23  1  0  0  0  0
 24 25  1  0  0  0  0
 25 27  2  0  0  0  0
 25 26  1  0  0  0  0
 26 28  1  0  0  0  0
 28 30  1  0  0  0  0
 29 30  1  0  0  0  0
 32 31  1  0  0  0  0
 33 32  1  0  0  0  0
 33 36  1  0  0  0  0
 34 37  1  0  0  0  0
 35 37  1  0  0  0  0
 36 35  2  0  0  0  0
 38 36  1  0  0  0  0
 38 34  2  0  0  0  0
 39 40  2  0  0  0  0
 39 43  1  0  0  0  0
 40 38  1  0  0  0  0
 43 42  2  0  0  0  0
 43 41  1  0  0  0  0
 44 45  1  0  0  0  0
 45 46  1  6  0  0  0
 45 39  1  0  0  0  0
M  END
>  <MODEL>
6

>  <REMARK>
 VINA RESULT:      -6.1      3.783      9.656
  Name = 
  20 active torsions:
  status: ('A' for Active; 'I' for Inactive)
    1  A    between atoms: C_1  and  N_32
    2  A    between atoms: C_2  and  O_45
    3  A    between atoms: C_7  and  C_18
    4  A    between atoms: C_7  and  O_27
    5  A    between atoms: C_7  and  N_32
    6  A    between atoms: C_8  and  C_16
    7  A    between atoms: CA_10  and  C_28
    8  A    between atoms: CA_10  and  CB_43
    9  A    between atoms: N_11  and  C_35
   10  A    between atoms: C_15  and  C_18
   11  A    between atoms: C_15  and  C_41
   12  A    between atoms: C_16  and  C_17
   13  A    between atoms: C_17  and  C_39
   14  A    between atoms: C_21  and  C_41
   15  A    between atoms: C_22  and  O_27
   16  A    between atoms: C_23  and  C_36
   17  A    between atoms: C_23  and  C_42
   18  A    between atoms: N_25  and  C_29
   19  A    between atoms: C_29  and  C_38
   20  A    between atoms: C_42  and  O_45
                            x       y       z     vdW  Elec       q    Type
                         _______ _______ _______ _____ _____    ______ ____

>  <TORSDO>
F 20

$$$$
=
 OpenBabel11042422003D

 46 48  0  0  1  0  0  0  0  0999 V2000
  161.3320  205.7470  152.2120 C   0  0  1  0  0  3  0  0  0  0  0  0
  162.4320  206.3500  151.4700 N   0  0  0  0  0  2  0  0  0  0  0  0
  162.2810  207.5100  150.6480 C   0  0  0  0  0  0  0  0  0  0  0  0
  161.9740  209.7660  148.9950 C   0  0  0  0  0  0  0  0  0  0  0  0
  161.8920  208.4720  148.4580 C   0  0  0  0  0  3  0  0  0  0  0  0
  162.3680  208.8020  151.1880 C   0  0  0  0  0  3  0  0  0  0  0  0
  162.2140  209.9200  150.3640 C   0  0  0  0  0  3  0  0  0  0  0  0
  162.0450  207.3520  149.2790 C   0  0  0  0  0  3  0  0  0  0  0  0
  161.8370  210.9210  148.2130 O   0  0  0  0  0  0  0  0  0  0  0  0
  161.3330  212.4420  149.8990 O   0  0  0  0  0  0  0  0  0  0  0  0
  161.4980  212.2020  148.6740 C   0  0  0  0  0  0  0  0  0  0  0  0
  161.3010  213.2980  147.6840 C   0  0  0  0  0  2  0  0  0  0  0  0
  157.1550  214.1340  148.4680 C   0  0  1  0  0  3  0  0  0  0  0  0
  159.0180  213.7600  146.7460 C   0  0  0  0  0  2  0  0  0  0  0  0
  159.4080  213.5400  149.1410 O   0  0  0  0  0  0  0  0  0  0  0  0
  157.6020  213.3840  147.2050 C   0  0  0  0  0  2  0  0  0  0  0  0
  159.9710  213.9860  147.9320 C   0  0  1  0  0  3  0  0  0  0  0  0
  156.1810  213.3730  149.1170 O   0  0  0  0  0  1  0  0  0  0  0  0
  158.3540  214.4300  149.3980 C   0  0  2  0  0  3  0  0  0  0  0  0
  157.9960  214.4530  150.8820 C   0  0  0  0  0  2  0  0  0  0  0  0
  158.3430  213.1390  151.5760 C   0  0  0  0  0  2  0  0  0  0  0  0
  157.9480  213.1600  153.0430 C   0  0  0  0  0  2  0  0  0  0  0  0
  158.7520  212.2800  153.7670 O   0  0  0  0  0  1  0  0  0  0  0  0
  160.6120  206.7640  152.9000 O   0  0  0  0  0  0  0  0  0  0  0  0
  161.0160  207.2640  154.1390 C   0  0  0  0  0  0  0  0  0  0  0  0
  160.6180  208.5810  154.5190 N   0  0  0  0  0  2  0  0  0  0  0  0
  161.7250  206.5650  154.9140 O   0  0  0  0  0  0  0  0  0  0  0  0
  160.9910  209.1600  155.8000 C   0  0  0  0  0  2  0  0  0  0  0  0
  162.8110  210.6750  155.2500 N   0  0  0  0  0  1  0  0  0  0  0  0
  161.4050  210.6070  155.6090 C   0  0  0  0  0  2  0  0  0  0  0  0
  160.4040  205.0210  151.2500 C   0  0  0  0  0  2  0  0  0  0  0  0
  161.1370  203.8910  150.5460 C   0  0  0  0  0  2  0  0  0  0  0  0
  160.8360  203.9110  149.0550 C   0  0  0  0  0  2  0  0  0  0  0  0
  161.2810  200.9880  146.8320 C   0  0  0  0  0  3  0  0  0  0  0  0
  161.4920  201.5070  149.1030 C   0  0  0  0  0  3  0  0  0  0  0  0
  161.0510  202.5650  148.4440 C   0  0  0  0  0  0  0  0  0  0  0  0
  161.6360  200.3640  148.1460 C   0  0  0  0  0  2  0  0  0  0  0  0
  160.8940  202.2370  147.0430 C   0  0  0  0  0  0  0  0  0  0  0  0
  161.3560  204.1890  145.6020 C   0  0  0  0  0  0  0  0  0  0  0  0
  160.6100  203.2060  146.0220 N   0  0  0  0  0  0  0  0  0  0  0  0
  163.8060  203.8060  145.2970 O   0  0  0  0  0  0  0  0  0  0  0  0
  163.0400  205.1200  147.0010 O   0  0  0  0  0  1  0  0  0  0  0  0
  162.7670  204.3750  146.0230 C   0  0  0  0  0  0  0  0  0  0  0  0
  161.6610  205.5100  143.6430 O   0  0  0  0  0  1  0  0  0  0  0  0
  160.7410  205.1440  144.6250 C   0  0  2  0  0  3  0  0  0  0  0  0
  160.2150  206.3780  145.3320 C   0  0  0  0  0  1  0  0  0  0  0  0
  1 31  1  6  0  0  0
  1 24  1  0  0  0  0
  2  1  1  0  0  0  0
  3  6  1  0  0  0  0
  3  2  1  0  0  0  0
  4  7  1  0  0  0  0
  5  4  2  0  0  0  0
  5  8  1  0  0  0  0
  7  6  2  0  0  0  0
  8  3  2  0  0  0  0
  9 11  1  0  0  0  0
  9  4  1  0  0  0  0
 11 10  2  0  0  0  0
 12 11  1  0  0  0  0
 13 18  1  1  0  0  0
 13 19  1  0  0  0  0
 14 16  1  0  0  0  0
 14 17  1  0  0  0  0
 15 19  1  0  0  0  0
 16 13  1  0  0  0  0
 17 12  1  6  0  0  0
 17 15  1  0  0  0  0
 19 20  1  1  0  0  0
 20 21  1  0  0  0  0
 21 22  1  0  0  0  0
 22 23  1  0  0  0  0
 24 25  1  0  0  0  0
 25 26  1  0  0  0  0
 25 27  2  0  0  0  0
 26 28  1  0  0  0  0
 29 30  1  0  0  0  0
 30 28  1  0  0  0  0
 32 31  1  0  0  0  0
 33 32  1  0  0  0  0
 34 38  2  0  0  0  0
 34 37  1  0  0  0  0
 36 33  1  0  0  0  0
 36 35  2  0  0  0  0
 37 35  1  0  0  0  0
 38 36  1  0  0  0  0
 39 40  2  0  0  0  0
 39 43  1  0  0  0  0
 40 38  1  0  0  0  0
 41 43  2  0  0  0  0
 43 42  1  0  0  0  0
 44 45  1  0  0  0  0
 45 46  1  1  0  0  0
 45 39  1  0  0  0  0
M  END
>  <MODEL>
7

>  <REMARK>
 VINA RESULT:      -5.8      2.761     10.122
  Name = 
  20 active torsions:
  status: ('A' for Active; 'I' for Inactive)
    1  A    between atoms: C_1  and  N_32
    2  A    between atoms: C_2  and  O_45
    3  A    between atoms: C_7  and  C_18
    4  A    between atoms: C_7  and  O_27
    5  A    between atoms: C_7  and  N_32
    6  A    between atoms: C_8  and  C_16
    7  A    between atoms: CA_10  and  C_28
    8  A    between atoms: CA_10  and  CB_43
    9  A    between atoms: N_11  and  C_35
   10  A    between atoms: C_15  and  C_18
   11  A    between atoms: C_15  and  C_41
   12  A    between atoms: C_16  and  C_17
   13  A    between atoms: C_17  and  C_39
   14  A    between atoms: C_21  and  C_41
   15  A    between atoms: C_22  and  O_27
   16  A    between atoms: C_23  and  C_36
   17  A    between atoms: C_23  and  C_42
   18  A    between atoms: N_25  and  C_29
   19  A    between atoms: C_29  and  C_38
   20  A    between atoms: C_42  and  O_45
                            x       y       z     vdW  Elec       q    Type
                         _______ _______ _______ _____ _____    ______ ____

>  <TORSDO>
F 20

$$$$
=
 OpenBabel11042422003D

 46 48  0  0  1  0  0  0  0  0999 V2000
  161.9450  210.4450  150.1330 C   0  0  1  0  0  3  0  0  0  0  0  0
  162.3000  209.2890  149.3190 N   0  0  0  0  0  2  0  0  0  0  0  0
  161.7600  207.9820  149.5350 C   0  0  0  0  0  0  0  0  0  0  0  0
  160.7120  205.4130  150.0020 C   0  0  0  0  0  0  0  0  0  0  0  0
  161.4150  206.0910  151.0110 C   0  0  0  0  0  3  0  0  0  0  0  0
  161.0630  207.3070  148.5230 C   0  0  0  0  0  3  0  0  0  0  0  0
  160.5430  206.0310  148.7590 C   0  0  0  0  0  3  0  0  0  0  0  0
  161.9360  207.3670  150.7780 C   0  0  0  0  0  3  0  0  0  0  0  0
  160.1800  204.1290  150.1830 O   0  0  0  0  0  0  0  0  0  0  0  0
  161.6620  203.1310  151.6720 O   0  0  0  0  0  0  0  0  0  0  0  0
  160.8520  203.0190  150.7140 C   0  0  0  0  0  0  0  0  0  0  0  0
  160.6200  201.6770  150.1090 C   0  0  0  0  0  2  0  0  0  0  0  0
  161.2230  200.9860  145.9060 C   0  0  1  0  0  3  0  0  0  0  0  0
  161.5920  200.2060  148.3200 C   0  0  0  0  0  2  0  0  0  0  0  0
  160.2600  202.1750  147.7870 O   0  0  0  0  0  0  0  0  0  0  0  0
  161.1250  199.8270  146.9080 C   0  0  0  0  0  2  0  0  0  0  0  0
  161.1860  201.6400  148.7010 C   0  0  1  0  0  3  0  0  0  0  0  0
  160.3030  200.7680  144.8790 O   0  0  0  0  0  1  0  0  0  0  0  0
  160.9850  202.3480  146.5990 C   0  0  2  0  0  3  0  0  0  0  0  0
  160.3330  203.3950  145.6980 C   0  0  0  0  0  2  0  0  0  0  0  0
  161.3670  204.2600  144.9840 C   0  0  0  0  0  2  0  0  0  0  0  0
  160.7240  205.4670  144.3200 C   0  0  0  0  0  2  0  0  0  0  0  0
  160.0990  206.2630  145.2790 O   0  0  0  0  0  1  0  0  0  0  0  0
  161.3170  211.4250  149.3140 O   0  0  0  0  0  0  0  0  0  0  0  0
  161.9990  212.1130  148.3080 C   0  0  0  0  0  0  0  0  0  0  0  0
  161.3120  212.4340  147.0990 N   0  0  0  0  0  2  0  0  0  0  0  0
  163.2060  212.4450  148.4610 O   0  0  0  0  0  0  0  0  0  0  0  0
  161.9550  213.1600  146.0150 C   0  0  0  0  0  2  0  0  0  0  0  0
  159.9900  212.3270  144.8510 N   0  0  0  0  0  1  0  0  0  0  0  0
  160.9580  213.4100  144.9000 C   0  0  0  0  0  2  0  0  0  0  0  0
  160.9960  210.0180  151.2420 C   0  0  0  0  0  2  0  0  0  0  0  0
  160.8990  211.0940  152.3110 C   0  0  0  0  0  2  0  0  0  0  0  0
  161.7230  210.7080  153.5300 C   0  0  0  0  0  2  0  0  0  0  0  0
  159.5930  208.7580  155.8420 C   0  0  0  0  0  3  0  0  0  0  0  0
  161.1050  208.3620  154.1020 C   0  0  0  0  0  3  0  0  0  0  0  0
  161.0290  209.6600  154.3380 C   0  0  0  0  0  0  0  0  0  0  0  0
  160.2310  207.6380  155.0790 C   0  0  0  0  0  3  0  0  0  0  0  0
  160.1140  209.9040  155.4330 C   0  0  1  0  0  3  0  0  0  0  0  0
  158.6510  211.8930  155.3630 C   0  0  0  0  0  0  0  0  0  0  0  0
  159.6630  211.2110  155.8220 N   0  0  0  0  0  0  0  0  0  0  0  0
  156.4020  210.9190  154.8830 O   0  0  0  0  0  1  0  0  0  0  0  0
  157.8910  211.2890  153.1920 O   0  0  0  0  0  0  0  0  0  0  0  0
  157.6480  211.3290  154.4270 C   0  0  0  0  0  0  0  0  0  0  0  0
  159.1410  214.1940  154.9800 O   0  0  0  0  0  1  0  0  0  0  0  0
  158.5040  213.3040  155.8460 C   0  0  2  0  0  3  0  0  0  0  0  0
  159.0580  213.4570  157.2490 C   0  0  0  0  0  1  0  0  0  0  0  0
  1 31  1  1  0  0  0
  2  3  1  0  0  0  0
  2  1  1  0  0  0  0
  3  8  1  0  0  0  0
  4  9  1  0  0  0  0
  4  5  1  0  0  0  0
  6  7  1  0  0  0  0
  6  3  2  0  0  0  0
  7  4  2  0  0  0  0
  8  5  2  0  0  0  0
  9 11  1  0  0  0  0
 11 10  2  0  0  0  0
 12 11  1  0  0  0  0
 13 18  1  6  0  0  0
 13 19  1  0  0  0  0
 13 16  1  0  0  0  0
 14 17  1  0  0  0  0
 15 17  1  0  0  0  0
 16 14  1  0  0  0  0
 17 12  1  1  0  0  0
 19 20  1  6  0  0  0
 19 15  1  0  0  0  0
 21 20  1  0  0  0  0
 22 21  1  0  0  0  0
 22 23  1  0  0  0  0
 24  1  1  0  0  0  0
 25 27  2  0  0  0  0
 25 24  1  0  0  0  0
 26 25  1  0  0  0  0
 28 26  1  0  0  0  0
 29 30  1  0  0  0  0
 30 28  1  0  0  0  0
 31 32  1  0  0  0  0
 32 33  1  0  0  0  0
 33 36  1  0  0  0  0
 35 36  2  0  0  0  0
 35 37  1  0  0  0  0
 36 38  1  0  0  0  0
 37 34  2  0  0  0  0
 38 40  1  6  0  0  0
 38 34  1  0  0  0  0
 39 40  2  0  0  0  0
 39 45  1  0  0  0  0
 42 43  2  0  0  0  0
 43 41  1  0  0  0  0
 43 39  1  0  0  0  0
 44 45  1  0  0  0  0
 45 46  1  1  0  0  0
M  END
>  <MODEL>
8

>  <REMARK>
 VINA RESULT:      -5.6      1.843      2.828
  Name = 
  20 active torsions:
  status: ('A' for Active; 'I' for Inactive)
    1  A    between atoms: C_1  and  N_32
    2  A    between atoms: C_2  and  O_45
    3  A    between atoms: C_7  and  C_18
    4  A    between atoms: C_7  and  O_27
    5  A    between atoms: C_7  and  N_32
    6  A    between atoms: C_8  and  C_16
    7  A    between atoms: CA_10  and  C_28
    8  A    between atoms: CA_10  and  CB_43
    9  A    between atoms: N_11  and  C_35
   10  A    between atoms: C_15  and  C_18
   11  A    between atoms: C_15  and  C_41
   12  A    between atoms: C_16  and  C_17
   13  A    between atoms: C_17  and  C_39
   14  A    between atoms: C_21  and  C_41
   15  A    between atoms: C_22  and  O_27
   16  A    between atoms: C_23  and  C_36
   17  A    between atoms: C_23  and  C_42
   18  A    between atoms: N_25  and  C_29
   19  A    between atoms: C_29  and  C_38
   20  A    between atoms: C_42  and  O_45
                            x       y       z     vdW  Elec       q    Type
                         _______ _______ _______ _____ _____    ______ ____

>  <TORSDO>
F 20

$$$$
=
 OpenBabel11042422003D

 46 48  0  0  1  0  0  0  0  0999 V2000
  160.1670  211.1730  153.4740 C   0  0  1  0  0  3  0  0  0  0  0  0
  161.2690  210.5510  152.7500 N   0  0  0  0  0  2  0  0  0  0  0  0
  161.3240  209.1540  152.4530 C   0  0  0  0  0  0  0  0  0  0  0  0
  161.4070  206.3960  151.9040 C   0  0  0  0  0  0  0  0  0  0  0  0
  160.8220  206.8700  153.0890 C   0  0  0  0  0  3  0  0  0  0  0  0
  161.9130  208.6840  151.2700 C   0  0  0  0  0  3  0  0  0  0  0  0
  161.9530  207.3130  151.0010 C   0  0  0  0  0  3  0  0  0  0  0  0
  160.7810  208.2400  153.3610 C   0  0  0  0  0  3  0  0  0  0  0  0
  161.4820  205.0310  151.5900 O   0  0  0  0  0  0  0  0  0  0  0  0
  160.0940  205.0100  149.7220 O   0  0  0  0  0  0  0  0  0  0  0  0
  160.7820  204.3760  150.5660 C   0  0  0  0  0  0  0  0  0  0  0  0
  160.8330  202.8880  150.4940 C   0  0  0  0  0  2  0  0  0  0  0  0
  161.2360  201.8220  146.3460 C   0  0  1  0  0  3  0  0  0  0  0  0
  160.8180  201.0700  148.7620 C   0  0  0  0  0  2  0  0  0  0  0  0
  161.0720  203.4190  148.1640 O   0  0  0  0  0  0  0  0  0  0  0  0
  160.3430  201.0180  147.3030 C   0  0  0  0  0  2  0  0  0  0  0  0
  161.3710  202.4540  149.1430 C   0  0  1  0  0  3  0  0  0  0  0  0
  160.4780  202.1930  145.2340 O   0  0  0  0  0  1  0  0  0  0  0  0
  161.8450  203.0550  147.0520 C   0  0  2  0  0  3  0  0  0  0  0  0
  162.0790  204.2460  146.1250 C   0  0  0  0  0  2  0  0  0  0  0  0
  161.8150  205.5770  146.8230 C   0  0  0  0  0  2  0  0  0  0  0  0
  160.5090  206.2020  146.3630 C   0  0  0  0  0  2  0  0  0  0  0  0
  160.4950  206.3100  144.9720 O   0  0  0  0  0  1  0  0  0  0  0  0
  160.4560  211.1690  154.8680 O   0  0  0  0  0  0  0  0  0  0  0  0
  159.6420  211.8080  155.8060 C   0  0  0  0  0  0  0  0  0  0  0  0
  158.2420  211.5290  155.8130 N   0  0  0  0  0  2  0  0  0  0  0  0
  160.1320  212.6220  156.6350 O   0  0  0  0  0  0  0  0  0  0  0  0
  157.3370  212.1470  156.7690 C   0  0  0  0  0  2  0  0  0  0  0  0
  155.8680  211.1270  155.1220 N   0  0  0  0  0  1  0  0  0  0  0  0
  155.8990  211.8710  156.3700 C   0  0  0  0  0  2  0  0  0  0  0  0
  159.9810  212.6030  152.9920 C   0  0  0  0  0  2  0  0  0  0  0  0
  158.7700  212.7100  152.0810 C   0  0  0  0  0  2  0  0  0  0  0  0
  158.3640  214.1650  151.9060 C   0  0  0  0  0  2  0  0  0  0  0  0
  156.3800  214.3390  148.7890 C   0  0  0  0  0  3  0  0  0  0  0  0
  156.0150  214.3690  151.0980 C   0  0  0  0  0  3  0  0  0  0  0  0
  157.3120  214.3080  150.8540 C   0  0  0  0  0  0  0  0  0  0  0  0
  155.2790  214.4500  149.7970 C   0  0  0  0  0  2  0  0  0  0  0  0
  157.5410  214.3170  149.4250 C   0  0  0  0  0  0  0  0  0  0  0  0
  159.0840  213.5660  147.6480 C   0  0  0  0  0  0  0  0  0  0  0  0
  158.8200  214.0760  148.8180 N   0  0  0  0  0  0  0  0  0  0  0  0
  157.8360  214.1580  145.5660 O   0  0  0  0  0  0  0  0  0  0  0  0
  157.3820  212.2160  146.6790 O   0  0  0  0  0  1  0  0  0  0  0  0
  158.0410  213.2880  146.6300 C   0  0  0  0  0  0  0  0  0  0  0  0
  160.6310  212.3100  146.3420 O   0  0  0  0  0  1  0  0  0  0  0  0
  160.5210  213.2860  147.3330 C   0  0  2  0  0  3  0  0  0  0  0  0
  161.2730  212.8520  148.5770 C   0  0  0  0  0  1  0  0  0  0  0  0
  1 31  1  6  0  0  0
  1 24  1  0  0  0  0
  2  1  1  0  0  0  0
  3  2  1  0  0  0  0
  3  8  1  0  0  0  0
  4  5  1  0  0  0  0
  5  8  2  0  0  0  0
  6  3  2  0  0  0  0
  7  6  1  0  0  0  0
  7  4  2  0  0  0  0
  9  4  1  0  0  0  0
 10 11  2  0  0  0  0
 11  9  1  0  0  0  0
 12 11  1  0  0  0  0
 13 18  1  6  0  0  0
 13 19  1  0  0  0  0
 13 16  1  0  0  0  0
 14 17  1  0  0  0  0
 15 17  1  0  0  0  0
 16 14  1  0  0  0  0
 17 12  1  1  0  0  0
 19 20  1  6  0  0  0
 19 15  1  0  0  0  0
 20 21  1  0  0  0  0
 22 21  1  0  0  0  0
 23 22  1  0  0  0  0
 24 25  1  0  0  0  0
 25 26  1  0  0  0  0
 25 27  2  0  0  0  0
 26 28  1  0  0  0  0
 29 30  1  0  0  0  0
 30 28  1  0  0  0  0
 32 31  1  0  0  0  0
 33 32  1  0  0  0  0
 34 38  2  0  0  0  0
 34 37  1  0  0  0  0
 36 35  2  0  0  0  0
 36 33  1  0  0  0  0
 37 35  1  0  0  0  0
 38 36  1  0  0  0  0
 39 40  2  0  0  0  0
 40 38  1  0  0  0  0
 41 43  2  0  0  0  0
 43 42  1  0  0  0  0
 43 39  1  0  0  0  0
 44 45  1  0  0  0  0
 45 39  1  0  0  0  0
 45 46  1  1  0  0  0
M  END
>  <MODEL>
9

>  <REMARK>
 VINA RESULT:      -5.5      2.372      6.235
  Name = 
  20 active torsions:
  status: ('A' for Active; 'I' for Inactive)
    1  A    between atoms: C_1  and  N_32
    2  A    between atoms: C_2  and  O_45
    3  A    between atoms: C_7  and  C_18
    4  A    between atoms: C_7  and  O_27
    5  A    between atoms: C_7  and  N_32
    6  A    between atoms: C_8  and  C_16
    7  A    between atoms: CA_10  and  C_28
    8  A    between atoms: CA_10  and  CB_43
    9  A    between atoms: N_11  and  C_35
   10  A    between atoms: C_15  and  C_18
   11  A    between atoms: C_15  and  C_41
   12  A    between atoms: C_16  and  C_17
   13  A    between atoms: C_17  and  C_39
   14  A    between atoms: C_21  and  C_41
   15  A    between atoms: C_22  and  O_27
   16  A    between atoms: C_23  and  C_36
   17  A    between atoms: C_23  and  C_42
   18  A    between atoms: N_25  and  C_29
   19  A    between atoms: C_29  and  C_38
   20  A    between atoms: C_42  and  O_45
                            x       y       z     vdW  Elec       q    Type
                         _______ _______ _______ _____ _____    ______ ____

>  <TORSDO>
F 20

$$$$
