=
 OpenBabel11052411283D

 43 48  0  0  1  0  0  0  0  0999 V2000
  157.7160  212.8660  151.5700 C   0  0  0  0  0  0  0  0  0  0  0  0
  160.4620  210.6340  154.2360 C   0  0  0  0  0  0  0  0  0  0  0  0
  160.8260  211.7920  156.3030 N   0  0  0  0  0  0  0  0  0  0  0  0
  161.3540  210.6790  156.8760 C   0  0  0  0  0  3  0  0  0  0  0  0
  158.3990  212.4050  152.5790 C   0  0  0  0  0  0  0  0  0  0  0  0
  162.0230  208.2770  156.7630 C   0  0  0  0  0  1  0  0  0  0  0  0
  161.0060  209.4830  154.8270 C   0  0  0  0  0  3  0  0  0  0  0  0
  157.0380  213.3250  150.5520 C   0  0  0  0  0  3  0  0  0  0  0  0
  161.4480  209.5000  156.1460 C   0  0  0  0  0  0  0  0  0  0  0  0
  158.5550  210.9340  152.7180 C   0  0  0  0  0  2  0  0  0  0  0  0
  159.8280  213.1040  154.5390 C   0  0  0  0  0  3  0  0  0  0  0  0
  160.3650  211.8110  155.0210 C   0  0  0  0  0  0  0  0  0  0  0  0
  160.0280  210.6010  152.7930 C   0  0  2  0  0  3  0  0  0  0  0  0
  159.0170  213.3660  153.5060 C   0  0  0  0  0  3  0  0  0  0  0  0
  157.1470  213.3610  148.0170 C   0  0  0  0  0  3  0  0  0  0  0  0
  159.1990  214.3890  147.6940 C   0  0  1  0  0  3  0  0  0  0  0  0
  157.6730  213.6250  149.3060 N   0  0  0  0  0  0  0  0  0  0  0  0
  157.9760  213.7710  147.0770 C   0  0  0  0  0  3  0  0  0  0  0  0
  158.9700  214.2590  149.2010 C   0  0  0  0  0  2  0  0  0  0  0  0
  160.4920  213.6850  147.2750 C   0  0  1  0  0  3  0  0  0  0  0  0
  162.9660  214.2160  147.6670 N   0  0  0  0  0  2  0  0  0  0  0  0
  161.1440  214.3640  146.1670 N   0  0  0  0  0  2  0  0  0  0  0  0
  161.6560  213.5800  148.6640 S   0  0  0  0  0  0  0  0  0  0  0  0
  162.5520  214.0380  146.2850 C   0  0  0  0  0  2  0  0  0  0  0  0
  160.2760  209.2990  152.1790 N   0  0  0  0  0  2  0  0  0  0  0  0
  161.9990  207.7320  151.6090 C   0  0  0  0  0  3  0  0  0  0  0  0
  161.4920  208.9600  151.4990 C   0  0  0  0  0  0  0  0  0  0  0  0
  161.3260  206.6550  152.3960 C   0  0  0  0  0  2  0  0  0  0  0  0
  160.7290  204.2390  152.2810 C   0  0  0  0  0  2  0  0  0  0  0  0
  160.4530  203.2430  149.9610 C   0  0  2  0  0  3  0  0  0  0  0  0
  160.8600  205.5410  151.4760 C   0  0  2  0  0  3  0  0  0  0  0  0
  161.3020  204.3420  149.2930 C   0  0  0  0  0  2  0  0  0  0  0  0
  161.8260  205.3710  150.3020 C   0  0  0  0  0  2  0  0  0  0  0  0
  162.1920  202.3450  151.5910 C   0  0  0  0  0  1  0  0  0  0  0  0
  160.8090  202.9600  151.4320 C   0  0  1  0  0  3  0  0  0  0  0  0
  160.2850  202.0380  149.1430 N   0  0  0  0  0  2  0  0  0  0  0  0
  161.1070  202.0980  147.9400 C   0  0  1  0  0  3  0  0  0  0  0  0
  161.1880  200.8390  147.3880 C   0  0  0  0  0  0  0  0  0  0  0  0
  160.3180  201.9240  146.8360 O   0  0  0  0  0  0  0  0  0  0  0  0
  161.6350  199.6630  147.3650 O   0  0  0  0  0  0  0  0  0  0  0  0
  162.2460  209.9970  150.7190 C   0  0  0  0  0  2  0  0  0  0  0  0
  161.6720  208.4540  148.8290 C   0  0  0  0  0  1  0  0  0  0  0  0
  161.9980  209.8840  149.2190 C   0  0  0  0  0  2  0  0  0  0  0  0
  1  5  2  0  0  0  0
  2  7  2  0  0  0  0
  2 12  1  0  0  0  0
  3  4  1  0  0  0  0
  5 10  1  0  0  0  0
  5 14  1  0  0  0  0
  7  9  1  0  0  0  0
  8  1  2  0  0  0  0
  9  6  1  0  0  0  0
  9  4  2  0  0  0  0
 10 13  1  0  0  0  0
 11 12  1  0  0  0  0
 12  3  2  0  0  0  0
 13 25  1  1  0  0  0
 13  2  1  0  0  0  0
 14 11  2  0  0  0  0
 15 17  1  0  0  0  0
 16 18  1  6  0  0  0
 16 19  1  0  0  0  0
 17  8  1  0  0  0  0
 18 15  2  0  0  0  0
 19 17  1  0  0  0  0
 20 22  1  6  0  0  0
 20 16  1  0  0  0  0
 20 23  1  0  0  0  0
 21 23  1  0  0  0  0
 22 24  1  0  0  0  0
 24 21  1  0  0  0  0
 26 28  1  0  0  0  0
 27 26  2  0  0  0  0
 27 25  1  0  0  0  0
 30 36  1  6  0  0  0
 30 35  1  0  0  0  0
 31 29  1  0  0  0  0
 31 28  1  1  0  0  0
 32 30  1  0  0  0  0
 32 33  1  0  0  0  0
 33 31  1  0  0  0  0
 35 34  1  6  0  0  0
 35 29  1  0  0  0  0
 37 36  1  1  0  0  0
 38 37  1  0  0  0  0
 39 38  1  0  0  0  0
 39 37  1  0  0  0  0
 40 38  2  0  0  0  0
 41 27  1  0  0  0  0
 42 43  1  0  0  0  0
 43 41  1  0  0  0  0
M  END
>  <MODEL>
1

>  <REMARK>
 VINA RESULT:      -7.4      0.000      0.000
  Name = 
  10 active torsions:
  status: ('A' for Active; 'I' for Inactive)
    1  A    between atoms: C_3  and  N_7
    2  A    between atoms: C_4  and  C_24
    3  A    between atoms: C_6  and  N_28
    4  A    between atoms: C_6  and  C_35
    5  A    between atoms: N_7  and  C_9
    6  A    between atoms: C_11  and  C_12
    7  A    between atoms: C_18  and  N_27
    8  A    between atoms: C_19  and  C_24
    9  A    between atoms: N_28  and  C_41
   10  A    between atoms: C_35  and  C_40
                            x       y       z     vdW  Elec       q    Type
                         _______ _______ _______ _____ _____    ______ ____

>  <TORSDO>
F 10

$$$$
=
 OpenBabel11052411283D

 43 48  0  0  1  0  0  0  0  0999 V2000
  161.9610  205.7410  152.8570 C   0  0  0  0  0  0  0  0  0  0  0  0
  160.2240  209.6500  154.0130 C   0  0  0  0  0  0  0  0  0  0  0  0
  159.6200  209.6990  156.3320 N   0  0  0  0  0  0  0  0  0  0  0  0
  159.5080  211.0530  156.3130 C   0  0  0  0  0  3  0  0  0  0  0  0
  161.5170  206.7870  153.4960 C   0  0  0  0  0  0  0  0  0  0  0  0
  159.6400  213.2340  155.1060 C   0  0  0  0  0  1  0  0  0  0  0  0
  160.1100  211.0490  153.9910 C   0  0  0  0  0  3  0  0  0  0  0  0
  162.4000  204.6960  152.2090 C   0  0  0  0  0  3  0  0  0  0  0  0
  159.7580  211.7530  155.1390 C   0  0  0  0  0  0  0  0  0  0  0  0
  161.8490  208.1360  152.9670 C   0  0  0  0  0  2  0  0  0  0  0  0
  160.0470  207.5060  155.4170 C   0  0  0  0  0  3  0  0  0  0  0  0
  159.9800  208.9740  155.2360 C   0  0  0  0  0  0  0  0  0  0  0  0
  160.5670  208.9070  152.7480 C   0  0  2  0  0  3  0  0  0  0  0  0
  160.6750  206.5790  154.6830 C   0  0  0  0  0  3  0  0  0  0  0  0
  160.7560  202.9890  151.3030 C   0  0  0  0  0  3  0  0  0  0  0  0
  160.6830  203.6120  149.0710 C   0  0  1  0  0  3  0  0  0  0  0  0
  161.6370  204.0910  151.1630 N   0  0  0  0  0  0  0  0  0  0  0  0
  160.1990  202.6820  150.1470 C   0  0  0  0  0  3  0  0  0  0  0  0
  161.6660  204.5410  149.7870 C   0  0  0  0  0  2  0  0  0  0  0  0
  161.3680  202.8760  147.9180 C   0  0  1  0  0  3  0  0  0  0  0  0
  160.9540  202.8340  145.3910 N   0  0  0  0  0  2  0  0  0  0  0  0
  160.5830  201.7430  147.4560 N   0  0  0  0  0  2  0  0  0  0  0  0
  161.6670  203.9920  146.5180 S   0  0  0  0  0  0  0  0  0  0  0  0
  160.9590  201.5490  146.0680 C   0  0  0  0  0  2  0  0  0  0  0  0
  160.7170  209.8090  151.6100 N   0  0  0  0  0  2  0  0  0  0  0  0
  161.9800  210.5620  149.7160 C   0  0  0  0  0  3  0  0  0  0  0  0
  161.6000  209.5590  150.5090 C   0  0  0  0  0  0  0  0  0  0  0  0
  161.5500  211.9730  149.9480 C   0  0  0  0  0  2  0  0  0  0  0  0
  160.4070  213.0380  148.0080 C   0  0  0  0  0  2  0  0  0  0  0  0
  161.8980  213.9110  146.1470 C   0  0  2  0  0  3  0  0  0  0  0  0
  161.7620  212.8030  148.6950 C   0  0  2  0  0  3  0  0  0  0  0  0
  163.0740  212.9980  146.5420 C   0  0  0  0  0  2  0  0  0  0  0  0
  162.7480  212.1130  147.7500 C   0  0  0  0  0  2  0  0  0  0  0  0
  160.1440  212.1180  145.7090 C   0  0  0  0  0  1  0  0  0  0  0  0
  160.5060  213.3610  146.5080 C   0  0  1  0  0  3  0  0  0  0  0  0
  161.9920  214.4530  144.7870 N   0  0  0  0  0  2  0  0  0  0  0  0
  163.0380  213.7810  144.0230 C   0  0  1  0  0  3  0  0  0  0  0  0
  162.4620  213.1180  142.9620 C   0  0  0  0  0  0  0  0  0  0  0  0
  163.2040  214.4110  142.8200 O   0  0  0  0  0  0  0  0  0  0  0  0
  161.8030  212.1650  142.4740 O   0  0  0  0  0  0  0  0  0  0  0  0
  162.0460  208.1630  150.1890 C   0  0  0  0  0  2  0  0  0  0  0  0
  161.2380  207.4130  147.9380 C   0  0  0  0  0  1  0  0  0  0  0  0
  162.4030  207.9950  148.7160 C   0  0  0  0  0  2  0  0  0  0  0  0
  1  5  2  0  0  0  0
  2 12  1  0  0  0  0
  4  3  1  0  0  0  0
  5 14  1  0  0  0  0
  6  9  1  0  0  0  0
  7  2  2  0  0  0  0
  7  9  1  0  0  0  0
  8  1  2  0  0  0  0
  9  4  2  0  0  0  0
 10  5  1  0  0  0  0
 12 11  1  0  0  0  0
 12  3  2  0  0  0  0
 13 25  1  6  0  0  0
 13 10  1  0  0  0  0
 13  2  1  0  0  0  0
 14 11  2  0  0  0  0
 16 19  1  1  0  0  0
 16 18  1  0  0  0  0
 17 15  1  0  0  0  0
 17  8  1  0  0  0  0
 18 15  2  0  0  0  0
 19 17  1  0  0  0  0
 20 23  1  6  0  0  0
 20 16  1  0  0  0  0
 21 24  1  0  0  0  0
 21 23  1  0  0  0  0
 22 20  1  0  0  0  0
 24 22  1  0  0  0  0
 26 28  1  0  0  0  0
 26 27  2  0  0  0  0
 27 25  1  0  0  0  0
 29 31  1  0  0  0  0
 30 36  1  6  0  0  0
 30 35  1  0  0  0  0
 30 32  1  0  0  0  0
 31 28  1  1  0  0  0
 32 33  1  0  0  0  0
 33 31  1  0  0  0  0
 35 34  1  6  0  0  0
 35 29  1  0  0  0  0
 37 36  1  1  0  0  0
 38 37  1  0  0  0  0
 39 38  1  0  0  0  0
 39 37  1  0  0  0  0
 40 38  2  0  0  0  0
 41 27  1  0  0  0  0
 42 43  1  0  0  0  0
 43 41  1  0  0  0  0
M  END
>  <MODEL>
2

>  <REMARK>
 VINA RESULT:      -7.4      3.623      8.729
  Name = 
  10 active torsions:
  status: ('A' for Active; 'I' for Inactive)
    1  A    between atoms: C_3  and  N_7
    2  A    between atoms: C_4  and  C_24
    3  A    between atoms: C_6  and  N_28
    4  A    between atoms: C_6  and  C_35
    5  A    between atoms: N_7  and  C_9
    6  A    between atoms: C_11  and  C_12
    7  A    between atoms: C_18  and  N_27
    8  A    between atoms: C_19  and  C_24
    9  A    between atoms: N_28  and  C_41
   10  A    between atoms: C_35  and  C_40
                            x       y       z     vdW  Elec       q    Type
                         _______ _______ _______ _____ _____    ______ ____

>  <TORSDO>
F 10

$$$$
=
 OpenBabel11052411283D

 43 48  0  0  1  0  0  0  0  0999 V2000
  157.6560  212.8290  150.9260 C   0  0  0  0  0  0  0  0  0  0  0  0
  160.4300  211.8630  154.2430 C   0  0  0  0  0  0  0  0  0  0  0  0
  159.9810  213.1890  156.1890 N   0  0  0  0  0  0  0  0  0  0  0  0
  160.7330  212.3690  156.9670 C   0  0  0  0  0  3  0  0  0  0  0  0
  158.2490  212.6960  152.0790 C   0  0  0  0  0  0  0  0  0  0  0  0
  162.1810  210.3550  157.2500 C   0  0  0  0  0  1  0  0  0  0  0  0
  161.2080  211.0140  155.0460 C   0  0  0  0  0  3  0  0  0  0  0  0
  157.0710  212.9600  149.7660 C   0  0  0  0  0  3  0  0  0  0  0  0
  161.3560  211.2600  156.4080 C   0  0  0  0  0  0  0  0  0  0  0  0
  158.8620  211.3850  152.4160 C   0  0  0  0  0  2  0  0  0  0  0  0
  158.9550  213.9630  154.1440 C   0  0  0  0  0  3  0  0  0  0  0  0
  159.7940  212.9720  154.8560 C   0  0  0  0  0  0  0  0  0  0  0  0
  160.3180  211.5980  152.7640 C   0  0  2  0  0  3  0  0  0  0  0  0
  158.3170  213.8630  152.9720 C   0  0  0  0  0  3  0  0  0  0  0  0
  157.2430  213.6400  147.3280 C   0  0  0  0  0  3  0  0  0  0  0  0
  159.5080  214.1090  147.1750 C   0  0  1  0  0  3  0  0  0  0  0  0
  157.7930  213.3950  148.6110 N   0  0  0  0  0  0  0  0  0  0  0  0
  158.1760  214.0410  146.4850 C   0  0  0  0  0  3  0  0  0  0  0  0
  159.2180  213.6500  148.6060 C   0  0  0  0  0  2  0  0  0  0  0  0
  160.5610  213.2140  146.5180 C   0  0  1  0  0  3  0  0  0  0  0  0
  163.1020  213.0340  146.7830 N   0  0  0  0  0  2  0  0  0  0  0  0
  161.3230  213.9280  145.5060 N   0  0  0  0  0  2  0  0  0  0  0  0
  161.7100  212.5440  147.7530 S   0  0  0  0  0  0  0  0  0  0  0  0
  162.6050  213.2510  145.4350 C   0  0  0  0  0  2  0  0  0  0  0  0
  161.1020  210.4360  152.3570 N   0  0  0  0  0  2  0  0  0  0  0  0
  160.9090  208.1330  151.7170 C   0  0  0  0  0  3  0  0  0  0  0  0
  160.7200  209.0820  152.6350 C   0  0  0  0  0  0  0  0  0  0  0  0
  161.5500  208.4120  150.3970 C   0  0  0  0  0  2  0  0  0  0  0  0
  162.1510  207.4170  148.1930 C   0  0  0  0  0  2  0  0  0  0  0  0
  161.9910  204.8900  148.0040 C   0  0  2  0  0  3  0  0  0  0  0  0
  161.8480  207.1140  149.6690 C   0  0  2  0  0  3  0  0  0  0  0  0
  161.0120  204.7760  149.1880 C   0  0  0  0  0  2  0  0  0  0  0  0
  160.6760  206.1390  149.8030 C   0  0  0  0  0  2  0  0  0  0  0  0
  160.6140  206.4220  146.5070 C   0  0  0  0  0  1  0  0  0  0  0  0
  161.9300  206.2280  147.2450 C   0  0  1  0  0  3  0  0  0  0  0  0
  162.0170  203.7090  147.1340 N   0  0  0  0  0  2  0  0  0  0  0  0
  160.9530  202.7740  147.4820 C   0  0  1  0  0  3  0  0  0  0  0  0
  160.7500  201.9120  146.4270 C   0  0  0  0  0  0  0  0  0  0  0  0
  161.4820  201.5270  147.6750 O   0  0  0  0  0  0  0  0  0  0  0  0
  160.3050  201.6450  145.2810 O   0  0  0  0  0  0  0  0  0  0  0  0
  160.0380  208.7300  153.9240 C   0  0  0  0  0  2  0  0  0  0  0  0
  160.0760  207.2920  155.9760 C   0  0  0  0  0  1  0  0  0  0  0  0
  160.6740  207.5210  154.6010 C   0  0  0  0  0  2  0  0  0  0  0  0
  1  5  2  0  0  0  0
  2 12  2  0  0  0  0
  2  7  1  0  0  0  0
  3  4  2  0  0  0  0
  5 10  1  0  0  0  0
  5 14  1  0  0  0  0
  7  9  2  0  0  0  0
  8  1  2  0  0  0  0
  9  4  1  0  0  0  0
  9  6  1  0  0  0  0
 10 13  1  0  0  0  0
 11 12  1  0  0  0  0
 12  3  1  0  0  0  0
 13 25  1  1  0  0  0
 13  2  1  0  0  0  0
 14 11  2  0  0  0  0
 15 17  1  0  0  0  0
 16 18  1  6  0  0  0
 16 19  1  0  0  0  0
 17  8  1  0  0  0  0
 18 15  2  0  0  0  0
 19 17  1  0  0  0  0
 20 22  1  6  0  0  0
 20 16  1  0  0  0  0
 20 23  1  0  0  0  0
 21 23  1  0  0  0  0
 24 22  1  0  0  0  0
 24 21  1  0  0  0  0
 25 27  1  0  0  0  0
 26 27  2  0  0  0  0
 27 41  1  0  0  0  0
 28 26  1  0  0  0  0
 29 31  1  0  0  0  0
 30 36  1  6  0  0  0
 30 32  1  0  0  0  0
 31 33  1  0  0  0  0
 31 28  1  1  0  0  0
 32 33  1  0  0  0  0
 35 34  1  1  0  0  0
 35 30  1  0  0  0  0
 35 29  1  0  0  0  0
 37 36  1  6  0  0  0
 37 39  1  0  0  0  0
 38 37  1  0  0  0  0
 38 39  1  0  0  0  0
 40 38  2  0  0  0  0
 41 43  1  0  0  0  0
 43 42  1  0  0  0  0
M  END
>  <MODEL>
3

>  <REMARK>
 VINA RESULT:      -7.2      1.546      2.648
  Name = 
  10 active torsions:
  status: ('A' for Active; 'I' for Inactive)
    1  A    between atoms: C_3  and  N_7
    2  A    between atoms: C_4  and  C_24
    3  A    between atoms: C_6  and  N_28
    4  A    between atoms: C_6  and  C_35
    5  A    between atoms: N_7  and  C_9
    6  A    between atoms: C_11  and  C_12
    7  A    between atoms: C_18  and  N_27
    8  A    between atoms: C_19  and  C_24
    9  A    between atoms: N_28  and  C_41
   10  A    between atoms: C_35  and  C_40
                            x       y       z     vdW  Elec       q    Type
                         _______ _______ _______ _____ _____    ______ ____

>  <TORSDO>
F 10

$$$$
=
 OpenBabel11052411283D

 43 48  0  0  1  0  0  0  0  0999 V2000
  159.4010  212.5500  151.2700 C   0  0  0  0  0  0  0  0  0  0  0  0
  160.3780  209.6540  154.4770 C   0  0  0  0  0  0  0  0  0  0  0  0
  160.3870  210.6930  156.6370 N   0  0  0  0  0  0  0  0  0  0  0  0
  160.3570  209.4860  157.2600 C   0  0  0  0  0  3  0  0  0  0  0  0
  159.5620  211.9270  152.4030 C   0  0  0  0  0  0  0  0  0  0  0  0
  160.2940  206.9920  157.1780 C   0  0  0  0  0  1  0  0  0  0  0  0
  160.3450  208.4050  155.1190 C   0  0  0  0  0  3  0  0  0  0  0  0
  159.2470  213.1690  150.1310 C   0  0  0  0  0  3  0  0  0  0  0  0
  160.3290  208.3180  156.5080 C   0  0  0  0  0  0  0  0  0  0  0  0
  159.2280  210.4800  152.4720 C   0  0  0  0  0  2  0  0  0  0  0  0
  160.4310  212.2060  154.7560 C   0  0  0  0  0  3  0  0  0  0  0  0
  160.3850  210.8220  155.2810 C   0  0  0  0  0  0  0  0  0  0  0  0
  160.4360  209.7210  152.9740 C   0  0  2  0  0  3  0  0  0  0  0  0
  160.1050  212.6770  153.5460 C   0  0  0  0  0  3  0  0  0  0  0  0
  161.4840  214.0140  149.2810 C   0  0  0  0  0  3  0  0  0  0  0  0
  161.6300  212.8770  147.2660 C   0  0  1  0  0  3  0  0  0  0  0  0
  160.3030  213.2370  149.1690 N   0  0  0  0  0  0  0  0  0  0  0  0
  162.2600  213.8440  148.2270 C   0  0  0  0  0  3  0  0  0  0  0  0
  160.3020  212.4980  147.9240 C   0  0  0  0  0  2  0  0  0  0  0  0
  161.4000  213.4850  145.8800 C   0  0  1  0  0  3  0  0  0  0  0  0
  160.6980  212.4780  143.6340 N   0  0  0  0  0  2  0  0  0  0  0  0
  162.5030  213.2070  144.9760 N   0  0  0  0  0  2  0  0  0  0  0  0
  159.8640  212.8600  145.1420 S   0  0  0  0  0  0  0  0  0  0  0  0
  161.9330  213.2440  143.6430 C   0  0  0  0  0  2  0  0  0  0  0  0
  160.4750  208.3920  152.3700 N   0  0  0  0  0  2  0  0  0  0  0  0
  162.5120  207.7440  151.2850 C   0  0  0  0  0  3  0  0  0  0  0  0
  161.6590  207.5870  152.2970 C   0  0  0  0  0  0  0  0  0  0  0  0
  162.3100  208.7690  150.2180 C   0  0  0  0  0  2  0  0  0  0  0  0
  160.5630  207.1680  149.4490 C   0  0  0  0  0  2  0  0  0  0  0  0
  160.6150  206.5190  146.9940 C   0  0  2  0  0  3  0  0  0  0  0  0
  161.6640  208.1410  148.9970 C   0  0  2  0  0  3  0  0  0  0  0  0
  162.0980  206.9050  146.8340 C   0  0  0  0  0  2  0  0  0  0  0  0
  162.7110  207.4300  148.1370 C   0  0  0  0  0  2  0  0  0  0  0  0
  160.8640  204.7740  148.8320 C   0  0  0  0  0  1  0  0  0  0  0  0
  160.2130  206.0850  148.4160 C   0  0  1  0  0  3  0  0  0  0  0  0
  160.1070  205.6420  145.9350 N   0  0  0  0  0  2  0  0  0  0  0  0
  161.1850  205.1920  145.0610 C   0  0  1  0  0  3  0  0  0  0  0  0
  161.4800  203.8780  145.3510 C   0  0  0  0  0  0  0  0  0  0  0  0
  160.6950  204.2980  144.1480 O   0  0  0  0  0  0  0  0  0  0  0  0
  161.9990  202.9910  146.0770 O   0  0  0  0  0  0  0  0  0  0  0  0
  161.9140  206.5100  153.3110 C   0  0  0  0  0  2  0  0  0  0  0  0
  161.5840  204.4770  151.8830 C   0  0  0  0  0  1  0  0  0  0  0  0
  161.0600  205.2720  153.0640 C   0  0  0  0  0  2  0  0  0  0  0  0
  1  5  2  0  0  0  0
  2  7  2  0  0  0  0
  2 12  1  0  0  0  0
  3  4  1  0  0  0  0
  5 10  1  0  0  0  0
  5 14  1  0  0  0  0
  7  9  1  0  0  0  0
  8  1  2  0  0  0  0
  9  6  1  0  0  0  0
  9  4  2  0  0  0  0
 10 13  1  0  0  0  0
 11 12  1  0  0  0  0
 12  3  2  0  0  0  0
 13 25  1  6  0  0  0
 13  2  1  0  0  0  0
 14 11  2  0  0  0  0
 16 19  1  1  0  0  0
 16 18  1  0  0  0  0
 17 15  1  0  0  0  0
 17  8  1  0  0  0  0
 18 15  2  0  0  0  0
 19 17  1  0  0  0  0
 20 22  1  6  0  0  0
 20 16  1  0  0  0  0
 21 24  1  0  0  0  0
 21 23  1  0  0  0  0
 23 20  1  0  0  0  0
 24 22  1  0  0  0  0
 26 27  2  0  0  0  0
 27 25  1  0  0  0  0
 27 41  1  0  0  0  0
 28 26  1  0  0  0  0
 30 36  1  6  0  0  0
 30 35  1  0  0  0  0
 31 29  1  0  0  0  0
 31 28  1  1  0  0  0
 32 30  1  0  0  0  0
 32 33  1  0  0  0  0
 33 31  1  0  0  0  0
 35 34  1  1  0  0  0
 35 29  1  0  0  0  0
 37 38  1  0  0  0  0
 37 36  1  1  0  0  0
 38 40  2  0  0  0  0
 39 37  1  0  0  0  0
 39 38  1  0  0  0  0
 42 43  1  0  0  0  0
 43 41  1  0  0  0  0
M  END
>  <MODEL>
4

>  <REMARK>
 VINA RESULT:      -7.0      2.090      3.166
  Name = 
  10 active torsions:
  status: ('A' for Active; 'I' for Inactive)
    1  A    between atoms: C_3  and  N_7
    2  A    between atoms: C_4  and  C_24
    3  A    between atoms: C_6  and  N_28
    4  A    between atoms: C_6  and  C_35
    5  A    between atoms: N_7  and  C_9
    6  A    between atoms: C_11  and  C_12
    7  A    between atoms: C_18  and  N_27
    8  A    between atoms: C_19  and  C_24
    9  A    between atoms: N_28  and  C_41
   10  A    between atoms: C_35  and  C_40
                            x       y       z     vdW  Elec       q    Type
                         _______ _______ _______ _____ _____    ______ ____

>  <TORSDO>
F 10

$$$$
=
 OpenBabel11052411283D

 43 48  0  0  1  0  0  0  0  0999 V2000
  159.1780  214.1330  150.8440 C   0  0  0  0  0  0  0  0  0  0  0  0
  159.1240  213.0850  146.5400 C   0  0  0  0  0  0  0  0  0  0  0  0
  157.4440  214.3130  145.3500 N   0  0  0  0  0  0  0  0  0  0  0  0
  157.9980  213.9850  144.1540 C   0  0  0  0  0  3  0  0  0  0  0  0
  158.9950  214.1010  149.5540 C   0  0  0  0  0  0  0  0  0  0  0  0
  159.7580  212.8320  142.8100 C   0  0  0  0  0  1  0  0  0  0  0  0
  159.6980  212.7450  145.3050 C   0  0  0  0  0  3  0  0  0  0  0  0
  159.3620  214.1550  152.1370 C   0  0  0  0  0  3  0  0  0  0  0  0
  159.1420  213.1970  144.1120 C   0  0  0  0  0  0  0  0  0  0  0  0
  160.1380  213.7130  148.6850 C   0  0  0  0  0  2  0  0  0  0  0  0
  157.2410  214.3400  147.7560 C   0  0  0  0  0  3  0  0  0  0  0  0
  157.9680  213.9070  146.5400 C   0  0  0  0  0  0  0  0  0  0  0  0
  159.7200  212.5490  147.8150 C   0  0  2  0  0  3  0  0  0  0  0  0
  157.6580  214.4090  149.0260 C   0  0  0  0  0  3  0  0  0  0  0  0
  157.9100  212.6500  153.5740 C   0  0  0  0  0  3  0  0  0  0  0  0
  159.4210  210.9700  154.0920 C   0  0  1  0  0  3  0  0  0  0  0  0
  159.1310  212.9980  152.9440 N   0  0  0  0  0  0  0  0  0  0  0  0
  158.0280  211.5160  154.2360 C   0  0  0  0  0  3  0  0  0  0  0  0
  160.1450  212.0050  153.2280 C   0  0  0  0  0  2  0  0  0  0  0  0
  160.1280  210.7920  155.4380 C   0  0  1  0  0  3  0  0  0  0  0  0
  161.9680  209.2020  156.2380 N   0  0  0  0  0  2  0  0  0  0  0  0
  159.6420  209.6230  156.1540 N   0  0  0  0  0  2  0  0  0  0  0  0
  161.9230  210.6410  155.2160 S   0  0  0  0  0  0  0  0  0  0  0  0
  160.7370  209.2100  157.0110 C   0  0  0  0  0  2  0  0  0  0  0  0
  160.8670  211.6830  147.5590 N   0  0  0  0  0  2  0  0  0  0  0  0
  162.3750  211.4790  149.4120 C   0  0  0  0  0  3  0  0  0  0  0  0
  162.1560  211.8740  148.1570 C   0  0  0  0  0  0  0  0  0  0  0  0
  161.3290  210.7980  150.2320 C   0  0  0  0  0  2  0  0  0  0  0  0
  161.9620  208.5550  149.3500 C   0  0  0  0  0  2  0  0  0  0  0  0
  162.1870  206.6850  151.0530 C   0  0  2  0  0  3  0  0  0  0  0  0
  161.7870  209.4030  150.6200 C   0  0  2  0  0  3  0  0  0  0  0  0
  161.3010  207.4030  152.0890 C   0  0  0  0  0  2  0  0  0  0  0  0
  160.7890  208.7570  151.5830 C   0  0  0  0  0  2  0  0  0  0  0  0
  160.5120  206.5410  149.1410 C   0  0  0  0  0  1  0  0  0  0  0  0
  161.8780  207.0380  149.5870 C   0  0  1  0  0  3  0  0  0  0  0  0
  162.3510  205.2480  151.3000 N   0  0  0  0  0  2  0  0  0  0  0  0
  161.0910  204.6360  151.7060 C   0  0  1  0  0  3  0  0  0  0  0  0
  160.8670  203.5170  150.9340 C   0  0  0  0  0  0  0  0  0  0  0  0
  161.3400  203.4560  152.3530 O   0  0  0  0  0  0  0  0  0  0  0  0
  160.5340  202.9600  149.8560 O   0  0  0  0  0  0  0  0  0  0  0  0
  163.2470  212.5830  147.4110 C   0  0  0  0  0  2  0  0  0  0  0  0
  163.0860  213.3120  145.0180 C   0  0  0  0  0  1  0  0  0  0  0  0
  162.7000  213.6320  146.4500 C   0  0  0  0  0  2  0  0  0  0  0  0
  1  8  2  0  0  0  0
  2 12  1  0  0  0  0
  2 13  1  0  0  0  0
  3 12  2  0  0  0  0
  4  3  1  0  0  0  0
  5  1  2  0  0  0  0
  6  9  1  0  0  0  0
  7  2  2  0  0  0  0
  8 17  1  0  0  0  0
  9  4  2  0  0  0  0
  9  7  1  0  0  0  0
 10  5  1  0  0  0  0
 11 14  2  0  0  0  0
 12 11  1  0  0  0  0
 13 25  1  6  0  0  0
 13 10  1  0  0  0  0
 14  5  1  0  0  0  0
 15 18  2  0  0  0  0
 16 19  1  6  0  0  0
 16 18  1  0  0  0  0
 16 20  1  0  0  0  0
 17 19  1  0  0  0  0
 17 15  1  0  0  0  0
 20 23  1  6  0  0  0
 20 22  1  0  0  0  0
 21 24  1  0  0  0  0
 22 24  1  0  0  0  0
 23 21  1  0  0  0  0
 25 27  1  0  0  0  0
 26 28  1  0  0  0  0
 27 26  2  0  0  0  0
 29 35  1  0  0  0  0
 29 31  1  0  0  0  0
 30 36  1  6  0  0  0
 30 32  1  0  0  0  0
 31 28  1  6  0  0  0
 31 33  1  0  0  0  0
 33 32  1  0  0  0  0
 35 34  1  1  0  0  0
 35 30  1  0  0  0  0
 37 36  1  6  0  0  0
 37 39  1  0  0  0  0
 38 37  1  0  0  0  0
 38 39  1  0  0  0  0
 40 38  2  0  0  0  0
 41 27  1  0  0  0  0
 42 43  1  0  0  0  0
 43 41  1  0  0  0  0
M  END
>  <MODEL>
5

>  <REMARK>
 VINA RESULT:      -6.8      2.491      7.168
  Name = 
  10 active torsions:
  status: ('A' for Active; 'I' for Inactive)
    1  A    between atoms: C_3  and  N_7
    2  A    between atoms: C_4  and  C_24
    3  A    between atoms: C_6  and  N_28
    4  A    between atoms: C_6  and  C_35
    5  A    between atoms: N_7  and  C_9
    6  A    between atoms: C_11  and  C_12
    7  A    between atoms: C_18  and  N_27
    8  A    between atoms: C_19  and  C_24
    9  A    between atoms: N_28  and  C_41
   10  A    between atoms: C_35  and  C_40
                            x       y       z     vdW  Elec       q    Type
                         _______ _______ _______ _____ _____    ______ ____

>  <TORSDO>
F 10

$$$$
=
 OpenBabel11052411283D

 43 48  0  0  1  0  0  0  0  0999 V2000
  158.7260  214.0880  151.6980 C   0  0  0  0  0  0  0  0  0  0  0  0
  160.1370  212.9110  147.6660 C   0  0  0  0  0  0  0  0  0  0  0  0
  158.7840  213.8740  145.9380 N   0  0  0  0  0  0  0  0  0  0  0  0
  159.7170  213.5840  144.9940 C   0  0  0  0  0  3  0  0  0  0  0  0
  158.9600  213.9930  150.4190 C   0  0  0  0  0  0  0  0  0  0  0  0
  161.9270  212.6300  144.3350 C   0  0  0  0  0  1  0  0  0  0  0  0
  161.1030  212.6110  146.6920 C   0  0  0  0  0  3  0  0  0  0  0  0
  158.4940  214.1730  152.9800 C   0  0  0  0  0  3  0  0  0  0  0  0
  160.8990  212.9510  145.3580 C   0  0  0  0  0  0  0  0  0  0  0  0
  160.3530  213.7310  149.9700 C   0  0  0  0  0  2  0  0  0  0  0  0
  157.8390  213.9470  148.1590 C   0  0  0  0  0  3  0  0  0  0  0  0
  158.9530  213.5760  147.2570 C   0  0  0  0  0  0  0  0  0  0  0  0
  160.3640  212.4970  149.0970 C   0  0  2  0  0  3  0  0  0  0  0  0
  157.8280  214.1080  149.4880 C   0  0  0  0  0  3  0  0  0  0  0  0
  156.9840  212.8530  154.5330 C   0  0  0  0  0  3  0  0  0  0  0  0
  158.2080  210.8970  154.7560 C   0  0  1  0  0  3  0  0  0  0  0  0
  158.1570  213.0210  153.7560 N   0  0  0  0  0  0  0  0  0  0  0  0
  156.9720  211.6700  155.1190 C   0  0  0  0  0  3  0  0  0  0  0  0
  158.9950  211.8440  153.8480 C   0  0  0  0  0  2  0  0  0  0  0  0
  159.0360  210.4990  155.9800 C   0  0  1  0  0  3  0  0  0  0  0  0
  161.5340  210.0490  156.3170 N   0  0  0  0  0  2  0  0  0  0  0  0
  159.4030  209.0920  155.9510 N   0  0  0  0  0  2  0  0  0  0  0  0
  160.5480  211.4970  156.0970 S   0  0  0  0  0  0  0  0  0  0  0  0
  160.6250  208.9930  156.7270 C   0  0  0  0  0  2  0  0  0  0  0  0
  161.6240  211.7800  149.2640 N   0  0  0  0  0  2  0  0  0  0  0  0
  162.0620  209.5030  149.8730 C   0  0  0  0  0  3  0  0  0  0  0  0
  161.8350  210.7610  150.2500 C   0  0  0  0  0  0  0  0  0  0  0  0
  162.1480  209.1000  148.4370 C   0  0  0  0  0  2  0  0  0  0  0  0
  160.8330  207.2810  149.5200 C   0  0  0  0  0  2  0  0  0  0  0  0
  160.8110  205.0340  148.3380 C   0  0  2  0  0  3  0  0  0  0  0  0
  161.5760  207.7070  148.2430 C   0  0  2  0  0  3  0  0  0  0  0  0
  162.1090  205.3300  147.5630 C   0  0  0  0  0  2  0  0  0  0  0  0
  162.6840  206.7130  147.8920 C   0  0  0  0  0  2  0  0  0  0  0  0
  161.7090  205.2760  150.7080 C   0  0  0  0  0  1  0  0  0  0  0  0
  160.6880  205.7610  149.6890 C   0  0  1  0  0  3  0  0  0  0  0  0
  160.4560  203.6120  148.3880 N   0  0  0  0  0  2  0  0  0  0  0  0
  161.5400  202.7800  147.8790 C   0  0  1  0  0  3  0  0  0  0  0  0
  161.2920  201.4660  148.2120 C   0  0  0  0  0  0  0  0  0  0  0  0
  161.0850  202.0190  146.8370 O   0  0  0  0  0  0  0  0  0  0  0  0
  161.2520  200.5190  149.0400 O   0  0  0  0  0  0  0  0  0  0  0  0
  161.7280  211.0800  151.7120 C   0  0  0  0  0  2  0  0  0  0  0  0
  160.8460  208.9800  152.7600 C   0  0  0  0  0  1  0  0  0  0  0  0
  162.0580  209.8770  152.5900 C   0  0  0  0  0  2  0  0  0  0  0  0
  1  8  2  0  0  0  0
  2 13  1  0  0  0  0
  3 12  2  0  0  0  0
  4  9  2  0  0  0  0
  4  3  1  0  0  0  0
  5  1  2  0  0  0  0
  6  9  1  0  0  0  0
  7  2  2  0  0  0  0
  8 17  1  0  0  0  0
  9  7  1  0  0  0  0
 10  5  1  0  0  0  0
 11 14  2  0  0  0  0
 12  2  1  0  0  0  0
 12 11  1  0  0  0  0
 13 25  1  6  0  0  0
 13 10  1  0  0  0  0
 14  5  1  0  0  0  0
 15 18  2  0  0  0  0
 16 19  1  6  0  0  0
 16 18  1  0  0  0  0
 16 20  1  0  0  0  0
 17 19  1  0  0  0  0
 17 15  1  0  0  0  0
 20 22  1  6  0  0  0
 20 23  1  0  0  0  0
 21 24  1  0  0  0  0
 22 24  1  0  0  0  0
 23 21  1  0  0  0  0
 25 27  1  0  0  0  0
 26 27  2  0  0  0  0
 27 41  1  0  0  0  0
 28 26  1  0  0  0  0
 29 35  1  0  0  0  0
 30 36  1  1  0  0  0
 30 35  1  0  0  0  0
 31 28  1  1  0  0  0
 31 29  1  0  0  0  0
 32 33  1  0  0  0  0
 32 30  1  0  0  0  0
 33 31  1  0  0  0  0
 35 34  1  1  0  0  0
 37 38  1  0  0  0  0
 37 36  1  1  0  0  0
 38 40  2  0  0  0  0
 39 37  1  0  0  0  0
 39 38  1  0  0  0  0
 41 43  1  0  0  0  0
 43 42  1  0  0  0  0
M  END
>  <MODEL>
6

>  <REMARK>
 VINA RESULT:      -6.7      2.181      6.418
  Name = 
  10 active torsions:
  status: ('A' for Active; 'I' for Inactive)
    1  A    between atoms: C_3  and  N_7
    2  A    between atoms: C_4  and  C_24
    3  A    between atoms: C_6  and  N_28
    4  A    between atoms: C_6  and  C_35
    5  A    between atoms: N_7  and  C_9
    6  A    between atoms: C_11  and  C_12
    7  A    between atoms: C_18  and  N_27
    8  A    between atoms: C_19  and  C_24
    9  A    between atoms: N_28  and  C_41
   10  A    between atoms: C_35  and  C_40
                            x       y       z     vdW  Elec       q    Type
                         _______ _______ _______ _____ _____    ______ ____

>  <TORSDO>
F 10

$$$$
=
 OpenBabel11052411283D

 43 48  0  0  1  0  0  0  0  0999 V2000
  162.0350  205.4270  152.7250 C   0  0  0  0  0  0  0  0  0  0  0  0
  160.3040  209.3610  153.8010 C   0  0  0  0  0  0  0  0  0  0  0  0
  159.7190  209.4660  156.1230 N   0  0  0  0  0  0  0  0  0  0  0  0
  159.6060  210.8190  156.0720 C   0  0  0  0  0  3  0  0  0  0  0  0
  161.5950  206.4870  153.3410 C   0  0  0  0  0  0  0  0  0  0  0  0
  159.7260  212.9700  154.8110 C   0  0  0  0  0  1  0  0  0  0  0  0
  160.1880  210.7590  153.7460 C   0  0  0  0  0  3  0  0  0  0  0  0
  162.4690  204.3660  152.0980 C   0  0  0  0  0  3  0  0  0  0  0  0
  159.8460  211.4900  154.8790 C   0  0  0  0  0  0  0  0  0  0  0  0
  161.9210  207.8230  152.7780 C   0  0  0  0  0  2  0  0  0  0  0  0
  160.1410  207.2520  155.2580 C   0  0  0  0  0  3  0  0  0  0  0  0
  160.0710  208.7150  155.0420 C   0  0  0  0  0  0  0  0  0  0  0  0
  160.6370  208.5880  152.5510 C   0  0  2  0  0  3  0  0  0  0  0  0
  160.7630  206.3070  154.5410 C   0  0  0  0  0  3  0  0  0  0  0  0
  160.9980  202.5080  151.1920 C   0  0  0  0  0  3  0  0  0  0  0  0
  160.6150  203.2800  149.0400 C   0  0  1  0  0  3  0  0  0  0  0  0
  161.6970  203.7350  151.0740 N   0  0  0  0  0  0  0  0  0  0  0  0
  160.3760  202.2100  150.0670 C   0  0  0  0  0  3  0  0  0  0  0  0
  161.5250  204.2870  149.7460 C   0  0  0  0  0  2  0  0  0  0  0  0
  161.2780  202.7420  147.7700 C   0  0  1  0  0  3  0  0  0  0  0  0
  161.0590  203.3670  145.2960 N   0  0  0  0  0  2  0  0  0  0  0  0
  160.3800  201.8860  147.0110 N   0  0  0  0  0  2  0  0  0  0  0  0
  161.8370  204.0990  146.7010 S   0  0  0  0  0  0  0  0  0  0  0  0
  160.8310  201.9720  145.6350 C   0  0  0  0  0  2  0  0  0  0  0  0
  160.7760  209.4620  151.3900 N   0  0  0  0  0  2  0  0  0  0  0  0
  162.3220  210.3870  149.8080 C   0  0  0  0  0  3  0  0  0  0  0  0
  161.8020  209.3110  150.4000 C   0  0  0  0  0  0  0  0  0  0  0  0
  161.9040  211.7770  150.1620 C   0  0  0  0  0  2  0  0  0  0  0  0
  161.6510  212.0460  147.6980 C   0  0  0  0  0  2  0  0  0  0  0  0
  159.8790  213.6860  146.9090 C   0  0  2  0  0  3  0  0  0  0  0  0
  161.0290  212.3610  149.0680 C   0  0  2  0  0  3  0  0  0  0  0  0
  159.8670  214.4510  148.2460 C   0  0  0  0  0  2  0  0  0  0  0  0
  160.8550  213.8680  149.2630 C   0  0  0  0  0  2  0  0  0  0  0  0
  162.3340  213.9940  146.3060 C   0  0  0  0  0  1  0  0  0  0  0  0
  161.2160  212.9980  146.5730 C   0  0  1  0  0  3  0  0  0  0  0  0
  159.2900  214.4270  145.7900 N   0  0  0  0  0  2  0  0  0  0  0  0
  158.3940  213.5810  145.0100 C   0  0  1  0  0  3  0  0  0  0  0  0
  157.4570  213.0230  145.8510 C   0  0  0  0  0  0  0  0  0  0  0  0
  157.1600  214.1660  144.9320 O   0  0  0  0  0  0  0  0  0  0  0  0
  157.1090  212.1970  146.7330 O   0  0  0  0  0  0  0  0  0  0  0  0
  162.2490  207.9470  149.9650 C   0  0  0  0  0  2  0  0  0  0  0  0
  161.4200  207.5310  147.6360 C   0  0  0  0  0  1  0  0  0  0  0  0
  161.2010  207.2440  149.1090 C   0  0  0  0  0  2  0  0  0  0  0  0
  1  5  2  0  0  0  0
  2 12  1  0  0  0  0
  4  3  1  0  0  0  0
  5 14  1  0  0  0  0
  6  9  1  0  0  0  0
  7  2  2  0  0  0  0
  7  9  1  0  0  0  0
  8  1  2  0  0  0  0
  9  4  2  0  0  0  0
 10  5  1  0  0  0  0
 12 11  1  0  0  0  0
 12  3  2  0  0  0  0
 13 25  1  6  0  0  0
 13 10  1  0  0  0  0
 13  2  1  0  0  0  0
 14 11  2  0  0  0  0
 16 19  1  1  0  0  0
 16 18  1  0  0  0  0
 17 15  1  0  0  0  0
 17  8  1  0  0  0  0
 18 15  2  0  0  0  0
 19 17  1  0  0  0  0
 20 23  1  6  0  0  0
 20 16  1  0  0  0  0
 21 24  1  0  0  0  0
 21 23  1  0  0  0  0
 22 20  1  0  0  0  0
 24 22  1  0  0  0  0
 26 28  1  0  0  0  0
 26 27  2  0  0  0  0
 27 25  1  0  0  0  0
 29 31  1  0  0  0  0
 30 36  1  6  0  0  0
 30 32  1  0  0  0  0
 31 33  1  0  0  0  0
 31 28  1  1  0  0  0
 32 33  1  0  0  0  0
 35 34  1  1  0  0  0
 35 30  1  0  0  0  0
 35 29  1  0  0  0  0
 37 36  1  1  0  0  0
 37 38  1  0  0  0  0
 38 40  2  0  0  0  0
 39 37  1  0  0  0  0
 39 38  1  0  0  0  0
 41 27  1  0  0  0  0
 42 43  1  0  0  0  0
 43 41  1  0  0  0  0
M  END
>  <MODEL>
7

>  <REMARK>
 VINA RESULT:      -6.6      3.505      8.762
  Name = 
  10 active torsions:
  status: ('A' for Active; 'I' for Inactive)
    1  A    between atoms: C_3  and  N_7
    2  A    between atoms: C_4  and  C_24
    3  A    between atoms: C_6  and  N_28
    4  A    between atoms: C_6  and  C_35
    5  A    between atoms: N_7  and  C_9
    6  A    between atoms: C_11  and  C_12
    7  A    between atoms: C_18  and  N_27
    8  A    between atoms: C_19  and  C_24
    9  A    between atoms: N_28  and  C_41
   10  A    between atoms: C_35  and  C_40
                            x       y       z     vdW  Elec       q    Type
                         _______ _______ _______ _____ _____    ______ ____

>  <TORSDO>
F 10

$$$$
=
 OpenBabel11052411283D

 43 48  0  0  1  0  0  0  0  0999 V2000
  161.7330  207.1070  153.7180 C   0  0  0  0  0  0  0  0  0  0  0  0
  159.9300  210.9560  154.9690 C   0  0  0  0  0  0  0  0  0  0  0  0
  158.9900  210.8210  157.1700 N   0  0  0  0  0  0  0  0  0  0  0  0
  158.9120  212.1730  157.2610 C   0  0  0  0  0  3  0  0  0  0  0  0
  161.2220  208.1070  154.3800 C   0  0  0  0  0  0  0  0  0  0  0  0
  159.2690  214.4470  156.2940 C   0  0  0  0  0  1  0  0  0  0  0  0
  159.8510  212.3550  155.0610 C   0  0  0  0  0  3  0  0  0  0  0  0
  162.2400  206.1090  153.0460 C   0  0  0  0  0  3  0  0  0  0  0  0
  159.3490  212.9660  156.2060 C   0  0  0  0  0  0  0  0  0  0  0  0
  161.6580  209.4850  154.0340 C   0  0  0  0  0  2  0  0  0  0  0  0
  159.5010  208.7040  156.1260 C   0  0  0  0  0  3  0  0  0  0  0  0
  159.4930  210.1840  156.0750 C   0  0  0  0  0  0  0  0  0  0  0  0
  160.4400  210.3170  153.7040 C   0  0  2  0  0  3  0  0  0  0  0  0
  160.2090  207.8240  155.4080 C   0  0  0  0  0  3  0  0  0  0  0  0
  161.0640  204.3390  151.6590 C   0  0  0  0  0  3  0  0  0  0  0  0
  160.7650  205.4890  149.6680 C   0  0  1  0  0  3  0  0  0  0  0  0
  161.6270  205.6260  151.8480 N   0  0  0  0  0  0  0  0  0  0  0  0
  160.5700  204.2160  150.4420 C   0  0  0  0  0  3  0  0  0  0  0  0
  161.4970  206.4160  150.6420 C   0  0  0  0  0  2  0  0  0  0  0  0
  161.5810  205.2850  148.3900 C   0  0  1  0  0  3  0  0  0  0  0  0
  161.3130  206.1580  145.9980 N   0  0  0  0  0  2  0  0  0  0  0  0
  160.9360  204.3540  147.4790 N   0  0  0  0  0  2  0  0  0  0  0  0
  161.8470  206.8600  147.5280 S   0  0  0  0  0  0  0  0  0  0  0  0
  161.4050  204.7170  146.1550 C   0  0  0  0  0  2  0  0  0  0  0  0
  160.7770  211.3110  152.6890 N   0  0  0  0  0  2  0  0  0  0  0  0
  160.1790  212.2190  150.5510 C   0  0  0  0  0  3  0  0  0  0  0  0
  159.8180  211.8870  151.7910 C   0  0  0  0  0  0  0  0  0  0  0  0
  161.5570  211.9800  150.0270 C   0  0  0  0  0  2  0  0  0  0  0  0
  160.4020  213.0020  148.0700 C   0  0  0  0  0  2  0  0  0  0  0  0
  161.8710  213.7050  146.1210 C   0  0  2  0  0  3  0  0  0  0  0  0
  161.7660  212.7350  148.7270 C   0  0  2  0  0  3  0  0  0  0  0  0
  163.0150  212.7560  146.5270 C   0  0  0  0  0  2  0  0  0  0  0  0
  162.6860  211.9500  147.7890 C   0  0  0  0  0  2  0  0  0  0  0  0
  160.0190  211.9820  145.8310 C   0  0  0  0  0  1  0  0  0  0  0  0
  160.4670  213.2430  146.5540 C   0  0  1  0  0  3  0  0  0  0  0  0
  161.9460  214.1730  144.7340 N   0  0  0  0  0  2  0  0  0  0  0  0
  162.7190  213.2520  143.9080 C   0  0  1  0  0  3  0  0  0  0  0  0
  161.8760  212.6430  143.0040 C   0  0  0  0  0  0  0  0  0  0  0  0
  162.8180  213.7470  142.6360 O   0  0  0  0  0  0  0  0  0  0  0  0
  160.9830  211.8080  142.7070 O   0  0  0  0  0  0  0  0  0  0  0  0
  158.4240  212.1910  152.2550 C   0  0  0  0  0  2  0  0  0  0  0  0
  156.7470  213.9900  152.7370 C   0  0  0  0  0  1  0  0  0  0  0  0
  158.0510  213.6530  152.0390 C   0  0  0  0  0  2  0  0  0  0  0  0
  1  5  2  0  0  0  0
  2  7  2  0  0  0  0
  2 12  1  0  0  0  0
  3  4  1  0  0  0  0
  5 14  1  0  0  0  0
  7  9  1  0  0  0  0
  8  1  2  0  0  0  0
  9  6  1  0  0  0  0
  9  4  2  0  0  0  0
 10  5  1  0  0  0  0
 12 11  1  0  0  0  0
 12  3  2  0  0  0  0
 13 25  1  6  0  0  0
 13 10  1  0  0  0  0
 13  2  1  0  0  0  0
 14 11  2  0  0  0  0
 15 17  1  0  0  0  0
 16 18  1  1  0  0  0
 16 19  1  0  0  0  0
 17  8  1  0  0  0  0
 18 15  2  0  0  0  0
 19 17  1  0  0  0  0
 20 22  1  6  0  0  0
 20 16  1  0  0  0  0
 21 24  1  0  0  0  0
 21 23  1  0  0  0  0
 23 20  1  0  0  0  0
 24 22  1  0  0  0  0
 26 27  2  0  0  0  0
 27 41  1  0  0  0  0
 27 25  1  0  0  0  0
 28 26  1  0  0  0  0
 29 31  1  0  0  0  0
 30 36  1  6  0  0  0
 30 32  1  0  0  0  0
 30 35  1  0  0  0  0
 31 28  1  1  0  0  0
 32 33  1  0  0  0  0
 33 31  1  0  0  0  0
 35 34  1  6  0  0  0
 35 29  1  0  0  0  0
 37 36  1  1  0  0  0
 38 37  1  0  0  0  0
 39 38  1  0  0  0  0
 39 37  1  0  0  0  0
 40 38  2  0  0  0  0
 43 41  1  0  0  0  0
 43 42  1  0  0  0  0
M  END
>  <MODEL>
8

>  <REMARK>
 VINA RESULT:      -6.3      3.450      8.149
  Name = 
  10 active torsions:
  status: ('A' for Active; 'I' for Inactive)
    1  A    between atoms: C_3  and  N_7
    2  A    between atoms: C_4  and  C_24
    3  A    between atoms: C_6  and  N_28
    4  A    between atoms: C_6  and  C_35
    5  A    between atoms: N_7  and  C_9
    6  A    between atoms: C_11  and  C_12
    7  A    between atoms: C_18  and  N_27
    8  A    between atoms: C_19  and  C_24
    9  A    between atoms: N_28  and  C_41
   10  A    between atoms: C_35  and  C_40
                            x       y       z     vdW  Elec       q    Type
                         _______ _______ _______ _____ _____    ______ ____

>  <TORSDO>
F 10

$$$$
=
 OpenBabel11052411283D

 43 48  0  0  1  0  0  0  0  0999 V2000
  159.4150  213.9160  150.8470 C   0  0  0  0  0  0  0  0  0  0  0  0
  159.0450  213.0510  146.5180 C   0  0  0  0  0  0  0  0  0  0  0  0
  157.3010  214.3440  145.5010 N   0  0  0  0  0  0  0  0  0  0  0  0
  157.7650  214.0610  144.2570 C   0  0  0  0  0  3  0  0  0  0  0  0
  159.1420  213.9400  149.5730 C   0  0  0  0  0  0  0  0  0  0  0  0
  159.4120  212.9500  142.7450 C   0  0  0  0  0  1  0  0  0  0  0  0
  159.5270  212.7580  145.2320 C   0  0  0  0  0  3  0  0  0  0  0  0
  159.6900  213.8820  152.1230 C   0  0  0  0  0  3  0  0  0  0  0  0
  158.8940  213.2650  144.1010 C   0  0  0  0  0  0  0  0  0  0  0  0
  160.2150  213.5790  148.6100 C   0  0  0  0  0  2  0  0  0  0  0  0
  157.2690  214.2710  147.9150 C   0  0  0  0  0  3  0  0  0  0  0  0
  157.9030  213.8830  146.6340 C   0  0  0  0  0  0  0  0  0  0  0  0
  159.7230  212.4560  147.7240 C   0  0  2  0  0  3  0  0  0  0  0  0
  157.7750  214.2820  149.1540 C   0  0  0  0  0  3  0  0  0  0  0  0
  158.9500  212.6260  154.2000 C   0  0  0  0  0  3  0  0  0  0  0  0
  159.4510  210.4490  153.5810 C   0  0  1  0  0  3  0  0  0  0  0  0
  159.5020  212.6940  152.8970 N   0  0  0  0  0  0  0  0  0  0  0  0
  158.9060  211.3790  154.6280 C   0  0  0  0  0  3  0  0  0  0  0  0
  159.8610  211.3710  152.4310 C   0  0  0  0  0  2  0  0  0  0  0  0
  160.6470  209.6330  154.0800 C   0  0  1  0  0  3  0  0  0  0  0  0
  161.1670  207.1260  154.0710 N   0  0  0  0  0  2  0  0  0  0  0  0
  160.3550  208.9540  155.3320 N   0  0  0  0  0  2  0  0  0  0  0  0
  161.1540  208.4000  152.8480 S   0  0  0  0  0  0  0  0  0  0  0  0
  161.2270  207.7960  155.3590 C   0  0  0  0  0  2  0  0  0  0  0  0
  160.8390  211.5910  147.3520 N   0  0  0  0  0  2  0  0  0  0  0  0
  162.3510  210.7180  148.9950 C   0  0  0  0  0  3  0  0  0  0  0  0
  162.1060  211.5960  148.0220 C   0  0  0  0  0  0  0  0  0  0  0  0
  161.3580  209.6800  149.4060 C   0  0  0  0  0  2  0  0  0  0  0  0
  160.4630  207.3960  148.9700 C   0  0  0  0  0  2  0  0  0  0  0  0
  161.9330  205.8380  147.6060 C   0  0  2  0  0  3  0  0  0  0  0  0
  161.5570  208.4100  148.5990 C   0  0  2  0  0  3  0  0  0  0  0  0
  163.2180  206.6220  147.9330 C   0  0  0  0  0  2  0  0  0  0  0  0
  162.9520  207.8290  148.8400 C   0  0  0  0  0  2  0  0  0  0  0  0
  161.2210  205.2500  149.9790 C   0  0  0  0  0  1  0  0  0  0  0  0
  160.8310  205.9330  148.6770 C   0  0  1  0  0  3  0  0  0  0  0  0
  162.1710  204.4780  147.1120 N   0  0  0  0  0  2  0  0  0  0  0  0
  161.1500  204.0800  146.1500 C   0  0  1  0  0  3  0  0  0  0  0  0
  161.4820  204.5790  144.9100 C   0  0  0  0  0  0  0  0  0  0  0  0
  161.6640  203.1440  145.2950 O   0  0  0  0  0  0  0  0  0  0  0  0
  161.5780  205.5210  144.0820 O   0  0  0  0  0  0  0  0  0  0  0  0
  163.1410  212.6300  147.6910 C   0  0  0  0  0  2  0  0  0  0  0  0
  163.2780  212.9570  145.2090 C   0  0  0  0  0  1  0  0  0  0  0  0
  162.7260  213.5040  146.5120 C   0  0  0  0  0  2  0  0  0  0  0  0
  1  8  2  0  0  0  0
  2 12  1  0  0  0  0
  2 13  1  0  0  0  0
  3 12  2  0  0  0  0
  4  3  1  0  0  0  0
  5  1  2  0  0  0  0
  6  9  1  0  0  0  0
  7  2  2  0  0  0  0
  8 17  1  0  0  0  0
  9  4  2  0  0  0  0
  9  7  1  0  0  0  0
 10  5  1  0  0  0  0
 11 14  2  0  0  0  0
 12 11  1  0  0  0  0
 13 25  1  6  0  0  0
 13 10  1  0  0  0  0
 14  5  1  0  0  0  0
 15 18  2  0  0  0  0
 16 19  1  6  0  0  0
 16 20  1  0  0  0  0
 16 18  1  0  0  0  0
 17 15  1  0  0  0  0
 19 17  1  0  0  0  0
 20 23  1  6  0  0  0
 20 22  1  0  0  0  0
 21 24  1  0  0  0  0
 22 24  1  0  0  0  0
 23 21  1  0  0  0  0
 25 27  1  0  0  0  0
 26 28  1  0  0  0  0
 27 26  2  0  0  0  0
 30 36  1  1  0  0  0
 30 32  1  0  0  0  0
 30 35  1  0  0  0  0
 31 33  1  0  0  0  0
 31 29  1  0  0  0  0
 31 28  1  1  0  0  0
 32 33  1  0  0  0  0
 35 29  1  0  0  0  0
 35 34  1  1  0  0  0
 37 36  1  1  0  0  0
 38 39  1  0  0  0  0
 38 37  1  0  0  0  0
 39 37  1  0  0  0  0
 40 38  2  0  0  0  0
 41 27  1  0  0  0  0
 42 43  1  0  0  0  0
 43 41  1  0  0  0  0
M  END
>  <MODEL>
9

>  <REMARK>
 VINA RESULT:      -5.3      2.489      6.986
  Name = 
  10 active torsions:
  status: ('A' for Active; 'I' for Inactive)
    1  A    between atoms: C_3  and  N_7
    2  A    between atoms: C_4  and  C_24
    3  A    between atoms: C_6  and  N_28
    4  A    between atoms: C_6  and  C_35
    5  A    between atoms: N_7  and  C_9
    6  A    between atoms: C_11  and  C_12
    7  A    between atoms: C_18  and  N_27
    8  A    between atoms: C_19  and  C_24
    9  A    between atoms: N_28  and  C_41
   10  A    between atoms: C_35  and  C_40
                            x       y       z     vdW  Elec       q    Type
                         _______ _______ _______ _____ _____    ______ ____

>  <TORSDO>
F 10

$$$$
