=
 OpenBabel11052412043D

 40 41  0  0  1  0  0  0  0  0999 V2000
  161.7410  207.3500  149.4500 C   0  0  0  0  0  0  0  0  0  0  0  0
  160.5710  204.0200  148.3050 O   0  0  0  0  0  0  0  0  0  0  0  0
  160.3550  204.7250  150.5770 C   0  0  0  0  0  0  0  0  0  0  0  0
  159.7720  203.4300  151.0450 C   0  0  0  0  0  2  0  0  0  0  0  0
  161.2320  206.7170  151.8750 C   0  0  0  0  0  0  0  0  0  0  0  0
  161.2870  206.2550  148.7710 C   0  0  0  0  0  3  0  0  0  0  0  0
  163.5810  206.7350  151.0420 C   0  0  0  0  0  1  0  0  0  0  0  0
  161.3060  201.6620  150.2960 N   0  0  0  0  0  0  0  0  0  0  0  0
  160.8460  202.4000  151.2490 C   0  0  0  0  0  3  0  0  0  0  0  0
  161.1450  204.8250  149.2920 C   0  0  2  0  0  3  0  0  0  0  0  0
  161.4220  202.9170  148.1890 C   0  0  0  0  0  2  0  0  0  0  0  0
  160.8320  201.7190  148.9290 C   0  0  1  0  0  3  0  0  0  0  0  0
  162.2010  207.3600  150.9110 C   0  0  1  0  0  3  0  0  0  0  0  0
  160.6720  205.6410  151.4250 C   0  0  0  0  0  0  0  0  0  0  0  0
  160.7020  208.4000  155.8710 O   0  0  0  0  0  0  0  0  0  0  0  0
  161.1290  206.3260  154.2100 O   0  0  0  0  0  0  0  0  0  0  0  0
  160.7260  209.1310  154.8440 C   0  0  0  0  0  0  0  0  0  0  0  0
  160.8970  208.5590  153.5440 N   0  0  0  0  0  2  0  0  0  0  0  0
  160.5830  210.5510  154.9620 N   0  0  0  0  0  2  0  0  0  0  0  0
  161.0870  207.1650  153.2690 C   0  0  0  0  0  0  0  0  0  0  0  0
  161.5270  211.0760  157.0240 O   0  0  0  0  0  1  0  0  0  0  0  0
  159.2000  210.6510  156.9440 C   0  0  0  0  0  1  0  0  0  0  0  0
  160.3960  211.2600  156.2260 C   0  0  2  0  0  0  0  0  0  0  0  0
  160.3080  213.5950  157.2410 C   0  0  0  0  0  1  0  0  0  0  0  0
  160.1820  212.7650  155.9710 C   0  0  0  0  0  3  0  0  0  0  0  0
  158.8460  213.0570  155.3040 C   0  0  0  0  0  1  0  0  0  0  0  0
  161.7850  208.6710  148.7410 C   0  0  2  0  0  3  0  0  0  0  0  0
  162.9180  208.7460  147.9250 O   0  0  0  0  0  1  0  0  0  0  0  0
  161.7660  209.8230  149.7370 C   0  0  0  0  0  2  0  0  0  0  0  0
  162.3580  211.0820  149.1270 C   0  0  0  0  0  2  0  0  0  0  0  0
  161.3510  211.7540  148.2130 C   0  0  0  0  0  2  0  0  0  0  0  0
  162.8470  213.5720  147.8910 O   0  0  0  0  0  0  0  0  0  0  0  0
  162.0390  212.7670  147.3580 C   0  0  0  0  0  0  0  0  0  0  0  0
  161.8360  212.8210  145.9780 O   0  0  0  0  0  0  0  0  0  0  0  0
  160.5390  212.8010  145.4000 C   0  0  0  0  0  1  0  0  0  0  0  0
  161.1600  200.4170  148.2020 C   0  0  0  0  0  2  0  0  0  0  0  0
  161.7740  200.6580  146.8280 C   0  0  0  0  0  2  0  0  0  0  0  0
  161.0050  199.9110  145.7960 C   0  0  0  0  0  0  0  0  0  0  0  0
  160.1220  200.5880  144.9660 O   0  0  0  0  0  0  0  0  0  0  0  0
  161.1790  198.6730  145.6530 O   0  0  0  0  0  1  0  0  0  0  0  0
  1 13  1  0  0  0  0
  2 10  1  0  0  0  0
  3  4  1  0  0  0  0
  3 14  2  0  0  0  0
  4  9  1  0  0  0  0
  5 20  1  0  0  0  0
  6  1  2  0  0  0  0
  8  9  2  0  0  0  0
 10  6  1  6  0  0  0
 10  3  1  0  0  0  0
 11  2  1  0  0  0  0
 11 12  1  0  0  0  0
 12 36  1  6  0  0  0
 12  8  1  0  0  0  0
 13  7  1  6  0  0  0
 13  5  1  0  0  0  0
 14  5  2  0  0  0  0
 17 19  1  0  0  0  0
 17 15  2  0  0  0  0
 18 17  1  0  0  0  0
 19 23  1  0  0  0  0
 20 18  1  0  0  0  0
 20 16  2  0  0  0  0
 23 22  1  1  0  0  0
 23 21  1  0  0  0  0
 25 23  1  0  0  0  0
 25 24  1  0  0  0  0
 26 25  1  0  0  0  0
 27 28  1  1  0  0  0
 27  1  1  0  0  0  0
 27 29  1  0  0  0  0
 30 29  1  0  0  0  0
 31 30  1  0  0  0  0
 33 32  2  0  0  0  0
 33 31  1  0  0  0  0
 34 33  1  0  0  0  0
 35 34  1  0  0  0  0
 37 36  1  0  0  0  0
 38 37  1  0  0  0  0
 39 38  2  0  0  0  0
 40 38  1  0  0  0  0
M  END
>  <MODEL>
1

>  <REMARK>
 VINA RESULT:      -5.4      0.000      0.000
  Name = 
  12 active torsions:
  status: ('A' for Active; 'I' for Inactive)
    1  A    between atoms: C_1  and  C_25
    2  A    between atoms: C_2  and  C_12
    3  A    between atoms: C_2  and  C_38
    4  A    between atoms: C_4  and  C_12
    5  A    between atoms: C_8  and  C_37
    6  A    between atoms: O_11  and  C_33
    7  A    between atoms: C_15  and  C_23
    8  A    between atoms: C_15  and  C_33
    9  A    between atoms: C_20  and  C_29
   10  A    between atoms: C_22  and  C_23
   11  A    between atoms: C_22  and  C_25
   12  A    between atoms: C_29  and  N_35
                            x       y       z     vdW  Elec       q    Type
                         _______ _______ _______ _____ _____    ______ ____

>  <TORSDO>
F 12

$$$$
=
 OpenBabel11052412043D

 40 41  0  0  1  0  0  0  0  0999 V2000
  161.5350  208.0230  153.6380 C   0  0  0  0  0  0  0  0  0  0  0  0
  161.7160  204.6350  152.1370 O   0  0  0  0  0  0  0  0  0  0  0  0
  162.2400  206.6020  150.8880 C   0  0  0  0  0  0  0  0  0  0  0  0
  162.4870  205.8660  149.6100 C   0  0  0  0  0  2  0  0  0  0  0  0
  161.9970  209.0810  151.3560 C   0  0  0  0  0  0  0  0  0  0  0  0
  161.6440  206.6900  153.3600 C   0  0  0  0  0  3  0  0  0  0  0  0
  159.6930  209.0850  152.3050 C   0  0  0  0  0  1  0  0  0  0  0  0
  160.4990  204.4760  149.2120 N   0  0  0  0  0  0  0  0  0  0  0  0
  161.1930  205.5260  148.9280 C   0  0  0  0  0  3  0  0  0  0  0  0
  161.4320  205.9980  152.0140 C   0  0  2  0  0  3  0  0  0  0  0  0
  160.5980  203.9780  151.6140 C   0  0  0  0  0  2  0  0  0  0  0  0
  160.8930  203.4900  150.1980 C   0  0  1  0  0  3  0  0  0  0  0  0
  161.1780  209.1160  152.6260 C   0  0  1  0  0  3  0  0  0  0  0  0
  162.2260  207.8900  150.9060 C   0  0  0  0  0  0  0  0  0  0  0  0
  162.6690  212.6320  148.9020 O   0  0  0  0  0  0  0  0  0  0  0  0
  163.2870  211.0330  150.9760 O   0  0  0  0  0  0  0  0  0  0  0  0
  161.7800  211.7860  148.6120 C   0  0  0  0  0  0  0  0  0  0  0  0
  161.5740  210.6320  149.4320 N   0  0  0  0  0  2  0  0  0  0  0  0
  160.9590  211.9680  147.4530 N   0  0  0  0  0  2  0  0  0  0  0  0
  162.3350  210.2960  150.5980 C   0  0  0  0  0  0  0  0  0  0  0  0
  162.2840  213.0390  145.8670 O   0  0  0  0  0  1  0  0  0  0  0  0
  161.0320  214.3840  147.3590 C   0  0  0  0  0  1  0  0  0  0  0  0
  161.0610  213.1030  146.5380 C   0  0  2  0  0  0  0  0  0  0  0  0
  158.6140  212.5340  146.1120 C   0  0  0  0  0  1  0  0  0  0  0  0
  159.9070  213.0730  145.5150 C   0  0  0  0  0  3  0  0  0  0  0  0
  160.2600  212.2810  144.2650 C   0  0  0  0  0  1  0  0  0  0  0  0
  161.8000  208.4910  155.0390 C   0  0  2  0  0  3  0  0  0  0  0  0
  160.9540  207.8360  155.9380 O   0  0  0  0  0  1  0  0  0  0  0  0
  161.6310  210.0010  155.1480 C   0  0  0  0  0  2  0  0  0  0  0  0
  160.4230  210.3550  155.9990 C   0  0  0  0  0  2  0  0  0  0  0  0
  159.9350  211.7540  155.6730 C   0  0  0  0  0  2  0  0  0  0  0  0
  158.4640  211.9780  153.8200 O   0  0  0  0  0  0  0  0  0  0  0  0
  158.5850  211.6850  155.0380 C   0  0  0  0  0  0  0  0  0  0  0  0
  157.4600  211.2680  155.7520 O   0  0  0  0  0  0  0  0  0  0  0  0
  156.4520  212.1730  156.1780 C   0  0  0  0  0  1  0  0  0  0  0  0
  160.1910  202.1620  149.9250 C   0  0  0  0  0  2  0  0  0  0  0  0
  161.1640  201.0650  149.5090 C   0  0  0  0  0  2  0  0  0  0  0  0
  161.1350  200.9030  148.0310 C   0  0  0  0  0  0  0  0  0  0  0  0
  160.6690  201.9360  147.2290 O   0  0  0  0  0  0  0  0  0  0  0  0
  161.5650  199.8440  147.5040 O   0  0  0  0  0  1  0  0  0  0  0  0
  1 27  1  0  0  0  0
  3 14  2  0  0  0  0
  3 10  1  0  0  0  0
  4  3  1  0  0  0  0
  5 13  1  0  0  0  0
  6  1  2  0  0  0  0
  8 12  1  0  0  0  0
  9  8  2  0  0  0  0
  9  4  1  0  0  0  0
 10  2  1  0  0  0  0
 10  6  1  1  0  0  0
 11  2  1  0  0  0  0
 12 36  1  6  0  0  0
 12 11  1  0  0  0  0
 13  7  1  6  0  0  0
 13  1  1  0  0  0  0
 14  5  2  0  0  0  0
 17 15  2  0  0  0  0
 17 18  1  0  0  0  0
 18 20  1  0  0  0  0
 19 17  1  0  0  0  0
 20 16  2  0  0  0  0
 20  5  1  0  0  0  0
 21 23  1  0  0  0  0
 23 22  1  1  0  0  0
 23 19  1  0  0  0  0
 25 24  1  0  0  0  0
 25 23  1  0  0  0  0
 26 25  1  0  0  0  0
 27 29  1  0  0  0  0
 27 28  1  1  0  0  0
 29 30  1  0  0  0  0
 31 30  1  0  0  0  0
 32 33  2  0  0  0  0
 33 31  1  0  0  0  0
 33 34  1  0  0  0  0
 34 35  1  0  0  0  0
 37 36  1  0  0  0  0
 38 37  1  0  0  0  0
 39 38  2  0  0  0  0
 40 38  1  0  0  0  0
M  END
>  <MODEL>
2

>  <REMARK>
 VINA RESULT:      -4.7      2.277      6.679
  Name = 
  12 active torsions:
  status: ('A' for Active; 'I' for Inactive)
    1  A    between atoms: C_1  and  C_25
    2  A    between atoms: C_2  and  C_12
    3  A    between atoms: C_2  and  C_38
    4  A    between atoms: C_4  and  C_12
    5  A    between atoms: C_8  and  C_37
    6  A    between atoms: O_11  and  C_33
    7  A    between atoms: C_15  and  C_23
    8  A    between atoms: C_15  and  C_33
    9  A    between atoms: C_20  and  C_29
   10  A    between atoms: C_22  and  C_23
   11  A    between atoms: C_22  and  C_25
   12  A    between atoms: C_29  and  N_35
                            x       y       z     vdW  Elec       q    Type
                         _______ _______ _______ _____ _____    ______ ____

>  <TORSDO>
F 12

$$$$
=
 OpenBabel11052412043D

 40 41  0  0  1  0  0  0  0  0999 V2000
  161.4190  205.1300  150.4090 C   0  0  0  0  0  0  0  0  0  0  0  0
  161.5770  202.5140  147.7830 O   0  0  0  0  0  0  0  0  0  0  0  0
  162.2390  204.7700  147.3630 C   0  0  0  0  0  0  0  0  0  0  0  0
  162.5360  204.5360  145.9160 C   0  0  0  0  0  2  0  0  0  0  0  0
  162.0510  206.9190  148.6940 C   0  0  0  0  0  0  0  0  0  0  0  0
  161.5010  203.9860  149.6680 C   0  0  0  0  0  3  0  0  0  0  0  0
  159.6960  206.6990  149.4780 C   0  0  0  0  0  1  0  0  0  0  0  0
  160.5310  203.4920  144.9520 N   0  0  0  0  0  0  0  0  0  0  0  0
  161.2740  204.5360  145.1020 C   0  0  0  0  0  3  0  0  0  0  0  0
  161.3460  203.8410  148.1540 C   0  0  2  0  0  3  0  0  0  0  0  0
  160.4700  202.1520  147.0080 C   0  0  0  0  0  2  0  0  0  0  0  0
  160.8320  202.1960  145.5260 C   0  0  1  0  0  3  0  0  0  0  0  0
  161.1600  206.5330  149.8520 C   0  0  1  0  0  3  0  0  0  0  0  0
  162.2670  205.9630  147.8500 C   0  0  0  0  0  0  0  0  0  0  0  0
  162.9720  211.1520  148.1390 O   0  0  0  0  0  0  0  0  0  0  0  0
  163.6390  208.5480  148.0280 O   0  0  0  0  0  0  0  0  0  0  0  0
  161.8300  210.7680  148.5100 C   0  0  0  0  0  0  0  0  0  0  0  0
  161.5510  209.3760  148.6900 N   0  0  0  0  0  2  0  0  0  0  0  0
  160.7910  211.7200  148.7590 N   0  0  0  0  0  2  0  0  0  0  0  0
  162.4740  208.3070  148.4480 C   0  0  0  0  0  0  0  0  0  0  0  0
  162.3060  213.4830  148.6300 O   0  0  0  0  0  1  0  0  0  0  0  0
  160.2910  213.8350  149.8210 C   0  0  0  0  0  1  0  0  0  0  0  0
  160.9450  213.1670  148.6200 C   0  0  2  0  0  0  0  0  0  0  0  0
  159.1030  212.8160  146.8950 C   0  0  0  0  0  1  0  0  0  0  0  0
  160.3100  213.6510  147.3020 C   0  0  0  0  0  3  0  0  0  0  0  0
  161.3100  213.6900  146.1550 C   0  0  0  0  0  1  0  0  0  0  0  0
  161.6170  205.0430  151.8940 C   0  0  2  0  0  3  0  0  0  0  0  0
  160.6820  204.1700  152.4570 O   0  0  0  0  0  1  0  0  0  0  0  0
  161.5180  206.4210  152.5370 C   0  0  0  0  0  2  0  0  0  0  0  0
  161.3060  206.3090  154.0370 C   0  0  0  0  0  2  0  0  0  0  0  0
  160.3980  207.4210  154.5290 C   0  0  0  0  0  2  0  0  0  0  0  0
  161.9260  207.8260  156.3040 O   0  0  0  0  0  0  0  0  0  0  0  0
  161.1570  208.3270  155.4430 C   0  0  0  0  0  0  0  0  0  0  0  0
  161.0610  209.7160  155.3430 O   0  0  0  0  0  0  0  0  0  0  0  0
  160.0560  210.3550  154.5700 C   0  0  0  0  0  1  0  0  0  0  0  0
  160.1040  201.0970  144.7570 C   0  0  0  0  0  2  0  0  0  0  0  0
  159.9010  199.8400  145.5930 C   0  0  0  0  0  2  0  0  0  0  0  0
  161.1950  199.1180  145.7370 C   0  0  0  0  0  0  0  0  0  0  0  0
  161.9770  199.3180  146.8670 O   0  0  0  0  0  1  0  0  0  0  0  0
  161.5640  198.3020  144.8540 O   0  0  0  0  0  0  0  0  0  0  0  0
  1 27  1  0  0  0  0
  2 10  1  0  0  0  0
  3 14  2  0  0  0  0
  3 10  1  0  0  0  0
  4  3  1  0  0  0  0
  5 13  1  0  0  0  0
  6  1  2  0  0  0  0
  8  9  2  0  0  0  0
  8 12  1  0  0  0  0
  9  4  1  0  0  0  0
 10  6  1  1  0  0  0
 11  2  1  0  0  0  0
 12 36  1  6  0  0  0
 12 11  1  0  0  0  0
 13  7  1  6  0  0  0
 13  1  1  0  0  0  0
 14  5  2  0  0  0  0
 15 17  2  0  0  0  0
 16 20  2  0  0  0  0
 17 18  1  0  0  0  0
 17 19  1  0  0  0  0
 20 18  1  0  0  0  0
 20  5  1  0  0  0  0
 23 21  1  0  0  0  0
 23 19  1  0  0  0  0
 23 22  1  1  0  0  0
 24 25  1  0  0  0  0
 25 23  1  0  0  0  0
 26 25  1  0  0  0  0
 27 28  1  1  0  0  0
 27 29  1  0  0  0  0
 29 30  1  0  0  0  0
 30 31  1  0  0  0  0
 31 33  1  0  0  0  0
 33 32  2  0  0  0  0
 34 33  1  0  0  0  0
 35 34  1  0  0  0  0
 36 37  1  0  0  0  0
 37 38  1  0  0  0  0
 38 39  1  0  0  0  0
 40 38  2  0  0  0  0
M  END
>  <MODEL>
3

>  <REMARK>
 VINA RESULT:      -4.7      2.399      6.207
  Name = 
  12 active torsions:
  status: ('A' for Active; 'I' for Inactive)
    1  A    between atoms: C_1  and  C_25
    2  A    between atoms: C_2  and  C_12
    3  A    between atoms: C_2  and  C_38
    4  A    between atoms: C_4  and  C_12
    5  A    between atoms: C_8  and  C_37
    6  A    between atoms: O_11  and  C_33
    7  A    between atoms: C_15  and  C_23
    8  A    between atoms: C_15  and  C_33
    9  A    between atoms: C_20  and  C_29
   10  A    between atoms: C_22  and  C_23
   11  A    between atoms: C_22  and  C_25
   12  A    between atoms: C_29  and  N_35
                            x       y       z     vdW  Elec       q    Type
                         _______ _______ _______ _____ _____    ______ ____

>  <TORSDO>
F 12

$$$$
=
 OpenBabel11052412043D

 40 41  0  0  1  0  0  0  0  0999 V2000
  161.5350  208.7320  151.9720 C   0  0  0  0  0  0  0  0  0  0  0  0
  159.0120  210.2030  154.2610 O   0  0  0  0  0  0  0  0  0  0  0  0
  159.6610  211.2820  152.2310 C   0  0  0  0  0  0  0  0  0  0  0  0
  158.8040  212.4850  152.4610 C   0  0  0  0  0  2  0  0  0  0  0  0
  161.4900  210.8450  150.5320 C   0  0  0  0  0  0  0  0  0  0  0  0
  160.5640  208.9980  152.8950 C   0  0  0  0  0  3  0  0  0  0  0  0
  163.3890  210.4190  152.0890 C   0  0  0  0  0  1  0  0  0  0  0  0
  159.3650  213.3240  154.7020 N   0  0  0  0  0  0  0  0  0  0  0  0
  159.4600  213.4370  153.4200 C   0  0  0  0  0  3  0  0  0  0  0  0
  160.0700  210.3660  153.3630 C   0  0  2  0  0  3  0  0  0  0  0  0
  159.3590  210.9650  155.3810 C   0  0  0  0  0  2  0  0  0  0  0  0
  158.6010  212.2900  155.3680 C   0  0  1  0  0  3  0  0  0  0  0  0
  162.3350  209.7830  151.1970 C   0  0  1  0  0  3  0  0  0  0  0  0
  160.4900  211.2510  151.2460 C   0  0  0  0  0  0  0  0  0  0  0  0
  162.2720  212.8480  146.7300 O   0  0  0  0  0  0  0  0  0  0  0  0
  163.1000  211.7110  149.0240 O   0  0  0  0  0  0  0  0  0  0  0  0
  161.1040  212.5310  147.0810 C   0  0  0  0  0  0  0  0  0  0  0  0
  160.8690  211.8790  148.3330 N   0  0  0  0  0  2  0  0  0  0  0  0
  159.9880  212.8200  146.2320 N   0  0  0  0  0  2  0  0  0  0  0  0
  161.8820  211.4950  149.2710 C   0  0  0  0  0  0  0  0  0  0  0  0
  161.0960  214.4510  144.9950 O   0  0  0  0  0  1  0  0  0  0  0  0
  158.7680  214.1910  144.6550 C   0  0  0  0  0  1  0  0  0  0  0  0
  160.0880  213.4860  144.9350 C   0  0  2  0  0  0  0  0  0  0  0  0
  161.8390  212.6050  143.3070 C   0  0  0  0  0  1  0  0  0  0  0  0
  160.4160  212.4620  143.8290 C   0  0  0  0  0  3  0  0  0  0  0  0
  159.4380  212.5310  142.6660 C   0  0  0  0  0  1  0  0  0  0  0  0
  161.8540  207.3010  151.6530 C   0  0  2  0  0  3  0  0  0  0  0  0
  163.0320  207.2220  150.9050 O   0  0  0  0  0  1  0  0  0  0  0  0
  160.7010  206.6410  150.9080 C   0  0  0  0  0  2  0  0  0  0  0  0
  161.2090  205.5820  149.9450 C   0  0  0  0  0  2  0  0  0  0  0  0
  160.7530  205.8880  148.5300 C   0  0  0  0  0  2  0  0  0  0  0  0
  161.3830  203.6550  148.0110 O   0  0  0  0  0  0  0  0  0  0  0  0
  161.2600  204.8370  147.5960 C   0  0  0  0  0  0  0  0  0  0  0  0
  161.5690  205.1280  146.2660 O   0  0  0  0  0  0  0  0  0  0  0  0
  162.7400  204.6340  145.6320 C   0  0  0  0  0  1  0  0  0  0  0  0
  158.2480  212.7260  156.7870 C   0  0  0  0  0  2  0  0  0  0  0  0
  156.9980  213.5970  156.8340 C   0  0  0  0  0  2  0  0  0  0  0  0
  155.8660  212.8870  156.1790 C   0  0  0  0  0  0  0  0  0  0  0  0
  155.3400  211.7400  156.7590 O   0  0  0  0  0  1  0  0  0  0  0  0
  155.3630  213.3430  155.1200 O   0  0  0  0  0  0  0  0  0  0  0  0
  1  6  2  0  0  0  0
  2 11  1  0  0  0  0
  3  4  1  0  0  0  0
  3 10  1  0  0  0  0
  4  9  1  0  0  0  0
  5 13  1  0  0  0  0
  5 14  2  0  0  0  0
  8 12  1  0  0  0  0
  9  8  2  0  0  0  0
 10  6  1  6  0  0  0
 10  2  1  0  0  0  0
 12 11  1  0  0  0  0
 12 36  1  1  0  0  0
 13  1  1  0  0  0  0
 13  7  1  1  0  0  0
 14  3  2  0  0  0  0
 15 17  2  0  0  0  0
 16 20  2  0  0  0  0
 17 18  1  0  0  0  0
 18 20  1  0  0  0  0
 19 17  1  0  0  0  0
 20  5  1  0  0  0  0
 23 22  1  6  0  0  0
 23 21  1  0  0  0  0
 23 19  1  0  0  0  0
 24 25  1  0  0  0  0
 25 23  1  0  0  0  0
 26 25  1  0  0  0  0
 27 28  1  6  0  0  0
 27  1  1  0  0  0  0
 29 27  1  0  0  0  0
 30 29  1  0  0  0  0
 31 30  1  0  0  0  0
 33 32  2  0  0  0  0
 33 31  1  0  0  0  0
 34 33  1  0  0  0  0
 35 34  1  0  0  0  0
 36 37  1  0  0  0  0
 38 39  1  0  0  0  0
 38 37  1  0  0  0  0
 40 38  2  0  0  0  0
M  END
>  <MODEL>
4

>  <REMARK>
 VINA RESULT:      -4.6      3.136     10.156
  Name = 
  12 active torsions:
  status: ('A' for Active; 'I' for Inactive)
    1  A    between atoms: C_1  and  C_25
    2  A    between atoms: C_2  and  C_12
    3  A    between atoms: C_2  and  C_38
    4  A    between atoms: C_4  and  C_12
    5  A    between atoms: C_8  and  C_37
    6  A    between atoms: O_11  and  C_33
    7  A    between atoms: C_15  and  C_23
    8  A    between atoms: C_15  and  C_33
    9  A    between atoms: C_20  and  C_29
   10  A    between atoms: C_22  and  C_23
   11  A    between atoms: C_22  and  C_25
   12  A    between atoms: C_29  and  N_35
                            x       y       z     vdW  Elec       q    Type
                         _______ _______ _______ _____ _____    ______ ____

>  <TORSDO>
F 12

$$$$
=
 OpenBabel11052412043D

 40 41  0  0  1  0  0  0  0  0999 V2000
  161.9500  210.3950  149.5860 C   0  0  0  0  0  0  0  0  0  0  0  0
  161.3790  207.3190  147.5900 O   0  0  0  0  0  0  0  0  0  0  0  0
  160.6370  207.5160  149.8510 C   0  0  0  0  0  0  0  0  0  0  0  0
  160.1040  206.1210  149.9200 C   0  0  0  0  0  2  0  0  0  0  0  0
  161.0250  209.2380  151.6710 C   0  0  0  0  0  0  0  0  0  0  0  0
  161.7560  209.4430  148.6250 C   0  0  0  0  0  3  0  0  0  0  0  0
  163.4800  209.5650  151.3930 C   0  0  0  0  0  1  0  0  0  0  0  0
  161.9290  204.6410  149.1990 N   0  0  0  0  0  0  0  0  0  0  0  0
  161.2120  205.1340  150.1520 C   0  0  0  0  0  3  0  0  0  0  0  0
  161.6570  207.9300  148.8150 C   0  0  2  0  0  3  0  0  0  0  0  0
  162.3440  206.3160  147.4530 C   0  0  0  0  0  2  0  0  0  0  0  0
  161.7400  204.9570  147.7990 C   0  0  1  0  0  3  0  0  0  0  0  0
  162.1000  210.1240  151.0860 C   0  0  1  0  0  3  0  0  0  0  0  0
  160.6800  208.2500  150.9090 C   0  0  0  0  0  0  0  0  0  0  0  0
  159.4120  209.9430  155.6680 O   0  0  0  0  0  0  0  0  0  0  0  0
  160.8310  208.4830  153.9090 O   0  0  0  0  0  0  0  0  0  0  0  0
  159.2500  210.7750  154.7340 C   0  0  0  0  0  0  0  0  0  0  0  0
  159.7840  210.5220  153.4310 N   0  0  0  0  0  2  0  0  0  0  0  0
  158.5280  211.9890  154.9630 N   0  0  0  0  0  2  0  0  0  0  0  0
  160.5550  209.3730  153.0590 C   0  0  0  0  0  0  0  0  0  0  0  0
  158.8590  212.1580  157.2610 O   0  0  0  0  0  1  0  0  0  0  0  0
  156.7320  211.4580  156.4940 C   0  0  0  0  0  1  0  0  0  0  0  0
  157.9280  212.3650  156.2410 C   0  0  2  0  0  0  0  0  0  0  0  0
  156.1350  214.0710  156.8480 C   0  0  0  0  0  1  0  0  0  0  0  0
  157.5040  213.8480  156.2200 C   0  0  0  0  0  3  0  0  0  0  0  0
  157.5220  214.4370  154.8180 C   0  0  0  0  0  1  0  0  0  0  0  0
  162.0040  211.8360  149.1730 C   0  0  2  0  0  3  0  0  0  0  0  0
  160.9470  212.5460  149.7500 O   0  0  0  0  0  1  0  0  0  0  0  0
  161.9710  211.9670  147.6550 C   0  0  0  0  0  2  0  0  0  0  0  0
  161.4510  213.3320  147.2370 C   0  0  0  0  0  2  0  0  0  0  0  0
  161.8860  213.6550  145.8200 C   0  0  0  0  0  2  0  0  0  0  0  0
  159.6560  213.5190  145.0080 O   0  0  0  0  0  0  0  0  0  0  0  0
  160.8560  213.1720  144.8510 C   0  0  0  0  0  0  0  0  0  0  0  0
  161.1960  212.3740  143.7580 O   0  0  0  0  0  0  0  0  0  0  0  0
  162.3290  212.6410  142.9440 C   0  0  0  0  0  1  0  0  0  0  0  0
  162.3380  203.8590  146.9240 C   0  0  0  0  0  2  0  0  0  0  0  0
  161.4630  203.5330  145.7200 C   0  0  0  0  0  2  0  0  0  0  0  0
  160.8260  202.2020  145.9080 C   0  0  0  0  0  0  0  0  0  0  0  0
  160.0700  201.6450  144.8840 O   0  0  0  0  0  0  0  0  0  0  0  0
  160.9990  201.5650  146.9790 O   0  0  0  0  0  1  0  0  0  0  0  0
  1 13  1  0  0  0  0
  2 10  1  0  0  0  0
  3  4  1  0  0  0  0
  3 14  2  0  0  0  0
  4  9  1  0  0  0  0
  5 20  1  0  0  0  0
  6  1  2  0  0  0  0
  8  9  2  0  0  0  0
 10  6  1  6  0  0  0
 10  3  1  0  0  0  0
 11  2  1  0  0  0  0
 11 12  1  0  0  0  0
 12 36  1  6  0  0  0
 12  8  1  0  0  0  0
 13  7  1  6  0  0  0
 13  5  1  0  0  0  0
 14  5  2  0  0  0  0
 17 19  1  0  0  0  0
 17 15  2  0  0  0  0
 18 17  1  0  0  0  0
 19 23  1  0  0  0  0
 20 18  1  0  0  0  0
 20 16  2  0  0  0  0
 23 22  1  1  0  0  0
 23 21  1  0  0  0  0
 25 23  1  0  0  0  0
 25 24  1  0  0  0  0
 26 25  1  0  0  0  0
 27  1  1  0  0  0  0
 27 28  1  1  0  0  0
 29 27  1  0  0  0  0
 30 29  1  0  0  0  0
 31 30  1  0  0  0  0
 33 32  2  0  0  0  0
 33 31  1  0  0  0  0
 34 33  1  0  0  0  0
 35 34  1  0  0  0  0
 37 38  1  0  0  0  0
 37 36  1  0  0  0  0
 38 40  1  0  0  0  0
 39 38  2  0  0  0  0
M  END
>  <MODEL>
5

>  <REMARK>
 VINA RESULT:      -4.2      2.100      2.993
  Name = 
  12 active torsions:
  status: ('A' for Active; 'I' for Inactive)
    1  A    between atoms: C_1  and  C_25
    2  A    between atoms: C_2  and  C_12
    3  A    between atoms: C_2  and  C_38
    4  A    between atoms: C_4  and  C_12
    5  A    between atoms: C_8  and  C_37
    6  A    between atoms: O_11  and  C_33
    7  A    between atoms: C_15  and  C_23
    8  A    between atoms: C_15  and  C_33
    9  A    between atoms: C_20  and  C_29
   10  A    between atoms: C_22  and  C_23
   11  A    between atoms: C_22  and  C_25
   12  A    between atoms: C_29  and  N_35
                            x       y       z     vdW  Elec       q    Type
                         _______ _______ _______ _____ _____    ______ ____

>  <TORSDO>
F 12

$$$$
=
 OpenBabel11052412043D

 40 41  0  0  1  0  0  0  0  0999 V2000
  161.8260  209.8980  149.3510 C   0  0  0  0  0  0  0  0  0  0  0  0
  161.1580  206.7900  147.4360 O   0  0  0  0  0  0  0  0  0  0  0  0
  160.5450  207.0180  149.7330 C   0  0  0  0  0  0  0  0  0  0  0  0
  160.0250  205.6210  149.8530 C   0  0  0  0  0  2  0  0  0  0  0  0
  161.0290  208.7670  151.5020 C   0  0  0  0  0  0  0  0  0  0  0  0
  161.5820  208.9310  148.4160 C   0  0  0  0  0  3  0  0  0  0  0  0
  163.4620  209.1010  151.0790 C   0  0  0  0  0  1  0  0  0  0  0  0
  161.8140  204.1390  149.0480 N   0  0  0  0  0  0  0  0  0  0  0  0
  161.1500  204.6420  150.0340 C   0  0  0  0  0  3  0  0  0  0  0  0
  161.5020  207.4210  148.6340 C   0  0  2  0  0  3  0  0  0  0  0  0
  162.1180  205.7900  147.2570 C   0  0  0  0  0  2  0  0  0  0  0  0
  161.5420  204.4340  147.6570 C   0  0  1  0  0  3  0  0  0  0  0  0
  162.0640  209.6490  150.8440 C   0  0  1  0  0  3  0  0  0  0  0  0
  160.6460  207.7670  150.7760 C   0  0  0  0  0  0  0  0  0  0  0  0
  159.6870  209.5530  155.5840 O   0  0  0  0  0  0  0  0  0  0  0  0
  160.8410  207.9810  153.7300 O   0  0  0  0  0  0  0  0  0  0  0  0
  159.5880  210.4230  154.6770 C   0  0  0  0  0  0  0  0  0  0  0  0
  160.0300  210.1440  153.3450 N   0  0  0  0  0  2  0  0  0  0  0  0
  159.0300  211.7100  154.9640 N   0  0  0  0  0  2  0  0  0  0  0  0
  160.6390  208.9200  152.9130 C   0  0  0  0  0  0  0  0  0  0  0  0
  159.4070  211.6480  157.2610 O   0  0  0  0  0  1  0  0  0  0  0  0
  157.1730  211.4800  156.4970 C   0  0  0  0  0  1  0  0  0  0  0  0
  158.5360  212.1210  156.2770 C   0  0  2  0  0  0  0  0  0  0  0  0
  157.0520  214.1410  156.7370 C   0  0  0  0  0  1  0  0  0  0  0  0
  158.4460  213.6580  156.3600 C   0  0  0  0  0  3  0  0  0  0  0  0
  158.8880  214.3360  155.0710 C   0  0  0  0  0  1  0  0  0  0  0  0
  161.8480  211.3330  148.9150 C   0  0  2  0  0  3  0  0  0  0  0  0
  161.2180  212.1390  149.8670 O   0  0  0  0  0  1  0  0  0  0  0  0
  161.1860  211.4970  147.5530 C   0  0  0  0  0  2  0  0  0  0  0  0
  160.9950  212.9650  147.2120 C   0  0  0  0  0  2  0  0  0  0  0  0
  162.2930  213.5670  146.7070 C   0  0  0  0  0  2  0  0  0  0  0  0
  163.4750  212.9880  144.7280 O   0  0  0  0  0  0  0  0  0  0  0  0
  162.3920  213.3900  145.2270 C   0  0  0  0  0  0  0  0  0  0  0  0
  161.3020  213.6250  144.3870 O   0  0  0  0  0  0  0  0  0  0  0  0
  160.7710  212.6250  143.5320 C   0  0  0  0  0  1  0  0  0  0  0  0
  162.0950  203.3260  146.7650 C   0  0  0  0  0  2  0  0  0  0  0  0
  161.2050  203.0530  145.5580 C   0  0  0  0  0  2  0  0  0  0  0  0
  160.6240  201.6870  145.6610 C   0  0  0  0  0  0  0  0  0  0  0  0
  161.0670  200.8180  146.6490 O   0  0  0  0  0  1  0  0  0  0  0  0
  159.7070  201.3310  144.8760 O   0  0  0  0  0  0  0  0  0  0  0  0
  1 13  1  0  0  0  0
  2 10  1  0  0  0  0
  3  4  1  0  0  0  0
  3 14  2  0  0  0  0
  4  9  1  0  0  0  0
  5 20  1  0  0  0  0
  6  1  2  0  0  0  0
  8  9  2  0  0  0  0
 10  6  1  6  0  0  0
 10  3  1  0  0  0  0
 11  2  1  0  0  0  0
 11 12  1  0  0  0  0
 12 36  1  6  0  0  0
 12  8  1  0  0  0  0
 13  7  1  6  0  0  0
 13  5  1  0  0  0  0
 14  5  2  0  0  0  0
 17 19  1  0  0  0  0
 17 15  2  0  0  0  0
 18 17  1  0  0  0  0
 19 23  1  0  0  0  0
 20 18  1  0  0  0  0
 20 16  2  0  0  0  0
 23 25  1  0  0  0  0
 23 22  1  1  0  0  0
 23 21  1  0  0  0  0
 25 24  1  0  0  0  0
 26 25  1  0  0  0  0
 27  1  1  0  0  0  0
 27 28  1  1  0  0  0
 29 27  1  0  0  0  0
 30 29  1  0  0  0  0
 31 30  1  0  0  0  0
 32 33  2  0  0  0  0
 33 31  1  0  0  0  0
 34 33  1  0  0  0  0
 35 34  1  0  0  0  0
 37 38  1  0  0  0  0
 37 36  1  0  0  0  0
 38 39  1  0  0  0  0
 40 38  2  0  0  0  0
M  END
>  <MODEL>
6

>  <REMARK>
 VINA RESULT:      -4.1      1.888      2.517
  Name = 
  12 active torsions:
  status: ('A' for Active; 'I' for Inactive)
    1  A    between atoms: C_1  and  C_25
    2  A    between atoms: C_2  and  C_12
    3  A    between atoms: C_2  and  C_38
    4  A    between atoms: C_4  and  C_12
    5  A    between atoms: C_8  and  C_37
    6  A    between atoms: O_11  and  C_33
    7  A    between atoms: C_15  and  C_23
    8  A    between atoms: C_15  and  C_33
    9  A    between atoms: C_20  and  C_29
   10  A    between atoms: C_22  and  C_23
   11  A    between atoms: C_22  and  C_25
   12  A    between atoms: C_29  and  N_35
                            x       y       z     vdW  Elec       q    Type
                         _______ _______ _______ _____ _____    ______ ____

>  <TORSDO>
F 12

$$$$
=
 OpenBabel11052412043D

 40 41  0  0  1  0  0  0  0  0999 V2000
  161.8900  210.3160  149.4830 C   0  0  0  0  0  0  0  0  0  0  0  0
  161.3040  207.0830  147.7600 O   0  0  0  0  0  0  0  0  0  0  0  0
  160.6000  207.4630  150.0100 C   0  0  0  0  0  0  0  0  0  0  0  0
  160.0780  206.0750  150.2040 C   0  0  0  0  0  2  0  0  0  0  0  0
  161.0100  209.3320  151.6730 C   0  0  0  0  0  0  0  0  0  0  0  0
  161.6850  209.2870  148.6070 C   0  0  0  0  0  3  0  0  0  0  0  0
  163.4570  209.6480  151.3240 C   0  0  0  0  0  1  0  0  0  0  0  0
  161.9000  204.5510  149.5750 N   0  0  0  0  0  0  0  0  0  0  0  0
  161.1970  205.1170  150.4960 C   0  0  0  0  0  3  0  0  0  0  0  0
  161.5990  207.7950  148.9250 C   0  0  2  0  0  3  0  0  0  0  0  0
  162.2720  206.0770  147.6880 C   0  0  0  0  0  2  0  0  0  0  0  0
  161.6830  204.7480  148.1560 C   0  0  1  0  0  3  0  0  0  0  0  0
  162.0680  210.1720  150.9970 C   0  0  1  0  0  3  0  0  0  0  0  0
  160.6580  208.2830  151.0020 C   0  0  0  0  0  0  0  0  0  0  0  0
  159.4100  210.3040  155.6200 O   0  0  0  0  0  0  0  0  0  0  0  0
  161.0290  208.8890  154.0010 O   0  0  0  0  0  0  0  0  0  0  0  0
  159.0650  210.9460  154.5910 C   0  0  0  0  0  0  0  0  0  0  0  0
  159.5990  210.6080  153.3060 N   0  0  0  0  0  2  0  0  0  0  0  0
  158.1320  212.0270  154.6900 N   0  0  0  0  0  2  0  0  0  0  0  0
  160.5640  209.5790  153.0530 C   0  0  0  0  0  0  0  0  0  0  0  0
  158.4700  212.4720  156.9500 O   0  0  0  0  0  1  0  0  0  0  0  0
  156.4240  211.4680  156.3100 C   0  0  0  0  0  1  0  0  0  0  0  0
  157.5090  212.4680  155.9360 C   0  0  2  0  0  0  0  0  0  0  0  0
  155.9930  214.2670  156.9140 C   0  0  0  0  0  1  0  0  0  0  0  0
  156.9240  213.8850  155.7720 C   0  0  0  0  0  3  0  0  0  0  0  0
  156.2010  214.0640  154.4450 C   0  0  0  0  0  1  0  0  0  0  0  0
  161.9260  211.7190  148.9510 C   0  0  2  0  0  3  0  0  0  0  0  0
  161.1960  212.5720  149.7820 O   0  0  0  0  0  1  0  0  0  0  0  0
  161.3920  211.7730  147.5250 C   0  0  0  0  0  2  0  0  0  0  0  0
  160.3930  212.9060  147.3590 C   0  0  0  0  0  2  0  0  0  0  0  0
  159.4160  212.5940  146.2410 C   0  0  0  0  0  2  0  0  0  0  0  0
  157.0810  212.2060  146.0310 O   0  0  0  0  0  0  0  0  0  0  0  0
  158.0210  212.5830  146.7770 C   0  0  0  0  0  0  0  0  0  0  0  0
  157.7400  212.9490  148.0950 O   0  0  0  0  0  0  0  0  0  0  0  0
  157.0510  214.1460  148.4210 C   0  0  0  0  0  1  0  0  0  0  0  0
  162.2730  203.5850  147.3650 C   0  0  0  0  0  2  0  0  0  0  0  0
  161.2050  202.6200  146.8650 C   0  0  0  0  0  2  0  0  0  0  0  0
  160.9770  201.5540  147.8780 C   0  0  0  0  0  0  0  0  0  0  0  0
  160.0660  201.7580  148.9060 O   0  0  0  0  0  1  0  0  0  0  0  0
  161.5830  200.4550  147.7850 O   0  0  0  0  0  0  0  0  0  0  0  0
  1 13  1  0  0  0  0
  2 10  1  0  0  0  0
  3  4  1  0  0  0  0
  3 14  2  0  0  0  0
  4  9  1  0  0  0  0
  5 20  1  0  0  0  0
  6  1  2  0  0  0  0
  8  9  2  0  0  0  0
 10  6  1  6  0  0  0
 10  3  1  0  0  0  0
 11  2  1  0  0  0  0
 11 12  1  0  0  0  0
 12 36  1  6  0  0  0
 12  8  1  0  0  0  0
 13  7  1  6  0  0  0
 13  5  1  0  0  0  0
 14  5  2  0  0  0  0
 17 19  1  0  0  0  0
 17 15  2  0  0  0  0
 18 17  1  0  0  0  0
 19 23  1  0  0  0  0
 20 18  1  0  0  0  0
 20 16  2  0  0  0  0
 23 22  1  1  0  0  0
 23 21  1  0  0  0  0
 25 23  1  0  0  0  0
 25 24  1  0  0  0  0
 26 25  1  0  0  0  0
 27  1  1  0  0  0  0
 27 28  1  1  0  0  0
 29 27  1  0  0  0  0
 30 29  1  0  0  0  0
 31 33  1  0  0  0  0
 31 30  1  0  0  0  0
 32 33  2  0  0  0  0
 33 34  1  0  0  0  0
 34 35  1  0  0  0  0
 37 36  1  0  0  0  0
 37 38  1  0  0  0  0
 38 39  1  0  0  0  0
 40 38  2  0  0  0  0
M  END
>  <MODEL>
7

>  <REMARK>
 VINA RESULT:      -4.0      2.365      3.302
  Name = 
  12 active torsions:
  status: ('A' for Active; 'I' for Inactive)
    1  A    between atoms: C_1  and  C_25
    2  A    between atoms: C_2  and  C_12
    3  A    between atoms: C_2  and  C_38
    4  A    between atoms: C_4  and  C_12
    5  A    between atoms: C_8  and  C_37
    6  A    between atoms: O_11  and  C_33
    7  A    between atoms: C_15  and  C_23
    8  A    between atoms: C_15  and  C_33
    9  A    between atoms: C_20  and  C_29
   10  A    between atoms: C_22  and  C_23
   11  A    between atoms: C_22  and  C_25
   12  A    between atoms: C_29  and  N_35
                            x       y       z     vdW  Elec       q    Type
                         _______ _______ _______ _____ _____    ______ ____

>  <TORSDO>
F 12

$$$$
=
 OpenBabel11052412043D

 40 41  0  0  1  0  0  0  0  0999 V2000
  161.9710  208.9370  151.1960 C   0  0  0  0  0  0  0  0  0  0  0  0
  161.9570  210.7110  154.4550 O   0  0  0  0  0  0  0  0  0  0  0  0
  161.6840  208.3430  154.3010 C   0  0  0  0  0  0  0  0  0  0  0  0
  161.4860  208.1540  155.7720 C   0  0  0  0  0  2  0  0  0  0  0  0
  161.3400  206.7500  152.3610 C   0  0  0  0  0  0  0  0  0  0  0  0
  162.1250  209.7870  152.2540 C   0  0  0  0  0  3  0  0  0  0  0  0
  159.6300  208.0380  151.0840 C   0  0  0  0  0  1  0  0  0  0  0  0
  159.6980  209.7030  156.4400 N   0  0  0  0  0  0  0  0  0  0  0  0
  160.0800  208.5000  156.1730 C   0  0  0  0  0  3  0  0  0  0  0  0
  161.4790  209.6850  153.6350 C   0  0  2  0  0  3  0  0  0  0  0  0
  160.8160  211.3270  154.9770 C   0  0  0  0  0  2  0  0  0  0  0  0
  160.5750  210.8550  156.4090 C   0  0  1  0  0  3  0  0  0  0  0  0
  161.1030  207.6750  151.1900 C   0  0  1  0  0  3  0  0  0  0  0  0
  161.5160  207.3580  153.4890 C   0  0  0  0  0  0  0  0  0  0  0  0
  160.9240  202.4570  151.6700 O   0  0  0  0  0  0  0  0  0  0  0  0
  161.2210  204.5770  153.3000 O   0  0  0  0  0  0  0  0  0  0  0  0
  160.8640  203.2870  150.7230 C   0  0  0  0  0  0  0  0  0  0  0  0
  161.0070  204.6890  150.9710 N   0  0  0  0  0  2  0  0  0  0  0  0
  160.6510  202.8400  149.3800 N   0  0  0  0  0  2  0  0  0  0  0  0
  161.1890  205.2900  152.2600 C   0  0  0  0  0  0  0  0  0  0  0  0
  159.2420  200.9870  149.4030 O   0  0  0  0  0  1  0  0  0  0  0  0
  161.5600  200.6220  149.7110 C   0  0  0  0  0  1  0  0  0  0  0  0
  160.4970  201.4400  148.9910 C   0  0  2  0  0  0  0  0  0  0  0  0
  161.4410  200.0700  147.0600 C   0  0  0  0  0  1  0  0  0  0  0  0
  160.6230  201.2910  147.4610 C   0  0  0  0  0  3  0  0  0  0  0  0
  161.2080  202.5320  146.8030 C   0  0  0  0  0  1  0  0  0  0  0  0
  162.7160  209.2250  149.9260 C   0  0  2  0  0  3  0  0  0  0  0  0
  162.1240  210.2940  149.2470 O   0  0  0  0  0  1  0  0  0  0  0  0
  162.7680  207.9890  149.0350 C   0  0  0  0  0  2  0  0  0  0  0  0
  161.6590  208.0180  147.9970 C   0  0  0  0  0  2  0  0  0  0  0  0
  161.1040  206.6230  147.7740 C   0  0  0  0  0  2  0  0  0  0  0  0
  162.6750  205.6690  146.2680 O   0  0  0  0  0  0  0  0  0  0  0  0
  161.5130  206.1240  146.4270 C   0  0  0  0  0  0  0  0  0  0  0  0
  160.6270  206.1190  145.3480 O   0  0  0  0  0  0  0  0  0  0  0  0
  160.5350  205.0270  144.4450 C   0  0  0  0  0  1  0  0  0  0  0  0
  159.9960  211.9820  157.2600 C   0  0  0  0  0  2  0  0  0  0  0  0
  159.4850  213.1440  156.4170 C   0  0  0  0  0  2  0  0  0  0  0  0
  158.0030  213.2260  156.5200 C   0  0  0  0  0  0  0  0  0  0  0  0
  157.2670  212.0920  156.8350 O   0  0  0  0  0  1  0  0  0  0  0  0
  157.4190  214.3280  156.3560 O   0  0  0  0  0  0  0  0  0  0  0  0
  1  6  2  0  0  0  0
  2 11  1  0  0  0  0
  3  4  1  0  0  0  0
  4  9  1  0  0  0  0
  5 14  2  0  0  0  0
  9  8  2  0  0  0  0
 10  6  1  6  0  0  0
 10  3  1  0  0  0  0
 10  2  1  0  0  0  0
 11 12  1  0  0  0  0
 12  8  1  0  0  0  0
 12 36  1  1  0  0  0
 13  7  1  1  0  0  0
 13  1  1  0  0  0  0
 13  5  1  0  0  0  0
 14  3  2  0  0  0  0
 17 18  1  0  0  0  0
 17 15  2  0  0  0  0
 18 20  1  0  0  0  0
 19 17  1  0  0  0  0
 20  5  1  0  0  0  0
 20 16  2  0  0  0  0
 23 19  1  0  0  0  0
 23 21  1  0  0  0  0
 23 22  1  1  0  0  0
 24 25  1  0  0  0  0
 25 23  1  0  0  0  0
 26 25  1  0  0  0  0
 27 28  1  6  0  0  0
 27  1  1  0  0  0  0
 29 27  1  0  0  0  0
 30 29  1  0  0  0  0
 31 30  1  0  0  0  0
 32 33  2  0  0  0  0
 33 31  1  0  0  0  0
 34 33  1  0  0  0  0
 35 34  1  0  0  0  0
 37 38  1  0  0  0  0
 37 36  1  0  0  0  0
 38 39  1  0  0  0  0
 40 38  2  0  0  0  0
M  END
>  <MODEL>
8

>  <REMARK>
 VINA RESULT:      -4.0      2.404      9.693
  Name = 
  12 active torsions:
  status: ('A' for Active; 'I' for Inactive)
    1  A    between atoms: C_1  and  C_25
    2  A    between atoms: C_2  and  C_12
    3  A    between atoms: C_2  and  C_38
    4  A    between atoms: C_4  and  C_12
    5  A    between atoms: C_8  and  C_37
    6  A    between atoms: O_11  and  C_33
    7  A    between atoms: C_15  and  C_23
    8  A    between atoms: C_15  and  C_33
    9  A    between atoms: C_20  and  C_29
   10  A    between atoms: C_22  and  C_23
   11  A    between atoms: C_22  and  C_25
   12  A    between atoms: C_29  and  N_35
                            x       y       z     vdW  Elec       q    Type
                         _______ _______ _______ _____ _____    ______ ____

>  <TORSDO>
F 12

$$$$
=
 OpenBabel11052412043D

 40 41  0  0  1  0  0  0  0  0999 V2000
  161.3240  209.0460  151.3870 C   0  0  0  0  0  0  0  0  0  0  0  0
  158.9710  210.2440  153.9950 O   0  0  0  0  0  0  0  0  0  0  0  0
  159.4970  211.5520  152.0670 C   0  0  0  0  0  0  0  0  0  0  0  0
  158.6690  212.7220  152.4920 C   0  0  0  0  0  2  0  0  0  0  0  0
  161.2060  211.3140  150.2110 C   0  0  0  0  0  0  0  0  0  0  0  0
  160.4180  209.2040  152.3980 C   0  0  0  0  0  3  0  0  0  0  0  0
  163.1990  210.7030  151.5780 C   0  0  0  0  0  1  0  0  0  0  0  0
  159.3840  213.2910  154.7740 N   0  0  0  0  0  0  0  0  0  0  0  0
  159.3960  213.5530  153.5100 C   0  0  0  0  0  3  0  0  0  0  0  0
  159.9700  210.5090  153.0540 C   0  0  2  0  0  3  0  0  0  0  0  0
  159.3980  210.8680  155.1710 C   0  0  0  0  0  2  0  0  0  0  0  0
  158.6540  212.1870  155.3630 C   0  0  1  0  0  3  0  0  0  0  0  0
  162.0820  210.1790  150.6890 C   0  0  1  0  0  3  0  0  0  0  0  0
  160.2600  211.6350  151.0320 C   0  0  0  0  0  0  0  0  0  0  0  0
  161.8320  213.4980  146.4800 O   0  0  0  0  0  0  0  0  0  0  0  0
  162.3900  213.0200  149.0690 O   0  0  0  0  0  0  0  0  0  0  0  0
  161.0260  212.5310  146.5520 C   0  0  0  0  0  0  0  0  0  0  0  0
  160.8330  211.8320  147.7850 N   0  0  0  0  0  2  0  0  0  0  0  0
  160.2880  212.1160  145.3980 N   0  0  0  0  0  2  0  0  0  0  0  0
  161.5220  212.1070  149.0120 C   0  0  0  0  0  0  0  0  0  0  0  0
  160.0030  211.8260  143.1060 O   0  0  0  0  0  1  0  0  0  0  0  0
  161.8410  213.1240  143.8410 C   0  0  0  0  0  1  0  0  0  0  0  0
  160.3860  212.7470  144.0840 C   0  0  2  0  0  0  0  0  0  0  0  0
  158.2360  213.8490  144.8930 C   0  0  0  0  0  1  0  0  0  0  0  0
  159.4720  213.9870  144.0140 C   0  0  0  0  0  3  0  0  0  0  0  0
  159.0490  214.3170  142.5900 C   0  0  0  0  0  1  0  0  0  0  0  0
  161.6070  207.6620  150.8830 C   0  0  2  0  0  3  0  0  0  0  0  0
  161.2120  207.5420  149.5470 O   0  0  0  0  0  1  0  0  0  0  0  0
  160.9080  206.6170  151.7430 C   0  0  0  0  0  2  0  0  0  0  0  0
  161.9170  205.7530  152.4810 C   0  0  0  0  0  2  0  0  0  0  0  0
  162.3080  204.5540  151.6370 C   0  0  0  0  0  2  0  0  0  0  0  0
  160.4600  203.1710  152.2010 O   0  0  0  0  0  0  0  0  0  0  0  0
  161.0900  203.7630  151.2870 C   0  0  0  0  0  0  0  0  0  0  0  0
  160.6140  203.6930  149.9760 O   0  0  0  0  0  0  0  0  0  0  0  0
  160.8300  202.5590  149.1490 C   0  0  0  0  0  1  0  0  0  0  0  0
  158.3990  212.4540  156.8440 C   0  0  0  0  0  2  0  0  0  0  0  0
  157.2930  213.4790  157.0680 C   0  0  0  0  0  2  0  0  0  0  0  0
  156.0330  213.0040  156.4350 C   0  0  0  0  0  0  0  0  0  0  0  0
  155.5410  213.6440  155.3060 O   0  0  0  0  0  0  0  0  0  0  0  0
  155.4310  212.0020  156.9020 O   0  0  0  0  0  1  0  0  0  0  0  0
  1  6  2  0  0  0  0
  2 11  1  0  0  0  0
  3  4  1  0  0  0  0
  3 10  1  0  0  0  0
  4  9  1  0  0  0  0
  5 13  1  0  0  0  0
  5 14  2  0  0  0  0
  8 12  1  0  0  0  0
  9  8  2  0  0  0  0
 10  6  1  6  0  0  0
 10  2  1  0  0  0  0
 11 12  1  0  0  0  0
 12 36  1  1  0  0  0
 13  1  1  0  0  0  0
 13  7  1  1  0  0  0
 14  3  2  0  0  0  0
 15 17  2  0  0  0  0
 17 18  1  0  0  0  0
 18 20  1  0  0  0  0
 19 17  1  0  0  0  0
 20 16  2  0  0  0  0
 20  5  1  0  0  0  0
 21 23  1  0  0  0  0
 23 22  1  6  0  0  0
 23 19  1  0  0  0  0
 25 23  1  0  0  0  0
 25 24  1  0  0  0  0
 26 25  1  0  0  0  0
 27 28  1  6  0  0  0
 27  1  1  0  0  0  0
 27 29  1  0  0  0  0
 29 30  1  0  0  0  0
 31 30  1  0  0  0  0
 33 31  1  0  0  0  0
 33 32  2  0  0  0  0
 34 33  1  0  0  0  0
 35 34  1  0  0  0  0
 36 37  1  0  0  0  0
 38 40  1  0  0  0  0
 38 37  1  0  0  0  0
 39 38  2  0  0  0  0
M  END
>  <MODEL>
9

>  <REMARK>
 VINA RESULT:      -3.7      3.096     10.518
  Name = 
  12 active torsions:
  status: ('A' for Active; 'I' for Inactive)
    1  A    between atoms: C_1  and  C_25
    2  A    between atoms: C_2  and  C_12
    3  A    between atoms: C_2  and  C_38
    4  A    between atoms: C_4  and  C_12
    5  A    between atoms: C_8  and  C_37
    6  A    between atoms: O_11  and  C_33
    7  A    between atoms: C_15  and  C_23
    8  A    between atoms: C_15  and  C_33
    9  A    between atoms: C_20  and  C_29
   10  A    between atoms: C_22  and  C_23
   11  A    between atoms: C_22  and  C_25
   12  A    between atoms: C_29  and  N_35
                            x       y       z     vdW  Elec       q    Type
                         _______ _______ _______ _____ _____    ______ ____

>  <TORSDO>
F 12

$$$$
