=
 OpenBabel11042422023D

 59 61  0  0  1  0  0  0  0  0999 V2000
  160.6280  205.0350  143.8580 C   0  0  0  0  0  2  0  0  0  0  0  0
  161.5950  204.5450  146.1520 C   0  0  1  0  0  3  0  0  0  0  0  0
  160.9170  203.9560  144.8990 C   0  0  1  0  0  3  0  0  0  0  0  0
  161.9410  205.6940  143.4270 C   0  0  2  0  0  3  0  0  0  0  0  0
  162.9150  205.2140  145.7200 C   0  0  2  0  0  3  0  0  0  0  0  0
  162.6750  206.2750  144.6360 C   0  0  0  0  0  2  0  0  0  0  0  0
  159.7290  203.0930  145.1870 C   0  0  0  0  0  0  0  0  0  0  0  0
  158.6060  203.4180  144.7190 O   0  0  0  0  0  0  0  0  0  0  0  0
  159.8810  201.9070  145.9150 O   0  0  0  0  0  0  0  0  0  0  0  0
  160.4390  200.7610  145.3780 N   0  0  0  0  0  2  0  0  0  0  0  0
  161.6570  198.5400  145.5080 C   0  0  0  0  0  1  0  0  0  0  0  0
  161.3030  199.9600  147.4150 C   0  0  0  0  0  0  0  0  0  0  0  0
  161.2270  199.8260  146.1240 C   0  0  0  0  0  0  0  0  0  0  0  0
  161.3660  200.0960  148.7150 C   0  0  0  0  0  3  0  0  0  0  0  0
  161.0820  201.3970  149.4140 C   0  0  2  0  0  0  0  0  0  0  0  0
  161.9520  202.4880  148.8070 C   0  0  0  0  0  1  0  0  0  0  0  0
  161.3100  202.6470  151.6240 C   0  0  0  0  0  1  0  0  0  0  0  0
  161.3920  201.3010  150.9150 C   0  0  0  0  0  2  0  0  0  0  0  0
  159.6110  201.7530  149.1840 C   0  0  0  0  0  2  0  0  0  0  0  0
  158.7670  200.8560  149.8450 O   0  0  0  0  0  1  0  0  0  0  0  0
  164.5290  203.8550  146.3990 C   0  0  0  0  0  1  0  0  0  0  0  0
  163.8240  204.2570  145.2660 O   0  0  0  0  0  0  0  0  0  0  0  0
  161.6670  206.8050  142.4290 C   0  0  0  0  0  2  0  0  0  0  0  0
  161.5960  206.2460  141.0140 C   0  0  0  0  0  2  0  0  0  0  0  0
  163.6290  207.6940  140.6810 C   0  0  0  0  0  1  0  0  0  0  0  0
  162.3600  207.1350  140.0430 C   0  0  2  0  0  3  0  0  0  0  0  0
  161.4570  208.2130  139.3890 C   0  0  2  0  0  3  0  0  0  0  0  0
  161.4520  208.1670  137.8570 C   0  0  0  0  0  3  0  0  0  0  0  0
  160.0560  207.9990  137.2830 C   0  0  0  0  0  1  0  0  0  0  0  0
  162.3410  207.0470  137.3610 C   0  0  0  0  0  1  0  0  0  0  0  0
  160.1890  210.2160  140.0120 C   0  0  0  0  0  1  0  0  0  0  0  0
  161.5010  209.5920  139.9230 N   0  0  0  0  0  0  0  0  0  0  0  0
  162.3250  210.4060  139.0460 C   0  0  0  0  0  1  0  0  0  0  0  0
  160.6750  205.5070  146.9550 C   0  0  1  0  0  3  0  0  0  0  0  0
  159.7180  205.0350  149.0730 O   0  0  0  0  0  0  0  0  0  0  0  0
  160.7350  205.2640  148.4360 C   0  0  0  0  0  0  0  0  0  0  0  0
  162.0510  205.2830  149.1350 C   0  0  0  0  0  1  0  0  0  0  0  0
  160.8860  206.9930  146.6430 C   0  0  0  0  0  2  0  0  0  0  0  0
  160.8350  207.8670  147.8860 C   0  0  0  0  0  2  0  0  0  0  0  0
  162.0630  208.7440  147.9170 C   0  0  0  0  0  2  0  0  0  0  0  0
  161.6770  210.1100  147.9420 O   0  0  0  0  0  0  0  0  0  0  0  0
  161.8470  210.3340  150.2160 O   0  0  0  0  0  0  0  0  0  0  0  0
  161.8200  210.8940  149.0880 C   0  0  0  0  0  0  0  0  0  0  0  0
  160.7570  213.1450  149.2950 C   0  0  0  0  0  0  0  0  0  0  0  0
  159.6850  212.8240  147.0430 C   0  0  0  0  0  3  0  0  0  0  0  0
  159.7300  213.2660  148.4490 C   0  0  0  0  0  3  0  0  0  0  0  0
  162.1270  212.8860  146.5200 C   0  0  0  0  0  3  0  0  0  0  0  0
  162.6970  212.8180  147.7220 C   0  0  0  0  0  3  0  0  0  0  0  0
  162.0030  212.3820  148.9730 C   0  0  2  0  0  3  0  0  0  0  0  0
  160.7100  212.6230  146.2060 C   0  0  0  0  0  0  0  0  0  0  0  0
  159.0050  212.0840  144.6700 O   0  0  0  0  0  1  0  0  0  0  0  0
  160.3900  212.1880  144.8170 C   0  0  0  0  0  2  0  0  0  0  0  0
  160.5770  213.6010  150.7040 C   0  0  0  0  0  2  0  0  0  0  0  0
  159.4230  212.8640  151.3650 C   0  0  0  0  0  2  0  0  0  0  0  0
  159.8970  211.0800  153.0400 C   0  0  0  0  0  2  0  0  0  0  0  0
  159.7540  212.5670  152.8210 C   0  0  2  0  0  3  0  0  0  0  0  0
  158.7280  212.2070  154.7730 C   0  0  0  0  0  2  0  0  0  0  0  0
  159.2700  210.8510  154.3800 C   0  0  0  0  0  2  0  0  0  0  0  0
  158.7240  213.0410  153.6440 O   0  0  0  0  0  0  0  0  0  0  0  0
  1  3  1  0  0  0  0
  2 34  1  6  0  0  0
  3  7  1  1  0  0  0
  3  2  1  0  0  0  0
  4 23  1  6  0  0  0
  4  1  1  0  0  0  0
  4  6  1  0  0  0  0
  5 22  1  6  0  0  0
  5  2  1  0  0  0  0
  6  5  1  0  0  0  0
  7  9  1  0  0  0  0
  8  7  2  0  0  0  0
 10  9  1  0  0  0  0
 10 13  1  0  0  0  0
 11 13  1  0  0  0  0
 12 14  2  0  0  0  0
 13 12  2  0  0  0  0
 14 15  1  0  0  0  0
 15 16  1  6  0  0  0
 15 18  1  0  0  0  0
 18 17  1  0  0  0  0
 19 15  1  0  0  0  0
 19 20  1  0  0  0  0
 22 21  1  0  0  0  0
 24 23  1  0  0  0  0
 26 25  1  1  0  0  0
 26 24  1  0  0  0  0
 27 28  1  6  0  0  0
 27 32  1  0  0  0  0
 27 26  1  0  0  0  0
 29 28  1  0  0  0  0
 30 28  1  0  0  0  0
 32 31  1  0  0  0  0
 33 32  1  0  0  0  0
 34 38  1  1  0  0  0
 34 36  1  0  0  0  0
 36 35  2  0  0  0  0
 36 37  1  0  0  0  0
 38 39  1  0  0  0  0
 39 40  1  0  0  0  0
 40 41  1  0  0  0  0
 41 43  1  0  0  0  0
 43 42  2  0  0  0  0
 44 53  1  0  0  0  0
 45 46  1  0  0  0  0
 46 44  2  0  0  0  0
 47 48  2  0  0  0  0
 48 49  1  0  0  0  0
 49 43  1  6  0  0  0
 49 44  1  0  0  0  0
 50 47  1  0  0  0  0
 50 45  2  0  0  0  0
 51 52  1  0  0  0  0
 52 50  1  0  0  0  0
 53 54  1  0  0  0  0
 55 58  1  0  0  0  0
 56 54  1  6  0  0  0
 56 55  1  0  0  0  0
 56 59  1  0  0  0  0
 58 57  1  0  0  0  0
 59 57  1  0  0  0  0
M  END
>  <MODEL>
1

>  <REMARK>
 VINA RESULT:       0.6      0.000      0.000
  Name = 
  26 active torsions:
  status: ('A' for Active; 'I' for Inactive)
    1  A    between atoms: C_1  and  C_50
    2  A    between atoms: C_3  and  C_5
    3  A    between atoms: C_4  and  C_18
    4  A    between atoms: C_5  and  C_6
    5  A    between atoms: C_5  and  C_29
    6  A    between atoms: C_6  and  C_57
    7  A    between atoms: O_13  and  C_38
    8  A    between atoms: O_13  and  C_54
    9  A    between atoms: N_15  and  C_42
   10  A    between atoms: C_17  and  C_28
   11  A    between atoms: C_17  and  C_47
   12  A    between atoms: C_18  and  C_53
   13  A    between atoms: C_18  and  C_59
   14  A    between atoms: C_20  and  C_21
   15  A    between atoms: C_21  and  O_30
   16  A    between atoms: C_23  and  C_33
   17  A    between atoms: C_25  and  C_28
   18  A    between atoms: O_30  and  N_56
   19  A    between atoms: C_33  and  C_50
   20  A    between atoms: C_34  and  O_58
   21  A    between atoms: C_37  and  C_42
   22  A    between atoms: C_38  and  C_39
   23  A    between atoms: C_41  and  C_46
   24  A    between atoms: C_42  and  C_47
   25  A    between atoms: C_43  and  N_56
   26  A    between atoms: C_54  and  C_57
                            x       y       z     vdW  Elec       q    Type
                         _______ _______ _______ _____ _____    ______ ____

>  <TORSDO>
F 26

$$$$
=
 OpenBabel11042422023D

 59 61  0  0  1  0  0  0  0  0999 V2000
  161.6020  209.6160  151.4840 C   0  0  0  0  0  2  0  0  0  0  0  0
  160.7580  207.2510  151.8490 C   0  0  1  0  0  3  0  0  0  0  0  0
  160.4720  208.7550  152.0430 C   0  0  1  0  0  3  0  0  0  0  0  0
  161.7550  209.3490  149.9850 C   0  0  2  0  0  3  0  0  0  0  0  0
  160.9180  206.9800  150.3400 C   0  0  2  0  0  3  0  0  0  0  0  0
  162.0140  207.8640  149.7260 C   0  0  0  0  0  2  0  0  0  0  0  0
  160.0860  209.1340  153.4380 C   0  0  0  0  0  0  0  0  0  0  0  0
  159.2910  208.3960  154.0780 O   0  0  0  0  0  0  0  0  0  0  0  0
  160.6550  210.2610  154.0430 O   0  0  0  0  0  0  0  0  0  0  0  0
  161.3310  210.2090  155.2480 N   0  0  0  0  0  2  0  0  0  0  0  0
  162.5730  211.3510  157.1410 C   0  0  0  0  0  1  0  0  0  0  0  0
  160.4720  212.1410  156.2800 C   0  0  0  0  0  0  0  0  0  0  0  0
  161.4710  211.3200  156.1390 C   0  0  0  0  0  0  0  0  0  0  0  0
  159.4580  212.9560  156.4230 C   0  0  0  0  0  3  0  0  0  0  0  0
  158.3690  213.0910  155.3950 C   0  0  2  0  0  0  0  0  0  0  0  0
  158.9880  213.4960  154.0650 C   0  0  0  0  0  1  0  0  0  0  0  0
  155.9450  213.5950  156.0040 C   0  0  0  0  0  1  0  0  0  0  0  0
  157.3460  214.1610  155.8060 C   0  0  0  0  0  2  0  0  0  0  0  0
  157.6940  211.7260  155.2310 C   0  0  0  0  0  2  0  0  0  0  0  0
  157.8740  211.2300  153.9360 O   0  0  0  0  0  1  0  0  0  0  0  0
  159.8210  206.4640  148.4840 C   0  0  0  0  0  1  0  0  0  0  0  0
  159.7070  207.1800  149.6750 O   0  0  0  0  0  0  0  0  0  0  0  0
  162.9080  210.1600  149.4220 C   0  0  0  0  0  2  0  0  0  0  0  0
  162.4820  211.6050  149.1940 C   0  0  0  0  0  2  0  0  0  0  0  0
  164.1680  211.9540  147.3570 C   0  0  0  0  0  1  0  0  0  0  0  0
  162.6920  212.0070  147.7410 C   0  0  2  0  0  3  0  0  0  0  0  0
  161.9970  213.3480  147.3880 C   0  0  2  0  0  3  0  0  0  0  0  0
  160.5060  213.3840  147.7430 C   0  0  0  0  0  3  0  0  0  0  0  0
  160.2480  213.9730  149.1190 C   0  0  0  0  0  1  0  0  0  0  0  0
  159.9150  211.9920  147.6690 C   0  0  0  0  0  1  0  0  0  0  0  0
  161.1040  214.4520  145.3900 C   0  0  0  0  0  1  0  0  0  0  0  0
  162.2930  213.9750  146.0820 N   0  0  0  0  0  0  0  0  0  0  0  0
  162.9410  212.9930  145.2300 C   0  0  0  0  0  1  0  0  0  0  0  0
  161.9710  206.7440  152.6780 C   0  0  1  0  0  3  0  0  0  0  0  0
  162.4370  207.5650  154.8530 O   0  0  0  0  0  0  0  0  0  0  0  0
  161.7410  206.8400  154.1590 C   0  0  0  0  0  0  0  0  0  0  0  0
  160.6390  206.0590  154.7880 C   0  0  0  0  0  1  0  0  0  0  0  0
  162.4540  205.3390  152.2970 C   0  0  0  0  0  2  0  0  0  0  0  0
  161.3240  204.3240  152.2440 C   0  0  0  0  0  2  0  0  0  0  0  0
  160.9440  204.0920  150.8010 C   0  0  0  0  0  2  0  0  0  0  0  0
  160.5390  202.7440  150.6230 O   0  0  0  0  0  0  0  0  0  0  0  0
  159.5580  201.5760  148.9130 O   0  0  0  0  0  0  0  0  0  0  0  0
  160.5960  202.1180  149.3760 C   0  0  0  0  0  0  0  0  0  0  0  0
  161.7920  203.0860  147.4080 C   0  0  0  0  0  0  0  0  0  0  0  0
  160.5360  201.5160  145.8980 C   0  0  0  0  0  3  0  0  0  0  0  0
  161.1450  202.8050  146.2740 C   0  0  0  0  0  3  0  0  0  0  0  0
  161.9300  199.9850  147.2950 C   0  0  0  0  0  3  0  0  0  0  0  0
  162.4090  200.7900  148.2420 C   0  0  0  0  0  3  0  0  0  0  0  0
  161.8650  202.1440  148.5690 C   0  0  2  0  0  3  0  0  0  0  0  0
  160.8390  200.2940  146.3520 C   0  0  0  0  0  0  0  0  0  0  0  0
  160.9610  198.2500  145.1830 O   0  0  0  0  0  1  0  0  0  0  0  0
  160.0760  199.1420  145.7930 C   0  0  0  0  0  2  0  0  0  0  0  0
  162.2810  204.4780  147.6250 C   0  0  0  0  0  2  0  0  0  0  0  0
  163.2000  204.9070  146.4920 C   0  0  0  0  0  2  0  0  0  0  0  0
  161.0900  206.1620  146.0590 C   0  0  0  0  0  2  0  0  0  0  0  0
  162.4420  205.7820  145.5040 C   0  0  2  0  0  3  0  0  0  0  0  0
  161.0660  205.5940  143.7530 C   0  0  0  0  0  2  0  0  0  0  0  0
  160.1820  206.1020  144.8700 C   0  0  0  0  0  2  0  0  0  0  0  0
  162.2500  205.0810  144.3050 O   0  0  0  0  0  0  0  0  0  0  0  0
  1  3  1  0  0  0  0
  2  3  1  0  0  0  0
  2 34  1  1  0  0  0
  3  7  1  1  0  0  0
  4 23  1  1  0  0  0
  4  1  1  0  0  0  0
  5 22  1  6  0  0  0
  5  2  1  0  0  0  0
  6  4  1  0  0  0  0
  6  5  1  0  0  0  0
  7  9  1  0  0  0  0
  7  8  2  0  0  0  0
  9 10  1  0  0  0  0
 10 13  1  0  0  0  0
 12 14  2  0  0  0  0
 13 12  2  0  0  0  0
 13 11  1  0  0  0  0
 15 16  1  6  0  0  0
 15 18  1  0  0  0  0
 15 14  1  0  0  0  0
 18 17  1  0  0  0  0
 19 15  1  0  0  0  0
 20 19  1  0  0  0  0
 21 22  1  0  0  0  0
 24 23  1  0  0  0  0
 26 25  1  1  0  0  0
 26 24  1  0  0  0  0
 27 26  1  0  0  0  0
 27 28  1  6  0  0  0
 28 29  1  0  0  0  0
 30 28  1  0  0  0  0
 31 32  1  0  0  0  0
 32 27  1  0  0  0  0
 33 32  1  0  0  0  0
 34 38  1  6  0  0  0
 34 36  1  0  0  0  0
 36 37  1  0  0  0  0
 36 35  2  0  0  0  0
 39 38  1  0  0  0  0
 40 39  1  0  0  0  0
 41 40  1  0  0  0  0
 42 43  2  0  0  0  0
 43 41  1  0  0  0  0
 44 53  1  0  0  0  0
 44 49  1  0  0  0  0
 45 46  1  0  0  0  0
 45 50  2  0  0  0  0
 46 44  2  0  0  0  0
 47 48  2  0  0  0  0
 48 49  1  0  0  0  0
 49 43  1  6  0  0  0
 50 47  1  0  0  0  0
 51 52  1  0  0  0  0
 52 50  1  0  0  0  0
 54 53  1  0  0  0  0
 56 55  1  0  0  0  0
 56 54  1  1  0  0  0
 57 59  1  0  0  0  0
 57 58  1  0  0  0  0
 58 55  1  0  0  0  0
 59 56  1  0  0  0  0
M  END
>  <MODEL>
2

>  <REMARK>
 VINA RESULT:       0.7      3.520     10.471
  Name = 
  26 active torsions:
  status: ('A' for Active; 'I' for Inactive)
    1  A    between atoms: C_1  and  C_50
    2  A    between atoms: C_3  and  C_5
    3  A    between atoms: C_4  and  C_18
    4  A    between atoms: C_5  and  C_6
    5  A    between atoms: C_5  and  C_29
    6  A    between atoms: C_6  and  C_57
    7  A    between atoms: O_13  and  C_38
    8  A    between atoms: O_13  and  C_54
    9  A    between atoms: N_15  and  C_42
   10  A    between atoms: C_17  and  C_28
   11  A    between atoms: C_17  and  C_47
   12  A    between atoms: C_18  and  C_53
   13  A    between atoms: C_18  and  C_59
   14  A    between atoms: C_20  and  C_21
   15  A    between atoms: C_21  and  O_30
   16  A    between atoms: C_23  and  C_33
   17  A    between atoms: C_25  and  C_28
   18  A    between atoms: O_30  and  N_56
   19  A    between atoms: C_33  and  C_50
   20  A    between atoms: C_34  and  O_58
   21  A    between atoms: C_37  and  C_42
   22  A    between atoms: C_38  and  C_39
   23  A    between atoms: C_41  and  C_46
   24  A    between atoms: C_42  and  C_47
   25  A    between atoms: C_43  and  N_56
   26  A    between atoms: C_54  and  C_57
                            x       y       z     vdW  Elec       q    Type
                         _______ _______ _______ _____ _____    ______ ____

>  <TORSDO>
F 26

$$$$
=
 OpenBabel11042422023D

 59 61  0  0  1  0  0  0  0  0999 V2000
  160.8280  204.4700  144.9270 C   0  0  0  0  0  2  0  0  0  0  0  0
  162.3550  205.1590  146.8330 C   0  0  1  0  0  3  0  0  0  0  0  0
  161.5830  204.0000  146.1680 C   0  0  1  0  0  3  0  0  0  0  0  0
  161.8220  205.0310  143.9070 C   0  0  2  0  0  3  0  0  0  0  0  0
  163.3520  205.7290  145.8050 C   0  0  2  0  0  3  0  0  0  0  0  0
  162.6390  206.1690  144.5190 C   0  0  0  0  0  2  0  0  0  0  0  0
  160.7260  203.2110  147.1070 C   0  0  0  0  0  0  0  0  0  0  0  0
  159.5390  202.9450  146.7780 O   0  0  0  0  0  0  0  0  0  0  0  0
  161.2590  202.7220  148.3040 O   0  0  0  0  0  0  0  0  0  0  0  0
  161.1820  203.4110  149.5000 N   0  0  0  0  0  2  0  0  0  0  0  0
  160.3850  201.4100  150.8400 C   0  0  0  0  0  1  0  0  0  0  0  0
  160.8780  203.5440  151.8300 C   0  0  0  0  0  0  0  0  0  0  0  0
  160.9270  202.7950  150.7670 C   0  0  0  0  0  0  0  0  0  0  0  0
  160.8200  204.3070  152.8910 C   0  0  0  0  0  3  0  0  0  0  0  0
  161.4580  205.6670  152.9560 C   0  0  2  0  0  0  0  0  0  0  0  0
  162.8330  205.6020  152.3070 C   0  0  0  0  0  1  0  0  0  0  0  0
  160.4160  206.9100  154.9230 C   0  0  0  0  0  1  0  0  0  0  0  0
  161.6230  206.1360  154.4090 C   0  0  0  0  0  2  0  0  0  0  0  0
  160.5840  206.6440  152.1650 C   0  0  0  0  0  2  0  0  0  0  0  0
  161.2470  207.8580  151.9600 O   0  0  0  0  0  1  0  0  0  0  0  0
  164.2940  203.8680  146.5540 C   0  0  0  0  0  1  0  0  0  0  0  0
  164.3430  204.7900  145.5110 O   0  0  0  0  0  0  0  0  0  0  0  0
  161.0830  205.5500  142.6860 C   0  0  0  0  0  2  0  0  0  0  0  0
  161.7620  206.8010  142.1430 C   0  0  0  0  0  2  0  0  0  0  0  0
  163.1760  206.2930  140.1220 C   0  0  0  0  0  1  0  0  0  0  0  0
  161.8150  206.7700  140.6220 C   0  0  2  0  0  3  0  0  0  0  0  0
  161.3410  208.1020  139.9830 C   0  0  2  0  0  3  0  0  0  0  0  0
  161.4670  208.1330  138.4560 C   0  0  0  0  0  3  0  0  0  0  0  0
  160.1420  208.4080  137.7670 C   0  0  0  0  0  1  0  0  0  0  0  0
  162.0400  206.8270  137.9490 C   0  0  0  0  0  1  0  0  0  0  0  0
  160.7390  210.4210  140.4970 C   0  0  0  0  0  1  0  0  0  0  0  0
  161.7430  209.3740  140.6210 N   0  0  0  0  0  0  0  0  0  0  0  0
  162.9630  209.8470  139.9880 C   0  0  0  0  0  1  0  0  0  0  0  0
  161.4270  206.2520  147.4340 C   0  0  1  0  0  3  0  0  0  0  0  0
  162.1060  205.9330  149.6830 O   0  0  0  0  0  0  0  0  0  0  0  0
  161.1750  206.0550  148.9010 C   0  0  0  0  0  0  0  0  0  0  0  0
  159.7770  206.0270  149.4140 C   0  0  0  0  0  1  0  0  0  0  0  0
  161.8780  207.6900  147.1520 C   0  0  0  0  0  2  0  0  0  0  0  0
  161.8110  208.5780  148.3840 C   0  0  0  0  0  2  0  0  0  0  0  0
  161.4050  209.9690  147.9610 C   0  0  0  0  0  2  0  0  0  0  0  0
  162.0910  210.9300  148.7490 O   0  0  0  0  0  0  0  0  0  0  0  0
  163.8370  211.8520  147.5870 O   0  0  0  0  0  0  0  0  0  0  0  0
  162.7370  212.0260  148.1740 C   0  0  0  0  0  0  0  0  0  0  0  0
  160.6250  213.3280  148.4660 C   0  0  0  0  0  0  0  0  0  0  0  0
  159.9750  212.7630  146.1030 C   0  0  0  0  0  3  0  0  0  0  0  0
  159.7250  212.9870  147.5390 C   0  0  0  0  0  3  0  0  0  0  0  0
  162.0180  214.1720  145.8210 C   0  0  0  0  0  3  0  0  0  0  0  0
  162.4920  214.2710  147.0620 C   0  0  0  0  0  3  0  0  0  0  0  0
  162.0960  213.3870  148.2010 C   0  0  2  0  0  3  0  0  0  0  0  0
  160.9760  213.2390  145.3530 C   0  0  0  0  0  0  0  0  0  0  0  0
  162.1660  213.3450  143.3200 O   0  0  0  0  0  1  0  0  0  0  0  0
  160.9900  212.8720  143.9080 C   0  0  0  0  0  2  0  0  0  0  0  0
  160.1790  213.4440  149.8840 C   0  0  0  0  0  2  0  0  0  0  0  0
  158.6910  213.7480  149.9570 C   0  0  0  0  0  2  0  0  0  0  0  0
  158.6730  214.4360  152.3530 C   0  0  0  0  0  2  0  0  0  0  0  0
  158.1580  213.4340  151.3480 C   0  0  2  0  0  3  0  0  0  0  0  0
  158.6630  212.1940  153.1370 C   0  0  0  0  0  2  0  0  0  0  0  0
  158.9470  213.6130  153.5740 C   0  0  0  0  0  2  0  0  0  0  0  0
  158.5820  212.1550  151.7360 O   0  0  0  0  0  0  0  0  0  0  0  0
  1  3  1  0  0  0  0
  2 34  1  6  0  0  0
  3  2  1  0  0  0  0
  3  7  1  1  0  0  0
  4 23  1  6  0  0  0
  4  6  1  0  0  0  0
  4  1  1  0  0  0  0
  5 22  1  6  0  0  0
  5  2  1  0  0  0  0
  6  5  1  0  0  0  0
  7  9  1  0  0  0  0
  8  7  2  0  0  0  0
  9 10  1  0  0  0  0
 10 13  1  0  0  0  0
 12 14  2  0  0  0  0
 13 11  1  0  0  0  0
 13 12  2  0  0  0  0
 14 15  1  0  0  0  0
 15 16  1  6  0  0  0
 15 18  1  0  0  0  0
 18 17  1  0  0  0  0
 19 15  1  0  0  0  0
 20 19  1  0  0  0  0
 22 21  1  0  0  0  0
 24 23  1  0  0  0  0
 26 25  1  1  0  0  0
 26 24  1  0  0  0  0
 27 28  1  6  0  0  0
 27 32  1  0  0  0  0
 27 26  1  0  0  0  0
 29 28  1  0  0  0  0
 30 28  1  0  0  0  0
 31 32  1  0  0  0  0
 33 32  1  0  0  0  0
 34 38  1  1  0  0  0
 34 36  1  0  0  0  0
 36 37  1  0  0  0  0
 36 35  2  0  0  0  0
 38 39  1  0  0  0  0
 40 39  1  0  0  0  0
 40 41  1  0  0  0  0
 42 43  2  0  0  0  0
 43 41  1  0  0  0  0
 44 53  1  0  0  0  0
 45 46  1  0  0  0  0
 46 44  2  0  0  0  0
 47 48  2  0  0  0  0
 48 49  1  0  0  0  0
 49 43  1  6  0  0  0
 49 44  1  0  0  0  0
 50 47  1  0  0  0  0
 50 45  2  0  0  0  0
 51 52  1  0  0  0  0
 52 50  1  0  0  0  0
 53 54  1  0  0  0  0
 55 58  1  0  0  0  0
 56 54  1  6  0  0  0
 56 59  1  0  0  0  0
 56 55  1  0  0  0  0
 57 58  1  0  0  0  0
 59 57  1  0  0  0  0
M  END
>  <MODEL>
3

>  <REMARK>
 VINA RESULT:       1.3      1.869      2.945
  Name = 
  26 active torsions:
  status: ('A' for Active; 'I' for Inactive)
    1  A    between atoms: C_1  and  C_50
    2  A    between atoms: C_3  and  C_5
    3  A    between atoms: C_4  and  C_18
    4  A    between atoms: C_5  and  C_6
    5  A    between atoms: C_5  and  C_29
    6  A    between atoms: C_6  and  C_57
    7  A    between atoms: O_13  and  C_38
    8  A    between atoms: O_13  and  C_54
    9  A    between atoms: N_15  and  C_42
   10  A    between atoms: C_17  and  C_28
   11  A    between atoms: C_17  and  C_47
   12  A    between atoms: C_18  and  C_53
   13  A    between atoms: C_18  and  C_59
   14  A    between atoms: C_20  and  C_21
   15  A    between atoms: C_21  and  O_30
   16  A    between atoms: C_23  and  C_33
   17  A    between atoms: C_25  and  C_28
   18  A    between atoms: O_30  and  N_56
   19  A    between atoms: C_33  and  C_50
   20  A    between atoms: C_34  and  O_58
   21  A    between atoms: C_37  and  C_42
   22  A    between atoms: C_38  and  C_39
   23  A    between atoms: C_41  and  C_46
   24  A    between atoms: C_42  and  C_47
   25  A    between atoms: C_43  and  N_56
   26  A    between atoms: C_54  and  C_57
                            x       y       z     vdW  Elec       q    Type
                         _______ _______ _______ _____ _____    ______ ____

>  <TORSDO>
F 26

$$$$
=
 OpenBabel11042422023D

 59 61  0  0  1  0  0  0  0  0999 V2000
  160.7990  204.5640  144.3040 C   0  0  0  0  0  2  0  0  0  0  0  0
  162.1900  204.9080  146.3990 C   0  0  1  0  0  3  0  0  0  0  0  0
  161.4650  203.8860  145.4990 C   0  0  1  0  0  3  0  0  0  0  0  0
  161.8620  205.2740  143.4620 C   0  0  2  0  0  3  0  0  0  0  0  0
  163.2570  205.6280  145.5510 C   0  0  2  0  0  3  0  0  0  0  0  0
  162.6360  206.2840  144.3090 C   0  0  0  0  0  2  0  0  0  0  0  0
  160.5440  202.9630  146.2320 C   0  0  0  0  0  0  0  0  0  0  0  0
  159.3910  202.7510  145.7700 O   0  0  0  0  0  0  0  0  0  0  0  0
  160.9830  202.2960  147.3810 O   0  0  0  0  0  0  0  0  0  0  0  0
  160.4440  202.5200  148.6350 N   0  0  0  0  0  2  0  0  0  0  0  0
  160.6590  200.2670  149.7790 C   0  0  0  0  0  1  0  0  0  0  0  0
  160.8620  202.3590  150.9440 C   0  0  0  0  0  0  0  0  0  0  0  0
  160.7700  201.7520  149.7980 C   0  0  0  0  0  0  0  0  0  0  0  0
  160.9440  202.9760  152.0950 C   0  0  0  0  0  3  0  0  0  0  0  0
  161.1920  204.4550  152.2130 C   0  0  2  0  0  0  0  0  0  0  0  0
  160.1250  205.2020  151.4250 C   0  0  0  0  0  1  0  0  0  0  0  0
  162.9200  206.3000  151.8820 C   0  0  0  0  0  1  0  0  0  0  0  0
  162.5710  204.8340  151.6540 C   0  0  0  0  0  2  0  0  0  0  0  0
  161.0770  204.8430  153.6900 C   0  0  0  0  0  2  0  0  0  0  0  0
  160.6700  206.1740  153.8290 O   0  0  0  0  0  1  0  0  0  0  0  0
  164.5850  204.0350  146.3340 C   0  0  0  0  0  1  0  0  0  0  0  0
  164.2660  204.7390  145.1740 O   0  0  0  0  0  0  0  0  0  0  0  0
  161.2110  205.9970  142.2960 C   0  0  0  0  0  2  0  0  0  0  0  0
  162.2480  206.7990  141.5200 C   0  0  0  0  0  2  0  0  0  0  0  0
  162.6430  205.6920  139.2940 C   0  0  0  0  0  1  0  0  0  0  0  0
  161.9190  206.8130  140.0350 C   0  0  2  0  0  3  0  0  0  0  0  0
  162.1080  208.2130  139.3960 C   0  0  2  0  0  3  0  0  0  0  0  0
  162.0000  209.3690  140.3970 C   0  0  0  0  0  3  0  0  0  0  0  0
  160.7070  210.1520  140.2480 C   0  0  0  0  0  1  0  0  0  0  0  0
  163.1790  210.3060  140.2480 C   0  0  0  0  0  1  0  0  0  0  0  0
  159.9940  208.2920  138.1570 C   0  0  0  0  0  1  0  0  0  0  0  0
  161.4350  208.5010  138.1100 N   0  0  0  0  0  0  0  0  0  0  0  0
  161.9810  207.6210  137.0920 C   0  0  0  0  0  1  0  0  0  0  0  0
  161.2240  205.8980  147.1070 C   0  0  1  0  0  3  0  0  0  0  0  0
  161.7990  204.8730  149.1660 O   0  0  0  0  0  0  0  0  0  0  0  0
  160.9890  205.5460  148.5480 C   0  0  0  0  0  0  0  0  0  0  0  0
  159.7650  206.0400  149.2400 C   0  0  0  0  0  1  0  0  0  0  0  0
  161.6160  207.3740  146.9690 C   0  0  0  0  0  2  0  0  0  0  0  0
  162.5620  207.8350  148.0660 C   0  0  0  0  0  2  0  0  0  0  0  0
  161.8880  208.9230  148.8670 C   0  0  0  0  0  2  0  0  0  0  0  0
  162.4680  210.1790  148.5520 O   0  0  0  0  0  0  0  0  0  0  0  0
  160.6070  211.0410  147.5300 O   0  0  0  0  0  0  0  0  0  0  0  0
  161.6940  211.2610  148.1270 C   0  0  0  0  0  0  0  0  0  0  0  0
  160.9700  213.6250  148.4850 C   0  0  0  0  0  0  0  0  0  0  0  0
  160.7950  213.9260  145.9950 C   0  0  0  0  0  3  0  0  0  0  0  0
  160.3690  214.1080  147.3950 C   0  0  0  0  0  3  0  0  0  0  0  0
  163.2350  213.5330  146.3600 C   0  0  0  0  0  3  0  0  0  0  0  0
  163.2910  213.1420  147.6330 C   0  0  0  0  0  3  0  0  0  0  0  0
  162.1210  212.6690  148.4350 C   0  0  2  0  0  3  0  0  0  0  0  0
  162.0200  213.6460  145.5320 C   0  0  0  0  0  0  0  0  0  0  0  0
  163.4600  213.9830  143.6960 O   0  0  0  0  0  1  0  0  0  0  0  0
  162.1890  213.5280  144.0560 C   0  0  0  0  0  2  0  0  0  0  0  0
  160.3400  213.8680  149.8150 C   0  0  0  0  0  2  0  0  0  0  0  0
  158.8240  213.8340  149.7060 C   0  0  0  0  0  2  0  0  0  0  0  0
  159.0340  214.4530  152.1120 C   0  0  0  0  0  2  0  0  0  0  0  0
  158.2010  213.7160  151.0900 C   0  0  2  0  0  3  0  0  0  0  0  0
  158.2090  212.3570  152.8630 C   0  0  0  0  0  2  0  0  0  0  0  0
  158.9810  213.5730  153.3220 C   0  0  0  0  0  2  0  0  0  0  0  0
  158.1310  212.3670  151.4620 O   0  0  0  0  0  0  0  0  0  0  0  0
  1  3  1  0  0  0  0
  2 34  1  6  0  0  0
  3  7  1  1  0  0  0
  3  2  1  0  0  0  0
  4 23  1  6  0  0  0
  4  1  1  0  0  0  0
  4  6  1  0  0  0  0
  5 22  1  6  0  0  0
  5  2  1  0  0  0  0
  6  5  1  0  0  0  0
  7  9  1  0  0  0  0
  8  7  2  0  0  0  0
  9 10  1  0  0  0  0
 10 13  1  0  0  0  0
 11 13  1  0  0  0  0
 12 14  2  0  0  0  0
 13 12  2  0  0  0  0
 14 15  1  0  0  0  0
 15 16  1  6  0  0  0
 15 19  1  0  0  0  0
 18 17  1  0  0  0  0
 18 15  1  0  0  0  0
 19 20  1  0  0  0  0
 22 21  1  0  0  0  0
 24 23  1  0  0  0  0
 26 25  1  6  0  0  0
 26 24  1  0  0  0  0
 27 26  1  0  0  0  0
 27 28  1  1  0  0  0
 29 28  1  0  0  0  0
 30 28  1  0  0  0  0
 32 31  1  0  0  0  0
 32 27  1  0  0  0  0
 33 32  1  0  0  0  0
 34 38  1  1  0  0  0
 34 36  1  0  0  0  0
 36 35  2  0  0  0  0
 36 37  1  0  0  0  0
 38 39  1  0  0  0  0
 39 40  1  0  0  0  0
 41 40  1  0  0  0  0
 42 43  2  0  0  0  0
 43 41  1  0  0  0  0
 44 53  1  0  0  0  0
 45 46  1  0  0  0  0
 46 44  2  0  0  0  0
 47 48  2  0  0  0  0
 48 49  1  0  0  0  0
 49 43  1  6  0  0  0
 49 44  1  0  0  0  0
 50 45  2  0  0  0  0
 50 47  1  0  0  0  0
 51 52  1  0  0  0  0
 52 50  1  0  0  0  0
 54 53  1  0  0  0  0
 55 58  1  0  0  0  0
 56 54  1  6  0  0  0
 56 59  1  0  0  0  0
 56 55  1  0  0  0  0
 57 58  1  0  0  0  0
 59 57  1  0  0  0  0
M  END
>  <MODEL>
4

>  <REMARK>
 VINA RESULT:       1.7      1.726      2.711
  Name = 
  26 active torsions:
  status: ('A' for Active; 'I' for Inactive)
    1  A    between atoms: C_1  and  C_50
    2  A    between atoms: C_3  and  C_5
    3  A    between atoms: C_4  and  C_18
    4  A    between atoms: C_5  and  C_6
    5  A    between atoms: C_5  and  C_29
    6  A    between atoms: C_6  and  C_57
    7  A    between atoms: O_13  and  C_38
    8  A    between atoms: O_13  and  C_54
    9  A    between atoms: N_15  and  C_42
   10  A    between atoms: C_17  and  C_28
   11  A    between atoms: C_17  and  C_47
   12  A    between atoms: C_18  and  C_53
   13  A    between atoms: C_18  and  C_59
   14  A    between atoms: C_20  and  C_21
   15  A    between atoms: C_21  and  O_30
   16  A    between atoms: C_23  and  C_33
   17  A    between atoms: C_25  and  C_28
   18  A    between atoms: O_30  and  N_56
   19  A    between atoms: C_33  and  C_50
   20  A    between atoms: C_34  and  O_58
   21  A    between atoms: C_37  and  C_42
   22  A    between atoms: C_38  and  C_39
   23  A    between atoms: C_41  and  C_46
   24  A    between atoms: C_42  and  C_47
   25  A    between atoms: C_43  and  N_56
   26  A    between atoms: C_54  and  C_57
                            x       y       z     vdW  Elec       q    Type
                         _______ _______ _______ _____ _____    ______ ____

>  <TORSDO>
F 26

$$$$
=
 OpenBabel11042422023D

 59 61  0  0  1  0  0  0  0  0999 V2000
  160.7020  204.5970  143.9720 C   0  0  0  0  0  2  0  0  0  0  0  0
  161.8330  204.4610  146.2400 C   0  0  1  0  0  3  0  0  0  0  0  0
  161.2560  203.6670  145.0500 C   0  0  1  0  0  3  0  0  0  0  0  0
  161.8240  205.4970  143.4480 C   0  0  2  0  0  3  0  0  0  0  0  0
  162.9590  205.3730  145.7130 C   0  0  2  0  0  3  0  0  0  0  0  0
  162.4560  206.2920  144.5910 C   0  0  0  0  0  2  0  0  0  0  0  0
  160.2960  202.5870  145.4360 C   0  0  0  0  0  0  0  0  0  0  0  0
  159.5650  202.7480  146.4490 O   0  0  0  0  0  0  0  0  0  0  0  0
  160.1700  201.4410  144.6420 O   0  0  0  0  0  0  0  0  0  0  0  0
  160.0550  200.1680  145.1690 N   0  0  0  0  0  2  0  0  0  0  0  0
  161.7500  198.2820  145.1210 C   0  0  0  0  0  1  0  0  0  0  0  0
  161.3520  199.6440  147.0610 C   0  0  0  0  0  0  0  0  0  0  0  0
  161.1290  199.4570  145.7930 C   0  0  0  0  0  0  0  0  0  0  0  0
  161.5620  199.8310  148.3390 C   0  0  0  0  0  3  0  0  0  0  0  0
  161.0910  201.0550  149.0740 C   0  0  2  0  0  0  0  0  0  0  0  0
  161.9280  202.2490  148.6390 C   0  0  0  0  0  1  0  0  0  0  0  0
  161.1920  202.2060  151.3470 C   0  0  0  0  0  1  0  0  0  0  0  0
  161.2340  200.8820  150.5930 C   0  0  0  0  0  2  0  0  0  0  0  0
  159.6300  201.3110  148.6900 C   0  0  0  0  0  2  0  0  0  0  0  0
  158.7910  201.2030  149.8040 O   0  0  0  0  0  1  0  0  0  0  0  0
  164.5560  204.0020  146.4070 C   0  0  0  0  0  1  0  0  0  0  0  0
  164.0390  204.6100  145.2650 O   0  0  0  0  0  0  0  0  0  0  0  0
  161.2800  206.4630  142.4100 C   0  0  0  0  0  2  0  0  0  0  0  0
  162.4000  206.9630  141.5080 C   0  0  0  0  0  2  0  0  0  0  0  0
  162.6210  205.8490  139.2610 C   0  0  0  0  0  1  0  0  0  0  0  0
  161.9570  206.9730  140.0520 C   0  0  2  0  0  3  0  0  0  0  0  0
  162.0980  208.3720  139.3970 C   0  0  2  0  0  3  0  0  0  0  0  0
  162.1620  209.5230  140.4060 C   0  0  0  0  0  3  0  0  0  0  0  0
  160.8250  210.2220  140.5800 C   0  0  0  0  0  1  0  0  0  0  0  0
  163.2100  210.5320  139.9870 C   0  0  0  0  0  1  0  0  0  0  0  0
  159.8360  208.6230  138.4890 C   0  0  0  0  0  1  0  0  0  0  0  0
  161.2650  208.6860  138.2160 N   0  0  0  0  0  0  0  0  0  0  0  0
  161.5620  207.7270  137.1670 C   0  0  0  0  0  1  0  0  0  0  0  0
  160.7540  205.2470  147.0360 C   0  0  1  0  0  3  0  0  0  0  0  0
  159.7630  204.7130  149.1240 O   0  0  0  0  0  0  0  0  0  0  0  0
  160.7910  204.9500  148.5080 C   0  0  0  0  0  0  0  0  0  0  0  0
  162.0980  204.9260  149.2240 C   0  0  0  0  0  1  0  0  0  0  0  0
  160.7610  206.7600  146.7900 C   0  0  0  0  0  2  0  0  0  0  0  0
  160.7370  207.5640  148.0800 C   0  0  0  0  0  2  0  0  0  0  0  0
  162.1340  208.0560  148.3740 C   0  0  0  0  0  2  0  0  0  0  0  0
  162.1370  208.7990  149.5830 O   0  0  0  0  0  0  0  0  0  0  0  0
  160.5790  207.4870  150.6320 O   0  0  0  0  0  0  0  0  0  0  0  0
  161.5130  208.3250  150.7380 C   0  0  0  0  0  0  0  0  0  0  0  0
  160.9990  208.4780  153.1780 C   0  0  0  0  0  0  0  0  0  0  0  0
  159.5620  210.4920  152.7290 C   0  0  0  0  0  3  0  0  0  0  0  0
  159.9080  209.2190  153.3890 C   0  0  0  0  0  3  0  0  0  0  0  0
  161.8550  211.2670  152.1120 C   0  0  0  0  0  3  0  0  0  0  0  0
  162.5690  210.1420  152.1240 C   0  0  0  0  0  3  0  0  0  0  0  0
  161.9910  208.7630  152.0950 C   0  0  2  0  0  3  0  0  0  0  0  0
  160.3850  211.3720  152.1440 C   0  0  0  0  0  0  0  0  0  0  0  0
  158.4300  212.3610  151.2720 O   0  0  0  0  0  1  0  0  0  0  0  0
  159.7760  212.6000  151.5590 C   0  0  0  0  0  2  0  0  0  0  0  0
  161.1320  207.1820  153.9050 C   0  0  0  0  0  2  0  0  0  0  0  0
  160.2110  207.1470  155.1140 C   0  0  0  0  0  2  0  0  0  0  0  0
  160.0320  208.9490  156.8280 C   0  0  0  0  0  2  0  0  0  0  0  0
  160.8830  207.8160  156.3060 C   0  0  2  0  0  3  0  0  0  0  0  0
  162.3550  209.4350  156.7560 C   0  0  0  0  0  2  0  0  0  0  0  0
  161.0260  210.0070  157.1930 C   0  0  0  0  0  2  0  0  0  0  0  0
  162.1250  208.3360  155.9150 O   0  0  0  0  0  0  0  0  0  0  0  0
  1  3  1  0  0  0  0
  2 34  1  6  0  0  0
  3  7  1  1  0  0  0
  3  2  1  0  0  0  0
  4 23  1  6  0  0  0
  4  1  1  0  0  0  0
  4  6  1  0  0  0  0
  5 22  1  6  0  0  0
  5  2  1  0  0  0  0
  6  5  1  0  0  0  0
  7  8  2  0  0  0  0
  9 10  1  0  0  0  0
  9  7  1  0  0  0  0
 10 13  1  0  0  0  0
 11 13  1  0  0  0  0
 12 14  2  0  0  0  0
 13 12  2  0  0  0  0
 14 15  1  0  0  0  0
 15 16  1  6  0  0  0
 15 18  1  0  0  0  0
 18 17  1  0  0  0  0
 19 15  1  0  0  0  0
 19 20  1  0  0  0  0
 22 21  1  0  0  0  0
 24 23  1  0  0  0  0
 26 25  1  6  0  0  0
 26 24  1  0  0  0  0
 27 26  1  0  0  0  0
 27 28  1  1  0  0  0
 28 29  1  0  0  0  0
 30 28  1  0  0  0  0
 32 31  1  0  0  0  0
 32 27  1  0  0  0  0
 33 32  1  0  0  0  0
 34 38  1  1  0  0  0
 34 36  1  0  0  0  0
 36 35  2  0  0  0  0
 36 37  1  0  0  0  0
 38 39  1  0  0  0  0
 39 40  1  0  0  0  0
 40 41  1  0  0  0  0
 41 43  1  0  0  0  0
 42 43  2  0  0  0  0
 44 46  2  0  0  0  0
 44 53  1  0  0  0  0
 45 46  1  0  0  0  0
 47 48  2  0  0  0  0
 47 50  1  0  0  0  0
 49 43  1  6  0  0  0
 49 48  1  0  0  0  0
 49 44  1  0  0  0  0
 50 45  2  0  0  0  0
 51 52  1  0  0  0  0
 52 50  1  0  0  0  0
 53 54  1  0  0  0  0
 55 58  1  0  0  0  0
 56 54  1  6  0  0  0
 56 55  1  0  0  0  0
 57 58  1  0  0  0  0
 59 56  1  0  0  0  0
 59 57  1  0  0  0  0
M  END
>  <MODEL>
5

>  <REMARK>
 VINA RESULT:       2.0      2.078      3.357
  Name = 
  26 active torsions:
  status: ('A' for Active; 'I' for Inactive)
    1  A    between atoms: C_1  and  C_50
    2  A    between atoms: C_3  and  C_5
    3  A    between atoms: C_4  and  C_18
    4  A    between atoms: C_5  and  C_6
    5  A    between atoms: C_5  and  C_29
    6  A    between atoms: C_6  and  C_57
    7  A    between atoms: O_13  and  C_38
    8  A    between atoms: O_13  and  C_54
    9  A    between atoms: N_15  and  C_42
   10  A    between atoms: C_17  and  C_28
   11  A    between atoms: C_17  and  C_47
   12  A    between atoms: C_18  and  C_53
   13  A    between atoms: C_18  and  C_59
   14  A    between atoms: C_20  and  C_21
   15  A    between atoms: C_21  and  O_30
   16  A    between atoms: C_23  and  C_33
   17  A    between atoms: C_25  and  C_28
   18  A    between atoms: O_30  and  N_56
   19  A    between atoms: C_33  and  C_50
   20  A    between atoms: C_34  and  O_58
   21  A    between atoms: C_37  and  C_42
   22  A    between atoms: C_38  and  C_39
   23  A    between atoms: C_41  and  C_46
   24  A    between atoms: C_42  and  C_47
   25  A    between atoms: C_43  and  N_56
   26  A    between atoms: C_54  and  C_57
                            x       y       z     vdW  Elec       q    Type
                         _______ _______ _______ _____ _____    ______ ____

>  <TORSDO>
F 26

$$$$
=
 OpenBabel11042422023D

 59 61  0  0  1  0  0  0  0  0999 V2000
  162.7110  206.6340  148.0440 C   0  0  0  0  0  2  0  0  0  0  0  0
  160.8740  205.5760  146.6510 C   0  0  1  0  0  3  0  0  0  0  0  0
  161.7880  205.4280  147.8840 C   0  0  1  0  0  3  0  0  0  0  0  0
  161.8700  207.9020  148.2200 C   0  0  2  0  0  3  0  0  0  0  0  0
  160.0300  206.8540  146.8230 C   0  0  2  0  0  3  0  0  0  0  0  0
  160.9200  208.0870  147.0360 C   0  0  0  0  0  2  0  0  0  0  0  0
  162.5160  204.1240  147.9610 C   0  0  0  0  0  0  0  0  0  0  0  0
  163.7410  204.0860  147.6670 O   0  0  0  0  0  0  0  0  0  0  0  0
  161.8580  202.9760  148.4160 O   0  0  0  0  0  0  0  0  0  0  0  0
  161.8850  202.5650  149.7360 N   0  0  0  0  0  2  0  0  0  0  0  0
  159.6820  201.6050  150.5450 C   0  0  0  0  0  1  0  0  0  0  0  0
  160.5360  203.7320  151.2700 C   0  0  0  0  0  0  0  0  0  0  0  0
  160.7620  202.6280  150.6210 C   0  0  0  0  0  0  0  0  0  0  0  0
  160.3100  204.8500  151.9110 C   0  0  0  0  0  3  0  0  0  0  0  0
  161.3770  205.8810  152.1550 C   0  0  2  0  0  0  0  0  0  0  0  0
  161.6710  205.9470  153.6470 C   0  0  0  0  0  1  0  0  0  0  0  0
  160.5250  208.1870  152.8310 C   0  0  0  0  0  1  0  0  0  0  0  0
  160.9280  207.2710  151.6820 C   0  0  0  0  0  2  0  0  0  0  0  0
  162.6470  205.4390  151.4210 C   0  0  0  0  0  2  0  0  0  0  0  0
  163.7880  205.7170  152.1800 O   0  0  0  0  0  1  0  0  0  0  0  0
  159.6660  205.6930  148.6750 C   0  0  0  0  0  1  0  0  0  0  0  0
  159.1370  206.7130  147.8870 O   0  0  0  0  0  0  0  0  0  0  0  0
  162.7720  209.1180  148.3300 C   0  0  0  0  0  2  0  0  0  0  0  0
  161.9590  210.3530  148.6950 C   0  0  0  0  0  2  0  0  0  0  0  0
  163.4480  212.3220  148.1990 C   0  0  0  0  0  1  0  0  0  0  0  0
  162.2520  211.4960  147.7330 C   0  0  2  0  0  3  0  0  0  0  0  0
  160.9910  212.3410  147.4120 C   0  0  2  0  0  3  0  0  0  0  0  0
  160.9740  212.9080  145.9880 C   0  0  0  0  0  3  0  0  0  0  0  0
  160.7600  214.4110  145.9600 C   0  0  0  0  0  1  0  0  0  0  0  0
  159.9010  212.2280  145.1640 C   0  0  0  0  0  1  0  0  0  0  0  0
  160.9100  212.9650  149.7800 C   0  0  0  0  0  1  0  0  0  0  0  0
  160.5120  213.3090  148.4220 N   0  0  0  0  0  0  0  0  0  0  0  0
  159.0600  213.3480  148.3780 C   0  0  0  0  0  1  0  0  0  0  0  0
  161.6490  205.5490  145.3040 C   0  0  1  0  0  3  0  0  0  0  0  0
  163.2320  203.9420  144.5740 O   0  0  0  0  0  0  0  0  0  0  0  0
  162.0800  204.1660  144.9110 C   0  0  0  0  0  0  0  0  0  0  0  0
  161.0960  203.0460  144.9500 C   0  0  0  0  0  1  0  0  0  0  0  0
  160.9240  206.2390  144.1420 C   0  0  0  0  0  2  0  0  0  0  0  0
  161.4470  205.8040  142.7830 C   0  0  0  0  0  2  0  0  0  0  0  0
  161.9070  207.0240  142.0230 C   0  0  0  0  0  2  0  0  0  0  0  0
  161.5280  206.9120  140.6600 O   0  0  0  0  0  0  0  0  0  0  0  0
  162.6400  207.8240  138.8760 O   0  0  0  0  0  0  0  0  0  0  0  0
  161.7410  207.9490  139.7490 C   0  0  0  0  0  0  0  0  0  0  0  0
  160.3920  209.5690  138.4090 C   0  0  0  0  0  0  0  0  0  0  0  0
  162.5100  210.7530  137.7470 C   0  0  0  0  0  3  0  0  0  0  0  0
  161.1600  210.2050  137.5200 C   0  0  0  0  0  3  0  0  0  0  0  0
  162.3910  211.1140  140.2160 C   0  0  0  0  0  3  0  0  0  0  0  0
  161.4100  210.2970  140.5950 C   0  0  0  0  0  3  0  0  0  0  0  0
  160.8670  209.1730  139.7710 C   0  0  2  0  0  3  0  0  0  0  0  0
  163.0690  211.1200  138.9070 C   0  0  0  0  0  0  0  0  0  0  0  0
  164.4070  213.0600  138.8220 O   0  0  0  0  0  1  0  0  0  0  0  0
  164.4560  211.6640  138.8610 C   0  0  0  0  0  2  0  0  0  0  0  0
  159.0760  209.0310  137.9590 C   0  0  0  0  0  2  0  0  0  0  0  0
  158.3930  210.0040  137.0120 C   0  0  0  0  0  2  0  0  0  0  0  0
  158.4770  212.4110  137.6570 C   0  0  0  0  0  2  0  0  0  0  0  0
  157.7140  211.1160  137.8000 C   0  0  2  0  0  3  0  0  0  0  0  0
  157.6890  211.9890  139.8570 C   0  0  0  0  0  2  0  0  0  0  0  0
  158.4010  213.0270  139.0200 C   0  0  0  0  0  2  0  0  0  0  0  0
  157.6720  210.7720  139.1580 O   0  0  0  0  0  0  0  0  0  0  0  0
  1  4  1  0  0  0  0
  2 34  1  6  0  0  0
  2  5  1  0  0  0  0
  2  3  1  0  0  0  0
  3  7  1  6  0  0  0
  3  1  1  0  0  0  0
  4 23  1  6  0  0  0
  5  6  1  0  0  0  0
  5 22  1  1  0  0  0
  6  4  1  0  0  0  0
  7  9  1  0  0  0  0
  8  7  2  0  0  0  0
  9 10  1  0  0  0  0
 10 13  1  0  0  0  0
 11 13  1  0  0  0  0
 12 14  2  0  0  0  0
 13 12  2  0  0  0  0
 14 15  1  0  0  0  0
 15 16  1  1  0  0  0
 18 15  1  0  0  0  0
 18 17  1  0  0  0  0
 19 15  1  0  0  0  0
 19 20  1  0  0  0  0
 22 21  1  0  0  0  0
 23 24  1  0  0  0  0
 26 25  1  1  0  0  0
 26 24  1  0  0  0  0
 27 28  1  6  0  0  0
 27 26  1  0  0  0  0
 27 32  1  0  0  0  0
 29 28  1  0  0  0  0
 30 28  1  0  0  0  0
 32 31  1  0  0  0  0
 33 32  1  0  0  0  0
 34 38  1  6  0  0  0
 35 36  2  0  0  0  0
 36 37  1  0  0  0  0
 36 34  1  0  0  0  0
 39 38  1  0  0  0  0
 40 39  1  0  0  0  0
 41 40  1  0  0  0  0
 42 43  2  0  0  0  0
 43 41  1  0  0  0  0
 44 49  1  0  0  0  0
 45 50  2  0  0  0  0
 46 45  1  0  0  0  0
 46 44  2  0  0  0  0
 47 48  2  0  0  0  0
 49 43  1  6  0  0  0
 49 48  1  0  0  0  0
 50 47  1  0  0  0  0
 51 52  1  0  0  0  0
 52 50  1  0  0  0  0
 53 44  1  0  0  0  0
 54 53  1  0  0  0  0
 55 56  1  0  0  0  0
 55 58  1  0  0  0  0
 56 54  1  6  0  0  0
 56 59  1  0  0  0  0
 58 57  1  0  0  0  0
 59 57  1  0  0  0  0
M  END
>  <MODEL>
6

>  <REMARK>
 VINA RESULT:       2.7      2.950      8.516
  Name = 
  26 active torsions:
  status: ('A' for Active; 'I' for Inactive)
    1  A    between atoms: C_1  and  C_50
    2  A    between atoms: C_3  and  C_5
    3  A    between atoms: C_4  and  C_18
    4  A    between atoms: C_5  and  C_6
    5  A    between atoms: C_5  and  C_29
    6  A    between atoms: C_6  and  C_57
    7  A    between atoms: O_13  and  C_38
    8  A    between atoms: O_13  and  C_54
    9  A    between atoms: N_15  and  C_42
   10  A    between atoms: C_17  and  C_28
   11  A    between atoms: C_17  and  C_47
   12  A    between atoms: C_18  and  C_53
   13  A    between atoms: C_18  and  C_59
   14  A    between atoms: C_20  and  C_21
   15  A    between atoms: C_21  and  O_30
   16  A    between atoms: C_23  and  C_33
   17  A    between atoms: C_25  and  C_28
   18  A    between atoms: O_30  and  N_56
   19  A    between atoms: C_33  and  C_50
   20  A    between atoms: C_34  and  O_58
   21  A    between atoms: C_37  and  C_42
   22  A    between atoms: C_38  and  C_39
   23  A    between atoms: C_41  and  C_46
   24  A    between atoms: C_42  and  C_47
   25  A    between atoms: C_43  and  N_56
   26  A    between atoms: C_54  and  C_57
                            x       y       z     vdW  Elec       q    Type
                         _______ _______ _______ _____ _____    ______ ____

>  <TORSDO>
F 26

$$$$
