=
 OpenBabel11052411113D

 44 49  0  0  1  0  0  0  0  0999 V2000
  158.9180  212.8850  154.5050 N   0  0  0  0  0  0  0  0  0  0  0  0
  161.1890  210.4110  150.9760 C   0  0  0  0  0  0  0  0  0  0  0  0
  160.1750  213.3150  150.1640 C   0  0  0  0  0  3  0  0  0  0  0  0
  159.5460  212.0870  153.6370 C   0  0  0  0  0  0  0  0  0  0  0  0
  161.2980  211.1200  149.7740 C   0  0  0  0  0  3  0  0  0  0  0  0
  159.9480  212.1470  152.3320 C   0  0  0  0  0  0  0  0  0  0  0  0
  158.9100  212.0980  155.6240 C   0  0  0  0  0  0  0  0  0  0  0  0
  160.5350  210.1940  153.2730 O   0  0  0  0  0  0  0  0  0  0  0  0
  159.5380  210.8430  155.4570 C   0  0  0  0  0  3  0  0  0  0  0  0
  160.5770  210.9010  152.1380 C   0  0  0  0  0  0  0  0  0  0  0  0
  159.9080  210.9370  154.1440 C   0  0  0  0  0  0  0  0  0  0  0  0
  159.7580  213.2190  151.4800 C   0  0  0  0  0  3  0  0  0  0  0  0
  160.8680  212.3890  149.3910 C   0  0  0  0  0  0  0  0  0  0  0  0
  160.9360  203.6800  151.3240 C   0  0  0  0  0  0  0  0  0  0  0  0
  161.8220  206.0040  151.4370 C   0  0  0  0  0  0  0  0  0  0  0  0
  162.3960  208.5210  149.7560 C   0  0  0  0  0  3  0  0  0  0  0  0
  162.4570  207.0370  152.3070 C   0  0  0  0  0  2  0  0  0  0  0  0
  160.4260  202.6880  151.9080 O   0  0  0  0  0  0  0  0  0  0  0  0
  161.7780  209.0490  150.9960 C   0  0  0  0  0  0  0  0  0  0  0  0
  161.2570  204.8530  152.0730 N   0  0  0  0  0  2  0  0  0  0  0  0
  162.4350  207.2420  149.3660 C   0  0  0  0  0  3  0  0  0  0  0  0
  161.8720  206.0840  150.0910 C   0  0  0  0  0  0  0  0  0  0  0  0
  161.7960  208.3650  152.1470 C   0  0  0  0  0  3  0  0  0  0  0  0
  161.3200  203.6190  149.8730 C   0  0  2  0  0  3  0  0  0  0  0  0
  161.2410  205.0120  149.2420 C   0  0  0  0  0  2  0  0  0  0  0  0
  159.7640  201.8080  149.7100 O   0  0  0  0  0  0  0  0  0  0  0  0
  160.4760  202.6540  149.1000 C   0  0  0  0  0  0  0  0  0  0  0  0
  160.5090  202.6990  147.6990 O   0  0  0  0  0  0  0  0  0  0  0  0
  160.4730  201.5630  145.6680 O   0  0  0  0  0  0  0  0  0  0  0  0
  160.8390  201.6190  146.8720 C   0  0  0  0  0  3  0  0  0  0  0  0
  161.1640  212.7790  148.0420 C   0  0  0  0  0  0  0  0  0  0  0  0
  161.4180  213.1040  146.9090 C   0  0  0  0  0  0  0  0  0  0  0  0
  163.2010  213.2340  145.2320 C   0  0  0  0  0  2  0  0  0  0  0  0
  160.3720  212.3660  142.1340 C   0  0  0  0  0  1  0  0  0  0  0  0
  161.4530  212.4890  143.1860 C   0  0  2  0  0  3  0  0  0  0  0  0
  160.8130  212.7380  144.5580 C   0  0  0  0  0  2  0  0  0  0  0  0
  162.4230  213.6060  142.8120 C   0  0  0  0  0  2  0  0  0  0  0  0
  161.7280  213.4950  145.5320 C   0  0  1  0  0  3  0  0  0  0  0  0
  163.5730  213.7180  143.8230 C   0  0  0  0  0  2  0  0  0  0  0  0
  158.3300  212.5600  156.9190 C   0  0  0  0  0  2  0  0  0  0  0  0
  155.5660  211.7370  156.8770 C   0  0  0  0  0  1  0  0  0  0  0  0
  154.9750  214.1930  156.4100 C   0  0  0  0  0  1  0  0  0  0  0  0
  156.0100  213.1520  156.6640 C   0  0  0  0  0  0  0  0  0  0  0  0
  157.2540  213.4920  156.6770 N   0  0  0  0  0  0  0  0  0  0  0  0
  1  7  2  0  0  0  0
  2 19  1  0  0  0  0
  2 10  2  0  0  0  0
  3 12  2  0  0  0  0
  4 11  1  0  0  0  0
  4  1  1  0  0  0  0
  5  2  1  0  0  0  0
  6  4  2  0  0  0  0
  7 40  1  0  0  0  0
  8 11  1  0  0  0  0
  9  7  1  0  0  0  0
 10  6  1  0  0  0  0
 10  8  1  0  0  0  0
 11  9  2  0  0  0  0
 12  6  1  0  0  0  0
 13  5  2  0  0  0  0
 13  3  1  0  0  0  0
 14 18  2  0  0  0  0
 14 20  1  0  0  0  0
 15 20  1  0  0  0  0
 15 17  1  0  0  0  0
 16 19  1  0  0  0  0
 19 23  2  0  0  0  0
 21 16  2  0  0  0  0
 21 22  1  0  0  0  0
 22 15  2  0  0  0  0
 23 17  1  0  0  0  0
 24 27  1  6  0  0  0
 24 14  1  0  0  0  0
 25 24  1  0  0  0  0
 25 22  1  0  0  0  0
 27 26  2  0  0  0  0
 28 27  1  0  0  0  0
 29 30  2  0  0  0  0
 30 28  1  0  0  0  0
 31 13  1  0  0  0  0
 32 31  3  0  0  0  0
 33 38  1  0  0  0  0
 35 34  1  6  0  0  0
 35 36  1  0  0  0  0
 36 38  1  0  0  0  0
 37 35  1  0  0  0  0
 37 39  1  0  0  0  0
 38 32  1  1  0  0  0
 39 33  1  0  0  0  0
 42 43  1  0  0  0  0
 43 44  2  0  0  0  0
 43 41  1  0  0  0  0
 44 40  1  0  0  0  0
M  END
>  <MODEL>
1

>  <REMARK>
 VINA RESULT:      -7.5      0.000      0.000
  Name = 
  8 active torsions:
  status: ('A' for Active; 'I' for Inactive)
    1  A    between atoms: C_3  and  C_22
    2  A    between atoms: O_4  and  C_30
    3  A    between atoms: O_4  and  C_39
    4  A    between atoms: C_10  and  C_41
    5  A    between atoms: C_11  and  C_24
    6  A    between atoms: C_11  and  N_43
    7  A    between atoms: C_30  and  C_38
    8  A    between atoms: C_34  and  C_42
                            x       y       z     vdW  Elec       q    Type
                         _______ _______ _______ _____ _____    ______ ____

>  <TORSDO>
F 8

$$$$
=
 OpenBabel11052411113D

 44 49  0  0  1  0  0  0  0  0999 V2000
  159.8000  211.7690  154.5720 N   0  0  0  0  0  0  0  0  0  0  0  0
  161.4910  209.7620  150.4680 C   0  0  0  0  0  0  0  0  0  0  0  0
  160.6800  212.8300  150.2470 C   0  0  0  0  0  3  0  0  0  0  0  0
  160.2680  211.0840  153.5250 C   0  0  0  0  0  0  0  0  0  0  0  0
  161.5520  210.6540  149.3900 C   0  0  0  0  0  3  0  0  0  0  0  0
  160.5490  211.3340  152.2110 C   0  0  0  0  0  0  0  0  0  0  0  0
  159.8240  210.8070  155.5450 C   0  0  0  0  0  0  0  0  0  0  0  0
  161.0370  209.2110  152.7570 O   0  0  0  0  0  0  0  0  0  0  0  0
  160.3140  209.5540  155.1120 C   0  0  0  0  0  3  0  0  0  0  0  0
  161.0390  210.0940  151.7530 C   0  0  0  0  0  0  0  0  0  0  0  0
  160.5670  209.8410  153.7990 C   0  0  0  0  0  0  0  0  0  0  0  0
  160.3810  212.5450  151.5680 C   0  0  0  0  0  3  0  0  0  0  0  0
  161.2080  211.9990  149.2660 C   0  0  0  0  0  0  0  0  0  0  0  0
  160.7500  203.4180  148.3000 C   0  0  0  0  0  0  0  0  0  0  0  0
  161.6520  205.3900  149.5260 C   0  0  0  0  0  0  0  0  0  0  0  0
  162.9690  208.1500  149.1530 C   0  0  0  0  0  3  0  0  0  0  0  0
  161.9570  205.9700  150.8670 C   0  0  0  0  0  2  0  0  0  0  0  0
  159.9990  202.4070  148.2810 O   0  0  0  0  0  0  0  0  0  0  0  0
  161.9500  208.3760  150.2050 C   0  0  0  0  0  0  0  0  0  0  0  0
  160.8210  204.2250  149.4770 N   0  0  0  0  0  2  0  0  0  0  0  0
  163.0850  207.0680  148.3740 C   0  0  0  0  0  3  0  0  0  0  0  0
  162.2220  205.8680  148.4010 C   0  0  0  0  0  0  0  0  0  0  0  0
  161.4840  207.3810  150.9710 C   0  0  0  0  0  3  0  0  0  0  0  0
  161.6610  203.7370  147.1480 C   0  0  2  0  0  3  0  0  0  0  0  0
  161.9100  205.2450  147.0660 C   0  0  0  0  0  2  0  0  0  0  0  0
  160.6450  204.0350  145.0020 O   0  0  0  0  0  0  0  0  0  0  0  0
  161.1290  203.2290  145.8440 C   0  0  0  0  0  0  0  0  0  0  0  0
  161.1680  201.8510  145.5900 O   0  0  0  0  0  0  0  0  0  0  0  0
  160.1300  199.8600  144.9730 O   0  0  0  0  0  0  0  0  0  0  0  0
  160.1360  201.1210  144.9880 C   0  0  0  0  0  3  0  0  0  0  0  0
  161.4120  212.5880  147.9720 C   0  0  0  0  0  0  0  0  0  0  0  0
  161.5870  213.0790  146.8850 C   0  0  0  0  0  0  0  0  0  0  0  0
  163.1560  213.2460  145.0100 C   0  0  0  0  0  2  0  0  0  0  0  0
  159.8770  213.4340  142.2600 C   0  0  0  0  0  1  0  0  0  0  0  0
  161.0770  213.1850  143.1480 C   0  0  2  0  0  3  0  0  0  0  0  0
  160.6560  213.2660  144.6210 C   0  0  0  0  0  2  0  0  0  0  0  0
  162.1820  214.1880  142.8280 C   0  0  0  0  0  2  0  0  0  0  0  0
  161.8000  213.6710  145.5630 C   0  0  1  0  0  3  0  0  0  0  0  0
  163.4430  213.9250  143.6630 C   0  0  0  0  0  2  0  0  0  0  0  0
  159.4140  211.0870  156.9520 C   0  0  0  0  0  2  0  0  0  0  0  0
  156.5990  210.9890  156.3310 C   0  0  0  0  0  1  0  0  0  0  0  0
  156.5340  213.5090  156.8250 C   0  0  0  0  0  1  0  0  0  0  0  0
  157.3120  212.2420  156.7390 C   0  0  0  0  0  0  0  0  0  0  0  0
  158.5750  212.2600  157.0010 N   0  0  0  0  0  0  0  0  0  0  0  0
  1  7  2  0  0  0  0
  2 10  2  0  0  0  0
  3 12  2  0  0  0  0
  4 11  1  0  0  0  0
  4  1  1  0  0  0  0
  5  2  1  0  0  0  0
  6  4  2  0  0  0  0
  7 40  1  0  0  0  0
  8 11  1  0  0  0  0
  9  7  1  0  0  0  0
 10  6  1  0  0  0  0
 10  8  1  0  0  0  0
 11  9  2  0  0  0  0
 12  6  1  0  0  0  0
 13  5  2  0  0  0  0
 13  3  1  0  0  0  0
 14 20  1  0  0  0  0
 15 17  1  0  0  0  0
 16 19  1  0  0  0  0
 17 23  1  0  0  0  0
 18 14  2  0  0  0  0
 19  2  1  0  0  0  0
 19 23  2  0  0  0  0
 20 15  1  0  0  0  0
 21 22  1  0  0  0  0
 21 16  2  0  0  0  0
 22 15  2  0  0  0  0
 24 27  1  6  0  0  0
 24 14  1  0  0  0  0
 25 24  1  0  0  0  0
 25 22  1  0  0  0  0
 26 27  2  0  0  0  0
 28 27  1  0  0  0  0
 29 30  2  0  0  0  0
 30 28  1  0  0  0  0
 31 13  1  0  0  0  0
 32 31  3  0  0  0  0
 33 38  1  0  0  0  0
 35 34  1  6  0  0  0
 35 36  1  0  0  0  0
 36 38  1  0  0  0  0
 37 35  1  0  0  0  0
 37 39  1  0  0  0  0
 38 32  1  1  0  0  0
 39 33  1  0  0  0  0
 40 44  1  0  0  0  0
 41 43  1  0  0  0  0
 43 42  1  0  0  0  0
 43 44  2  0  0  0  0
M  END
>  <MODEL>
2

>  <REMARK>
 VINA RESULT:      -6.2      1.288      1.819
  Name = 
  8 active torsions:
  status: ('A' for Active; 'I' for Inactive)
    1  A    between atoms: C_3  and  C_22
    2  A    between atoms: O_4  and  C_30
    3  A    between atoms: O_4  and  C_39
    4  A    between atoms: C_10  and  C_41
    5  A    between atoms: C_11  and  C_24
    6  A    between atoms: C_11  and  N_43
    7  A    between atoms: C_30  and  C_38
    8  A    between atoms: C_34  and  C_42
                            x       y       z     vdW  Elec       q    Type
                         _______ _______ _______ _____ _____    ______ ____

>  <TORSDO>
F 8

$$$$
=
 OpenBabel11052411113D

 44 49  0  0  1  0  0  0  0  0999 V2000
  161.3480  203.6420  149.9780 N   0  0  0  0  0  0  0  0  0  0  0  0
  161.3410  208.2810  151.4630 C   0  0  0  0  0  0  0  0  0  0  0  0
  161.5990  207.8600  148.3200 C   0  0  0  0  0  3  0  0  0  0  0  0
  161.3450  204.8580  150.5300 C   0  0  0  0  0  0  0  0  0  0  0  0
  161.4350  209.2060  150.4160 C   0  0  0  0  0  3  0  0  0  0  0  0
  161.4210  206.1530  150.1000 C   0  0  0  0  0  0  0  0  0  0  0  0
  161.2180  202.8510  151.0860 C   0  0  0  0  0  0  0  0  0  0  0  0
  161.1960  206.0510  152.3320 O   0  0  0  0  0  0  0  0  0  0  0  0
  161.1180  203.5650  152.3020 C   0  0  0  0  0  3  0  0  0  0  0  0
  161.3260  206.8890  151.2980 C   0  0  0  0  0  0  0  0  0  0  0  0
  161.2130  204.8460  151.8310 C   0  0  0  0  0  0  0  0  0  0  0  0
  161.5440  206.5570  148.7840 C   0  0  0  0  0  3  0  0  0  0  0  0
  161.5460  209.0520  149.0350 C   0  0  0  0  0  0  0  0  0  0  0  0
  159.3820  212.8150  156.0550 C   0  0  0  0  0  0  0  0  0  0  0  0
  160.6670  210.9790  154.9690 C   0  0  0  0  0  0  0  0  0  0  0  0
  160.4330  208.1210  153.8430 C   0  0  0  0  0  3  0  0  0  0  0  0
  162.0120  210.5250  154.5080 C   0  0  0  0  0  2  0  0  0  0  0  0
  159.2610  214.0400  156.3210 O   0  0  0  0  0  0  0  0  0  0  0  0
  161.2450  208.8420  152.8330 C   0  0  0  0  0  0  0  0  0  0  0  0
  160.5080  212.3620  155.3030 N   0  0  0  0  0  2  0  0  0  0  0  0
  159.7470  208.6690  154.8530 C   0  0  0  0  0  3  0  0  0  0  0  0
  159.6580  210.1080  155.1780 C   0  0  0  0  0  0  0  0  0  0  0  0
  161.9480  209.9400  153.1370 C   0  0  0  0  0  3  0  0  0  0  0  0
  158.4240  211.7980  156.6080 C   0  0  2  0  0  3  0  0  0  0  0  0
  158.3200  210.5960  155.6660 C   0  0  0  0  0  2  0  0  0  0  0  0
  156.9500  213.5670  157.2600 O   0  0  0  0  0  0  0  0  0  0  0  0
  157.0650  212.3740  156.8630 C   0  0  0  0  0  0  0  0  0  0  0  0
  155.9400  211.5610  156.6690 O   0  0  0  0  0  0  0  0  0  0  0  0
  155.1980  209.8650  155.2580 O   0  0  0  0  0  0  0  0  0  0  0  0
  155.5120  211.0740  155.4280 C   0  0  0  0  0  3  0  0  0  0  0  0
  161.6260  210.2610  148.2670 C   0  0  0  0  0  0  0  0  0  0  0  0
  161.6970  211.2760  147.6190 C   0  0  0  0  0  0  0  0  0  0  0  0
  163.1370  212.5800  146.1240 C   0  0  0  0  0  2  0  0  0  0  0  0
  159.6960  213.9080  143.9430 C   0  0  0  0  0  1  0  0  0  0  0  0
  160.9620  213.3350  144.5440 C   0  0  2  0  0  3  0  0  0  0  0  0
  160.6240  212.5660  145.8280 C   0  0  0  0  0  2  0  0  0  0  0  0
  161.9660  214.4530  144.8120 C   0  0  0  0  0  2  0  0  0  0  0  0
  161.7860  212.5060  146.8300 C   0  0  1  0  0  3  0  0  0  0  0  0
  163.2900  213.9030  145.3600 C   0  0  0  0  0  2  0  0  0  0  0  0
  161.1370  201.3640  150.9990 C   0  0  0  0  0  2  0  0  0  0  0  0
  159.4810  201.3490  148.6380 C   0  0  0  0  0  1  0  0  0  0  0  0
  161.5170  200.4290  147.3710 C   0  0  0  0  0  1  0  0  0  0  0  0
  160.9120  200.9070  148.6460 C   0  0  0  0  0  0  0  0  0  0  0  0
  161.6280  200.9140  149.7180 N   0  0  0  0  0  0  0  0  0  0  0  0
  1  4  1  0  0  0  0
  1  7  2  0  0  0  0
  2 19  1  0  0  0  0
  3 12  2  0  0  0  0
  3 13  1  0  0  0  0
  4 11  1  0  0  0  0
  5  2  1  0  0  0  0
  6  4  2  0  0  0  0
  6 10  1  0  0  0  0
  7  9  1  0  0  0  0
 10  2  2  0  0  0  0
 10  8  1  0  0  0  0
 11  9  2  0  0  0  0
 11  8  1  0  0  0  0
 12  6  1  0  0  0  0
 13  5  2  0  0  0  0
 14 18  2  0  0  0  0
 14 24  1  0  0  0  0
 15 22  2  0  0  0  0
 15 20  1  0  0  0  0
 16 21  2  0  0  0  0
 17 15  1  0  0  0  0
 19 23  2  0  0  0  0
 19 16  1  0  0  0  0
 20 14  1  0  0  0  0
 21 22  1  0  0  0  0
 22 25  1  0  0  0  0
 23 17  1  0  0  0  0
 24 27  1  6  0  0  0
 25 24  1  0  0  0  0
 27 26  2  0  0  0  0
 28 27  1  0  0  0  0
 29 30  2  0  0  0  0
 30 28  1  0  0  0  0
 31 13  1  0  0  0  0
 32 31  3  0  0  0  0
 33 38  1  0  0  0  0
 35 34  1  1  0  0  0
 35 37  1  0  0  0  0
 35 36  1  0  0  0  0
 36 38  1  0  0  0  0
 37 39  1  0  0  0  0
 38 32  1  6  0  0  0
 39 33  1  0  0  0  0
 40  7  1  0  0  0  0
 41 43  1  0  0  0  0
 42 43  1  0  0  0  0
 43 44  2  0  0  0  0
 44 40  1  0  0  0  0
M  END
>  <MODEL>
3

>  <REMARK>
 VINA RESULT:      -5.7      2.571      8.769
  Name = 
  8 active torsions:
  status: ('A' for Active; 'I' for Inactive)
    1  A    between atoms: C_3  and  C_22
    2  A    between atoms: O_4  and  C_30
    3  A    between atoms: O_4  and  C_39
    4  A    between atoms: C_10  and  C_41
    5  A    between atoms: C_11  and  C_24
    6  A    between atoms: C_11  and  N_43
    7  A    between atoms: C_30  and  C_38
    8  A    between atoms: C_34  and  C_42
                            x       y       z     vdW  Elec       q    Type
                         _______ _______ _______ _____ _____    ______ ____

>  <TORSDO>
F 8

$$$$
=
 OpenBabel11052411113D

 44 49  0  0  1  0  0  0  0  0999 V2000
  162.0300  205.5760  148.7280 N   0  0  0  0  0  0  0  0  0  0  0  0
  161.4020  210.3390  149.5330 C   0  0  0  0  0  0  0  0  0  0  0  0
  160.7660  208.4470  152.0100 C   0  0  0  0  0  3  0  0  0  0  0  0
  161.8910  206.9030  148.7980 C   0  0  0  0  0  0  0  0  0  0  0  0
  160.9860  210.6390  150.8360 C   0  0  0  0  0  3  0  0  0  0  0  0
  161.5150  207.8220  149.7380 C   0  0  0  0  0  0  0  0  0  0  0  0
  162.4650  205.4270  147.4400 C   0  0  0  0  0  0  0  0  0  0  0  0
  162.0810  208.8200  147.8070 O   0  0  0  0  0  0  0  0  0  0  0  0
  162.6100  206.6410  146.7300 C   0  0  0  0  0  3  0  0  0  0  0  0
  161.6480  209.0460  149.0520 C   0  0  0  0  0  0  0  0  0  0  0  0
  162.2120  207.5260  147.6940 C   0  0  0  0  0  0  0  0  0  0  0  0
  161.1280  207.5350  151.0330 C   0  0  0  0  0  3  0  0  0  0  0  0
  160.7040  209.8340  151.9380 C   0  0  0  0  0  0  0  0  0  0  0  0
  162.7320  213.2330  143.5870 C   0  0  0  0  0  0  0  0  0  0  0  0
  162.4690  212.9330  146.0460 C   0  0  0  0  0  0  0  0  0  0  0  0
  160.4190  212.3230  148.2620 C   0  0  0  0  0  3  0  0  0  0  0  0
  163.1530  212.9890  147.3710 C   0  0  0  0  0  2  0  0  0  0  0  0
  163.4740  213.2240  142.5700 O   0  0  0  0  0  0  0  0  0  0  0  0
  161.5940  211.4930  148.6190 C   0  0  0  0  0  0  0  0  0  0  0  0
  163.2880  212.9480  144.8710 N   0  0  0  0  0  0  0  0  0  0  0  0
  160.2170  212.9640  147.1050 C   0  0  0  0  0  3  0  0  0  0  0  0
  161.1250  212.9820  145.9400 C   0  0  2  0  0  3  0  0  0  0  0  0
  162.8300  211.7910  148.2010 C   0  0  0  0  0  3  0  0  0  0  0  0
  161.2890  213.6450  143.4980 C   0  0  2  0  0  3  0  0  0  0  0  0
  160.4670  212.9480  144.5860 C   0  0  0  0  0  2  0  0  0  0  0  0
  160.6340  212.1860  141.7180 O   0  0  0  0  0  0  0  0  0  0  0  0
  160.7000  213.3710  142.1490 C   0  0  0  0  0  0  0  0  0  0  0  0
  160.2460  214.4500  141.3790 O   0  0  0  0  0  0  0  0  0  0  0  0
  157.9340  214.3230  141.1410 O   0  0  0  0  0  0  0  0  0  0  0  0
  159.0730  214.4490  140.6160 C   0  0  0  0  0  3  0  0  0  0  0  0
  160.2910  210.5170  153.1320 C   0  0  0  0  0  0  0  0  0  0  0  0
  159.9410  211.0930  154.1320 C   0  0  0  0  0  0  0  0  0  0  0  0
  159.8650  213.2750  155.2460 C   0  0  0  0  0  2  0  0  0  0  0  0
  156.1000  212.2560  157.0190 C   0  0  0  0  0  1  0  0  0  0  0  0
  157.3260  212.7550  156.2840 C   0  0  2  0  0  3  0  0  0  0  0  0
  158.0060  211.5860  155.5590 C   0  0  0  0  0  2  0  0  0  0  0  0
  158.2800  213.4360  157.2610 C   0  0  0  0  0  2  0  0  0  0  0  0
  159.5120  211.7940  155.3440 C   0  0  1  0  0  3  0  0  0  0  0  0
  159.5050  214.0160  156.5420 C   0  0  0  0  0  2  0  0  0  0  0  0
  162.8040  204.0940  146.8620 C   0  0  0  0  0  2  0  0  0  0  0  0
  161.1340  201.7720  147.2370 C   0  0  0  0  0  1  0  0  0  0  0  0
  160.0340  202.3610  144.9920 C   0  0  0  0  0  1  0  0  0  0  0  0
  161.0390  202.6750  146.0450 C   0  0  0  0  0  0  0  0  0  0  0  0
  161.8050  203.7020  145.8970 N   0  0  0  0  0  0  0  0  0  0  0  0
  1  4  1  0  0  0  0
  2  5  1  0  0  0  0
  4  6  2  0  0  0  0
  5 13  2  0  0  0  0
  6 12  1  0  0  0  0
  7  1  2  0  0  0  0
  8 10  1  0  0  0  0
  9  7  1  0  0  0  0
  9 11  2  0  0  0  0
 10  2  2  0  0  0  0
 10  6  1  0  0  0  0
 11  8  1  0  0  0  0
 11  4  1  0  0  0  0
 12  3  2  0  0  0  0
 13  3  1  0  0  0  0
 13 31  1  0  0  0  0
 14 20  1  0  0  0  0
 15 17  1  0  0  0  0
 16 19  1  0  0  0  0
 17 23  1  0  0  0  0
 18 14  2  0  0  0  0
 19  2  1  0  0  0  0
 20 15  2  0  0  0  0
 21 16  2  0  0  0  0
 22 25  1  6  0  0  0
 22 15  1  0  0  0  0
 22 21  1  0  0  0  0
 23 19  2  0  0  0  0
 24 27  1  6  0  0  0
 24 14  1  0  0  0  0
 24 25  1  0  0  0  0
 26 27  2  0  0  0  0
 28 27  1  0  0  0  0
 30 29  2  0  0  0  0
 30 28  1  0  0  0  0
 31 32  3  0  0  0  0
 33 38  1  0  0  0  0
 33 39  1  0  0  0  0
 35 34  1  1  0  0  0
 35 37  1  0  0  0  0
 36 35  1  0  0  0  0
 38 32  1  6  0  0  0
 38 36  1  0  0  0  0
 39 37  1  0  0  0  0
 40  7  1  0  0  0  0
 42 43  1  0  0  0  0
 43 41  1  0  0  0  0
 44 43  2  0  0  0  0
 44 40  1  0  0  0  0
M  END
>  <MODEL>
4

>  <REMARK>
 VINA RESULT:      -5.6      4.429     10.639
  Name = 
  8 active torsions:
  status: ('A' for Active; 'I' for Inactive)
    1  A    between atoms: C_3  and  C_22
    2  A    between atoms: O_4  and  C_30
    3  A    between atoms: O_4  and  C_39
    4  A    between atoms: C_10  and  C_41
    5  A    between atoms: C_11  and  C_24
    6  A    between atoms: C_11  and  N_43
    7  A    between atoms: C_30  and  C_38
    8  A    between atoms: C_34  and  C_42
                            x       y       z     vdW  Elec       q    Type
                         _______ _______ _______ _____ _____    ______ ____

>  <TORSDO>
F 8

$$$$
