=
 OpenBabel11052410303D

 57 61  0  0  1  0  0  0  0  0999 V2000
  159.5310  212.8170  150.6560 C   0  0  0  0  0  3  0  0  0  0  0  0
  159.5470  213.1220  149.3530 C   0  0  0  0  0  3  0  0  0  0  0  0
  159.9850  214.4520  148.8220 C   0  0  0  0  0  2  0  0  0  0  0  0
  160.9100  214.3150  147.6220 C   0  0  1  0  0  3  0  0  0  0  0  0
  161.7590  213.2250  147.8210 O   0  0  0  0  0  1  0  0  0  0  0  0
  159.8920  211.7310  146.7200 F   0  0  0  0  0  0  0  0  0  0  0  0
  157.9740  213.0320  144.7150 C   0  0  0  0  0  3  0  0  0  0  0  0
  159.3880  212.5360  144.5230 C   0  0  2  0  0  3  0  0  0  0  0  0
  157.6500  213.8690  145.7050 C   0  0  0  0  0  3  0  0  0  0  0  0
  160.0640  214.0950  146.3720 C   0  0  2  0  0  3  0  0  0  0  0  0
  158.6450  214.3340  146.6290 N   0  0  0  0  0  2  0  0  0  0  0  0
  160.2550  212.6900  145.7890 C   0  0  1  0  0  3  0  0  0  0  0  0
  159.9980  213.0360  143.1950 C   0  0  2  0  0  3  0  0  0  0  0  0
  159.2930  212.4920  141.9590 C   0  0  2  0  0  3  0  0  0  0  0  0
  160.6430  211.9070  142.4020 C   0  0  1  0  0  3  0  0  0  0  0  0
  163.1500  213.3080  142.5850 O   0  0  0  0  0  1  0  0  0  0  0  0
  162.1240  212.5090  141.5030 P   0  0  1  0  0  0  0  0  0  0  0  0
  162.8710  211.3650  140.8500 O   0  0  0  0  0  0  0  0  0  0  0  0
  161.5860  213.6780  140.2220 C   0  0  0  0  0  2  0  0  0  0  0  0
  161.8450  213.5760  137.7900 C   0  0  0  0  0  2  0  0  0  0  0  0
  162.5690  213.6600  139.0700 C   0  0  2  0  0  3  0  0  0  0  0  0
  162.4390  212.4480  138.3750 O   0  0  0  0  0  0  0  0  0  0  0  0
  159.3400  213.5200  140.8350 C   0  0  0  0  0  2  0  0  0  0  0  0
  158.2450  213.2420  139.8110 C   0  0  2  0  0  3  0  0  0  0  0  0
  158.8010  212.9260  138.5650 O   0  0  0  0  0  0  0  0  0  0  0  0
  157.8970  212.0300  137.9860 C   0  0  0  0  0  1  0  0  0  0  0  0
  157.3010  214.4400  139.6880 C   0  0  0  0  0  2  0  0  0  0  0  0
  155.8830  214.0330  139.4570 C   0  0  0  0  0  0  0  0  0  0  0  0
  155.4390  213.9290  138.2870 O   0  0  0  0  0  0  0  0  0  0  0  0
  155.0430  213.8110  140.5390 O   0  0  0  0  0  1  0  0  0  0  0  0
  160.1120  213.9370  151.9420 S   0  0  0  0  0  0  0  0  0  0  0  0
  159.3660  213.0370  153.3560 C   0  0  2  0  0  3  0  0  0  0  0  0
  160.5690  208.9470  154.2410 C   0  0  0  0  0  2  0  0  0  0  0  0
  160.9850  211.3980  154.6030 C   0  0  0  0  0  2  0  0  0  0  0  0
  161.6300  210.0180  154.4850 C   0  0  0  0  0  2  0  0  0  0  0  0
  159.8410  209.2340  152.9240 C   0  0  1  0  0  3  0  0  0  0  0  0
  159.8880  211.6490  153.5890 C   0  0  0  0  0  0  0  0  0  0  0  0
  159.3320  210.6490  152.8850 C   0  0  0  0  0  3  0  0  0  0  0  0
  160.7620  209.0200  151.7290 C   0  0  0  0  0  2  0  0  0  0  0  0
  160.5110  207.6720  151.0630 C   0  0  0  0  0  2  0  0  0  0  0  0
  162.6890  208.1670  150.0100 C   0  0  0  0  0  1  0  0  0  0  0  0
  161.8010  207.0220  150.4940 C   0  0  2  0  0  0  0  0  0  0  0  0
  160.6560  206.7910  147.1810 C   0  0  0  0  0  2  0  0  0  0  0  0
  162.5710  206.0840  148.3550 O   0  0  0  0  0  0  0  0  0  0  0  0
  162.0000  206.1330  147.0730 C   0  0  0  0  0  2  0  0  0  0  0  0
  161.5090  206.0430  149.2890 C   0  0  2  0  0  0  0  0  0  0  0  0
  160.2260  206.4360  148.5630 C   0  0  0  0  0  2  0  0  0  0  0  0
  161.3020  204.5940  149.7720 C   0  0  0  0  0  2  0  0  0  0  0  0
  162.0720  203.0160  148.0290 C   0  0  0  0  0  1  0  0  0  0  0  0
  160.0130  202.5200  149.2910 C   0  0  0  0  0  1  0  0  0  0  0  0
  160.8530  203.6240  148.6850 C   0  0  0  0  0  3  0  0  0  0  0  0
  162.5420  206.3850  151.5250 O   0  0  0  0  0  0  0  0  0  0  0  0
  161.5630  205.6460  153.5680 C   0  0  0  0  0  1  0  0  0  0  0  0
  161.8090  205.3370  152.1060 C   0  0  0  0  0  2  0  0  0  0  0  0
  157.1570  212.6290  152.5050 O   0  0  0  0  0  0  0  0  0  0  0  0
  157.2680  213.8280  154.4470 O   0  0  0  0  0  1  0  0  0  0  0  0
  157.8710  213.1380  153.4070 C   0  0  0  0  0  0  0  0  0  0  0  0
  1 31  1  0  0  0  0
  2  1  2  0  0  0  0
  3  2  1  0  0  0  0
  4  5  1  1  0  0  0
  4  3  1  0  0  0  0
  7  9  2  0  0  0  0
  8  7  1  1  0  0  0
  8 12  1  0  0  0  0
  9 11  1  0  0  0  0
 10 11  1  0  0  0  0
 10  4  1  1  0  0  0
 12 10  1  0  0  0  0
 12  6  1  1  0  0  0
 13  8  1  1  0  0  0
 14 23  1  6  0  0  0
 14 15  1  0  0  0  0
 14 13  1  0  0  0  0
 15 17  1  6  0  0  0
 15 13  1  0  0  0  0
 17 18  2  6  0  0  0
 17 16  1  0  0  0  0
 19 17  1  0  0  0  0
 20 22  1  0  0  0  0
 20 21  1  0  0  0  0
 21 19  1  1  0  0  0
 22 21  1  0  0  0  0
 24 27  1  6  0  0  0
 24 23  1  0  0  0  0
 25 24  1  0  0  0  0
 26 25  1  0  0  0  0
 28 27  1  0  0  0  0
 28 30  1  0  0  0  0
 29 28  2  0  0  0  0
 32 31  1  6  0  0  0
 32 57  1  0  0  0  0
 32 37  1  0  0  0  0
 33 35  1  0  0  0  0
 35 34  1  0  0  0  0
 36 39  1  6  0  0  0
 36 33  1  0  0  0  0
 37 34  1  0  0  0  0
 38 36  1  0  0  0  0
 38 37  2  0  0  0  0
 40 39  1  0  0  0  0
 42 41  1  6  0  0  0
 42 40  1  0  0  0  0
 42 52  1  0  0  0  0
 43 47  1  0  0  0  0
 44 46  1  0  0  0  0
 45 43  1  0  0  0  0
 45 44  1  0  0  0  0
 46 48  1  1  0  0  0
 46 42  1  0  0  0  0
 47 46  1  0  0  0  0
 49 51  1  0  0  0  0
 51 50  1  0  0  0  0
 51 48  1  0  0  0  0
 52 54  1  0  0  0  0
 54 53  1  0  0  0  0
 55 57  2  0  0  0  0
 57 56  1  0  0  0  0
M  END
>  <MODEL>
1

>  <REMARK>
 VINA RESULT:      -2.1      0.000      0.000
  Name = 
  24 active torsions:
  status: ('A' for Active; 'I' for Inactive)
    1  A    between atoms: C_1  and  C_29
    2  A    between atoms: C_5  and  C_18
    3  A    between atoms: C_5  and  C_34
    4  A    between atoms: C_7  and  C_15
    5  A    between atoms: C_7  and  C_27
    6  A    between atoms: S_11  and  C_13
    7  A    between atoms: S_11  and  C_52
    8  A    between atoms: C_15  and  C_55
    9  A    between atoms: C_16  and  O_38
   10  A    between atoms: P_17  and  C_44
   11  A    between atoms: P_17  and  C_57
   12  A    between atoms: C_18  and  C_41
   13  A    between atoms: O_19  and  C_30
   14  A    between atoms: C_23  and  C_25
   15  A    between atoms: C_28  and  C_39
   16  A    between atoms: C_29  and  C_30
   17  A    between atoms: C_30  and  C_39
   18  A    between atoms: C_31  and  C_52
   19  A    between atoms: C_37  and  C_42
   20  A    between atoms: O_38  and  C_55
   21  A    between atoms: C_42  and  C_54
   22  A    between atoms: C_46  and  C_57
   23  A    between atoms: C_48  and  C_52
   24  A    between atoms: C_54  and  C_55
                            x       y       z     vdW  Elec       q    Type
                         _______ _______ _______ _____ _____    ______ ____

>  <TORSDO>
F 24

$$$$
=
 OpenBabel11052410303D

 57 61  0  0  1  0  0  0  0  0999 V2000
  162.2710  205.5180  145.7680 C   0  0  0  0  0  3  0  0  0  0  0  0
  162.5060  205.5720  144.4510 C   0  0  0  0  0  3  0  0  0  0  0  0
  161.6670  206.3630  143.4950 C   0  0  0  0  0  2  0  0  0  0  0  0
  161.9430  205.9920  142.0450 C   0  0  1  0  0  3  0  0  0  0  0  0
  161.1340  204.9120  141.6880 O   0  0  0  0  0  1  0  0  0  0  0  0
  163.9320  207.6980  140.7560 F   0  0  0  0  0  0  0  0  0  0  0  0
  161.8330  209.0140  138.9510 C   0  0  0  0  0  3  0  0  0  0  0  0
  162.3530  209.4400  140.3040 C   0  0  2  0  0  3  0  0  0  0  0  0
  161.3800  207.7760  138.7280 C   0  0  0  0  0  3  0  0  0  0  0  0
  161.6260  207.1940  141.1620 C   0  0  2  0  0  3  0  0  0  0  0  0
  161.3680  206.7990  139.7790 N   0  0  0  0  0  2  0  0  0  0  0  0
  162.7400  208.2460  141.2010 C   0  0  1  0  0  3  0  0  0  0  0  0
  161.4680  210.5330  140.9410 C   0  0  2  0  0  3  0  0  0  0  0  0
  160.9910  211.5860  139.9490 C   0  0  2  0  0  3  0  0  0  0  0  0
  162.1420  211.8990  140.9180 C   0  0  1  0  0  3  0  0  0  0  0  0
  163.0860  213.0820  143.3640 O   0  0  0  0  0  1  0  0  0  0  0  0
  161.7040  212.8650  142.4140 P   0  0  1  0  0  0  0  0  0  0  0  0
  161.1260  214.2150  142.0450 O   0  0  0  0  0  0  0  0  0  0  0  0
  160.4710  211.9290  143.3650 C   0  0  0  0  0  2  0  0  0  0  0  0
  158.7100  212.3300  145.0160 C   0  0  0  0  0  2  0  0  0  0  0  0
  160.0640  212.7200  144.5900 C   0  0  2  0  0  3  0  0  0  0  0  0
  158.9400  213.5010  144.2790 O   0  0  0  0  0  0  0  0  0  0  0  0
  159.6130  212.0970  140.3500 C   0  0  0  0  0  2  0  0  0  0  0  0
  158.7000  212.1830  139.1330 C   0  0  2  0  0  3  0  0  0  0  0  0
  157.3560  212.2390  139.5250 O   0  0  0  0  0  0  0  0  0  0  0  0
  157.2360  213.4460  140.2210 C   0  0  0  0  0  1  0  0  0  0  0  0
  158.9350  210.9990  138.1930 C   0  0  0  0  0  2  0  0  0  0  0  0
  157.6620  210.4160  137.6740 C   0  0  0  0  0  0  0  0  0  0  0  0
  156.7210  211.1690  137.3200 O   0  0  0  0  0  0  0  0  0  0  0  0
  157.5030  209.0390  137.6230 O   0  0  0  0  0  1  0  0  0  0  0  0
  160.9660  206.4570  146.5790 S   0  0  0  0  0  0  0  0  0  0  0  0
  161.9810  207.0490  147.9890 C   0  0  2  0  0  3  0  0  0  0  0  0
  161.5390  204.9830  151.7960 C   0  0  0  0  0  2  0  0  0  0  0  0
  160.8650  205.1300  149.3800 C   0  0  0  0  0  2  0  0  0  0  0  0
  160.4050  204.7750  150.7930 C   0  0  0  0  0  2  0  0  0  0  0  0
  161.9610  206.4550  151.8000 C   0  0  1  0  0  3  0  0  0  0  0  0
  161.7080  206.3870  149.3080 C   0  0  0  0  0  0  0  0  0  0  0  0
  162.2540  206.9370  150.4050 C   0  0  0  0  0  3  0  0  0  0  0  0
  160.8710  207.3370  152.3950 C   0  0  0  0  0  2  0  0  0  0  0  0
  161.2890  207.9100  153.7440 C   0  0  0  0  0  2  0  0  0  0  0  0
  162.3580  210.0940  153.3170 C   0  0  0  0  0  1  0  0  0  0  0  0
  161.0810  209.4450  153.8480 C   0  0  2  0  0  0  0  0  0  0  0  0
  162.5290  209.9060  157.0150 C   0  0  0  0  0  2  0  0  0  0  0  0
  161.3120  211.2450  155.5080 O   0  0  0  0  0  0  0  0  0  0  0  0
  161.9940  211.2790  156.7350 C   0  0  0  0  0  2  0  0  0  0  0  0
  160.8270  209.9270  155.3310 C   0  0  2  0  0  0  0  0  0  0  0  0
  161.5430  209.0220  156.3300 C   0  0  0  0  0  2  0  0  0  0  0  0
  159.3320  209.8730  155.6990 C   0  0  0  0  0  2  0  0  0  0  0  0
  157.3230  211.1840  155.0980 C   0  0  0  0  0  1  0  0  0  0  0  0
  158.4360  211.5900  157.2610 C   0  0  0  0  0  1  0  0  0  0  0  0
  158.6580  211.2350  155.8050 C   0  0  0  0  0  3  0  0  0  0  0  0
  160.0510  209.8750  152.9690 O   0  0  0  0  0  0  0  0  0  0  0  0
  159.6290  212.0970  152.2160 C   0  0  0  0  0  1  0  0  0  0  0  0
  160.5120  210.8730  152.0930 C   0  0  0  0  0  2  0  0  0  0  0  0
  161.0670  209.2670  147.8800 O   0  0  0  0  0  0  0  0  0  0  0  0
  163.3030  209.1350  148.3280 O   0  0  0  0  0  1  0  0  0  0  0  0
  162.0770  208.5430  148.0700 C   0  0  0  0  0  0  0  0  0  0  0  0
  1 31  1  0  0  0  0
  2  1  2  0  0  0  0
  3  2  1  0  0  0  0
  4  5  1  6  0  0  0
  4  3  1  0  0  0  0
  8  7  1  6  0  0  0
  8 12  1  0  0  0  0
  9  7  2  0  0  0  0
  9 11  1  0  0  0  0
 10 12  1  0  0  0  0
 10  4  1  1  0  0  0
 11 10  1  0  0  0  0
 12  6  1  6  0  0  0
 13  8  1  6  0  0  0
 14 23  1  1  0  0  0
 14 15  1  0  0  0  0
 14 13  1  0  0  0  0
 15 13  1  0  0  0  0
 15 17  1  1  0  0  0
 17 18  2  6  0  0  0
 17 16  1  0  0  0  0
 17 19  1  0  0  0  0
 21 19  1  6  0  0  0
 21 20  1  0  0  0  0
 22 21  1  0  0  0  0
 22 20  1  0  0  0  0
 24 27  1  6  0  0  0
 24 25  1  0  0  0  0
 24 23  1  0  0  0  0
 25 26  1  0  0  0  0
 28 27  1  0  0  0  0
 29 28  2  0  0  0  0
 30 28  1  0  0  0  0
 32 31  1  6  0  0  0
 32 57  1  0  0  0  0
 32 37  1  0  0  0  0
 33 36  1  0  0  0  0
 34 35  1  0  0  0  0
 35 33  1  0  0  0  0
 36 39  1  6  0  0  0
 37 34  1  0  0  0  0
 37 38  2  0  0  0  0
 38 36  1  0  0  0  0
 39 40  1  0  0  0  0
 40 42  1  0  0  0  0
 42 41  1  6  0  0  0
 42 46  1  0  0  0  0
 44 45  1  0  0  0  0
 45 43  1  0  0  0  0
 46 44  1  0  0  0  0
 46 48  1  1  0  0  0
 46 47  1  0  0  0  0
 47 43  1  0  0  0  0
 48 51  1  0  0  0  0
 49 51  1  0  0  0  0
 51 50  1  0  0  0  0
 52 42  1  0  0  0  0
 54 53  1  0  0  0  0
 54 52  1  0  0  0  0
 55 57  2  0  0  0  0
 57 56  1  0  0  0  0
M  END
>  <MODEL>
2

>  <REMARK>
 VINA RESULT:      -1.7      3.468      7.155
  Name = 
  24 active torsions:
  status: ('A' for Active; 'I' for Inactive)
    1  A    between atoms: C_1  and  C_29
    2  A    between atoms: C_5  and  C_18
    3  A    between atoms: C_5  and  C_34
    4  A    between atoms: C_7  and  C_15
    5  A    between atoms: C_7  and  C_27
    6  A    between atoms: S_11  and  C_13
    7  A    between atoms: S_11  and  C_52
    8  A    between atoms: C_15  and  C_55
    9  A    between atoms: C_16  and  O_38
   10  A    between atoms: P_17  and  C_44
   11  A    between atoms: P_17  and  C_57
   12  A    between atoms: C_18  and  C_41
   13  A    between atoms: O_19  and  C_30
   14  A    between atoms: C_23  and  C_25
   15  A    between atoms: C_28  and  C_39
   16  A    between atoms: C_29  and  C_30
   17  A    between atoms: C_30  and  C_39
   18  A    between atoms: C_31  and  C_52
   19  A    between atoms: C_37  and  C_42
   20  A    between atoms: O_38  and  C_55
   21  A    between atoms: C_42  and  C_54
   22  A    between atoms: C_46  and  C_57
   23  A    between atoms: C_48  and  C_52
   24  A    between atoms: C_54  and  C_55
                            x       y       z     vdW  Elec       q    Type
                         _______ _______ _______ _____ _____    ______ ____

>  <TORSDO>
F 24

$$$$
=
 OpenBabel11052410303D

 57 61  0  0  1  0  0  0  0  0999 V2000
  162.3750  205.7090  146.2150 C   0  0  0  0  0  3  0  0  0  0  0  0
  162.6920  205.6570  144.9160 C   0  0  0  0  0  3  0  0  0  0  0  0
  162.0040  206.4720  143.8640 C   0  0  0  0  0  2  0  0  0  0  0  0
  161.8350  205.7050  142.5610 C   0  0  1  0  0  3  0  0  0  0  0  0
  160.7360  204.8510  142.6730 O   0  0  0  0  0  1  0  0  0  0  0  0
  163.8940  207.4060  141.3810 F   0  0  0  0  0  0  0  0  0  0  0  0
  162.1090  208.1540  139.0060 C   0  0  0  0  0  3  0  0  0  0  0  0
  162.3010  208.8510  140.3320 C   0  0  2  0  0  3  0  0  0  0  0  0
  161.8180  206.8520  138.9290 C   0  0  0  0  0  3  0  0  0  0  0  0
  161.6050  206.7030  141.4310 C   0  0  2  0  0  3  0  0  0  0  0  0
  161.6720  206.0620  140.1190 N   0  0  0  0  0  2  0  0  0  0  0  0
  162.5950  207.8720  141.4870 C   0  0  1  0  0  3  0  0  0  0  0  0
  161.2150  209.9200  140.5820 C   0  0  2  0  0  3  0  0  0  0  0  0
  160.7250  210.6010  139.3110 C   0  0  2  0  0  3  0  0  0  0  0  0
  161.7060  211.3220  140.2480 C   0  0  1  0  0  3  0  0  0  0  0  0
  162.0780  213.8160  141.6350 O   0  0  0  0  0  1  0  0  0  0  0  0
  160.9760  212.5560  141.3930 P   0  0  1  0  0  0  0  0  0  0  0  0
  159.6810  213.1150  140.8420 O   0  0  0  0  0  0  0  0  0  0  0  0
  160.6450  211.7420  142.9830 C   0  0  0  0  0  2  0  0  0  0  0  0
  160.6580  212.7530  145.2110 C   0  0  0  0  0  2  0  0  0  0  0  0
  159.9550  212.7130  143.9180 C   0  0  2  0  0  3  0  0  0  0  0  0
  159.4810  212.0120  145.0370 O   0  0  0  0  0  0  0  0  0  0  0  0
  159.2560  210.9780  139.4510 C   0  0  0  0  0  2  0  0  0  0  0  0
  158.4260  210.3040  138.3640 C   0  0  2  0  0  3  0  0  0  0  0  0
  158.1810  211.1910  137.3080 O   0  0  0  0  0  0  0  0  0  0  0  0
  158.4270  212.4600  137.8420 C   0  0  0  0  0  1  0  0  0  0  0  0
  157.1080  209.7770  138.9360 C   0  0  0  0  0  2  0  0  0  0  0  0
  156.0840  209.5240  137.8800 C   0  0  0  0  0  0  0  0  0  0  0  0
  156.1610  208.4990  137.1580 O   0  0  0  0  0  0  0  0  0  0  0  0
  155.0680  210.4450  137.6680 O   0  0  0  0  0  1  0  0  0  0  0  0
  161.1320  206.8270  146.8860 S   0  0  0  0  0  0  0  0  0  0  0  0
  162.0920  207.3420  148.3630 C   0  0  2  0  0  3  0  0  0  0  0  0
  161.4790  205.1110  152.0520 C   0  0  0  0  0  2  0  0  0  0  0  0
  160.9420  205.3440  149.6090 C   0  0  0  0  0  2  0  0  0  0  0  0
  160.4100  204.9220  150.9780 C   0  0  0  0  0  2  0  0  0  0  0  0
  161.8670  206.5910  152.1390 C   0  0  1  0  0  3  0  0  0  0  0  0
  161.7590  206.6200  149.6360 C   0  0  0  0  0  0  0  0  0  0  0  0
  162.2290  207.1360  150.7850 C   0  0  0  0  0  3  0  0  0  0  0  0
  160.7250  207.4250  152.7050 C   0  0  0  0  0  2  0  0  0  0  0  0
  161.1330  208.8820  152.8900 C   0  0  0  0  0  2  0  0  0  0  0  0
  160.1890  208.2810  155.0910 C   0  0  0  0  0  1  0  0  0  0  0  0
  160.8750  209.4120  154.3260 C   0  0  2  0  0  0  0  0  0  0  0  0
  159.0230  211.5980  156.3590 C   0  0  0  0  0  2  0  0  0  0  0  0
  160.6990  211.8330  154.7210 O   0  0  0  0  0  0  0  0  0  0  0  0
  159.9250  212.5580  155.6410 C   0  0  0  0  0  2  0  0  0  0  0  0
  159.9500  210.6920  154.3450 C   0  0  2  0  0  0  0  0  0  0  0  0
  158.8080  210.5270  155.3440 C   0  0  0  0  0  2  0  0  0  0  0  0
  159.2890  210.9370  152.9750 C   0  0  0  0  0  2  0  0  0  0  0  0
  160.3300  212.5260  151.3900 C   0  0  0  0  0  1  0  0  0  0  0  0
  157.9550  212.7980  151.9980 C   0  0  0  0  0  1  0  0  0  0  0  0
  159.3210  212.3870  152.5080 C   0  0  0  0  0  3  0  0  0  0  0  0
  162.1010  209.6340  155.0100 O   0  0  0  0  0  0  0  0  0  0  0  0
  162.5820  210.2570  157.2590 C   0  0  0  0  0  1  0  0  0  0  0  0
  162.0290  209.1880  156.3400 C   0  0  0  0  0  2  0  0  0  0  0  0
  163.1500  209.4670  148.0050 O   0  0  0  0  0  0  0  0  0  0  0  0
  161.2480  209.5060  149.2690 O   0  0  0  0  0  1  0  0  0  0  0  0
  162.1970  208.8290  148.5200 C   0  0  0  0  0  0  0  0  0  0  0  0
  1 31  1  0  0  0  0
  2  1  2  0  0  0  0
  3  2  1  0  0  0  0
  4  5  1  1  0  0  0
  4  3  1  0  0  0  0
  8  7  1  6  0  0  0
  8 12  1  0  0  0  0
  9  7  2  0  0  0  0
  9 11  1  0  0  0  0
 10 12  1  0  0  0  0
 10  4  1  1  0  0  0
 11 10  1  0  0  0  0
 12  6  1  6  0  0  0
 13  8  1  6  0  0  0
 14 23  1  1  0  0  0
 14 15  1  0  0  0  0
 14 13  1  0  0  0  0
 15 13  1  0  0  0  0
 15 17  1  1  0  0  0
 17 18  2  6  0  0  0
 17 16  1  0  0  0  0
 17 19  1  0  0  0  0
 21 19  1  6  0  0  0
 21 22  1  0  0  0  0
 21 20  1  0  0  0  0
 22 20  1  0  0  0  0
 24 27  1  1  0  0  0
 24 23  1  0  0  0  0
 25 26  1  0  0  0  0
 25 24  1  0  0  0  0
 28 27  1  0  0  0  0
 29 28  2  0  0  0  0
 30 28  1  0  0  0  0
 32 31  1  6  0  0  0
 32 57  1  0  0  0  0
 32 37  1  0  0  0  0
 33 36  1  0  0  0  0
 34 37  1  0  0  0  0
 34 35  1  0  0  0  0
 35 33  1  0  0  0  0
 36 39  1  6  0  0  0
 37 38  2  0  0  0  0
 38 36  1  0  0  0  0
 39 40  1  0  0  0  0
 40 42  1  0  0  0  0
 42 46  1  0  0  0  0
 42 52  1  0  0  0  0
 42 41  1  1  0  0  0
 44 45  1  0  0  0  0
 45 43  1  0  0  0  0
 46 48  1  6  0  0  0
 46 44  1  0  0  0  0
 46 47  1  0  0  0  0
 47 43  1  0  0  0  0
 49 51  1  0  0  0  0
 50 51  1  0  0  0  0
 51 48  1  0  0  0  0
 52 54  1  0  0  0  0
 54 53  1  0  0  0  0
 55 57  2  0  0  0  0
 57 56  1  0  0  0  0
M  END
>  <MODEL>
3

>  <REMARK>
 VINA RESULT:      -1.5      3.520      7.006
  Name = 
  24 active torsions:
  status: ('A' for Active; 'I' for Inactive)
    1  A    between atoms: C_1  and  C_29
    2  A    between atoms: C_5  and  C_18
    3  A    between atoms: C_5  and  C_34
    4  A    between atoms: C_7  and  C_15
    5  A    between atoms: C_7  and  C_27
    6  A    between atoms: S_11  and  C_13
    7  A    between atoms: S_11  and  C_52
    8  A    between atoms: C_15  and  C_55
    9  A    between atoms: C_16  and  O_38
   10  A    between atoms: P_17  and  C_44
   11  A    between atoms: P_17  and  C_57
   12  A    between atoms: C_18  and  C_41
   13  A    between atoms: O_19  and  C_30
   14  A    between atoms: C_23  and  C_25
   15  A    between atoms: C_28  and  C_39
   16  A    between atoms: C_29  and  C_30
   17  A    between atoms: C_30  and  C_39
   18  A    between atoms: C_31  and  C_52
   19  A    between atoms: C_37  and  C_42
   20  A    between atoms: O_38  and  C_55
   21  A    between atoms: C_42  and  C_54
   22  A    between atoms: C_46  and  C_57
   23  A    between atoms: C_48  and  C_52
   24  A    between atoms: C_54  and  C_55
                            x       y       z     vdW  Elec       q    Type
                         _______ _______ _______ _____ _____    ______ ____

>  <TORSDO>
F 24

$$$$
=
 OpenBabel11052410303D

 57 61  0  0  1  0  0  0  0  0999 V2000
  159.5730  212.8110  150.6580 C   0  0  0  0  0  3  0  0  0  0  0  0
  159.6250  213.0990  149.3520 C   0  0  0  0  0  3  0  0  0  0  0  0
  160.0160  214.4430  148.8180 C   0  0  0  0  0  2  0  0  0  0  0  0
  160.8430  214.3370  147.5450 C   0  0  1  0  0  3  0  0  0  0  0  0
  161.6700  213.2150  147.6290 O   0  0  0  0  0  1  0  0  0  0  0  0
  159.6950  211.8240  146.5970 F   0  0  0  0  0  0  0  0  0  0  0  0
  157.6620  213.2670  144.8150 C   0  0  0  0  0  3  0  0  0  0  0  0
  159.0440  212.7520  144.4890 C   0  0  2  0  0  3  0  0  0  0  0  0
  157.4350  214.0580  145.8680 C   0  0  0  0  0  3  0  0  0  0  0  0
  159.8980  214.1990  146.3560 C   0  0  2  0  0  3  0  0  0  0  0  0
  158.5100  214.4530  146.7340 N   0  0  0  0  0  2  0  0  0  0  0  0
  160.0100  212.8220  145.6900 C   0  0  1  0  0  3  0  0  0  0  0  0
  159.5630  213.3080  143.1440 C   0  0  2  0  0  3  0  0  0  0  0  0
  158.7750  212.8140  141.9380 C   0  0  2  0  0  3  0  0  0  0  0  0
  160.1510  212.2130  142.2630 C   0  0  1  0  0  3  0  0  0  0  0  0
  161.2570  214.4530  140.8360 O   0  0  0  0  0  0  0  0  0  0  0  0
  161.5680  212.8540  141.2910 P   0  0  1  0  0  0  0  0  0  0  0  0
  162.8520  212.7960  142.0910 O   0  0  0  0  0  1  0  0  0  0  0  0
  161.7500  211.8360  139.7970 C   0  0  0  0  0  2  0  0  0  0  0  0
  161.5650  209.5500  138.9460 C   0  0  0  0  0  2  0  0  0  0  0  0
  161.2120  210.4460  140.0600 C   0  0  2  0  0  3  0  0  0  0  0  0
  160.2880  210.1160  139.0570 O   0  0  0  0  0  0  0  0  0  0  0  0
  158.7450  213.8880  140.8570 C   0  0  0  0  0  2  0  0  0  0  0  0
  158.2750  213.2990  139.5320 C   0  0  2  0  0  3  0  0  0  0  0  0
  158.2950  214.2720  138.5240 O   0  0  0  0  0  0  0  0  0  0  0  0
  159.4130  213.9560  137.7450 C   0  0  0  0  0  1  0  0  0  0  0  0
  156.8730  212.7020  139.6710 C   0  0  0  0  0  2  0  0  0  0  0  0
  156.7130  211.4280  138.9080 C   0  0  0  0  0  0  0  0  0  0  0  0
  157.3790  211.2310  137.8620 O   0  0  0  0  0  0  0  0  0  0  0  0
  155.7960  210.4790  139.3340 O   0  0  0  0  0  1  0  0  0  0  0  0
  160.0470  213.9760  151.9480 S   0  0  0  0  0  0  0  0  0  0  0  0
  159.1620  213.1390  153.3200 C   0  0  2  0  0  3  0  0  0  0  0  0
  160.6090  209.3490  154.9020 C   0  0  0  0  0  2  0  0  0  0  0  0
  160.8750  211.8470  154.8240 C   0  0  0  0  0  2  0  0  0  0  0  0
  161.6030  210.5090  154.9460 C   0  0  0  0  0  2  0  0  0  0  0  0
  159.8680  209.3550  153.5610 C   0  0  1  0  0  3  0  0  0  0  0  0
  159.7670  211.8480  153.7900 C   0  0  0  0  0  0  0  0  0  0  0  0
  159.2740  210.7080  153.2770 C   0  0  0  0  0  3  0  0  0  0  0  0
  160.8040  208.9900  152.4150 C   0  0  0  0  0  2  0  0  0  0  0  0
  160.6450  207.5310  152.0060 C   0  0  0  0  0  2  0  0  0  0  0  0
  163.0640  207.8440  151.6230 C   0  0  0  0  0  1  0  0  0  0  0  0
  161.8690  206.9770  151.2290 C   0  0  2  0  0  0  0  0  0  0  0  0
  162.1700  208.9870  148.3630 C   0  0  0  0  0  2  0  0  0  0  0  0
  162.9140  206.8470  149.0050 O   0  0  0  0  0  0  0  0  0  0  0  0
  162.9900  207.7930  147.9710 C   0  0  0  0  0  2  0  0  0  0  0  0
  161.6740  207.0380  149.6610 C   0  0  2  0  0  0  0  0  0  0  0  0
  161.1160  208.3910  149.2320 C   0  0  0  0  0  2  0  0  0  0  0  0
  160.6630  205.9820  149.1730 C   0  0  0  0  0  2  0  0  0  0  0  0
  160.6500  203.7700  148.0660 C   0  0  0  0  0  1  0  0  0  0  0  0
  160.4950  205.8140  146.6960 C   0  0  0  0  0  1  0  0  0  0  0  0
  161.1080  205.2050  147.9390 C   0  0  0  0  0  3  0  0  0  0  0  0
  162.1970  205.6670  151.6700 O   0  0  0  0  0  0  0  0  0  0  0  0
  161.0730  203.5680  151.7790 C   0  0  0  0  0  1  0  0  0  0  0  0
  161.0760  205.0180  152.2170 C   0  0  0  0  0  2  0  0  0  0  0  0
  156.9320  212.5560  153.9940 O   0  0  0  0  0  1  0  0  0  0  0  0
  157.1210  213.5670  151.9540 O   0  0  0  0  0  0  0  0  0  0  0  0
  157.6770  213.0760  153.1240 C   0  0  0  0  0  0  0  0  0  0  0  0
  1 31  1  0  0  0  0
  2  1  2  0  0  0  0
  3  2  1  0  0  0  0
  4  5  1  1  0  0  0
  4  3  1  0  0  0  0
  7  9  2  0  0  0  0
  8  7  1  1  0  0  0
  8 12  1  0  0  0  0
  9 11  1  0  0  0  0
 10 11  1  0  0  0  0
 10  4  1  1  0  0  0
 12 10  1  0  0  0  0
 12  6  1  1  0  0  0
 13  8  1  1  0  0  0
 14 23  1  6  0  0  0
 14 15  1  0  0  0  0
 14 13  1  0  0  0  0
 15 17  1  6  0  0  0
 15 13  1  0  0  0  0
 17 16  2  6  0  0  0
 17 18  1  0  0  0  0
 19 17  1  0  0  0  0
 20 22  1  0  0  0  0
 20 21  1  0  0  0  0
 21 19  1  6  0  0  0
 22 21  1  0  0  0  0
 24 27  1  1  0  0  0
 24 23  1  0  0  0  0
 25 24  1  0  0  0  0
 26 25  1  0  0  0  0
 28 30  1  0  0  0  0
 28 27  1  0  0  0  0
 29 28  2  0  0  0  0
 32 31  1  6  0  0  0
 32 37  1  0  0  0  0
 33 35  1  0  0  0  0
 34 35  1  0  0  0  0
 36 39  1  6  0  0  0
 36 33  1  0  0  0  0
 37 34  1  0  0  0  0
 38 36  1  0  0  0  0
 38 37  2  0  0  0  0
 40 39  1  0  0  0  0
 42 41  1  1  0  0  0
 42 52  1  0  0  0  0
 42 40  1  0  0  0  0
 43 47  1  0  0  0  0
 44 46  1  0  0  0  0
 45 43  1  0  0  0  0
 45 44  1  0  0  0  0
 46 48  1  6  0  0  0
 46 42  1  0  0  0  0
 47 46  1  0  0  0  0
 50 51  1  0  0  0  0
 51 49  1  0  0  0  0
 51 48  1  0  0  0  0
 52 54  1  0  0  0  0
 53 54  1  0  0  0  0
 56 57  2  0  0  0  0
 57 32  1  0  0  0  0
 57 55  1  0  0  0  0
M  END
>  <MODEL>
4

>  <REMARK>
 VINA RESULT:      -0.5      1.422      1.747
  Name = 
  24 active torsions:
  status: ('A' for Active; 'I' for Inactive)
    1  A    between atoms: C_1  and  C_29
    2  A    between atoms: C_5  and  C_18
    3  A    between atoms: C_5  and  C_34
    4  A    between atoms: C_7  and  C_15
    5  A    between atoms: C_7  and  C_27
    6  A    between atoms: S_11  and  C_13
    7  A    between atoms: S_11  and  C_52
    8  A    between atoms: C_15  and  C_55
    9  A    between atoms: C_16  and  O_38
   10  A    between atoms: P_17  and  C_44
   11  A    between atoms: P_17  and  C_57
   12  A    between atoms: C_18  and  C_41
   13  A    between atoms: O_19  and  C_30
   14  A    between atoms: C_23  and  C_25
   15  A    between atoms: C_28  and  C_39
   16  A    between atoms: C_29  and  C_30
   17  A    between atoms: C_30  and  C_39
   18  A    between atoms: C_31  and  C_52
   19  A    between atoms: C_37  and  C_42
   20  A    between atoms: O_38  and  C_55
   21  A    between atoms: C_42  and  C_54
   22  A    between atoms: C_46  and  C_57
   23  A    between atoms: C_48  and  C_52
   24  A    between atoms: C_54  and  C_55
                            x       y       z     vdW  Elec       q    Type
                         _______ _______ _______ _____ _____    ______ ____

>  <TORSDO>
F 24

$$$$
=
 OpenBabel11052410303D

 57 61  0  0  1  0  0  0  0  0999 V2000
  161.9140  209.8460  149.4460 C   0  0  0  0  0  3  0  0  0  0  0  0
  161.1820  208.7710  149.7600 C   0  0  0  0  0  3  0  0  0  0  0  0
  160.7390  208.4520  151.1550 C   0  0  0  0  0  2  0  0  0  0  0  0
  161.7710  207.6290  151.9120 C   0  0  1  0  0  3  0  0  0  0  0  0
  161.7470  207.9930  153.2600 O   0  0  0  0  0  1  0  0  0  0  0  0
  163.4500  205.4140  152.8090 F   0  0  0  0  0  0  0  0  0  0  0  0
  161.1810  203.3810  152.4790 C   0  0  0  0  0  3  0  0  0  0  0  0
  162.2580  203.7970  151.5060 C   0  0  2  0  0  3  0  0  0  0  0  0
  160.4080  204.2770  153.1000 C   0  0  0  0  0  3  0  0  0  0  0  0
  161.4230  206.1520  151.7660 C   0  0  2  0  0  3  0  0  0  0  0  0
  160.5750  205.6830  152.8600 N   0  0  0  0  0  2  0  0  0  0  0  0
  162.6760  205.2730  151.6690 C   0  0  1  0  0  3  0  0  0  0  0  0
  161.9570  203.3110  150.0720 C   0  0  2  0  0  3  0  0  0  0  0  0
  160.9730  204.2000  149.3220 C   0  0  2  0  0  3  0  0  0  0  0  0
  160.5110  202.8600  149.9140 C   0  0  1  0  0  3  0  0  0  0  0  0
  161.6740  200.3820  149.0270 O   0  0  0  0  0  1  0  0  0  0  0  0
  160.3950  201.4520  148.7430 P   0  0  1  0  0  0  0  0  0  0  0  0
  159.0790  200.7190  148.8970 O   0  0  0  0  0  0  0  0  0  0  0  0
  160.5240  202.0970  147.0500 C   0  0  0  0  0  2  0  0  0  0  0  0
  160.4220  201.4830  144.6830 C   0  0  0  0  0  2  0  0  0  0  0  0
  160.3690  200.9620  146.0600 C   0  0  2  0  0  3  0  0  0  0  0  0
  159.2050  201.1690  145.3040 O   0  0  0  0  0  0  0  0  0  0  0  0
  161.3010  204.2040  147.8340 C   0  0  0  0  0  2  0  0  0  0  0  0
  161.3400  205.6310  147.2990 C   0  0  2  0  0  3  0  0  0  0  0  0
  160.1040  205.9840  146.7420 O   0  0  0  0  0  0  0  0  0  0  0  0
  160.4200  206.5540  145.5040 C   0  0  0  0  0  1  0  0  0  0  0  0
  162.4590  205.7940  146.2680 C   0  0  0  0  0  2  0  0  0  0  0  0
  162.8010  204.5120  145.5840 C   0  0  0  0  0  0  0  0  0  0  0  0
  161.9610  203.9500  144.8400 O   0  0  0  0  0  0  0  0  0  0  0  0
  164.0350  203.9190  145.8060 O   0  0  0  0  0  1  0  0  0  0  0  0
  162.3960  211.0990  150.6460 S   0  0  0  0  0  0  0  0  0  0  0  0
  161.8610  212.5500  149.6580 C   0  0  2  0  0  3  0  0  0  0  0  0
  157.5460  213.1320  149.7020 C   0  0  0  0  0  2  0  0  0  0  0  0
  159.7480  213.7230  148.6460 C   0  0  0  0  0  2  0  0  0  0  0  0
  158.3560  214.2320  149.0200 C   0  0  0  0  0  2  0  0  0  0  0  0
  158.2470  212.7010  150.9950 C   0  0  1  0  0  3  0  0  0  0  0  0
  160.3960  212.8710  149.7180 C   0  0  0  0  0  0  0  0  0  0  0  0
  159.6890  212.3590  150.7400 C   0  0  0  0  0  3  0  0  0  0  0  0
  158.1920  213.8060  152.0430 C   0  0  0  0  0  2  0  0  0  0  0  0
  159.0850  213.4890  153.2360 C   0  0  0  0  0  2  0  0  0  0  0  0
  159.1920  213.7240  155.6920 C   0  0  0  0  0  1  0  0  0  0  0  0
  158.2910  213.2580  154.5500 C   0  0  2  0  0  0  0  0  0  0  0  0
  156.2230  211.0350  156.3180 C   0  0  0  0  0  2  0  0  0  0  0  0
  156.7330  211.4200  154.0520 O   0  0  0  0  0  0  0  0  0  0  0  0
  155.9190  210.6520  154.8990 C   0  0  0  0  0  2  0  0  0  0  0  0
  157.9090  211.7400  154.7720 C   0  0  2  0  0  0  0  0  0  0  0  0
  157.6530  211.4510  156.2470 C   0  0  0  0  0  2  0  0  0  0  0  0
  159.0510  210.7980  154.3420 C   0  0  0  0  0  2  0  0  0  0  0  0
  160.3170  209.6620  156.1370 C   0  0  0  0  0  1  0  0  0  0  0  0
  161.5380  210.8640  154.3640 C   0  0  0  0  0  1  0  0  0  0  0  0
  160.2910  210.8660  155.2240 C   0  0  0  0  0  3  0  0  0  0  0  0
  157.1500  214.1030  154.6060 O   0  0  0  0  0  0  0  0  0  0  0  0
  154.8750  214.4130  153.9700 C   0  0  0  0  0  1  0  0  0  0  0  0
  155.9880  213.4170  154.2160 C   0  0  0  0  0  2  0  0  0  0  0  0
  161.6850  212.4240  147.2660 O   0  0  0  0  0  0  0  0  0  0  0  0
  163.7940  212.7230  148.0920 O   0  0  0  0  0  1  0  0  0  0  0  0
  162.4280  212.5710  148.2700 C   0  0  0  0  0  0  0  0  0  0  0  0
  1  2  2  0  0  0  0
  1 31  1  0  0  0  0
  2  3  1  0  0  0  0
  3  4  1  0  0  0  0
  4  5  1  1  0  0  0
  7  9  2  0  0  0  0
  8 12  1  0  0  0  0
  8  7  1  1  0  0  0
 10  4  1  1  0  0  0
 10 11  1  0  0  0  0
 11  9  1  0  0  0  0
 12 10  1  0  0  0  0
 12  6  1  1  0  0  0
 13  8  1  1  0  0  0
 14 23  1  6  0  0  0
 14 15  1  0  0  0  0
 14 13  1  0  0  0  0
 15 17  1  6  0  0  0
 15 13  1  0  0  0  0
 17 18  2  1  0  0  0
 17 16  1  0  0  0  0
 19 17  1  0  0  0  0
 20 22  1  0  0  0  0
 20 21  1  0  0  0  0
 21 19  1  1  0  0  0
 22 21  1  0  0  0  0
 24 27  1  6  0  0  0
 24 23  1  0  0  0  0
 25 24  1  0  0  0  0
 26 25  1  0  0  0  0
 28 30  1  0  0  0  0
 28 27  1  0  0  0  0
 29 28  2  0  0  0  0
 32 57  1  6  0  0  0
 32 37  1  0  0  0  0
 32 31  1  0  0  0  0
 33 36  1  0  0  0  0
 34 35  1  0  0  0  0
 34 37  1  0  0  0  0
 35 33  1  0  0  0  0
 36 39  1  1  0  0  0
 37 38  2  0  0  0  0
 38 36  1  0  0  0  0
 39 40  1  0  0  0  0
 40 42  1  0  0  0  0
 42 52  1  0  0  0  0
 42 46  1  0  0  0  0
 42 41  1  1  0  0  0
 44 46  1  0  0  0  0
 44 45  1  0  0  0  0
 45 43  1  0  0  0  0
 46 48  1  6  0  0  0
 46 47  1  0  0  0  0
 47 43  1  0  0  0  0
 48 51  1  0  0  0  0
 50 51  1  0  0  0  0
 51 49  1  0  0  0  0
 53 54  1  0  0  0  0
 54 52  1  0  0  0  0
 55 57  2  0  0  0  0
 56 57  1  0  0  0  0
M  END
>  <MODEL>
5

>  <REMARK>
 VINA RESULT:      -0.2      5.575     10.102
  Name = 
  24 active torsions:
  status: ('A' for Active; 'I' for Inactive)
    1  A    between atoms: C_1  and  C_29
    2  A    between atoms: C_5  and  C_18
    3  A    between atoms: C_5  and  C_34
    4  A    between atoms: C_7  and  C_15
    5  A    between atoms: C_7  and  C_27
    6  A    between atoms: S_11  and  C_13
    7  A    between atoms: S_11  and  C_52
    8  A    between atoms: C_15  and  C_55
    9  A    between atoms: C_16  and  O_38
   10  A    between atoms: P_17  and  C_44
   11  A    between atoms: P_17  and  C_57
   12  A    between atoms: C_18  and  C_41
   13  A    between atoms: O_19  and  C_30
   14  A    between atoms: C_23  and  C_25
   15  A    between atoms: C_28  and  C_39
   16  A    between atoms: C_29  and  C_30
   17  A    between atoms: C_30  and  C_39
   18  A    between atoms: C_31  and  C_52
   19  A    between atoms: C_37  and  C_42
   20  A    between atoms: O_38  and  C_55
   21  A    between atoms: C_42  and  C_54
   22  A    between atoms: C_46  and  C_57
   23  A    between atoms: C_48  and  C_52
   24  A    between atoms: C_54  and  C_55
                            x       y       z     vdW  Elec       q    Type
                         _______ _______ _______ _____ _____    ______ ____

>  <TORSDO>
F 24

$$$$
=
 OpenBabel11052410303D

 57 61  0  0  1  0  0  0  0  0999 V2000
  160.8370  203.0130  148.8000 C   0  0  0  0  0  3  0  0  0  0  0  0
  160.4590  204.0230  149.5920 C   0  0  0  0  0  3  0  0  0  0  0  0
  161.3150  205.2220  149.8660 C   0  0  0  0  0  2  0  0  0  0  0  0
  161.0290  206.3650  148.9020 C   0  0  1  0  0  3  0  0  0  0  0  0
  159.7180  206.2530  148.4360 O   0  0  0  0  0  1  0  0  0  0  0  0
  163.5270  207.2970  150.0940 F   0  0  0  0  0  0  0  0  0  0  0  0
  162.4490  210.1410  150.4640 C   0  0  0  0  0  2  0  0  0  0  0  0
  162.4380  208.9690  151.4160 C   0  0  2  0  0  3  0  0  0  0  0  0
  161.9950  210.0360  149.2120 C   0  0  0  0  0  3  0  0  0  0  0  0
  161.2080  207.6870  149.6420 C   0  0  2  0  0  3  0  0  0  0  0  0
  161.4730  208.7910  148.7220 N   0  0  0  0  0  0  0  0  0  0  0  0
  162.3190  207.6110  150.6940 C   0  0  1  0  0  3  0  0  0  0  0  0
  161.4910  209.2080  152.6130 C   0  0  2  0  0  3  0  0  0  0  0  0
  160.7070  210.5100  152.5170 C   0  0  2  0  0  3  0  0  0  0  0  0
  161.9220  210.4040  153.4510 C   0  0  1  0  0  3  0  0  0  0  0  0
  162.8970  210.5780  156.1530 O   0  0  0  0  0  1  0  0  0  0  0  0
  161.5600  210.1160  155.2260 P   0  0  1  0  0  0  0  0  0  0  0  0
  160.3410  210.8980  155.6710 O   0  0  0  0  0  0  0  0  0  0  0  0
  161.2510  208.3430  155.4720 C   0  0  0  0  0  2  0  0  0  0  0  0
  160.0400  206.9790  157.1040 C   0  0  0  0  0  2  0  0  0  0  0  0
  159.9470  208.1520  156.2180 C   0  0  2  0  0  3  0  0  0  0  0  0
  159.3930  206.9130  155.8620 O   0  0  0  0  0  0  0  0  0  0  0  0
  159.3390  210.3460  153.1680 C   0  0  0  0  0  2  0  0  0  0  0  0
  158.5560  211.6520  153.1020 C   0  0  2  0  0  3  0  0  0  0  0  0
  159.4230  212.7420  152.9490 O   0  0  0  0  0  0  0  0  0  0  0  0
  159.3420  213.0760  151.5940 C   0  0  0  0  0  1  0  0  0  0  0  0
  157.6890  211.8290  154.3510 C   0  0  0  0  0  2  0  0  0  0  0  0
  156.8890  213.0890  154.3210 C   0  0  0  0  0  0  0  0  0  0  0  0
  157.3940  214.1660  154.7250 O   0  0  0  0  0  1  0  0  0  0  0  0
  155.5720  213.0610  153.8880 O   0  0  0  0  0  0  0  0  0  0  0  0
  162.3920  202.9960  147.8910 S   0  0  0  0  0  0  0  0  0  0  0  0
  161.6510  202.9210  146.2140 C   0  0  2  0  0  3  0  0  0  0  0  0
  160.8820  206.9280  144.6950 C   0  0  0  0  0  2  0  0  0  0  0  0
  159.9340  204.8350  145.7110 C   0  0  0  0  0  2  0  0  0  0  0  0
  159.6710  205.9990  144.7560 C   0  0  0  0  0  2  0  0  0  0  0  0
  162.0970  206.1590  144.1670 C   0  0  1  0  0  3  0  0  0  0  0  0
  161.3250  204.2460  145.5890 C   0  0  0  0  0  0  0  0  0  0  0  0
  162.3130  204.8890  144.9440 C   0  0  0  0  0  3  0  0  0  0  0  0
  161.9220  205.7990  142.6960 C   0  0  0  0  0  2  0  0  0  0  0  0
  161.2190  206.9120  141.9280 C   0  0  0  0  0  2  0  0  0  0  0  0
  163.4190  207.4500  140.9440 C   0  0  0  0  0  1  0  0  0  0  0  0
  161.9380  207.2890  140.6050 C   0  0  2  0  0  0  0  0  0  0  0  0
  161.8450  209.2950  137.7220 C   0  0  0  0  0  2  0  0  0  0  0  0
  160.2480  208.3820  139.1910 O   0  0  0  0  0  0  0  0  0  0  0  0
  160.3820  209.1210  138.0050 C   0  0  0  0  0  2  0  0  0  0  0  0
  161.3960  208.6350  139.9790 C   0  0  2  0  0  0  0  0  0  0  0  0
  162.4480  209.2860  139.0850 C   0  0  0  0  0  2  0  0  0  0  0  0
  161.0570  209.6720  141.0680 C   0  0  0  0  0  2  0  0  0  0  0  0
  159.7350  211.7110  140.6090 C   0  0  0  0  0  1  0  0  0  0  0  0
  162.0100  211.9230  141.5370 C   0  0  0  0  0  1  0  0  0  0  0  0
  161.1270  211.1210  140.6030 C   0  0  0  0  0  3  0  0  0  0  0  0
  161.8830  206.2150  139.6760 O   0  0  0  0  0  0  0  0  0  0  0  0
  162.7100  205.9430  137.4580 C   0  0  0  0  0  1  0  0  0  0  0  0
  163.0630  206.1370  138.9180 C   0  0  0  0  0  2  0  0  0  0  0  0
  159.7720  201.6800  147.0470 O   0  0  0  0  0  1  0  0  0  0  0  0
  160.4210  201.1860  144.9130 O   0  0  0  0  0  0  0  0  0  0  0  0
  160.5550  201.9070  146.0890 C   0  0  0  0  0  0  0  0  0  0  0  0
  1  2  2  0  0  0  0
  2  3  1  0  0  0  0
  4  5  1  1  0  0  0
  4  3  1  0  0  0  0
  8  7  1  6  0  0  0
  9  7  1  0  0  0  0
 10  4  1  6  0  0  0
 10 12  1  0  0  0  0
 11  9  2  0  0  0  0
 11 10  1  0  0  0  0
 12  6  1  6  0  0  0
 12  8  1  0  0  0  0
 13  8  1  6  0  0  0
 13 15  1  0  0  0  0
 14 13  1  0  0  0  0
 14 23  1  1  0  0  0
 14 15  1  0  0  0  0
 15 17  1  1  0  0  0
 17 19  1  0  0  0  0
 17 18  2  1  0  0  0
 17 16  1  0  0  0  0
 21 19  1  6  0  0  0
 21 20  1  0  0  0  0
 22 21  1  0  0  0  0
 22 20  1  0  0  0  0
 24 23  1  1  0  0  0
 24 27  1  0  0  0  0
 25 24  1  0  0  0  0
 26 25  1  0  0  0  0
 28 27  1  0  0  0  0
 28 29  1  0  0  0  0
 30 28  2  0  0  0  0
 31  1  1  0  0  0  0
 32 57  1  1  0  0  0
 32 31  1  0  0  0  0
 33 35  1  0  0  0  0
 35 34  1  0  0  0  0
 36 39  1  6  0  0  0
 36 33  1  0  0  0  0
 36 38  1  0  0  0  0
 37 34  1  0  0  0  0
 37 32  1  0  0  0  0
 38 37  2  0  0  0  0
 40 39  1  0  0  0  0
 42 41  1  1  0  0  0
 42 40  1  0  0  0  0
 43 45  1  0  0  0  0
 43 47  1  0  0  0  0
 44 46  1  0  0  0  0
 45 44  1  0  0  0  0
 46 42  1  0  0  0  0
 46 48  1  1  0  0  0
 47 46  1  0  0  0  0
 51 49  1  0  0  0  0
 51 48  1  0  0  0  0
 51 50  1  0  0  0  0
 52 42  1  0  0  0  0
 53 54  1  0  0  0  0
 54 52  1  0  0  0  0
 56 57  2  0  0  0  0
 57 55  1  0  0  0  0
M  END
>  <MODEL>
6

>  <REMARK>
 VINA RESULT:      -0.0      4.274     11.995
  Name = 
  24 active torsions:
  status: ('A' for Active; 'I' for Inactive)
    1  A    between atoms: C_1  and  C_29
    2  A    between atoms: C_5  and  C_18
    3  A    between atoms: C_5  and  C_34
    4  A    between atoms: C_7  and  C_15
    5  A    between atoms: C_7  and  C_27
    6  A    between atoms: S_11  and  C_13
    7  A    between atoms: S_11  and  C_52
    8  A    between atoms: C_15  and  C_55
    9  A    between atoms: C_16  and  O_38
   10  A    between atoms: P_17  and  C_44
   11  A    between atoms: P_17  and  C_57
   12  A    between atoms: C_18  and  C_41
   13  A    between atoms: O_19  and  C_30
   14  A    between atoms: C_23  and  C_25
   15  A    between atoms: C_28  and  C_39
   16  A    between atoms: C_29  and  C_30
   17  A    between atoms: C_30  and  C_39
   18  A    between atoms: C_31  and  C_52
   19  A    between atoms: C_37  and  C_42
   20  A    between atoms: O_38  and  C_55
   21  A    between atoms: C_42  and  C_54
   22  A    between atoms: C_46  and  C_57
   23  A    between atoms: C_48  and  C_52
   24  A    between atoms: C_54  and  C_55
                            x       y       z     vdW  Elec       q    Type
                         _______ _______ _______ _____ _____    ______ ____

>  <TORSDO>
F 24

$$$$
=
 OpenBabel11052410303D

 57 61  0  0  1  0  0  0  0  0999 V2000
  162.3050  207.9360  151.2440 C   0  0  0  0  0  3  0  0  0  0  0  0
  161.7860  208.0810  152.4690 C   0  0  0  0  0  3  0  0  0  0  0  0
  160.7110  207.1960  153.0210 C   0  0  0  0  0  2  0  0  0  0  0  0
  160.5260  207.3810  154.5200 C   0  0  1  0  0  3  0  0  0  0  0  0
  161.6070  206.8050  155.1880 O   0  0  0  0  0  1  0  0  0  0  0  0
  160.0660  208.5350  157.1630 F   0  0  0  0  0  0  0  0  0  0  0  0
  160.9050  211.3340  156.2380 C   0  0  0  0  0  2  0  0  0  0  0  0
  159.5360  210.6970  156.2830 C   0  0  2  0  0  3  0  0  0  0  0  0
  161.9430  210.7310  155.6500 C   0  0  0  0  0  3  0  0  0  0  0  0
  160.4610  208.8740  154.8250 C   0  0  2  0  0  3  0  0  0  0  0  0
  161.7910  209.4440  155.0330 N   0  0  0  0  0  0  0  0  0  0  0  0
  159.5730  209.1750  156.0380 C   0  0  1  0  0  3  0  0  0  0  0  0
  158.4970  211.5080  155.4770 C   0  0  2  0  0  3  0  0  0  0  0  0
  158.9740  212.9060  155.1020 C   0  0  2  0  0  3  0  0  0  0  0  0
  157.9810  212.7100  156.2580 C   0  0  1  0  0  3  0  0  0  0  0  0
  155.4330  213.5930  157.2610 O   0  0  0  0  0  1  0  0  0  0  0  0
  156.2150  213.0230  155.8740 P   0  0  1  0  0  0  0  0  0  0  0  0
  156.0690  214.0370  154.7580 O   0  0  0  0  0  0  0  0  0  0  0  0
  155.4490  211.4580  155.3600 C   0  0  0  0  0  2  0  0  0  0  0  0
  154.0400  209.6290  156.1700 C   0  0  0  0  0  2  0  0  0  0  0  0
  154.9510  210.7110  156.5790 C   0  0  2  0  0  3  0  0  0  0  0  0
  153.5570  210.8490  156.6630 O   0  0  0  0  0  0  0  0  0  0  0  0
  158.3780  213.3200  153.7630 C   0  0  0  0  0  2  0  0  0  0  0  0
  159.2370  212.8050  152.6140 C   0  0  2  0  0  3  0  0  0  0  0  0
  160.4990  212.4120  153.0770 O   0  0  0  0  0  0  0  0  0  0  0  0
  160.6810  211.1220  152.5680 C   0  0  0  0  0  1  0  0  0  0  0  0
  159.3750  213.8680  151.5210 C   0  0  0  0  0  2  0  0  0  0  0  0
  159.2400  213.3000  150.1470 C   0  0  0  0  0  0  0  0  0  0  0  0
  158.2440  213.5930  149.4390 O   0  0  0  0  0  0  0  0  0  0  0  0
  160.1940  212.4150  149.6680 O   0  0  0  0  0  1  0  0  0  0  0  0
  161.8390  206.6050  150.1240 S   0  0  0  0  0  0  0  0  0  0  0  0
  161.5360  207.6640  148.6560 C   0  0  2  0  0  3  0  0  0  0  0  0
  161.4180  205.8710  144.6890 C   0  0  0  0  0  2  0  0  0  0  0  0
  160.1230  206.8720  146.5960 C   0  0  0  0  0  2  0  0  0  0  0  0
  160.1060  205.8380  145.4710 C   0  0  0  0  0  2  0  0  0  0  0  0
  162.5840  205.5260  145.6220 C   0  0  1  0  0  3  0  0  0  0  0  0
  161.4400  206.9410  147.3440 C   0  0  0  0  0  0  0  0  0  0  0  0
  162.5610  206.3850  146.8570 C   0  0  0  0  0  3  0  0  0  0  0  0
  162.5290  204.0640  146.0500 C   0  0  0  0  0  2  0  0  0  0  0  0
  161.9190  203.9110  147.4390 C   0  0  0  0  0  2  0  0  0  0  0  0
  159.7590  202.8000  146.9970 C   0  0  0  0  0  1  0  0  0  0  0  0
  161.1370  202.5820  147.6190 C   0  0  2  0  0  0  0  0  0  0  0  0
  160.2000  200.0170  149.8290 C   0  0  0  0  0  2  0  0  0  0  0  0
  162.0780  201.4130  149.5680 O   0  0  0  0  0  0  0  0  0  0  0  0
  161.5810  200.3380  150.3210 C   0  0  0  0  0  2  0  0  0  0  0  0
  160.9670  202.1770  149.1370 C   0  0  2  0  0  0  0  0  0  0  0  0
  159.7090  201.3370  149.3410 C   0  0  0  0  0  2  0  0  0  0  0  0
  160.8080  203.4140  150.0410 C   0  0  0  0  0  2  0  0  0  0  0  0
  162.4480  203.1890  151.8790 C   0  0  0  0  0  1  0  0  0  0  0  0
  160.2360  204.1770  152.3400 C   0  0  0  0  0  1  0  0  0  0  0  0
  160.9780  203.1340  151.5300 C   0  0  0  0  0  3  0  0  0  0  0  0
  161.7300  201.5400  146.8570 O   0  0  0  0  0  0  0  0  0  0  0  0
  161.2060  199.4630  145.8120 C   0  0  0  0  0  1  0  0  0  0  0  0
  160.7780  200.8970  146.0480 C   0  0  0  0  0  2  0  0  0  0  0  0
  162.4880  209.6540  149.6040 O   0  0  0  0  0  1  0  0  0  0  0  0
  163.0920  209.1930  147.4500 O   0  0  0  0  0  0  0  0  0  0  0  0
  162.4020  208.8860  148.6110 C   0  0  0  0  0  0  0  0  0  0  0  0
  1  2  2  0  0  0  0
  2  3  1  0  0  0  0
  3  4  1  0  0  0  0
  4  5  1  1  0  0  0
  8  7  1  6  0  0  0
  9  7  1  0  0  0  0
 10  4  1  1  0  0  0
 10 11  1  0  0  0  0
 10 12  1  0  0  0  0
 11  9  2  0  0  0  0
 12  8  1  0  0  0  0
 12  6  1  1  0  0  0
 13 15  1  0  0  0  0
 13  8  1  1  0  0  0
 14 23  1  6  0  0  0
 14 13  1  0  0  0  0
 14 15  1  0  0  0  0
 15 17  1  6  0  0  0
 17 18  2  6  0  0  0
 17 16  1  0  0  0  0
 19 17  1  0  0  0  0
 20 21  1  0  0  0  0
 20 22  1  0  0  0  0
 21 19  1  6  0  0  0
 21 22  1  0  0  0  0
 24 27  1  6  0  0  0
 24 25  1  0  0  0  0
 24 23  1  0  0  0  0
 26 25  1  0  0  0  0
 28 27  1  0  0  0  0
 29 28  2  0  0  0  0
 30 28  1  0  0  0  0
 31  1  1  0  0  0  0
 32 57  1  6  0  0  0
 32 31  1  0  0  0  0
 33 35  1  0  0  0  0
 33 36  1  0  0  0  0
 34 37  1  0  0  0  0
 35 34  1  0  0  0  0
 36 39  1  1  0  0  0
 36 38  1  0  0  0  0
 37 32  1  0  0  0  0
 38 37  2  0  0  0  0
 39 40  1  0  0  0  0
 40 42  1  0  0  0  0
 42 41  1  6  0  0  0
 42 46  1  0  0  0  0
 43 45  1  0  0  0  0
 44 45  1  0  0  0  0
 46 47  1  0  0  0  0
 46 44  1  0  0  0  0
 46 48  1  1  0  0  0
 47 43  1  0  0  0  0
 48 51  1  0  0  0  0
 51 49  1  0  0  0  0
 51 50  1  0  0  0  0
 52 42  1  0  0  0  0
 53 54  1  0  0  0  0
 54 52  1  0  0  0  0
 56 57  2  0  0  0  0
 57 55  1  0  0  0  0
M  END
>  <MODEL>
7

>  <REMARK>
 VINA RESULT:       0.2      6.190     10.779
  Name = 
  24 active torsions:
  status: ('A' for Active; 'I' for Inactive)
    1  A    between atoms: C_1  and  C_29
    2  A    between atoms: C_5  and  C_18
    3  A    between atoms: C_5  and  C_34
    4  A    between atoms: C_7  and  C_15
    5  A    between atoms: C_7  and  C_27
    6  A    between atoms: S_11  and  C_13
    7  A    between atoms: S_11  and  C_52
    8  A    between atoms: C_15  and  C_55
    9  A    between atoms: C_16  and  O_38
   10  A    between atoms: P_17  and  C_44
   11  A    between atoms: P_17  and  C_57
   12  A    between atoms: C_18  and  C_41
   13  A    between atoms: O_19  and  C_30
   14  A    between atoms: C_23  and  C_25
   15  A    between atoms: C_28  and  C_39
   16  A    between atoms: C_29  and  C_30
   17  A    between atoms: C_30  and  C_39
   18  A    between atoms: C_31  and  C_52
   19  A    between atoms: C_37  and  C_42
   20  A    between atoms: O_38  and  C_55
   21  A    between atoms: C_42  and  C_54
   22  A    between atoms: C_46  and  C_57
   23  A    between atoms: C_48  and  C_52
   24  A    between atoms: C_54  and  C_55
                            x       y       z     vdW  Elec       q    Type
                         _______ _______ _______ _____ _____    ______ ____

>  <TORSDO>
F 24

$$$$
=
 OpenBabel11052410303D

 57 61  0  0  1  0  0  0  0  0999 V2000
  161.4630  205.8590  150.0720 C   0  0  0  0  0  3  0  0  0  0  0  0
  162.2890  206.2760  151.0390 C   0  0  0  0  0  3  0  0  0  0  0  0
  162.2930  207.6750  151.5750 C   0  0  0  0  0  2  0  0  0  0  0  0
  161.0360  207.9890  152.3730 C   0  0  1  0  0  3  0  0  0  0  0  0
  161.2800  207.7430  153.7250 O   0  0  0  0  0  1  0  0  0  0  0  0
  162.6490  210.2500  153.2760 F   0  0  0  0  0  0  0  0  0  0  0  0
  161.0570  212.2410  151.5760 C   0  0  0  0  0  2  0  0  0  0  0  0
  160.8590  211.8160  153.0110 C   0  0  2  0  0  3  0  0  0  0  0  0
  161.1710  211.3500  150.5860 C   0  0  0  0  0  3  0  0  0  0  0  0
  160.6790  209.4580  152.1680 C   0  0  2  0  0  3  0  0  0  0  0  0
  161.1040  209.9420  150.8560 N   0  0  0  0  0  0  0  0  0  0  0  0
  161.2680  210.3510  153.2660 C   0  0  1  0  0  3  0  0  0  0  0  0
  159.4850  212.2620  153.5580 C   0  0  2  0  0  3  0  0  0  0  0  0
  158.4710  211.1280  153.6550 C   0  0  2  0  0  3  0  0  0  0  0  0
  158.3880  212.1470  152.5080 C   0  0  1  0  0  3  0  0  0  0  0  0
  155.6480  212.8230  153.0720 O   0  0  0  0  0  0  0  0  0  0  0  0
  157.1570  213.4930  152.7050 P   0  0  1  0  0  0  0  0  0  0  0  0
  157.5660  214.4520  153.8040 O   0  0  0  0  0  1  0  0  0  0  0  0
  157.0390  214.4010  151.1360 C   0  0  0  0  0  2  0  0  0  0  0  0
  156.7350  214.1410  148.7220 C   0  0  0  0  0  2  0  0  0  0  0  0
  156.6970  213.4400  150.0160 C   0  0  2  0  0  3  0  0  0  0  0  0
  155.5260  213.8770  149.3800 O   0  0  0  0  0  0  0  0  0  0  0  0
  157.5360  211.3620  154.8350 C   0  0  0  0  0  2  0  0  0  0  0  0
  158.2570  212.1150  155.9470 C   0  0  2  0  0  3  0  0  0  0  0  0
  159.4650  211.4830  156.2700 O   0  0  0  0  0  0  0  0  0  0  0  0
  159.2700  210.1420  155.9260 C   0  0  0  0  0  1  0  0  0  0  0  0
  157.3670  212.2360  157.1860 C   0  0  0  0  0  2  0  0  0  0  0  0
  155.9780  212.6710  156.8560 C   0  0  0  0  0  0  0  0  0  0  0  0
  155.0060  211.9110  157.0900 O   0  0  0  0  0  1  0  0  0  0  0  0
  155.7650  213.9010  156.2500 O   0  0  0  0  0  0  0  0  0  0  0  0
  160.1890  206.9010  149.3410 S   0  0  0  0  0  0  0  0  0  0  0  0
  161.1930  207.4960  147.9250 C   0  0  2  0  0  3  0  0  0  0  0  0
  161.7920  204.9770  144.4240 C   0  0  0  0  0  2  0  0  0  0  0  0
  160.1640  206.2110  145.8870 C   0  0  0  0  0  2  0  0  0  0  0  0
  160.3780  204.9830  145.0030 C   0  0  0  0  0  2  0  0  0  0  0  0
  162.8150  204.9140  145.5630 C   0  0  1  0  0  3  0  0  0  0  0  0
  161.3420  206.5310  146.7850 C   0  0  0  0  0  0  0  0  0  0  0  0
  162.5540  205.9870  146.5840 C   0  0  0  0  0  3  0  0  0  0  0  0
  162.7730  203.5620  146.2650 C   0  0  0  0  0  2  0  0  0  0  0  0
  161.8030  203.5710  147.4400 C   0  0  0  0  0  2  0  0  0  0  0  0
  159.7310  202.4240  146.7410 C   0  0  0  0  0  1  0  0  0  0  0  0
  160.9980  202.2510  147.5780 C   0  0  2  0  0  0  0  0  0  0  0  0
  158.7620  200.5120  149.6570 C   0  0  0  0  0  2  0  0  0  0  0  0
  161.1030  200.6730  149.4630 O   0  0  0  0  0  0  0  0  0  0  0  0
  160.0820  200.0090  150.1610 C   0  0  0  0  0  2  0  0  0  0  0  0
  160.5960  201.9370  149.0740 C   0  0  2  0  0  0  0  0  0  0  0  0
  159.0790  201.9070  149.2390 C   0  0  0  0  0  2  0  0  0  0  0  0
  161.1110  203.0200  150.0410 C   0  0  0  0  0  2  0  0  0  0  0  0
  162.5870  202.3660  151.9160 C   0  0  0  0  0  1  0  0  0  0  0  0
  160.5500  203.6780  152.3750 C   0  0  0  0  0  1  0  0  0  0  0  0
  161.1500  202.5940  151.5040 C   0  0  0  0  0  3  0  0  0  0  0  0
  161.6950  201.1680  146.9800 O   0  0  0  0  0  0  0  0  0  0  0  0
  161.5260  199.0510  145.9000 C   0  0  0  0  0  1  0  0  0  0  0  0
  160.8260  200.3510  146.2380 C   0  0  0  0  0  2  0  0  0  0  0  0
  162.5640  209.4010  148.4320 O   0  0  0  0  0  0  0  0  0  0  0  0
  163.5950  207.3670  148.5820 O   0  0  0  0  0  1  0  0  0  0  0  0
  162.4780  208.1500  148.3360 C   0  0  0  0  0  0  0  0  0  0  0  0
  1  2  2  0  0  0  0
  2  3  1  0  0  0  0
  3  4  1  0  0  0  0
  4  5  1  1  0  0  0
  8  7  1  6  0  0  0
  8 12  1  0  0  0  0
  9 11  2  0  0  0  0
  9  7  1  0  0  0  0
 10  4  1  1  0  0  0
 10 12  1  0  0  0  0
 11 10  1  0  0  0  0
 12  6  1  6  0  0  0
 13  8  1  6  0  0  0
 13 14  1  0  0  0  0
 14 23  1  1  0  0  0
 15 17  1  1  0  0  0
 15 13  1  0  0  0  0
 15 14  1  0  0  0  0
 17 16  2  1  0  0  0
 17 18  1  0  0  0  0
 19 17  1  0  0  0  0
 20 22  1  0  0  0  0
 20 21  1  0  0  0  0
 21 19  1  1  0  0  0
 22 21  1  0  0  0  0
 24 23  1  6  0  0  0
 24 25  1  0  0  0  0
 24 27  1  0  0  0  0
 26 25  1  0  0  0  0
 28 29  1  0  0  0  0
 28 27  1  0  0  0  0
 30 28  2  0  0  0  0
 31  1  1  0  0  0  0
 32 57  1  1  0  0  0
 32 31  1  0  0  0  0
 33 35  1  0  0  0  0
 33 36  1  0  0  0  0
 34 37  1  0  0  0  0
 35 34  1  0  0  0  0
 36 39  1  1  0  0  0
 36 38  1  0  0  0  0
 37 32  1  0  0  0  0
 38 37  2  0  0  0  0
 39 40  1  0  0  0  0
 40 42  1  0  0  0  0
 42 41  1  6  0  0  0
 42 46  1  0  0  0  0
 43 45  1  0  0  0  0
 44 45  1  0  0  0  0
 46 47  1  0  0  0  0
 46 44  1  0  0  0  0
 46 48  1  1  0  0  0
 47 43  1  0  0  0  0
 48 51  1  0  0  0  0
 51 49  1  0  0  0  0
 51 50  1  0  0  0  0
 52 42  1  0  0  0  0
 53 54  1  0  0  0  0
 54 52  1  0  0  0  0
 57 55  2  0  0  0  0
 57 56  1  0  0  0  0
M  END
>  <MODEL>
8

>  <REMARK>
 VINA RESULT:       0.4      5.820     10.287
  Name = 
  24 active torsions:
  status: ('A' for Active; 'I' for Inactive)
    1  A    between atoms: C_1  and  C_29
    2  A    between atoms: C_5  and  C_18
    3  A    between atoms: C_5  and  C_34
    4  A    between atoms: C_7  and  C_15
    5  A    between atoms: C_7  and  C_27
    6  A    between atoms: S_11  and  C_13
    7  A    between atoms: S_11  and  C_52
    8  A    between atoms: C_15  and  C_55
    9  A    between atoms: C_16  and  O_38
   10  A    between atoms: P_17  and  C_44
   11  A    between atoms: P_17  and  C_57
   12  A    between atoms: C_18  and  C_41
   13  A    between atoms: O_19  and  C_30
   14  A    between atoms: C_23  and  C_25
   15  A    between atoms: C_28  and  C_39
   16  A    between atoms: C_29  and  C_30
   17  A    between atoms: C_30  and  C_39
   18  A    between atoms: C_31  and  C_52
   19  A    between atoms: C_37  and  C_42
   20  A    between atoms: O_38  and  C_55
   21  A    between atoms: C_42  and  C_54
   22  A    between atoms: C_46  and  C_57
   23  A    between atoms: C_48  and  C_52
   24  A    between atoms: C_54  and  C_55
                            x       y       z     vdW  Elec       q    Type
                         _______ _______ _______ _____ _____    ______ ____

>  <TORSDO>
F 24

$$$$
=
 OpenBabel11052410303D

 57 61  0  0  1  0  0  0  0  0999 V2000
  162.2450  210.4300  150.9120 C   0  0  0  0  0  3  0  0  0  0  0  0
  162.4060  209.2630  151.5490 C   0  0  0  0  0  3  0  0  0  0  0  0
  162.3700  207.9340  150.8590 C   0  0  0  0  0  2  0  0  0  0  0  0
  162.3090  206.7760  151.8450 C   0  0  1  0  0  3  0  0  0  0  0  0
  161.6900  207.2080  153.0190 O   0  0  0  0  0  1  0  0  0  0  0  0
  161.9690  204.1190  153.0090 F   0  0  0  0  0  0  0  0  0  0  0  0
  159.7050  203.4090  151.0700 C   0  0  0  0  0  3  0  0  0  0  0  0
  161.1910  203.1640  150.9570 C   0  0  2  0  0  3  0  0  0  0  0  0
  159.2100  204.6190  151.3460 C   0  0  0  0  0  3  0  0  0  0  0  0
  161.5040  205.6420  151.2190 C   0  0  2  0  0  3  0  0  0  0  0  0
  160.0820  205.7410  151.5450 N   0  0  0  0  0  2  0  0  0  0  0  0
  162.0340  204.2650  151.6330 C   0  0  1  0  0  3  0  0  0  0  0  0
  161.5990  202.7540  149.5250 C   0  0  2  0  0  3  0  0  0  0  0  0
  161.2880  203.8130  148.4760 C   0  0  2  0  0  3  0  0  0  0  0  0
  160.3900  202.5740  148.6160 C   0  0  1  0  0  3  0  0  0  0  0  0
  162.2670  200.6610  147.5680 O   0  0  0  0  0  0  0  0  0  0  0  0
  160.6790  201.2210  147.4110 P   0  0  1  0  0  0  0  0  0  0  0  0
  159.7140  200.0750  147.6330 O   0  0  0  0  0  1  0  0  0  0  0  0
  160.4440  201.8810  145.7350 C   0  0  0  0  0  2  0  0  0  0  0  0
  160.2370  199.4960  145.2280 C   0  0  0  0  0  2  0  0  0  0  0  0
  159.7620  200.8420  144.8700 C   0  0  2  0  0  3  0  0  0  0  0  0
  160.7310  200.1750  144.1050 O   0  0  0  0  0  0  0  0  0  0  0  0
  162.3280  203.7710  147.3640 C   0  0  0  0  0  2  0  0  0  0  0  0
  162.2500  205.0320  146.5110 C   0  0  2  0  0  3  0  0  0  0  0  0
  162.7040  206.1450  147.2300 O   0  0  0  0  0  0  0  0  0  0  0  0
  161.6650  207.0770  147.1390 C   0  0  0  0  0  1  0  0  0  0  0  0
  160.8220  205.2620  146.0130 C   0  0  0  0  0  2  0  0  0  0  0  0
  160.7040  205.1400  144.5290 C   0  0  0  0  0  0  0  0  0  0  0  0
  159.9740  204.2500  144.0260 O   0  0  0  0  0  1  0  0  0  0  0  0
  161.4340  205.9840  143.7060 O   0  0  0  0  0  0  0  0  0  0  0  0
  162.0440  210.5630  149.1280 S   0  0  0  0  0  0  0  0  0  0  0  0
  161.5630  212.3340  149.1040 C   0  0  2  0  0  3  0  0  0  0  0  0
  158.0760  213.2760  151.5350 C   0  0  0  0  0  2  0  0  0  0  0  0
  159.9240  214.1370  150.0670 C   0  0  0  0  0  2  0  0  0  0  0  0
  159.0340  214.4370  151.2720 C   0  0  0  0  0  2  0  0  0  0  0  0
  158.8750  212.0080  151.8510 C   0  0  1  0  0  3  0  0  0  0  0  0
  160.4430  212.7140  150.0280 C   0  0  0  0  0  0  0  0  0  0  0  0
  159.9120  211.7450  150.7930 C   0  0  0  0  0  3  0  0  0  0  0  0
  159.5800  212.1250  153.1970 C   0  0  0  0  0  2  0  0  0  0  0  0
  159.2130  210.9700  154.1220 C   0  0  0  0  0  2  0  0  0  0  0  0
  160.0100  212.7100  155.6830 C   0  0  0  0  0  1  0  0  0  0  0  0
  159.4970  211.2720  155.6180 C   0  0  2  0  0  0  0  0  0  0  0  0
  162.8940  210.3730  155.6300 C   0  0  0  0  0  2  0  0  0  0  0  0
  161.3030  210.9660  157.2610 O   0  0  0  0  0  0  0  0  0  0  0  0
  162.6590  210.6520  157.0850 C   0  0  0  0  0  2  0  0  0  0  0  0
  160.5800  210.3030  156.2400 C   0  0  2  0  0  0  0  0  0  0  0  0
  161.5750  209.8420  155.1800 C   0  0  0  0  0  2  0  0  0  0  0  0
  159.9370  209.0240  156.8100 C   0  0  0  0  0  2  0  0  0  0  0  0
  161.5170  207.1380  157.0680 C   0  0  0  0  0  1  0  0  0  0  0  0
  159.3050  206.7390  156.0530 C   0  0  0  0  0  1  0  0  0  0  0  0
  160.4430  207.7300  156.1840 C   0  0  0  0  0  3  0  0  0  0  0  0
  158.2920  211.2720  156.3710 O   0  0  0  0  0  0  0  0  0  0  0  0
  156.4650  212.4600  155.4080 C   0  0  0  0  0  1  0  0  0  0  0  0
  157.6650  212.5280  156.3290 C   0  0  0  0  0  2  0  0  0  0  0  0
  162.3930  213.4710  147.1590 O   0  0  0  0  0  1  0  0  0  0  0  0
  160.2070  212.8150  147.0680 O   0  0  0  0  0  0  0  0  0  0  0  0
  161.4250  212.8980  147.7220 C   0  0  0  0  0  0  0  0  0  0  0  0
  1  2  2  0  0  0  0
  3  2  1  0  0  0  0
  3  4  1  0  0  0  0
  4  5  1  1  0  0  0
  7  9  2  0  0  0  0
  8  7  1  6  0  0  0
  8 12  1  0  0  0  0
  9 11  1  0  0  0  0
 10 11  1  0  0  0  0
 10 12  1  0  0  0  0
 10  4  1  1  0  0  0
 12  6  1  1  0  0  0
 13  8  1  1  0  0  0
 14 23  1  6  0  0  0
 14 15  1  0  0  0  0
 14 13  1  0  0  0  0
 15 17  1  6  0  0  0
 15 13  1  0  0  0  0
 17 16  2  1  0  0  0
 17 18  1  0  0  0  0
 19 17  1  0  0  0  0
 21 20  1  0  0  0  0
 21 19  1  1  0  0  0
 22 21  1  0  0  0  0
 22 20  1  0  0  0  0
 24 27  1  1  0  0  0
 24 25  1  0  0  0  0
 24 23  1  0  0  0  0
 26 25  1  0  0  0  0
 28 27  1  0  0  0  0
 29 28  1  0  0  0  0
 30 28  2  0  0  0  0
 31  1  1  0  0  0  0
 32 57  1  6  0  0  0
 32 31  1  0  0  0  0
 32 37  1  0  0  0  0
 33 36  1  0  0  0  0
 34 35  1  0  0  0  0
 35 33  1  0  0  0  0
 36 39  1  1  0  0  0
 37 34  1  0  0  0  0
 37 38  2  0  0  0  0
 38 36  1  0  0  0  0
 39 40  1  0  0  0  0
 40 42  1  0  0  0  0
 42 41  1  1  0  0  0
 42 46  1  0  0  0  0
 42 52  1  0  0  0  0
 43 45  1  0  0  0  0
 45 44  1  0  0  0  0
 46 48  1  1  0  0  0
 46 44  1  0  0  0  0
 47 43  1  0  0  0  0
 47 46  1  0  0  0  0
 50 51  1  0  0  0  0
 51 48  1  0  0  0  0
 51 49  1  0  0  0  0
 53 54  1  0  0  0  0
 54 52  1  0  0  0  0
 55 57  1  0  0  0  0
 56 57  2  0  0  0  0
M  END
>  <MODEL>
9

>  <REMARK>
 VINA RESULT:       0.4      5.382      9.638
  Name = 
  24 active torsions:
  status: ('A' for Active; 'I' for Inactive)
    1  A    between atoms: C_1  and  C_29
    2  A    between atoms: C_5  and  C_18
    3  A    between atoms: C_5  and  C_34
    4  A    between atoms: C_7  and  C_15
    5  A    between atoms: C_7  and  C_27
    6  A    between atoms: S_11  and  C_13
    7  A    between atoms: S_11  and  C_52
    8  A    between atoms: C_15  and  C_55
    9  A    between atoms: C_16  and  O_38
   10  A    between atoms: P_17  and  C_44
   11  A    between atoms: P_17  and  C_57
   12  A    between atoms: C_18  and  C_41
   13  A    between atoms: O_19  and  C_30
   14  A    between atoms: C_23  and  C_25
   15  A    between atoms: C_28  and  C_39
   16  A    between atoms: C_29  and  C_30
   17  A    between atoms: C_30  and  C_39
   18  A    between atoms: C_31  and  C_52
   19  A    between atoms: C_37  and  C_42
   20  A    between atoms: O_38  and  C_55
   21  A    between atoms: C_42  and  C_54
   22  A    between atoms: C_46  and  C_57
   23  A    between atoms: C_48  and  C_52
   24  A    between atoms: C_54  and  C_55
                            x       y       z     vdW  Elec       q    Type
                         _______ _______ _______ _____ _____    ______ ____

>  <TORSDO>
F 24

$$$$
