=
 OpenBabel11042422323D

 60 67  0  0  1  0  0  0  0  0999 V2000
  161.7890  208.1540  152.2810 C   0  0  0  0  0  3  0  0  0  0  0  0
  161.3560  210.2980  153.3870 O   0  0  0  0  0  0  0  0  0  0  0  0
  161.6850  208.7480  151.0840 C   0  0  0  0  0  0  0  0  0  0  0  0
  161.4280  208.8750  153.5660 C   0  0  1  0  0  3  0  0  0  0  0  0
  160.9080  212.4030  150.3480 C   0  0  2  0  0  3  0  0  0  0  0  0
  161.2890  210.1690  151.0270 C   0  0  0  0  0  0  0  0  0  0  0  0
  161.0400  210.9770  149.8090 C   0  0  0  0  0  2  0  0  0  0  0  0
  160.8540  212.2940  151.8770 C   0  0  0  0  0  2  0  0  0  0  0  0
  161.1720  210.8740  152.1250 C   0  0  0  0  0  0  0  0  0  0  0  0
  159.9450  205.4490  151.5200 O   0  0  0  0  0  0  0  0  0  0  0  0
  162.7210  208.6930  148.8310 C   0  0  0  0  0  2  0  0  0  0  0  0
  160.8990  204.5720  151.4980 C   0  0  2  0  0  3  0  0  0  0  0  0
  161.9680  205.9480  148.7130 N   0  0  0  0  0  0  0  0  0  0  0  0
  162.4720  206.5930  147.5380 C   0  0  0  0  0  0  0  0  0  0  0  0
  161.1280  205.8950  150.9080 N   0  0  0  0  0  0  0  0  0  0  0  0
  162.7700  207.8980  147.5580 C   0  0  0  0  0  3  0  0  0  0  0  0
  161.7360  206.5880  149.8170 C   0  0  0  0  0  0  0  0  0  0  0  0
  161.9770  208.0070  149.8930 N   0  0  0  0  0  0  0  0  0  0  0  0
  163.0200  204.4510  146.4950 N   0  0  0  0  0  2  0  0  0  0  0  0
  159.8760  203.6880  144.9830 C   0  0  0  0  0  3  0  0  0  0  0  0
  160.9480  204.2820  145.4990 C   0  0  0  0  0  0  0  0  0  0  0  0
  161.1360  205.7310  145.5910 C   0  0  0  0  0  2  0  0  0  0  0  0
  162.0310  203.6180  146.0230 O   0  0  0  0  0  0  0  0  0  0  0  0
  162.5170  205.8150  146.2570 C   0  0  1  0  0  3  0  0  0  0  0  0
  159.7600  202.2550  144.9330 C   0  0  0  0  0  0  0  0  0  0  0  0
  159.6650  201.0520  144.8900 C   0  0  0  0  0  3  0  0  0  0  0  0
  160.6420  203.5540  150.4020 C   0  0  0  0  0  2  0  0  0  0  0  0
  161.5530  202.3440  150.5910 C   0  0  0  0  0  2  0  0  0  0  0  0
  161.1350  201.1280  149.7530 C   0  0  2  0  0  3  0  0  0  0  0  0
  161.0910  200.0830  147.5010 C   0  0  0  0  0  2  0  0  0  0  0  0
  161.3830  201.3610  148.2680 C   0  0  0  0  0  3  0  0  0  0  0  0
  162.5220  200.4820  147.7870 C   0  0  0  0  0  2  0  0  0  0  0  0
  159.7090  200.7300  149.9910 C   0  0  0  0  0  3  0  0  0  0  0  0
  158.7060  201.3870  149.4110 C   0  0  0  0  0  2  0  0  0  0  0  0
  160.0880  208.3630  154.0760 C   0  0  0  0  0  2  0  0  0  0  0  0
  159.7030  209.0670  155.3660 C   0  0  0  0  0  2  0  0  0  0  0  0
  159.7670  210.5730  155.1830 C   0  0  0  0  0  2  0  0  0  0  0  0
  155.6040  213.5800  157.2600 C   0  0  0  0  0  1  0  0  0  0  0  0
  158.9220  212.9400  155.8990 S   0  0  0  0  0  0  0  0  0  0  0  0
  156.1080  212.9480  155.9770 C   0  0  1  0  0  0  0  0  0  0  0  0
  155.6290  214.1340  153.9020 C   0  0  1  0  0  3  0  0  0  0  0  0
  157.6190  212.9700  153.2220 O   0  0  0  0  0  1  0  0  0  0  0  0
  156.3110  211.4430  156.2160 C   0  0  0  0  0  2  0  0  0  0  0  0
  155.0550  213.1380  154.8910 C   0  0  0  0  0  2  0  0  0  0  0  0
  159.3610  213.4330  157.2480 O   0  0  0  0  0  0  0  0  0  0  0  0
  158.7280  211.2080  155.9800 N   0  0  0  0  0  0  0  0  0  0  0  0
  157.1430  214.0220  154.0160 C   0  0  2  0  0  3  0  0  0  0  0  0
  159.9590  213.3290  154.8810 O   0  0  0  0  0  0  0  0  0  0  0  0
  155.1060  213.8750  152.5000 C   0  0  0  0  0  1  0  0  0  0  0  0
  157.4460  210.8490  155.3880 C   0  0  0  0  0  2  0  0  0  0  0  0
  157.3510  213.7190  155.4970 C   0  0  2  0  0  3  0  0  0  0  0  0
  159.6470  213.0540  149.8050 C   0  0  0  0  0  2  0  0  0  0  0  0
  159.4740  212.7650  148.3150 C   0  0  2  0  0  3  0  0  0  0  0  0
  160.8680  213.5400  147.4270 P   0  0  0  0  0  0  0  0  0  0  0  0
  161.8300  212.3410  146.7220 O   0  0  0  0  0  1  0  0  0  0  0  0
  160.3360  214.4530  146.3460 O   0  0  0  0  0  0  0  0  0  0  0  0
  161.8120  214.4500  148.4960 O   0  0  0  0  0  1  0  0  0  0  0  0
  156.9990  213.0970  148.7810 C   0  0  0  0  0  1  0  0  0  0  0  0
  157.7380  212.5820  146.4980 C   0  0  0  0  0  1  0  0  0  0  0  0
  158.1290  213.2910  147.7810 C   0  0  0  0  0  3  0  0  0  0  0  0
  1  4  1  0  0  0  0
  2  4  1  0  0  0  0
  3  1  2  0  0  0  0
  4 35  1  6  0  0  0
  5 52  1  6  0  0  0
  5  8  1  0  0  0  0
  6  3  1  0  0  0  0
  6  9  2  0  0  0  0
  7  5  1  0  0  0  0
  7  6  1  0  0  0  0
  8  9  1  0  0  0  0
  9  2  1  0  0  0  0
 11 18  1  0  0  0  0
 12 27  1  6  0  0  0
 12 10  1  0  0  0  0
 13 17  2  0  0  0  0
 14 16  2  0  0  0  0
 14 13  1  0  0  0  0
 15 12  1  0  0  0  0
 15 10  1  0  0  0  0
 16 11  1  0  0  0  0
 17 18  1  0  0  0  0
 17 15  1  0  0  0  0
 18  3  1  0  0  0  0
 20 21  2  0  0  0  0
 21 22  1  0  0  0  0
 21 23  1  0  0  0  0
 22 24  1  0  0  0  0
 23 19  1  0  0  0  0
 24 19  1  0  0  0  0
 24 14  1  1  0  0  0
 25 20  1  0  0  0  0
 26 25  3  0  0  0  0
 27 28  1  0  0  0  0
 29 33  1  6  0  0  0
 29 28  1  0  0  0  0
 30 32  1  0  0  0  0
 30 31  1  0  0  0  0
 31 29  1  0  0  0  0
 32 31  1  0  0  0  0
 34 33  2  0  0  0  0
 35 36  1  0  0  0  0
 37 36  1  0  0  0  0
 37 46  1  0  0  0  0
 39 46  1  0  0  0  0
 39 45  2  0  0  0  0
 40 43  1  0  0  0  0
 40 38  1  1  0  0  0
 41 49  1  6  0  0  0
 41 47  1  0  0  0  0
 41 44  1  0  0  0  0
 44 40  1  0  0  0  0
 47 42  1  6  0  0  0
 47 51  1  0  0  0  0
 48 39  2  0  0  0  0
 50 46  1  0  0  0  0
 50 43  1  0  0  0  0
 51 39  1  6  0  0  0
 51 40  1  0  0  0  0
 53 52  1  1  0  0  0
 54 53  1  0  0  0  0
 54 57  1  0  0  0  0
 55 54  1  0  0  0  0
 56 54  2  0  0  0  0
 59 60  1  0  0  0  0
 60 53  1  0  0  0  0
 60 58  1  0  0  0  0
M  END
>  <MODEL>
1

>  <REMARK>
 VINA RESULT:      -2.9      0.000      0.000
  Name = 
  16 active torsions:
  status: ('A' for Active; 'I' for Inactive)
    1  A    between atoms: P_3  and  C_59
    2  A    between atoms: C_5  and  C_49
    3  A    between atoms: C_6  and  C_15
    4  A    between atoms: C_6  and  C_49
    5  A    between atoms: C_9  and  N_45
    6  A    between atoms: C_13  and  N_36
    7  A    between atoms: C_13  and  C_38
    8  A    between atoms: C_15  and  C_27
    9  A    between atoms: C_17  and  C_33
   10  A    between atoms: C_17  and  C_38
   11  A    between atoms: C_21  and  C_34
   12  A    between atoms: C_30  and  C_49
   13  A    between atoms: C_31  and  C_51
   14  A    between atoms: C_35  and  C_57
   15  A    between atoms: C_46  and  C_59
   16  A    between atoms: C_57  and  C_59
                            x       y       z     vdW  Elec       q    Type
                         _______ _______ _______ _____ _____    ______ ____

>  <TORSDO>
F 16

$$$$
=
 OpenBabel11042422323D

 60 67  0  0  1  0  0  0  0  0999 V2000
  162.0570  206.4130  151.0570 C   0  0  0  0  0  3  0  0  0  0  0  0
  162.2930  208.4060  152.4650 O   0  0  0  0  0  0  0  0  0  0  0  0
  161.9910  207.1890  149.9670 C   0  0  0  0  0  0  0  0  0  0  0  0
  162.0190  206.9960  152.4570 C   0  0  1  0  0  3  0  0  0  0  0  0
  162.0970  210.9910  149.7920 C   0  0  2  0  0  3  0  0  0  0  0  0
  161.9640  208.6550  150.1360 C   0  0  0  0  0  0  0  0  0  0  0  0
  161.8090  209.6730  149.0700 C   0  0  0  0  0  2  0  0  0  0  0  0
  162.1680  210.6690  151.2890 C   0  0  0  0  0  2  0  0  0  0  0  0
  162.1380  209.1930  151.3180 C   0  0  0  0  0  0  0  0  0  0  0  0
  160.0590  203.9960  150.3860 O   0  0  0  0  0  0  0  0  0  0  0  0
  162.5470  207.3500  147.5550 C   0  0  0  0  0  2  0  0  0  0  0  0
  160.9000  203.0620  150.0680 C   0  0  2  0  0  3  0  0  0  0  0  0
  161.5220  204.7050  147.2910 N   0  0  0  0  0  0  0  0  0  0  0  0
  161.8430  205.4570  146.1160 C   0  0  0  0  0  0  0  0  0  0  0  0
  161.1340  204.4300  149.5940 N   0  0  0  0  0  0  0  0  0  0  0  0
  162.2650  206.7240  146.2200 C   0  0  0  0  0  3  0  0  0  0  0  0
  161.5780  205.2120  148.4840 C   0  0  0  0  0  0  0  0  0  0  0  0
  161.9660  206.5880  148.6660 N   0  0  0  0  0  0  0  0  0  0  0  0
  160.3230  205.4150  144.2030 N   0  0  0  0  0  2  0  0  0  0  0  0
  162.6240  206.1850  141.5820 C   0  0  0  0  0  3  0  0  0  0  0  0
  162.0340  205.7670  142.6980 C   0  0  0  0  0  0  0  0  0  0  0  0
  162.7150  205.0700  143.7910 C   0  0  0  0  0  2  0  0  0  0  0  0
  160.7010  205.9350  142.9850 O   0  0  0  0  0  0  0  0  0  0  0  0
  161.5570  204.8500  144.7760 C   0  0  1  0  0  3  0  0  0  0  0  0
  161.8890  206.8700  140.5520 C   0  0  0  0  0  0  0  0  0  0  0  0
  161.2750  207.4460  139.6880 C   0  0  0  0  0  3  0  0  0  0  0  0
  160.3320  202.2150  148.9430 C   0  0  0  0  0  2  0  0  0  0  0  0
  161.3190  201.1110  148.5730 C   0  0  0  0  0  2  0  0  0  0  0  0
  161.2930  200.7410  147.0840 C   0  0  2  0  0  3  0  0  0  0  0  0
  160.0060  200.7660  144.9610 C   0  0  0  0  0  2  0  0  0  0  0  0
  159.9890  201.1720  146.4250 C   0  0  0  0  0  3  0  0  0  0  0  0
  160.2680  202.2060  145.3480 C   0  0  0  0  0  2  0  0  0  0  0  0
  161.5410  199.2810  146.8510 C   0  0  0  0  0  3  0  0  0  0  0  0
  161.3080  198.7250  145.6630 C   0  0  0  0  0  2  0  0  0  0  0  0
  160.6500  206.7460  153.0740 C   0  0  0  0  0  2  0  0  0  0  0  0
  160.6530  207.1100  154.5500 C   0  0  0  0  0  2  0  0  0  0  0  0
  161.2580  208.4880  154.7500 C   0  0  0  0  0  2  0  0  0  0  0  0
  158.0520  212.2450  157.2590 C   0  0  0  0  0  1  0  0  0  0  0  0
  161.1090  210.8570  155.8430 S   0  0  0  0  0  0  0  0  0  0  0  0
  158.4230  211.7000  155.8930 C   0  0  1  0  0  0  0  0  0  0  0  0
  158.4410  213.2850  154.0410 C   0  0  1  0  0  3  0  0  0  0  0  0
  160.0350  211.6980  153.1960 O   0  0  0  0  0  1  0  0  0  0  0  0
  158.1580  210.1850  155.8790 C   0  0  0  0  0  2  0  0  0  0  0  0
  157.5400  212.3660  154.8440 C   0  0  0  0  0  2  0  0  0  0  0  0
  161.5930  210.9780  157.2600 O   0  0  0  0  0  0  0  0  0  0  0  0
  160.4070  209.2730  155.6310 N   0  0  0  0  0  0  0  0  0  0  0  0
  159.8440  212.7060  154.1500 C   0  0  2  0  0  3  0  0  0  0  0  0
  162.2730  211.0700  154.9150 O   0  0  0  0  0  0  0  0  0  0  0  0
  157.9500  213.4190  152.6100 C   0  0  0  0  0  1  0  0  0  0  0  0
  159.1140  209.4150  154.9750 C   0  0  0  0  0  2  0  0  0  0  0  0
  159.8640  212.1260  155.5610 C   0  0  2  0  0  3  0  0  0  0  0  0
  160.9960  211.9970  149.5050 C   0  0  0  0  0  2  0  0  0  0  0  0
  160.9580  212.3660  148.0220 C   0  0  2  0  0  3  0  0  0  0  0  0
  162.5660  213.1120  147.5880 P   0  0  0  0  0  0  0  0  0  0  0  0
  162.6580  213.3270  145.9120 O   0  0  0  0  0  0  0  0  0  0  0  0
  162.7050  214.4530  148.2710 O   0  0  0  0  0  1  0  0  0  0  0  0
  163.8330  212.1100  148.0880 O   0  0  0  0  0  1  0  0  0  0  0  0
  158.5290  212.9770  148.4490 C   0  0  0  0  0  1  0  0  0  0  0  0
  159.4880  213.3320  146.2180 C   0  0  0  0  0  1  0  0  0  0  0  0
  159.8040  213.3350  147.7030 C   0  0  0  0  0  3  0  0  0  0  0  0
  1  4  1  0  0  0  0
  3  6  1  0  0  0  0
  3  1  2  0  0  0  0
  4  2  1  0  0  0  0
  4 35  1  6  0  0  0
  5 52  1  1  0  0  0
  5  8  1  0  0  0  0
  6  9  2  0  0  0  0
  7  5  1  0  0  0  0
  7  6  1  0  0  0  0
  8  9  1  0  0  0  0
  9  2  1  0  0  0  0
 11 18  1  0  0  0  0
 12 27  1  6  0  0  0
 12 10  1  0  0  0  0
 13 17  2  0  0  0  0
 14 16  2  0  0  0  0
 14 13  1  0  0  0  0
 15 12  1  0  0  0  0
 15 10  1  0  0  0  0
 16 11  1  0  0  0  0
 17 18  1  0  0  0  0
 17 15  1  0  0  0  0
 18  3  1  0  0  0  0
 19 24  1  0  0  0  0
 20 21  2  0  0  0  0
 21 23  1  0  0  0  0
 21 22  1  0  0  0  0
 22 24  1  0  0  0  0
 23 19  1  0  0  0  0
 24 14  1  1  0  0  0
 25 20  1  0  0  0  0
 26 25  3  0  0  0  0
 28 27  1  0  0  0  0
 29 33  1  1  0  0  0
 29 28  1  0  0  0  0
 30 32  1  0  0  0  0
 30 31  1  0  0  0  0
 31 29  1  0  0  0  0
 32 31  1  0  0  0  0
 34 33  2  0  0  0  0
 35 36  1  0  0  0  0
 36 37  1  0  0  0  0
 37 46  1  0  0  0  0
 39 45  2  0  0  0  0
 40 38  1  1  0  0  0
 41 49  1  6  0  0  0
 41 47  1  0  0  0  0
 41 44  1  0  0  0  0
 43 40  1  0  0  0  0
 44 40  1  0  0  0  0
 46 39  1  0  0  0  0
 47 42  1  6  0  0  0
 47 51  1  0  0  0  0
 48 39  2  0  0  0  0
 50 46  1  0  0  0  0
 50 43  1  0  0  0  0
 51 39  1  6  0  0  0
 51 40  1  0  0  0  0
 53 52  1  1  0  0  0
 54 53  1  0  0  0  0
 54 57  1  0  0  0  0
 54 56  1  0  0  0  0
 55 54  2  0  0  0  0
 59 60  1  0  0  0  0
 60 53  1  0  0  0  0
 60 58  1  0  0  0  0
M  END
>  <MODEL>
2

>  <REMARK>
 VINA RESULT:      -2.5      2.083      2.936
  Name = 
  16 active torsions:
  status: ('A' for Active; 'I' for Inactive)
    1  A    between atoms: P_3  and  C_59
    2  A    between atoms: C_5  and  C_49
    3  A    between atoms: C_6  and  C_15
    4  A    between atoms: C_6  and  C_49
    5  A    between atoms: C_9  and  N_45
    6  A    between atoms: C_13  and  N_36
    7  A    between atoms: C_13  and  C_38
    8  A    between atoms: C_15  and  C_27
    9  A    between atoms: C_17  and  C_33
   10  A    between atoms: C_17  and  C_38
   11  A    between atoms: C_21  and  C_34
   12  A    between atoms: C_30  and  C_49
   13  A    between atoms: C_31  and  C_51
   14  A    between atoms: C_35  and  C_57
   15  A    between atoms: C_46  and  C_59
   16  A    between atoms: C_57  and  C_59
                            x       y       z     vdW  Elec       q    Type
                         _______ _______ _______ _____ _____    ______ ____

>  <TORSDO>
F 16

$$$$
=
 OpenBabel11042422323D

 60 67  0  0  1  0  0  0  0  0999 V2000
  161.6520  209.3550  152.0630 C   0  0  0  0  0  3  0  0  0  0  0  0
  161.0300  211.6300  152.7300 O   0  0  0  0  0  0  0  0  0  0  0  0
  161.6490  209.7290  150.7770 C   0  0  0  0  0  0  0  0  0  0  0  0
  161.1370  210.2640  153.1620 C   0  0  1  0  0  3  0  0  0  0  0  0
  160.8130  213.1560  149.3400 C   0  0  2  0  0  3  0  0  0  0  0  0
  161.2080  211.0950  150.4340 C   0  0  0  0  0  0  0  0  0  0  0  0
  161.0520  211.6680  149.0750 C   0  0  0  0  0  2  0  0  0  0  0  0
  160.6090  213.3080  150.8530 C   0  0  0  0  0  2  0  0  0  0  0  0
  160.9530  211.9700  151.3750 C   0  0  0  0  0  0  0  0  0  0  0  0
  161.2400  206.3180  152.2920 O   0  0  0  0  0  0  0  0  0  0  0  0
  162.4480  209.3650  148.4570 C   0  0  0  0  0  2  0  0  0  0  0  0
  162.4390  205.8260  152.3150 C   0  0  2  0  0  3  0  0  0  0  0  0
  162.7150  206.6120  149.1370 N   0  0  0  0  0  0  0  0  0  0  0  0
  162.8590  207.0180  147.7710 C   0  0  0  0  0  0  0  0  0  0  0  0
  162.1320  206.9240  151.3920 N   0  0  0  0  0  0  0  0  0  0  0  0
  162.6730  208.2980  147.4250 C   0  0  0  0  0  3  0  0  0  0  0  0
  162.3620  207.4320  150.0780 C   0  0  0  0  0  0  0  0  0  0  0  0
  162.0870  208.8120  149.7660 N   0  0  0  0  0  0  0  0  0  0  0  0
  163.3180  204.6540  147.3560 N   0  0  0  0  0  2  0  0  0  0  0  0
  160.5030  203.8370  145.3150 C   0  0  0  0  0  3  0  0  0  0  0  0
  161.5100  204.4390  145.9420 C   0  0  0  0  0  0  0  0  0  0  0  0
  161.8720  205.8480  145.7780 C   0  0  0  0  0  2  0  0  0  0  0  0
  162.3500  203.8230  146.8390 O   0  0  0  0  0  0  0  0  0  0  0  0
  163.0730  205.9640  146.7280 C   0  0  1  0  0  3  0  0  0  0  0  0
  160.2030  202.4470  145.5330 C   0  0  0  0  0  0  0  0  0  0  0  0
  159.9530  201.2810  145.7180 C   0  0  0  0  0  3  0  0  0  0  0  0
  162.4730  204.5100  151.5580 C   0  0  0  0  0  2  0  0  0  0  0  0
  161.3490  203.6000  152.0460 C   0  0  0  0  0  2  0  0  0  0  0  0
  160.4480  203.0810  150.9170 C   0  0  2  0  0  3  0  0  0  0  0  0
  161.8240  201.5390  149.5420 C   0  0  0  0  0  2  0  0  0  0  0  0
  160.7370  201.6200  150.5990 C   0  0  0  0  0  3  0  0  0  0  0  0
  160.3770  201.3200  149.1560 C   0  0  0  0  0  2  0  0  0  0  0  0
  160.5450  203.9170  149.6760 C   0  0  0  0  0  3  0  0  0  0  0  0
  159.9830  205.1240  149.6160 C   0  0  0  0  0  2  0  0  0  0  0  0
  159.7730  209.7750  153.6280 C   0  0  0  0  0  2  0  0  0  0  0  0
  158.9010  210.9450  154.0520 C   0  0  0  0  0  2  0  0  0  0  0  0
  158.9720  211.1350  155.5570 C   0  0  0  0  0  2  0  0  0  0  0  0
  154.5820  214.4500  156.2160 C   0  0  0  0  0  1  0  0  0  0  0  0
  158.0820  213.5890  155.6860 S   0  0  0  0  0  0  0  0  0  0  0  0
  155.3120  213.6110  155.1840 C   0  0  1  0  0  0  0  0  0  0  0  0
  155.3020  214.4330  152.8890 C   0  0  1  0  0  3  0  0  0  0  0  0
  157.3470  213.1700  152.8310 O   0  0  0  0  0  1  0  0  0  0  0  0
  155.4100  212.1670  155.7040 C   0  0  0  0  0  2  0  0  0  0  0  0
  154.5070  213.6160  153.8900 C   0  0  0  0  0  2  0  0  0  0  0  0
  158.2570  214.3020  156.9970 O   0  0  0  0  0  0  0  0  0  0  0  0
  157.8160  211.8950  156.0090 N   0  0  0  0  0  0  0  0  0  0  0  0
  156.7570  214.3400  153.3270 C   0  0  2  0  0  3  0  0  0  0  0  0
  159.3160  213.8010  154.8510 O   0  0  0  0  0  0  0  0  0  0  0  0
  155.0630  213.9420  151.4720 C   0  0  0  0  0  1  0  0  0  0  0  0
  156.6670  211.4430  155.2350 C   0  0  0  0  0  2  0  0  0  0  0  0
  156.6520  214.2900  154.8490 C   0  0  2  0  0  3  0  0  0  0  0  0
  159.5900  213.6350  148.5770 C   0  0  0  0  0  2  0  0  0  0  0  0
  159.9390  213.9630  147.1260 C   0  0  2  0  0  3  0  0  0  0  0  0
  158.7790  213.0520  146.0500 P   0  0  0  0  0  0  0  0  0  0  0  0
  158.7170  213.7890  144.5290 O   0  0  0  0  0  0  0  0  0  0  0  0
  159.2470  211.6230  145.8940 O   0  0  0  0  0  1  0  0  0  0  0  0
  157.2290  213.0480  146.7270 O   0  0  0  0  0  1  0  0  0  0  0  0
  162.3920  214.3180  147.6830 C   0  0  0  0  0  1  0  0  0  0  0  0
  161.7270  213.9460  145.3500 C   0  0  0  0  0  1  0  0  0  0  0  0
  161.3960  213.5950  146.7900 C   0  0  0  0  0  3  0  0  0  0  0  0
  1  4  1  0  0  0  0
  2  4  1  0  0  0  0
  3  1  2  0  0  0  0
  4 35  1  6  0  0  0
  5 52  1  6  0  0  0
  5  8  1  0  0  0  0
  6  3  1  0  0  0  0
  6  9  2  0  0  0  0
  7  5  1  0  0  0  0
  7  6  1  0  0  0  0
  8  9  1  0  0  0  0
  9  2  1  0  0  0  0
 10 12  1  0  0  0  0
 11 18  1  0  0  0  0
 12 27  1  6  0  0  0
 13 17  2  0  0  0  0
 14 13  1  0  0  0  0
 15 10  1  0  0  0  0
 15 12  1  0  0  0  0
 16 14  2  0  0  0  0
 16 11  1  0  0  0  0
 17 15  1  0  0  0  0
 18 17  1  0  0  0  0
 18  3  1  0  0  0  0
 20 25  1  0  0  0  0
 20 21  2  0  0  0  0
 21 23  1  0  0  0  0
 22 21  1  0  0  0  0
 22 24  1  0  0  0  0
 23 19  1  0  0  0  0
 24 19  1  0  0  0  0
 24 14  1  1  0  0  0
 25 26  3  0  0  0  0
 27 28  1  0  0  0  0
 29 33  1  6  0  0  0
 29 28  1  0  0  0  0
 30 31  1  0  0  0  0
 31 29  1  0  0  0  0
 32 30  1  0  0  0  0
 32 31  1  0  0  0  0
 34 33  2  0  0  0  0
 35 36  1  0  0  0  0
 36 37  1  0  0  0  0
 37 46  1  0  0  0  0
 39 46  1  0  0  0  0
 39 45  2  0  0  0  0
 40 43  1  0  0  0  0
 40 38  1  1  0  0  0
 41 49  1  6  0  0  0
 41 47  1  0  0  0  0
 41 44  1  0  0  0  0
 44 40  1  0  0  0  0
 47 42  1  6  0  0  0
 47 51  1  0  0  0  0
 48 39  2  0  0  0  0
 50 43  1  0  0  0  0
 50 46  1  0  0  0  0
 51 40  1  0  0  0  0
 51 39  1  1  0  0  0
 53 52  1  1  0  0  0
 54 57  1  0  0  0  0
 54 53  1  0  0  0  0
 55 54  2  0  0  0  0
 56 54  1  0  0  0  0
 59 60  1  0  0  0  0
 60 53  1  0  0  0  0
 60 58  1  0  0  0  0
M  END
>  <MODEL>
3

>  <REMARK>
 VINA RESULT:      -2.2      1.482      2.040
  Name = 
  16 active torsions:
  status: ('A' for Active; 'I' for Inactive)
    1  A    between atoms: P_3  and  C_59
    2  A    between atoms: C_5  and  C_49
    3  A    between atoms: C_6  and  C_15
    4  A    between atoms: C_6  and  C_49
    5  A    between atoms: C_9  and  N_45
    6  A    between atoms: C_13  and  N_36
    7  A    between atoms: C_13  and  C_38
    8  A    between atoms: C_15  and  C_27
    9  A    between atoms: C_17  and  C_33
   10  A    between atoms: C_17  and  C_38
   11  A    between atoms: C_21  and  C_34
   12  A    between atoms: C_30  and  C_49
   13  A    between atoms: C_31  and  C_51
   14  A    between atoms: C_35  and  C_57
   15  A    between atoms: C_46  and  C_59
   16  A    between atoms: C_57  and  C_59
                            x       y       z     vdW  Elec       q    Type
                         _______ _______ _______ _____ _____    ______ ____

>  <TORSDO>
F 16

$$$$
