=
 OpenBabel11052410123D

 48 54  0  0  1  0  0  0  0  0999 V2000
  160.7390  207.6640  153.5680 C   0  0  2  0  0  3  0  0  0  0  0  0
  160.4610  209.0200  152.9520 C   0  0  0  0  0  2  0  0  0  0  0  0
  160.6440  209.9830  154.0180 N   0  0  0  0  0  0  0  0  0  0  0  0
  161.4110  207.9260  154.9130 C   0  0  0  0  0  2  0  0  0  0  0  0
  161.1840  209.3910  155.2280 C   0  0  0  0  0  2  0  0  0  0  0  0
  160.1760  212.2610  154.7290 C   0  0  0  0  0  3  0  0  0  0  0  0
  160.5760  211.3990  153.7800 C   0  0  0  0  0  0  0  0  0  0  0  0
  159.7100  211.8770  156.1010 C   0  0  1  0  0  3  0  0  0  0  0  0
  160.4400  212.7060  157.1410 C   0  0  0  0  0  1  0  0  0  0  0  0
  156.3350  213.4180  156.8900 C   0  0  0  0  0  3  0  0  0  0  0  0
  155.9600  211.1910  156.0170 C   0  0  0  0  0  0  0  0  0  0  0  0
  155.4580  212.3920  156.5250 C   0  0  0  0  0  3  0  0  0  0  0  0
  157.3400  211.0140  155.8740 C   0  0  0  0  0  3  0  0  0  0  0  0
  158.2250  212.0390  156.2460 C   0  0  0  0  0  0  0  0  0  0  0  0
  154.8630  209.9080  155.5570 Cl  0  0  0  0  0  0  0  0  0  0  0  0
  157.7160  213.2420  156.7490 C   0  0  0  0  0  3  0  0  0  0  0  0
  160.9100  211.8910  152.4740 N   0  0  0  0  0  2  0  0  0  0  0  0
  159.9360  212.1350  151.4170 C   0  0  2  0  0  3  0  0  0  0  0  0
  160.5670  211.8530  150.0840 C   0  0  0  0  0  2  0  0  0  0  0  0
  159.6160  213.6070  151.3480 C   0  0  0  0  0  2  0  0  0  0  0  0
  159.9500  214.0570  150.0050 N   0  0  0  0  0  2  0  0  0  0  0  0
  160.8890  213.1430  149.4910 N   0  0  2  0  0  0  0  0  0  0  0  0
  162.7180  214.2240  148.0120 O   0  0  0  0  0  1  0  0  0  0  0  0
  160.6410  213.0330  148.0560 C   0  0  2  0  0  3  0  0  0  0  0  0
  161.7010  213.6550  147.2390 C   0  0  1  0  0  3  0  0  0  0  0  0
  160.4430  214.3750  147.4840 N   0  0  0  0  0  0  0  0  0  0  0  0
  159.6270  214.1990  146.2960 C   0  0  0  0  0  1  0  0  0  0  0  0
  162.1010  205.6710  153.2510 O   0  0  0  0  0  1  0  0  0  0  0  0
  161.5950  206.8160  152.6260 C   0  0  1  0  0  3  0  0  0  0  0  0
  161.7140  206.9070  150.0780 C   0  0  2  0  0  3  0  0  0  0  0  0
  161.2010  206.0450  148.9320 C   0  0  2  0  0  3  0  0  0  0  0  0
  160.8990  206.5050  151.2910 C   0  0  1  0  0  3  0  0  0  0  0  0
  160.4180  205.0770  151.0370 C   0  0  2  0  0  3  0  0  0  0  0  0
  161.4350  204.0130  151.4310 C   0  0  0  0  0  1  0  0  0  0  0  0
  160.2420  205.0230  149.5320 C   0  0  0  0  0  2  0  0  0  0  0  0
  162.3580  205.3260  148.2520 C   0  0  0  0  0  2  0  0  0  0  0  0
  161.8580  204.4360  147.2180 N   0  0  0  0  0  0  0  0  0  0  0  0
  161.3760  204.6010  145.8890 C   0  0  0  0  0  0  0  0  0  0  0  0
  160.5330  202.1420  145.1250 C   0  0  0  0  0  3  0  0  0  0  0  0
  161.2640  205.5640  145.0870 O   0  0  0  0  0  0  0  0  0  0  0  0
  160.5040  200.8940  145.7980 C   0  0  0  0  0  3  0  0  0  0  0  0
  161.0570  203.1870  145.8660 C   0  0  0  0  0  0  0  0  0  0  0  0
  161.5130  203.0500  147.1480 C   0  0  0  0  0  0  0  0  0  0  0  0
  160.9810  200.7570  147.1390 C   0  0  0  0  0  3  0  0  0  0  0  0
  161.5070  201.8620  147.8550 C   0  0  0  0  0  3  0  0  0  0  0  0
  161.5050  208.3750  149.7420 C   0  0  0  0  0  2  0  0  0  0  0  0
  162.3290  209.7850  148.2590 C   0  0  0  0  0  1  0  0  0  0  0  0
  161.6420  208.5770  148.3690 O   0  0  0  0  0  0  0  0  0  0  0  0
  1 29  1  6  0  0  0
  1  4  1  0  0  0  0
  2  1  1  0  0  0  0
  2  3  1  0  0  0  0
  3  5  1  0  0  0  0
  4  5  1  0  0  0  0
  6  8  1  0  0  0  0
  7  3  1  0  0  0  0
  7  6  2  0  0  0  0
  8 14  1  0  0  0  0
  8  9  1  1  0  0  0
 11 12  1  0  0  0  0
 12 10  2  0  0  0  0
 13 11  2  0  0  0  0
 13 14  1  0  0  0  0
 14 16  2  0  0  0  0
 15 11  1  0  0  0  0
 16 10  1  0  0  0  0
 17  7  1  0  0  0  0
 18 17  1  1  0  0  0
 19 18  1  0  0  0  0
 20 18  1  0  0  0  0
 21 20  1  0  0  0  0
 22 21  1  0  0  0  0
 22 19  1  1  0  0  0
 24 26  1  1  0  0  0
 24 22  1  0  0  0  0
 25 26  1  0  0  0  0
 25 23  1  1  0  0  0
 25 24  1  0  0  0  0
 27 26  1  0  0  0  0
 29 28  1  1  0  0  0
 30 46  1  6  0  0  0
 30 32  1  0  0  0  0
 31 36  1  1  0  0  0
 31 35  1  0  0  0  0
 31 30  1  0  0  0  0
 32 29  1  1  0  0  0
 33 32  1  0  0  0  0
 33 34  1  6  0  0  0
 35 33  1  0  0  0  0
 37 36  1  0  0  0  0
 38 37  1  0  0  0  0
 39 41  2  0  0  0  0
 39 42  1  0  0  0  0
 40 38  2  0  0  0  0
 41 44  1  0  0  0  0
 42 38  1  0  0  0  0
 42 43  2  0  0  0  0
 43 37  1  0  0  0  0
 43 45  1  0  0  0  0
 44 45  2  0  0  0  0
 47 48  1  0  0  0  0
 48 46  1  0  0  0  0
M  END
>  <MODEL>
1

>  <REMARK>
 VINA RESULT:      -6.8      0.000      0.000
  Name = 
  12 active torsions:
  status: ('A' for Active; 'I' for Inactive)
    1  A    between atoms: C_1  and  N_16
    2  A    between atoms: C_3  and  C_7
    3  A    between atoms: C_3  and  C_43
    4  A    between atoms: C_4  and  C_35
    5  A    between atoms: N_5  and  C_40
    6  A    between atoms: C_9  and  N_16
    7  A    between atoms: C_9  and  N_22
    8  A    between atoms: O_10  and  C_41
    9  A    between atoms: C_11  and  C_41
   10  A    between atoms: C_17  and  C_40
   11  A    between atoms: C_18  and  N_26
   12  A    between atoms: C_19  and  C_35
                            x       y       z     vdW  Elec       q    Type
                         _______ _______ _______ _____ _____    ______ ____

>  <TORSDO>
F 12

$$$$
=
 OpenBabel11052410123D

 48 54  0  0  1  0  0  0  0  0999 V2000
  160.1900  210.0000  152.7670 C   0  0  2  0  0  3  0  0  0  0  0  0
  159.6450  211.2710  152.1460 C   0  0  0  0  0  2  0  0  0  0  0  0
  158.6040  211.7330  153.0410 N   0  0  0  0  0  0  0  0  0  0  0  0
  159.6620  209.9540  154.1980 C   0  0  0  0  0  2  0  0  0  0  0  0
  158.5420  210.9720  154.2760 C   0  0  0  0  0  2  0  0  0  0  0  0
  157.5390  213.7570  153.8640 C   0  0  0  0  0  3  0  0  0  0  0  0
  157.9310  212.9860  152.8360 C   0  0  0  0  0  0  0  0  0  0  0  0
  157.6930  213.4060  155.3130 C   0  0  1  0  0  3  0  0  0  0  0  0
  158.5460  214.4530  156.0060 C   0  0  0  0  0  1  0  0  0  0  0  0
  154.4150  214.3380  156.9780 C   0  0  0  0  0  3  0  0  0  0  0  0
  154.5630  211.9230  156.9080 C   0  0  0  0  0  0  0  0  0  0  0  0
  153.8680  213.0830  157.2610 C   0  0  0  0  0  3  0  0  0  0  0  0
  155.8060  212.0170  156.2740 C   0  0  0  0  0  3  0  0  0  0  0  0
  156.3620  213.2760  155.9950 C   0  0  0  0  0  0  0  0  0  0  0  0
  153.8790  210.3510  157.2600 Cl  0  0  0  0  0  0  0  0  0  0  0  0
  155.6580  214.4340  156.3450 C   0  0  0  0  0  3  0  0  0  0  0  0
  157.6400  213.3970  151.4930 N   0  0  0  0  0  2  0  0  0  0  0  0
  158.3630  214.4440  150.7820 C   0  0  2  0  0  3  0  0  0  0  0  0
  158.4400  214.0930  149.3240 C   0  0  0  0  0  2  0  0  0  0  0  0
  159.8060  214.4530  151.2160 C   0  0  0  0  0  2  0  0  0  0  0  0
  160.6150  214.2370  150.0250 N   0  0  0  0  0  2  0  0  0  0  0  0
  159.7870  213.6000  149.0810 N   0  0  2  0  0  0  0  0  0  0  0  0
  158.7780  212.2570  147.1120 O   0  0  0  0  0  1  0  0  0  0  0  0
  160.1920  214.0760  147.7630 C   0  0  2  0  0  3  0  0  0  0  0  0
  159.5990  213.2940  146.6600 C   0  0  1  0  0  3  0  0  0  0  0  0
  160.9840  213.0380  147.0820 N   0  0  0  0  0  0  0  0  0  0  0  0
  161.8410  213.7290  146.1350 C   0  0  0  0  0  1  0  0  0  0  0  0
  162.3150  210.3250  153.9100 O   0  0  0  0  0  1  0  0  0  0  0  0
  161.7180  209.9840  152.6920 C   0  0  1  0  0  3  0  0  0  0  0  0
  161.3840  207.4790  152.3300 C   0  0  2  0  0  3  0  0  0  0  0  0
  161.7510  206.4760  151.2440 C   0  0  2  0  0  3  0  0  0  0  0  0
  162.2790  208.6810  152.1000 C   0  0  1  0  0  3  0  0  0  0  0  0
  162.6630  208.6580  150.6210 C   0  0  2  0  0  3  0  0  0  0  0  0
  161.6310  209.3180  149.7150 C   0  0  0  0  0  1  0  0  0  0  0  0
  162.7050  207.1810  150.2850 C   0  0  0  0  0  2  0  0  0  0  0  0
  160.5050  206.0310  150.4930 C   0  0  0  0  0  2  0  0  0  0  0  0
  160.8550  205.0550  149.4740 N   0  0  0  0  0  0  0  0  0  0  0  0
  161.3000  205.1200  148.1220 C   0  0  0  0  0  0  0  0  0  0  0  0
  161.3700  202.5500  147.2700 C   0  0  0  0  0  3  0  0  0  0  0  0
  161.6220  206.0390  147.3260 O   0  0  0  0  0  0  0  0  0  0  0  0
  161.0470  201.3250  147.9100 C   0  0  0  0  0  3  0  0  0  0  0  0
  161.2070  203.6750  148.0590 C   0  0  0  0  0  0  0  0  0  0  0  0
  160.7690  203.6330  149.3540 C   0  0  0  0  0  0  0  0  0  0  0  0
  160.5890  201.2880  149.2630 C   0  0  0  0  0  3  0  0  0  0  0  0
  160.4370  202.4720  150.0280 C   0  0  0  0  0  3  0  0  0  0  0  0
  161.6380  206.8630  153.6970 C   0  0  0  0  0  2  0  0  0  0  0  0
  160.8060  207.1960  155.7120 C   0  0  0  0  0  1  0  0  0  0  0  0
  160.4480  206.8030  154.4230 O   0  0  0  0  0  0  0  0  0  0  0  0
  1 29  1  1  0  0  0
  1  4  1  0  0  0  0
  2  1  1  0  0  0  0
  2  3  1  0  0  0  0
  3  5  1  0  0  0  0
  4  5  1  0  0  0  0
  6  8  1  0  0  0  0
  7  3  1  0  0  0  0
  7  6  2  0  0  0  0
  8 14  1  0  0  0  0
  8  9  1  1  0  0  0
 10 12  1  0  0  0  0
 11 15  1  0  0  0  0
 11 12  2  0  0  0  0
 13 11  1  0  0  0  0
 14 13  2  0  0  0  0
 14 16  1  0  0  0  0
 16 10  2  0  0  0  0
 17  7  1  0  0  0  0
 18 20  1  0  0  0  0
 18 17  1  1  0  0  0
 19 18  1  0  0  0  0
 21 20  1  0  0  0  0
 22 19  1  1  0  0  0
 22 21  1  0  0  0  0
 24 26  1  1  0  0  0
 24 22  1  0  0  0  0
 25 26  1  0  0  0  0
 25 23  1  1  0  0  0
 25 24  1  0  0  0  0
 27 26  1  0  0  0  0
 29 28  1  1  0  0  0
 30 46  1  1  0  0  0
 31 36  1  6  0  0  0
 31 30  1  0  0  0  0
 32 30  1  0  0  0  0
 32 29  1  6  0  0  0
 33 34  1  6  0  0  0
 33 32  1  0  0  0  0
 35 33  1  0  0  0  0
 35 31  1  0  0  0  0
 37 36  1  0  0  0  0
 38 37  1  0  0  0  0
 39 41  2  0  0  0  0
 39 42  1  0  0  0  0
 40 38  2  0  0  0  0
 41 44  1  0  0  0  0
 42 38  1  0  0  0  0
 42 43  2  0  0  0  0
 43 37  1  0  0  0  0
 43 45  1  0  0  0  0
 44 45  2  0  0  0  0
 46 48  1  0  0  0  0
 48 47  1  0  0  0  0
M  END
>  <MODEL>
2

>  <REMARK>
 VINA RESULT:      -6.6      1.850      3.118
  Name = 
  12 active torsions:
  status: ('A' for Active; 'I' for Inactive)
    1  A    between atoms: C_1  and  N_16
    2  A    between atoms: C_3  and  C_7
    3  A    between atoms: C_3  and  C_43
    4  A    between atoms: C_4  and  C_35
    5  A    between atoms: N_5  and  C_40
    6  A    between atoms: C_9  and  N_16
    7  A    between atoms: C_9  and  N_22
    8  A    between atoms: O_10  and  C_41
    9  A    between atoms: C_11  and  C_41
   10  A    between atoms: C_17  and  C_40
   11  A    between atoms: C_18  and  N_26
   12  A    between atoms: C_19  and  C_35
                            x       y       z     vdW  Elec       q    Type
                         _______ _______ _______ _____ _____    ______ ____

>  <TORSDO>
F 12

$$$$
=
 OpenBabel11052410123D

 48 54  0  0  1  0  0  0  0  0999 V2000
  161.2360  208.9680  152.7860 C   0  0  2  0  0  3  0  0  0  0  0  0
  159.9970  209.7770  152.4570 C   0  0  0  0  0  2  0  0  0  0  0  0
  160.2240  211.0920  153.0200 N   0  0  0  0  0  0  0  0  0  0  0  0
  162.2970  209.9640  153.2470 C   0  0  0  0  0  2  0  0  0  0  0  0
  161.5700  211.2630  153.5350 C   0  0  0  0  0  2  0  0  0  0  0  0
  158.6470  212.7600  153.8230 C   0  0  0  0  0  3  0  0  0  0  0  0
  159.3040  212.1760  152.8070 C   0  0  0  0  0  0  0  0  0  0  0  0
  158.7370  212.3440  155.2600 C   0  0  1  0  0  3  0  0  0  0  0  0
  159.7970  213.1680  155.9670 C   0  0  0  0  0  1  0  0  0  0  0  0
  155.8220  213.8650  157.1520 C   0  0  0  0  0  3  0  0  0  0  0  0
  155.3050  211.5410  156.7150 C   0  0  0  0  0  0  0  0  0  0  0  0
  154.9510  212.7780  157.2600 C   0  0  0  0  0  3  0  0  0  0  0  0
  156.5320  211.3900  156.0620 C   0  0  0  0  0  3  0  0  0  0  0  0
  157.4140  212.4780  155.9570 C   0  0  0  0  0  0  0  0  0  0  0  0
  154.2130  210.1800  156.8480 Cl  0  0  0  0  0  0  0  0  0  0  0  0
  157.0510  213.7160  156.5000 C   0  0  0  0  0  3  0  0  0  0  0  0
  159.0580  212.6110  151.4630 N   0  0  0  0  0  2  0  0  0  0  0  0
  159.9720  213.4450  150.6910 C   0  0  2  0  0  3  0  0  0  0  0  0
  159.2490  214.0030  149.4980 C   0  0  0  0  0  2  0  0  0  0  0  0
  161.0500  212.5890  150.0780 C   0  0  0  0  0  2  0  0  0  0  0  0
  160.9800  212.7760  148.6360 N   0  0  0  0  0  2  0  0  0  0  0  0
  159.6780  213.2230  148.3470 N   0  0  2  0  0  0  0  0  0  0  0  0
  157.9760  212.7650  146.4510 O   0  0  0  0  0  1  0  0  0  0  0  0
  159.7790  214.1410  147.2160 C   0  0  2  0  0  3  0  0  0  0  0  0
  158.7950  213.8570  146.1530 C   0  0  1  0  0  3  0  0  0  0  0  0
  160.1850  213.4000  146.0110 N   0  0  0  0  0  0  0  0  0  0  0  0
  160.8500  214.3550  145.1440 C   0  0  0  0  0  1  0  0  0  0  0  0
  163.0370  207.8330  151.6040 O   0  0  0  0  0  1  0  0  0  0  0  0
  161.6740  208.1470  151.5720 C   0  0  1  0  0  3  0  0  0  0  0  0
  161.1470  206.1590  150.0600 C   0  0  2  0  0  3  0  0  0  0  0  0
  160.6260  204.7430  150.2640 C   0  0  2  0  0  3  0  0  0  0  0  0
  160.7870  206.9160  151.3230 C   0  0  1  0  0  3  0  0  0  0  0  0
  160.6630  205.8720  152.4330 C   0  0  2  0  0  3  0  0  0  0  0  0
  161.9930  205.5170  153.0860 C   0  0  0  0  0  1  0  0  0  0  0  0
  160.1520  204.6420  151.7090 C   0  0  0  0  0  2  0  0  0  0  0  0
  161.7350  203.7300  150.0160 C   0  0  0  0  0  2  0  0  0  0  0  0
  161.3150  202.7590  149.0190 N   0  0  0  0  0  0  0  0  0  0  0  0
  161.0330  201.3630  149.0240 C   0  0  0  0  0  0  0  0  0  0  0  0
  160.5670  200.7210  146.4340 C   0  0  0  0  0  3  0  0  0  0  0  0
  160.9750  200.4620  149.8990 O   0  0  0  0  0  0  0  0  0  0  0  0
  160.5850  201.4930  145.2430 C   0  0  0  0  0  3  0  0  0  0  0  0
  160.8570  201.4300  147.5870 C   0  0  0  0  0  0  0  0  0  0  0  0
  161.1420  202.7670  147.6000 C   0  0  0  0  0  0  0  0  0  0  0  0
  160.8850  202.8900  145.2640 C   0  0  0  0  0  3  0  0  0  0  0  0
  161.1770  203.5690  146.4740 C   0  0  0  0  0  3  0  0  0  0  0  0
  160.4760  206.7770  148.8430 C   0  0  0  0  0  2  0  0  0  0  0  0
  161.9160  208.3320  148.2330 C   0  0  0  0  0  1  0  0  0  0  0  0
  161.4290  207.0770  147.8700 O   0  0  0  0  0  0  0  0  0  0  0  0
  1 29  1  6  0  0  0
  1  4  1  0  0  0  0
  2  1  1  0  0  0  0
  2  3  1  0  0  0  0
  3  5  1  0  0  0  0
  4  5  1  0  0  0  0
  6  8  1  0  0  0  0
  7  3  1  0  0  0  0
  7  6  2  0  0  0  0
  8 14  1  0  0  0  0
  8  9  1  1  0  0  0
 10 12  1  0  0  0  0
 11 15  1  0  0  0  0
 11 12  2  0  0  0  0
 13 11  1  0  0  0  0
 14 13  2  0  0  0  0
 14 16  1  0  0  0  0
 16 10  2  0  0  0  0
 17  7  1  0  0  0  0
 18 17  1  1  0  0  0
 19 18  1  0  0  0  0
 20 18  1  0  0  0  0
 21 20  1  0  0  0  0
 22 21  1  0  0  0  0
 22 19  1  1  0  0  0
 24 26  1  6  0  0  0
 24 22  1  0  0  0  0
 25 23  1  1  0  0  0
 25 24  1  0  0  0  0
 26 25  1  0  0  0  0
 27 26  1  0  0  0  0
 29 28  1  1  0  0  0
 30 46  1  6  0  0  0
 30 31  1  0  0  0  0
 30 32  1  0  0  0  0
 31 36  1  1  0  0  0
 31 35  1  0  0  0  0
 32 29  1  1  0  0  0
 32 33  1  0  0  0  0
 33 34  1  6  0  0  0
 35 33  1  0  0  0  0
 37 38  1  0  0  0  0
 37 36  1  0  0  0  0
 38 40  2  0  0  0  0
 39 42  1  0  0  0  0
 41 44  1  0  0  0  0
 41 39  2  0  0  0  0
 42 43  2  0  0  0  0
 42 38  1  0  0  0  0
 43 37  1  0  0  0  0
 44 45  2  0  0  0  0
 45 43  1  0  0  0  0
 48 47  1  0  0  0  0
 48 46  1  0  0  0  0
M  END
>  <MODEL>
3

>  <REMARK>
 VINA RESULT:      -6.5      1.758      2.298
  Name = 
  12 active torsions:
  status: ('A' for Active; 'I' for Inactive)
    1  A    between atoms: C_1  and  N_16
    2  A    between atoms: C_3  and  C_7
    3  A    between atoms: C_3  and  C_43
    4  A    between atoms: C_4  and  C_35
    5  A    between atoms: N_5  and  C_40
    6  A    between atoms: C_9  and  N_16
    7  A    between atoms: C_9  and  N_22
    8  A    between atoms: O_10  and  C_41
    9  A    between atoms: C_11  and  C_41
   10  A    between atoms: C_17  and  C_40
   11  A    between atoms: C_18  and  N_26
   12  A    between atoms: C_19  and  C_35
                            x       y       z     vdW  Elec       q    Type
                         _______ _______ _______ _____ _____    ______ ____

>  <TORSDO>
F 12

$$$$
=
 OpenBabel11052410123D

 48 54  0  0  1  0  0  0  0  0999 V2000
  161.4550  209.0990  152.4880 C   0  0  2  0  0  3  0  0  0  0  0  0
  160.1590  209.8820  152.4320 C   0  0  0  0  0  2  0  0  0  0  0  0
  160.4890  211.2230  152.8690 N   0  0  0  0  0  0  0  0  0  0  0  0
  162.5770  210.1220  152.6400 C   0  0  0  0  0  2  0  0  0  0  0  0
  161.9160  211.4270  153.0390 C   0  0  0  0  0  2  0  0  0  0  0  0
  159.1990  212.9830  153.9400 C   0  0  0  0  0  3  0  0  0  0  0  0
  159.5250  212.2880  152.8380 C   0  0  0  0  0  0  0  0  0  0  0  0
  159.7350  212.7210  155.3150 C   0  0  1  0  0  3  0  0  0  0  0  0
  158.9410  213.5170  156.3350 C   0  0  0  0  0  1  0  0  0  0  0  0
  158.4470  209.1900  155.8290 C   0  0  0  0  0  3  0  0  0  0  0  0
  160.8060  209.2180  156.3740 C   0  0  0  0  0  0  0  0  0  0  0  0
  159.5990  208.5230  156.2540 C   0  0  0  0  0  3  0  0  0  0  0  0
  160.8610  210.5820  156.0700 C   0  0  0  0  0  3  0  0  0  0  0  0
  159.7030  211.2580  155.6490 C   0  0  0  0  0  0  0  0  0  0  0  0
  162.2490  208.3820  156.9040 Cl  0  0  0  0  0  0  0  0  0  0  0  0
  158.4990  210.5550  155.5260 C   0  0  0  0  0  3  0  0  0  0  0  0
  158.8690  212.5820  151.5970 N   0  0  0  0  0  2  0  0  0  0  0  0
  159.2720  213.6500  150.6890 C   0  0  2  0  0  3  0  0  0  0  0  0
  158.2300  213.8140  149.6200 C   0  0  0  0  0  2  0  0  0  0  0  0
  160.4990  213.2310  149.9210 C   0  0  0  0  0  2  0  0  0  0  0  0
  160.1590  213.2860  148.5060 N   0  0  0  0  0  2  0  0  0  0  0  0
  158.7580  213.1840  148.4200 N   0  0  2  0  0  0  0  0  0  0  0  0
  157.0800  212.0100  146.8370 O   0  0  0  0  0  1  0  0  0  0  0  0
  158.3380  213.9980  147.2830 C   0  0  2  0  0  3  0  0  0  0  0  0
  157.3790  213.3040  146.4010 C   0  0  1  0  0  3  0  0  0  0  0  0
  158.8000  213.3770  146.0310 N   0  0  0  0  0  0  0  0  0  0  0  0
  158.9210  214.4500  145.0600 C   0  0  0  0  0  1  0  0  0  0  0  0
  162.9440  207.9870  150.9150 O   0  0  0  0  0  1  0  0  0  0  0  0
  161.6050  208.2270  151.2400 C   0  0  1  0  0  3  0  0  0  0  0  0
  160.9900  206.0210  150.1110 C   0  0  2  0  0  3  0  0  0  0  0  0
  160.5910  204.6300  150.5840 C   0  0  2  0  0  3  0  0  0  0  0  0
  160.7690  206.9380  151.2990 C   0  0  1  0  0  3  0  0  0  0  0  0
  160.8680  206.0620  152.5470 C   0  0  2  0  0  3  0  0  0  0  0  0
  162.2970  205.8590  153.0350 C   0  0  0  0  0  1  0  0  0  0  0  0
  160.3350  204.7200  152.0840 C   0  0  0  0  0  2  0  0  0  0  0  0
  161.7130  203.6380  150.3140 C   0  0  0  0  0  2  0  0  0  0  0  0
  161.3260  202.7170  149.2580 N   0  0  0  0  0  0  0  0  0  0  0  0
  161.0270  201.3260  149.1880 C   0  0  0  0  0  0  0  0  0  0  0  0
  160.6700  200.8050  146.5540 C   0  0  0  0  0  3  0  0  0  0  0  0
  160.9190  200.3890  150.0190 O   0  0  0  0  0  0  0  0  0  0  0  0
  160.7500  201.6270  145.4010 C   0  0  0  0  0  3  0  0  0  0  0  0
  160.9170  201.4580  147.7490 C   0  0  0  0  0  0  0  0  0  0  0  0
  161.2170  202.7890  147.8340 C   0  0  0  0  0  0  0  0  0  0  0  0
  161.0660  203.0180  145.4960 C   0  0  0  0  0  3  0  0  0  0  0  0
  161.3130  203.6390  146.7470 C   0  0  0  0  0  3  0  0  0  0  0  0
  160.1150  206.4290  148.9360 C   0  0  0  0  0  2  0  0  0  0  0  0
  162.0780  206.6560  147.9540 C   0  0  0  0  0  1  0  0  0  0  0  0
  160.8290  207.2630  148.0750 O   0  0  0  0  0  0  0  0  0  0  0  0
  1 29  1  6  0  0  0
  1  4  1  0  0  0  0
  2  1  1  0  0  0  0
  2  3  1  0  0  0  0
  3  5  1  0  0  0  0
  4  5  1  0  0  0  0
  6  8  1  0  0  0  0
  7  3  1  0  0  0  0
  7  6  2  0  0  0  0
  8 14  1  0  0  0  0
  8  9  1  1  0  0  0
 10 12  1  0  0  0  0
 11 15  1  0  0  0  0
 12 11  2  0  0  0  0
 13 11  1  0  0  0  0
 14 13  2  0  0  0  0
 16 14  1  0  0  0  0
 16 10  2  0  0  0  0
 17  7  1  0  0  0  0
 18 17  1  1  0  0  0
 19 18  1  0  0  0  0
 20 18  1  0  0  0  0
 21 20  1  0  0  0  0
 22 21  1  0  0  0  0
 22 19  1  1  0  0  0
 24 26  1  6  0  0  0
 24 22  1  0  0  0  0
 25 23  1  1  0  0  0
 25 24  1  0  0  0  0
 26 25  1  0  0  0  0
 27 26  1  0  0  0  0
 29 28  1  1  0  0  0
 30 46  1  6  0  0  0
 30 31  1  0  0  0  0
 30 32  1  0  0  0  0
 31 36  1  1  0  0  0
 31 35  1  0  0  0  0
 32 29  1  1  0  0  0
 32 33  1  0  0  0  0
 33 34  1  6  0  0  0
 35 33  1  0  0  0  0
 37 36  1  0  0  0  0
 38 37  1  0  0  0  0
 38 40  2  0  0  0  0
 39 42  1  0  0  0  0
 41 44  1  0  0  0  0
 41 39  2  0  0  0  0
 42 43  2  0  0  0  0
 42 38  1  0  0  0  0
 43 37  1  0  0  0  0
 44 45  2  0  0  0  0
 45 43  1  0  0  0  0
 47 48  1  0  0  0  0
 48 46  1  0  0  0  0
M  END
>  <MODEL>
4

>  <REMARK>
 VINA RESULT:      -5.9      2.227      3.152
  Name = 
  12 active torsions:
  status: ('A' for Active; 'I' for Inactive)
    1  A    between atoms: C_1  and  N_16
    2  A    between atoms: C_3  and  C_7
    3  A    between atoms: C_3  and  C_43
    4  A    between atoms: C_4  and  C_35
    5  A    between atoms: N_5  and  C_40
    6  A    between atoms: C_9  and  N_16
    7  A    between atoms: C_9  and  N_22
    8  A    between atoms: O_10  and  C_41
    9  A    between atoms: C_11  and  C_41
   10  A    between atoms: C_17  and  C_40
   11  A    between atoms: C_18  and  N_26
   12  A    between atoms: C_19  and  C_35
                            x       y       z     vdW  Elec       q    Type
                         _______ _______ _______ _____ _____    ______ ____

>  <TORSDO>
F 12

$$$$
=
 OpenBabel11052410123D

 48 54  0  0  1  0  0  0  0  0999 V2000
  161.0840  210.3290  153.4430 C   0  0  2  0  0  3  0  0  0  0  0  0
  160.7280  209.8080  152.0650 C   0  0  0  0  0  2  0  0  0  0  0  0
  161.9440  209.8950  151.2840 N   0  0  0  0  0  0  0  0  0  0  0  0
  162.6070  210.3870  153.5060 C   0  0  0  0  0  2  0  0  0  0  0  0
  163.1010  210.2620  152.0780 C   0  0  0  0  0  2  0  0  0  0  0  0
  162.0750  210.1870  148.8740 C   0  0  0  0  0  3  0  0  0  0  0  0
  162.0220  209.3780  149.9450 C   0  0  0  0  0  0  0  0  0  0  0  0
  162.0060  211.6830  148.9190 C   0  0  1  0  0  3  0  0  0  0  0  0
  163.3070  212.2710  148.4040 C   0  0  0  0  0  1  0  0  0  0  0  0
  158.7720  213.4690  148.0630 C   0  0  0  0  0  3  0  0  0  0  0  0
  159.6340  212.4620  146.0370 C   0  0  0  0  0  0  0  0  0  0  0  0
  158.6560  213.2160  146.6930 C   0  0  0  0  0  3  0  0  0  0  0  0
  160.7270  211.9600  146.7510 C   0  0  0  0  0  3  0  0  0  0  0  0
  160.8430  212.2070  148.1290 C   0  0  0  0  0  0  0  0  0  0  0  0
  159.4910  212.1460  144.3220 Cl  0  0  0  0  0  0  0  0  0  0  0  0
  159.8640  212.9680  148.7790 C   0  0  0  0  0  3  0  0  0  0  0  0
  162.0040  207.9560  149.7570 N   0  0  0  0  0  2  0  0  0  0  0  0
  160.8140  207.1920  149.4000 C   0  0  2  0  0  3  0  0  0  0  0  0
  160.8140  205.8920  150.1510 C   0  0  0  0  0  2  0  0  0  0  0  0
  160.8980  206.7620  147.9570 C   0  0  0  0  0  2  0  0  0  0  0  0
  160.8250  205.3080  147.9370 N   0  0  0  0  0  2  0  0  0  0  0  0
  161.2280  204.8630  149.2100 N   0  0  2  0  0  0  0  0  0  0  0  0
  162.0860  203.5310  151.2570 O   0  0  0  0  0  1  0  0  0  0  0  0
  160.4540  203.6630  149.5110 C   0  0  2  0  0  3  0  0  0  0  0  0
  160.9640  202.9260  150.6840 C   0  0  1  0  0  3  0  0  0  0  0  0
  161.2960  202.4700  149.3260 N   0  0  0  0  0  0  0  0  0  0  0  0
  160.3950  201.3720  149.0260 C   0  0  0  0  0  1  0  0  0  0  0  0
  161.4400  208.6900  155.2070 O   0  0  0  0  0  1  0  0  0  0  0  0
  160.4730  209.4350  154.5240 C   0  0  1  0  0  3  0  0  0  0  0  0
  160.0940  211.5130  155.9580 C   0  0  2  0  0  3  0  0  0  0  0  0
  158.8900  212.3540  156.3600 C   0  0  2  0  0  3  0  0  0  0  0  0
  159.5290  210.1920  155.4720 C   0  0  1  0  0  3  0  0  0  0  0  0
  158.1030  210.4780  155.0030 C   0  0  2  0  0  3  0  0  0  0  0  0
  158.0230  210.9830  153.5680 C   0  0  0  0  0  1  0  0  0  0  0  0
  157.6430  211.5960  155.9180 C   0  0  0  0  0  2  0  0  0  0  0  0
  158.9380  213.7090  155.6670 C   0  0  0  0  0  2  0  0  0  0  0  0
  157.6610  213.9940  155.0340 N   0  0  0  0  0  0  0  0  0  0  0  0
  156.3190  214.1400  155.4860 C   0  0  0  0  0  0  0  0  0  0  0  0
  154.8370  214.4420  153.2380 C   0  0  0  0  0  3  0  0  0  0  0  0
  155.7430  214.1440  156.6050 O   0  0  0  0  0  0  0  0  0  0  0  0
  155.1860  214.4530  151.8630 C   0  0  0  0  0  3  0  0  0  0  0  0
  155.9040  214.2660  154.1030 C   0  0  0  0  0  0  0  0  0  0  0  0
  157.1970  214.1130  153.6870 C   0  0  0  0  0  0  0  0  0  0  0  0
  156.5390  214.2910  151.4340 C   0  0  0  0  0  3  0  0  0  0  0  0
  157.5960  214.1120  152.3630 C   0  0  0  0  0  3  0  0  0  0  0  0
  160.9960  211.3080  157.1650 C   0  0  0  0  0  2  0  0  0  0  0  0
  163.0260  210.4450  157.1490 C   0  0  0  0  0  1  0  0  0  0  0  0
  162.3180  211.6030  156.8300 O   0  0  0  0  0  0  0  0  0  0  0  0
  1  4  1  0  0  0  0
  1 29  1  1  0  0  0
  2  1  1  0  0  0  0
  3  2  1  0  0  0  0
  3  5  1  0  0  0  0
  5  4  1  0  0  0  0
  6  8  1  0  0  0  0
  6  7  2  0  0  0  0
  7  3  1  0  0  0  0
  8  9  1  6  0  0  0
 10 16  1  0  0  0  0
 11 12  1  0  0  0  0
 11 13  2  0  0  0  0
 12 10  2  0  0  0  0
 13 14  1  0  0  0  0
 14 16  2  0  0  0  0
 14  8  1  0  0  0  0
 15 11  1  0  0  0  0
 17  7  1  0  0  0  0
 18 17  1  1  0  0  0
 18 19  1  0  0  0  0
 20 18  1  0  0  0  0
 21 20  1  0  0  0  0
 21 22  1  0  0  0  0
 22 24  1  0  0  0  0
 22 19  1  1  0  0  0
 24 26  1  6  0  0  0
 24 25  1  0  0  0  0
 25 23  1  1  0  0  0
 26 25  1  0  0  0  0
 27 26  1  0  0  0  0
 29 28  1  1  0  0  0
 30 31  1  0  0  0  0
 30 46  1  1  0  0  0
 31 36  1  6  0  0  0
 32 29  1  6  0  0  0
 32 30  1  0  0  0  0
 33 34  1  6  0  0  0
 33 32  1  0  0  0  0
 33 35  1  0  0  0  0
 35 31  1  0  0  0  0
 37 38  1  0  0  0  0
 37 36  1  0  0  0  0
 38 40  2  0  0  0  0
 39 42  1  0  0  0  0
 41 39  2  0  0  0  0
 42 38  1  0  0  0  0
 43 42  2  0  0  0  0
 43 37  1  0  0  0  0
 44 41  1  0  0  0  0
 44 45  2  0  0  0  0
 45 43  1  0  0  0  0
 48 47  1  0  0  0  0
 48 46  1  0  0  0  0
M  END
>  <MODEL>
5

>  <REMARK>
 VINA RESULT:      -5.6      3.416      9.799
  Name = 
  12 active torsions:
  status: ('A' for Active; 'I' for Inactive)
    1  A    between atoms: C_1  and  N_16
    2  A    between atoms: C_3  and  C_7
    3  A    between atoms: C_3  and  C_43
    4  A    between atoms: C_4  and  C_35
    5  A    between atoms: N_5  and  C_40
    6  A    between atoms: C_9  and  N_16
    7  A    between atoms: C_9  and  N_22
    8  A    between atoms: O_10  and  C_41
    9  A    between atoms: C_11  and  C_41
   10  A    between atoms: C_17  and  C_40
   11  A    between atoms: C_18  and  N_26
   12  A    between atoms: C_19  and  C_35
                            x       y       z     vdW  Elec       q    Type
                         _______ _______ _______ _____ _____    ______ ____

>  <TORSDO>
F 12

$$$$
=
 OpenBabel11052410123D

 48 54  0  0  1  0  0  0  0  0999 V2000
  161.5640  208.1450  150.8670 C   0  0  2  0  0  3  0  0  0  0  0  0
  160.4710  208.9840  151.4980 C   0  0  0  0  0  2  0  0  0  0  0  0
  161.1420  210.1110  152.1110 N   0  0  0  0  0  0  0  0  0  0  0  0
  162.8220  209.0100  150.8510 C   0  0  0  0  0  2  0  0  0  0  0  0
  162.5550  210.1730  151.7870 C   0  0  0  0  0  2  0  0  0  0  0  0
  160.5530  211.5100  154.0100 C   0  0  0  0  0  3  0  0  0  0  0  0
  160.4100  211.1920  152.7130 C   0  0  0  0  0  0  0  0  0  0  0  0
  161.4220  210.7780  154.9860 C   0  0  1  0  0  3  0  0  0  0  0  0
  161.5980  211.6120  156.2420 C   0  0  0  0  0  1  0  0  0  0  0  0
  159.3840  208.0750  156.6980 C   0  0  0  0  0  3  0  0  0  0  0  0
  160.6920  207.0360  154.9450 C   0  0  0  0  0  0  0  0  0  0  0  0
  159.7670  206.9330  155.9890 C   0  0  0  0  0  3  0  0  0  0  0  0
  161.2340  208.2810  154.6110 C   0  0  0  0  0  3  0  0  0  0  0  0
  160.8570  209.4300  155.3260 C   0  0  0  0  0  0  0  0  0  0  0  0
  161.1700  205.6070  154.0560 Cl  0  0  0  0  0  0  0  0  0  0  0  0
  159.9270  209.3210  156.3660 C   0  0  0  0  0  3  0  0  0  0  0  0
  159.4730  211.9190  151.9060 N   0  0  0  0  0  2  0  0  0  0  0  0
  159.7940  213.1390  151.1740 C   0  0  2  0  0  3  0  0  0  0  0  0
  158.7380  213.3880  150.1360 C   0  0  0  0  0  2  0  0  0  0  0  0
  161.0440  212.9300  150.3590 C   0  0  0  0  0  2  0  0  0  0  0  0
  160.6950  213.1760  148.9670 N   0  0  0  0  0  2  0  0  0  0  0  0
  159.3040  212.9890  148.8570 N   0  0  2  0  0  0  0  0  0  0  0  0
  157.1750  212.2130  147.6060 O   0  0  0  0  0  1  0  0  0  0  0  0
  158.8210  213.9340  147.8550 C   0  0  2  0  0  3  0  0  0  0  0  0
  157.6050  213.4660  147.1610 C   0  0  1  0  0  3  0  0  0  0  0  0
  158.9200  213.3300  146.5160 N   0  0  0  0  0  0  0  0  0  0  0  0
  159.0360  214.4300  145.5760 C   0  0  0  0  0  1  0  0  0  0  0  0
  161.2110  208.7040  148.5240 O   0  0  0  0  0  1  0  0  0  0  0  0
  161.1410  207.6790  149.4730 C   0  0  1  0  0  3  0  0  0  0  0  0
  161.1360  205.1270  149.4090 C   0  0  2  0  0  3  0  0  0  0  0  0
  161.6200  204.0600  148.4350 C   0  0  2  0  0  3  0  0  0  0  0  0
  161.8630  206.3990  149.0190 C   0  0  1  0  0  3  0  0  0  0  0  0
  162.2280  206.2550  147.5420 C   0  0  2  0  0  3  0  0  0  0  0  0
  161.1070  206.6650  146.5950 C   0  0  0  0  0  1  0  0  0  0  0  0
  162.4600  204.7660  147.3760 C   0  0  0  0  0  2  0  0  0  0  0  0
  160.4340  203.3730  147.7730 C   0  0  0  0  0  2  0  0  0  0  0  0
  160.7450  201.9770  147.5120 N   0  0  0  0  0  0  0  0  0  0  0  0
  161.4210  200.9430  148.2200 C   0  0  0  0  0  0  0  0  0  0  0  0
  161.5070  198.8450  146.5070 C   0  0  0  0  0  3  0  0  0  0  0  0
  161.9410  200.8260  149.3590 O   0  0  0  0  0  0  0  0  0  0  0  0
  161.0420  198.6830  145.1760 C   0  0  0  0  0  3  0  0  0  0  0  0
  161.2610  200.0920  147.0570 C   0  0  0  0  0  0  0  0  0  0  0  0
  160.6250  201.1010  146.3890 C   0  0  0  0  0  0  0  0  0  0  0  0
  160.3790  199.7420  144.4820 C   0  0  0  0  0  3  0  0  0  0  0  0
  160.1540  201.0020  145.0920 C   0  0  0  0  0  3  0  0  0  0  0  0
  161.4860  204.7120  150.8300 C   0  0  0  0  0  2  0  0  0  0  0  0
  161.0480  202.8790  151.9760 C   0  0  0  0  0  1  0  0  0  0  0  0
  160.4350  203.9850  151.3880 O   0  0  0  0  0  0  0  0  0  0  0  0
  1 29  1  6  0  0  0
  1  2  1  0  0  0  0
  2  3  1  0  0  0  0
  3  7  1  0  0  0  0
  4  1  1  0  0  0  0
  4  5  1  0  0  0  0
  5  3  1  0  0  0  0
  6  8  1  0  0  0  0
  7  6  2  0  0  0  0
  8 14  1  0  0  0  0
  8  9  1  1  0  0  0
 11 12  1  0  0  0  0
 12 10  2  0  0  0  0
 13 11  2  0  0  0  0
 13 14  1  0  0  0  0
 14 16  2  0  0  0  0
 15 11  1  0  0  0  0
 16 10  1  0  0  0  0
 17  7  1  0  0  0  0
 18 17  1  6  0  0  0
 19 18  1  0  0  0  0
 20 18  1  0  0  0  0
 21 20  1  0  0  0  0
 22 21  1  0  0  0  0
 22 19  1  1  0  0  0
 24 26  1  6  0  0  0
 24 22  1  0  0  0  0
 25 23  1  1  0  0  0
 25 24  1  0  0  0  0
 26 25  1  0  0  0  0
 27 26  1  0  0  0  0
 29 28  1  6  0  0  0
 30 46  1  1  0  0  0
 31 36  1  6  0  0  0
 31 30  1  0  0  0  0
 32 30  1  0  0  0  0
 32 29  1  6  0  0  0
 33 34  1  6  0  0  0
 33 32  1  0  0  0  0
 35 33  1  0  0  0  0
 35 31  1  0  0  0  0
 37 36  1  0  0  0  0
 37 38  1  0  0  0  0
 38 40  2  0  0  0  0
 39 42  1  0  0  0  0
 41 39  2  0  0  0  0
 42 38  1  0  0  0  0
 43 42  2  0  0  0  0
 43 37  1  0  0  0  0
 44 45  2  0  0  0  0
 44 41  1  0  0  0  0
 45 43  1  0  0  0  0
 46 48  1  0  0  0  0
 48 47  1  0  0  0  0
M  END
>  <MODEL>
6

>  <REMARK>
 VINA RESULT:      -5.1      2.602      3.924
  Name = 
  12 active torsions:
  status: ('A' for Active; 'I' for Inactive)
    1  A    between atoms: C_1  and  N_16
    2  A    between atoms: C_3  and  C_7
    3  A    between atoms: C_3  and  C_43
    4  A    between atoms: C_4  and  C_35
    5  A    between atoms: N_5  and  C_40
    6  A    between atoms: C_9  and  N_16
    7  A    between atoms: C_9  and  N_22
    8  A    between atoms: O_10  and  C_41
    9  A    between atoms: C_11  and  C_41
   10  A    between atoms: C_17  and  C_40
   11  A    between atoms: C_18  and  N_26
   12  A    between atoms: C_19  and  C_35
                            x       y       z     vdW  Elec       q    Type
                         _______ _______ _______ _____ _____    ______ ____

>  <TORSDO>
F 12

$$$$
=
 OpenBabel11052410123D

 48 54  0  0  1  0  0  0  0  0999 V2000
  161.3490  208.5120  151.3130 C   0  0  2  0  0  3  0  0  0  0  0  0
  160.3860  209.6780  151.2200 C   0  0  0  0  0  2  0  0  0  0  0  0
  160.9920  210.7520  151.9800 N   0  0  0  0  0  0  0  0  0  0  0  0
  162.6610  209.0720  151.8560 C   0  0  0  0  0  2  0  0  0  0  0  0
  162.3420  210.4450  152.4140 C   0  0  0  0  0  2  0  0  0  0  0  0
  159.7310  212.5080  153.0930 C   0  0  0  0  0  3  0  0  0  0  0  0
  160.4150  212.0670  152.0230 C   0  0  0  0  0  0  0  0  0  0  0  0
  159.4400  211.7010  154.3220 C   0  0  1  0  0  3  0  0  0  0  0  0
  160.4920  211.9790  155.3790 C   0  0  0  0  0  1  0  0  0  0  0  0
  156.4080  213.6070  155.5730 C   0  0  0  0  0  3  0  0  0  0  0  0
  155.8860  211.2430  155.6270 C   0  0  0  0  0  0  0  0  0  0  0  0
  155.5110  212.5720  155.8480 C   0  0  0  0  0  3  0  0  0  0  0  0
  157.1600  210.9500  155.1300 C   0  0  0  0  0  3  0  0  0  0  0  0
  158.0670  211.9880  154.8580 C   0  0  0  0  0  0  0  0  0  0  0  0
  154.7620  209.9470  155.9690 Cl  0  0  0  0  0  0  0  0  0  0  0  0
  157.6830  213.3160  155.0760 C   0  0  0  0  0  3  0  0  0  0  0  0
  160.5440  212.9110  150.8700 N   0  0  0  0  0  2  0  0  0  0  0  0
  159.7020  212.8120  149.6840 C   0  0  2  0  0  3  0  0  0  0  0  0
  160.5480  212.4230  148.5060 C   0  0  0  0  0  2  0  0  0  0  0  0
  159.1870  214.1780  149.3090 C   0  0  0  0  0  2  0  0  0  0  0  0
  159.6370  214.4490  147.9510 N   0  0  0  0  0  2  0  0  0  0  0  0
  160.7600  213.6320  147.7240 N   0  0  2  0  0  0  0  0  0  0  0  0
  162.8020  214.4520  146.3620 O   0  0  0  0  0  1  0  0  0  0  0  0
  160.7340  213.2480  146.3160 C   0  0  2  0  0  3  0  0  0  0  0  0
  161.9110  213.7260  145.5660 C   0  0  1  0  0  3  0  0  0  0  0  0
  160.6360  214.4520  145.4750 N   0  0  0  0  0  0  0  0  0  0  0  0
  160.0100  214.0370  144.2330 C   0  0  0  0  0  1  0  0  0  0  0  0
  162.8440  207.7280  149.5590 O   0  0  0  0  0  1  0  0  0  0  0  0
  161.5050  207.8390  149.9480 C   0  0  1  0  0  3  0  0  0  0  0  0
  161.0900  205.7160  148.5930 C   0  0  2  0  0  3  0  0  0  0  0  0
  160.7440  204.2680  148.9160 C   0  0  2  0  0  3  0  0  0  0  0  0
  160.7430  206.5080  149.8390 C   0  0  1  0  0  3  0  0  0  0  0  0
  160.8180  205.5290  151.0100 C   0  0  2  0  0  3  0  0  0  0  0  0
  162.2230  205.3570  151.5720 C   0  0  0  0  0  1  0  0  0  0  0  0
  160.3930  204.2080  150.3980 C   0  0  0  0  0  2  0  0  0  0  0  0
  161.9360  203.3650  148.6340 C   0  0  0  0  0  2  0  0  0  0  0  0
  161.5040  202.1660  147.9350 N   0  0  0  0  0  0  0  0  0  0  0  0
  161.5870  200.7660  148.1830 C   0  0  0  0  0  0  0  0  0  0  0  0
  160.5810  199.5870  145.9610 C   0  0  0  0  0  3  0  0  0  0  0  0
  162.0020  200.0440  149.1260 O   0  0  0  0  0  0  0  0  0  0  0  0
  160.0710  200.1200  144.7490 C   0  0  0  0  0  3  0  0  0  0  0  0
  161.0020  200.5360  146.8770 C   0  0  0  0  0  0  0  0  0  0  0  0
  160.9410  201.8830  146.6520 C   0  0  0  0  0  0  0  0  0  0  0  0
  160.0120  201.5290  144.5190 C   0  0  0  0  0  3  0  0  0  0  0  0
  160.4580  202.4590  145.4910 C   0  0  0  0  0  3  0  0  0  0  0  0
  160.2650  206.1820  147.4040 C   0  0  0  0  0  2  0  0  0  0  0  0
  160.0920  206.3380  145.2100 C   0  0  0  0  0  1  0  0  0  0  0  0
  160.9960  206.0280  146.2250 O   0  0  0  0  0  0  0  0  0  0  0  0
  1 29  1  6  0  0  0
  1  4  1  0  0  0  0
  2  1  1  0  0  0  0
  2  3  1  0  0  0  0
  3  7  1  0  0  0  0
  3  5  1  0  0  0  0
  4  5  1  0  0  0  0
  6  8  1  0  0  0  0
  7  6  2  0  0  0  0
  8 14  1  0  0  0  0
  8  9  1  1  0  0  0
 10 12  1  0  0  0  0
 11 12  2  0  0  0  0
 11 15  1  0  0  0  0
 13 11  1  0  0  0  0
 14 16  1  0  0  0  0
 14 13  2  0  0  0  0
 16 10  2  0  0  0  0
 17  7  1  0  0  0  0
 18 17  1  1  0  0  0
 19 18  1  0  0  0  0
 20 18  1  0  0  0  0
 21 20  1  0  0  0  0
 22 21  1  0  0  0  0
 22 19  1  1  0  0  0
 24 26  1  6  0  0  0
 24 22  1  0  0  0  0
 25 24  1  0  0  0  0
 25 23  1  1  0  0  0
 26 25  1  0  0  0  0
 27 26  1  0  0  0  0
 29 28  1  1  0  0  0
 30 46  1  6  0  0  0
 30 31  1  0  0  0  0
 30 32  1  0  0  0  0
 31 36  1  1  0  0  0
 31 35  1  0  0  0  0
 32 29  1  1  0  0  0
 32 33  1  0  0  0  0
 33 34  1  6  0  0  0
 35 33  1  0  0  0  0
 37 38  1  0  0  0  0
 37 36  1  0  0  0  0
 38 40  2  0  0  0  0
 39 42  1  0  0  0  0
 41 39  2  0  0  0  0
 42 38  1  0  0  0  0
 43 42  2  0  0  0  0
 43 37  1  0  0  0  0
 44 41  1  0  0  0  0
 44 45  2  0  0  0  0
 45 43  1  0  0  0  0
 47 48  1  0  0  0  0
 48 46  1  0  0  0  0
M  END
>  <MODEL>
7

>  <REMARK>
 VINA RESULT:      -5.0      1.724      2.500
  Name = 
  12 active torsions:
  status: ('A' for Active; 'I' for Inactive)
    1  A    between atoms: C_1  and  N_16
    2  A    between atoms: C_3  and  C_7
    3  A    between atoms: C_3  and  C_43
    4  A    between atoms: C_4  and  C_35
    5  A    between atoms: N_5  and  C_40
    6  A    between atoms: C_9  and  N_16
    7  A    between atoms: C_9  and  N_22
    8  A    between atoms: O_10  and  C_41
    9  A    between atoms: C_11  and  C_41
   10  A    between atoms: C_17  and  C_40
   11  A    between atoms: C_18  and  N_26
   12  A    between atoms: C_19  and  C_35
                            x       y       z     vdW  Elec       q    Type
                         _______ _______ _______ _____ _____    ______ ____

>  <TORSDO>
F 12

$$$$
=
 OpenBabel11052410123D

 48 54  0  0  1  0  0  0  0  0999 V2000
  161.2220  210.6640  153.0380 C   0  0  2  0  0  3  0  0  0  0  0  0
  160.7090  210.8000  151.6180 C   0  0  0  0  0  2  0  0  0  0  0  0
  161.8720  210.6740  150.7640 N   0  0  0  0  0  0  0  0  0  0  0  0
  162.6440  210.1190  152.9370 C   0  0  0  0  0  2  0  0  0  0  0  0
  163.0700  210.2950  151.4920 C   0  0  0  0  0  2  0  0  0  0  0  0
  161.2280  211.6550  148.6350 C   0  0  0  0  0  3  0  0  0  0  0  0
  161.7600  210.6360  149.3320 C   0  0  0  0  0  0  0  0  0  0  0  0
  160.6510  212.9010  149.2340 C   0  0  1  0  0  3  0  0  0  0  0  0
  161.6420  214.0420  149.0960 C   0  0  0  0  0  1  0  0  0  0  0  0
  158.0500  213.7040  146.5930 C   0  0  0  0  0  3  0  0  0  0  0  0
  156.9790  213.8150  148.7620 C   0  0  0  0  0  0  0  0  0  0  0  0
  156.9100  213.9270  147.3710 C   0  0  0  0  0  3  0  0  0  0  0  0
  158.1900  213.4810  149.3780 C   0  0  0  0  0  3  0  0  0  0  0  0
  159.3400  213.2630  148.6000 C   0  0  0  0  0  0  0  0  0  0  0  0
  155.5520  214.0920  149.7360 Cl  0  0  0  0  0  0  0  0  0  0  0  0
  159.2620  213.3710  147.2070 C   0  0  0  0  0  3  0  0  0  0  0  0
  162.1940  209.4570  148.6410 N   0  0  0  0  0  2  0  0  0  0  0  0
  162.2310  208.1260  149.2350 C   0  0  2  0  0  3  0  0  0  0  0  0
  162.8010  207.1540  148.2410 C   0  0  0  0  0  2  0  0  0  0  0  0
  160.8260  207.6240  149.4500 C   0  0  0  0  0  2  0  0  0  0  0  0
  160.6950  206.3810  148.7030 N   0  0  0  0  0  2  0  0  0  0  0  0
  161.6780  206.4060  147.6960 N   0  0  2  0  0  0  0  0  0  0  0  0
  161.8610  205.6920  145.2140 O   0  0  0  0  0  1  0  0  0  0  0  0
  162.1280  205.0310  147.5000 C   0  0  2  0  0  3  0  0  0  0  0  0
  162.2260  204.6540  146.0760 C   0  0  1  0  0  3  0  0  0  0  0  0
  161.0570  204.2440  146.8680 N   0  0  0  0  0  0  0  0  0  0  0  0
  161.2800  202.8620  147.2520 C   0  0  0  0  0  1  0  0  0  0  0  0
  160.8550  208.5080  154.1070 O   0  0  0  0  0  1  0  0  0  0  0  0
  160.2940  209.7640  153.8560 C   0  0  1  0  0  3  0  0  0  0  0  0
  160.5060  211.7150  155.4890 C   0  0  2  0  0  3  0  0  0  0  0  0
  159.5460  212.5250  156.3500 C   0  0  2  0  0  3  0  0  0  0  0  0
  159.7630  210.4430  155.1290 C   0  0  1  0  0  3  0  0  0  0  0  0
  158.2730  210.7740  155.2110 C   0  0  2  0  0  3  0  0  0  0  0  0
  157.7180  211.3980  153.9370 C   0  0  0  0  0  1  0  0  0  0  0  0
  158.1980  211.8120  156.3140 C   0  0  0  0  0  2  0  0  0  0  0  0
  159.3960  213.9330  155.7920 C   0  0  0  0  0  2  0  0  0  0  0  0
  158.2170  214.0150  154.9460 N   0  0  0  0  0  0  0  0  0  0  0  0
  157.9840  214.1430  153.5470 C   0  0  0  0  0  0  0  0  0  0  0  0
  155.3010  214.4120  153.2920 C   0  0  0  0  0  3  0  0  0  0  0  0
  158.7030  214.1640  152.5150 O   0  0  0  0  0  0  0  0  0  0  0  0
  154.2530  214.4530  154.2480 C   0  0  0  0  0  3  0  0  0  0  0  0
  156.5660  214.2510  153.8290 C   0  0  0  0  0  0  0  0  0  0  0  0
  156.8100  214.1390  155.1690 C   0  0  0  0  0  0  0  0  0  0  0  0
  154.5140  214.3370  155.6480 C   0  0  0  0  0  3  0  0  0  0  0  0
  155.8320  214.1740  156.1460 C   0  0  0  0  0  3  0  0  0  0  0  0
  161.7640  211.4040  156.2860 C   0  0  0  0  0  2  0  0  0  0  0  0
  162.6900  209.6450  157.2410 C   0  0  0  0  0  1  0  0  0  0  0  0
  161.5100  210.3860  157.2050 O   0  0  0  0  0  0  0  0  0  0  0  0
  1 29  1  1  0  0  0
  2  1  1  0  0  0  0
  3  5  1  0  0  0  0
  3  2  1  0  0  0  0
  4  1  1  0  0  0  0
  5  4  1  0  0  0  0
  6  8  1  0  0  0  0
  6  7  2  0  0  0  0
  7  3  1  0  0  0  0
  8  9  1  6  0  0  0
 10 16  2  0  0  0  0
 10 12  1  0  0  0  0
 11 13  1  0  0  0  0
 11 15  1  0  0  0  0
 12 11  2  0  0  0  0
 14  8  1  0  0  0  0
 14 13  2  0  0  0  0
 16 14  1  0  0  0  0
 17  7  1  0  0  0  0
 18 17  1  6  0  0  0
 18 20  1  0  0  0  0
 19 18  1  0  0  0  0
 21 20  1  0  0  0  0
 22 19  1  1  0  0  0
 22 21  1  0  0  0  0
 24 26  1  1  0  0  0
 24 22  1  0  0  0  0
 25 23  1  6  0  0  0
 25 26  1  0  0  0  0
 25 24  1  0  0  0  0
 26 27  1  0  0  0  0
 29 28  1  1  0  0  0
 30 46  1  1  0  0  0
 30 31  1  0  0  0  0
 31 36  1  6  0  0  0
 32 29  1  6  0  0  0
 32 33  1  0  0  0  0
 32 30  1  0  0  0  0
 33 34  1  6  0  0  0
 33 35  1  0  0  0  0
 35 31  1  0  0  0  0
 37 43  1  0  0  0  0
 37 36  1  0  0  0  0
 38 42  1  0  0  0  0
 38 37  1  0  0  0  0
 39 42  2  0  0  0  0
 39 41  1  0  0  0  0
 40 38  2  0  0  0  0
 41 44  2  0  0  0  0
 42 43  1  0  0  0  0
 43 45  2  0  0  0  0
 44 45  1  0  0  0  0
 46 48  1  0  0  0  0
 48 47  1  0  0  0  0
M  END
>  <MODEL>
8

>  <REMARK>
 VINA RESULT:      -4.6      2.655      9.350
  Name = 
  12 active torsions:
  status: ('A' for Active; 'I' for Inactive)
    1  A    between atoms: C_1  and  N_16
    2  A    between atoms: C_3  and  C_7
    3  A    between atoms: C_3  and  C_43
    4  A    between atoms: C_4  and  C_35
    5  A    between atoms: N_5  and  C_40
    6  A    between atoms: C_9  and  N_16
    7  A    between atoms: C_9  and  N_22
    8  A    between atoms: O_10  and  C_41
    9  A    between atoms: C_11  and  C_41
   10  A    between atoms: C_17  and  C_40
   11  A    between atoms: C_18  and  N_26
   12  A    between atoms: C_19  and  C_35
                            x       y       z     vdW  Elec       q    Type
                         _______ _______ _______ _____ _____    ______ ____

>  <TORSDO>
F 12

$$$$
=
 OpenBabel11052410123D

 48 54  0  0  1  0  0  0  0  0999 V2000
  160.7560  206.6610  152.4220 C   0  0  2  0  0  3  0  0  0  0  0  0
  160.6550  207.8390  151.4740 C   0  0  0  0  0  2  0  0  0  0  0  0
  160.8300  209.0210  152.2930 N   0  0  0  0  0  0  0  0  0  0  0  0
  161.3310  207.2000  153.7280 C   0  0  0  0  0  2  0  0  0  0  0  0
  161.2090  208.7100  153.6600 C   0  0  0  0  0  2  0  0  0  0  0  0
  160.4570  211.4220  152.3660 C   0  0  0  0  0  3  0  0  0  0  0  0
  160.9100  210.3350  151.7190 C   0  0  0  0  0  0  0  0  0  0  0  0
  159.7810  211.4090  153.7030 C   0  0  1  0  0  3  0  0  0  0  0  0
  160.7850  211.7510  154.7880 C   0  0  0  0  0  1  0  0  0  0  0  0
  156.9990  213.6100  155.0460 C   0  0  0  0  0  3  0  0  0  0  0  0
  156.9920  213.7780  152.6310 C   0  0  0  0  0  0  0  0  0  0  0  0
  156.4540  214.1350  153.8710 C   0  0  0  0  0  3  0  0  0  0  0  0
  158.0740  212.8940  152.5650 C   0  0  0  0  0  3  0  0  0  0  0  0
  158.6190  212.3580  153.7440 C   0  0  0  0  0  0  0  0  0  0  0  0
  156.3120  214.4370  151.1590 Cl  0  0  0  0  0  0  0  0  0  0  0  0
  158.0800  212.7240  154.9830 C   0  0  0  0  0  3  0  0  0  0  0  0
  161.4560  210.4750  150.3990 N   0  0  0  0  0  2  0  0  0  0  0  0
  161.9600  211.7270  149.8490 C   0  0  2  0  0  3  0  0  0  0  0  0
  160.8340  212.4690  149.1880 C   0  0  0  0  0  2  0  0  0  0  0  0
  162.9060  211.4400  148.7110 C   0  0  0  0  0  2  0  0  0  0  0  0
  162.3690  212.0990  147.5290 N   0  0  0  0  0  2  0  0  0  0  0  0
  160.9910  212.2780  147.7530 N   0  0  2  0  0  0  0  0  0  0  0  0
  158.4600  212.4830  147.2500 O   0  0  0  0  0  1  0  0  0  0  0  0
  160.6090  213.5290  147.1060 C   0  0  2  0  0  3  0  0  0  0  0  0
  159.1610  213.6190  146.8340 C   0  0  1  0  0  3  0  0  0  0  0  0
  160.0910  213.2510  145.7570 N   0  0  0  0  0  0  0  0  0  0  0  0
  160.3150  214.4530  144.9740 C   0  0  0  0  0  1  0  0  0  0  0  0
  162.3680  204.8680  152.7610 O   0  0  0  0  0  1  0  0  0  0  0  0
  161.6110  205.5530  151.8040 C   0  0  1  0  0  3  0  0  0  0  0  0
  161.1710  204.7350  149.4260 C   0  0  2  0  0  3  0  0  0  0  0  0
  160.7670  203.4130  148.7860 C   0  0  2  0  0  3  0  0  0  0  0  0
  160.8100  204.6070  150.8940 C   0  0  1  0  0  3  0  0  0  0  0  0
  160.8140  203.1130  151.2130 C   0  0  2  0  0  3  0  0  0  0  0  0
  162.1940  202.5680  151.5570 C   0  0  0  0  0  1  0  0  0  0  0  0
  160.3660  202.4700  149.9150 C   0  0  0  0  0  2  0  0  0  0  0  0
  161.9380  202.8210  148.0140 C   0  0  0  0  0  2  0  0  0  0  0  0
  162.2110  203.6160  146.8290 N   0  0  0  0  0  0  0  0  0  0  0  0
  163.3090  204.3970  146.3660 C   0  0  0  0  0  0  0  0  0  0  0  0
  162.4430  205.5590  144.0770 C   0  0  0  0  0  3  0  0  0  0  0  0
  164.4740  204.6370  146.7730 O   0  0  0  0  0  0  0  0  0  0  0  0
  161.2020  205.5040  143.3920 C   0  0  0  0  0  3  0  0  0  0  0  0
  162.4980  204.8020  145.2350 C   0  0  0  0  0  0  0  0  0  0  0  0
  161.4510  204.0570  145.7010 C   0  0  0  0  0  0  0  0  0  0  0  0
  160.1100  204.7240  143.8850 C   0  0  0  0  0  3  0  0  0  0  0  0
  160.2190  203.9680  145.0790 C   0  0  0  0  0  3  0  0  0  0  0  0
  160.4020  205.8720  148.7720 C   0  0  0  0  0  2  0  0  0  0  0  0
  162.4250  206.7500  148.7250 C   0  0  0  0  0  1  0  0  0  0  0  0
  161.2570  206.6310  147.9730 O   0  0  0  0  0  0  0  0  0  0  0  0
  1 29  1  6  0  0  0
  1  4  1  0  0  0  0
  2  3  1  0  0  0  0
  2  1  1  0  0  0  0
  3  5  1  0  0  0  0
  5  4  1  0  0  0  0
  6  8  1  0  0  0  0
  7  3  1  0  0  0  0
  7  6  2  0  0  0  0
  8 14  1  0  0  0  0
  8  9  1  1  0  0  0
 11 12  1  0  0  0  0
 12 10  2  0  0  0  0
 13 11  2  0  0  0  0
 13 14  1  0  0  0  0
 14 16  2  0  0  0  0
 15 11  1  0  0  0  0
 16 10  1  0  0  0  0
 17  7  1  0  0  0  0
 18 17  1  6  0  0  0
 19 18  1  0  0  0  0
 20 18  1  0  0  0  0
 21 22  1  0  0  0  0
 21 20  1  0  0  0  0
 22 19  1  1  0  0  0
 24 26  1  6  0  0  0
 24 22  1  0  0  0  0
 25 24  1  0  0  0  0
 25 23  1  1  0  0  0
 26 25  1  0  0  0  0
 27 26  1  0  0  0  0
 29 28  1  1  0  0  0
 30 46  1  6  0  0  0
 30 32  1  0  0  0  0
 31 36  1  1  0  0  0
 31 30  1  0  0  0  0
 31 35  1  0  0  0  0
 32 33  1  0  0  0  0
 32 29  1  1  0  0  0
 33 34  1  6  0  0  0
 35 33  1  0  0  0  0
 37 36  1  0  0  0  0
 38 40  2  0  0  0  0
 38 37  1  0  0  0  0
 39 42  1  0  0  0  0
 41 44  1  0  0  0  0
 41 39  2  0  0  0  0
 42 43  2  0  0  0  0
 42 38  1  0  0  0  0
 43 37  1  0  0  0  0
 44 45  2  0  0  0  0
 45 43  1  0  0  0  0
 48 47  1  0  0  0  0
 48 46  1  0  0  0  0
M  END
>  <MODEL>
9

>  <REMARK>
 VINA RESULT:      -4.6      2.085      2.910
  Name = 
  12 active torsions:
  status: ('A' for Active; 'I' for Inactive)
    1  A    between atoms: C_1  and  N_16
    2  A    between atoms: C_3  and  C_7
    3  A    between atoms: C_3  and  C_43
    4  A    between atoms: C_4  and  C_35
    5  A    between atoms: N_5  and  C_40
    6  A    between atoms: C_9  and  N_16
    7  A    between atoms: C_9  and  N_22
    8  A    between atoms: O_10  and  C_41
    9  A    between atoms: C_11  and  C_41
   10  A    between atoms: C_17  and  C_40
   11  A    between atoms: C_18  and  N_26
   12  A    between atoms: C_19  and  C_35
                            x       y       z     vdW  Elec       q    Type
                         _______ _______ _______ _____ _____    ______ ____

>  <TORSDO>
F 12

$$$$
