=
 OpenBabel11052411173D

 27 29  0  0  1  0  0  0  0  0999 V2000
  161.9540  210.4760  149.3060 C   0  0  0  0  0  0  0  0  0  0  0  0
  161.2120  206.4340  151.2480 C   0  0  0  0  0  0  0  0  0  0  0  0
  162.2100  211.4930  148.2530 C   0  0  0  0  0  1  0  0  0  0  0  0
  161.8410  210.8540  150.5540 N   0  0  0  0  0  0  0  0  0  0  0  0
  161.0010  205.1060  151.6040 C   0  0  0  0  0  3  0  0  0  0  0  0
  161.4470  205.8750  148.8980 C   0  0  0  0  0  0  0  0  0  0  0  0
  161.5880  209.9680  151.7090 C   0  0  2  0  0  3  0  0  0  0  0  0
  161.8360  209.0920  148.9340 N   0  0  0  0  0  2  0  0  0  0  0  0
  161.0120  204.1340  150.5800 C   0  0  0  0  0  0  0  0  0  0  0  0
  161.4280  206.8030  149.9380 C   0  0  0  0  0  0  0  0  0  0  0  0
  161.2340  204.5240  149.2370 C   0  0  0  0  0  3  0  0  0  0  0  0
  162.6660  210.1060  152.6710 N   0  0  0  0  0  1  0  0  0  0  0  0
  161.2390  207.4840  152.0480 O   0  0  0  0  0  0  0  0  0  0  0  0
  161.4700  208.5370  151.2860 C   0  0  0  0  0  0  0  0  0  0  0  0
  161.5930  208.1630  149.9790 C   0  0  0  0  0  0  0  0  0  0  0  0
  160.7920  202.7170  150.9140 C   0  0  0  0  0  0  0  0  0  0  0  0
  160.0240  201.9120  150.0810 O   0  0  0  0  0  0  0  0  0  0  0  0
  161.2960  202.2210  151.9570 O   0  0  0  0  0  1  0  0  0  0  0  0
  161.6720  206.2920  147.5470 N   0  0  0  0  0  2  0  0  0  0  0  0
  161.1570  205.5710  146.3910 C   0  0  0  0  0  2  0  0  0  0  0  0
  163.3270  204.5750  145.5960 C   0  0  0  0  0  1  0  0  0  0  0  0
  161.9460  204.2870  146.1650 C   0  0  2  0  0  3  0  0  0  0  0  0
  161.2100  203.3640  145.3050 N   0  0  0  0  0  2  0  0  0  0  0  0
  160.6430  202.1100  145.7110 C   0  0  0  0  0  0  0  0  0  0  0  0
  160.0070  201.3970  144.8430 N   0  0  0  0  0  2  0  0  0  0  0  0
  161.4700  200.2280  147.0810 C   0  0  0  0  0  1  0  0  0  0  0  0
  160.8030  201.5910  147.1020 C   0  0  0  0  0  2  0  0  0  0  0  0
  1  4  2  0  0  0  0
  2  5  1  0  0  0  0
  2 13  1  0  0  0  0
  3  1  1  0  0  0  0
  4  7  1  0  0  0  0
  6 11  2  0  0  0  0
  6 10  1  0  0  0  0
  7 12  1  1  0  0  0
  8  1  1  0  0  0  0
  8 15  1  0  0  0  0
  9 16  1  0  0  0  0
  9  5  2  0  0  0  0
 10 15  1  0  0  0  0
 10  2  2  0  0  0  0
 11  9  1  0  0  0  0
 14  7  1  0  0  0  0
 14 13  1  0  0  0  0
 15 14  2  0  0  0  0
 16 18  1  0  0  0  0
 17 16  2  0  0  0  0
 19  6  1  0  0  0  0
 20 19  1  0  0  0  0
 22 21  1  6  0  0  0
 22 20  1  0  0  0  0
 23 24  1  0  0  0  0
 23 22  1  0  0  0  0
 24 27  1  0  0  0  0
 25 24  2  0  0  0  0
 26 27  1  0  0  0  0
M  END
>  <MODEL>
1

>  <REMARK>
 VINA RESULT:      -8.5      0.000      0.000
  Name = 
  6 active torsions:
  status: ('A' for Active; 'I' for Inactive)
    1  A    between atoms: N_3  and  C_13
    2  A    between atoms: C_7  and  N_16
    3  A    between atoms: C_11  and  C_27
    4  A    between atoms: C_13  and  C_21
    5  A    between atoms: C_15  and  C_20
    6  A    between atoms: N_16  and  C_21
                            x       y       z     vdW  Elec       q    Type
                         _______ _______ _______ _____ _____    ______ ____

>  <TORSDO>
F 6

$$$$
=
 OpenBabel11052411173D

 27 29  0  0  1  0  0  0  0  0999 V2000
  161.1720  204.6510  151.9560 C   0  0  0  0  0  0  0  0  0  0  0  0
  161.8730  209.0730  151.1710 C   0  0  0  0  0  0  0  0  0  0  0  0
  160.9170  203.2110  151.6970 C   0  0  0  0  0  1  0  0  0  0  0  0
  161.3120  205.0690  153.1890 N   0  0  0  0  0  0  0  0  0  0  0  0
  162.0670  210.3620  150.6830 C   0  0  0  0  0  3  0  0  0  0  0  0
  161.5900  208.1600  148.9390 C   0  0  0  0  0  0  0  0  0  0  0  0
  161.5680  206.4640  153.6070 C   0  0  2  0  0  3  0  0  0  0  0  0
  161.2590  205.5610  150.8470 N   0  0  0  0  0  2  0  0  0  0  0  0
  162.0220  210.5570  149.2860 C   0  0  0  0  0  0  0  0  0  0  0  0
  161.6430  208.0100  150.3240 C   0  0  0  0  0  0  0  0  0  0  0  0
  161.7850  209.4580  148.4250 C   0  0  0  0  0  3  0  0  0  0  0  0
  160.5080  206.9040  154.4960 N   0  0  0  0  0  1  0  0  0  0  0  0
  161.8780  208.6830  152.4320 O   0  0  0  0  0  0  0  0  0  0  0  0
  161.6540  207.3820  152.4300 C   0  0  0  0  0  0  0  0  0  0  0  0
  161.5030  206.9260  151.1520 C   0  0  0  0  0  0  0  0  0  0  0  0
  162.2220  211.9050  148.7290 C   0  0  0  0  0  0  0  0  0  0  0  0
  163.3390  212.1830  147.9500 O   0  0  0  0  0  0  0  0  0  0  0  0
  161.3840  212.8190  148.9540 O   0  0  0  0  0  1  0  0  0  0  0  0
  161.3510  207.0350  148.0880 N   0  0  0  0  0  2  0  0  0  0  0  0
  162.3730  206.4470  147.2320 C   0  0  0  0  0  2  0  0  0  0  0  0
  160.6990  205.6590  145.5280 C   0  0  0  0  0  1  0  0  0  0  0  0
  161.8140  205.2480  146.4760 C   0  0  2  0  0  3  0  0  0  0  0  0
  161.3590  204.2120  147.3990 N   0  0  0  0  0  2  0  0  0  0  0  0
  161.1050  202.8400  147.0640 C   0  0  0  0  0  0  0  0  0  0  0  0
  160.7150  202.0290  147.9880 N   0  0  0  0  0  2  0  0  0  0  0  0
  159.9730  201.6330  145.2300 C   0  0  0  0  0  1  0  0  0  0  0  0
  161.2450  202.3370  145.6640 C   0  0  0  0  0  2  0  0  0  0  0  0
  1  4  2  0  0  0  0
  2 13  1  0  0  0  0
  3  1  1  0  0  0  0
  4  7  1  0  0  0  0
  5  2  1  0  0  0  0
  6 10  1  0  0  0  0
  7 12  1  1  0  0  0
  8 15  1  0  0  0  0
  8  1  1  0  0  0  0
  9  5  2  0  0  0  0
 10 15  1  0  0  0  0
 10  2  2  0  0  0  0
 11  6  2  0  0  0  0
 11  9  1  0  0  0  0
 14 13  1  0  0  0  0
 14  7  1  0  0  0  0
 15 14  2  0  0  0  0
 16 18  1  0  0  0  0
 16  9  1  0  0  0  0
 17 16  2  0  0  0  0
 19  6  1  0  0  0  0
 20 19  1  0  0  0  0
 22 21  1  1  0  0  0
 22 20  1  0  0  0  0
 22 23  1  0  0  0  0
 24 23  1  0  0  0  0
 24 25  2  0  0  0  0
 26 27  1  0  0  0  0
 27 24  1  0  0  0  0
M  END
>  <MODEL>
2

>  <REMARK>
 VINA RESULT:      -8.3      2.672      5.133
  Name = 
  6 active torsions:
  status: ('A' for Active; 'I' for Inactive)
    1  A    between atoms: N_3  and  C_13
    2  A    between atoms: C_7  and  N_16
    3  A    between atoms: C_11  and  C_27
    4  A    between atoms: C_13  and  C_21
    5  A    between atoms: C_15  and  C_20
    6  A    between atoms: N_16  and  C_21
                            x       y       z     vdW  Elec       q    Type
                         _______ _______ _______ _____ _____    ______ ____

>  <TORSDO>
F 6

$$$$
=
 OpenBabel11052411173D

 27 29  0  0  1  0  0  0  0  0999 V2000
  161.1200  207.3690  153.3510 C   0  0  0  0  0  0  0  0  0  0  0  0
  161.9940  207.1850  148.8950 C   0  0  0  0  0  0  0  0  0  0  0  0
  160.6980  206.9400  154.7100 C   0  0  0  0  0  1  0  0  0  0  0  0
  161.5550  208.5900  153.1670 N   0  0  0  0  0  0  0  0  0  0  0  0
  162.1830  206.8860  147.5490 C   0  0  0  0  0  3  0  0  0  0  0  0
  161.1640  204.9560  149.3810 C   0  0  0  0  0  0  0  0  0  0  0  0
  162.0080  209.1630  151.8820 C   0  0  2  0  0  3  0  0  0  0  0  0
  161.0400  206.4340  152.2620 N   0  0  0  0  0  2  0  0  0  0  0  0
  161.8550  205.5870  147.1050 C   0  0  0  0  0  0  0  0  0  0  0  0
  161.5010  206.2500  149.7780 C   0  0  0  0  0  0  0  0  0  0  0  0
  161.3490  204.6320  148.0210 C   0  0  0  0  0  3  0  0  0  0  0  0
  161.2040  210.3290  151.5620 N   0  0  0  0  0  1  0  0  0  0  0  0
  162.2390  208.3300  149.5040 O   0  0  0  0  0  0  0  0  0  0  0  0
  161.9140  208.1650  150.7720 C   0  0  0  0  0  0  0  0  0  0  0  0
  161.4540  206.8970  150.9850 C   0  0  0  0  0  0  0  0  0  0  0  0
  162.0400  205.2290  145.6900 C   0  0  0  0  0  0  0  0  0  0  0  0
  161.1630  205.7110  144.7240 O   0  0  0  0  0  0  0  0  0  0  0  0
  162.9930  204.4830  145.3390 O   0  0  0  0  0  1  0  0  0  0  0  0
  160.6560  204.0080  150.3240 N   0  0  0  0  0  2  0  0  0  0  0  0
  160.9420  202.5810  150.2570 C   0  0  0  0  0  2  0  0  0  0  0  0
  158.7700  201.4400  149.7010 C   0  0  0  0  0  1  0  0  0  0  0  0
  160.1110  201.9180  149.1660 C   0  0  2  0  0  3  0  0  0  0  0  0
  160.8450  200.8210  148.5410 N   0  0  0  0  0  2  0  0  0  0  0  0
  161.1330  200.6920  147.1420 C   0  0  0  0  0  0  0  0  0  0  0  0
  161.8030  199.6700  146.7290 N   0  0  0  0  0  2  0  0  0  0  0  0
  159.9970  200.9880  144.9690 C   0  0  0  0  0  1  0  0  0  0  0  0
  160.6440  201.6920  146.1460 C   0  0  0  0  0  2  0  0  0  0  0  0
  1  3  1  0  0  0  0
  2 13  1  0  0  0  0
  2 10  1  0  0  0  0
  4  1  2  0  0  0  0
  5  2  2  0  0  0  0
  6 10  2  0  0  0  0
  6 19  1  0  0  0  0
  7 12  1  6  0  0  0
  7  4  1  0  0  0  0
  8  1  1  0  0  0  0
  9  5  1  0  0  0  0
  9 11  2  0  0  0  0
 10 15  1  0  0  0  0
 11  6  1  0  0  0  0
 13 14  1  0  0  0  0
 14 15  2  0  0  0  0
 14  7  1  0  0  0  0
 15  8  1  0  0  0  0
 16  9  1  0  0  0  0
 17 16  2  0  0  0  0
 18 16  1  0  0  0  0
 20 19  1  0  0  0  0
 22 21  1  1  0  0  0
 22 20  1  0  0  0  0
 23 22  1  0  0  0  0
 24 23  1  0  0  0  0
 25 24  2  0  0  0  0
 26 27  1  0  0  0  0
 27 24  1  0  0  0  0
M  END
>  <MODEL>
3

>  <REMARK>
 VINA RESULT:      -8.2      2.682      4.117
  Name = 
  6 active torsions:
  status: ('A' for Active; 'I' for Inactive)
    1  A    between atoms: N_3  and  C_13
    2  A    between atoms: C_7  and  N_16
    3  A    between atoms: C_11  and  C_27
    4  A    between atoms: C_13  and  C_21
    5  A    between atoms: C_15  and  C_20
    6  A    between atoms: N_16  and  C_21
                            x       y       z     vdW  Elec       q    Type
                         _______ _______ _______ _____ _____    ______ ____

>  <TORSDO>
F 6

$$$$
=
 OpenBabel11052411173D

 27 29  0  0  1  0  0  0  0  0999 V2000
  161.3640  204.7830  145.2010 C   0  0  0  0  0  0  0  0  0  0  0  0
  161.2740  204.2970  149.7190 C   0  0  0  0  0  0  0  0  0  0  0  0
  161.3760  205.4380  143.8680 C   0  0  0  0  0  1  0  0  0  0  0  0
  161.4030  203.4770  145.2780 N   0  0  0  0  0  0  0  0  0  0  0  0
  161.2420  204.4050  151.1060 C   0  0  0  0  0  3  0  0  0  0  0  0
  161.2010  206.7060  149.4280 C   0  0  0  0  0  0  0  0  0  0  0  0
  161.3970  202.6810  146.5240 C   0  0  2  0  0  3  0  0  0  0  0  0
  161.3060  205.5970  146.3840 N   0  0  0  0  0  2  0  0  0  0  0  0
  161.1880  205.6970  151.6720 C   0  0  0  0  0  0  0  0  0  0  0  0
  161.2530  205.4120  148.9110 C   0  0  0  0  0  0  0  0  0  0  0  0
  161.1690  206.8370  150.8310 C   0  0  0  0  0  3  0  0  0  0  0  0
  160.2590  201.7800  146.5170 N   0  0  0  0  0  1  0  0  0  0  0  0
  161.3260  203.1910  149.0020 O   0  0  0  0  0  0  0  0  0  0  0  0
  161.3380  203.5590  147.7340 C   0  0  0  0  0  0  0  0  0  0  0  0
  161.2950  204.9200  147.6320 C   0  0  0  0  0  0  0  0  0  0  0  0
  161.1530  205.8550  153.1340 C   0  0  0  0  0  0  0  0  0  0  0  0
  161.1650  207.1230  153.7030 O   0  0  0  0  0  0  0  0  0  0  0  0
  161.1140  204.8430  153.8850 O   0  0  0  0  0  1  0  0  0  0  0  0
  161.1830  207.8430  148.5600 N   0  0  0  0  0  2  0  0  0  0  0  0
  162.2140  208.8730  148.5680 C   0  0  0  0  0  2  0  0  0  0  0  0
  162.2200  211.3760  148.8180 C   0  0  0  0  0  1  0  0  0  0  0  0
  161.7850  210.0540  149.4290 C   0  0  2  0  0  3  0  0  0  0  0  0
  162.2900  209.9180  150.7930 N   0  0  0  0  0  2  0  0  0  0  0  0
  161.6460  210.4050  151.9790 C   0  0  0  0  0  0  0  0  0  0  0  0
  162.2050  210.2040  153.1260 N   0  0  0  0  0  2  0  0  0  0  0  0
  159.4730  210.7950  153.0850 C   0  0  0  0  0  1  0  0  0  0  0  0
  160.3650  211.1710  151.9180 C   0  0  0  0  0  2  0  0  0  0  0  0
  1  4  2  0  0  0  0
  1  8  1  0  0  0  0
  2  5  1  0  0  0  0
  3  1  1  0  0  0  0
  4  7  1  0  0  0  0
  5  9  2  0  0  0  0
  6 11  2  0  0  0  0
  7 12  1  6  0  0  0
  7 14  1  0  0  0  0
  8 15  1  0  0  0  0
  9 16  1  0  0  0  0
 10  6  1  0  0  0  0
 10  2  2  0  0  0  0
 11  9  1  0  0  0  0
 13  2  1  0  0  0  0
 14 13  1  0  0  0  0
 15 14  2  0  0  0  0
 15 10  1  0  0  0  0
 16 17  2  0  0  0  0
 16 18  1  0  0  0  0
 19 20  1  0  0  0  0
 19  6  1  0  0  0  0
 20 22  1  0  0  0  0
 22 21  1  6  0  0  0
 22 23  1  0  0  0  0
 23 24  1  0  0  0  0
 24 25  2  0  0  0  0
 27 24  1  0  0  0  0
 27 26  1  0  0  0  0
M  END
>  <MODEL>
4

>  <REMARK>
 VINA RESULT:      -7.8      1.488      6.928
  Name = 
  6 active torsions:
  status: ('A' for Active; 'I' for Inactive)
    1  A    between atoms: N_3  and  C_13
    2  A    between atoms: C_7  and  N_16
    3  A    between atoms: C_11  and  C_27
    4  A    between atoms: C_13  and  C_21
    5  A    between atoms: C_15  and  C_20
    6  A    between atoms: N_16  and  C_21
                            x       y       z     vdW  Elec       q    Type
                         _______ _______ _______ _____ _____    ______ ____

>  <TORSDO>
F 6

$$$$
=
 OpenBabel11052411173D

 27 29  0  0  1  0  0  0  0  0999 V2000
  161.1960  203.9970  150.6620 C   0  0  0  0  0  0  0  0  0  0  0  0
  161.6160  208.0430  148.6340 C   0  0  0  0  0  0  0  0  0  0  0  0
  161.1320  202.9760  151.7380 C   0  0  0  0  0  1  0  0  0  0  0  0
  161.0470  203.6290  149.4140 N   0  0  0  0  0  0  0  0  0  0  0  0
  161.7720  209.3720  148.2510 C   0  0  0  0  0  3  0  0  0  0  0  0
  161.8780  208.5820  150.9860 C   0  0  0  0  0  0  0  0  0  0  0  0
  161.0860  204.5220  148.2370 C   0  0  2  0  0  3  0  0  0  0  0  0
  161.4230  205.3730  151.0100 N   0  0  0  0  0  2  0  0  0  0  0  0
  161.9860  210.3340  149.2620 C   0  0  0  0  0  0  0  0  0  0  0  0
  161.6680  207.6650  149.9570 C   0  0  0  0  0  0  0  0  0  0  0  0
  162.0380  209.9340  150.6190 C   0  0  0  0  0  3  0  0  0  0  0  0
  162.1350  204.0860  147.3330 N   0  0  0  0  0  1  0  0  0  0  0  0
  161.4070  207.0020  147.8500 O   0  0  0  0  0  0  0  0  0  0  0  0
  161.3220  205.9450  148.6350 C   0  0  0  0  0  0  0  0  0  0  0  0
  161.4770  206.3070  149.9420 C   0  0  0  0  0  0  0  0  0  0  0  0
  162.1560  211.7500  148.9000 C   0  0  0  0  0  0  0  0  0  0  0  0
  163.2660  212.1590  148.1690 O   0  0  0  0  0  0  0  0  0  0  0  0
  161.2990  212.6050  149.2490 O   0  0  0  0  0  1  0  0  0  0  0  0
  161.9250  208.1560  152.3510 N   0  0  0  0  0  2  0  0  0  0  0  0
  160.7350  207.9240  153.1590 C   0  0  0  0  0  2  0  0  0  0  0  0
  160.4090  207.2720  155.5660 C   0  0  0  0  0  1  0  0  0  0  0  0
  160.9920  208.3020  154.6120 C   0  0  2  0  0  3  0  0  0  0  0  0
  160.4780  209.6370  154.9060 N   0  0  0  0  0  2  0  0  0  0  0  0
  161.2380  210.7320  155.4360 C   0  0  0  0  0  0  0  0  0  0  0  0
  160.6530  211.8650  155.6370 N   0  0  0  0  0  2  0  0  0  0  0  0
  162.8170  210.0390  157.2040 C   0  0  0  0  0  1  0  0  0  0  0  0
  162.6800  210.5840  155.7950 C   0  0  0  0  0  2  0  0  0  0  0  0
  1  8  1  0  0  0  0
  1  3  1  0  0  0  0
  2 10  1  0  0  0  0
  4  1  2  0  0  0  0
  5  2  2  0  0  0  0
  5  9  1  0  0  0  0
  6 19  1  0  0  0  0
  7 12  1  6  0  0  0
  7 14  1  0  0  0  0
  7  4  1  0  0  0  0
  9 11  2  0  0  0  0
 10  6  2  0  0  0  0
 11  6  1  0  0  0  0
 13  2  1  0  0  0  0
 13 14  1  0  0  0  0
 14 15  2  0  0  0  0
 15 10  1  0  0  0  0
 15  8  1  0  0  0  0
 16 18  1  0  0  0  0
 16  9  1  0  0  0  0
 17 16  2  0  0  0  0
 19 20  1  0  0  0  0
 20 22  1  0  0  0  0
 22 23  1  0  0  0  0
 22 21  1  1  0  0  0
 23 24  1  0  0  0  0
 24 25  2  0  0  0  0
 24 27  1  0  0  0  0
 27 26  1  0  0  0  0
M  END
>  <MODEL>
5

>  <REMARK>
 VINA RESULT:      -7.7      3.113      8.524
  Name = 
  6 active torsions:
  status: ('A' for Active; 'I' for Inactive)
    1  A    between atoms: N_3  and  C_13
    2  A    between atoms: C_7  and  N_16
    3  A    between atoms: C_11  and  C_27
    4  A    between atoms: C_13  and  C_21
    5  A    between atoms: C_15  and  C_20
    6  A    between atoms: N_16  and  C_21
                            x       y       z     vdW  Elec       q    Type
                         _______ _______ _______ _____ _____    ______ ____

>  <TORSDO>
F 6

$$$$
=
 OpenBabel11052411173D

 27 29  0  0  1  0  0  0  0  0999 V2000
  160.5530  210.4930  153.0430 C   0  0  0  0  0  0  0  0  0  0  0  0
  161.0150  205.9720  153.1290 C   0  0  0  0  0  0  0  0  0  0  0  0
  160.4330  211.8740  152.5090 C   0  0  0  0  0  1  0  0  0  0  0  0
  160.5140  210.2970  154.3370 N   0  0  0  0  0  0  0  0  0  0  0  0
  161.1630  204.6070  152.9000 C   0  0  0  0  0  3  0  0  0  0  0  0
  161.0750  206.4820  150.7570 C   0  0  0  0  0  0  0  0  0  0  0  0
  160.6200  208.9900  155.0190 C   0  0  2  0  0  3  0  0  0  0  0  0
  160.7130  209.3950  152.1290 N   0  0  0  0  0  2  0  0  0  0  0  0
  161.2690  204.1660  151.5640 C   0  0  0  0  0  0  0  0  0  0  0  0
  160.9740  206.8760  152.0900 C   0  0  0  0  0  0  0  0  0  0  0  0
  161.2240  205.1030  150.5030 C   0  0  0  0  0  3  0  0  0  0  0  0
  161.7500  209.0100  155.9310 N   0  0  0  0  0  1  0  0  0  0  0  0
  160.8990  206.5810  154.2940 O   0  0  0  0  0  0  0  0  0  0  0  0
  160.7830  207.8710  154.0390 C   0  0  0  0  0  0  0  0  0  0  0  0
  160.8240  208.0970  152.6930 C   0  0  0  0  0  0  0  0  0  0  0  0
  161.4260  202.7310  151.2780 C   0  0  0  0  0  0  0  0  0  0  0  0
  160.7370  202.1470  150.2200 O   0  0  0  0  0  0  0  0  0  0  0  0
  162.1840  202.0170  151.9880 O   0  0  0  0  0  1  0  0  0  0  0  0
  161.0260  207.4460  149.7010 N   0  0  0  0  0  2  0  0  0  0  0  0
  162.0600  207.5730  148.6820 C   0  0  0  0  0  2  0  0  0  0  0  0
  160.2140  206.3440  147.4940 C   0  0  0  0  0  1  0  0  0  0  0  0
  161.6400  206.8610  147.4020 C   0  0  2  0  0  3  0  0  0  0  0  0
  162.5680  205.7810  147.0740 N   0  0  0  0  0  2  0  0  0  0  0  0
  162.6890  205.1370  145.7980 C   0  0  0  0  0  0  0  0  0  0  0  0
  163.5640  204.1990  145.6490 N   0  0  0  0  0  2  0  0  0  0  0  0
  160.6980  204.4730  144.4970 C   0  0  0  0  0  1  0  0  0  0  0  0
  161.8050  205.4980  144.6500 C   0  0  0  0  0  2  0  0  0  0  0  0
  1  4  2  0  0  0  0
  2 13  1  0  0  0  0
  3  1  1  0  0  0  0
  4  7  1  0  0  0  0
  5  2  1  0  0  0  0
  6 10  1  0  0  0  0
  7 12  1  1  0  0  0
  8 15  1  0  0  0  0
  8  1  1  0  0  0  0
  9  5  2  0  0  0  0
 10 15  1  0  0  0  0
 10  2  2  0  0  0  0
 11  6  2  0  0  0  0
 11  9  1  0  0  0  0
 14 13  1  0  0  0  0
 14  7  1  0  0  0  0
 15 14  2  0  0  0  0
 16  9  1  0  0  0  0
 16 18  1  0  0  0  0
 17 16  2  0  0  0  0
 19  6  1  0  0  0  0
 20 19  1  0  0  0  0
 22 21  1  1  0  0  0
 22 20  1  0  0  0  0
 23 22  1  0  0  0  0
 24 23  1  0  0  0  0
 25 24  2  0  0  0  0
 26 27  1  0  0  0  0
 27 24  1  0  0  0  0
M  END
>  <MODEL>
6

>  <REMARK>
 VINA RESULT:      -7.7      2.299      3.143
  Name = 
  6 active torsions:
  status: ('A' for Active; 'I' for Inactive)
    1  A    between atoms: N_3  and  C_13
    2  A    between atoms: C_7  and  N_16
    3  A    between atoms: C_11  and  C_27
    4  A    between atoms: C_13  and  C_21
    5  A    between atoms: C_15  and  C_20
    6  A    between atoms: N_16  and  C_21
                            x       y       z     vdW  Elec       q    Type
                         _______ _______ _______ _____ _____    ______ ____

>  <TORSDO>
F 6

$$$$
=
 OpenBabel11052411173D

 27 29  0  0  1  0  0  0  0  0999 V2000
  161.2750  204.2390  146.5450 C   0  0  0  0  0  0  0  0  0  0  0  0
  161.1420  204.8470  151.0470 C   0  0  0  0  0  0  0  0  0  0  0  0
  161.3210  204.5560  145.0950 C   0  0  0  0  0  1  0  0  0  0  0  0
  161.2600  202.9880  146.9310 N   0  0  0  0  0  0  0  0  0  0  0  0
  161.1080  205.2830  152.3690 C   0  0  0  0  0  3  0  0  0  0  0  0
  161.1710  207.1180  150.1900 C   0  0  0  0  0  0  0  0  0  0  0  0
  161.2140  202.5130  148.3300 C   0  0  2  0  0  3  0  0  0  0  0  0
  161.2450  205.3130  147.5000 N   0  0  0  0  0  2  0  0  0  0  0  0
  161.1050  206.6740  152.6100 C   0  0  0  0  0  0  0  0  0  0  0  0
  161.1720  205.7370  149.9970 C   0  0  0  0  0  0  0  0  0  0  0  0
  161.1370  207.5810  151.5220 C   0  0  0  0  0  3  0  0  0  0  0  0
  160.0390  201.6820  148.5210 N   0  0  0  0  0  1  0  0  0  0  0  0
  161.1510  203.6010  150.6140 O   0  0  0  0  0  0  0  0  0  0  0  0
  161.1860  203.6550  149.2960 C   0  0  0  0  0  0  0  0  0  0  0  0
  161.2000  204.9530  148.8730 C   0  0  0  0  0  0  0  0  0  0  0  0
  161.0700  207.1770  153.9920 C   0  0  0  0  0  0  0  0  0  0  0  0
  161.2370  208.5330  154.2490 O   0  0  0  0  0  0  0  0  0  0  0  0
  160.8880  206.3850  154.9550 O   0  0  0  0  0  1  0  0  0  0  0  0
  161.2050  208.0160  149.0770 N   0  0  0  0  0  2  0  0  0  0  0  0
  162.4140  208.6980  148.6340 C   0  0  0  0  0  2  0  0  0  0  0  0
  161.9580  210.4400  150.3910 C   0  0  0  0  0  1  0  0  0  0  0  0
  162.3300  210.1880  148.9380 C   0  0  2  0  0  3  0  0  0  0  0  0
  161.3950  210.8560  148.0360 N   0  0  0  0  0  2  0  0  0  0  0  0
  161.5380  212.1830  147.5100 C   0  0  0  0  0  0  0  0  0  0  0  0
  160.6340  212.6420  146.7110 N   0  0  0  0  0  2  0  0  0  0  0  0
  162.4920  214.4530  147.3290 C   0  0  0  0  0  1  0  0  0  0  0  0
  162.6850  213.0580  147.8930 C   0  0  0  0  0  2  0  0  0  0  0  0
  1  4  2  0  0  0  0
  1  8  1  0  0  0  0
  2  5  1  0  0  0  0
  3  1  1  0  0  0  0
  4  7  1  0  0  0  0
  5  9  2  0  0  0  0
  6 11  2  0  0  0  0
  7 12  1  6  0  0  0
  7 14  1  0  0  0  0
  8 15  1  0  0  0  0
  9 16  1  0  0  0  0
 10  6  1  0  0  0  0
 10  2  2  0  0  0  0
 11  9  1  0  0  0  0
 13  2  1  0  0  0  0
 14 13  1  0  0  0  0
 15 14  2  0  0  0  0
 15 10  1  0  0  0  0
 16 17  2  0  0  0  0
 16 18  1  0  0  0  0
 19  6  1  0  0  0  0
 20 22  1  0  0  0  0
 20 19  1  0  0  0  0
 22 21  1  1  0  0  0
 23 22  1  0  0  0  0
 24 27  1  0  0  0  0
 24 23  1  0  0  0  0
 25 24  2  0  0  0  0
 26 27  1  0  0  0  0
M  END
>  <MODEL>
7

>  <REMARK>
 VINA RESULT:      -7.7      1.918      7.020
  Name = 
  6 active torsions:
  status: ('A' for Active; 'I' for Inactive)
    1  A    between atoms: N_3  and  C_13
    2  A    between atoms: C_7  and  N_16
    3  A    between atoms: C_11  and  C_27
    4  A    between atoms: C_13  and  C_21
    5  A    between atoms: C_15  and  C_20
    6  A    between atoms: N_16  and  C_21
                            x       y       z     vdW  Elec       q    Type
                         _______ _______ _______ _____ _____    ______ ____

>  <TORSDO>
F 6

$$$$
=
 OpenBabel11052411173D

 27 29  0  0  1  0  0  0  0  0999 V2000
  161.1830  205.4030  152.7680 C   0  0  0  0  0  0  0  0  0  0  0  0
  161.2050  204.1010  148.4130 C   0  0  0  0  0  0  0  0  0  0  0  0
  161.1720  206.2910  153.9590 C   0  0  0  0  0  1  0  0  0  0  0  0
  161.1880  204.1040  152.9310 N   0  0  0  0  0  0  0  0  0  0  0  0
  161.2070  203.9540  147.0290 C   0  0  0  0  0  3  0  0  0  0  0  0
  161.1980  206.5240  148.2590 C   0  0  0  0  0  0  0  0  0  0  0  0
  161.1990  203.0950  151.8520 C   0  0  2  0  0  3  0  0  0  0  0  0
  161.1890  205.9880  151.4550 N   0  0  0  0  0  2  0  0  0  0  0  0
  161.2040  205.1220  146.2370 C   0  0  0  0  0  0  0  0  0  0  0  0
  161.2010  205.3460  149.0040 C   0  0  0  0  0  0  0  0  0  0  0  0
  161.1990  206.3960  146.8550 C   0  0  0  0  0  3  0  0  0  0  0  0
  162.3680  202.2460  151.9950 N   0  0  0  0  0  1  0  0  0  0  0  0
  161.2060  203.1440  149.3220 O   0  0  0  0  0  0  0  0  0  0  0  0
  161.2040  203.7370  150.5010 C   0  0  0  0  0  0  0  0  0  0  0  0
  161.2000  205.0940  150.3520 C   0  0  0  0  0  0  0  0  0  0  0  0
  161.2050  205.0100  144.7690 C   0  0  0  0  0  0  0  0  0  0  0  0
  160.3870  204.0820  144.1360 O   0  0  0  0  0  1  0  0  0  0  0  0
  161.9480  205.7530  144.0740 O   0  0  0  0  0  0  0  0  0  0  0  0
  161.1920  207.8010  148.9040 N   0  0  0  0  0  2  0  0  0  0  0  0
  162.3150  208.7270  148.8580 C   0  0  0  0  0  2  0  0  0  0  0  0
  162.3380  211.2370  148.6930 C   0  0  0  0  0  1  0  0  0  0  0  0
  161.9560  210.0380  149.5460 C   0  0  2  0  0  3  0  0  0  0  0  0
  162.5700  210.1210  150.8690 N   0  0  0  0  0  2  0  0  0  0  0  0
  161.9100  209.8730  152.1180 C   0  0  0  0  0  0  0  0  0  0  0  0
  162.5830  209.9740  153.2150 N   0  0  0  0  0  2  0  0  0  0  0  0
  159.6750  210.7020  152.7610 C   0  0  0  0  0  1  0  0  0  0  0  0
  160.4570  209.5380  152.1840 C   0  0  0  0  0  2  0  0  0  0  0  0
  1  4  2  0  0  0  0
  1  3  1  0  0  0  0
  2 10  1  0  0  0  0
  2 13  1  0  0  0  0
  5  2  2  0  0  0  0
  6 19  1  0  0  0  0
  6 10  2  0  0  0  0
  7 12  1  1  0  0  0
  7  4  1  0  0  0  0
  8  1  1  0  0  0  0
  9 11  2  0  0  0  0
  9  5  1  0  0  0  0
 10 15  1  0  0  0  0
 11  6  1  0  0  0  0
 13 14  1  0  0  0  0
 14  7  1  0  0  0  0
 15 14  2  0  0  0  0
 15  8  1  0  0  0  0
 16  9  1  0  0  0  0
 17 16  1  0  0  0  0
 18 16  2  0  0  0  0
 20 19  1  0  0  0  0
 20 22  1  0  0  0  0
 22 21  1  6  0  0  0
 22 23  1  0  0  0  0
 23 24  1  0  0  0  0
 24 27  1  0  0  0  0
 24 25  2  0  0  0  0
 27 26  1  0  0  0  0
M  END
>  <MODEL>
8

>  <REMARK>
 VINA RESULT:      -7.6      2.831      6.806
  Name = 
  6 active torsions:
  status: ('A' for Active; 'I' for Inactive)
    1  A    between atoms: N_3  and  C_13
    2  A    between atoms: C_7  and  N_16
    3  A    between atoms: C_11  and  C_27
    4  A    between atoms: C_13  and  C_21
    5  A    between atoms: C_15  and  C_20
    6  A    between atoms: N_16  and  C_21
                            x       y       z     vdW  Elec       q    Type
                         _______ _______ _______ _____ _____    ______ ____

>  <TORSDO>
F 6

$$$$
=
 OpenBabel11052411173D

 27 29  0  0  1  0  0  0  0  0999 V2000
  161.0270  205.4870  152.8910 C   0  0  0  0  0  0  0  0  0  0  0  0
  161.1030  204.2540  148.5170 C   0  0  0  0  0  0  0  0  0  0  0  0
  161.0400  206.3550  154.0970 C   0  0  0  0  0  1  0  0  0  0  0  0
  160.9340  204.1890  153.0310 N   0  0  0  0  0  0  0  0  0  0  0  0
  161.1420  204.1290  147.1310 C   0  0  0  0  0  3  0  0  0  0  0  0
  161.2760  206.6730  148.4050 C   0  0  0  0  0  0  0  0  0  0  0  0
  160.9090  203.1980  151.9350 C   0  0  2  0  0  3  0  0  0  0  0  0
  161.1200  206.0910  151.5890 N   0  0  0  0  0  2  0  0  0  0  0  0
  161.2490  205.3060  146.3600 C   0  0  0  0  0  0  0  0  0  0  0  0
  161.1690  205.4870  149.1290 C   0  0  0  0  0  0  0  0  0  0  0  0
  161.3150  206.5680  147.0000 C   0  0  0  0  0  3  0  0  0  0  0  0
  162.0090  202.2650  152.1010 N   0  0  0  0  0  1  0  0  0  0  0  0
  161.0050  203.2860  149.4080 O   0  0  0  0  0  0  0  0  0  0  0  0
  161.0060  203.8590  150.5960 C   0  0  0  0  0  0  0  0  0  0  0  0
  161.1050  205.2160  150.4710 C   0  0  0  0  0  0  0  0  0  0  0  0
  161.2930  205.2170  144.8920 C   0  0  0  0  0  0  0  0  0  0  0  0
  160.4020  204.3940  144.2120 O   0  0  0  0  0  0  0  0  0  0  0  0
  162.1370  205.8850  144.2370 O   0  0  0  0  0  1  0  0  0  0  0  0
  161.3390  207.9380  149.0730 N   0  0  0  0  0  2  0  0  0  0  0  0
  161.9790  209.1140  148.5000 C   0  0  0  0  0  2  0  0  0  0  0  0
  162.2030  209.5000  150.9760 C   0  0  0  0  0  1  0  0  0  0  0  0
  162.3320  210.1170  149.5920 C   0  0  2  0  0  3  0  0  0  0  0  0
  161.5160  211.3230  149.4800 N   0  0  0  0  0  2  0  0  0  0  0  0
  161.7860  212.4430  148.6240 C   0  0  0  0  0  0  0  0  0  0  0  0
  160.9690  213.4420  148.6200 N   0  0  0  0  0  2  0  0  0  0  0  0
  162.6710  213.0950  146.4130 C   0  0  0  0  0  1  0  0  0  0  0  0
  163.0070  212.4970  147.7660 C   0  0  0  0  0  2  0  0  0  0  0  0
  1  4  2  0  0  0  0
  1  3  1  0  0  0  0
  2 10  1  0  0  0  0
  2 13  1  0  0  0  0
  5  2  2  0  0  0  0
  6 19  1  0  0  0  0
  6 10  2  0  0  0  0
  7 12  1  1  0  0  0
  7  4  1  0  0  0  0
  8  1  1  0  0  0  0
  9 11  2  0  0  0  0
  9  5  1  0  0  0  0
 10 15  1  0  0  0  0
 11  6  1  0  0  0  0
 13 14  1  0  0  0  0
 14  7  1  0  0  0  0
 15 14  2  0  0  0  0
 15  8  1  0  0  0  0
 16  9  1  0  0  0  0
 17 16  2  0  0  0  0
 18 16  1  0  0  0  0
 20 19  1  0  0  0  0
 20 22  1  0  0  0  0
 22 21  1  1  0  0  0
 23 22  1  0  0  0  0
 24 23  1  0  0  0  0
 25 24  2  0  0  0  0
 26 27  1  0  0  0  0
 27 24  1  0  0  0  0
M  END
>  <MODEL>
9

>  <REMARK>
 VINA RESULT:      -7.5      2.944      7.014
  Name = 
  6 active torsions:
  status: ('A' for Active; 'I' for Inactive)
    1  A    between atoms: N_3  and  C_13
    2  A    between atoms: C_7  and  N_16
    3  A    between atoms: C_11  and  C_27
    4  A    between atoms: C_13  and  C_21
    5  A    between atoms: C_15  and  C_20
    6  A    between atoms: N_16  and  C_21
                            x       y       z     vdW  Elec       q    Type
                         _______ _______ _______ _____ _____    ______ ____

>  <TORSDO>
F 6

$$$$
