=
 OpenBabel11052409363D

 44 47  0  0  1  0  0  0  0  0999 V2000
  161.2670  206.8850  152.5870 C   0  0  2  0  0  3  0  0  0  0  0  0
  160.7570  209.2970  152.1640 C   0  0  0  0  0  3  0  0  0  0  0  0
  162.0950  210.4900  150.4260 C   0  0  2  0  0  3  0  0  0  0  0  0
  161.9560  209.2250  149.5770 C   0  0  0  0  0  2  0  0  0  0  0  0
  161.0270  207.9570  151.5220 C   0  0  1  0  0  3  0  0  0  0  0  0
  162.1470  208.0080  150.4730 C   0  0  0  0  0  2  0  0  0  0  0  0
  161.2010  210.4510  151.6400 C   0  0  0  0  0  3  0  0  0  0  0  0
  162.4160  211.8930  148.5490 N   0  0  0  0  0  0  0  0  0  0  0  0
  161.7950  211.6720  149.6350 N   0  0  0  0  0  0  0  0  0  0  0  0
  162.1230  213.0340  147.7940 N   0  0  0  0  0  2  0  0  0  0  0  0
  162.3130  213.0280  146.3530 C   0  0  0  0  0  2  0  0  0  0  0  0
  160.9950  212.7460  145.6400 C   0  0  0  0  0  2  0  0  0  0  0  0
  161.0720  213.1140  144.1640 C   0  0  1  0  0  3  0  0  0  0  0  0
  161.9900  212.1960  142.3280 C   0  0  0  0  0  2  0  0  0  0  0  0
  160.5760  211.6800  142.3250 C   0  0  2  0  0  3  0  0  0  0  0  0
  159.9700  211.7670  140.9270 C   0  0  0  0  0  1  0  0  0  0  0  0
  162.2840  212.6390  143.6280 O   0  0  0  0  0  0  0  0  0  0  0  0
  159.9020  212.5160  143.3950 C   0  0  2  0  0  3  0  0  0  0  0  0
  159.0320  213.6570  142.8710 C   0  0  0  0  0  2  0  0  0  0  0  0
  158.2400  214.2090  143.9560 N   0  0  0  0  0  1  0  0  0  0  0  0
  159.8550  206.9170  155.0790 O   0  0  0  0  0  0  0  0  0  0  0  0
  161.7460  207.4850  153.8270 N   0  0  0  0  0  2  0  0  0  0  0  0
  160.9930  207.4580  155.0400 C   0  0  0  0  0  0  0  0  0  0  0  0
  161.5710  208.0520  156.2740 C   0  0  0  0  0  2  0  0  0  0  0  0
  160.4710  208.6960  157.0980 C   0  0  0  0  0  2  0  0  0  0  0  0
  160.7070  210.1930  157.2080 C   0  0  2  0  0  3  0  0  0  0  0  0
  159.6640  210.9040  156.4860 C   0  0  0  0  0  0  0  0  0  0  0  0
  158.4810  211.0670  156.8890 O   0  0  0  0  0  0  0  0  0  0  0  0
  161.9120  210.6040  156.3510 C   0  0  0  0  0  2  0  0  0  0  0  0
  160.1740  211.4560  155.2970 N   0  0  0  0  0  0  0  0  0  0  0  0
  161.4620  211.0730  155.0870 O   0  0  0  0  0  0  0  0  0  0  0  0
  159.6820  212.7310  154.7980 C   0  0  0  0  0  2  0  0  0  0  0  0
  158.4240  212.4530  153.5170 S   0  0  0  0  0  1  0  0  0  0  0  0
  162.2550  205.8300  152.0950 C   0  0  0  0  0  2  0  0  0  0  0  0
  161.6080  204.4560  152.0590 C   0  0  0  0  0  2  0  0  0  0  0  0
  160.4840  204.4300  151.0360 C   0  0  0  0  0  2  0  0  0  0  0  0
  160.7000  202.0580  150.3100 C   0  0  0  0  0  3  0  0  0  0  0  0
  160.7770  203.4150  149.9770 C   0  0  0  0  0  0  0  0  0  0  0  0
  161.3310  202.8020  147.6930 C   0  0  0  0  0  3  0  0  0  0  0  0
  161.0930  203.7950  148.6550 C   0  0  0  0  0  0  0  0  0  0  0  0
  160.9410  201.0780  149.3440 C   0  0  0  0  0  3  0  0  0  0  0  0
  161.2580  201.4500  148.0350 C   0  0  0  0  0  3  0  0  0  0  0  0
  161.9060  205.6010  147.3260 O   0  0  0  0  0  0  0  0  0  0  0  0
  161.1760  205.2150  148.2770 C   0  0  0  0  0  3  0  0  0  0  0  0
  1 34  1  6  0  0  0
  1 22  1  0  0  0  0
  3  9  1  6  0  0  0
  3  7  1  0  0  0  0
  4  3  1  0  0  0  0
  4  6  1  0  0  0  0
  5  2  1  0  0  0  0
  5  1  1  1  0  0  0
  6  5  1  0  0  0  0
  7  2  2  0  0  0  0
  8  9  2  0  0  0  0
 10  8  1  0  0  0  0
 11 10  1  0  0  0  0
 12 11  1  0  0  0  0
 13 12  1  1  0  0  0
 14 17  1  0  0  0  0
 15 16  1  6  0  0  0
 15 14  1  0  0  0  0
 15 18  1  0  0  0  0
 17 13  1  0  0  0  0
 18 19  1  6  0  0  0
 18 13  1  0  0  0  0
 19 20  1  0  0  0  0
 22 23  1  0  0  0  0
 23 21  2  0  0  0  0
 23 24  1  0  0  0  0
 24 25  1  0  0  0  0
 26 25  1  6  0  0  0
 27 28  2  0  0  0  0
 27 26  1  0  0  0  0
 29 26  1  0  0  0  0
 30 27  1  0  0  0  0
 31 30  1  0  0  0  0
 31 29  1  0  0  0  0
 32 30  1  0  0  0  0
 33 32  1  0  0  0  0
 35 34  1  0  0  0  0
 36 35  1  0  0  0  0
 38 37  1  0  0  0  0
 38 36  1  0  0  0  0
 39 42  2  0  0  0  0
 39 40  1  0  0  0  0
 40 38  2  0  0  0  0
 41 37  2  0  0  0  0
 42 41  1  0  0  0  0
 43 44  2  0  0  0  0
 44 40  1  0  0  0  0
M  END
>  <MODEL>
1

>  <REMARK>
 VINA RESULT:      -8.0      0.000      0.000
  Name = 
  17 active torsions:
  status: ('A' for Active; 'I' for Inactive)
    1  A    between atoms: C_1  and  C_20
    2  A    between atoms: C_2  and  C_11
    3  A    between atoms: C_3  and  C_20
    4  A    between atoms: C_3  and  N_24
    5  A    between atoms: N_7  and  N_24
    6  A    between atoms: C_9  and  N_29
    7  A    between atoms: C_10  and  N_15
    8  A    between atoms: C_10  and  C_37
    9  A    between atoms: C_10  and  C_39
   10  A    between atoms: C_11  and  C_31
   11  A    between atoms: C_18  and  N_34
   12  A    between atoms: C_19  and  C_36
   13  A    between atoms: C_23  and  C_33
   14  A    between atoms: C_30  and  C_35
   15  A    between atoms: C_31  and  C_44
   16  A    between atoms: C_32  and  C_33
   17  A    between atoms: C_32  and  C_37
                            x       y       z     vdW  Elec       q    Type
                         _______ _______ _______ _____ _____    ______ ____

>  <TORSDO>
F 17

$$$$
=
 OpenBabel11052409363D

 44 47  0  0  1  0  0  0  0  0999 V2000
  161.0450  209.8920  152.0940 C   0  0  2  0  0  3  0  0  0  0  0  0
  161.3090  207.7730  150.7910 C   0  0  0  0  0  3  0  0  0  0  0  0
  162.0660  205.7330  152.0150 C   0  0  2  0  0  3  0  0  0  0  0  0
  161.1200  206.1620  153.1370 C   0  0  0  0  0  2  0  0  0  0  0  0
  160.7630  208.3890  152.0570 C   0  0  1  0  0  3  0  0  0  0  0  0
  161.2350  207.6680  153.3290 C   0  0  0  0  0  2  0  0  0  0  0  0
  161.8570  206.5480  150.7630 C   0  0  0  0  0  3  0  0  0  0  0  0
  160.8740  203.9190  151.0750 N   0  0  0  0  0  0  0  0  0  0  0  0
  161.8950  204.3210  151.7140 N   0  0  0  0  0  0  0  0  0  0  0  0
  160.7150  202.5570  150.7920 N   0  0  0  0  0  2  0  0  0  0  0  0
  160.5860  202.1040  149.4170 C   0  0  0  0  0  2  0  0  0  0  0  0
  161.5930  202.8160  148.5220 C   0  0  0  0  0  2  0  0  0  0  0  0
  160.8960  203.7100  147.5030 C   0  0  1  0  0  3  0  0  0  0  0  0
  161.2050  205.7980  146.7270 C   0  0  0  0  0  2  0  0  0  0  0  0
  161.9480  204.9320  145.7470 C   0  0  2  0  0  3  0  0  0  0  0  0
  161.6600  205.3650  144.3120 C   0  0  0  0  0  1  0  0  0  0  0  0
  161.0180  205.0540  147.9040 O   0  0  0  0  0  0  0  0  0  0  0  0
  161.5050  203.5310  146.1200 C   0  0  2  0  0  3  0  0  0  0  0  0
  160.4480  202.9210  145.2000 C   0  0  0  0  0  2  0  0  0  0  0  0
  160.4360  201.4770  145.3550 N   0  0  0  0  0  1  0  0  0  0  0  0
  160.4810  212.1790  150.4650 O   0  0  0  0  0  0  0  0  0  0  0  0
  161.8040  210.3050  150.9180 N   0  0  0  0  0  2  0  0  0  0  0  0
  161.4720  211.4650  150.1540 C   0  0  0  0  0  0  0  0  0  0  0  0
  162.3220  211.8450  148.9950 C   0  0  0  0  0  2  0  0  0  0  0  0
  161.5620  211.6120  147.7020 C   0  0  0  0  0  2  0  0  0  0  0  0
  161.2260  212.9400  147.0460 C   0  0  2  0  0  3  0  0  0  0  0  0
  160.2380  212.7300  145.9980 C   0  0  0  0  0  0  0  0  0  0  0  0
  159.0110  212.5180  146.1870 O   0  0  0  0  0  0  0  0  0  0  0  0
  162.3980  213.4140  146.1760 C   0  0  0  0  0  2  0  0  0  0  0  0
  160.8290  212.8660  144.7290 N   0  0  0  0  0  0  0  0  0  0  0  0
  162.1750  213.0340  144.8250 O   0  0  0  0  0  0  0  0  0  0  0  0
  160.0810  213.4370  143.6190 C   0  0  0  0  0  2  0  0  0  0  0  0
  161.0630  213.3410  142.0940 S   0  0  0  0  0  1  0  0  0  0  0  0
  161.7930  210.2820  153.3670 C   0  0  0  0  0  2  0  0  0  0  0  0
  160.8550  210.9360  154.3670 C   0  0  0  0  0  2  0  0  0  0  0  0
  160.0190  212.0060  153.6830 C   0  0  0  0  0  2  0  0  0  0  0  0
  158.4070  211.3270  155.4550 C   0  0  0  0  0  3  0  0  0  0  0  0
  158.6460  212.0430  154.2770 C   0  0  0  0  0  0  0  0  0  0  0  0
  156.3490  212.8290  154.3120 C   0  0  0  0  0  3  0  0  0  0  0  0
  157.6090  212.8060  153.6980 C   0  0  0  0  0  0  0  0  0  0  0  0
  157.1470  211.3560  156.0560 C   0  0  0  0  0  3  0  0  0  0  0  0
  156.1170  212.1060  155.4850 C   0  0  0  0  0  3  0  0  0  0  0  0
  157.0240  214.4530  152.0760 O   0  0  0  0  0  0  0  0  0  0  0  0
  157.8370  213.5720  152.4620 C   0  0  0  0  0  3  0  0  0  0  0  0
  1 34  1  1  0  0  0
  2  5  1  0  0  0  0
  3  9  1  6  0  0  0
  3  4  1  0  0  0  0
  4  6  1  0  0  0  0
  5  1  1  1  0  0  0
  5  6  1  0  0  0  0
  7  2  2  0  0  0  0
  7  3  1  0  0  0  0
  8  9  2  0  0  0  0
 10  8  1  0  0  0  0
 11 10  1  0  0  0  0
 12 11  1  0  0  0  0
 13 17  1  0  0  0  0
 13 12  1  1  0  0  0
 14 17  1  0  0  0  0
 15 16  1  6  0  0  0
 15 18  1  0  0  0  0
 15 14  1  0  0  0  0
 18 19  1  6  0  0  0
 18 13  1  0  0  0  0
 19 20  1  0  0  0  0
 22  1  1  0  0  0  0
 23 21  2  0  0  0  0
 23 22  1  0  0  0  0
 24 23  1  0  0  0  0
 25 24  1  0  0  0  0
 26 25  1  6  0  0  0
 27 28  2  0  0  0  0
 27 26  1  0  0  0  0
 29 26  1  0  0  0  0
 30 31  1  0  0  0  0
 30 27  1  0  0  0  0
 31 29  1  0  0  0  0
 32 30  1  0  0  0  0
 33 32  1  0  0  0  0
 34 35  1  0  0  0  0
 36 38  1  0  0  0  0
 36 35  1  0  0  0  0
 37 41  1  0  0  0  0
 38 37  2  0  0  0  0
 39 42  1  0  0  0  0
 40 38  1  0  0  0  0
 40 39  2  0  0  0  0
 42 41  2  0  0  0  0
 43 44  2  0  0  0  0
 44 40  1  0  0  0  0
M  END
>  <MODEL>
2

>  <REMARK>
 VINA RESULT:      -6.9      3.471      9.228
  Name = 
  17 active torsions:
  status: ('A' for Active; 'I' for Inactive)
    1  A    between atoms: C_1  and  C_20
    2  A    between atoms: C_2  and  C_11
    3  A    between atoms: C_3  and  C_20
    4  A    between atoms: C_3  and  N_24
    5  A    between atoms: N_7  and  N_24
    6  A    between atoms: C_9  and  N_29
    7  A    between atoms: C_10  and  N_15
    8  A    between atoms: C_10  and  C_37
    9  A    between atoms: C_10  and  C_39
   10  A    between atoms: C_11  and  C_31
   11  A    between atoms: C_18  and  N_34
   12  A    between atoms: C_19  and  C_36
   13  A    between atoms: C_23  and  C_33
   14  A    between atoms: C_30  and  C_35
   15  A    between atoms: C_31  and  C_44
   16  A    between atoms: C_32  and  C_33
   17  A    between atoms: C_32  and  C_37
                            x       y       z     vdW  Elec       q    Type
                         _______ _______ _______ _____ _____    ______ ____

>  <TORSDO>
F 17

$$$$
=
 OpenBabel11052409363D

 44 47  0  0  1  0  0  0  0  0999 V2000
  161.7310  206.2490  148.9780 C   0  0  2  0  0  3  0  0  0  0  0  0
  162.6810  205.4270  146.8150 C   0  0  0  0  0  3  0  0  0  0  0  0
  161.1090  205.0500  144.9120 C   0  0  2  0  0  3  0  0  0  0  0  0
  160.4310  206.3570  145.3290 C   0  0  0  0  0  2  0  0  0  0  0  0
  161.7440  206.4210  147.4570 C   0  0  1  0  0  3  0  0  0  0  0  0
  160.3340  206.3980  146.8490 C   0  0  0  0  0  2  0  0  0  0  0  0
  162.4150  204.8410  145.6360 C   0  0  0  0  0  3  0  0  0  0  0  0
  161.6100  206.1000  142.8530 N   0  0  0  0  0  0  0  0  0  0  0  0
  161.3350  205.0290  143.4770 N   0  0  0  0  0  0  0  0  0  0  0  0
  161.8240  206.0710  141.4700 N   0  0  0  0  0  2  0  0  0  0  0  0
  161.9480  207.3110  140.7200 C   0  0  0  0  0  2  0  0  0  0  0  0
  162.1180  207.0220  139.2340 C   0  0  0  0  0  2  0  0  0  0  0  0
  161.6250  208.1850  138.3820 C   0  0  1  0  0  3  0  0  0  0  0  0
  159.6500  208.8030  137.5020 C   0  0  0  0  0  2  0  0  0  0  0  0
  159.7100  209.5370  138.8140 C   0  0  2  0  0  3  0  0  0  0  0  0
  159.2620  210.9860  138.6460 C   0  0  0  0  0  1  0  0  0  0  0  0
  160.5710  207.7440  137.5590 O   0  0  0  0  0  0  0  0  0  0  0  0
  161.1450  209.3330  139.2580 C   0  0  2  0  0  3  0  0  0  0  0  0
  162.0670  210.5310  139.0360 C   0  0  0  0  0  2  0  0  0  0  0  0
  162.7310  210.8770  140.2800 N   0  0  0  0  0  1  0  0  0  0  0  0
  162.1720  204.7060  151.3490 O   0  0  0  0  0  0  0  0  0  0  0  0
  160.9970  205.0480  149.3570 N   0  0  0  0  0  2  0  0  0  0  0  0
  161.2630  204.3290  150.5620 C   0  0  0  0  0  0  0  0  0  0  0  0
  160.4390  203.1380  150.9000 C   0  0  0  0  0  2  0  0  0  0  0  0
  161.2480  201.8730  150.6740 C   0  0  0  0  0  2  0  0  0  0  0  0
  160.5340  200.9650  149.6880 C   0  0  2  0  0  3  0  0  0  0  0  0
  161.3550  200.7960  148.4990 C   0  0  0  0  0  0  0  0  0  0  0  0
  162.3810  200.0680  148.4200 O   0  0  0  0  0  0  0  0  0  0  0  0
  159.3460  201.6990  149.0540 C   0  0  0  0  0  2  0  0  0  0  0  0
  160.8070  201.5060  147.4160 N   0  0  0  0  0  0  0  0  0  0  0  0
  159.7360  202.2490  147.8020 O   0  0  0  0  0  0  0  0  0  0  0  0
  160.9070  200.9870  146.0600 C   0  0  0  0  0  2  0  0  0  0  0  0
  159.6950  201.8120  144.9880 S   0  0  0  0  0  1  0  0  0  0  0  0
  161.1310  207.4730  149.6660 C   0  0  0  0  0  2  0  0  0  0  0  0
  162.0920  208.0410  150.6970 C   0  0  0  0  0  2  0  0  0  0  0  0
  161.4190  209.1500  151.4900 C   0  0  0  0  0  2  0  0  0  0  0  0
  161.0450  207.2820  153.0930 C   0  0  0  0  0  3  0  0  0  0  0  0
  161.0700  208.6620  152.8600 C   0  0  0  0  0  0  0  0  0  0  0  0
  160.5080  209.0460  155.1910 C   0  0  0  0  0  3  0  0  0  0  0  0
  160.8020  209.5570  153.9180 C   0  0  0  0  0  0  0  0  0  0  0  0
  160.7480  206.7860  154.3650 C   0  0  0  0  0  3  0  0  0  0  0  0
  160.4790  207.6680  155.4140 C   0  0  0  0  0  3  0  0  0  0  0  0
  160.4850  211.8180  154.6050 O   0  0  0  0  0  0  0  0  0  0  0  0
  160.8270  211.0110  153.7000 C   0  0  0  0  0  3  0  0  0  0  0  0
  1 22  1  0  0  0  0
  1 34  1  1  0  0  0
  2  5  1  0  0  0  0
  3  9  1  6  0  0  0
  3  4  1  0  0  0  0
  3  7  1  0  0  0  0
  4  6  1  0  0  0  0
  5  1  1  1  0  0  0
  6  5  1  0  0  0  0
  7  2  2  0  0  0  0
  8  9  2  0  0  0  0
 10  8  1  0  0  0  0
 11 10  1  0  0  0  0
 12 11  1  0  0  0  0
 13 12  1  1  0  0  0
 13 18  1  0  0  0  0
 14 17  1  0  0  0  0
 14 15  1  0  0  0  0
 15 16  1  6  0  0  0
 15 18  1  0  0  0  0
 17 13  1  0  0  0  0
 18 19  1  6  0  0  0
 19 20  1  0  0  0  0
 22 23  1  0  0  0  0
 23 24  1  0  0  0  0
 23 21  2  0  0  0  0
 25 24  1  0  0  0  0
 26 25  1  1  0  0  0
 27 26  1  0  0  0  0
 28 27  2  0  0  0  0
 29 26  1  0  0  0  0
 30 31  1  0  0  0  0
 30 27  1  0  0  0  0
 31 29  1  0  0  0  0
 32 30  1  0  0  0  0
 33 32  1  0  0  0  0
 34 35  1  0  0  0  0
 35 36  1  0  0  0  0
 36 38  1  0  0  0  0
 37 41  1  0  0  0  0
 38 37  2  0  0  0  0
 38 40  1  0  0  0  0
 39 42  1  0  0  0  0
 40 39  2  0  0  0  0
 41 42  2  0  0  0  0
 44 40  1  0  0  0  0
 44 43  2  0  0  0  0
M  END
>  <MODEL>
3

>  <REMARK>
 VINA RESULT:      -6.8      4.509      8.384
  Name = 
  17 active torsions:
  status: ('A' for Active; 'I' for Inactive)
    1  A    between atoms: C_1  and  C_20
    2  A    between atoms: C_2  and  C_11
    3  A    between atoms: C_3  and  C_20
    4  A    between atoms: C_3  and  N_24
    5  A    between atoms: N_7  and  N_24
    6  A    between atoms: C_9  and  N_29
    7  A    between atoms: C_10  and  N_15
    8  A    between atoms: C_10  and  C_37
    9  A    between atoms: C_10  and  C_39
   10  A    between atoms: C_11  and  C_31
   11  A    between atoms: C_18  and  N_34
   12  A    between atoms: C_19  and  C_36
   13  A    between atoms: C_23  and  C_33
   14  A    between atoms: C_30  and  C_35
   15  A    between atoms: C_31  and  C_44
   16  A    between atoms: C_32  and  C_33
   17  A    between atoms: C_32  and  C_37
                            x       y       z     vdW  Elec       q    Type
                         _______ _______ _______ _____ _____    ______ ____

>  <TORSDO>
F 17

$$$$
=
 OpenBabel11052409363D

 44 47  0  0  1  0  0  0  0  0999 V2000
  161.6650  207.8620  152.4830 C   0  0  2  0  0  3  0  0  0  0  0  0
  162.3340  208.3070  150.1140 C   0  0  0  0  0  3  0  0  0  0  0  0
  161.6720  210.4910  149.1010 C   0  0  2  0  0  3  0  0  0  0  0  0
  162.0600  211.1280  150.4360 C   0  0  0  0  0  2  0  0  0  0  0  0
  162.2660  208.8790  151.5100 C   0  0  1  0  0  3  0  0  0  0  0  0
  161.5590  210.2410  151.5690 C   0  0  0  0  0  2  0  0  0  0  0  0
  162.1110  209.0500  149.0180 C   0  0  0  0  0  3  0  0  0  0  0  0
  161.6800  212.3030  147.5800 N   0  0  0  0  0  0  0  0  0  0  0  0
  162.2410  211.2410  147.9930 N   0  0  0  0  0  0  0  0  0  0  0  0
  162.2330  213.0180  146.5120 N   0  0  0  0  0  2  0  0  0  0  0  0
  161.4110  213.3830  145.3700 C   0  0  0  0  0  2  0  0  0  0  0  0
  160.1760  212.4940  145.2930 C   0  0  0  0  0  2  0  0  0  0  0  0
  159.5490  212.5320  143.9050 C   0  0  1  0  0  3  0  0  0  0  0  0
  158.5800  214.1080  142.6270 C   0  0  0  0  0  2  0  0  0  0  0  0
  160.0200  214.1180  142.1880 C   0  0  2  0  0  3  0  0  0  0  0  0
  160.1230  214.1710  140.6670 C   0  0  0  0  0  1  0  0  0  0  0  0
  158.5180  213.4910  143.8860 O   0  0  0  0  0  0  0  0  0  0  0  0
  160.5900  212.8790  142.8500 C   0  0  2  0  0  3  0  0  0  0  0  0
  160.7640  211.6750  141.9260 C   0  0  0  0  0  2  0  0  0  0  0  0
  162.1470  211.5830  141.4940 N   0  0  0  0  0  1  0  0  0  0  0  0
  161.4290  205.2540  153.6420 O   0  0  0  0  0  0  0  0  0  0  0  0
  161.2490  206.6550  151.7790 N   0  0  0  0  0  2  0  0  0  0  0  0
  161.1440  205.3830  152.4210 C   0  0  0  0  0  0  0  0  0  0  0  0
  160.6690  204.2080  151.6440 C   0  0  0  0  0  2  0  0  0  0  0  0
  161.5320  204.0270  150.4080 C   0  0  0  0  0  2  0  0  0  0  0  0
  160.6780  204.1230  149.1550 C   0  0  2  0  0  3  0  0  0  0  0  0
  161.2940  203.3520  148.0860 C   0  0  0  0  0  0  0  0  0  0  0  0
  161.2800  202.0950  147.9940 O   0  0  0  0  0  0  0  0  0  0  0  0
  160.7970  205.5220  148.5380 C   0  0  0  0  0  2  0  0  0  0  0  0
  161.8530  204.2070  147.1200 N   0  0  0  0  0  0  0  0  0  0  0  0
  161.7750  205.5090  147.5060 O   0  0  0  0  0  0  0  0  0  0  0  0
  161.8450  203.8430  145.7110 C   0  0  0  0  0  2  0  0  0  0  0  0
  161.0160  205.1360  144.7410 S   0  0  0  0  0  1  0  0  0  0  0  0
  160.4850  208.4600  153.2470 C   0  0  0  0  0  2  0  0  0  0  0  0
  160.8640  208.7490  154.6890 C   0  0  0  0  0  2  0  0  0  0  0  0
  159.6490  209.2270  155.4670 C   0  0  0  0  0  2  0  0  0  0  0  0
  160.5510  211.0470  156.9070 C   0  0  0  0  0  3  0  0  0  0  0  0
  159.7870  210.6800  155.7930 C   0  0  0  0  0  0  0  0  0  0  0  0
  159.3810  213.0280  155.3240 C   0  0  0  0  0  3  0  0  0  0  0  0
  159.1960  211.6790  154.9890 C   0  0  0  0  0  0  0  0  0  0  0  0
  160.7250  212.3940  157.2320 C   0  0  0  0  0  3  0  0  0  0  0  0
  160.1400  213.3860  156.4410 C   0  0  0  0  0  3  0  0  0  0  0  0
  158.5880  211.8640  152.6910 O   0  0  0  0  0  0  0  0  0  0  0  0
  158.3930  211.3200  153.8100 C   0  0  0  0  0  3  0  0  0  0  0  0
  1 34  1  6  0  0  0
  2  5  1  0  0  0  0
  3  9  1  6  0  0  0
  3  4  1  0  0  0  0
  4  6  1  0  0  0  0
  5  6  1  0  0  0  0
  5  1  1  1  0  0  0
  7  3  1  0  0  0  0
  7  2  2  0  0  0  0
  8  9  2  0  0  0  0
 10  8  1  0  0  0  0
 11 10  1  0  0  0  0
 12 11  1  0  0  0  0
 13 12  1  1  0  0  0
 14 17  1  0  0  0  0
 15 16  1  6  0  0  0
 15 14  1  0  0  0  0
 15 18  1  0  0  0  0
 17 13  1  0  0  0  0
 18 19  1  6  0  0  0
 18 13  1  0  0  0  0
 20 19  1  0  0  0  0
 22 23  1  0  0  0  0
 22  1  1  0  0  0  0
 23 21  2  0  0  0  0
 24 23  1  0  0  0  0
 25 24  1  0  0  0  0
 26 25  1  1  0  0  0
 27 26  1  0  0  0  0
 28 27  2  0  0  0  0
 29 26  1  0  0  0  0
 30 31  1  0  0  0  0
 30 27  1  0  0  0  0
 31 29  1  0  0  0  0
 32 30  1  0  0  0  0
 33 32  1  0  0  0  0
 34 35  1  0  0  0  0
 35 36  1  0  0  0  0
 36 38  1  0  0  0  0
 37 41  1  0  0  0  0
 38 37  2  0  0  0  0
 39 42  1  0  0  0  0
 40 39  2  0  0  0  0
 40 38  1  0  0  0  0
 42 41  2  0  0  0  0
 43 44  2  0  0  0  0
 44 40  1  0  0  0  0
M  END
>  <MODEL>
4

>  <REMARK>
 VINA RESULT:      -6.6      2.733      7.354
  Name = 
  17 active torsions:
  status: ('A' for Active; 'I' for Inactive)
    1  A    between atoms: C_1  and  C_20
    2  A    between atoms: C_2  and  C_11
    3  A    between atoms: C_3  and  C_20
    4  A    between atoms: C_3  and  N_24
    5  A    between atoms: N_7  and  N_24
    6  A    between atoms: C_9  and  N_29
    7  A    between atoms: C_10  and  N_15
    8  A    between atoms: C_10  and  C_37
    9  A    between atoms: C_10  and  C_39
   10  A    between atoms: C_11  and  C_31
   11  A    between atoms: C_18  and  N_34
   12  A    between atoms: C_19  and  C_36
   13  A    between atoms: C_23  and  C_33
   14  A    between atoms: C_30  and  C_35
   15  A    between atoms: C_31  and  C_44
   16  A    between atoms: C_32  and  C_33
   17  A    between atoms: C_32  and  C_37
                            x       y       z     vdW  Elec       q    Type
                         _______ _______ _______ _____ _____    ______ ____

>  <TORSDO>
F 17

$$$$
=
 OpenBabel11052409363D

 44 47  0  0  1  0  0  0  0  0999 V2000
  160.6990  207.4000  152.8930 C   0  0  2  0  0  3  0  0  0  0  0  0
  161.4360  205.0350  152.5400 C   0  0  0  0  0  3  0  0  0  0  0  0
  160.4870  203.7900  150.5950 C   0  0  2  0  0  3  0  0  0  0  0  0
  160.6770  205.0780  149.7910 C   0  0  0  0  0  2  0  0  0  0  0  0
  161.1840  206.3670  151.8730 C   0  0  1  0  0  3  0  0  0  0  0  0
  160.2590  206.2620  150.6530 C   0  0  0  0  0  2  0  0  0  0  0  0
  161.1640  203.8650  151.9410 C   0  0  0  0  0  3  0  0  0  0  0  0
  160.3140  202.1420  148.9080 N   0  0  0  0  0  0  0  0  0  0  0  0
  160.9930  202.6470  149.8550 N   0  0  0  0  0  0  0  0  0  0  0  0
  160.8080  201.0400  148.2010 N   0  0  0  0  0  2  0  0  0  0  0  0
  161.4590  201.2250  146.9140 C   0  0  0  0  0  2  0  0  0  0  0  0
  160.5750  202.0410  145.9790 C   0  0  0  0  0  2  0  0  0  0  0  0
  161.2670  203.3240  145.5380 C   0  0  1  0  0  3  0  0  0  0  0  0
  160.5920  205.3310  144.7820 C   0  0  0  0  0  2  0  0  0  0  0  0
  160.7400  205.5330  146.2660 C   0  0  2  0  0  3  0  0  0  0  0  0
  161.4540  206.8480  146.5660 C   0  0  0  0  0  1  0  0  0  0  0  0
  160.4950  203.9510  144.5420 O   0  0  0  0  0  0  0  0  0  0  0  0
  161.4520  204.2720  146.7150 C   0  0  2  0  0  3  0  0  0  0  0  0
  162.9480  204.4330  146.9780 C   0  0  0  0  0  2  0  0  0  0  0  0
  163.6830  204.3030  145.7320 N   0  0  0  0  0  1  0  0  0  0  0  0
  162.8010  208.1400  151.0930 O   0  0  0  0  0  0  0  0  0  0  0  0
  160.9850  208.7540  152.4330 N   0  0  0  0  0  2  0  0  0  0  0  0
  162.0470  209.0530  151.5260 C   0  0  0  0  0  0  0  0  0  0  0  0
  162.2450  210.4530  151.0680 C   0  0  0  0  0  2  0  0  0  0  0  0
  161.9190  210.5610  149.5890 C   0  0  0  0  0  2  0  0  0  0  0  0
  162.0670  212.0000  149.1240 C   0  0  2  0  0  3  0  0  0  0  0  0
  160.7860  212.6810  149.2340 C   0  0  0  0  0  0  0  0  0  0  0  0
  160.2660  213.0870  150.3080 O   0  0  0  0  0  0  0  0  0  0  0  0
  162.2340  212.0500  147.6000 C   0  0  0  0  0  2  0  0  0  0  0  0
  160.2290  212.8930  147.9600 N   0  0  0  0  0  0  0  0  0  0  0  0
  160.9740  212.3000  146.9890 O   0  0  0  0  0  0  0  0  0  0  0  0
  159.4510  214.0890  147.6780 C   0  0  0  0  0  2  0  0  0  0  0  0
  157.6820  213.6790  147.6140 S   0  0  0  0  0  1  0  0  0  0  0  0
  161.3330  207.1630  154.2620 C   0  0  0  0  0  2  0  0  0  0  0  0
  160.2980  207.2910  155.3670 C   0  0  0  0  0  2  0  0  0  0  0  0
  160.7890  208.2530  156.4380 C   0  0  0  0  0  2  0  0  0  0  0  0
  159.0210  209.8170  155.6460 C   0  0  0  0  0  3  0  0  0  0  0  0
  160.3200  209.6410  156.1360 C   0  0  0  0  0  0  0  0  0  0  0  0
  160.6410  212.0470  156.0920 C   0  0  0  0  0  3  0  0  0  0  0  0
  161.1410  210.7660  156.3650 C   0  0  0  0  0  0  0  0  0  0  0  0
  158.5360  211.0980  155.3750 C   0  0  0  0  0  3  0  0  0  0  0  0
  159.3460  212.2140  155.5970 C   0  0  0  0  0  3  0  0  0  0  0  0
  163.5160  210.8270  156.1610 O   0  0  0  0  0  0  0  0  0  0  0  0
  162.5080  210.6080  156.8850 C   0  0  0  0  0  3  0  0  0  0  0  0
  1 34  1  1  0  0  0
  3  9  1  6  0  0  0
  3  7  1  0  0  0  0
  4  3  1  0  0  0  0
  4  6  1  0  0  0  0
  5  2  1  0  0  0  0
  5  1  1  1  0  0  0
  6  5  1  0  0  0  0
  7  2  2  0  0  0  0
  8  9  2  0  0  0  0
 10  8  1  0  0  0  0
 11 10  1  0  0  0  0
 12 11  1  0  0  0  0
 13 12  1  1  0  0  0
 13 18  1  0  0  0  0
 14 15  1  0  0  0  0
 15 16  1  6  0  0  0
 15 18  1  0  0  0  0
 17 14  1  0  0  0  0
 17 13  1  0  0  0  0
 18 19  1  6  0  0  0
 20 19  1  0  0  0  0
 21 23  2  0  0  0  0
 22  1  1  0  0  0  0
 23 22  1  0  0  0  0
 24 23  1  0  0  0  0
 25 24  1  0  0  0  0
 26 27  1  0  0  0  0
 26 25  1  6  0  0  0
 27 28  2  0  0  0  0
 29 26  1  0  0  0  0
 30 27  1  0  0  0  0
 31 29  1  0  0  0  0
 31 30  1  0  0  0  0
 32 30  1  0  0  0  0
 33 32  1  0  0  0  0
 34 35  1  0  0  0  0
 35 36  1  0  0  0  0
 37 38  1  0  0  0  0
 38 40  2  0  0  0  0
 38 36  1  0  0  0  0
 39 40  1  0  0  0  0
 40 44  1  0  0  0  0
 41 42  1  0  0  0  0
 41 37  2  0  0  0  0
 42 39  2  0  0  0  0
 43 44  2  0  0  0  0
M  END
>  <MODEL>
5

>  <REMARK>
 VINA RESULT:      -6.5      3.201      8.316
  Name = 
  17 active torsions:
  status: ('A' for Active; 'I' for Inactive)
    1  A    between atoms: C_1  and  C_20
    2  A    between atoms: C_2  and  C_11
    3  A    between atoms: C_3  and  C_20
    4  A    between atoms: C_3  and  N_24
    5  A    between atoms: N_7  and  N_24
    6  A    between atoms: C_9  and  N_29
    7  A    between atoms: C_10  and  N_15
    8  A    between atoms: C_10  and  C_37
    9  A    between atoms: C_10  and  C_39
   10  A    between atoms: C_11  and  C_31
   11  A    between atoms: C_18  and  N_34
   12  A    between atoms: C_19  and  C_36
   13  A    between atoms: C_23  and  C_33
   14  A    between atoms: C_30  and  C_35
   15  A    between atoms: C_31  and  C_44
   16  A    between atoms: C_32  and  C_33
   17  A    between atoms: C_32  and  C_37
                            x       y       z     vdW  Elec       q    Type
                         _______ _______ _______ _____ _____    ______ ____

>  <TORSDO>
F 17

$$$$
=
 OpenBabel11052409363D

 44 47  0  0  1  0  0  0  0  0999 V2000
  161.8830  209.7540  150.3780 C   0  0  2  0  0  3  0  0  0  0  0  0
  162.3130  207.4680  151.2990 C   0  0  0  0  0  3  0  0  0  0  0  0
  160.9090  205.5830  150.4570 C   0  0  2  0  0  3  0  0  0  0  0  0
  161.0700  206.2000  149.0670 C   0  0  0  0  0  2  0  0  0  0  0  0
  162.0720  208.2730  150.0440 C   0  0  1  0  0  3  0  0  0  0  0  0
  160.9320  207.7130  149.1800 C   0  0  0  0  0  2  0  0  0  0  0  0
  161.8250  206.2290  151.4660 C   0  0  0  0  0  3  0  0  0  0  0  0
  160.2380  203.3490  150.0670 N   0  0  0  0  0  0  0  0  0  0  0  0
  161.1590  204.1520  150.4130 N   0  0  0  0  0  0  0  0  0  0  0  0
  160.4870  201.9720  150.0290 N   0  0  0  0  0  2  0  0  0  0  0  0
  160.1210  201.1930  148.8570 C   0  0  0  0  0  2  0  0  0  0  0  0
  161.3650  200.6440  148.1690 C   0  0  0  0  0  2  0  0  0  0  0  0
  161.3980  201.0260  146.6940 C   0  0  1  0  0  3  0  0  0  0  0  0
  160.1250  200.5830  144.8950 C   0  0  0  0  0  2  0  0  0  0  0  0
  159.5760  201.8830  145.4180 C   0  0  2  0  0  3  0  0  0  0  0  0
  159.3310  202.8670  144.2770 C   0  0  0  0  0  1  0  0  0  0  0  0
  160.8550  199.9760  145.9290 O   0  0  0  0  0  0  0  0  0  0  0  0
  160.6070  202.3020  146.4480 C   0  0  2  0  0  3  0  0  0  0  0  0
  161.5740  203.3910  145.9870 C   0  0  0  0  0  2  0  0  0  0  0  0
  162.3040  203.9160  147.1280 N   0  0  0  0  0  1  0  0  0  0  0  0
  160.9400  212.2300  149.2910 O   0  0  0  0  0  0  0  0  0  0  0  0
  162.6060  210.5950  149.4310 N   0  0  0  0  0  2  0  0  0  0  0  0
  162.0790  211.8260  148.9340 C   0  0  0  0  0  0  0  0  0  0  0  0
  162.8980  212.6490  148.0050 C   0  0  0  0  0  2  0  0  0  0  0  0
  161.9970  213.5760  147.2090 C   0  0  0  0  0  2  0  0  0  0  0  0
  161.4170  212.8410  146.0120 C   0  0  2  0  0  3  0  0  0  0  0  0
  161.9450  213.4180  144.7850 C   0  0  0  0  0  0  0  0  0  0  0  0
  163.1060  213.2290  144.3330 O   0  0  0  0  0  0  0  0  0  0  0  0
  159.9390  213.2070  145.8300 C   0  0  0  0  0  2  0  0  0  0  0  0
  160.9540  214.1650  144.1250 N   0  0  0  0  0  0  0  0  0  0  0  0
  159.8180  214.2470  144.8690 O   0  0  0  0  0  0  0  0  0  0  0  0
  160.9010  214.2100  142.6720 C   0  0  0  0  0  2  0  0  0  0  0  0
  159.2150  213.8480  142.1000 S   0  0  0  0  0  1  0  0  0  0  0  0
  162.3340  210.0590  151.8050 C   0  0  0  0  0  2  0  0  0  0  0  0
  161.2200  210.7270  152.5940 C   0  0  0  0  0  2  0  0  0  0  0  0
  160.5730  209.7280  153.5400 C   0  0  0  0  0  2  0  0  0  0  0  0
  162.2430  210.7030  155.1080 C   0  0  0  0  0  3  0  0  0  0  0  0
  161.3220  209.6850  154.8340 C   0  0  0  0  0  0  0  0  0  0  0  0
  161.8040  208.6930  156.9970 C   0  0  0  0  0  3  0  0  0  0  0  0
  161.0950  208.6700  155.7870 C   0  0  0  0  0  0  0  0  0  0  0  0
  162.9450  210.7140  156.3160 C   0  0  0  0  0  3  0  0  0  0  0  0
  162.7260  209.7090  157.2610 C   0  0  0  0  0  3  0  0  0  0  0  0
  159.6040  206.9360  156.4640 O   0  0  0  0  0  0  0  0  0  0  0  0
  160.1290  207.5910  155.5250 C   0  0  0  0  0  3  0  0  0  0  0  0
  1 34  1  1  0  0  0
  2  7  2  0  0  0  0
  3  9  1  6  0  0  0
  3  7  1  0  0  0  0
  4  6  1  0  0  0  0
  4  3  1  0  0  0  0
  5  1  1  1  0  0  0
  5  2  1  0  0  0  0
  6  5  1  0  0  0  0
  8  9  2  0  0  0  0
 10  8  1  0  0  0  0
 11 10  1  0  0  0  0
 12 11  1  0  0  0  0
 13 12  1  1  0  0  0
 14 15  1  0  0  0  0
 14 17  1  0  0  0  0
 15 16  1  6  0  0  0
 15 18  1  0  0  0  0
 17 13  1  0  0  0  0
 18 19  1  6  0  0  0
 18 13  1  0  0  0  0
 19 20  1  0  0  0  0
 22  1  1  0  0  0  0
 23 21  2  0  0  0  0
 23 22  1  0  0  0  0
 24 23  1  0  0  0  0
 25 24  1  0  0  0  0
 26 25  1  1  0  0  0
 27 26  1  0  0  0  0
 28 27  2  0  0  0  0
 29 26  1  0  0  0  0
 30 27  1  0  0  0  0
 30 31  1  0  0  0  0
 31 29  1  0  0  0  0
 32 30  1  0  0  0  0
 33 32  1  0  0  0  0
 34 35  1  0  0  0  0
 35 36  1  0  0  0  0
 36 38  1  0  0  0  0
 37 41  1  0  0  0  0
 38 37  2  0  0  0  0
 38 40  1  0  0  0  0
 39 42  1  0  0  0  0
 40 39  2  0  0  0  0
 41 42  2  0  0  0  0
 44 40  1  0  0  0  0
 44 43  2  0  0  0  0
M  END
>  <MODEL>
6

>  <REMARK>
 VINA RESULT:      -6.4      3.273      9.619
  Name = 
  17 active torsions:
  status: ('A' for Active; 'I' for Inactive)
    1  A    between atoms: C_1  and  C_20
    2  A    between atoms: C_2  and  C_11
    3  A    between atoms: C_3  and  C_20
    4  A    between atoms: C_3  and  N_24
    5  A    between atoms: N_7  and  N_24
    6  A    between atoms: C_9  and  N_29
    7  A    between atoms: C_10  and  N_15
    8  A    between atoms: C_10  and  C_37
    9  A    between atoms: C_10  and  C_39
   10  A    between atoms: C_11  and  C_31
   11  A    between atoms: C_18  and  N_34
   12  A    between atoms: C_19  and  C_36
   13  A    between atoms: C_23  and  C_33
   14  A    between atoms: C_30  and  C_35
   15  A    between atoms: C_31  and  C_44
   16  A    between atoms: C_32  and  C_33
   17  A    between atoms: C_32  and  C_37
                            x       y       z     vdW  Elec       q    Type
                         _______ _______ _______ _____ _____    ______ ____

>  <TORSDO>
F 17

$$$$
=
 OpenBabel11052409363D

 44 47  0  0  1  0  0  0  0  0999 V2000
  160.9450  207.1970  151.7190 C   0  0  2  0  0  3  0  0  0  0  0  0
  161.2270  209.6820  151.6360 C   0  0  0  0  0  3  0  0  0  0  0  0
  162.4500  210.6580  149.6900 C   0  0  2  0  0  3  0  0  0  0  0  0
  161.6810  209.6610  148.8200 C   0  0  0  0  0  2  0  0  0  0  0  0
  160.8520  208.4510  150.8450 C   0  0  1  0  0  3  0  0  0  0  0  0
  161.6390  208.3160  149.5330 C   0  0  0  0  0  2  0  0  0  0  0  0
  161.9100  210.7040  151.0970 C   0  0  0  0  0  3  0  0  0  0  0  0
  162.2390  212.1330  147.8520 N   0  0  0  0  0  0  0  0  0  0  0  0
  162.4050  211.9870  149.1030 N   0  0  0  0  0  0  0  0  0  0  0  0
  162.1990  213.4160  147.2950 N   0  0  0  0  0  2  0  0  0  0  0  0
  161.6740  213.6180  145.9550 C   0  0  0  0  0  2  0  0  0  0  0  0
  162.6790  213.1470  144.9100 C   0  0  0  0  0  2  0  0  0  0  0  0
  162.1820  213.4230  143.4970 C   0  0  1  0  0  3  0  0  0  0  0  0
  163.0290  213.1950  141.4260 C   0  0  0  0  0  2  0  0  0  0  0  0
  162.2680  211.9160  141.6520 C   0  0  2  0  0  3  0  0  0  0  0  0
  161.4410  211.5530  140.4210 C   0  0  0  0  0  1  0  0  0  0  0  0
  163.2730  213.7770  142.6800 O   0  0  0  0  0  0  0  0  0  0  0  0
  161.4860  212.2000  142.9190 C   0  0  2  0  0  3  0  0  0  0  0  0
  160.0100  212.5360  142.7060 C   0  0  0  0  0  2  0  0  0  0  0  0
  159.2600  212.2410  143.9130 N   0  0  0  0  0  1  0  0  0  0  0  0
  159.9240  206.7400  154.3550 O   0  0  0  0  0  0  0  0  0  0  0  0
  161.6490  207.4850  152.9630 N   0  0  0  0  0  2  0  0  0  0  0  0
  161.0830  207.2230  154.2480 C   0  0  0  0  0  0  0  0  0  0  0  0
  161.8840  207.5020  155.4700 C   0  0  0  0  0  2  0  0  0  0  0  0
  161.0960  208.4010  156.4050 C   0  0  0  0  0  2  0  0  0  0  0  0
  160.7180  209.6910  155.6960 C   0  0  2  0  0  3  0  0  0  0  0  0
  161.2100  210.8280  156.4590 C   0  0  0  0  0  0  0  0  0  0  0  0
  162.4100  211.2100  156.5040 O   0  0  0  0  0  0  0  0  0  0  0  0
  159.2120  209.9480  155.8310 C   0  0  0  0  0  2  0  0  0  0  0  0
  160.1460  211.4960  157.0910 N   0  0  0  0  0  0  0  0  0  0  0  0
  158.9720  210.8310  156.9190 O   0  0  0  0  0  0  0  0  0  0  0  0
  160.1690  212.9410  157.2570 C   0  0  0  0  0  2  0  0  0  0  0  0
  158.9630  213.7140  156.1400 S   0  0  0  0  0  1  0  0  0  0  0  0
  161.6340  206.0560  150.9740 C   0  0  0  0  0  2  0  0  0  0  0  0
  160.6130  205.0880  150.4010 C   0  0  0  0  0  2  0  0  0  0  0  0
  161.3060  203.8380  149.8830 C   0  0  0  0  0  2  0  0  0  0  0  0
  161.7430  205.0700  147.7630 C   0  0  0  0  0  3  0  0  0  0  0  0
  161.3760  203.8730  148.3890 C   0  0  0  0  0  0  0  0  0  0  0  0
  161.2270  202.8060  146.2130 C   0  0  0  0  0  3  0  0  0  0  0  0
  161.1180  202.7250  147.6090 C   0  0  0  0  0  0  0  0  0  0  0  0
  161.8450  205.1380  146.3720 C   0  0  0  0  0  3  0  0  0  0  0  0
  161.5870  204.0060  145.5960 C   0  0  0  0  0  3  0  0  0  0  0  0
  161.5790  200.5380  148.4390 O   0  0  0  0  0  0  0  0  0  0  0  0
  160.7360  201.4530  148.2420 C   0  0  0  0  0  3  0  0  0  0  0  0
  1 34  1  6  0  0  0
  1 22  1  0  0  0  0
  3  9  1  6  0  0  0
  3  7  1  0  0  0  0
  4  6  1  0  0  0  0
  4  3  1  0  0  0  0
  5  2  1  0  0  0  0
  5  1  1  1  0  0  0
  6  5  1  0  0  0  0
  7  2  2  0  0  0  0
  8  9  2  0  0  0  0
 10  8  1  0  0  0  0
 11 10  1  0  0  0  0
 12 11  1  0  0  0  0
 13 12  1  1  0  0  0
 14 15  1  0  0  0  0
 14 17  1  0  0  0  0
 15 16  1  6  0  0  0
 15 18  1  0  0  0  0
 17 13  1  0  0  0  0
 18 19  1  6  0  0  0
 18 13  1  0  0  0  0
 19 20  1  0  0  0  0
 22 23  1  0  0  0  0
 23 21  2  0  0  0  0
 23 24  1  0  0  0  0
 24 25  1  0  0  0  0
 26 29  1  0  0  0  0
 26 25  1  1  0  0  0
 26 27  1  0  0  0  0
 27 28  2  0  0  0  0
 27 30  1  0  0  0  0
 29 31  1  0  0  0  0
 30 32  1  0  0  0  0
 31 30  1  0  0  0  0
 33 32  1  0  0  0  0
 35 34  1  0  0  0  0
 36 35  1  0  0  0  0
 37 38  1  0  0  0  0
 38 36  1  0  0  0  0
 39 40  1  0  0  0  0
 40 44  1  0  0  0  0
 40 38  2  0  0  0  0
 41 37  2  0  0  0  0
 42 39  2  0  0  0  0
 42 41  1  0  0  0  0
 44 43  2  0  0  0  0
M  END
>  <MODEL>
7

>  <REMARK>
 VINA RESULT:      -6.0      1.491      2.178
  Name = 
  17 active torsions:
  status: ('A' for Active; 'I' for Inactive)
    1  A    between atoms: C_1  and  C_20
    2  A    between atoms: C_2  and  C_11
    3  A    between atoms: C_3  and  C_20
    4  A    between atoms: C_3  and  N_24
    5  A    between atoms: N_7  and  N_24
    6  A    between atoms: C_9  and  N_29
    7  A    between atoms: C_10  and  N_15
    8  A    between atoms: C_10  and  C_37
    9  A    between atoms: C_10  and  C_39
   10  A    between atoms: C_11  and  C_31
   11  A    between atoms: C_18  and  N_34
   12  A    between atoms: C_19  and  C_36
   13  A    between atoms: C_23  and  C_33
   14  A    between atoms: C_30  and  C_35
   15  A    between atoms: C_31  and  C_44
   16  A    between atoms: C_32  and  C_33
   17  A    between atoms: C_32  and  C_37
                            x       y       z     vdW  Elec       q    Type
                         _______ _______ _______ _____ _____    ______ ____

>  <TORSDO>
F 17

$$$$
=
 OpenBabel11052409363D

 44 47  0  0  1  0  0  0  0  0999 V2000
  161.9200  209.3950  150.3750 C   0  0  2  0  0  3  0  0  0  0  0  0
  161.5850  207.0280  151.1140 C   0  0  0  0  0  3  0  0  0  0  0  0
  160.3110  205.5000  149.6050 C   0  0  2  0  0  3  0  0  0  0  0  0
  161.0860  206.1380  148.4510 C   0  0  0  0  0  2  0  0  0  0  0  0
  161.9730  207.9230  149.9600 C   0  0  1  0  0  3  0  0  0  0  0  0
  161.1680  207.6400  148.6830 C   0  0  0  0  0  2  0  0  0  0  0  0
  160.8720  205.9030  150.9460 C   0  0  0  0  0  3  0  0  0  0  0  0
  160.9940  203.3430  150.2960 N   0  0  0  0  0  0  0  0  0  0  0  0
  160.3180  204.0510  149.4870 N   0  0  0  0  0  0  0  0  0  0  0  0
  160.9970  201.9500  150.1740 N   0  0  0  0  0  2  0  0  0  0  0  0
  160.4680  201.3170  148.9760 C   0  0  0  0  0  2  0  0  0  0  0  0
  161.5710  200.5730  148.2330 C   0  0  0  0  0  2  0  0  0  0  0  0
  161.5390  200.8780  146.7400 C   0  0  1  0  0  3  0  0  0  0  0  0
  160.0840  200.5250  145.0630 C   0  0  0  0  0  2  0  0  0  0  0  0
  159.7490  201.9100  145.5500 C   0  0  2  0  0  3  0  0  0  0  0  0
  159.5450  202.8630  144.3760 C   0  0  0  0  0  1  0  0  0  0  0  0
  160.8070  199.8760  146.0760 O   0  0  0  0  0  0  0  0  0  0  0  0
  160.9020  202.2350  146.4790 C   0  0  2  0  0  3  0  0  0  0  0  0
  161.9630  203.1640  145.8910 C   0  0  0  0  0  2  0  0  0  0  0  0
  162.2590  204.2300  146.8320 N   0  0  0  0  0  1  0  0  0  0  0  0
  161.0990  212.0960  149.8920 O   0  0  0  0  0  0  0  0  0  0  0  0
  162.4120  210.2520  149.3030 N   0  0  0  0  0  2  0  0  0  0  0  0
  161.9650  211.5970  149.1240 C   0  0  0  0  0  0  0  0  0  0  0  0
  162.5490  212.4230  148.0340 C   0  0  0  0  0  2  0  0  0  0  0  0
  162.1430  213.8740  148.2160 C   0  0  0  0  0  2  0  0  0  0  0  0
  161.4280  214.3780  146.9730 C   0  0  2  0  0  3  0  0  0  0  0  0
  160.3550  213.4610  146.6240 C   0  0  0  0  0  0  0  0  0  0  0  0
  159.2480  213.3750  147.2200 O   0  0  0  0  0  0  0  0  0  0  0  0
  162.3160  214.1870  145.7370 C   0  0  0  0  0  2  0  0  0  0  0  0
  160.6900  212.7220  145.4760 N   0  0  0  0  0  0  0  0  0  0  0  0
  161.9660  212.9760  145.0790 O   0  0  0  0  0  0  0  0  0  0  0  0
  159.6690  212.3430  144.5110 C   0  0  0  0  0  2  0  0  0  0  0  0
  160.4260  212.0570  142.8850 S   0  0  0  0  0  1  0  0  0  0  0  0
  162.7210  209.6360  151.6530 C   0  0  0  0  0  2  0  0  0  0  0  0
  161.8680  210.3240  152.7050 C   0  0  0  0  0  2  0  0  0  0  0  0
  160.5360  209.6050  152.8550 C   0  0  0  0  0  2  0  0  0  0  0  0
  160.7780  207.6110  154.3260 C   0  0  0  0  0  3  0  0  0  0  0  0
  160.4460  208.9660  154.2040 C   0  0  0  0  0  0  0  0  0  0  0  0
  160.0310  209.0590  156.5950 C   0  0  0  0  0  3  0  0  0  0  0  0
  160.0710  209.7010  155.3490 C   0  0  0  0  0  0  0  0  0  0  0  0
  160.7310  206.9830  155.5730 C   0  0  0  0  0  3  0  0  0  0  0  0
  160.3570  207.7060  156.7070 C   0  0  0  0  0  3  0  0  0  0  0  0
  158.6860  211.5910  155.7910 O   0  0  0  0  0  0  0  0  0  0  0  0
  159.7230  211.1270  155.2480 C   0  0  0  0  0  3  0  0  0  0  0  0
  1 34  1  1  0  0  0
  3  9  1  6  0  0  0
  3  7  1  0  0  0  0
  4  6  1  0  0  0  0
  4  3  1  0  0  0  0
  5  1  1  1  0  0  0
  5  2  1  0  0  0  0
  6  5  1  0  0  0  0
  7  2  2  0  0  0  0
  9  8  2  0  0  0  0
 10  8  1  0  0  0  0
 11 10  1  0  0  0  0
 12 11  1  0  0  0  0
 13 12  1  1  0  0  0
 14 15  1  0  0  0  0
 14 17  1  0  0  0  0
 15 16  1  6  0  0  0
 15 18  1  0  0  0  0
 17 13  1  0  0  0  0
 18 19  1  6  0  0  0
 18 13  1  0  0  0  0
 19 20  1  0  0  0  0
 22  1  1  0  0  0  0
 23 22  1  0  0  0  0
 23 21  2  0  0  0  0
 24 25  1  0  0  0  0
 24 23  1  0  0  0  0
 26 25  1  1  0  0  0
 27 26  1  0  0  0  0
 27 28  2  0  0  0  0
 29 26  1  0  0  0  0
 30 27  1  0  0  0  0
 31 30  1  0  0  0  0
 31 29  1  0  0  0  0
 32 30  1  0  0  0  0
 33 32  1  0  0  0  0
 34 35  1  0  0  0  0
 35 36  1  0  0  0  0
 36 38  1  0  0  0  0
 37 41  1  0  0  0  0
 38 37  2  0  0  0  0
 38 40  1  0  0  0  0
 39 42  1  0  0  0  0
 40 39  2  0  0  0  0
 41 42  2  0  0  0  0
 44 40  1  0  0  0  0
 44 43  2  0  0  0  0
M  END
>  <MODEL>
8

>  <REMARK>
 VINA RESULT:      -6.0      3.278      9.145
  Name = 
  17 active torsions:
  status: ('A' for Active; 'I' for Inactive)
    1  A    between atoms: C_1  and  C_20
    2  A    between atoms: C_2  and  C_11
    3  A    between atoms: C_3  and  C_20
    4  A    between atoms: C_3  and  N_24
    5  A    between atoms: N_7  and  N_24
    6  A    between atoms: C_9  and  N_29
    7  A    between atoms: C_10  and  N_15
    8  A    between atoms: C_10  and  C_37
    9  A    between atoms: C_10  and  C_39
   10  A    between atoms: C_11  and  C_31
   11  A    between atoms: C_18  and  N_34
   12  A    between atoms: C_19  and  C_36
   13  A    between atoms: C_23  and  C_33
   14  A    between atoms: C_30  and  C_35
   15  A    between atoms: C_31  and  C_44
   16  A    between atoms: C_32  and  C_33
   17  A    between atoms: C_32  and  C_37
                            x       y       z     vdW  Elec       q    Type
                         _______ _______ _______ _____ _____    ______ ____

>  <TORSDO>
F 17

$$$$
=
 OpenBabel11052409363D

 44 47  0  0  1  0  0  0  0  0999 V2000
  161.9110  209.9250  150.5300 C   0  0  2  0  0  3  0  0  0  0  0  0
  161.4480  207.5870  151.2900 C   0  0  0  0  0  3  0  0  0  0  0  0
  160.6410  205.9420  149.5930 C   0  0  2  0  0  3  0  0  0  0  0  0
  161.6740  206.5500  148.6430 C   0  0  0  0  0  2  0  0  0  0  0  0
  162.1010  208.4370  150.2270 C   0  0  1  0  0  3  0  0  0  0  0  0
  161.6600  208.0640  148.8030 C   0  0  0  0  0  2  0  0  0  0  0  0
  160.8270  206.4300  151.0080 C   0  0  0  0  0  3  0  0  0  0  0  0
  160.7540  203.8260  150.6440 N   0  0  0  0  0  0  0  0  0  0  0  0
  160.7110  204.4910  149.5620 N   0  0  0  0  0  0  0  0  0  0  0  0
  160.8240  202.4290  150.6050 N   0  0  0  0  0  2  0  0  0  0  0  0
  160.4230  201.7070  149.4080 C   0  0  0  0  0  2  0  0  0  0  0  0
  161.5640  200.8320  148.9030 C   0  0  0  0  0  2  0  0  0  0  0  0
  161.6930  200.9070  147.3870 C   0  0  1  0  0  3  0  0  0  0  0  0
  160.6080  199.9970  145.6400 C   0  0  0  0  0  2  0  0  0  0  0  0
  159.9270  201.3250  145.8410 C   0  0  2  0  0  3  0  0  0  0  0  0
  159.7080  202.0290  144.5050 C   0  0  0  0  0  1  0  0  0  0  0  0
  161.2900  199.6800  146.8250 O   0  0  0  0  0  0  0  0  0  0  0  0
  160.8360  202.0320  146.8260 C   0  0  2  0  0  3  0  0  0  0  0  0
  161.7590  203.0840  146.2120 C   0  0  0  0  0  2  0  0  0  0  0  0
  161.1340  204.3920  146.2900 N   0  0  0  0  0  1  0  0  0  0  0  0
  160.8360  212.4740  149.7910 O   0  0  0  0  0  0  0  0  0  0  0  0
  162.3620  210.7430  149.4110 N   0  0  0  0  0  2  0  0  0  0  0  0
  161.7860  212.0130  149.1020 C   0  0  0  0  0  0  0  0  0  0  0  0
  162.3330  212.8090  147.9710 C   0  0  0  0  0  2  0  0  0  0  0  0
  161.1930  213.3810  147.1480 C   0  0  0  0  0  2  0  0  0  0  0  0
  161.0100  212.5740  145.8740 C   0  0  2  0  0  3  0  0  0  0  0  0
  161.6860  213.2430  144.7730 C   0  0  0  0  0  0  0  0  0  0  0  0
  162.9310  213.2530  144.5810 O   0  0  0  0  0  0  0  0  0  0  0  0
  159.5650  212.6920  145.3740 C   0  0  0  0  0  2  0  0  0  0  0  0
  160.7490  213.8230  143.8990 N   0  0  0  0  0  0  0  0  0  0  0  0
  159.4830  213.7080  144.3820 O   0  0  0  0  0  0  0  0  0  0  0  0
  161.0000  213.8740  142.4670 C   0  0  0  0  0  2  0  0  0  0  0  0
  160.7090  212.2410  141.7260 S   0  0  0  0  0  1  0  0  0  0  0  0
  162.6470  210.3250  151.8070 C   0  0  0  0  0  2  0  0  0  0  0  0
  161.7250  210.2460  153.0120 C   0  0  0  0  0  2  0  0  0  0  0  0
  160.3320  210.7310  152.6410 C   0  0  0  0  0  2  0  0  0  0  0  0
  159.6650  210.3440  155.0090 C   0  0  0  0  0  3  0  0  0  0  0  0
  159.5920  211.1550  153.8700 C   0  0  0  0  0  0  0  0  0  0  0  0
  158.2060  212.7230  155.1010 C   0  0  0  0  0  3  0  0  0  0  0  0
  158.8580  212.3590  153.9140 C   0  0  0  0  0  0  0  0  0  0  0  0
  159.0100  210.7160  156.1850 C   0  0  0  0  0  3  0  0  0  0  0  0
  158.2790  211.9060  156.2310 C   0  0  0  0  0  3  0  0  0  0  0  0
  158.1570  212.8710  151.6930 O   0  0  0  0  0  0  0  0  0  0  0  0
  158.7690  213.2320  152.7330 C   0  0  0  0  0  3  0  0  0  0  0  0
  1 34  1  1  0  0  0
  3  9  1  1  0  0  0
  3  7  1  0  0  0  0
  4  6  1  0  0  0  0
  4  3  1  0  0  0  0
  5  1  1  1  0  0  0
  5  2  1  0  0  0  0
  6  5  1  0  0  0  0
  7  2  2  0  0  0  0
  9  8  2  0  0  0  0
 10  8  1  0  0  0  0
 11 10  1  0  0  0  0
 12 11  1  0  0  0  0
 13 12  1  1  0  0  0
 14 15  1  0  0  0  0
 14 17  1  0  0  0  0
 15 16  1  6  0  0  0
 15 18  1  0  0  0  0
 17 13  1  0  0  0  0
 18 19  1  6  0  0  0
 18 13  1  0  0  0  0
 19 20  1  0  0  0  0
 22  1  1  0  0  0  0
 23 22  1  0  0  0  0
 23 21  2  0  0  0  0
 24 23  1  0  0  0  0
 25 24  1  0  0  0  0
 26 25  1  1  0  0  0
 27 26  1  0  0  0  0
 28 27  2  0  0  0  0
 29 26  1  0  0  0  0
 30 31  1  0  0  0  0
 30 27  1  0  0  0  0
 31 29  1  0  0  0  0
 32 30  1  0  0  0  0
 33 32  1  0  0  0  0
 34 35  1  0  0  0  0
 36 35  1  0  0  0  0
 36 38  1  0  0  0  0
 37 41  1  0  0  0  0
 38 40  1  0  0  0  0
 38 37  2  0  0  0  0
 39 42  1  0  0  0  0
 40 39  2  0  0  0  0
 41 42  2  0  0  0  0
 43 44  2  0  0  0  0
 44 40  1  0  0  0  0
M  END
>  <MODEL>
9

>  <REMARK>
 VINA RESULT:      -5.9      3.345      9.831
  Name = 
  17 active torsions:
  status: ('A' for Active; 'I' for Inactive)
    1  A    between atoms: C_1  and  C_20
    2  A    between atoms: C_2  and  C_11
    3  A    between atoms: C_3  and  C_20
    4  A    between atoms: C_3  and  N_24
    5  A    between atoms: N_7  and  N_24
    6  A    between atoms: C_9  and  N_29
    7  A    between atoms: C_10  and  N_15
    8  A    between atoms: C_10  and  C_37
    9  A    between atoms: C_10  and  C_39
   10  A    between atoms: C_11  and  C_31
   11  A    between atoms: C_18  and  N_34
   12  A    between atoms: C_19  and  C_36
   13  A    between atoms: C_23  and  C_33
   14  A    between atoms: C_30  and  C_35
   15  A    between atoms: C_31  and  C_44
   16  A    between atoms: C_32  and  C_33
   17  A    between atoms: C_32  and  C_37
                            x       y       z     vdW  Elec       q    Type
                         _______ _______ _______ _____ _____    ______ ____

>  <TORSDO>
F 17

$$$$
