=
 OpenBabel11042420323D

 49 54  0  0  1  0  0  0  0  0999 V2000
  161.7030  208.4920  153.6790 N   0  0  0  0  0  0  0  0  0  0  0  0
  160.4640  211.9340  153.5580 F   0  0  0  0  0  0  0  0  0  0  0  0
  161.0190  210.7490  153.2010 C   0  0  0  0  0  0  0  0  0  0  0  0
  161.1630  209.7600  154.0940 C   0  0  0  0  0  0  0  0  0  0  0  0
  163.2010  207.2700  148.6680 O   0  0  0  0  0  0  0  0  0  0  0  0
  161.9030  208.1880  152.4320 C   0  0  0  0  0  0  0  0  0  0  0  0
  162.3970  206.8920  152.0980 N   0  0  0  0  0  2  0  0  0  0  0  0
  161.5680  210.5890  151.8140 C   0  0  0  0  0  2  0  0  0  0  0  0
  162.4390  206.4130  150.7190 C   0  0  2  0  0  3  0  0  0  0  0  0
  162.3180  208.9690  150.0600 C   0  0  2  0  0  3  0  0  0  0  0  0
  162.6740  207.5310  149.7380 C   0  0  0  0  0  0  0  0  0  0  0  0
  161.4810  209.1360  151.3350 C   0  0  1  0  0  3  0  0  0  0  0  0
  159.9790  208.8390  155.9310 C   0  0  0  0  0  2  0  0  0  0  0  0
  157.9000  212.3170  154.7030 S   0  0  0  0  0  0  0  0  0  0  0  0
  154.4700  210.7880  155.3960 F   0  0  0  0  0  0  0  0  0  0  0  0
  156.2180  212.3210  154.7490 C   0  0  0  0  0  0  0  0  0  0  0  0
  160.6920  209.9420  155.5080 C   0  0  2  0  0  3  0  0  0  0  0  0
  157.9870  210.7580  155.3300 C   0  0  0  0  0  0  0  0  0  0  0  0
  155.7800  211.1010  155.2490 C   0  0  0  0  0  0  0  0  0  0  0  0
  155.3500  213.4420  154.3010 C   0  0  0  0  0  1  0  0  0  0  0  0
  156.7700  210.2260  155.5700 N   0  0  0  0  0  0  0  0  0  0  0  0
  159.2030  210.0510  155.5440 N   0  0  0  0  0  0  0  0  0  0  0  0
  161.2270  205.5420  150.3620 C   0  0  2  0  0  3  0  0  0  0  0  0
  159.8900  206.4980  148.4880 C   0  0  0  0  0  1  0  0  0  0  0  0
  159.9950  206.3610  149.9930 C   0  0  0  0  0  2  0  0  0  0  0  0
  160.9060  204.6180  151.5280 C   0  0  0  0  0  2  0  0  0  0  0  0
  161.4230  203.2110  151.2750 C   0  0  0  0  0  2  0  0  0  0  0  0
  160.5250  202.4720  150.2950 C   0  0  0  0  0  2  0  0  0  0  0  0
  161.3010  202.0380  149.1420 N   0  0  0  0  0  2  0  0  0  0  0  0
  162.3450  205.3710  144.5120 C   0  0  0  0  0  3  0  0  0  0  0  0
  161.5830  204.6210  146.4500 C   0  0  1  0  0  3  0  0  0  0  0  0
  161.4010  204.5540  144.1660 N   0  0  0  0  0  0  0  0  0  0  0  0
  162.5110  205.4220  145.9640 C   0  0  0  0  0  2  0  0  0  0  0  0
  160.9910  201.9130  146.6330 C   0  0  0  0  0  0  0  0  0  0  0  0
  160.7670  204.0270  145.3620 C   0  0  1  0  0  3  0  0  0  0  0  0
  160.8250  202.5240  145.4460 C   0  0  0  0  0  3  0  0  0  0  0  0
  161.6220  204.0030  147.7760 C   0  0  0  0  0  3  0  0  0  0  0  0
  160.9630  200.4240  146.6800 C   0  0  0  0  0  1  0  0  0  0  0  0
  161.2840  202.7020  147.8720 C   0  0  0  0  0  0  0  0  0  0  0  0
  161.6040  209.5690  148.9400 N   0  0  0  0  0  2  0  0  0  0  0  0
  162.2380  210.7850  148.6470 N   0  0  0  0  0  2  0  0  0  0  0  0
  161.4280  211.4580  147.7220 N   0  0  0  0  0  2  0  0  0  0  0  0
  161.6340  212.8790  147.9330 C   0  0  0  0  0  2  0  0  0  0  0  0
  161.0120  213.2910  149.2540 C   0  0  0  0  0  2  0  0  0  0  0  0
  159.8700  214.2690  149.0370 C   0  0  0  0  0  2  0  0  0  0  0  0
  157.6020  214.2280  149.7840 O   0  0  0  0  0  1  0  0  0  0  0  0
  158.5270  213.5540  148.9850 C   0  0  1  0  0  3  0  0  0  0  0  0
  158.0320  213.5230  147.5530 C   0  0  0  0  0  2  0  0  0  0  0  0
  157.2100  212.4120  147.3580 O   0  0  0  0  0  1  0  0  0  0  0  0
  1  4  1  0  0  0  0
  3  2  1  0  0  0  0
  3  4  2  0  0  0  0
  5 11  2  0  0  0  0
  6  1  2  0  0  0  0
  7  6  1  0  0  0  0
  8  3  1  0  0  0  0
  9 23  1  6  0  0  0
  9  7  1  0  0  0  0
 10 40  1  6  0  0  0
 10 12  1  0  0  0  0
 11 10  1  0  0  0  0
 11  9  1  0  0  0  0
 12  8  1  1  0  0  0
 12  6  1  0  0  0  0
 14 16  1  0  0  0  0
 14 18  1  0  0  0  0
 16 19  2  0  0  0  0
 17  4  1  6  0  0  0
 17 22  1  0  0  0  0
 17 13  1  0  0  0  0
 18 22  1  0  0  0  0
 18 21  2  0  0  0  0
 19 15  1  0  0  0  0
 19 21  1  0  0  0  0
 20 16  1  0  0  0  0
 22 13  1  0  0  0  0
 23 25  1  1  0  0  0
 23 26  1  0  0  0  0
 24 25  1  0  0  0  0
 27 26  1  0  0  0  0
 28 27  1  0  0  0  0
 29 28  1  0  0  0  0
 30 33  1  0  0  0  0
 31 33  1  6  0  0  0
 31 37  1  0  0  0  0
 32 30  2  0  0  0  0
 32 35  1  0  0  0  0
 34 38  1  0  0  0  0
 34 39  1  0  0  0  0
 35 36  1  6  0  0  0
 35 31  1  0  0  0  0
 36 34  2  0  0  0  0
 37 39  2  0  0  0  0
 39 29  1  0  0  0  0
 41 40  1  0  0  0  0
 42 43  1  0  0  0  0
 42 41  1  0  0  0  0
 43 44  1  0  0  0  0
 45 44  1  0  0  0  0
 47 45  1  0  0  0  0
 47 46  1  1  0  0  0
 48 47  1  0  0  0  0
 49 48  1  0  0  0  0
M  END
>  <MODEL>
1

>  <REMARK>
 VINA RESULT:      -6.3      0.000      0.000
  Name = 
  16 active torsions:
  status: ('A' for Active; 'I' for Inactive)
    1  A    between atoms: N_2  and  N_38
    2  A    between atoms: N_2  and  C_42
    3  A    between atoms: C_6  and  C_19
    4  A    between atoms: C_9  and  C_22
    5  A    between atoms: C_9  and  C_39
    6  A    between atoms: C_11  and  N_30
    7  A    between atoms: C_11  and  C_43
    8  A    between atoms: C_14  and  C_31
    9  A    between atoms: C_19  and  C_26
   10  A    between atoms: C_22  and  C_47
   11  A    between atoms: N_24  and  C_39
   12  A    between atoms: N_24  and  C_48
   13  A    between atoms: C_26  and  C_43
   14  A    between atoms: N_30  and  N_38
   15  A    between atoms: C_32  and  C_47
   16  A    between atoms: C_45  and  C_47
                            x       y       z     vdW  Elec       q    Type
                         _______ _______ _______ _____ _____    ______ ____

>  <TORSDO>
F 16

$$$$
=
 OpenBabel11042420323D

 49 54  0  0  1  0  0  0  0  0999 V2000
  161.5940  208.6780  153.4610 N   0  0  0  0  0  0  0  0  0  0  0  0
  160.5880  212.1720  153.8840 F   0  0  0  0  0  0  0  0  0  0  0  0
  161.0540  211.0190  153.3400 C   0  0  0  0  0  0  0  0  0  0  0  0
  161.1500  209.9020  154.0740 C   0  0  0  0  0  0  0  0  0  0  0  0
  162.8940  208.1160  148.2810 O   0  0  0  0  0  0  0  0  0  0  0  0
  161.7450  208.5490  152.1770 C   0  0  0  0  0  0  0  0  0  0  0  0
  162.1430  207.2880  151.6430 N   0  0  0  0  0  2  0  0  0  0  0  0
  161.5600  211.0320  151.9270 C   0  0  0  0  0  2  0  0  0  0  0  0
  162.1210  207.0160  150.2080 C   0  0  2  0  0  3  0  0  0  0  0  0
  162.1600  209.6440  149.9320 C   0  0  2  0  0  3  0  0  0  0  0  0
  162.4090  208.2500  149.3930 C   0  0  0  0  0  0  0  0  0  0  0  0
  161.3640  209.6740  151.2450 C   0  0  1  0  0  3  0  0  0  0  0  0
  159.9940  208.7700  155.8080 C   0  0  0  0  0  2  0  0  0  0  0  0
  157.9730  212.4260  155.1210 S   0  0  0  0  0  0  0  0  0  0  0  0
  154.5260  210.8930  155.7110 F   0  0  0  0  0  0  0  0  0  0  0  0
  156.2940  212.4600  155.2200 C   0  0  0  0  0  0  0  0  0  0  0  0
  160.7240  209.9040  155.5140 C   0  0  2  0  0  3  0  0  0  0  0  0
  158.0370  210.7960  155.5310 C   0  0  0  0  0  0  0  0  0  0  0  0
  155.8390  211.1940  155.5660 C   0  0  0  0  0  0  0  0  0  0  0  0
  155.4430  213.6510  154.9530 C   0  0  0  0  0  1  0  0  0  0  0  0
  156.8140  210.2630  155.7360 N   0  0  0  0  0  0  0  0  0  0  0  0
  159.2400  210.0400  155.6110 N   0  0  0  0  0  0  0  0  0  0  0  0
  160.8460  206.2860  149.7670 C   0  0  2  0  0  3  0  0  0  0  0  0
  161.1790  203.9960  150.6930 C   0  0  0  0  0  1  0  0  0  0  0  0
  160.3600  205.2670  150.7910 C   0  0  0  0  0  2  0  0  0  0  0  0
  161.0900  205.6020  148.4290 C   0  0  0  0  0  2  0  0  0  0  0  0
  160.2690  206.2440  147.3230 C   0  0  0  0  0  2  0  0  0  0  0  0
  161.0890  206.3820  146.0500 C   0  0  0  0  0  2  0  0  0  0  0  0
  160.8240  205.2550  145.1660 N   0  0  0  0  0  2  0  0  0  0  0  0
  161.1610  200.2650  148.1010 C   0  0  0  0  0  3  0  0  0  0  0  0
  161.6880  202.1030  146.9880 C   0  0  1  0  0  3  0  0  0  0  0  0
  160.9230  199.9450  146.8680 N   0  0  0  0  0  0  0  0  0  0  0  0
  161.6260  201.6450  148.2220 C   0  0  0  0  0  2  0  0  0  0  0  0
  160.0050  202.8740  144.9160 C   0  0  0  0  0  0  0  0  0  0  0  0
  161.2870  201.0600  146.0100 C   0  0  1  0  0  3  0  0  0  0  0  0
  160.1380  201.5610  145.1740 C   0  0  0  0  0  3  0  0  0  0  0  0
  161.6660  203.5190  146.6170 C   0  0  0  0  0  3  0  0  0  0  0  0
  158.9000  203.3160  144.0190 C   0  0  0  0  0  1  0  0  0  0  0  0
  160.8900  203.8840  145.5790 C   0  0  0  0  0  0  0  0  0  0  0  0
  161.4630  210.4470  148.9360 N   0  0  0  0  0  2  0  0  0  0  0  0
  162.3580  211.4330  148.4970 N   0  0  0  0  0  2  0  0  0  0  0  0
  161.7310  212.6720  148.6890 N   0  0  0  0  0  2  0  0  0  0  0  0
  160.9170  212.9210  147.5130 C   0  0  0  0  0  2  0  0  0  0  0  0
  161.8080  213.0040  146.2880 C   0  0  0  0  0  2  0  0  0  0  0  0
  160.9830  212.9980  145.0120 C   0  0  0  0  0  2  0  0  0  0  0  0
  163.1740  212.9740  144.0620 O   0  0  0  0  0  1  0  0  0  0  0  0
  161.8430  213.2970  143.7920 C   0  0  1  0  0  3  0  0  0  0  0  0
  161.3510  212.4720  142.6190 C   0  0  0  0  0  2  0  0  0  0  0  0
  160.3460  211.6000  143.0380 O   0  0  0  0  0  1  0  0  0  0  0  0
  1  4  1  0  0  0  0
  3  2  1  0  0  0  0
  3  4  2  0  0  0  0
  5 11  2  0  0  0  0
  6  1  2  0  0  0  0
  7  6  1  0  0  0  0
  8  3  1  0  0  0  0
  9 23  1  6  0  0  0
  9  7  1  0  0  0  0
 10 40  1  6  0  0  0
 10 12  1  0  0  0  0
 11 10  1  0  0  0  0
 11  9  1  0  0  0  0
 12  8  1  1  0  0  0
 12  6  1  0  0  0  0
 14 16  1  0  0  0  0
 14 18  1  0  0  0  0
 16 19  2  0  0  0  0
 17  4  1  6  0  0  0
 17 22  1  0  0  0  0
 17 13  1  0  0  0  0
 18 22  1  0  0  0  0
 18 21  2  0  0  0  0
 19 15  1  0  0  0  0
 19 21  1  0  0  0  0
 20 16  1  0  0  0  0
 22 13  1  0  0  0  0
 23 26  1  6  0  0  0
 23 25  1  0  0  0  0
 24 25  1  0  0  0  0
 27 26  1  0  0  0  0
 28 27  1  0  0  0  0
 29 39  1  0  0  0  0
 29 28  1  0  0  0  0
 30 33  1  0  0  0  0
 31 37  1  1  0  0  0
 31 33  1  0  0  0  0
 32 30  2  0  0  0  0
 34 36  2  0  0  0  0
 34 39  1  0  0  0  0
 35 36  1  1  0  0  0
 35 32  1  0  0  0  0
 35 31  1  0  0  0  0
 38 34  1  0  0  0  0
 39 37  2  0  0  0  0
 41 42  1  0  0  0  0
 41 40  1  0  0  0  0
 43 42  1  0  0  0  0
 44 43  1  0  0  0  0
 45 44  1  0  0  0  0
 47 46  1  1  0  0  0
 47 45  1  0  0  0  0
 48 49  1  0  0  0  0
 48 47  1  0  0  0  0
M  END
>  <MODEL>
2

>  <REMARK>
 VINA RESULT:      -5.4      1.913      3.064
  Name = 
  16 active torsions:
  status: ('A' for Active; 'I' for Inactive)
    1  A    between atoms: N_2  and  N_38
    2  A    between atoms: N_2  and  C_42
    3  A    between atoms: C_6  and  C_19
    4  A    between atoms: C_9  and  C_22
    5  A    between atoms: C_9  and  C_39
    6  A    between atoms: C_11  and  N_30
    7  A    between atoms: C_11  and  C_43
    8  A    between atoms: C_14  and  C_31
    9  A    between atoms: C_19  and  C_26
   10  A    between atoms: C_22  and  C_47
   11  A    between atoms: N_24  and  C_39
   12  A    between atoms: N_24  and  C_48
   13  A    between atoms: C_26  and  C_43
   14  A    between atoms: N_30  and  N_38
   15  A    between atoms: C_32  and  C_47
   16  A    between atoms: C_45  and  C_47
                            x       y       z     vdW  Elec       q    Type
                         _______ _______ _______ _____ _____    ______ ____

>  <TORSDO>
F 16

$$$$
=
 OpenBabel11042420323D

 49 54  0  0  1  0  0  0  0  0999 V2000
  161.5030  208.8000  154.8780 N   0  0  0  0  0  0  0  0  0  0  0  0
  160.4820  212.3150  154.8610 F   0  0  0  0  0  0  0  0  0  0  0  0
  160.9720  211.1120  154.4720 C   0  0  0  0  0  0  0  0  0  0  0  0
  161.0310  210.0830  155.3290 C   0  0  0  0  0  0  0  0  0  0  0  0
  163.0570  207.6740  149.8630 O   0  0  0  0  0  0  0  0  0  0  0  0
  161.7170  208.5310  153.6260 C   0  0  0  0  0  0  0  0  0  0  0  0
  162.1400  207.2200  153.2550 N   0  0  0  0  0  2  0  0  0  0  0  0
  161.5480  210.9700  153.0930 C   0  0  0  0  0  2  0  0  0  0  0  0
  162.1880  206.7910  151.8590 C   0  0  2  0  0  3  0  0  0  0  0  0
  162.2440  209.3720  151.2970 C   0  0  2  0  0  3  0  0  0  0  0  0
  162.5180  207.9280  150.9280 C   0  0  0  0  0  0  0  0  0  0  0  0
  161.3840  209.5440  152.5570 C   0  0  1  0  0  3  0  0  0  0  0  0
  159.6730  209.2150  157.0690 C   0  0  0  0  0  2  0  0  0  0  0  0
  158.0910  212.9930  155.9970 S   0  0  0  0  0  0  0  0  0  0  0  0
  154.4740  211.8730  156.4920 F   0  0  0  0  0  0  0  0  0  0  0  0
  156.4220  213.2070  155.9940 C   0  0  0  0  0  0  0  0  0  0  0  0
  160.5340  210.2420  156.7370 C   0  0  2  0  0  3  0  0  0  0  0  0
  157.9590  211.4030  156.5290 C   0  0  0  0  0  0  0  0  0  0  0  0
  155.8180  212.0260  156.4040 C   0  0  0  0  0  0  0  0  0  0  0  0
  155.7180  214.4530  155.5900 C   0  0  0  0  0  1  0  0  0  0  0  0
  156.6770  211.0160  156.7000 N   0  0  0  0  0  0  0  0  0  0  0  0
  159.0690  210.5370  156.7360 N   0  0  0  0  0  0  0  0  0  0  0  0
  160.9360  206.0110  151.4390 C   0  0  2  0  0  3  0  0  0  0  0  0
  160.7410  203.5560  151.8240 C   0  0  0  0  0  1  0  0  0  0  0  0
  161.2560  204.6280  150.8850 C   0  0  0  0  0  2  0  0  0  0  0  0
  160.1600  206.8170  150.4070 C   0  0  0  0  0  2  0  0  0  0  0  0
  160.3010  206.2150  149.0180 C   0  0  0  0  0  2  0  0  0  0  0  0
  161.0730  207.1490  148.0990 C   0  0  0  0  0  2  0  0  0  0  0  0
  161.8990  206.3730  147.1850 N   0  0  0  0  0  2  0  0  0  0  0  0
  160.2620  200.8260  146.7640 C   0  0  0  0  0  3  0  0  0  0  0  0
  161.4670  202.6590  147.0530 C   0  0  1  0  0  3  0  0  0  0  0  0
  160.4830  201.2320  145.5530 N   0  0  0  0  0  0  0  0  0  0  0  0
  160.8530  201.7260  147.7530 C   0  0  0  0  0  2  0  0  0  0  0  0
  160.8810  204.8460  145.4420 C   0  0  0  0  0  0  0  0  0  0  0  0
  161.3260  202.4140  145.5960 C   0  0  1  0  0  3  0  0  0  0  0  0
  160.6940  203.6130  144.9380 C   0  0  0  0  0  3  0  0  0  0  0  0
  161.8160  203.9890  147.5550 C   0  0  0  0  0  3  0  0  0  0  0  0
  160.3040  206.0100  144.7140 C   0  0  0  0  0  1  0  0  0  0  0  0
  161.5800  205.0450  146.7520 C   0  0  0  0  0  0  0  0  0  0  0  0
  161.5990  210.0570  150.1840 N   0  0  0  0  0  2  0  0  0  0  0  0
  162.4680  211.0730  149.7610 N   0  0  0  0  0  2  0  0  0  0  0  0
  162.2510  211.2540  148.3880 N   0  0  0  0  0  2  0  0  0  0  0  0
  162.2800  212.6840  148.1390 C   0  0  0  0  0  2  0  0  0  0  0  0
  160.8800  213.1710  147.8170 C   0  0  0  0  0  2  0  0  0  0  0  0
  160.3490  212.5080  146.5570 C   0  0  0  0  0  2  0  0  0  0  0  0
  161.0800  212.5460  144.2830 O   0  0  0  0  0  1  0  0  0  0  0  0
  160.6230  213.3570  145.3240 C   0  0  1  0  0  3  0  0  0  0  0  0
  159.3440  214.0510  144.8990 C   0  0  0  0  0  2  0  0  0  0  0  0
  158.2790  213.1490  144.9360 O   0  0  0  0  0  1  0  0  0  0  0  0
  1  4  1  0  0  0  0
  3  2  1  0  0  0  0
  3  4  2  0  0  0  0
  5 11  2  0  0  0  0
  6  1  2  0  0  0  0
  7  6  1  0  0  0  0
  8  3  1  0  0  0  0
  9 23  1  6  0  0  0
  9  7  1  0  0  0  0
 10 40  1  6  0  0  0
 10 12  1  0  0  0  0
 11 10  1  0  0  0  0
 11  9  1  0  0  0  0
 12  8  1  1  0  0  0
 12  6  1  0  0  0  0
 14 18  1  0  0  0  0
 16 14  1  0  0  0  0
 16 19  2  0  0  0  0
 17  4  1  6  0  0  0
 17 13  1  0  0  0  0
 18 21  2  0  0  0  0
 18 22  1  0  0  0  0
 19 15  1  0  0  0  0
 19 21  1  0  0  0  0
 20 16  1  0  0  0  0
 22 17  1  0  0  0  0
 22 13  1  0  0  0  0
 23 26  1  6  0  0  0
 25 23  1  0  0  0  0
 25 24  1  0  0  0  0
 27 26  1  0  0  0  0
 28 27  1  0  0  0  0
 29 28  1  0  0  0  0
 30 33  1  0  0  0  0
 31 37  1  6  0  0  0
 31 33  1  0  0  0  0
 32 35  1  0  0  0  0
 32 30  2  0  0  0  0
 34 39  1  0  0  0  0
 35 36  1  6  0  0  0
 35 31  1  0  0  0  0
 36 34  2  0  0  0  0
 38 34  1  0  0  0  0
 39 29  1  0  0  0  0
 39 37  2  0  0  0  0
 41 40  1  0  0  0  0
 42 41  1  0  0  0  0
 43 42  1  0  0  0  0
 44 43  1  0  0  0  0
 45 44  1  0  0  0  0
 47 46  1  6  0  0  0
 47 45  1  0  0  0  0
 48 49  1  0  0  0  0
 48 47  1  0  0  0  0
M  END
>  <MODEL>
3

>  <REMARK>
 VINA RESULT:      -5.2      1.660      2.711
  Name = 
  16 active torsions:
  status: ('A' for Active; 'I' for Inactive)
    1  A    between atoms: N_2  and  N_38
    2  A    between atoms: N_2  and  C_42
    3  A    between atoms: C_6  and  C_19
    4  A    between atoms: C_9  and  C_22
    5  A    between atoms: C_9  and  C_39
    6  A    between atoms: C_11  and  N_30
    7  A    between atoms: C_11  and  C_43
    8  A    between atoms: C_14  and  C_31
    9  A    between atoms: C_19  and  C_26
   10  A    between atoms: C_22  and  C_47
   11  A    between atoms: N_24  and  C_39
   12  A    between atoms: N_24  and  C_48
   13  A    between atoms: C_26  and  C_43
   14  A    between atoms: N_30  and  N_38
   15  A    between atoms: C_32  and  C_47
   16  A    between atoms: C_45  and  C_47
                            x       y       z     vdW  Elec       q    Type
                         _______ _______ _______ _____ _____    ______ ____

>  <TORSDO>
F 16

$$$$
=
 OpenBabel11042420323D

 49 54  0  0  1  0  0  0  0  0999 V2000
  161.9680  212.0260  150.2330 N   0  0  0  0  0  0  0  0  0  0  0  0
  161.1990  212.4080  146.6740 F   0  0  0  0  0  0  0  0  0  0  0  0
  161.5730  211.8740  147.8640 C   0  0  0  0  0  0  0  0  0  0  0  0
  161.6230  212.6270  148.9710 C   0  0  0  0  0  0  0  0  0  0  0  0
  163.0580  206.8200  150.9720 O   0  0  0  0  0  0  0  0  0  0  0  0
  162.0680  210.7410  150.3940 C   0  0  0  0  0  0  0  0  0  0  0  0
  162.3680  210.2200  151.6880 N   0  0  0  0  0  2  0  0  0  0  0  0
  162.0320  210.4460  147.9100 C   0  0  0  0  0  2  0  0  0  0  0  0
  162.2810  208.7920  151.9840 C   0  0  2  0  0  3  0  0  0  0  0  0
  162.4770  208.4620  149.3700 C   0  0  2  0  0  3  0  0  0  0  0  0
  162.6200  207.9440  150.7860 C   0  0  0  0  0  0  0  0  0  0  0  0
  161.7280  209.7980  149.2650 C   0  0  1  0  0  3  0  0  0  0  0  0
  160.5760  214.4530  150.0640 C   0  0  0  0  0  2  0  0  0  0  0  0
  158.3750  213.6630  146.5340 S   0  0  0  0  0  0  0  0  0  0  0  0
  155.0200  214.4480  148.1780 F   0  0  0  0  0  0  0  0  0  0  0  0
  156.7010  213.8200  146.5640 C   0  0  0  0  0  0  0  0  0  0  0  0
  161.2450  214.0790  148.9160 C   0  0  2  0  0  3  0  0  0  0  0  0
  158.5240  214.1490  148.1380 C   0  0  0  0  0  0  0  0  0  0  0  0
  156.3130  214.2430  147.8300 C   0  0  0  0  0  0  0  0  0  0  0  0
  155.7900  213.5270  145.4260 C   0  0  0  0  0  1  0  0  0  0  0  0
  157.3320  214.4230  148.7100 N   0  0  0  0  0  0  0  0  0  0  0  0
  159.7600  214.2230  148.8370 N   0  0  0  0  0  0  0  0  0  0  0  0
  160.9490  208.4060  152.6390 C   0  0  2  0  0  3  0  0  0  0  0  0
  159.6210  209.9410  154.0870 C   0  0  0  0  0  1  0  0  0  0  0  0
  159.9430  209.5520  152.6590 C   0  0  0  0  0  2  0  0  0  0  0  0
  161.2040  207.9150  154.0570 C   0  0  0  0  0  2  0  0  0  0  0  0
  160.9180  206.4280  154.1850 C   0  0  0  0  0  2  0  0  0  0  0  0
  161.6460  205.6420  153.1060 C   0  0  0  0  0  2  0  0  0  0  0  0
  160.9310  204.4040  152.8280 N   0  0  0  0  0  2  0  0  0  0  0  0
  160.4630  200.6540  148.4300 C   0  0  0  0  0  3  0  0  0  0  0  0
  161.2190  201.7770  150.1800 C   0  0  1  0  0  3  0  0  0  0  0  0
  160.8760  201.7690  147.9140 N   0  0  0  0  0  0  0  0  0  0  0  0
  160.6420  200.6300  149.8800 C   0  0  0  0  0  2  0  0  0  0  0  0
  160.6280  204.4880  150.3170 C   0  0  0  0  0  0  0  0  0  0  0  0
  161.4590  202.5890  148.9610 C   0  0  1  0  0  3  0  0  0  0  0  0
  160.7860  203.9300  149.1040 C   0  0  0  0  0  3  0  0  0  0  0  0
  161.2000  202.4040  151.5020 C   0  0  0  0  0  3  0  0  0  0  0  0
  160.0300  205.8490  150.4040 C   0  0  0  0  0  1  0  0  0  0  0  0
  160.9640  203.7290  151.5640 C   0  0  0  0  0  0  0  0  0  0  0  0
  161.8000  207.4720  148.5420 N   0  0  0  0  0  2  0  0  0  0  0  0
  162.7320  207.0090  147.6020 N   0  0  0  0  0  2  0  0  0  0  0  0
  162.4480  205.6550  147.3750 N   0  0  0  0  0  2  0  0  0  0  0  0
  163.6150  205.0800  146.7300 C   0  0  0  0  0  2  0  0  0  0  0  0
  163.1830  204.3040  145.5000 C   0  0  0  0  0  2  0  0  0  0  0  0
  161.7010  203.9720  145.5580 C   0  0  0  0  0  2  0  0  0  0  0  0
  159.7700  203.9310  144.1530 O   0  0  0  0  0  1  0  0  0  0  0  0
  160.9350  204.6490  144.4300 C   0  0  1  0  0  3  0  0  0  0  0  0
  160.5720  206.0600  144.8470 C   0  0  0  0  0  2  0  0  0  0  0  0
  159.2930  206.0780  145.4060 O   0  0  0  0  0  1  0  0  0  0  0  0
  1  6  2  0  0  0  0
  2  3  1  0  0  0  0
  3  8  1  0  0  0  0
  3  4  2  0  0  0  0
  4  1  1  0  0  0  0
  6  7  1  0  0  0  0
  7  9  1  0  0  0  0
  9 23  1  6  0  0  0
 10 40  1  6  0  0  0
 10 11  1  0  0  0  0
 11  5  2  0  0  0  0
 11  9  1  0  0  0  0
 12  8  1  6  0  0  0
 12 10  1  0  0  0  0
 12  6  1  0  0  0  0
 14 16  1  0  0  0  0
 14 18  1  0  0  0  0
 16 19  2  0  0  0  0
 17  4  1  1  0  0  0
 17 13  1  0  0  0  0
 18 21  2  0  0  0  0
 18 22  1  0  0  0  0
 19 15  1  0  0  0  0
 19 21  1  0  0  0  0
 20 16  1  0  0  0  0
 22 17  1  0  0  0  0
 22 13  1  0  0  0  0
 23 25  1  1  0  0  0
 23 26  1  0  0  0  0
 25 24  1  0  0  0  0
 26 27  1  0  0  0  0
 28 27  1  0  0  0  0
 29 28  1  0  0  0  0
 30 33  1  0  0  0  0
 31 33  1  6  0  0  0
 31 37  1  0  0  0  0
 32 30  2  0  0  0  0
 32 35  1  0  0  0  0
 34 38  1  0  0  0  0
 34 39  1  0  0  0  0
 35 36  1  1  0  0  0
 35 31  1  0  0  0  0
 36 34  2  0  0  0  0
 37 39  2  0  0  0  0
 39 29  1  0  0  0  0
 41 40  1  0  0  0  0
 42 41  1  0  0  0  0
 43 42  1  0  0  0  0
 44 45  1  0  0  0  0
 44 43  1  0  0  0  0
 47 46  1  1  0  0  0
 47 48  1  0  0  0  0
 47 45  1  0  0  0  0
 48 49  1  0  0  0  0
M  END
>  <MODEL>
4

>  <REMARK>
 VINA RESULT:      -4.9      3.404      6.344
  Name = 
  16 active torsions:
  status: ('A' for Active; 'I' for Inactive)
    1  A    between atoms: N_2  and  N_38
    2  A    between atoms: N_2  and  C_42
    3  A    between atoms: C_6  and  C_19
    4  A    between atoms: C_9  and  C_22
    5  A    between atoms: C_9  and  C_39
    6  A    between atoms: C_11  and  N_30
    7  A    between atoms: C_11  and  C_43
    8  A    between atoms: C_14  and  C_31
    9  A    between atoms: C_19  and  C_26
   10  A    between atoms: C_22  and  C_47
   11  A    between atoms: N_24  and  C_39
   12  A    between atoms: N_24  and  C_48
   13  A    between atoms: C_26  and  C_43
   14  A    between atoms: N_30  and  N_38
   15  A    between atoms: C_32  and  C_47
   16  A    between atoms: C_45  and  C_47
                            x       y       z     vdW  Elec       q    Type
                         _______ _______ _______ _____ _____    ______ ____

>  <TORSDO>
F 16

$$$$
=
 OpenBabel11042420323D

 49 54  0  0  1  0  0  0  0  0999 V2000
  161.7980  206.0610  151.2080 N   0  0  0  0  0  0  0  0  0  0  0  0
  159.8310  204.0540  153.5530 F   0  0  0  0  0  0  0  0  0  0  0  0
  160.5820  205.0520  153.0220 C   0  0  0  0  0  0  0  0  0  0  0  0
  161.0510  204.9660  151.7690 C   0  0  0  0  0  0  0  0  0  0  0  0
  162.8770  210.6760  153.7340 O   0  0  0  0  0  0  0  0  0  0  0  0
  161.8990  207.2160  151.7940 C   0  0  0  0  0  0  0  0  0  0  0  0
  162.6190  208.2660  151.1500 N   0  0  0  0  0  2  0  0  0  0  0  0
  160.9720  206.2120  153.8890 C   0  0  0  0  0  2  0  0  0  0  0  0
  162.5880  209.6400  151.6450 C   0  0  2  0  0  3  0  0  0  0  0  0
  161.8290  208.5640  153.9360 C   0  0  2  0  0  3  0  0  0  0  0  0
  162.4460  209.6990  153.1440 C   0  0  0  0  0  0  0  0  0  0  0  0
  161.1440  207.4960  153.0710 C   0  0  1  0  0  3  0  0  0  0  0  0
  161.8800  203.0400  150.6610 C   0  0  0  0  0  2  0  0  0  0  0  0
  160.3400  205.6400  147.6950 S   0  0  0  0  0  0  0  0  0  0  0  0
  163.0780  204.7630  145.1820 F   0  0  0  0  0  0  0  0  0  0  0  0
  161.1380  205.7570  146.2190 C   0  0  0  0  0  0  0  0  0  0  0  0
  160.7360  203.7670  150.9230 C   0  0  2  0  0  3  0  0  0  0  0  0
  161.4180  204.4830  148.2700 C   0  0  0  0  0  0  0  0  0  0  0  0
  162.2240  204.8900  146.2270 C   0  0  0  0  0  0  0  0  0  0  0  0
  160.7520  206.6620  145.1040 C   0  0  0  0  0  1  0  0  0  0  0  0
  162.3820  204.1810  147.3750 N   0  0  0  0  0  0  0  0  0  0  0  0
  161.3560  203.9130  149.5720 N   0  0  0  0  0  0  0  0  0  0  0  0
  161.5610  210.5090  150.9080 C   0  0  2  0  0  3  0  0  0  0  0  0
  159.9880  212.1180  151.9800 C   0  0  0  0  0  1  0  0  0  0  0  0
  160.2510  210.6580  151.6730 C   0  0  0  0  0  2  0  0  0  0  0  0
  161.2930  209.9190  149.5300 C   0  0  0  0  0  2  0  0  0  0  0  0
  161.9170  210.7690  148.4350 C   0  0  0  0  0  2  0  0  0  0  0  0
  162.2420  212.1620  148.9510 C   0  0  0  0  0  2  0  0  0  0  0  0
  161.3860  213.1440  148.2990 N   0  0  0  0  0  2  0  0  0  0  0  0
  162.2840  213.1400  142.5700 C   0  0  0  0  0  3  0  0  0  0  0  0
  162.3040  213.6890  144.7130 C   0  0  1  0  0  3  0  0  0  0  0  0
  161.1150  213.6680  142.7540 N   0  0  0  0  0  0  0  0  0  0  0  0
  163.0650  213.1110  143.8050 C   0  0  0  0  0  2  0  0  0  0  0  0
  159.9980  213.2020  146.1830 C   0  0  0  0  0  0  0  0  0  0  0  0
  161.0150  214.1330  144.1260 C   0  0  1  0  0  3  0  0  0  0  0  0
  159.8710  213.5050  144.8790 C   0  0  0  0  0  3  0  0  0  0  0  0
  162.4430  213.5100  146.1590 C   0  0  0  0  0  3  0  0  0  0  0  0
  158.8160  212.6570  146.9080 C   0  0  0  0  0  1  0  0  0  0  0  0
  161.3190  213.3260  146.8790 C   0  0  0  0  0  0  0  0  0  0  0  0
  160.8640  209.0900  154.8930 N   0  0  0  0  0  2  0  0  0  0  0  0
  161.4360  208.9720  156.1680 N   0  0  0  0  0  2  0  0  0  0  0  0
  160.6590  209.7460  157.0400 N   0  0  0  0  0  2  0  0  0  0  0  0
  160.2540  210.9320  156.3080 C   0  0  0  0  0  2  0  0  0  0  0  0
  158.7860  211.2120  156.5700 C   0  0  0  0  0  2  0  0  0  0  0  0
  158.0230  211.3800  155.2670 C   0  0  0  0  0  2  0  0  0  0  0  0
  156.2820  212.6460  154.2310 O   0  0  0  0  0  1  0  0  0  0  0  0
  156.7550  212.1980  155.4660 C   0  0  1  0  0  3  0  0  0  0  0  0
  155.7000  211.3340  156.1280 C   0  0  0  0  0  2  0  0  0  0  0  0
  155.4210  210.2260  155.3260 O   0  0  0  0  0  1  0  0  0  0  0  0
  1  4  1  0  0  0  0
  1  6  2  0  0  0  0
  3  2  1  0  0  0  0
  3  8  1  0  0  0  0
  4  3  2  0  0  0  0
  6 12  1  0  0  0  0
  7  9  1  0  0  0  0
  7  6  1  0  0  0  0
  9 23  1  6  0  0  0
  9 11  1  0  0  0  0
 10 40  1  1  0  0  0
 11  5  2  0  0  0  0
 11 10  1  0  0  0  0
 12  8  1  1  0  0  0
 12 10  1  0  0  0  0
 13 17  1  0  0  0  0
 14 18  1  0  0  0  0
 15 19  1  0  0  0  0
 16 19  2  0  0  0  0
 16 14  1  0  0  0  0
 17  4  1  1  0  0  0
 18 22  1  0  0  0  0
 19 21  1  0  0  0  0
 20 16  1  0  0  0  0
 21 18  2  0  0  0  0
 22 13  1  0  0  0  0
 22 17  1  0  0  0  0
 23 26  1  6  0  0  0
 23 25  1  0  0  0  0
 25 24  1  0  0  0  0
 27 28  1  0  0  0  0
 27 26  1  0  0  0  0
 29 28  1  0  0  0  0
 30 32  2  0  0  0  0
 30 33  1  0  0  0  0
 31 33  1  6  0  0  0
 31 37  1  0  0  0  0
 32 35  1  0  0  0  0
 34 39  1  0  0  0  0
 34 38  1  0  0  0  0
 35 31  1  0  0  0  0
 35 36  1  1  0  0  0
 36 34  2  0  0  0  0
 37 39  2  0  0  0  0
 39 29  1  0  0  0  0
 40 41  1  0  0  0  0
 41 42  1  0  0  0  0
 43 44  1  0  0  0  0
 43 42  1  0  0  0  0
 45 47  1  0  0  0  0
 45 44  1  0  0  0  0
 47 46  1  6  0  0  0
 47 48  1  0  0  0  0
 49 48  1  0  0  0  0
M  END
>  <MODEL>
5

>  <REMARK>
 VINA RESULT:      -4.7      3.547      8.442
  Name = 
  16 active torsions:
  status: ('A' for Active; 'I' for Inactive)
    1  A    between atoms: N_2  and  N_38
    2  A    between atoms: N_2  and  C_42
    3  A    between atoms: C_6  and  C_19
    4  A    between atoms: C_9  and  C_22
    5  A    between atoms: C_9  and  C_39
    6  A    between atoms: C_11  and  N_30
    7  A    between atoms: C_11  and  C_43
    8  A    between atoms: C_14  and  C_31
    9  A    between atoms: C_19  and  C_26
   10  A    between atoms: C_22  and  C_47
   11  A    between atoms: N_24  and  C_39
   12  A    between atoms: N_24  and  C_48
   13  A    between atoms: C_26  and  C_43
   14  A    between atoms: N_30  and  N_38
   15  A    between atoms: C_32  and  C_47
   16  A    between atoms: C_45  and  C_47
                            x       y       z     vdW  Elec       q    Type
                         _______ _______ _______ _____ _____    ______ ____

>  <TORSDO>
F 16

$$$$
=
 OpenBabel11042420323D

 49 54  0  0  1  0  0  0  0  0999 V2000
  161.4740  210.2150  154.5780 N   0  0  0  0  0  0  0  0  0  0  0  0
  159.8350  213.2570  153.3710 F   0  0  0  0  0  0  0  0  0  0  0  0
  160.4910  212.0700  153.4020 C   0  0  0  0  0  0  0  0  0  0  0  0
  160.8280  211.5010  154.5680 C   0  0  0  0  0  0  0  0  0  0  0  0
  162.6560  207.3240  150.2090 O   0  0  0  0  0  0  0  0  0  0  0  0
  161.5970  209.4820  153.5120 C   0  0  0  0  0  0  0  0  0  0  0  0
  162.2080  208.1980  153.6140 N   0  0  0  0  0  2  0  0  0  0  0  0
  160.9310  211.4450  152.1110 C   0  0  0  0  0  2  0  0  0  0  0  0
  162.1830  207.2410  152.5090 C   0  0  2  0  0  3  0  0  0  0  0  0
  161.7070  209.3480  150.9860 C   0  0  2  0  0  3  0  0  0  0  0  0
  162.1980  207.9260  151.1670 C   0  0  0  0  0  0  0  0  0  0  0  0
  160.9720  209.9160  152.2080 C   0  0  1  0  0  3  0  0  0  0  0  0
  160.0210  211.2310  156.7820 C   0  0  0  0  0  2  0  0  0  0  0  0
  157.2050  213.6040  154.6910 S   0  0  0  0  0  0  0  0  0  0  0  0
  154.2150  212.0110  156.4530 F   0  0  0  0  0  0  0  0  0  0  0  0
  155.5660  213.3890  155.0040 C   0  0  0  0  0  0  0  0  0  0  0  0
  160.4650  212.1640  155.8660 C   0  0  2  0  0  3  0  0  0  0  0  0
  157.6490  212.4520  155.8340 C   0  0  0  0  0  0  0  0  0  0  0  0
  155.4200  212.4210  155.9890 C   0  0  0  0  0  0  0  0  0  0  0  0
  154.4600  214.1060  154.3140 C   0  0  0  0  0  1  0  0  0  0  0  0
  156.5850  211.8950  156.4510 N   0  0  0  0  0  0  0  0  0  0  0  0
  158.9930  212.0680  156.0990 N   0  0  0  0  0  0  0  0  0  0  0  0
  161.0540  206.2110  152.6480 C   0  0  2  0  0  3  0  0  0  0  0  0
  160.8760  206.2340  155.1340 C   0  0  0  0  0  1  0  0  0  0  0  0
  160.1400  206.4890  153.8350 C   0  0  0  0  0  2  0  0  0  0  0  0
  161.6530  204.8170  152.7690 C   0  0  0  0  0  2  0  0  0  0  0  0
  161.7780  204.1510  151.4080 C   0  0  0  0  0  2  0  0  0  0  0  0
  161.2030  202.7430  151.4400 C   0  0  0  0  0  2  0  0  0  0  0  0
  160.4540  202.4860  150.2180 N   0  0  0  0  0  2  0  0  0  0  0  0
  162.7100  205.4290  145.7580 C   0  0  0  0  0  3  0  0  0  0  0  0
  161.3790  204.7630  147.3970 C   0  0  1  0  0  3  0  0  0  0  0  0
  162.0920  204.4110  145.2460 N   0  0  0  0  0  0  0  0  0  0  0  0
  162.3010  205.6700  147.1410 C   0  0  0  0  0  2  0  0  0  0  0  0
  161.1440  202.0280  147.8260 C   0  0  0  0  0  0  0  0  0  0  0  0
  161.1300  203.9050  146.2110 C   0  0  1  0  0  3  0  0  0  0  0  0
  161.3600  202.4610  146.5710 C   0  0  0  0  0  3  0  0  0  0  0  0
  160.9950  204.3140  148.7350 C   0  0  0  0  0  3  0  0  0  0  0  0
  161.3070  200.5770  148.1190 C   0  0  0  0  0  1  0  0  0  0  0  0
  160.8300  202.9910  148.9300 C   0  0  0  0  0  0  0  0  0  0  0  0
  160.8320  209.4300  149.8240 N   0  0  0  0  0  2  0  0  0  0  0  0
  161.6440  209.6800  148.7090 N   0  0  0  0  0  2  0  0  0  0  0  0
  162.2210  210.9440  148.8960 N   0  0  0  0  0  2  0  0  0  0  0  0
  161.5630  211.8510  147.9730 C   0  0  0  0  0  2  0  0  0  0  0  0
  162.0010  213.2740  148.2620 C   0  0  0  0  0  2  0  0  0  0  0  0
  161.2170  214.2670  147.4200 C   0  0  0  0  0  2  0  0  0  0  0  0
  162.7050  213.3400  145.7980 O   0  0  0  0  0  1  0  0  0  0  0  0
  161.5810  214.1550  145.9460 C   0  0  1  0  0  3  0  0  0  0  0  0
  160.4160  213.5530  145.1870 C   0  0  0  0  0  2  0  0  0  0  0  0
  160.8770  212.5750  144.3040 O   0  0  0  0  0  1  0  0  0  0  0  0
  2  3  1  0  0  0  0
  3  4  2  0  0  0  0
  4  1  1  0  0  0  0
  5 11  2  0  0  0  0
  6  7  1  0  0  0  0
  6  1  2  0  0  0  0
  8  3  1  0  0  0  0
  9 23  1  1  0  0  0
  9  7  1  0  0  0  0
 10 40  1  6  0  0  0
 10 11  1  0  0  0  0
 10 12  1  0  0  0  0
 11  9  1  0  0  0  0
 12  8  1  6  0  0  0
 12  6  1  0  0  0  0
 14 16  1  0  0  0  0
 14 18  1  0  0  0  0
 16 19  2  0  0  0  0
 17  4  1  6  0  0  0
 17 22  1  0  0  0  0
 17 13  1  0  0  0  0
 18 22  1  0  0  0  0
 18 21  2  0  0  0  0
 19 21  1  0  0  0  0
 19 15  1  0  0  0  0
 20 16  1  0  0  0  0
 22 13  1  0  0  0  0
 23 26  1  1  0  0  0
 23 25  1  0  0  0  0
 25 24  1  0  0  0  0
 27 28  1  0  0  0  0
 27 26  1  0  0  0  0
 29 28  1  0  0  0  0
 30 33  1  0  0  0  0
 31 33  1  1  0  0  0
 31 37  1  0  0  0  0
 32 30  2  0  0  0  0
 32 35  1  0  0  0  0
 34 38  1  0  0  0  0
 34 39  1  0  0  0  0
 35 36  1  1  0  0  0
 35 31  1  0  0  0  0
 36 34  2  0  0  0  0
 37 39  2  0  0  0  0
 39 29  1  0  0  0  0
 41 42  1  0  0  0  0
 41 40  1  0  0  0  0
 43 44  1  0  0  0  0
 43 42  1  0  0  0  0
 45 44  1  0  0  0  0
 47 46  1  1  0  0  0
 47 45  1  0  0  0  0
 48 47  1  0  0  0  0
 49 48  1  0  0  0  0
M  END
>  <MODEL>
6

>  <REMARK>
 VINA RESULT:      -4.5      1.906      2.306
  Name = 
  16 active torsions:
  status: ('A' for Active; 'I' for Inactive)
    1  A    between atoms: N_2  and  N_38
    2  A    between atoms: N_2  and  C_42
    3  A    between atoms: C_6  and  C_19
    4  A    between atoms: C_9  and  C_22
    5  A    between atoms: C_9  and  C_39
    6  A    between atoms: C_11  and  N_30
    7  A    between atoms: C_11  and  C_43
    8  A    between atoms: C_14  and  C_31
    9  A    between atoms: C_19  and  C_26
   10  A    between atoms: C_22  and  C_47
   11  A    between atoms: N_24  and  C_39
   12  A    between atoms: N_24  and  C_48
   13  A    between atoms: C_26  and  C_43
   14  A    between atoms: N_30  and  N_38
   15  A    between atoms: C_32  and  C_47
   16  A    between atoms: C_45  and  C_47
                            x       y       z     vdW  Elec       q    Type
                         _______ _______ _______ _____ _____    ______ ____

>  <TORSDO>
F 16

$$$$
=
 OpenBabel11042420323D

 49 54  0  0  1  0  0  0  0  0999 V2000
  161.4310  209.0520  153.4470 N   0  0  0  0  0  0  0  0  0  0  0  0
  160.3890  212.4880  154.1600 F   0  0  0  0  0  0  0  0  0  0  0  0
  160.8600  211.3890  153.5200 C   0  0  0  0  0  0  0  0  0  0  0  0
  160.9820  210.2180  154.1620 C   0  0  0  0  0  0  0  0  0  0  0  0
  162.6530  208.9200  148.2190 O   0  0  0  0  0  0  0  0  0  0  0  0
  161.5630  209.0280  152.1550 C   0  0  0  0  0  0  0  0  0  0  0  0
  161.9670  207.8180  151.5160 N   0  0  0  0  0  2  0  0  0  0  0  0
  161.3420  211.5200  152.1050 C   0  0  0  0  0  2  0  0  0  0  0  0
  161.9250  207.6610  150.0650 C   0  0  2  0  0  3  0  0  0  0  0  0
  161.9270  210.3020  149.9980 C   0  0  2  0  0  3  0  0  0  0  0  0
  162.1850  208.9590  149.3460 C   0  0  0  0  0  0  0  0  0  0  0  0
  161.1520  210.2170  151.3200 C   0  0  1  0  0  3  0  0  0  0  0  0
  159.8930  208.9230  155.8230 C   0  0  0  0  0  2  0  0  0  0  0  0
  157.7390  212.5480  155.4340 S   0  0  0  0  0  0  0  0  0  0  0  0
  154.3550  210.8570  155.9570 F   0  0  0  0  0  0  0  0  0  0  0  0
  156.0620  212.5160  155.5580 C   0  0  0  0  0  0  0  0  0  0  0  0
  160.5790  210.1000  155.6030 C   0  0  2  0  0  3  0  0  0  0  0  0
  157.8640  210.8950  155.7230 C   0  0  0  0  0  0  0  0  0  0  0  0
  155.6550  211.2140  155.8170 C   0  0  0  0  0  0  0  0  0  0  0  0
  155.1670  213.6930  155.3910 C   0  0  0  0  0  1  0  0  0  0  0  0
  156.6630  210.3060  155.9050 N   0  0  0  0  0  0  0  0  0  0  0  0
  159.0930  210.1770  155.7310 N   0  0  0  0  0  0  0  0  0  0  0  0
  160.6520  206.9510  149.5860 C   0  0  2  0  0  3  0  0  0  0  0  0
  161.6960  205.1920  151.0110 C   0  0  0  0  0  1  0  0  0  0  0  0
  160.4580  205.5830  150.2300 C   0  0  0  0  0  2  0  0  0  0  0  0
  160.6890  206.8100  148.0710 C   0  0  0  0  0  2  0  0  0  0  0  0
  161.8720  205.9680  147.6230 C   0  0  0  0  0  2  0  0  0  0  0  0
  161.9040  205.8410  146.1090 C   0  0  0  0  0  2  0  0  0  0  0  0
  161.9910  204.4370  145.7310 N   0  0  0  0  0  2  0  0  0  0  0  0
  160.3310  201.0680  150.1490 C   0  0  0  0  0  3  0  0  0  0  0  0
  161.5570  202.2320  148.7220 C   0  0  1  0  0  3  0  0  0  0  0  0
  160.3870  200.2990  149.1070 N   0  0  0  0  0  0  0  0  0  0  0  0
  161.0460  202.3250  149.9330 C   0  0  0  0  0  2  0  0  0  0  0  0
  160.7540  202.2540  146.0620 C   0  0  0  0  0  0  0  0  0  0  0  0
  161.2240  200.9260  148.0990 C   0  0  1  0  0  3  0  0  0  0  0  0
  160.5060  201.1540  146.7950 C   0  0  0  0  0  3  0  0  0  0  0  0
  161.9660  203.3680  147.8950 C   0  0  0  0  0  3  0  0  0  0  0  0
  160.0810  202.3990  144.7410 C   0  0  0  0  0  1  0  0  0  0  0  0
  161.6210  203.3540  146.5930 C   0  0  0  0  0  0  0  0  0  0  0  0
  161.2040  211.1720  149.0790 N   0  0  0  0  0  2  0  0  0  0  0  0
  162.1530  211.7610  148.2310 N   0  0  0  0  0  2  0  0  0  0  0  0
  161.7300  213.0760  147.9910 N   0  0  0  0  0  2  0  0  0  0  0  0
  160.9570  213.4900  149.1480 C   0  0  0  0  0  2  0  0  0  0  0  0
  159.8580  214.4390  148.7090 C   0  0  0  0  0  2  0  0  0  0  0  0
  158.7070  213.6800  148.0690 C   0  0  0  0  0  2  0  0  0  0  0  0
  156.7870  212.5960  148.9880 O   0  0  0  0  0  1  0  0  0  0  0  0
  157.4240  213.8330  148.8740 C   0  0  1  0  0  3  0  0  0  0  0  0
  157.7590  214.3590  150.2550 C   0  0  0  0  0  2  0  0  0  0  0  0
  157.8200  213.3020  151.1650 O   0  0  0  0  0  1  0  0  0  0  0  0
  1  4  1  0  0  0  0
  3  2  1  0  0  0  0
  3  4  2  0  0  0  0
  5 11  2  0  0  0  0
  6  1  2  0  0  0  0
  7  6  1  0  0  0  0
  8  3  1  0  0  0  0
  9 23  1  1  0  0  0
  9  7  1  0  0  0  0
 10 40  1  6  0  0  0
 10 12  1  0  0  0  0
 11 10  1  0  0  0  0
 11  9  1  0  0  0  0
 12  8  1  1  0  0  0
 12  6  1  0  0  0  0
 14 16  1  0  0  0  0
 14 18  1  0  0  0  0
 16 19  2  0  0  0  0
 17  4  1  6  0  0  0
 17 22  1  0  0  0  0
 17 13  1  0  0  0  0
 18 22  1  0  0  0  0
 18 21  2  0  0  0  0
 19 21  1  0  0  0  0
 19 15  1  0  0  0  0
 20 16  1  0  0  0  0
 22 13  1  0  0  0  0
 23 26  1  6  0  0  0
 23 25  1  0  0  0  0
 25 24  1  0  0  0  0
 27 26  1  0  0  0  0
 28 27  1  0  0  0  0
 29 28  1  0  0  0  0
 29 39  1  0  0  0  0
 31 37  1  6  0  0  0
 31 33  1  0  0  0  0
 32 30  2  0  0  0  0
 33 30  1  0  0  0  0
 34 39  1  0  0  0  0
 34 36  2  0  0  0  0
 35 36  1  6  0  0  0
 35 31  1  0  0  0  0
 35 32  1  0  0  0  0
 38 34  1  0  0  0  0
 39 37  2  0  0  0  0
 41 40  1  0  0  0  0
 42 41  1  0  0  0  0
 42 43  1  0  0  0  0
 44 43  1  0  0  0  0
 45 44  1  0  0  0  0
 45 47  1  0  0  0  0
 47 46  1  1  0  0  0
 47 48  1  0  0  0  0
 48 49  1  0  0  0  0
M  END
>  <MODEL>
7

>  <REMARK>
 VINA RESULT:      -4.2      1.064      2.612
  Name = 
  16 active torsions:
  status: ('A' for Active; 'I' for Inactive)
    1  A    between atoms: N_2  and  N_38
    2  A    between atoms: N_2  and  C_42
    3  A    between atoms: C_6  and  C_19
    4  A    between atoms: C_9  and  C_22
    5  A    between atoms: C_9  and  C_39
    6  A    between atoms: C_11  and  N_30
    7  A    between atoms: C_11  and  C_43
    8  A    between atoms: C_14  and  C_31
    9  A    between atoms: C_19  and  C_26
   10  A    between atoms: C_22  and  C_47
   11  A    between atoms: N_24  and  C_39
   12  A    between atoms: N_24  and  C_48
   13  A    between atoms: C_26  and  C_43
   14  A    between atoms: N_30  and  N_38
   15  A    between atoms: C_32  and  C_47
   16  A    between atoms: C_45  and  C_47
                            x       y       z     vdW  Elec       q    Type
                         _______ _______ _______ _____ _____    ______ ____

>  <TORSDO>
F 16

$$$$
=
 OpenBabel11042420323D

 49 54  0  0  1  0  0  0  0  0999 V2000
  160.1820  209.6360  154.1080 N   0  0  0  0  0  0  0  0  0  0  0  0
  161.3290  207.9440  157.1450 F   0  0  0  0  0  0  0  0  0  0  0  0
  161.0380  208.2090  155.8470 C   0  0  0  0  0  0  0  0  0  0  0  0
  160.4310  209.3520  155.4980 C   0  0  0  0  0  0  0  0  0  0  0  0
  161.5700  206.4520  150.0130 O   0  0  0  0  0  0  0  0  0  0  0  0
  160.6740  208.9170  153.1450 C   0  0  0  0  0  0  0  0  0  0  0  0
  160.4200  209.2910  151.7930 N   0  0  0  0  0  2  0  0  0  0  0  0
  161.3100  207.1600  154.8100 C   0  0  0  0  0  2  0  0  0  0  0  0
  161.1150  208.6600  150.6730 C   0  0  2  0  0  3  0  0  0  0  0  0
  161.5930  206.6890  152.3670 C   0  0  2  0  0  3  0  0  0  0  0  0
  161.4500  207.2180  150.9550 C   0  0  0  0  0  0  0  0  0  0  0  0
  161.6240  207.7820  153.4450 C   0  0  1  0  0  3  0  0  0  0  0  0
  158.9700  209.9700  157.2610 C   0  0  0  0  0  2  0  0  0  0  0  0
  158.5280  212.8480  154.1860 S   0  0  0  0  0  0  0  0  0  0  0  0
  154.7730  213.2250  154.7680 F   0  0  0  0  0  0  0  0  0  0  0  0
  157.0000  213.4800  153.8750 C   0  0  0  0  0  0  0  0  0  0  0  0
  160.0790  210.3720  156.5420 C   0  0  2  0  0  3  0  0  0  0  0  0
  157.9580  211.9010  155.4550 C   0  0  0  0  0  0  0  0  0  0  0  0
  156.0950  212.9260  154.7710 C   0  0  0  0  0  0  0  0  0  0  0  0
  156.6780  214.4530  152.7980 C   0  0  0  0  0  1  0  0  0  0  0  0
  156.6300  212.0410  155.6520 N   0  0  0  0  0  0  0  0  0  0  0  0
  158.7700  211.0130  156.2140 N   0  0  0  0  0  0  0  0  0  0  0  0
  162.3220  209.4770  150.1940 C   0  0  2  0  0  3  0  0  0  0  0  0
  161.4290  211.5230  151.3020 C   0  0  0  0  0  1  0  0  0  0  0  0
  162.6510  210.6470  151.1140 C   0  0  0  0  0  2  0  0  0  0  0  0
  162.0640  209.9830  148.7820 C   0  0  0  0  0  2  0  0  0  0  0  0
  161.9540  211.4990  148.7510 C   0  0  0  0  0  2  0  0  0  0  0  0
  162.8760  212.0870  147.6940 C   0  0  0  0  0  2  0  0  0  0  0  0
  162.2100  213.1900  147.0150 N   0  0  0  0  0  2  0  0  0  0  0  0
  161.2260  212.0670  141.4110 C   0  0  0  0  0  3  0  0  0  0  0  0
  161.9340  213.0000  143.2890 C   0  0  1  0  0  3  0  0  0  0  0  0
  160.1790  212.6980  141.8440 N   0  0  0  0  0  0  0  0  0  0  0  0
  162.3610  212.2150  142.3200 C   0  0  0  0  0  2  0  0  0  0  0  0
  160.2180  212.9480  145.4730 C   0  0  0  0  0  0  0  0  0  0  0  0
  160.5270  213.4130  143.0600 C   0  0  1  0  0  3  0  0  0  0  0  0
  159.6810  213.0140  144.2410 C   0  0  0  0  0  3  0  0  0  0  0  0
  162.5270  213.0830  144.6240 C   0  0  0  0  0  3  0  0  0  0  0  0
  159.3280  212.6270  146.6230 C   0  0  0  0  0  1  0  0  0  0  0  0
  161.6920  213.1100  145.6810 C   0  0  0  0  0  0  0  0  0  0  0  0
  162.7990  205.8790  152.4770 N   0  0  0  0  0  2  0  0  0  0  0  0
  162.4980  204.6120  151.9570 N   0  0  0  0  0  2  0  0  0  0  0  0
  161.2060  204.2860  152.3910 N   0  0  0  0  0  2  0  0  0  0  0  0
  160.8230  203.0650  151.7060 C   0  0  0  0  0  2  0  0  0  0  0  0
  160.2040  203.4090  150.3650 C   0  0  0  0  0  2  0  0  0  0  0  0
  161.0470  202.8700  149.2210 C   0  0  0  0  0  2  0  0  0  0  0  0
  159.1960  201.3770  149.0000 O   0  0  0  0  0  1  0  0  0  0  0  0
  160.5690  201.4940  148.7790 C   0  0  1  0  0  3  0  0  0  0  0  0
  160.8600  201.3140  147.3020 C   0  0  0  0  0  2  0  0  0  0  0  0
  161.5630  200.1260  147.0960 O   0  0  0  0  0  1  0  0  0  0  0  0
  1  4  1  0  0  0  0
  3  2  1  0  0  0  0
  4  3  2  0  0  0  0
  5 11  2  0  0  0  0
  6 12  1  0  0  0  0
  6  1  2  0  0  0  0
  7  6  1  0  0  0  0
  8  3  1  0  0  0  0
  9 23  1  1  0  0  0
  9 11  1  0  0  0  0
  9  7  1  0  0  0  0
 10 40  1  6  0  0  0
 10 12  1  0  0  0  0
 11 10  1  0  0  0  0
 12  8  1  1  0  0  0
 14 18  1  0  0  0  0
 15 19  1  0  0  0  0
 16 14  1  0  0  0  0
 16 19  2  0  0  0  0
 17  4  1  6  0  0  0
 17 13  1  0  0  0  0
 18 21  2  0  0  0  0
 18 22  1  0  0  0  0
 19 21  1  0  0  0  0
 20 16  1  0  0  0  0
 22 17  1  0  0  0  0
 22 13  1  0  0  0  0
 23 26  1  6  0  0  0
 23 25  1  0  0  0  0
 25 24  1  0  0  0  0
 27 26  1  0  0  0  0
 28 27  1  0  0  0  0
 29 28  1  0  0  0  0
 30 32  2  0  0  0  0
 30 33  1  0  0  0  0
 31 33  1  1  0  0  0
 31 37  1  0  0  0  0
 32 35  1  0  0  0  0
 34 39  1  0  0  0  0
 34 38  1  0  0  0  0
 35 31  1  0  0  0  0
 35 36  1  1  0  0  0
 36 34  2  0  0  0  0
 37 39  2  0  0  0  0
 39 29  1  0  0  0  0
 41 42  1  0  0  0  0
 41 40  1  0  0  0  0
 43 42  1  0  0  0  0
 44 43  1  0  0  0  0
 45 44  1  0  0  0  0
 47 46  1  6  0  0  0
 47 45  1  0  0  0  0
 48 47  1  0  0  0  0
 49 48  1  0  0  0  0
M  END
>  <MODEL>
8

>  <REMARK>
 VINA RESULT:      -4.1      2.986      7.376
  Name = 
  16 active torsions:
  status: ('A' for Active; 'I' for Inactive)
    1  A    between atoms: N_2  and  N_38
    2  A    between atoms: N_2  and  C_42
    3  A    between atoms: C_6  and  C_19
    4  A    between atoms: C_9  and  C_22
    5  A    between atoms: C_9  and  C_39
    6  A    between atoms: C_11  and  N_30
    7  A    between atoms: C_11  and  C_43
    8  A    between atoms: C_14  and  C_31
    9  A    between atoms: C_19  and  C_26
   10  A    between atoms: C_22  and  C_47
   11  A    between atoms: N_24  and  C_39
   12  A    between atoms: N_24  and  C_48
   13  A    between atoms: C_26  and  C_43
   14  A    between atoms: N_30  and  N_38
   15  A    between atoms: C_32  and  C_47
   16  A    between atoms: C_45  and  C_47
                            x       y       z     vdW  Elec       q    Type
                         _______ _______ _______ _____ _____    ______ ____

>  <TORSDO>
F 16

$$$$
=
 OpenBabel11042420323D

 49 54  0  0  1  0  0  0  0  0999 V2000
  160.4990  211.5090  153.2020 N   0  0  0  0  0  0  0  0  0  0  0  0
  161.9460  208.7880  155.1770 F   0  0  0  0  0  0  0  0  0  0  0  0
  161.5040  209.5300  154.1310 C   0  0  0  0  0  0  0  0  0  0  0  0
  160.9090  210.7140  154.3300 C   0  0  0  0  0  0  0  0  0  0  0  0
  161.2110  210.1560  148.0540 O   0  0  0  0  0  0  0  0  0  0  0  0
  160.8320  211.2190  151.9800 C   0  0  0  0  0  0  0  0  0  0  0  0
  160.4250  212.0830  150.9210 N   0  0  0  0  0  2  0  0  0  0  0  0
  161.5950  208.9620  152.7450 C   0  0  0  0  0  2  0  0  0  0  0  0
  160.9430  211.9370  149.5630 C   0  0  2  0  0  3  0  0  0  0  0  0
  161.5440  209.4700  150.2940 C   0  0  2  0  0  3  0  0  0  0  0  0
  161.2460  210.5000  149.2240 C   0  0  0  0  0  0  0  0  0  0  0  0
  161.7610  210.0640  151.6930 C   0  0  1  0  0  3  0  0  0  0  0  0
  160.1660  210.3010  156.5440 C   0  0  0  0  0  2  0  0  0  0  0  0
  157.7640  213.4090  154.9640 S   0  0  0  0  0  0  0  0  0  0  0  0
  154.6070  212.1680  156.7190 F   0  0  0  0  0  0  0  0  0  0  0  0
  156.1300  213.4580  155.3610 C   0  0  0  0  0  0  0  0  0  0  0  0
  160.7390  211.2510  155.7220 C   0  0  2  0  0  3  0  0  0  0  0  0
  158.0310  212.0520  155.9230 C   0  0  0  0  0  0  0  0  0  0  0  0
  155.8470  212.4090  156.2270 C   0  0  0  0  0  0  0  0  0  0  0  0
  155.1510  214.4510  154.8450 C   0  0  0  0  0  1  0  0  0  0  0  0
  156.9090  211.6210  156.5380 N   0  0  0  0  0  0  0  0  0  0  0  0
  159.2870  211.3960  156.0430 N   0  0  0  0  0  0  0  0  0  0  0  0
  162.1140  212.8840  149.2740 C   0  0  2  0  0  3  0  0  0  0  0  0
  160.1970  214.4060  148.8020 C   0  0  0  0  0  1  0  0  0  0  0  0
  161.6780  214.3360  149.1140 C   0  0  0  0  0  2  0  0  0  0  0  0
  162.8450  212.4210  148.0220 C   0  0  0  0  0  2  0  0  0  0  0  0
  162.6540  213.4020  146.8770 C   0  0  0  0  0  2  0  0  0  0  0  0
  161.6880  212.8450  145.8430 C   0  0  0  0  0  2  0  0  0  0  0  0
  161.9310  213.4720  144.5500 N   0  0  0  0  0  2  0  0  0  0  0  0
  160.9530  210.3550  139.7590 C   0  0  0  0  0  3  0  0  0  0  0  0
  161.7580  211.8400  141.1880 C   0  0  1  0  0  3  0  0  0  0  0  0
  160.0310  211.2660  139.7940 N   0  0  0  0  0  0  0  0  0  0  0  0
  162.0620  210.6730  140.6560 C   0  0  0  0  0  2  0  0  0  0  0  0
  159.9860  212.9510  143.0170 C   0  0  0  0  0  0  0  0  0  0  0  0
  160.4650  212.3450  140.6640 C   0  0  1  0  0  3  0  0  0  0  0  0
  159.5160  212.5980  141.8070 C   0  0  0  0  0  3  0  0  0  0  0  0
  162.3080  212.3580  142.4410 C   0  0  0  0  0  3  0  0  0  0  0  0
  159.0100  213.2690  144.0960 C   0  0  0  0  0  1  0  0  0  0  0  0
  161.4560  212.9440  143.3050 C   0  0  0  0  0  0  0  0  0  0  0  0
  162.7160  208.6890  149.9220 N   0  0  0  0  0  2  0  0  0  0  0  0
  162.3510  207.3360  149.9800 N   0  0  0  0  0  2  0  0  0  0  0  0
  161.4550  207.1080  148.9260 N   0  0  0  0  0  2  0  0  0  0  0  0
  160.5620  206.0450  149.3520 C   0  0  0  0  0  2  0  0  0  0  0  0
  161.3250  205.0560  150.2130 C   0  0  0  0  0  2  0  0  0  0  0  0
  160.7600  203.6540  150.0630 C   0  0  0  0  0  2  0  0  0  0  0  0
  161.9220  203.7540  147.9790 O   0  0  0  0  0  1  0  0  0  0  0  0
  160.8210  203.1810  148.6180 C   0  0  1  0  0  3  0  0  0  0  0  0
  160.9490  201.6710  148.5900 C   0  0  0  0  0  2  0  0  0  0  0  0
  160.8140  201.1580  149.8810 O   0  0  0  0  0  1  0  0  0  0  0  0
  1  4  1  0  0  0  0
  3  4  2  0  0  0  0
  3  2  1  0  0  0  0
  5 11  2  0  0  0  0
  6  1  2  0  0  0  0
  7  6  1  0  0  0  0
  8  3  1  0  0  0  0
  9 23  1  1  0  0  0
  9  7  1  0  0  0  0
 10 40  1  6  0  0  0
 10 12  1  0  0  0  0
 11  9  1  0  0  0  0
 11 10  1  0  0  0  0
 12  6  1  0  0  0  0
 12  8  1  1  0  0  0
 14 16  1  0  0  0  0
 14 18  1  0  0  0  0
 16 19  2  0  0  0  0
 17  4  1  6  0  0  0
 17 22  1  0  0  0  0
 17 13  1  0  0  0  0
 18 22  1  0  0  0  0
 18 21  2  0  0  0  0
 19 21  1  0  0  0  0
 19 15  1  0  0  0  0
 20 16  1  0  0  0  0
 22 13  1  0  0  0  0
 23 26  1  6  0  0  0
 24 25  1  0  0  0  0
 25 23  1  0  0  0  0
 27 26  1  0  0  0  0
 28 27  1  0  0  0  0
 29 28  1  0  0  0  0
 30 32  2  0  0  0  0
 30 33  1  0  0  0  0
 31 33  1  1  0  0  0
 31 37  1  0  0  0  0
 32 35  1  0  0  0  0
 34 39  1  0  0  0  0
 34 38  1  0  0  0  0
 35 31  1  0  0  0  0
 35 36  1  1  0  0  0
 36 34  2  0  0  0  0
 37 39  2  0  0  0  0
 39 29  1  0  0  0  0
 40 41  1  0  0  0  0
 42 43  1  0  0  0  0
 42 41  1  0  0  0  0
 43 44  1  0  0  0  0
 45 44  1  0  0  0  0
 47 46  1  1  0  0  0
 47 45  1  0  0  0  0
 48 47  1  0  0  0  0
 48 49  1  0  0  0  0
M  END
>  <MODEL>
9

>  <REMARK>
 VINA RESULT:      -4.1      3.399      7.328
  Name = 
  16 active torsions:
  status: ('A' for Active; 'I' for Inactive)
    1  A    between atoms: N_2  and  N_38
    2  A    between atoms: N_2  and  C_42
    3  A    between atoms: C_6  and  C_19
    4  A    between atoms: C_9  and  C_22
    5  A    between atoms: C_9  and  C_39
    6  A    between atoms: C_11  and  N_30
    7  A    between atoms: C_11  and  C_43
    8  A    between atoms: C_14  and  C_31
    9  A    between atoms: C_19  and  C_26
   10  A    between atoms: C_22  and  C_47
   11  A    between atoms: N_24  and  C_39
   12  A    between atoms: N_24  and  C_48
   13  A    between atoms: C_26  and  C_43
   14  A    between atoms: N_30  and  N_38
   15  A    between atoms: C_32  and  C_47
   16  A    between atoms: C_45  and  C_47
                            x       y       z     vdW  Elec       q    Type
                         _______ _______ _______ _____ _____    ______ ____

>  <TORSDO>
F 16

$$$$
