=
 OpenBabel11042420163D

 25 26  0  0  1  0  0  0  0  0999 V2000
  162.4400  207.5190  151.1190 C   0  0  0  0  0  2  0  0  0  0  0  0
  161.0710  208.9720  153.8170 C   0  0  0  0  0  0  0  0  0  0  0  0
  160.8050  206.7150  153.8100 N   0  0  0  0  0  2  0  0  0  0  0  0
  161.6360  206.4510  151.6160 N   0  0  0  0  0  0  0  0  0  0  0  0
  160.8900  208.5510  152.3950 C   0  0  1  0  0  3  0  0  0  0  0  0
  162.0840  208.6860  151.5630 N   0  0  0  0  0  2  0  0  0  0  0  0
  160.9090  207.8980  154.5880 C   0  0  0  0  0  0  0  0  0  0  0  0
  160.7980  207.0830  152.5700 C   0  0  2  0  0  3  0  0  0  0  0  0
  161.0950  207.8580  156.0670 C   0  0  0  0  0  1  0  0  0  0  0  0
  162.4700  210.6590  154.7600 N   0  0  0  0  0  2  0  0  0  0  0  0
  161.3160  210.3600  154.2590 C   0  0  0  0  0  0  0  0  0  0  0  0
  160.3300  211.4370  154.0370 C   0  0  0  0  0  0  0  0  0  0  0  0
  159.3130  211.7030  154.9970 N   0  0  0  0  0  1  0  0  0  0  0  0
  160.3570  212.1050  152.9690 O   0  0  0  0  0  0  0  0  0  0  0  0
  162.0440  205.0490  151.6240 C   0  0  0  0  0  2  0  0  0  0  0  0
  160.8840  204.1340  151.2450 C   0  0  2  0  0  3  0  0  0  0  0  0
  160.7140  203.1510  152.2240 O   0  0  0  0  0  1  0  0  0  0  0  0
  161.0980  203.4960  149.8760 C   0  0  1  0  0  3  0  0  0  0  0  0
  160.2280  202.4200  149.6860 O   0  0  0  0  0  1  0  0  0  0  0  0
  160.9080  204.4420  148.8660 O   0  0  0  0  0  0  0  0  0  0  0  0
  161.5990  203.9280  147.7650 C   0  0  0  0  0  2  0  0  0  0  0  0
  161.9870  205.0510  146.8210 C   0  0  0  0  0  2  0  0  0  0  0  0
  162.1180  204.5220  145.4050 C   0  0  0  0  0  2  0  0  0  0  0  0
  161.2090  205.2970  144.4660 C   0  0  0  0  0  2  0  0  0  0  0  0
  160.3060  206.1380  145.2320 N   0  0  0  0  0  1  0  0  0  0  0  0
  1  6  1  0  0  0  0
  1  4  1  0  0  0  0
  2 11  1  0  0  0  0
  2  7  2  0  0  0  0
  3  7  1  0  0  0  0
  4 15  1  0  0  0  0
  4  8  1  0  0  0  0
  5  6  1  6  0  0  0
  5  8  1  0  0  0  0
  5  2  1  0  0  0  0
  7  9  1  0  0  0  0
  8  3  1  1  0  0  0
 11 10  2  0  0  0  0
 12 11  1  0  0  0  0
 12 13  1  0  0  0  0
 14 12  2  0  0  0  0
 16 15  1  0  0  0  0
 16 17  1  1  0  0  0
 18 19  1  6  0  0  0
 18 16  1  0  0  0  0
 20 18  1  0  0  0  0
 21 20  1  0  0  0  0
 22 21  1  0  0  0  0
 23 22  1  0  0  0  0
 24 25  1  0  0  0  0
 24 23  1  0  0  0  0
M  END
>  <MODEL>
1

>  <REMARK>
 VINA RESULT:      -6.6      0.000      0.000
  Name = 
  10 active torsions:
  status: ('A' for Active; 'I' for Inactive)
    1  A    between atoms: C_1  and  C_15
    2  A    between atoms: C_2  and  C_18
    3  A    between atoms: C_3  and  N_11
    4  A    between atoms: C_3  and  C_21
    5  A    between atoms: C_8  and  C_18
    6  A    between atoms: C_10  and  C_21
    7  A    between atoms: C_10  and  O_25
    8  A    between atoms: C_12  and  C_15
    9  A    between atoms: C_12  and  C_20
   10  A    between atoms: C_20  and  O_25
                            x       y       z     vdW  Elec       q    Type
                         _______ _______ _______ _____ _____    ______ ____

>  <TORSDO>
F 10

$$$$
=
 OpenBabel11042420163D

 25 26  0  0  1  0  0  0  0  0999 V2000
  162.5490  207.6830  148.2380 C   0  0  0  0  0  2  0  0  0  0  0  0
  161.1050  206.8080  151.1380 C   0  0  0  0  0  0  0  0  0  0  0  0
  160.9780  205.1690  149.5690 N   0  0  0  0  0  2  0  0  0  0  0  0
  161.8140  206.5300  147.8310 N   0  0  0  0  0  0  0  0  0  0  0  0
  160.9440  207.4760  149.8120 C   0  0  1  0  0  3  0  0  0  0  0  0
  162.1240  208.2040  149.3490 N   0  0  0  0  0  2  0  0  0  0  0  0
  161.0130  205.4930  150.9510 C   0  0  0  0  0  0  0  0  0  0  0  0
  160.9430  206.2900  148.9250 C   0  0  2  0  0  3  0  0  0  0  0  0
  161.2070  204.4530  152.0020 C   0  0  0  0  0  1  0  0  0  0  0  0
  161.6260  206.8430  153.4660 N   0  0  0  0  0  2  0  0  0  0  0  0
  161.2670  207.5180  152.4240 C   0  0  0  0  0  0  0  0  0  0  0  0
  161.1480  208.9870  152.5260 C   0  0  0  0  0  0  0  0  0  0  0  0
  162.3000  209.8190  152.4290 N   0  0  0  0  0  1  0  0  0  0  0  0
  160.0250  209.5150  152.7440 O   0  0  0  0  0  0  0  0  0  0  0  0
  162.3070  205.5310  146.8870 C   0  0  0  0  0  2  0  0  0  0  0  0
  161.4690  205.5140  145.6130 C   0  0  2  0  0  3  0  0  0  0  0  0
  160.5140  206.5330  145.6580 O   0  0  0  0  0  1  0  0  0  0  0  0
  160.7990  204.1590  145.4020 C   0  0  1  0  0  3  0  0  0  0  0  0
  160.2800  204.0560  144.1090 O   0  0  0  0  0  1  0  0  0  0  0  0
  161.7120  203.1270  145.6300 O   0  0  0  0  0  0  0  0  0  0  0  0
  160.9460  202.0910  146.1710 C   0  0  0  0  0  2  0  0  0  0  0  0
  160.9510  202.1760  147.6860 C   0  0  0  0  0  2  0  0  0  0  0  0
  161.2760  200.8200  148.2850 C   0  0  0  0  0  2  0  0  0  0  0  0
  161.2030  200.8810  149.8010 C   0  0  0  0  0  2  0  0  0  0  0  0
  159.9570  201.5070  150.2130 N   0  0  0  0  0  1  0  0  0  0  0  0
  1  6  1  0  0  0  0
  2 11  1  0  0  0  0
  3  7  1  0  0  0  0
  4  1  1  0  0  0  0
  4  8  1  0  0  0  0
  5  6  1  6  0  0  0
  5  2  1  0  0  0  0
  7  2  2  0  0  0  0
  7  9  1  0  0  0  0
  8  3  1  1  0  0  0
  8  5  1  0  0  0  0
 11 12  1  0  0  0  0
 11 10  2  0  0  0  0
 12 14  2  0  0  0  0
 13 12  1  0  0  0  0
 15  4  1  0  0  0  0
 16 17  1  1  0  0  0
 16 15  1  0  0  0  0
 18 19  1  6  0  0  0
 18 16  1  0  0  0  0
 18 20  1  0  0  0  0
 20 21  1  0  0  0  0
 21 22  1  0  0  0  0
 22 23  1  0  0  0  0
 23 24  1  0  0  0  0
 24 25  1  0  0  0  0
M  END
>  <MODEL>
2

>  <REMARK>
 VINA RESULT:      -6.4      2.621      4.491
  Name = 
  10 active torsions:
  status: ('A' for Active; 'I' for Inactive)
    1  A    between atoms: C_1  and  C_15
    2  A    between atoms: C_2  and  C_18
    3  A    between atoms: C_3  and  N_11
    4  A    between atoms: C_3  and  C_21
    5  A    between atoms: C_8  and  C_18
    6  A    between atoms: C_10  and  C_21
    7  A    between atoms: C_10  and  O_25
    8  A    between atoms: C_12  and  C_15
    9  A    between atoms: C_12  and  C_20
   10  A    between atoms: C_20  and  O_25
                            x       y       z     vdW  Elec       q    Type
                         _______ _______ _______ _____ _____    ______ ____

>  <TORSDO>
F 10

$$$$
=
 OpenBabel11042420163D

 25 26  0  0  1  0  0  0  0  0999 V2000
  161.1630  205.6320  146.5060 C   0  0  0  0  0  2  0  0  0  0  0  0
  161.1440  202.4110  147.4480 C   0  0  0  0  0  0  0  0  0  0  0  0
  160.8810  203.8350  149.1990 N   0  0  0  0  0  2  0  0  0  0  0  0
  161.3230  205.7670  147.9170 N   0  0  0  0  0  0  0  0  0  0  0  0
  161.9640  203.6250  147.1590 C   0  0  1  0  0  3  0  0  0  0  0  0
  161.4650  204.4500  146.0610 N   0  0  0  0  0  2  0  0  0  0  0  0
  160.6320  202.5420  148.6710 C   0  0  0  0  0  0  0  0  0  0  0  0
  161.6310  204.4500  148.3430 C   0  0  2  0  0  3  0  0  0  0  0  0
  159.6780  201.5940  149.3160 C   0  0  0  0  0  1  0  0  0  0  0  0
  161.5020  200.1170  146.9010 N   0  0  0  0  0  2  0  0  0  0  0  0
  161.0040  201.2540  146.5400 C   0  0  0  0  0  0  0  0  0  0  0  0
  160.2130  201.3280  145.2950 C   0  0  0  0  0  0  0  0  0  0  0  0
  159.6140  202.5530  144.8840 N   0  0  0  0  0  1  0  0  0  0  0  0
  160.0270  200.2910  144.6050 O   0  0  0  0  0  0  0  0  0  0  0  0
  160.6860  206.8060  148.7220 C   0  0  0  0  0  2  0  0  0  0  0  0
  161.6980  207.8540  149.1720 C   0  0  2  0  0  3  0  0  0  0  0  0
  162.7510  207.9230  148.2570 O   0  0  0  0  0  1  0  0  0  0  0  0
  162.2230  207.5580  150.5740 C   0  0  1  0  0  3  0  0  0  0  0  0
  162.4210  208.7410  151.2910 O   0  0  0  0  0  1  0  0  0  0  0  0
  161.3300  206.7320  151.2610 O   0  0  0  0  0  0  0  0  0  0  0  0
  162.1050  206.1220  152.2510 C   0  0  0  0  0  2  0  0  0  0  0  0
  161.2950  205.9690  153.5260 C   0  0  0  0  0  2  0  0  0  0  0  0
  160.7970  207.3240  153.9950 C   0  0  0  0  0  2  0  0  0  0  0  0
  160.8960  207.4290  155.5070 C   0  0  0  0  0  2  0  0  0  0  0  0
  161.3730  208.7500  155.8820 N   0  0  0  0  0  1  0  0  0  0  0  0
  1  4  1  0  0  0  0
  2  7  2  0  0  0  0
  4  8  1  0  0  0  0
  4 15  1  0  0  0  0
  5  6  1  6  0  0  0
  5  2  1  0  0  0  0
  5  8  1  0  0  0  0
  6  1  1  0  0  0  0
  7  3  1  0  0  0  0
  7  9  1  0  0  0  0
  8  3  1  6  0  0  0
 11 10  2  0  0  0  0
 11  2  1  0  0  0  0
 12 11  1  0  0  0  0
 13 12  1  0  0  0  0
 14 12  2  0  0  0  0
 15 16  1  0  0  0  0
 16 17  1  6  0  0  0
 16 18  1  0  0  0  0
 18 20  1  0  0  0  0
 18 19  1  1  0  0  0
 20 21  1  0  0  0  0
 21 22  1  0  0  0  0
 22 23  1  0  0  0  0
 23 24  1  0  0  0  0
 24 25  1  0  0  0  0
M  END
>  <MODEL>
3

>  <REMARK>
 VINA RESULT:      -6.4      2.946      8.664
  Name = 
  10 active torsions:
  status: ('A' for Active; 'I' for Inactive)
    1  A    between atoms: C_1  and  C_15
    2  A    between atoms: C_2  and  C_18
    3  A    between atoms: C_3  and  N_11
    4  A    between atoms: C_3  and  C_21
    5  A    between atoms: C_8  and  C_18
    6  A    between atoms: C_10  and  C_21
    7  A    between atoms: C_10  and  O_25
    8  A    between atoms: C_12  and  C_15
    9  A    between atoms: C_12  and  C_20
   10  A    between atoms: C_20  and  O_25
                            x       y       z     vdW  Elec       q    Type
                         _______ _______ _______ _____ _____    ______ ____

>  <TORSDO>
F 10

$$$$
=
 OpenBabel11042420163D

 25 26  0  0  1  0  0  0  0  0999 V2000
  161.0600  205.7640  151.6070 C   0  0  0  0  0  2  0  0  0  0  0  0
  161.0760  208.4440  153.6260 C   0  0  0  0  0  0  0  0  0  0  0  0
  161.0420  209.0090  151.4250 N   0  0  0  0  0  2  0  0  0  0  0  0
  161.3800  206.7960  150.6750 N   0  0  0  0  0  0  0  0  0  0  0  0
  161.8860  207.4240  152.8940 C   0  0  1  0  0  3  0  0  0  0  0  0
  161.2850  206.0930  152.8420 N   0  0  0  0  0  2  0  0  0  0  0  0
  160.7070  209.3800  152.7540 C   0  0  0  0  0  0  0  0  0  0  0  0
  161.7050  207.9010  151.5040 C   0  0  2  0  0  3  0  0  0  0  0  0
  159.8110  210.5350  153.0500 C   0  0  0  0  0  1  0  0  0  0  0  0
  159.8440  207.6890  155.5250 N   0  0  0  0  0  2  0  0  0  0  0  0
  160.8110  208.4230  155.0790 C   0  0  0  0  0  0  0  0  0  0  0  0
  161.6880  209.1160  156.0440 C   0  0  0  0  0  0  0  0  0  0  0  0
  161.9490  210.5110  155.9200 N   0  0  0  0  0  1  0  0  0  0  0  0
  162.2490  208.4660  156.9670 O   0  0  0  0  0  0  0  0  0  0  0  0
  160.8590  206.8650  149.3130 C   0  0  0  0  0  2  0  0  0  0  0  0
  161.9860  206.8080  148.2870 C   0  0  2  0  0  3  0  0  0  0  0  0
  162.5610  208.0720  148.1410 O   0  0  0  0  0  1  0  0  0  0  0  0
  161.4910  206.2850  146.9410 C   0  0  1  0  0  3  0  0  0  0  0  0
  162.5590  206.0770  146.0650 O   0  0  0  0  0  1  0  0  0  0  0  0
  160.7840  205.0930  147.1160 O   0  0  0  0  0  0  0  0  0  0  0  0
  161.7400  204.0870  146.9510 C   0  0  0  0  0  2  0  0  0  0  0  0
  161.3060  202.8310  147.6840 C   0  0  0  0  0  2  0  0  0  0  0  0
  160.8840  203.1710  149.1010 C   0  0  0  0  0  2  0  0  0  0  0  0
  160.6790  201.9010  149.9100 C   0  0  0  0  0  2  0  0  0  0  0  0
  161.1310  200.7500  149.1470 N   0  0  0  0  0  1  0  0  0  0  0  0
  1  6  1  0  0  0  0
  2 11  1  0  0  0  0
  3  7  1  0  0  0  0
  4  8  1  0  0  0  0
  4  1  1  0  0  0  0
  5  6  1  6  0  0  0
  5  2  1  0  0  0  0
  7  9  1  0  0  0  0
  7  2  2  0  0  0  0
  8  3  1  1  0  0  0
  8  5  1  0  0  0  0
 11 10  2  0  0  0  0
 11 12  1  0  0  0  0
 12 14  2  0  0  0  0
 13 12  1  0  0  0  0
 15  4  1  0  0  0  0
 16 17  1  6  0  0  0
 16 15  1  0  0  0  0
 18 19  1  6  0  0  0
 18 20  1  0  0  0  0
 18 16  1  0  0  0  0
 21 20  1  0  0  0  0
 21 22  1  0  0  0  0
 22 23  1  0  0  0  0
 23 24  1  0  0  0  0
 25 24  1  0  0  0  0
M  END
>  <MODEL>
4

>  <REMARK>
 VINA RESULT:      -6.4      2.480      3.812
  Name = 
  10 active torsions:
  status: ('A' for Active; 'I' for Inactive)
    1  A    between atoms: C_1  and  C_15
    2  A    between atoms: C_2  and  C_18
    3  A    between atoms: C_3  and  N_11
    4  A    between atoms: C_3  and  C_21
    5  A    between atoms: C_8  and  C_18
    6  A    between atoms: C_10  and  C_21
    7  A    between atoms: C_10  and  O_25
    8  A    between atoms: C_12  and  C_15
    9  A    between atoms: C_12  and  C_20
   10  A    between atoms: C_20  and  O_25
                            x       y       z     vdW  Elec       q    Type
                         _______ _______ _______ _____ _____    ______ ____

>  <TORSDO>
F 10

$$$$
=
 OpenBabel11042420163D

 25 26  0  0  1  0  0  0  0  0999 V2000
  162.3170  209.6770  151.0210 C   0  0  0  0  0  2  0  0  0  0  0  0
  160.7300  209.3540  153.9590 C   0  0  0  0  0  0  0  0  0  0  0  0
  160.8920  207.3870  152.8330 N   0  0  0  0  0  2  0  0  0  0  0  0
  161.7330  208.3850  150.8660 N   0  0  0  0  0  0  0  0  0  0  0  0
  160.6150  209.6660  152.5030 C   0  0  1  0  0  3  0  0  0  0  0  0
  161.7540  210.3930  151.9450 N   0  0  0  0  0  2  0  0  0  0  0  0
  160.7800  208.0290  154.0930 C   0  0  0  0  0  0  0  0  0  0  0  0
  160.8020  208.3120  151.9330 C   0  0  2  0  0  3  0  0  0  0  0  0
  160.9860  207.2960  155.3760 C   0  0  0  0  0  1  0  0  0  0  0  0
  161.8350  210.8790  155.4230 N   0  0  0  0  0  2  0  0  0  0  0  0
  160.7140  210.3610  155.0400 C   0  0  0  0  0  0  0  0  0  0  0  0
  159.4540  210.8780  155.6090 C   0  0  0  0  0  0  0  0  0  0  0  0
  159.3940  211.3240  156.9610 N   0  0  0  0  0  1  0  0  0  0  0  0
  158.4050  210.8900  154.9110 O   0  0  0  0  0  0  0  0  0  0  0  0
  162.3970  207.2540  150.2230 C   0  0  0  0  0  2  0  0  0  0  0  0
  161.9130  207.0710  148.7890 C   0  0  2  0  0  3  0  0  0  0  0  0
  161.4350  208.2850  148.2910 O   0  0  0  0  0  1  0  0  0  0  0  0
  160.8390  205.9910  148.6950 C   0  0  1  0  0  3  0  0  0  0  0  0
  161.0340  205.1920  147.5650 O   0  0  0  0  0  1  0  0  0  0  0  0
  160.8490  205.1960  149.8440 O   0  0  0  0  0  0  0  0  0  0  0  0
  160.7710  203.8850  149.3660 C   0  0  0  0  0  2  0  0  0  0  0  0
  160.8460  202.9040  150.5220 C   0  0  0  0  0  2  0  0  0  0  0  0
  160.7980  201.4790  150.0020 C   0  0  0  0  0  2  0  0  0  0  0  0
  160.8080  201.4700  148.4830 C   0  0  0  0  0  2  0  0  0  0  0  0
  161.5010  200.2870  147.9990 N   0  0  0  0  0  1  0  0  0  0  0  0
  1  6  1  0  0  0  0
  2  7  2  0  0  0  0
  2 11  1  0  0  0  0
  3  7  1  0  0  0  0
  4  1  1  0  0  0  0
  4  8  1  0  0  0  0
  5  6  1  6  0  0  0
  5  2  1  0  0  0  0
  7  9  1  0  0  0  0
  8  5  1  0  0  0  0
  8  3  1  1  0  0  0
 11 10  2  0  0  0  0
 11 12  1  0  0  0  0
 12 13  1  0  0  0  0
 14 12  2  0  0  0  0
 15  4  1  0  0  0  0
 16 17  1  1  0  0  0
 16 15  1  0  0  0  0
 18 19  1  6  0  0  0
 18 16  1  0  0  0  0
 18 20  1  0  0  0  0
 21 20  1  0  0  0  0
 21 22  1  0  0  0  0
 23 22  1  0  0  0  0
 24 23  1  0  0  0  0
 25 24  1  0  0  0  0
M  END
>  <MODEL>
5

>  <REMARK>
 VINA RESULT:      -6.3      2.338      3.181
  Name = 
  10 active torsions:
  status: ('A' for Active; 'I' for Inactive)
    1  A    between atoms: C_1  and  C_15
    2  A    between atoms: C_2  and  C_18
    3  A    between atoms: C_3  and  N_11
    4  A    between atoms: C_3  and  C_21
    5  A    between atoms: C_8  and  C_18
    6  A    between atoms: C_10  and  C_21
    7  A    between atoms: C_10  and  O_25
    8  A    between atoms: C_12  and  C_15
    9  A    between atoms: C_12  and  C_20
   10  A    between atoms: C_20  and  O_25
                            x       y       z     vdW  Elec       q    Type
                         _______ _______ _______ _____ _____    ______ ____

>  <TORSDO>
F 10

$$$$
=
 OpenBabel11042420163D

 25 26  0  0  1  0  0  0  0  0999 V2000
  162.3300  209.7720  151.3810 C   0  0  0  0  0  2  0  0  0  0  0  0
  160.4560  209.1480  154.0930 C   0  0  0  0  0  0  0  0  0  0  0  0
  160.8610  207.2810  152.8630 N   0  0  0  0  0  2  0  0  0  0  0  0
  161.8480  208.4650  151.0750 N   0  0  0  0  0  0  0  0  0  0  0  0
  160.4810  209.5600  152.6580 C   0  0  1  0  0  3  0  0  0  0  0  0
  161.6260  210.3870  152.2820 N   0  0  0  0  0  2  0  0  0  0  0  0
  160.5740  207.8220  154.1440 C   0  0  0  0  0  0  0  0  0  0  0  0
  160.8120  208.2630  152.0230 C   0  0  2  0  0  3  0  0  0  0  0  0
  160.6850  207.0090  155.3890 C   0  0  0  0  0  1  0  0  0  0  0  0
  159.1300  210.0560  155.8570 N   0  0  0  0  0  2  0  0  0  0  0  0
  160.2610  210.0710  155.2310 C   0  0  0  0  0  0  0  0  0  0  0  0
  161.3550  210.9190  155.7460 C   0  0  0  0  0  0  0  0  0  0  0  0
  162.6820  210.4140  155.8480 N   0  0  0  0  0  1  0  0  0  0  0  0
  161.1110  212.0910  156.1390 O   0  0  0  0  0  0  0  0  0  0  0  0
  162.6460  207.4220  150.4370 C   0  0  0  0  0  2  0  0  0  0  0  0
  162.2890  207.2770  148.9610 C   0  0  2  0  0  3  0  0  0  0  0  0
  161.6180  208.4200  148.5210 O   0  0  0  0  0  1  0  0  0  0  0  0
  161.4470  206.0300  148.7100 C   0  0  1  0  0  3  0  0  0  0  0  0
  160.6050  205.7710  149.7950 O   0  0  0  0  0  1  0  0  0  0  0  0
  160.6880  206.1840  147.5480 O   0  0  0  0  0  0  0  0  0  0  0  0
  161.5300  205.7600  146.5170 C   0  0  0  0  0  2  0  0  0  0  0  0
  161.8830  204.2950  146.7010 C   0  0  0  0  0  2  0  0  0  0  0  0
  161.3070  203.4720  145.5620 C   0  0  0  0  0  2  0  0  0  0  0  0
  160.9000  202.0960  146.0600 C   0  0  0  0  0  2  0  0  0  0  0  0
  160.0660  201.4370  145.0680 N   0  0  0  0  0  1  0  0  0  0  0  0
  1  6  1  0  0  0  0
  2  7  2  0  0  0  0
  2 11  1  0  0  0  0
  3  7  1  0  0  0  0
  4  1  1  0  0  0  0
  4  8  1  0  0  0  0
  5  6  1  1  0  0  0
  5  2  1  0  0  0  0
  7  9  1  0  0  0  0
  8  5  1  0  0  0  0
  8  3  1  1  0  0  0
 11 12  1  0  0  0  0
 11 10  2  0  0  0  0
 12 13  1  0  0  0  0
 12 14  2  0  0  0  0
 15  4  1  0  0  0  0
 16 17  1  1  0  0  0
 16 15  1  0  0  0  0
 18 16  1  0  0  0  0
 18 19  1  1  0  0  0
 20 18  1  0  0  0  0
 21 22  1  0  0  0  0
 21 20  1  0  0  0  0
 23 24  1  0  0  0  0
 23 22  1  0  0  0  0
 25 24  1  0  0  0  0
M  END
>  <MODEL>
6

>  <REMARK>
 VINA RESULT:      -6.1      2.124      2.801
  Name = 
  10 active torsions:
  status: ('A' for Active; 'I' for Inactive)
    1  A    between atoms: C_1  and  C_15
    2  A    between atoms: C_2  and  C_18
    3  A    between atoms: C_3  and  N_11
    4  A    between atoms: C_3  and  C_21
    5  A    between atoms: C_8  and  C_18
    6  A    between atoms: C_10  and  C_21
    7  A    between atoms: C_10  and  O_25
    8  A    between atoms: C_12  and  C_15
    9  A    between atoms: C_12  and  C_20
   10  A    between atoms: C_20  and  O_25
                            x       y       z     vdW  Elec       q    Type
                         _______ _______ _______ _____ _____    ______ ____

>  <TORSDO>
F 10

$$$$
=
 OpenBabel11042420163D

 25 26  0  0  1  0  0  0  0  0999 V2000
  160.5000  207.3710  154.8480 C   0  0  0  0  0  2  0  0  0  0  0  0
  160.0430  210.6730  154.4580 C   0  0  0  0  0  0  0  0  0  0  0  0
  160.5130  209.6190  152.5000 N   0  0  0  0  0  2  0  0  0  0  0  0
  161.0220  207.5580  153.5330 N   0  0  0  0  0  0  0  0  0  0  0  0
  161.0020  209.5700  154.7670 C   0  0  1  0  0  3  0  0  0  0  0  0
  160.4340  208.4680  155.5400 N   0  0  0  0  0  2  0  0  0  0  0  0
  159.8810  210.7190  153.1370 C   0  0  0  0  0  0  0  0  0  0  0  0
  161.1440  208.9670  153.4220 C   0  0  2  0  0  3  0  0  0  0  0  0
  158.9370  211.6170  152.4100 C   0  0  0  0  0  1  0  0  0  0  0  0
  160.1080  212.6390  155.8070 N   0  0  0  0  0  2  0  0  0  0  0  0
  159.4520  211.5800  155.4620 C   0  0  0  0  0  0  0  0  0  0  0  0
  158.0880  211.3780  155.9920 C   0  0  0  0  0  0  0  0  0  0  0  0
  157.7130  211.9060  157.2610 N   0  0  0  0  0  1  0  0  0  0  0  0
  157.2530  210.6970  155.3390 O   0  0  0  0  0  0  0  0  0  0  0  0
  160.8280  206.6200  152.4310 C   0  0  0  0  0  2  0  0  0  0  0  0
  161.8710  205.5080  152.4610 C   0  0  2  0  0  3  0  0  0  0  0  0
  163.1010  205.9990  152.0180 O   0  0  0  0  0  1  0  0  0  0  0  0
  161.4360  204.3110  151.6200 C   0  0  1  0  0  3  0  0  0  0  0  0
  160.7660  203.3690  152.4040 O   0  0  0  0  0  1  0  0  0  0  0  0
  160.6110  204.7290  150.5730 O   0  0  0  0  0  0  0  0  0  0  0  0
  160.9980  203.9450  149.4830 C   0  0  0  0  0  2  0  0  0  0  0  0
  161.1920  204.8160  148.2560 C   0  0  0  0  0  2  0  0  0  0  0  0
  160.6090  206.1970  148.4980 C   0  0  0  0  0  2  0  0  0  0  0  0
  161.6130  207.2690  148.1110 C   0  0  0  0  0  2  0  0  0  0  0  0
  162.2750  207.7800  149.3000 N   0  0  0  0  0  1  0  0  0  0  0  0
  1  6  1  0  0  0  0
  2 11  1  0  0  0  0
  3  7  1  0  0  0  0
  4  1  1  0  0  0  0
  5  2  1  6  0  0  0
  5  6  1  0  0  0  0
  7  2  2  0  0  0  0
  8  3  1  6  0  0  0
  8  4  1  0  0  0  0
  8  5  1  0  0  0  0
  9  7  1  0  0  0  0
 11 10  2  0  0  0  0
 11 12  1  0  0  0  0
 12 13  1  0  0  0  0
 14 12  2  0  0  0  0
 15 16  1  0  0  0  0
 15  4  1  0  0  0  0
 16 17  1  6  0  0  0
 18 19  1  1  0  0  0
 18 16  1  0  0  0  0
 20 18  1  0  0  0  0
 21 20  1  0  0  0  0
 22 23  1  0  0  0  0
 22 21  1  0  0  0  0
 24 23  1  0  0  0  0
 24 25  1  0  0  0  0
M  END
>  <MODEL>
7

>  <REMARK>
 VINA RESULT:      -5.8      2.121      3.230
  Name = 
  10 active torsions:
  status: ('A' for Active; 'I' for Inactive)
    1  A    between atoms: C_1  and  C_15
    2  A    between atoms: C_2  and  C_18
    3  A    between atoms: C_3  and  N_11
    4  A    between atoms: C_3  and  C_21
    5  A    between atoms: C_8  and  C_18
    6  A    between atoms: C_10  and  C_21
    7  A    between atoms: C_10  and  O_25
    8  A    between atoms: C_12  and  C_15
    9  A    between atoms: C_12  and  C_20
   10  A    between atoms: C_20  and  O_25
                            x       y       z     vdW  Elec       q    Type
                         _______ _______ _______ _____ _____    ______ ____

>  <TORSDO>
F 10

$$$$
=
 OpenBabel11042420163D

 25 26  0  0  1  0  0  0  0  0999 V2000
  161.2240  202.8810  151.2560 C   0  0  0  0  0  2  0  0  0  0  0  0
  161.1360  202.9120  147.9020 C   0  0  0  0  0  0  0  0  0  0  0  0
  161.6220  204.9500  148.7820 N   0  0  0  0  0  2  0  0  0  0  0  0
  161.1870  204.2850  151.0050 N   0  0  0  0  0  0  0  0  0  0  0  0
  160.3660  203.0410  149.1750 C   0  0  1  0  0  3  0  0  0  0  0  0
  160.8200  202.1640  150.2520 N   0  0  0  0  0  2  0  0  0  0  0  0
  161.7520  204.0710  147.6750 C   0  0  0  0  0  0  0  0  0  0  0  0
  160.8410  204.3660  149.6320 C   0  0  2  0  0  3  0  0  0  0  0  0
  162.7000  204.3440  146.5560 C   0  0  0  0  0  1  0  0  0  0  0  0
  161.5790  200.6010  147.5110 N   0  0  0  0  0  2  0  0  0  0  0  0
  161.1350  201.7170  147.0340 C   0  0  0  0  0  0  0  0  0  0  0  0
  160.5350  201.7310  145.6840 C   0  0  0  0  0  0  0  0  0  0  0  0
  160.0820  200.5250  145.0760 N   0  0  0  0  0  1  0  0  0  0  0  0
  160.4560  202.8110  145.0410 O   0  0  0  0  0  0  0  0  0  0  0  0
  161.9460  205.2760  151.7620 C   0  0  0  0  0  2  0  0  0  0  0  0
  161.5460  206.6950  151.3710 C   0  0  2  0  0  3  0  0  0  0  0  0
  162.6570  207.3840  150.8800 O   0  0  0  0  0  1  0  0  0  0  0  0
  160.9260  207.4450  152.5470 C   0  0  1  0  0  3  0  0  0  0  0  0
  161.0570  206.7120  153.7290 O   0  0  0  0  0  1  0  0  0  0  0  0
  161.5290  208.6960  152.6960 O   0  0  0  0  0  0  0  0  0  0  0  0
  160.4620  209.5910  152.8050 C   0  0  0  0  0  2  0  0  0  0  0  0
  160.6410  210.4680  154.0310 C   0  0  0  0  0  2  0  0  0  0  0  0
  159.8280  209.9190  155.1900 C   0  0  0  0  0  2  0  0  0  0  0  0
  160.6830  209.8360  156.4420 C   0  0  0  0  0  2  0  0  0  0  0  0
  161.9550  209.2050  156.1330 N   0  0  0  0  0  1  0  0  0  0  0  0
  4  1  1  0  0  0  0
  4 15  1  0  0  0  0
  5  2  1  6  0  0  0
  5  8  1  0  0  0  0
  5  6  1  0  0  0  0
  6  1  1  0  0  0  0
  7  2  2  0  0  0  0
  7  3  1  0  0  0  0
  8  3  1  6  0  0  0
  8  4  1  0  0  0  0
  9  7  1  0  0  0  0
 11 10  2  0  0  0  0
 11  2  1  0  0  0  0
 12 11  1  0  0  0  0
 13 12  1  0  0  0  0
 14 12  2  0  0  0  0
 16 17  1  1  0  0  0
 16 15  1  0  0  0  0
 16 18  1  0  0  0  0
 18 20  1  0  0  0  0
 18 19  1  1  0  0  0
 20 21  1  0  0  0  0
 21 22  1  0  0  0  0
 22 23  1  0  0  0  0
 23 24  1  0  0  0  0
 25 24  1  0  0  0  0
M  END
>  <MODEL>
8

>  <REMARK>
 VINA RESULT:      -5.8      2.860      8.737
  Name = 
  10 active torsions:
  status: ('A' for Active; 'I' for Inactive)
    1  A    between atoms: C_1  and  C_15
    2  A    between atoms: C_2  and  C_18
    3  A    between atoms: C_3  and  N_11
    4  A    between atoms: C_3  and  C_21
    5  A    between atoms: C_8  and  C_18
    6  A    between atoms: C_10  and  C_21
    7  A    between atoms: C_10  and  O_25
    8  A    between atoms: C_12  and  C_15
    9  A    between atoms: C_12  and  C_20
   10  A    between atoms: C_20  and  O_25
                            x       y       z     vdW  Elec       q    Type
                         _______ _______ _______ _____ _____    ______ ____

>  <TORSDO>
F 10

$$$$
=
 OpenBabel11042420163D

 25 26  0  0  1  0  0  0  0  0999 V2000
  160.8760  208.2340  152.0920 C   0  0  0  0  0  2  0  0  0  0  0  0
  161.3390  205.5700  150.1060 C   0  0  0  0  0  0  0  0  0  0  0  0
  161.4390  205.0410  152.3130 N   0  0  0  0  0  2  0  0  0  0  0  0
  161.3880  207.2900  153.0300 N   0  0  0  0  0  0  0  0  0  0  0  0
  161.9640  206.7280  150.8110 C   0  0  1  0  0  3  0  0  0  0  0  0
  161.1370  207.9320  150.8570 N   0  0  0  0  0  2  0  0  0  0  0  0
  161.1560  204.5960  150.9960 C   0  0  0  0  0  0  0  0  0  0  0  0
  161.8920  206.2480  152.2100 C   0  0  2  0  0  3  0  0  0  0  0  0
  160.4760  203.2950  150.7300 C   0  0  0  0  0  1  0  0  0  0  0  0
  160.1020  206.2600  148.1860 N   0  0  0  0  0  2  0  0  0  0  0  0
  161.0520  205.5210  148.6570 C   0  0  0  0  0  0  0  0  0  0  0  0
  161.8920  204.7490  147.7190 C   0  0  0  0  0  0  0  0  0  0  0  0
  162.7140  205.4110  146.7630 N   0  0  0  0  0  1  0  0  0  0  0  0
  161.8550  203.4900  147.7300 O   0  0  0  0  0  0  0  0  0  0  0  0
  160.9090  207.1500  154.4020 C   0  0  0  0  0  2  0  0  0  0  0  0
  161.2770  208.3690  155.2430 C   0  0  2  0  0  3  0  0  0  0  0  0
  161.8410  207.9590  156.4530 O   0  0  0  0  0  1  0  0  0  0  0  0
  160.0650  209.2630  155.4910 C   0  0  1  0  0  3  0  0  0  0  0  0
  159.9730  209.6130  156.8400 O   0  0  0  0  0  1  0  0  0  0  0  0
  160.1460  210.4170  154.7070 O   0  0  0  0  0  0  0  0  0  0  0  0
  159.1470  211.2550  155.2080 C   0  0  0  0  0  2  0  0  0  0  0  0
  158.6310  212.1660  154.1090 C   0  0  0  0  0  2  0  0  0  0  0  0
  158.9250  211.5630  152.7480 C   0  0  0  0  0  2  0  0  0  0  0  0
  159.6630  212.5640  151.8750 C   0  0  0  0  0  2  0  0  0  0  0  0
  158.8100  213.7090  151.6060 N   0  0  0  0  0  1  0  0  0  0  0  0
  1  4  1  0  0  0  0
  2  7  2  0  0  0  0
  4 15  1  0  0  0  0
  5  2  1  6  0  0  0
  5  6  1  0  0  0  0
  5  8  1  0  0  0  0
  6  1  1  0  0  0  0
  7  3  1  0  0  0  0
  8  3  1  6  0  0  0
  8  4  1  0  0  0  0
  9  7  1  0  0  0  0
 10 11  2  0  0  0  0
 11  2  1  0  0  0  0
 12 14  2  0  0  0  0
 12 11  1  0  0  0  0
 13 12  1  0  0  0  0
 15 16  1  0  0  0  0
 16 18  1  0  0  0  0
 16 17  1  1  0  0  0
 18 19  1  1  0  0  0
 20 21  1  0  0  0  0
 20 18  1  0  0  0  0
 22 21  1  0  0  0  0
 23 22  1  0  0  0  0
 24 23  1  0  0  0  0
 25 24  1  0  0  0  0
M  END
>  <MODEL>
9

>  <REMARK>
 VINA RESULT:      -5.8      2.313      7.584
  Name = 
  10 active torsions:
  status: ('A' for Active; 'I' for Inactive)
    1  A    between atoms: C_1  and  C_15
    2  A    between atoms: C_2  and  C_18
    3  A    between atoms: C_3  and  N_11
    4  A    between atoms: C_3  and  C_21
    5  A    between atoms: C_8  and  C_18
    6  A    between atoms: C_10  and  C_21
    7  A    between atoms: C_10  and  O_25
    8  A    between atoms: C_12  and  C_15
    9  A    between atoms: C_12  and  C_20
   10  A    between atoms: C_20  and  O_25
                            x       y       z     vdW  Elec       q    Type
                         _______ _______ _______ _____ _____    ______ ____

>  <TORSDO>
F 10

$$$$
