=
 OpenBabel11052411033D

 67 72  0  0  1  0  0  0  0  0999 V2000
  162.3900  212.8480  148.8550 N   0  0  0  0  0  0  0  0  0  0  0  0
  160.7650  206.9440  151.2160 O   0  0  0  0  0  0  0  0  0  0  0  0
  160.8040  209.2670  150.8980 C   0  0  0  0  0  2  0  0  0  0  0  0
  161.6020  206.2560  147.7820 C   0  0  1  0  0  3  0  0  0  0  0  0
  160.6780  208.1690  151.9170 C   0  0  2  0  0  3  0  0  0  0  0  0
  161.5990  210.6400  148.4190 N   0  0  0  0  0  2  0  0  0  0  0  0
  162.7810  207.2180  147.6260 C   0  0  0  0  0  2  0  0  0  0  0  0
  160.7090  206.6570  148.9650 C   0  0  0  0  0  2  0  0  0  0  0  0
  162.4460  211.5710  149.0950 C   0  0  0  0  0  3  0  0  0  0  0  0
  161.8010  209.2320  148.5650 C   0  0  0  0  0  0  0  0  0  0  0  0
  161.7640  208.6210  149.9670 C   0  0  2  0  0  3  0  0  0  0  0  0
  161.5030  207.1700  150.0780 N   0  0  1  0  0  0  0  0  0  0  0  0
  162.3240  208.5970  147.5600 N   0  0  0  0  0  0  0  0  0  0  0  0
  161.4460  213.4510  147.9690 C   0  0  0  0  0  0  0  0  0  0  0  0
  161.5370  213.2100  146.6570 C   0  0  0  0  0  3  0  0  0  0  0  0
  159.7800  212.6520  145.0100 C   0  0  0  0  0  1  0  0  0  0  0  0
  160.5850  213.7690  145.6520 C   0  0  0  0  0  2  0  0  0  0  0  0
  160.3390  214.2880  148.5440 C   0  0  0  0  0  2  0  0  0  0  0  0
  160.4010  214.2730  149.9410 O   0  0  0  0  0  1  0  0  0  0  0  0
  160.7240  206.1750  146.5230 C   0  0  0  0  0  2  0  0  0  0  0  0
  161.4640  205.6780  145.2730 C   0  0  1  0  0  3  0  0  0  0  0  0
  161.5200  204.1820  145.2130 C   0  0  0  0  0  0  0  0  0  0  0  0
  160.3180  203.4160  145.0480 N   0  0  0  0  0  2  0  0  0  0  0  0
  162.6380  203.6050  145.2760 O   0  0  0  0  0  0  0  0  0  0  0  0
  160.2830  201.9590  145.1540 C   0  0  0  0  0  2  0  0  0  0  0  0
  161.0630  200.4800  150.4580 O   0  0  0  0  0  1  0  0  0  0  0  0
  161.6920  200.2330  148.1730 C   0  0  0  0  0  0  0  0  0  0  0  0
  160.2920  202.2210  148.9860 C   0  0  1  0  0  3  0  0  0  0  0  0
  160.3870  202.6910  147.5370 C   0  0  0  0  0  2  0  0  0  0  0  0
  160.2090  201.4960  146.6090 C   0  0  2  0  0  3  0  0  0  0  0  0
  161.2210  200.4240  146.9300 C   0  0  0  0  0  3  0  0  0  0  0  0
  162.5930  199.2400  148.3820 F   0  0  0  0  0  0  0  0  0  0  0  0
  161.3930  201.1920  149.3040 C   0  0  1  0  0  3  0  0  0  0  0  0
  160.4250  203.3230  149.8430 O   0  0  0  0  0  0  0  0  0  0  0  0
  160.4370  202.7860  151.1350 C   0  0  0  0  0  2  0  0  0  0  0  0
  161.2500  203.5580  151.9540 O   0  0  0  0  0  1  0  0  0  0  0  0
  160.8950  206.2430  144.0500 N   0  0  0  0  0  2  0  0  0  0  0  0
  161.8220  206.0920  143.0010 N   0  0  0  0  0  2  0  0  0  0  0  0
  161.8400  209.5550  138.0400 C   0  0  0  0  0  3  0  0  0  0  0  0
  162.3450  208.3030  137.5670 O   0  0  0  0  0  0  0  0  0  0  0  0
  161.4210  209.2980  139.5050 C   0  0  0  0  0  3  0  0  0  0  0  0
  161.8340  206.8700  140.6610 C   0  0  0  0  0  0  0  0  0  0  0  0
  162.4590  205.8280  140.2120 N   0  0  0  0  0  0  0  0  0  0  0  0
  162.7040  206.0030  138.7730 C   0  0  0  0  0  2  0  0  0  0  0  0
  162.1600  207.3660  138.5500 C   0  0  0  0  0  0  0  0  0  0  0  0
  161.5910  207.8310  139.6010 C   0  0  0  0  0  0  0  0  0  0  0  0
  161.5300  207.0740  142.0410 N   0  0  0  0  0  2  0  0  0  0  0  0
  161.8260  208.2320  152.9270 C   0  0  0  0  0  2  0  0  0  0  0  0
  161.9620  209.6710  155.0520 C   0  0  1  0  0  0  0  0  0  0  0  0
  163.1240  210.3350  154.2880 C   0  0  0  0  0  1  0  0  0  0  0  0
  160.6290  210.4110  154.8430 C   0  0  1  0  0  3  0  0  0  0  0  0
  159.9990  209.1240  154.3220 C   0  0  0  0  0  2  0  0  0  0  0  0
  161.3520  208.4270  154.3670 C   0  0  1  0  0  3  0  0  0  0  0  0
  159.9730  211.0310  156.0890 C   0  0  2  0  0  3  0  0  0  0  0  0
  158.7170  210.4830  156.3580 O   0  0  0  0  0  1  0  0  0  0  0  0
  159.8660  212.5390  155.9100 C   0  0  0  0  0  2  0  0  0  0  0  0
  159.7440  212.8340  154.5460 O   0  0  0  0  0  0  0  0  0  0  0  0
  158.5210  213.5120  154.3830 C   0  0  1  0  0  3  0  0  0  0  0  0
  158.2220  211.7040  152.7610 O   0  0  0  0  0  0  0  0  0  0  0  0
  156.6050  213.2520  153.0800 O   0  0  0  0  0  0  0  0  0  0  0  0
  157.7810  212.9000  153.2890 N   0  0  0  0  0  0  0  0  0  0  0  0
  157.6900  213.4390  155.6780 C   0  0  0  0  0  2  0  0  0  0  0  0
  156.5530  214.4520  155.6970 C   0  0  0  0  0  2  0  0  0  0  0  0
  155.3010  213.8940  156.3060 C   0  0  0  0  0  3  0  0  0  0  0  0
  155.2010  212.7020  156.5370 O   0  0  0  0  0  0  0  0  0  0  0  0
  162.2600  209.3510  156.4050 O   0  0  0  0  0  0  0  0  0  0  0  0
  161.8870  208.0230  156.6640 C   0  0  0  0  0  1  0  0  0  0  0  0
  1  9  2  0  0  0  0
  2  5  1  0  0  0  0
  3  5  1  0  0  0  0
  4 20  1  6  0  0  0
  4  8  1  0  0  0  0
  5 48  1  1  0  0  0
  6 10  1  0  0  0  0
  6  9  1  0  0  0  0
  7  4  1  0  0  0  0
 10 11  1  0  0  0  0
 11 12  1  0  0  0  0
 11  3  1  1  0  0  0
 12  8  1  6  0  0  0
 12  2  1  0  0  0  0
 13  7  1  0  0  0  0
 13 10  2  0  0  0  0
 14 18  1  0  0  0  0
 14  1  1  0  0  0  0
 15 14  2  0  0  0  0
 16 17  1  0  0  0  0
 17 15  1  0  0  0  0
 18 19  1  0  0  0  0
 21 20  1  1  0  0  0
 22 21  1  0  0  0  0
 22 24  2  0  0  0  0
 23 25  1  0  0  0  0
 23 22  1  0  0  0  0
 27 32  1  0  0  0  0
 27 33  1  0  0  0  0
 28 33  1  0  0  0  0
 28 34  1  1  0  0  0
 29 28  1  0  0  0  0
 30 25  1  6  0  0  0
 30 31  1  0  0  0  0
 30 29  1  0  0  0  0
 31 27  2  0  0  0  0
 33 26  1  1  0  0  0
 34 35  1  0  0  0  0
 35 36  1  0  0  0  0
 37 21  1  0  0  0  0
 38 37  1  0  0  0  0
 39 41  2  0  0  0  0
 40 39  1  0  0  0  0
 40 45  1  0  0  0  0
 41 46  1  0  0  0  0
 42 47  1  0  0  0  0
 43 42  2  0  0  0  0
 44 43  1  0  0  0  0
 45 44  1  0  0  0  0
 45 46  2  0  0  0  0
 46 42  1  0  0  0  0
 47 38  1  0  0  0  0
 49 50  1  6  0  0  0
 49 66  1  0  0  0  0
 51 49  1  0  0  0  0
 51 54  1  1  0  0  0
 52 53  1  0  0  0  0
 52 51  1  0  0  0  0
 53 48  1  6  0  0  0
 53 49  1  0  0  0  0
 54 55  1  6  0  0  0
 56 54  1  0  0  0  0
 57 56  1  0  0  0  0
 58 57  1  0  0  0  0
 58 62  1  1  0  0  0
 59 61  2  0  0  0  0
 60 61  2  0  0  0  0
 61 58  1  0  0  0  0
 62 63  1  0  0  0  0
 63 64  1  0  0  0  0
 64 65  2  0  0  0  0
 66 67  1  0  0  0  0
M  END
>  <MODEL>
1

>  <REMARK>
 VINA RESULT:      -2.8      0.000      0.000
  Name = 
  24 active torsions:
  status: ('A' for Active; 'I' for Inactive)
    1  A    between atoms: C_1  and  O_51
    2  A    between atoms: N_4  and  CA_29
    3  A    between atoms: C_7  and  C_32
    4  A    between atoms: C_7  and  N_54
    5  A    between atoms: C_10  and  C_25
    6  A    between atoms: C_10  and  C_38
    7  A    between atoms: C_14  and  O_18
    8  A    between atoms: C_15  and  C_34
    9  A    between atoms: C_16  and  O_18
   10  A    between atoms: C_19  and  C_30
   11  A    between atoms: C_19  and  C_65
   12  A    between atoms: C_21  and  C_48
   13  A    between atoms: C_22  and  N_37
   14  A    between atoms: C_22  and  C_48
   15  A    between atoms: C_22  and  C_52
   16  A    between atoms: C_25  and  O_60
   17  A    between atoms: C_26  and  C_45
   18  A    between atoms: CA_29  and  C_40
   19  A    between atoms: N_37  and  N_39
   20  A    between atoms: N_39  and  N_63
   21  A    between atoms: C_44  and  C_45
   22  A    between atoms: C_44  and  C_50
   23  A    between atoms: C_50  and  O_60
   24  A    between atoms: C_50  and  N_66
                            x       y       z     vdW  Elec       q    Type
                         _______ _______ _______ _____ _____    ______ ____

>  <TORSDO>
F 24

$$$$
