=
 OpenBabel11052410153D

 25 28  0  0  0  0  0  0  0  0999 V2000
  161.9170  208.8840  149.0100 C   0  0  0  0  0  0  0  0  0  0  0  0
  161.5970  207.7310  148.3930 N   0  0  0  0  0  0  0  0  0  0  0  0
  162.0450  207.3040  150.4770 C   0  0  0  0  0  0  0  0  0  0  0  0
  162.2230  208.6700  150.3430 C   0  0  0  0  0  3  0  0  0  0  0  0
  161.6740  206.7630  149.2920 N   0  0  0  0  0  0  0  0  0  0  0  0
  160.8360  204.5360  150.0520 C   0  0  0  0  0  3  0  0  0  0  0  0
  161.6480  204.9730  147.7380 C   0  0  0  0  0  3  0  0  0  0  0  0
  160.5160  203.2460  150.0660 C   0  0  0  0  0  2  0  0  0  0  0  0
  161.4640  203.6690  147.1820 N   0  0  0  0  0  0  0  0  0  0  0  0
  160.2550  200.9780  149.3390 F   0  0  0  0  0  0  0  0  0  0  0  0
  161.0300  202.4400  147.7610 C   0  0  0  0  0  3  0  0  0  0  0  0
  160.6260  202.2390  149.0100 C   0  0  0  0  0  0  0  0  0  0  0  0
  161.4040  205.3800  148.9870 C   0  0  0  0  0  0  0  0  0  0  0  0
  161.9520  210.1890  148.3500 C   0  0  0  0  0  3  0  0  0  0  0  0
  162.0220  211.2780  149.0400 N   0  0  0  0  0  2  0  0  0  0  0  0
  162.3680  206.5420  151.7250 C   0  0  0  0  0  2  0  0  0  0  0  0
  160.4280  210.3000  154.3980 O   0  0  0  0  0  0  0  0  0  0  0  0
  161.4520  208.5210  152.9720 C   0  0  0  0  0  3  0  0  0  0  0  0
  161.1610  206.2940  153.9210 C   0  0  0  0  0  3  0  0  0  0  0  0
  160.3070  208.1690  155.0430 C   0  0  0  0  0  0  0  0  0  0  0  0
  161.6590  207.1320  152.8960 C   0  0  0  0  0  0  0  0  0  0  0  0
  160.4910  206.8260  154.9860 N   0  0  0  0  0  0  0  0  0  0  0  0
  159.7140  210.2930  155.6430 C   0  0  0  0  0  3  0  0  0  0  0  0
  159.6370  208.8830  156.0620 N   0  0  0  0  0  0  0  0  0  0  0  0
  160.7630  209.0010  154.0790 C   0  0  0  0  0  0  0  0  0  0  0  0
  1  4  1  0  0  0  0
  2  1  2  0  0  0  0
  2  5  1  0  0  0  0
  3 16  1  0  0  0  0
  4  3  2  0  0  0  0
  5  3  1  0  0  0  0
  6  8  1  0  0  0  0
  7 13  1  0  0  0  0
  9  7  2  0  0  0  0
  9 11  1  0  0  0  0
 11 12  2  0  0  0  0
 12 10  1  0  0  0  0
 12  8  1  0  0  0  0
 13  5  1  0  0  0  0
 13  6  2  0  0  0  0
 14  1  1  0  0  0  0
 14 15  2  0  0  0  0
 16 21  1  0  0  0  0
 17 23  1  0  0  0  0
 18 25  2  0  0  0  0
 19 22  1  0  0  0  0
 20 24  1  0  0  0  0
 21 18  1  0  0  0  0
 21 19  2  0  0  0  0
 22 20  2  0  0  0  0
 23 24  2  0  0  0  0
 25 17  1  0  0  0  0
 25 20  1  0  0  0  0
M  END
>  <MODEL>
1

>  <REMARK>
 VINA RESULT:      -8.3      0.000      0.000
  Name = 
  4 active torsions:
  status: ('A' for Active; 'I' for Inactive)
    1  A    between atoms: C_1  and  C_4
    2  A    between atoms: C_7  and  C_14
    3  A    between atoms: C_7  and  C_15
    4  A    between atoms: N_19  and  C_24
                            x       y       z     vdW  Elec       q    Type
                         _______ _______ _______ _____ _____    ______ ____

>  <TORSDO>
F 4

$$$$
=
 OpenBabel11052410153D

 25 28  0  0  0  0  0  0  0  0999 V2000
  162.0410  209.7280  149.4830 C   0  0  0  0  0  0  0  0  0  0  0  0
  161.7920  209.8870  150.7960 N   0  0  0  0  0  0  0  0  0  0  0  0
  161.3540  207.8290  150.2500 C   0  0  0  0  0  0  0  0  0  0  0  0
  161.7680  208.4340  149.0760 C   0  0  0  0  0  3  0  0  0  0  0  0
  161.3730  208.7240  151.2660 N   0  0  0  0  0  0  0  0  0  0  0  0
  161.1010  207.1520  153.1890 C   0  0  0  0  0  3  0  0  0  0  0  0
  160.6410  209.5950  153.3470 C   0  0  0  0  0  3  0  0  0  0  0  0
  160.8080  206.6700  154.3920 C   0  0  0  0  0  2  0  0  0  0  0  0
  160.2370  209.6630  154.7160 N   0  0  0  0  0  0  0  0  0  0  0  0
  160.0460  206.5760  156.6620 F   0  0  0  0  0  0  0  0  0  0  0  0
  160.0560  208.6530  155.7070 C   0  0  0  0  0  3  0  0  0  0  0  0
  160.2900  207.3520  155.5780 C   0  0  0  0  0  0  0  0  0  0  0  0
  161.0040  208.5170  152.6450 C   0  0  0  0  0  0  0  0  0  0  0  0
  162.5200  210.7920  148.6010 C   0  0  0  0  0  3  0  0  0  0  0  0
  162.1050  212.0060  148.7450 N   0  0  0  0  0  2  0  0  0  0  0  0
  160.8260  206.4300  150.3240 C   0  0  0  0  0  2  0  0  0  0  0  0
  160.6940  206.0920  145.3340 O   0  0  0  0  0  0  0  0  0  0  0  0
  160.6950  206.3900  147.8150 C   0  0  0  0  0  3  0  0  0  0  0  0
  161.5290  204.4190  148.9830 C   0  0  0  0  0  3  0  0  0  0  0  0
  161.4070  204.4310  146.6400 C   0  0  0  0  0  0  0  0  0  0  0  0
  161.0090  205.7330  149.0190 C   0  0  0  0  0  0  0  0  0  0  0  0
  161.7210  203.7820  147.7880 N   0  0  0  0  0  0  0  0  0  0  0  0
  161.0730  205.0210  144.4570 C   0  0  0  0  0  3  0  0  0  0  0  0
  161.5430  203.9280  145.3260 N   0  0  0  0  0  0  0  0  0  0  0  0
  160.9120  205.6900  146.6340 C   0  0  0  0  0  0  0  0  0  0  0  0
  1  2  2  0  0  0  0
  2  5  1  0  0  0  0
  3 16  1  0  0  0  0
  3  5  1  0  0  0  0
  4  1  1  0  0  0  0
  4  3  2  0  0  0  0
  5 13  1  0  0  0  0
  6  8  1  0  0  0  0
  7  9  2  0  0  0  0
  8 12  1  0  0  0  0
  9 11  1  0  0  0  0
 12 11  2  0  0  0  0
 12 10  1  0  0  0  0
 13  6  2  0  0  0  0
 13  7  1  0  0  0  0
 14 15  2  0  0  0  0
 14  1  1  0  0  0  0
 17 25  1  0  0  0  0
 18 21  1  0  0  0  0
 19 21  2  0  0  0  0
 20 22  2  0  0  0  0
 21 16  1  0  0  0  0
 22 19  1  0  0  0  0
 23 24  2  0  0  0  0
 23 17  1  0  0  0  0
 24 20  1  0  0  0  0
 25 20  1  0  0  0  0
 25 18  2  0  0  0  0
M  END
>  <MODEL>
2

>  <REMARK>
 VINA RESULT:      -8.3      3.131      6.909
  Name = 
  4 active torsions:
  status: ('A' for Active; 'I' for Inactive)
    1  A    between atoms: C_1  and  C_4
    2  A    between atoms: C_7  and  C_14
    3  A    between atoms: C_7  and  C_15
    4  A    between atoms: N_19  and  C_24
                            x       y       z     vdW  Elec       q    Type
                         _______ _______ _______ _____ _____    ______ ____

>  <TORSDO>
F 4

$$$$
=
 OpenBabel11052410153D

 25 28  0  0  0  0  0  0  0  0999 V2000
  161.9230  208.8890  149.0490 C   0  0  0  0  0  0  0  0  0  0  0  0
  161.6930  207.7570  148.3570 N   0  0  0  0  0  0  0  0  0  0  0  0
  161.8600  207.2610  150.4670 C   0  0  0  0  0  0  0  0  0  0  0  0
  162.0490  208.6300  150.4020 C   0  0  0  0  0  3  0  0  0  0  0  0
  161.6520  206.7600  149.2260 N   0  0  0  0  0  0  0  0  0  0  0  0
  160.9060  204.4620  149.8610 C   0  0  0  0  0  3  0  0  0  0  0  0
  161.6750  205.0630  147.5700 C   0  0  0  0  0  3  0  0  0  0  0  0
  160.6340  203.1630  149.8010 C   0  0  0  0  0  2  0  0  0  0  0  0
  161.5330  203.7890  146.9390 N   0  0  0  0  0  0  0  0  0  0  0  0
  160.4490  200.9330  148.9450 F   0  0  0  0  0  0  0  0  0  0  0  0
  161.1520  202.5120  147.4490 C   0  0  0  0  0  3  0  0  0  0  0  0
  160.7690  202.2240  148.6870 C   0  0  0  0  0  0  0  0  0  0  0  0
  161.4300  205.3880  148.8430 C   0  0  0  0  0  0  0  0  0  0  0  0
  162.0420  210.2140  148.4420 C   0  0  0  0  0  3  0  0  0  0  0  0
  162.0940  211.2750  149.1760 N   0  0  0  0  0  2  0  0  0  0  0  0
  162.0160  206.4580  151.7210 C   0  0  0  0  0  2  0  0  0  0  0  0
  160.4930  206.9190  156.4640 O   0  0  0  0  0  0  0  0  0  0  0  0
  161.2670  206.5470  154.1170 C   0  0  0  0  0  3  0  0  0  0  0  0
  161.1920  208.5870  152.7840 C   0  0  0  0  0  3  0  0  0  0  0  0
  160.5180  208.6280  155.0310 C   0  0  0  0  0  0  0  0  0  0  0  0
  161.4730  207.2050  152.8910 C   0  0  0  0  0  0  0  0  0  0  0  0
  160.7150  209.2820  153.8600 N   0  0  0  0  0  0  0  0  0  0  0  0
  160.0180  208.0640  157.1890 C   0  0  0  0  0  3  0  0  0  0  0  0
  160.0380  209.1870  156.2370 N   0  0  0  0  0  0  0  0  0  0  0  0
  160.7800  207.3090  155.1740 C   0  0  0  0  0  0  0  0  0  0  0  0
  1  4  1  0  0  0  0
  2  1  2  0  0  0  0
  2  5  1  0  0  0  0
  3 16  1  0  0  0  0
  4  3  2  0  0  0  0
  5  3  1  0  0  0  0
  7 13  1  0  0  0  0
  8  6  1  0  0  0  0
  9 11  1  0  0  0  0
  9  7  2  0  0  0  0
 11 12  2  0  0  0  0
 12 10  1  0  0  0  0
 12  8  1  0  0  0  0
 13  5  1  0  0  0  0
 13  6  2  0  0  0  0
 14  1  1  0  0  0  0
 14 15  2  0  0  0  0
 16 21  1  0  0  0  0
 17 23  1  0  0  0  0
 18 25  2  0  0  0  0
 19 21  2  0  0  0  0
 19 22  1  0  0  0  0
 20 25  1  0  0  0  0
 20 24  1  0  0  0  0
 21 18  1  0  0  0  0
 22 20  2  0  0  0  0
 24 23  2  0  0  0  0
 25 17  1  0  0  0  0
M  END
>  <MODEL>
3

>  <REMARK>
 VINA RESULT:      -8.2      1.090      1.384
  Name = 
  4 active torsions:
  status: ('A' for Active; 'I' for Inactive)
    1  A    between atoms: C_1  and  C_4
    2  A    between atoms: C_7  and  C_14
    3  A    between atoms: C_7  and  C_15
    4  A    between atoms: N_19  and  C_24
                            x       y       z     vdW  Elec       q    Type
                         _______ _______ _______ _____ _____    ______ ____

>  <TORSDO>
F 4

$$$$
=
 OpenBabel11052410153D

 25 28  0  0  1  0  0  0  0  0999 V2000
  161.1210  203.8200  151.4920 C   0  0  0  0  0  0  0  0  0  0  0  0
  161.1950  204.6900  152.5170 N   0  0  0  0  0  0  0  0  0  0  0  0
  160.8960  205.8080  150.6770 C   0  0  0  0  0  0  0  0  0  0  0  0
  160.9410  204.4800  150.2890 C   0  0  0  0  0  3  0  0  0  0  0  0
  161.0560  205.9070  152.0180 N   0  0  0  0  0  0  0  0  0  0  0  0
  160.9930  208.4020  152.1450 C   0  0  0  0  0  3  0  0  0  0  0  0
  161.1600  206.9360  154.1520 C   0  0  0  0  0  3  0  0  0  0  0  0
  161.0240  209.6410  152.6220 C   0  0  0  0  0  3  0  0  0  0  0  0
  161.2020  207.9420  155.1660 N   0  0  0  0  0  0  0  0  0  0  0  0
  161.2030  211.4580  154.1730 F   0  0  0  0  0  0  0  0  0  0  0  0
  161.2280  209.3660  155.0940 C   0  0  0  0  0  3  0  0  0  0  0  0
  161.1610  210.1160  153.9990 C   0  0  0  0  0  0  0  0  0  0  0  0
  161.0890  207.1000  152.8280 C   0  0  1  0  0  3  0  0  0  0  0  0
  161.2350  202.3690  151.6340 C   0  0  0  0  0  3  0  0  0  0  0  0
  161.1440  201.5950  150.6040 N   0  0  0  0  0  2  0  0  0  0  0  0
  160.8310  206.9530  149.7160 C   0  0  0  0  0  2  0  0  0  0  0  0
  160.1450  205.8440  144.8850 O   0  0  0  0  0  0  0  0  0  0  0  0
  160.3440  206.4110  147.3120 C   0  0  0  0  0  3  0  0  0  0  0  0
  162.6430  206.2590  148.1110 C   0  0  0  0  0  3  0  0  0  0  0  0
  162.1450  205.7780  145.8690 C   0  0  0  0  0  0  0  0  0  0  0  0
  161.2760  206.5240  148.3590 C   0  0  0  0  0  0  0  0  0  0  0  0
  163.0610  205.8860  146.8640 N   0  0  0  0  0  0  0  0  0  0  0  0
  161.0820  205.4520  143.8720 C   0  0  0  0  0  3  0  0  0  0  0  0
  162.4000  205.4100  144.5280 N   0  0  0  0  0  0  0  0  0  0  0  0
  160.8310  206.0280  146.0670 C   0  0  0  0  0  0  0  0  0  0  0  0
  1 14  1  0  0  0  0
  1  2  2  0  0  0  0
  3  5  1  0  0  0  0
  4  3  2  0  0  0  0
  4  1  1  0  0  0  0
  5  2  1  0  0  0  0
  6  8  2  0  0  0  0
  6 13  1  0  0  0  0
  7  9  2  0  0  0  0
  8 12  1  0  0  0  0
 11  9  1  0  0  0  0
 12 10  1  0  0  0  0
 12 11  2  0  0  0  0
 13  5  1  1  0  0  0
 13  7  1  0  0  0  0
 15 14  2  0  0  0  0
 16  3  1  0  0  0  0
 17 25  1  0  0  0  0
 18 21  1  0  0  0  0
 19 21  2  0  0  0  0
 20 25  1  0  0  0  0
 20 22  2  0  0  0  0
 21 16  1  0  0  0  0
 22 19  1  0  0  0  0
 23 24  2  0  0  0  0
 23 17  1  0  0  0  0
 24 20  1  0  0  0  0
 25 18  2  0  0  0  0
M  END
>  <MODEL>
4

>  <REMARK>
 VINA RESULT:      -7.8      3.852      7.907
  Name = 
  4 active torsions:
  status: ('A' for Active; 'I' for Inactive)
    1  A    between atoms: C_1  and  C_4
    2  A    between atoms: C_7  and  C_14
    3  A    between atoms: C_7  and  C_15
    4  A    between atoms: N_19  and  C_24
                            x       y       z     vdW  Elec       q    Type
                         _______ _______ _______ _____ _____    ______ ____

>  <TORSDO>
F 4

$$$$
=
 OpenBabel11052410153D

 25 28  0  0  0  0  0  0  0  0999 V2000
  162.1500  210.5060  149.2310 C   0  0  0  0  0  0  0  0  0  0  0  0
  162.0120  209.3400  148.5710 N   0  0  0  0  0  0  0  0  0  0  0  0
  161.8500  208.9550  150.7040 C   0  0  0  0  0  0  0  0  0  0  0  0
  162.0660  210.3180  150.6000 C   0  0  0  0  0  3  0  0  0  0  0  0
  161.8260  208.3910  149.4730 N   0  0  0  0  0  0  0  0  0  0  0  0
  160.9900  206.1260  150.1160 C   0  0  0  0  0  3  0  0  0  0  0  0
  162.0490  206.6160  147.9160 C   0  0  0  0  0  3  0  0  0  0  0  0
  160.7210  204.8250  150.0850 C   0  0  0  0  0  2  0  0  0  0  0  0
  161.9810  205.3130  147.3340 N   0  0  0  0  0  0  0  0  0  0  0  0
  160.6320  202.5570  149.3190 F   0  0  0  0  0  0  0  0  0  0  0  0
  161.5290  204.0620  147.8510 C   0  0  0  0  0  3  0  0  0  0  0  0
  160.9900  203.8340  149.0430 C   0  0  0  0  0  0  0  0  0  0  0  0
  161.6460  207.0020  149.1300 C   0  0  0  0  0  0  0  0  0  0  0  0
  162.3780  211.7970  148.5830 C   0  0  0  0  0  3  0  0  0  0  0  0
  161.3910  212.4780  148.1030 N   0  0  0  0  0  2  0  0  0  0  0  0
  161.8030  208.2170  152.0060 C   0  0  0  0  0  2  0  0  0  0  0  0
  158.4870  211.6620  153.4800 O   0  0  0  0  0  0  0  0  0  0  0  0
  160.1260  209.9880  152.6080 C   0  0  0  0  0  3  0  0  0  0  0  0
  161.1850  208.7120  154.3960 C   0  0  0  0  0  3  0  0  0  0  0  0
  159.6000  210.3640  154.9120 C   0  0  0  0  0  0  0  0  0  0  0  0
  161.0330  208.9940  153.0190 C   0  0  0  0  0  0  0  0  0  0  0  0
  160.4640  209.4060  155.3290 N   0  0  0  0  0  0  0  0  0  0  0  0
  158.0400  212.0300  154.7940 C   0  0  0  0  0  3  0  0  0  0  0  0
  158.7790  211.1690  155.7330 N   0  0  0  0  0  0  0  0  0  0  0  0
  159.4230  210.6570  153.6040 C   0  0  0  0  0  0  0  0  0  0  0  0
  1  4  1  0  0  0  0
  2  1  2  0  0  0  0
  2  5  1  0  0  0  0
  3 16  1  0  0  0  0
  4  3  2  0  0  0  0
  5  3  1  0  0  0  0
  7 13  1  0  0  0  0
  8  6  1  0  0  0  0
  9 11  1  0  0  0  0
  9  7  2  0  0  0  0
 11 12  2  0  0  0  0
 12 10  1  0  0  0  0
 12  8  1  0  0  0  0
 13  5  1  0  0  0  0
 13  6  2  0  0  0  0
 14  1  1  0  0  0  0
 15 14  2  0  0  0  0
 16 21  1  0  0  0  0
 17 25  1  0  0  0  0
 17 23  1  0  0  0  0
 18 21  1  0  0  0  0
 18 25  2  0  0  0  0
 19 22  1  0  0  0  0
 20 22  2  0  0  0  0
 20 24  1  0  0  0  0
 21 19  2  0  0  0  0
 23 24  2  0  0  0  0
 25 20  1  0  0  0  0
M  END
>  <MODEL>
5

>  <REMARK>
 VINA RESULT:      -7.8      1.550      1.943
  Name = 
  4 active torsions:
  status: ('A' for Active; 'I' for Inactive)
    1  A    between atoms: C_1  and  C_4
    2  A    between atoms: C_7  and  C_14
    3  A    between atoms: C_7  and  C_15
    4  A    between atoms: N_19  and  C_24
                            x       y       z     vdW  Elec       q    Type
                         _______ _______ _______ _____ _____    ______ ____

>  <TORSDO>
F 4

$$$$
=
 OpenBabel11052410153D

 25 28  0  0  0  0  0  0  0  0999 V2000
  161.8730  208.9710  149.6770 C   0  0  0  0  0  0  0  0  0  0  0  0
  161.5800  209.3580  150.9330 N   0  0  0  0  0  0  0  0  0  0  0  0
  161.3660  207.1980  150.8010 C   0  0  0  0  0  0  0  0  0  0  0  0
  161.7420  207.6010  149.5320 C   0  0  0  0  0  3  0  0  0  0  0  0
  161.2710  208.2720  151.6220 N   0  0  0  0  0  0  0  0  0  0  0  0
  160.8600  207.0250  153.7480 C   0  0  0  0  0  3  0  0  0  0  0  0
  160.6440  209.4990  153.5520 C   0  0  0  0  0  3  0  0  0  0  0  0
  160.5300  206.7510  155.0050 C   0  0  0  0  0  2  0  0  0  0  0  0
  160.2600  209.8010  154.8940 N   0  0  0  0  0  0  0  0  0  0  0  0
  159.7800  207.0570  157.2600 F   0  0  0  0  0  0  0  0  0  0  0  0
  159.9880  208.9660  156.0180 C   0  0  0  0  0  3  0  0  0  0  0  0
  160.0910  207.6430  156.0780 C   0  0  0  0  0  0  0  0  0  0  0  0
  160.8930  208.3010  153.0130 C   0  0  0  0  0  0  0  0  0  0  0  0
  162.2610  209.8870  148.6040 C   0  0  0  0  0  3  0  0  0  0  0  0
  162.1990  211.1650  148.7710 N   0  0  0  0  0  2  0  0  0  0  0  0
  160.9800  205.7940  151.1480 C   0  0  0  0  0  2  0  0  0  0  0  0
  160.8740  201.4050  148.7470 O   0  0  0  0  0  0  0  0  0  0  0  0
  160.9220  203.5250  150.0710 C   0  0  0  0  0  3  0  0  0  0  0  0
  161.2110  205.4910  148.6590 C   0  0  0  0  0  3  0  0  0  0  0  0
  161.1340  203.3540  147.6940 C   0  0  0  0  0  0  0  0  0  0  0  0
  161.0500  204.9200  149.9420 C   0  0  0  0  0  0  0  0  0  0  0  0
  161.2530  204.6970  147.5470 N   0  0  0  0  0  0  0  0  0  0  0  0
  160.9810  201.1000  147.3490 C   0  0  0  0  0  3  0  0  0  0  0  0
  161.1520  202.3910  146.6600 N   0  0  0  0  0  0  0  0  0  0  0  0
  160.9720  202.7720  148.9040 C   0  0  0  0  0  0  0  0  0  0  0  0
  1  2  2  0  0  0  0
  2  5  1  0  0  0  0
  3 16  1  0  0  0  0
  3  5  1  0  0  0  0
  4  1  1  0  0  0  0
  4  3  2  0  0  0  0
  5 13  1  0  0  0  0
  6  8  1  0  0  0  0
  7  9  2  0  0  0  0
  8 12  1  0  0  0  0
  9 11  1  0  0  0  0
 11 12  2  0  0  0  0
 12 10  1  0  0  0  0
 13  7  1  0  0  0  0
 13  6  2  0  0  0  0
 14 15  2  0  0  0  0
 14  1  1  0  0  0  0
 17 25  1  0  0  0  0
 19 21  2  0  0  0  0
 20 25  1  0  0  0  0
 21 18  1  0  0  0  0
 21 16  1  0  0  0  0
 22 20  2  0  0  0  0
 22 19  1  0  0  0  0
 23 17  1  0  0  0  0
 24 23  2  0  0  0  0
 24 20  1  0  0  0  0
 25 18  2  0  0  0  0
M  END
>  <MODEL>
6

>  <REMARK>
 VINA RESULT:      -7.6      3.189      7.011
  Name = 
  4 active torsions:
  status: ('A' for Active; 'I' for Inactive)
    1  A    between atoms: C_1  and  C_4
    2  A    between atoms: C_7  and  C_14
    3  A    between atoms: C_7  and  C_15
    4  A    between atoms: N_19  and  C_24
                            x       y       z     vdW  Elec       q    Type
                         _______ _______ _______ _____ _____    ______ ____

>  <TORSDO>
F 4

$$$$
=
 OpenBabel11052410153D

 25 28  0  0  0  0  0  0  0  0999 V2000
  161.6850  208.0250  149.9790 C   0  0  0  0  0  0  0  0  0  0  0  0
  161.3590  208.6550  151.1240 N   0  0  0  0  0  0  0  0  0  0  0  0
  161.4510  206.5170  151.5090 C   0  0  0  0  0  0  0  0  0  0  0  0
  161.7480  206.6550  150.1640 C   0  0  0  0  0  3  0  0  0  0  0  0
  161.2170  207.7320  152.0610 N   0  0  0  0  0  0  0  0  0  0  0  0
  160.5940  209.4480  153.7670 C   0  0  0  0  0  3  0  0  0  0  0  0
  160.7510  207.0140  154.2720 C   0  0  0  0  0  3  0  0  0  0  0  0
  160.2770  210.0180  154.9240 C   0  0  0  0  0  2  0  0  0  0  0  0
  160.4090  207.0460  155.6590 N   0  0  0  0  0  0  0  0  0  0  0  0
  159.8060  210.2750  157.2590 F   0  0  0  0  0  0  0  0  0  0  0  0
  160.1370  208.1280  156.5470 C   0  0  0  0  0  3  0  0  0  0  0  0
  160.0860  209.4210  156.2460 C   0  0  0  0  0  0  0  0  0  0  0  0
  160.8600  208.0400  153.4230 C   0  0  0  0  0  0  0  0  0  0  0  0
  161.9230  208.7020  148.7050 C   0  0  0  0  0  3  0  0  0  0  0  0
  162.0890  209.9820  148.6590 N   0  0  0  0  0  2  0  0  0  0  0  0
  161.2750  205.1970  152.1910 C   0  0  0  0  0  2  0  0  0  0  0  0
  161.0410  203.3390  147.5520 O   0  0  0  0  0  0  0  0  0  0  0  0
  161.1540  204.3990  149.8120 C   0  0  0  0  0  3  0  0  0  0  0  0
  161.0680  202.7560  151.6110 C   0  0  0  0  0  3  0  0  0  0  0  0
  160.9760  202.0540  149.3740 C   0  0  0  0  0  0  0  0  0  0  0  0
  161.1530  204.1020  151.1870 C   0  0  0  0  0  0  0  0  0  0  0  0
  160.9790  201.7450  150.6940 N   0  0  0  0  0  0  0  0  0  0  0  0
  160.9360  201.9840  147.0890 C   0  0  0  0  0  3  0  0  0  0  0  0
  160.8940  201.1420  148.2970 N   0  0  0  0  0  0  0  0  0  0  0  0
  161.0610  203.3290  148.9300 C   0  0  0  0  0  0  0  0  0  0  0  0
  1  4  1  0  0  0  0
  1  2  2  0  0  0  0
  2  5  1  0  0  0  0
  3  5  1  0  0  0  0
  3 16  1  0  0  0  0
  4  3  2  0  0  0  0
  5 13  1  0  0  0  0
  6  8  1  0  0  0  0
  7  9  2  0  0  0  0
  8 12  1  0  0  0  0
  9 11  1  0  0  0  0
 12 11  2  0  0  0  0
 12 10  1  0  0  0  0
 13  6  2  0  0  0  0
 13  7  1  0  0  0  0
 14  1  1  0  0  0  0
 15 14  2  0  0  0  0
 17 25  1  0  0  0  0
 18 21  1  0  0  0  0
 20 22  2  0  0  0  0
 21 19  2  0  0  0  0
 21 16  1  0  0  0  0
 22 19  1  0  0  0  0
 23 17  1  0  0  0  0
 23 24  2  0  0  0  0
 24 20  1  0  0  0  0
 25 20  1  0  0  0  0
 25 18  2  0  0  0  0
M  END
>  <MODEL>
7

>  <REMARK>
 VINA RESULT:      -7.5      3.502      7.085
  Name = 
  4 active torsions:
  status: ('A' for Active; 'I' for Inactive)
    1  A    between atoms: C_1  and  C_4
    2  A    between atoms: C_7  and  C_14
    3  A    between atoms: C_7  and  C_15
    4  A    between atoms: N_19  and  C_24
                            x       y       z     vdW  Elec       q    Type
                         _______ _______ _______ _____ _____    ______ ____

>  <TORSDO>
F 4

$$$$
=
 OpenBabel11052410153D

 25 28  0  0  1  0  0  0  0  0999 V2000
  161.0330  204.2950  151.0200 C   0  0  0  0  0  0  0  0  0  0  0  0
  161.2030  204.0150  149.7140 N   0  0  0  0  0  0  0  0  0  0  0  0
  161.2710  206.1710  149.9780 C   0  0  0  0  0  0  0  0  0  0  0  0
  161.0570  205.6600  151.2460 C   0  0  0  0  0  3  0  0  0  0  0  0
  161.3510  205.1640  149.0760 N   0  0  0  0  0  0  0  0  0  0  0  0
  160.5450  205.9860  146.8580 C   0  0  0  0  0  3  0  0  0  0  0  0
  162.6610  204.7050  147.1540 C   0  0  0  0  0  3  0  0  0  0  0  0
  160.4560  206.2030  145.5510 C   0  0  0  0  0  3  0  0  0  0  0  0
  163.0940  204.6610  145.7930 N   0  0  0  0  0  0  0  0  0  0  0  0
  160.9620  206.1240  143.2100 F   0  0  0  0  0  0  0  0  0  0  0  0
  162.4880  205.1230  144.5860 C   0  0  0  0  0  3  0  0  0  0  0  0
  161.3420  205.7830  144.4650 C   0  0  0  0  0  0  0  0  0  0  0  0
  161.5490  205.2550  147.6510 C   0  0  1  0  0  3  0  0  0  0  0  0
  160.8310  203.2840  152.0590 C   0  0  0  0  0  3  0  0  0  0  0  0
  161.2360  202.0700  151.8880 N   0  0  0  0  0  2  0  0  0  0  0  0
  161.2620  207.6340  149.6590 C   0  0  0  0  0  2  0  0  0  0  0  0
  160.5930  208.7180  154.4970 O   0  0  0  0  0  0  0  0  0  0  0  0
  160.8280  208.0720  152.0940 C   0  0  0  0  0  3  0  0  0  0  0  0
  162.3310  209.5590  150.8800 C   0  0  0  0  0  3  0  0  0  0  0  0
  161.9100  209.9210  153.1590 C   0  0  0  0  0  0  0  0  0  0  0  0
  161.4680  208.4400  150.8960 C   0  0  0  0  0  0  0  0  0  0  0  0
  162.5410  210.2900  152.0160 N   0  0  0  0  0  0  0  0  0  0  0  0
  161.1460  209.7660  155.3080 C   0  0  0  0  0  3  0  0  0  0  0  0
  162.0150  210.5560  154.4180 N   0  0  0  0  0  0  0  0  0  0  0  0
  161.0820  208.8540  153.2160 C   0  0  0  0  0  0  0  0  0  0  0  0
  1  4  1  0  0  0  0
  1 14  1  0  0  0  0
  2  1  2  0  0  0  0
  3  4  2  0  0  0  0
  5  2  1  0  0  0  0
  5  3  1  0  0  0  0
  7 13  1  0  0  0  0
  8  6  2  0  0  0  0
  9  7  2  0  0  0  0
 10 12  1  0  0  0  0
 11  9  1  0  0  0  0
 12 11  2  0  0  0  0
 12  8  1  0  0  0  0
 13  6  1  1  0  0  0
 13  5  1  0  0  0  0
 15 14  2  0  0  0  0
 16  3  1  0  0  0  0
 16 21  1  0  0  0  0
 17 23  1  0  0  0  0
 18 25  2  0  0  0  0
 19 21  2  0  0  0  0
 19 22  1  0  0  0  0
 20 25  1  0  0  0  0
 20 24  1  0  0  0  0
 21 18  1  0  0  0  0
 22 20  2  0  0  0  0
 24 23  2  0  0  0  0
 25 17  1  0  0  0  0
M  END
>  <MODEL>
8

>  <REMARK>
 VINA RESULT:      -7.2      2.693      4.327
  Name = 
  4 active torsions:
  status: ('A' for Active; 'I' for Inactive)
    1  A    between atoms: C_1  and  C_4
    2  A    between atoms: C_7  and  C_14
    3  A    between atoms: C_7  and  C_15
    4  A    between atoms: N_19  and  C_24
                            x       y       z     vdW  Elec       q    Type
                         _______ _______ _______ _____ _____    ______ ____

>  <TORSDO>
F 4

$$$$
=
 OpenBabel11052410153D

 25 28  0  0  0  0  0  0  0  0999 V2000
  161.9850  209.9080  149.9760 C   0  0  0  0  0  0  0  0  0  0  0  0
  161.6240  210.6760  151.0220 N   0  0  0  0  0  0  0  0  0  0  0  0
  161.6600  208.5990  151.6640 C   0  0  0  0  0  0  0  0  0  0  0  0
  162.0140  208.5700  150.3260 C   0  0  0  0  0  3  0  0  0  0  0  0
  161.4270  209.8750  152.0560 N   0  0  0  0  0  0  0  0  0  0  0  0
  159.5930  210.6410  153.5690 C   0  0  0  0  0  3  0  0  0  0  0  0
  161.9690  210.4480  154.2920 C   0  0  0  0  0  3  0  0  0  0  0  0
  158.9480  211.1070  154.6330 C   0  0  0  0  0  2  0  0  0  0  0  0
  161.8310  210.8820  155.6460 N   0  0  0  0  0  0  0  0  0  0  0  0
  158.5510  211.9710  156.8320 F   0  0  0  0  0  0  0  0  0  0  0  0
  160.7090  211.3690  156.3810 C   0  0  0  0  0  3  0  0  0  0  0  0
  159.4570  211.4810  155.9530 C   0  0  0  0  0  0  0  0  0  0  0  0
  161.0210  210.3500  153.3550 C   0  0  0  0  0  0  0  0  0  0  0  0
  162.2880  210.4240  148.6420 C   0  0  0  0  0  3  0  0  0  0  0  0
  161.9940  211.6400  148.3210 N   0  0  0  0  0  2  0  0  0  0  0  0
  161.4310  207.3730  152.4910 C   0  0  0  0  0  2  0  0  0  0  0  0
  161.2470  202.4670  151.5250 O   0  0  0  0  0  0  0  0  0  0  0  0
  161.3880  204.8860  152.1400 C   0  0  0  0  0  3  0  0  0  0  0  0
  160.8480  206.3500  150.2660 C   0  0  0  0  0  3  0  0  0  0  0  0
  160.8050  204.0200  149.9870 C   0  0  0  0  0  0  0  0  0  0  0  0
  161.2300  206.1830  151.6170 C   0  0  0  0  0  0  0  0  0  0  0  0
  160.6410  205.2610  149.4650 N   0  0  0  0  0  0  0  0  0  0  0  0
  160.9200  201.7620  150.3180 C   0  0  0  0  0  3  0  0  0  0  0  0
  160.6290  202.7930  149.3080 N   0  0  0  0  0  0  0  0  0  0  0  0
  161.1630  203.8210  151.2750 C   0  0  0  0  0  0  0  0  0  0  0  0
  1  4  1  0  0  0  0
  1  2  2  0  0  0  0
  2  5  1  0  0  0  0
  3  5  1  0  0  0  0
  3 16  1  0  0  0  0
  4  3  2  0  0  0  0
  5 13  1  0  0  0  0
  6  8  1  0  0  0  0
  7  9  2  0  0  0  0
  8 12  1  0  0  0  0
  9 11  1  0  0  0  0
 12 11  2  0  0  0  0
 12 10  1  0  0  0  0
 13  6  2  0  0  0  0
 13  7  1  0  0  0  0
 14  1  1  0  0  0  0
 15 14  2  0  0  0  0
 19 21  2  0  0  0  0
 20 25  1  0  0  0  0
 21 18  1  0  0  0  0
 21 16  1  0  0  0  0
 22 20  2  0  0  0  0
 22 19  1  0  0  0  0
 23 17  1  0  0  0  0
 24 20  1  0  0  0  0
 24 23  2  0  0  0  0
 25 17  1  0  0  0  0
 25 18  2  0  0  0  0
M  END
>  <MODEL>
9

>  <REMARK>
 VINA RESULT:      -7.2      3.677      7.169
  Name = 
  4 active torsions:
  status: ('A' for Active; 'I' for Inactive)
    1  A    between atoms: C_1  and  C_4
    2  A    between atoms: C_7  and  C_14
    3  A    between atoms: C_7  and  C_15
    4  A    between atoms: N_19  and  C_24
                            x       y       z     vdW  Elec       q    Type
                         _______ _______ _______ _____ _____    ______ ____

>  <TORSDO>
F 4

$$$$
