=
 OpenBabel11052409493D

 26 27  0  0  0  0  0  0  0  0999 V2000
  161.0760  205.0960  150.4650 C   0  0  0  0  0  0  0  0  0  0  0  0
  161.1890  205.5780  151.7130 C   0  0  0  0  0  3  0  0  0  0  0  0
  161.0630  203.6200  150.2710 C   0  0  0  0  0  0  0  0  0  0  0  0
  161.0650  201.3630  151.1870 C   0  0  0  0  0  3  0  0  0  0  0  0
  161.0630  202.7470  151.3730 C   0  0  0  0  0  3  0  0  0  0  0  0
  161.0730  203.0690  148.9800 C   0  0  0  0  0  3  0  0  0  0  0  0
  161.0740  201.6820  148.7820 C   0  0  0  0  0  0  0  0  0  0  0  0
  161.0690  200.8320  149.8960 C   0  0  0  0  0  3  0  0  0  0  0  0
  160.6380  201.9110  146.3150 N   0  0  0  0  0  1  0  0  0  0  0  0
  161.4810  199.9480  147.2140 O   0  0  0  0  0  0  0  0  0  0  0  0
  161.0820  201.1250  147.4180 C   0  0  0  0  0  0  0  0  0  0  0  0
  162.1240  206.3770  148.5460 N   0  0  0  0  0  2  0  0  0  0  0  0
  159.8280  206.4270  148.9390 O   0  0  0  0  0  0  0  0  0  0  0  0
  160.9620  206.0010  149.2920 C   0  0  0  0  0  0  0  0  0  0  0  0
  162.0590  207.1850  147.3360 C   0  0  0  0  0  2  0  0  0  0  0  0
  161.6600  206.3430  146.1730 C   0  0  0  0  0  0  0  0  0  0  0  0
  161.6290  204.8650  144.5900 C   0  0  0  0  0  3  0  0  0  0  0  0
  160.4230  205.4660  144.6510 N   0  0  0  0  0  0  0  0  0  0  0  0
  162.4580  205.3990  145.5610 C   0  0  0  0  0  3  0  0  0  0  0  0
  160.4380  206.3630  145.6200 N   0  0  0  0  0  2  0  0  0  0  0  0
  161.1780  207.0260  152.0770 C   0  0  0  0  0  2  0  0  0  0  0  0
  161.0080  207.1660  153.5240 C   0  0  0  0  0  0  0  0  0  0  0  0
  160.8690  207.2820  154.7160 C   0  0  0  0  0  0  0  0  0  0  0  0
  161.6900  208.0370  156.8920 O   0  0  0  0  0  1  0  0  0  0  0  0
  159.6640  206.9830  156.6920 O   0  0  0  0  0  0  0  0  0  0  0  0
  160.7030  207.4200  156.1340 C   0  0  0  0  0  0  0  0  0  0  0  0
  1  2  2  0  0  0  0
  2 21  1  0  0  0  0
  3  1  1  0  0  0  0
  3  5  1  0  0  0  0
  4  5  2  0  0  0  0
  6  3  2  0  0  0  0
  7  6  1  0  0  0  0
  7  8  2  0  0  0  0
  8  4  1  0  0  0  0
  9 11  1  0  0  0  0
 10 11  2  0  0  0  0
 11  7  1  0  0  0  0
 12 14  1  0  0  0  0
 13 14  2  0  0  0  0
 14  1  1  0  0  0  0
 15 12  1  0  0  0  0
 16 15  1  0  0  0  0
 17 18  2  0  0  0  0
 17 19  1  0  0  0  0
 18 20  1  0  0  0  0
 19 16  2  0  0  0  0
 20 16  1  0  0  0  0
 21 22  1  0  0  0  0
 22 23  3  0  0  0  0
 23 26  1  0  0  0  0
 26 25  2  0  0  0  0
 26 24  1  0  0  0  0
M  END
>  <MODEL>
1

>  <REMARK>
 VINA RESULT:      -8.3      0.000      0.000
  Name = 
  8 active torsions:
  status: ('A' for Active; 'I' for Inactive)
    1  A    between atoms: C_2  and  C_12
    2  A    between atoms: C_4  and  C_25
    3  A    between atoms: N_5  and  C_25
    4  A    between atoms: C_8  and  C_12
    5  A    between atoms: C_17  and  C_26
    6  A    between atoms: C_18  and  C_22
    7  A    between atoms: C_19  and  C_20
    8  A    between atoms: C_23  and  C_26
                            x       y       z     vdW  Elec       q    Type
                         _______ _______ _______ _____ _____    ______ ____

>  <TORSDO>
F 8

$$$$
=
 OpenBabel11052409493D

 26 27  0  0  0  0  0  0  0  0999 V2000
  161.6270  206.6860  150.5810 C   0  0  0  0  0  0  0  0  0  0  0  0
  161.7080  207.8760  149.9650 C   0  0  0  0  0  3  0  0  0  0  0  0
  161.4080  205.4690  149.7510 C   0  0  0  0  0  0  0  0  0  0  0  0
  160.7750  203.1240  149.5560 C   0  0  0  0  0  3  0  0  0  0  0  0
  160.9670  204.2680  150.3350 C   0  0  0  0  0  3  0  0  0  0  0  0
  161.6600  205.4900  148.3710 C   0  0  0  0  0  3  0  0  0  0  0  0
  161.4700  204.3490  147.5790 C   0  0  0  0  0  0  0  0  0  0  0  0
  161.0250  203.1650  148.1830 C   0  0  0  0  0  3  0  0  0  0  0  0
  162.4330  205.5000  145.5610 N   0  0  0  0  0  1  0  0  0  0  0  0
  161.3540  203.4570  145.3840 O   0  0  0  0  0  0  0  0  0  0  0  0
  161.7380  204.3950  146.1320 C   0  0  0  0  0  0  0  0  0  0  0  0
  160.7110  207.0270  152.9190 N   0  0  0  0  0  2  0  0  0  0  0  0
  162.7880  206.0350  152.5530 O   0  0  0  0  0  0  0  0  0  0  0  0
  161.7560  206.5650  152.0570 C   0  0  0  0  0  0  0  0  0  0  0  0
  160.7440  206.8510  154.3650 C   0  0  0  0  0  2  0  0  0  0  0  0
  161.2370  208.0930  155.0240 C   0  0  0  0  0  0  0  0  0  0  0  0
  161.7200  210.1550  155.4770 C   0  0  0  0  0  3  0  0  0  0  0  0
  162.0160  209.3910  156.5480 N   0  0  0  0  0  0  0  0  0  0  0  0
  161.2080  209.3550  154.4700 C   0  0  0  0  0  3  0  0  0  0  0  0
  161.7180  208.1350  156.2760 N   0  0  0  0  0  2  0  0  0  0  0  0
  161.9630  209.1790  150.6480 C   0  0  0  0  0  2  0  0  0  0  0  0
  162.0230  210.2500  149.6540 C   0  0  0  0  0  0  0  0  0  0  0  0
  162.0730  211.1320  148.8330 C   0  0  0  0  0  0  0  0  0  0  0  0
  163.2010  213.0670  147.8520 O   0  0  0  0  0  1  0  0  0  0  0  0
  161.2140  212.3000  147.0050 O   0  0  0  0  0  0  0  0  0  0  0  0
  162.1310  212.1820  147.8570 C   0  0  0  0  0  0  0  0  0  0  0  0
  1 14  1  0  0  0  0
  2  1  2  0  0  0  0
  2 21  1  0  0  0  0
  3  5  1  0  0  0  0
  3  1  1  0  0  0  0
  4  5  2  0  0  0  0
  6  3  2  0  0  0  0
  7  8  2  0  0  0  0
  7  6  1  0  0  0  0
  8  4  1  0  0  0  0
  9 11  1  0  0  0  0
 10 11  2  0  0  0  0
 11  7  1  0  0  0  0
 12 15  1  0  0  0  0
 14 13  2  0  0  0  0
 14 12  1  0  0  0  0
 15 16  1  0  0  0  0
 16 20  1  0  0  0  0
 17 18  2  0  0  0  0
 19 16  2  0  0  0  0
 19 17  1  0  0  0  0
 20 18  1  0  0  0  0
 22 21  1  0  0  0  0
 23 22  3  0  0  0  0
 24 26  1  0  0  0  0
 25 26  2  0  0  0  0
 26 23  1  0  0  0  0
M  END
>  <MODEL>
2

>  <REMARK>
 VINA RESULT:      -7.7      3.891      6.822
  Name = 
  8 active torsions:
  status: ('A' for Active; 'I' for Inactive)
    1  A    between atoms: C_2  and  C_12
    2  A    between atoms: C_4  and  C_25
    3  A    between atoms: N_5  and  C_25
    4  A    between atoms: C_8  and  C_12
    5  A    between atoms: C_17  and  C_26
    6  A    between atoms: C_18  and  C_22
    7  A    between atoms: C_19  and  C_20
    8  A    between atoms: C_23  and  C_26
                            x       y       z     vdW  Elec       q    Type
                         _______ _______ _______ _____ _____    ______ ____

>  <TORSDO>
F 8

$$$$
=
 OpenBabel11052409493D

 26 27  0  0  0  0  0  0  0  0999 V2000
  161.5250  206.3720  149.9240 C   0  0  0  0  0  0  0  0  0  0  0  0
  161.7970  207.3870  150.7600 C   0  0  0  0  0  3  0  0  0  0  0  0
  161.2560  205.0260  150.5030 C   0  0  0  0  0  0  0  0  0  0  0  0
  161.1180  203.5370  152.4250 C   0  0  0  0  0  3  0  0  0  0  0  0
  161.3570  204.8030  151.8870 C   0  0  0  0  0  3  0  0  0  0  0  0
  160.9190  203.9460  149.6720 C   0  0  0  0  0  3  0  0  0  0  0  0
  160.6760  202.6710  150.2010 C   0  0  0  0  0  0  0  0  0  0  0  0
  160.7770  202.4740  151.5850 C   0  0  0  0  0  3  0  0  0  0  0  0
  161.3360  200.7930  148.6650 N   0  0  0  0  0  1  0  0  0  0  0  0
  159.1110  201.2570  149.1140 O   0  0  0  0  0  0  0  0  0  0  0  0
  160.3200  201.5530  149.3120 C   0  0  0  0  0  0  0  0  0  0  0  0
  162.4390  205.9220  147.6030 N   0  0  0  0  0  2  0  0  0  0  0  0
  160.5900  207.2990  147.9430 O   0  0  0  0  0  0  0  0  0  0  0  0
  161.4850  206.5690  148.4510 C   0  0  0  0  0  0  0  0  0  0  0  0
  162.3910  206.0070  146.1500 C   0  0  0  0  0  2  0  0  0  0  0  0
  161.6330  204.8520  145.5910 C   0  0  0  0  0  0  0  0  0  0  0  0
  160.8180  202.8770  145.2330 C   0  0  0  0  0  3  0  0  0  0  0  0
  160.2000  203.7590  144.4220 N   0  0  0  0  0  0  0  0  0  0  0  0
  161.7500  203.5430  146.0110 C   0  0  0  0  0  2  0  0  0  0  0  0
  160.6920  204.9640  144.6420 N   0  0  0  0  0  0  0  0  0  0  0  0
  162.0490  208.7980  150.3410 C   0  0  0  0  0  2  0  0  0  0  0  0
  161.5700  209.7100  151.3800 C   0  0  0  0  0  0  0  0  0  0  0  0
  161.1760  210.4610  152.2370 C   0  0  0  0  0  0  0  0  0  0  0  0
  159.8650  212.4080  152.9230 O   0  0  0  0  0  0  0  0  0  0  0  0
  161.0600  211.1880  154.4520 O   0  0  0  0  0  1  0  0  0  0  0  0
  160.7080  211.3560  153.2560 C   0  0  0  0  0  0  0  0  0  0  0  0
  1  3  1  0  0  0  0
  1  2  2  0  0  0  0
  3  5  1  0  0  0  0
  5  4  2  0  0  0  0
  6  7  1  0  0  0  0
  6  3  2  0  0  0  0
  7  8  2  0  0  0  0
  8  4  1  0  0  0  0
  9 11  1  0  0  0  0
 10 11  2  0  0  0  0
 11  7  1  0  0  0  0
 12 14  1  0  0  0  0
 13 14  2  0  0  0  0
 14  1  1  0  0  0  0
 15 12  1  0  0  0  0
 16 19  1  0  0  0  0
 16 15  1  0  0  0  0
 17 19  1  0  0  0  0
 18 20  1  0  0  0  0
 18 17  2  0  0  0  0
 20 16  2  0  0  0  0
 21  2  1  0  0  0  0
 21 22  1  0  0  0  0
 22 23  3  0  0  0  0
 23 26  1  0  0  0  0
 24 26  2  0  0  0  0
 26 25  1  0  0  0  0
M  END
>  <MODEL>
3

>  <REMARK>
 VINA RESULT:      -7.6      2.351      2.766
  Name = 
  8 active torsions:
  status: ('A' for Active; 'I' for Inactive)
    1  A    between atoms: C_2  and  C_12
    2  A    between atoms: C_4  and  C_25
    3  A    between atoms: N_5  and  C_25
    4  A    between atoms: C_8  and  C_12
    5  A    between atoms: C_17  and  C_26
    6  A    between atoms: C_18  and  C_22
    7  A    between atoms: C_19  and  C_20
    8  A    between atoms: C_23  and  C_26
                            x       y       z     vdW  Elec       q    Type
                         _______ _______ _______ _____ _____    ______ ____

>  <TORSDO>
F 8

$$$$
=
 OpenBabel11052409493D

 26 27  0  0  0  0  0  0  0  0999 V2000
  161.5970  207.3290  149.5970 C   0  0  0  0  0  0  0  0  0  0  0  0
  162.0460  208.5940  149.5610 C   0  0  0  0  0  3  0  0  0  0  0  0
  161.4380  206.6670  150.9220 C   0  0  0  0  0  0  0  0  0  0  0  0
  161.2800  204.6480  152.2760 C   0  0  0  0  0  3  0  0  0  0  0  0
  161.4420  205.2660  151.0330 C   0  0  0  0  0  3  0  0  0  0  0  0
  161.2580  207.4320  152.0850 C   0  0  0  0  0  3  0  0  0  0  0  0
  161.0950  206.8230  153.3370 C   0  0  0  0  0  0  0  0  0  0  0  0
  161.1080  205.4240  153.4240 C   0  0  0  0  0  3  0  0  0  0  0  0
  160.3370  207.0810  155.7210 N   0  0  0  0  0  1  0  0  0  0  0  0
  161.2590  208.8550  154.5500 O   0  0  0  0  0  0  0  0  0  0  0  0
  160.9110  207.6440  154.5450 C   0  0  0  0  0  0  0  0  0  0  0  0
  162.2770  205.9390  147.5900 N   0  0  0  0  0  2  0  0  0  0  0  0
  160.0540  206.5230  147.9750 O   0  0  0  0  0  0  0  0  0  0  0  0
  161.2570  206.5910  148.3530 C   0  0  0  0  0  0  0  0  0  0  0  0
  161.9890  205.1270  146.4160 C   0  0  0  0  0  2  0  0  0  0  0  0
  161.5680  203.7570  146.8260 C   0  0  0  0  0  0  0  0  0  0  0  0
  160.9840  202.0200  147.9800 C   0  0  0  0  0  3  0  0  0  0  0  0
  160.8480  201.7400  146.6680 N   0  0  0  0  0  0  0  0  0  0  0  0
  161.4430  203.3180  148.1270 C   0  0  0  0  0  2  0  0  0  0  0  0
  161.1980  202.7990  145.9630 N   0  0  0  0  0  0  0  0  0  0  0  0
  162.2210  209.4060  148.3210 C   0  0  0  0  0  2  0  0  0  0  0  0
  161.8960  210.8050  148.6010 C   0  0  0  0  0  0  0  0  0  0  0  0
  161.6280  211.9570  148.8340 C   0  0  0  0  0  0  0  0  0  0  0  0
  160.2130  213.6410  149.9010 O   0  0  0  0  0  1  0  0  0  0  0  0
  162.0250  214.2480  148.6350 O   0  0  0  0  0  0  0  0  0  0  0  0
  161.3100  213.3290  149.1100 C   0  0  0  0  0  0  0  0  0  0  0  0
  1  3  1  0  0  0  0
  2  1  2  0  0  0  0
  3  5  2  0  0  0  0
  3  6  1  0  0  0  0
  4  8  2  0  0  0  0
  5  4  1  0  0  0  0
  6  7  2  0  0  0  0
  7  8  1  0  0  0  0
  7 11  1  0  0  0  0
 11 10  2  0  0  0  0
 11  9  1  0  0  0  0
 12 14  1  0  0  0  0
 13 14  2  0  0  0  0
 14  1  1  0  0  0  0
 15 16  1  0  0  0  0
 15 12  1  0  0  0  0
 16 19  1  0  0  0  0
 17 19  1  0  0  0  0
 18 17  2  0  0  0  0
 20 18  1  0  0  0  0
 20 16  2  0  0  0  0
 21 22  1  0  0  0  0
 21  2  1  0  0  0  0
 22 23  3  0  0  0  0
 23 26  1  0  0  0  0
 25 26  2  0  0  0  0
 26 24  1  0  0  0  0
M  END
>  <MODEL>
4

>  <REMARK>
 VINA RESULT:      -7.5      3.377      6.158
  Name = 
  8 active torsions:
  status: ('A' for Active; 'I' for Inactive)
    1  A    between atoms: C_2  and  C_12
    2  A    between atoms: C_4  and  C_25
    3  A    between atoms: N_5  and  C_25
    4  A    between atoms: C_8  and  C_12
    5  A    between atoms: C_17  and  C_26
    6  A    between atoms: C_18  and  C_22
    7  A    between atoms: C_19  and  C_20
    8  A    between atoms: C_23  and  C_26
                            x       y       z     vdW  Elec       q    Type
                         _______ _______ _______ _____ _____    ______ ____

>  <TORSDO>
F 8

$$$$
=
 OpenBabel11052409493D

 26 27  0  0  0  0  0  0  0  0999 V2000
  161.7470  207.0340  150.1300 C   0  0  0  0  0  0  0  0  0  0  0  0
  161.8050  208.2550  149.5760 C   0  0  0  0  0  3  0  0  0  0  0  0
  161.5590  205.8560  149.2390 C   0  0  0  0  0  0  0  0  0  0  0  0
  161.5710  204.8580  147.0160 C   0  0  0  0  0  3  0  0  0  0  0  0
  161.7610  205.9620  147.8510 C   0  0  0  0  0  3  0  0  0  0  0  0
  161.1530  204.6190  149.7640 C   0  0  0  0  0  3  0  0  0  0  0  0
  160.9590  203.5050  148.9360 C   0  0  0  0  0  0  0  0  0  0  0  0
  161.1720  203.6340  147.5570 C   0  0  0  0  0  3  0  0  0  0  0  0
  161.0040  201.8080  150.7920 N   0  0  0  0  0  1  0  0  0  0  0  0
  159.7560  201.4610  148.8700 O   0  0  0  0  0  0  0  0  0  0  0  0
  160.5360  202.2160  149.5090 C   0  0  0  0  0  0  0  0  0  0  0  0
  160.8070  207.2340  152.4760 N   0  0  0  0  0  2  0  0  0  0  0  0
  162.9090  206.3110  152.0760 O   0  0  0  0  0  0  0  0  0  0  0  0
  161.8680  206.8420  151.5990 C   0  0  0  0  0  0  0  0  0  0  0  0
  160.8360  206.9860  153.9110 C   0  0  0  0  0  2  0  0  0  0  0  0
  161.1940  208.2330  154.6430 C   0  0  0  0  0  0  0  0  0  0  0  0
  161.5100  210.3050  155.1900 C   0  0  0  0  0  3  0  0  0  0  0  0
  161.7610  209.5260  156.2620 N   0  0  0  0  0  0  0  0  0  0  0  0
  161.1350  209.5080  154.1220 C   0  0  0  0  0  3  0  0  0  0  0  0
  161.5640  208.2630  155.9320 N   0  0  0  0  0  2  0  0  0  0  0  0
  162.0280  209.5270  150.3260 C   0  0  0  0  0  2  0  0  0  0  0  0
  162.0880  210.6460  149.3850 C   0  0  0  0  0  0  0  0  0  0  0  0
  162.1370  211.5690  148.6110 C   0  0  0  0  0  0  0  0  0  0  0  0
  163.0390  213.7400  147.9420 O   0  0  0  0  0  1  0  0  0  0  0  0
  161.4840  212.6580  146.6530 O   0  0  0  0  0  0  0  0  0  0  0  0
  162.1960  212.6670  147.6900 C   0  0  0  0  0  0  0  0  0  0  0  0
  1 14  1  0  0  0  0
  2  1  2  0  0  0  0
  2 21  1  0  0  0  0
  3  6  1  0  0  0  0
  3  1  1  0  0  0  0
  4  8  2  0  0  0  0
  4  5  1  0  0  0  0
  5  3  2  0  0  0  0
  7 11  1  0  0  0  0
  7  6  2  0  0  0  0
  8  7  1  0  0  0  0
 10 11  2  0  0  0  0
 11  9  1  0  0  0  0
 12 15  1  0  0  0  0
 14 13  2  0  0  0  0
 14 12  1  0  0  0  0
 15 16  1  0  0  0  0
 16 20  1  0  0  0  0
 17 18  2  0  0  0  0
 19 16  2  0  0  0  0
 19 17  1  0  0  0  0
 20 18  1  0  0  0  0
 22 21  1  0  0  0  0
 23 22  3  0  0  0  0
 25 26  2  0  0  0  0
 26 24  1  0  0  0  0
 26 23  1  0  0  0  0
M  END
>  <MODEL>
5

>  <REMARK>
 VINA RESULT:      -7.5      4.006      6.911
  Name = 
  8 active torsions:
  status: ('A' for Active; 'I' for Inactive)
    1  A    between atoms: C_2  and  C_12
    2  A    between atoms: C_4  and  C_25
    3  A    between atoms: N_5  and  C_25
    4  A    between atoms: C_8  and  C_12
    5  A    between atoms: C_17  and  C_26
    6  A    between atoms: C_18  and  C_22
    7  A    between atoms: C_19  and  C_20
    8  A    between atoms: C_23  and  C_26
                            x       y       z     vdW  Elec       q    Type
                         _______ _______ _______ _____ _____    ______ ____

>  <TORSDO>
F 8

$$$$
=
 OpenBabel11052409493D

 26 27  0  0  0  0  0  0  0  0999 V2000
  161.4440  205.2600  150.4520 C   0  0  0  0  0  0  0  0  0  0  0  0
  161.9090  205.4420  151.6990 C   0  0  0  0  0  3  0  0  0  0  0  0
  161.1480  203.8730  149.9990 C   0  0  0  0  0  0  0  0  0  0  0  0
  160.5690  201.5600  150.4970 C   0  0  0  0  0  3  0  0  0  0  0  0
  160.8330  202.8630  150.9250 C   0  0  0  0  0  3  0  0  0  0  0  0
  161.2010  203.5400  148.6360 C   0  0  0  0  0  3  0  0  0  0  0  0
  160.9370  202.2360  148.1960 C   0  0  0  0  0  0  0  0  0  0  0  0
  160.6200  201.2480  149.1370 C   0  0  0  0  0  3  0  0  0  0  0  0
  160.8350  200.5640  146.3190 N   0  0  0  0  0  1  0  0  0  0  0  0
  161.1870  202.8180  145.9090 O   0  0  0  0  0  0  0  0  0  0  0  0
  160.9950  201.9100  146.7610 C   0  0  0  0  0  0  0  0  0  0  0  0
  162.2900  207.2990  149.2060 N   0  0  0  0  0  2  0  0  0  0  0  0
  160.0800  206.5830  149.0210 O   0  0  0  0  0  0  0  0  0  0  0  0
  161.2200  206.4060  149.5330 C   0  0  0  0  0  0  0  0  0  0  0  0
  162.1500  208.3810  148.2420 C   0  0  0  0  0  2  0  0  0  0  0  0
  162.0020  209.6850  148.9480 C   0  0  0  0  0  0  0  0  0  0  0  0
  161.8660  211.2230  150.4670 C   0  0  0  0  0  3  0  0  0  0  0  0
  161.8680  211.8070  149.2520 N   0  0  0  0  0  0  0  0  0  0  0  0
  161.9560  209.8500  150.3170 C   0  0  0  0  0  2  0  0  0  0  0  0
  161.9560  210.8720  148.3250 N   0  0  0  0  0  0  0  0  0  0  0  0
  162.2150  206.7680  152.3140 C   0  0  0  0  0  2  0  0  0  0  0  0
  161.4500  206.9210  153.5520 C   0  0  0  0  0  0  0  0  0  0  0  0
  160.8210  207.0480  154.5730 C   0  0  0  0  0  0  0  0  0  0  0  0
  160.5620  208.0010  156.8100 O   0  0  0  0  0  1  0  0  0  0  0  0
  158.9730  206.6050  155.9270 O   0  0  0  0  0  0  0  0  0  0  0  0
  160.0730  207.1990  155.7880 C   0  0  0  0  0  0  0  0  0  0  0  0
  1  2  2  0  0  0  0
  2 21  1  0  0  0  0
  3  1  1  0  0  0  0
  3  5  1  0  0  0  0
  4  5  2  0  0  0  0
  6  3  2  0  0  0  0
  7  6  1  0  0  0  0
  7  8  2  0  0  0  0
  8  4  1  0  0  0  0
  9 11  1  0  0  0  0
 10 11  2  0  0  0  0
 11  7  1  0  0  0  0
 12 14  1  0  0  0  0
 13 14  2  0  0  0  0
 14  1  1  0  0  0  0
 15 16  1  0  0  0  0
 15 12  1  0  0  0  0
 16 19  1  0  0  0  0
 18 17  2  0  0  0  0
 19 17  1  0  0  0  0
 20 16  2  0  0  0  0
 20 18  1  0  0  0  0
 21 22  1  0  0  0  0
 22 23  3  0  0  0  0
 23 26  1  0  0  0  0
 26 25  2  0  0  0  0
 26 24  1  0  0  0  0
M  END
>  <MODEL>
6

>  <REMARK>
 VINA RESULT:      -7.4      2.116      3.134
  Name = 
  8 active torsions:
  status: ('A' for Active; 'I' for Inactive)
    1  A    between atoms: C_2  and  C_12
    2  A    between atoms: C_4  and  C_25
    3  A    between atoms: N_5  and  C_25
    4  A    between atoms: C_8  and  C_12
    5  A    between atoms: C_17  and  C_26
    6  A    between atoms: C_18  and  C_22
    7  A    between atoms: C_19  and  C_20
    8  A    between atoms: C_23  and  C_26
                            x       y       z     vdW  Elec       q    Type
                         _______ _______ _______ _____ _____    ______ ____

>  <TORSDO>
F 8

$$$$
=
 OpenBabel11052409493D

 26 27  0  0  0  0  0  0  0  0999 V2000
  161.4300  207.6720  152.0120 C   0  0  0  0  0  0  0  0  0  0  0  0
  161.5510  208.6830  151.1370 C   0  0  0  0  0  3  0  0  0  0  0  0
  160.9740  207.9790  153.3960 C   0  0  0  0  0  0  0  0  0  0  0  0
  160.3780  207.2460  155.6410 C   0  0  0  0  0  3  0  0  0  0  0  0
  160.8190  206.9560  154.3480 C   0  0  0  0  0  3  0  0  0  0  0  0
  160.6670  209.2960  153.7710 C   0  0  0  0  0  3  0  0  0  0  0  0
  160.2250  209.5990  155.0660 C   0  0  0  0  0  0  0  0  0  0  0  0
  160.0830  208.5630  155.9990 C   0  0  0  0  0  3  0  0  0  0  0  0
  160.0810  212.0450  154.4980 N   0  0  0  0  0  1  0  0  0  0  0  0
  159.4920  211.2580  156.5960 O   0  0  0  0  0  0  0  0  0  0  0  0
  159.9120  210.9890  155.4390 C   0  0  0  0  0  0  0  0  0  0  0  0
  160.7560  205.4690  150.9560 N   0  0  0  0  0  2  0  0  0  0  0  0
  162.8750  205.7880  151.8700 O   0  0  0  0  0  0  0  0  0  0  0  0
  161.7350  206.2700  151.6240 C   0  0  0  0  0  0  0  0  0  0  0  0
  161.0320  204.1220  150.4730 C   0  0  0  0  0  2  0  0  0  0  0  0
  161.2060  204.1310  148.9930 C   0  0  0  0  0  0  0  0  0  0  0  0
  161.4640  204.7500  146.9340 C   0  0  0  0  0  3  0  0  0  0  0  0
  161.5760  203.4080  147.0040 N   0  0  0  0  0  0  0  0  0  0  0  0
  161.2300  205.2590  148.2000 C   0  0  0  0  0  3  0  0  0  0  0  0
  161.4240  203.0290  148.2600 N   0  0  0  0  0  2  0  0  0  0  0  0
  161.9560  208.5360  149.7070 C   0  0  0  0  0  2  0  0  0  0  0  0
  161.9560  209.8480  149.0600 C   0  0  0  0  0  0  0  0  0  0  0  0
  161.9570  210.9290  148.5260 C   0  0  0  0  0  0  0  0  0  0  0  0
  160.9870  212.5230  146.9460 O   0  0  0  0  0  0  0  0  0  0  0  0
  162.8340  213.0650  148.1900 O   0  0  0  0  0  1  0  0  0  0  0  0
  161.9560  212.2160  147.8910 C   0  0  0  0  0  0  0  0  0  0  0  0
  1  3  1  0  0  0  0
  2  1  2  0  0  0  0
  3  6  2  0  0  0  0
  3  5  1  0  0  0  0
  4  8  1  0  0  0  0
  5  4  2  0  0  0  0
  6  7  1  0  0  0  0
  7 11  1  0  0  0  0
  7  8  2  0  0  0  0
  9 11  1  0  0  0  0
 11 10  2  0  0  0  0
 12 14  1  0  0  0  0
 14 13  2  0  0  0  0
 14  1  1  0  0  0  0
 15 12  1  0  0  0  0
 16 15  1  0  0  0  0
 17 18  2  0  0  0  0
 17 19  1  0  0  0  0
 18 20  1  0  0  0  0
 19 16  2  0  0  0  0
 20 16  1  0  0  0  0
 21  2  1  0  0  0  0
 22 21  1  0  0  0  0
 23 22  3  0  0  0  0
 24 26  2  0  0  0  0
 26 25  1  0  0  0  0
 26 23  1  0  0  0  0
M  END
>  <MODEL>
7

>  <REMARK>
 VINA RESULT:      -7.2      3.490      7.535
  Name = 
  8 active torsions:
  status: ('A' for Active; 'I' for Inactive)
    1  A    between atoms: C_2  and  C_12
    2  A    between atoms: C_4  and  C_25
    3  A    between atoms: N_5  and  C_25
    4  A    between atoms: C_8  and  C_12
    5  A    between atoms: C_17  and  C_26
    6  A    between atoms: C_18  and  C_22
    7  A    between atoms: C_19  and  C_20
    8  A    between atoms: C_23  and  C_26
                            x       y       z     vdW  Elec       q    Type
                         _______ _______ _______ _____ _____    ______ ____

>  <TORSDO>
F 8

$$$$
=
 OpenBabel11052409493D

 26 27  0  0  0  0  0  0  0  0999 V2000
  161.3410  206.0770  151.5090 C   0  0  0  0  0  0  0  0  0  0  0  0
  161.0070  206.7840  152.6010 C   0  0  0  0  0  3  0  0  0  0  0  0
  161.5180  206.8000  150.2200 C   0  0  0  0  0  0  0  0  0  0  0  0
  161.9560  208.8550  148.9860 C   0  0  0  0  0  3  0  0  0  0  0  0
  161.8040  208.1770  150.1980 C   0  0  0  0  0  3  0  0  0  0  0  0
  161.3790  206.1250  148.9970 C   0  0  0  0  0  3  0  0  0  0  0  0
  161.5300  206.7950  147.7750 C   0  0  0  0  0  0  0  0  0  0  0  0
  161.8200  208.1660  147.7790 C   0  0  0  0  0  3  0  0  0  0  0  0
  162.3070  205.0390  146.1500 N   0  0  0  0  0  1  0  0  0  0  0  0
  160.4410  206.3430  145.7160 O   0  0  0  0  0  0  0  0  0  0  0  0
  161.3840  206.0660  146.5040 C   0  0  0  0  0  0  0  0  0  0  0  0
  160.5160  203.7140  151.1110 N   0  0  0  0  0  2  0  0  0  0  0  0
  162.6230  204.1370  152.0110 O   0  0  0  0  0  0  0  0  0  0  0  0
  161.5380  204.6050  151.5690 C   0  0  0  0  0  0  0  0  0  0  0  0
  160.6920  202.2690  151.0610 C   0  0  0  0  0  2  0  0  0  0  0  0
  160.7970  201.8100  149.6480 C   0  0  0  0  0  0  0  0  0  0  0  0
  160.8320  201.7350  147.4830 C   0  0  0  0  0  3  0  0  0  0  0  0
  161.2220  200.5390  147.9690 N   0  0  0  0  0  0  0  0  0  0  0  0
  160.5520  202.5900  148.5360 C   0  0  0  0  0  3  0  0  0  0  0  0
  161.2060  200.5840  149.2880 N   0  0  0  0  0  2  0  0  0  0  0  0
  160.8310  206.2160  153.9700 C   0  0  0  0  0  2  0  0  0  0  0  0
  161.0380  207.2660  154.9670 C   0  0  0  0  0  0  0  0  0  0  0  0
  161.2070  208.1320  155.7900 C   0  0  0  0  0  0  0  0  0  0  0  0
  162.6960  209.4790  157.1850 O   0  0  0  0  0  0  0  0  0  0  0  0
  160.4240  209.7770  157.2470 O   0  0  0  0  0  1  0  0  0  0  0  0
  161.4100  209.1610  156.7680 C   0  0  0  0  0  0  0  0  0  0  0  0
  1 14  1  0  0  0  0
  1  2  2  0  0  0  0
  2 21  1  0  0  0  0
  3  1  1  0  0  0  0
  4  5  2  0  0  0  0
  5  3  1  0  0  0  0
  6  3  2  0  0  0  0
  7  8  2  0  0  0  0
  7  6  1  0  0  0  0
  8  4  1  0  0  0  0
  9 11  1  0  0  0  0
 10 11  2  0  0  0  0
 11  7  1  0  0  0  0
 12 14  1  0  0  0  0
 14 13  2  0  0  0  0
 15 12  1  0  0  0  0
 16 15  1  0  0  0  0
 17 18  2  0  0  0  0
 17 19  1  0  0  0  0
 18 20  1  0  0  0  0
 19 16  2  0  0  0  0
 20 16  1  0  0  0  0
 21 22  1  0  0  0  0
 22 23  3  0  0  0  0
 23 26  1  0  0  0  0
 26 24  2  0  0  0  0
 26 25  1  0  0  0  0
M  END
>  <MODEL>
8

>  <REMARK>
 VINA RESULT:      -7.1      2.045      4.608
  Name = 
  8 active torsions:
  status: ('A' for Active; 'I' for Inactive)
    1  A    between atoms: C_2  and  C_12
    2  A    between atoms: C_4  and  C_25
    3  A    between atoms: N_5  and  C_25
    4  A    between atoms: C_8  and  C_12
    5  A    between atoms: C_17  and  C_26
    6  A    between atoms: C_18  and  C_22
    7  A    between atoms: C_19  and  C_20
    8  A    between atoms: C_23  and  C_26
                            x       y       z     vdW  Elec       q    Type
                         _______ _______ _______ _____ _____    ______ ____

>  <TORSDO>
F 8

$$$$
=
 OpenBabel11052409493D

 26 27  0  0  0  0  0  0  0  0999 V2000
  161.6410  207.0050  151.4480 C   0  0  0  0  0  0  0  0  0  0  0  0
  161.9470  208.2040  150.9280 C   0  0  0  0  0  3  0  0  0  0  0  0
  161.3490  205.8790  150.5180 C   0  0  0  0  0  0  0  0  0  0  0  0
  160.5820  203.6000  150.1260 C   0  0  0  0  0  3  0  0  0  0  0  0
  160.8430  204.6590  150.9990 C   0  0  0  0  0  3  0  0  0  0  0  0
  161.5960  206.0060  149.1420 C   0  0  0  0  0  3  0  0  0  0  0  0
  161.3380  204.9510  148.2570 C   0  0  0  0  0  0  0  0  0  0  0  0
  160.8280  203.7460  148.7590 C   0  0  0  0  0  3  0  0  0  0  0  0
  161.4190  204.0110  145.9250 N   0  0  0  0  0  1  0  0  0  0  0  0
  161.9920  206.2140  146.3570 O   0  0  0  0  0  0  0  0  0  0  0  0
  161.6020  205.1080  146.8160 C   0  0  0  0  0  0  0  0  0  0  0  0
  160.4680  207.2230  153.6840 N   0  0  0  0  0  2  0  0  0  0  0  0
  162.5490  206.1930  153.4920 O   0  0  0  0  0  0  0  0  0  0  0  0
  161.5950  206.7860  152.9170 C   0  0  0  0  0  0  0  0  0  0  0  0
  160.3290  206.9540  155.1090 C   0  0  0  0  0  2  0  0  0  0  0  0
  160.7880  208.1280  155.9030 C   0  0  0  0  0  0  0  0  0  0  0  0
  160.8840  210.0270  156.9410 C   0  0  0  0  0  3  0  0  0  0  0  0
  162.0140  209.3350  157.1880 N   0  0  0  0  0  0  0  0  0  0  0  0
  160.0590  209.2800  156.1160 C   0  0  0  0  0  3  0  0  0  0  0  0
  161.9560  208.1750  156.5610 N   0  0  0  0  0  2  0  0  0  0  0  0
  162.3020  209.4180  151.7220 C   0  0  0  0  0  2  0  0  0  0  0  0
  161.0820  210.1380  152.0870 C   0  0  0  0  0  0  0  0  0  0  0  0
  160.0770  210.7330  152.3880 C   0  0  0  0  0  0  0  0  0  0  0  0
  158.4350  212.4920  151.9570 O   0  0  0  0  0  0  0  0  0  0  0  0
  158.2360  211.1060  153.7710 O   0  0  0  0  0  1  0  0  0  0  0  0
  158.8810  211.4390  152.7450 C   0  0  0  0  0  0  0  0  0  0  0  0
  1 14  1  0  0  0  0
  2  1  2  0  0  0  0
  2 21  1  0  0  0  0
  3  5  1  0  0  0  0
  3  1  1  0  0  0  0
  4  5  2  0  0  0  0
  6  3  2  0  0  0  0
  7  8  2  0  0  0  0
  7  6  1  0  0  0  0
  8  4  1  0  0  0  0
  9 11  1  0  0  0  0
 10 11  2  0  0  0  0
 11  7  1  0  0  0  0
 12 15  1  0  0  0  0
 14 13  2  0  0  0  0
 14 12  1  0  0  0  0
 15 16  1  0  0  0  0
 16 19  2  0  0  0  0
 16 20  1  0  0  0  0
 17 18  2  0  0  0  0
 19 17  1  0  0  0  0
 20 18  1  0  0  0  0
 21 22  1  0  0  0  0
 22 23  3  0  0  0  0
 23 26  1  0  0  0  0
 24 26  2  0  0  0  0
 26 25  1  0  0  0  0
M  END
>  <MODEL>
9

>  <REMARK>
 VINA RESULT:      -6.9      3.757      6.551
  Name = 
  8 active torsions:
  status: ('A' for Active; 'I' for Inactive)
    1  A    between atoms: C_2  and  C_12
    2  A    between atoms: C_4  and  C_25
    3  A    between atoms: N_5  and  C_25
    4  A    between atoms: C_8  and  C_12
    5  A    between atoms: C_17  and  C_26
    6  A    between atoms: C_18  and  C_22
    7  A    between atoms: C_19  and  C_20
    8  A    between atoms: C_23  and  C_26
                            x       y       z     vdW  Elec       q    Type
                         _______ _______ _______ _____ _____    ______ ____

>  <TORSDO>
F 8

$$$$
