=
 OpenBabel11052412043D

 40 42  0  0  1  0  0  0  0  0999 V2000
  160.6960  209.5030  153.6670 C   0  0  0  0  0  2  0  0  0  0  0  0
  159.1270  211.4300  152.3760 N   0  0  0  0  0  2  0  0  0  0  0  0
  161.2600  210.5280  151.4330 N   0  0  0  0  0  0  0  0  0  0  0  0
  159.4760  213.4880  150.0870 C   0  0  0  0  0  3  0  0  0  0  0  0
  157.9110  213.6210  152.0030 C   0  0  2  0  0  3  0  0  0  0  0  0
  158.1140  212.5000  154.2930 C   0  0  0  0  0  0  0  0  0  0  0  0
  156.7240  214.3570  152.5590 C   0  0  0  0  0  2  0  0  0  0  0  0
  156.6980  212.8200  154.5190 C   0  0  0  0  0  3  0  0  0  0  0  0
  161.3760  210.6300  154.4310 C   0  0  0  0  0  2  0  0  0  0  0  0
  160.8390  210.7020  155.7880 N   0  0  0  0  0  0  0  0  0  0  0  0
  158.7370  212.7270  152.9520 C   0  0  1  0  0  3  0  0  0  0  0  0
  159.9960  212.3900  150.5250 C   0  0  0  0  0  3  0  0  0  0  0  0
  158.3380  213.9970  150.8140 N   0  0  0  0  0  0  0  0  0  0  0  0
  160.0940  211.3860  151.3310 C   0  0  0  0  0  0  0  0  0  0  0  0
  158.8030  211.8600  155.2030 C   0  0  0  0  0  0  0  0  0  0  0  0
  156.0420  213.6320  153.6900 C   0  0  0  0  0  3  0  0  0  0  0  0
  162.4610  210.7310  150.6750 C   0  0  0  0  0  3  0  0  0  0  0  0
  161.2360  209.3020  152.2430 C   0  0  2  0  0  3  0  0  0  0  0  0
  159.5290  211.2220  156.0870 C   0  0  0  0  0  3  0  0  0  0  0  0
  162.6170  211.7280  149.9180 O   0  0  0  0  0  0  0  0  0  0  0  0
  161.6890  210.2380  156.8800 C   0  0  2  0  0  3  0  0  0  0  0  0
  163.9680  210.9450  156.8160 O   0  0  0  0  0  1  0  0  0  0  0  0
  162.6940  211.3140  157.2600 C   0  0  0  0  0  2  0  0  0  0  0  0
  162.3610  209.0710  156.5080 O   0  0  0  0  0  0  0  0  0  0  0  0
  160.8900  207.1980  156.3570 C   0  0  0  0  0  1  0  0  0  0  0  0
  161.7640  208.0560  157.2610 C   0  0  0  0  0  2  0  0  0  0  0  0
  160.4310  208.2280  151.5260 C   0  0  0  0  0  2  0  0  0  0  0  0
  161.2650  207.5230  150.4690 C   0  0  0  0  0  2  0  0  0  0  0  0
  161.3790  206.0520  150.8030 C   0  0  0  0  0  2  0  0  0  0  0  0
  160.5170  205.2420  149.8550 C   0  0  0  0  0  2  0  0  0  0  0  0
  161.3270  204.8200  148.6720 C   0  0  0  0  0  0  0  0  0  0  0  0
  161.8450  205.7350  147.9180 N   0  0  0  0  0  0  0  0  0  0  0  0
  161.5610  203.4360  148.3870 N   0  0  0  0  0  0  0  0  0  0  0  0
  160.7600  202.5040  148.7840 C   0  0  0  0  0  3  0  0  0  0  0  0
  161.0530  201.0870  148.4570 C   0  0  0  0  0  1  0  0  0  0  0  0
  162.6510  205.4170  146.8150 N   0  0  0  0  0  2  0  0  0  0  0  0
  161.4840  205.0780  144.6210 C   0  0  0  0  0  0  0  0  0  0  0  0
  161.2930  205.5080  143.4560 O   0  0  0  0  0  0  0  0  0  0  0  0
  162.3270  205.8210  145.5090 N   0  0  0  0  0  2  0  0  0  0  0  0
  160.8960  203.8790  145.0120 O   0  0  0  0  0  1  0  0  0  0  0  0
  1  9  1  0  0  0  0
  3 18  1  0  0  0  0
  4 12  1  0  0  0  0
  4 13  2  0  0  0  0
  5  7  1  1  0  0  0
  5 11  1  0  0  0  0
  6  8  1  0  0  0  0
  6 15  2  0  0  0  0
  7 16  1  0  0  0  0
  9 10  1  0  0  0  0
 10 19  1  0  0  0  0
 10 21  1  0  0  0  0
 11  2  1  6  0  0  0
 11  6  1  0  0  0  0
 12 14  2  0  0  0  0
 13  5  1  0  0  0  0
 14  3  1  0  0  0  0
 14  2  1  0  0  0  0
 15 19  2  0  0  0  0
 16  8  2  0  0  0  0
 17  3  1  0  0  0  0
 18 27  1  6  0  0  0
 18  1  1  0  0  0  0
 20 17  2  0  0  0  0
 21 23  1  6  0  0  0
 22 23  1  0  0  0  0
 24 21  1  0  0  0  0
 24 26  1  0  0  0  0
 25 26  1  0  0  0  0
 28 29  1  0  0  0  0
 28 27  1  0  0  0  0
 30 29  1  0  0  0  0
 31 30  1  0  0  0  0
 32 31  2  0  0  0  0
 33 31  1  0  0  0  0
 33 34  2  0  0  0  0
 35 34  1  0  0  0  0
 36 32  1  0  0  0  0
 37 40  1  0  0  0  0
 37 39  1  0  0  0  0
 38 37  2  0  0  0  0
 39 36  1  0  0  0  0
M  END
>  <MODEL>
1

>  <REMARK>
 VINA RESULT:      -5.4      0.000      0.000
  Name = 
  12 active torsions:
  status: ('A' for Active; 'I' for Inactive)
    1  A    between atoms: C_4  and  N_20
    2  A    between atoms: C_4  and  C_36
    3  A    between atoms: C_4  and  O_37
    4  A    between atoms: C_6  and  N_11
    5  A    between atoms: C_6  and  C_26
    6  A    between atoms: N_8  and  N_18
    7  A    between atoms: N_8  and  N_22
    8  A    between atoms: C_13  and  C_25
    9  A    between atoms: C_13  and  C_33
   10  A    between atoms: C_25  and  C_26
   11  A    between atoms: C_33  and  C_34
   12  A    between atoms: O_37  and  C_40
                            x       y       z     vdW  Elec       q    Type
                         _______ _______ _______ _____ _____    ______ ____

>  <TORSDO>
F 12

$$$$
=
 OpenBabel11052412043D

 40 42  0  0  1  0  0  0  0  0999 V2000
  160.5210  211.8240  149.9570 C   0  0  0  0  0  2  0  0  0  0  0  0
  159.9210  212.6710  147.3560 N   0  0  0  0  0  2  0  0  0  0  0  0
  162.2530  212.4330  148.2280 N   0  0  0  0  0  0  0  0  0  0  0  0
  161.3850  214.1160  145.0380 C   0  0  0  0  0  3  0  0  0  0  0  0
  158.9520  214.1010  145.5030 C   0  0  2  0  0  3  0  0  0  0  0  0
  157.7690  213.7040  147.7360 C   0  0  0  0  0  0  0  0  0  0  0  0
  157.6010  214.4510  144.9430 C   0  0  0  0  0  2  0  0  0  0  0  0
  156.5210  213.5190  146.9840 C   0  0  0  0  0  3  0  0  0  0  0  0
  160.3750  213.2680  150.4150 C   0  0  0  0  0  2  0  0  0  0  0  0
  159.0800  213.4500  151.0690 N   0  0  0  0  0  0  0  0  0  0  0  0
  159.0750  213.8270  147.0160 C   0  0  1  0  0  3  0  0  0  0  0  0
  161.6410  213.4240  146.0980 C   0  0  0  0  0  3  0  0  0  0  0  0
  159.9910  214.3200  144.7230 N   0  0  0  0  0  0  0  0  0  0  0  0
  161.3290  212.7460  147.1530 C   0  0  0  0  0  0  0  0  0  0  0  0
  157.7800  213.5980  149.0400 C   0  0  0  0  0  0  0  0  0  0  0  0
  156.4570  213.8110  145.6850 C   0  0  0  0  0  3  0  0  0  0  0  0
  163.6150  212.8850  148.2580 C   0  0  0  0  0  3  0  0  0  0  0  0
  161.8790  211.5120  149.3090 C   0  0  2  0  0  3  0  0  0  0  0  0
  157.8360  213.5000  150.3440 C   0  0  0  0  0  3  0  0  0  0  0  0
  164.0850  213.6610  147.3830 O   0  0  0  0  0  0  0  0  0  0  0  0
  159.0690  213.6040  152.5210 C   0  0  2  0  0  3  0  0  0  0  0  0
  160.2970  211.9120  153.6710 O   0  0  0  0  0  1  0  0  0  0  0  0
  159.0240  212.2420  153.1950 C   0  0  0  0  0  2  0  0  0  0  0  0
  157.9690  214.3680  152.9180 O   0  0  0  0  0  0  0  0  0  0  0  0
  155.8600  213.7740  153.8610 C   0  0  0  0  0  1  0  0  0  0  0  0
  157.3730  213.6330  153.9460 C   0  0  0  0  0  2  0  0  0  0  0  0
  161.8940  210.0800  148.7940 C   0  0  0  0  0  2  0  0  0  0  0  0
  161.8470  209.0790  149.9370 C   0  0  0  0  0  2  0  0  0  0  0  0
  162.1960  207.6990  149.4240 C   0  0  0  0  0  2  0  0  0  0  0  0
  160.9330  206.8770  149.2610 C   0  0  0  0  0  2  0  0  0  0  0  0
  161.2770  205.5250  148.7250 C   0  0  0  0  0  0  0  0  0  0  0  0
  161.8560  205.4470  147.5700 N   0  0  0  0  0  0  0  0  0  0  0  0
  161.0070  204.3360  149.4760 N   0  0  0  0  0  0  0  0  0  0  0  0
  161.3820  204.1950  150.7040 C   0  0  0  0  0  3  0  0  0  0  0  0
  161.0720  202.9410  151.4320 C   0  0  0  0  0  1  0  0  0  0  0  0
  162.2460  204.2170  147.0200 N   0  0  0  0  0  2  0  0  0  0  0  0
  160.8750  202.3370  146.0850 C   0  0  0  0  0  0  0  0  0  0  0  0
  160.3000  201.8570  145.0760 O   0  0  0  0  0  0  0  0  0  0  0  0
  161.5340  203.6040  145.9760 N   0  0  0  0  0  2  0  0  0  0  0  0
  160.8790  201.6170  147.2750 O   0  0  0  0  0  1  0  0  0  0  0  0
  1  9  1  0  0  0  0
  3 17  1  0  0  0  0
  3 18  1  0  0  0  0
  4 12  1  0  0  0  0
  5  7  1  1  0  0  0
  5 11  1  0  0  0  0
  6 15  2  0  0  0  0
  7 16  1  0  0  0  0
  8  6  1  0  0  0  0
  9 10  1  0  0  0  0
 10 21  1  0  0  0  0
 11  2  1  6  0  0  0
 11  6  1  0  0  0  0
 12 14  2  0  0  0  0
 13  4  2  0  0  0  0
 13  5  1  0  0  0  0
 14  2  1  0  0  0  0
 14  3  1  0  0  0  0
 15 19  2  0  0  0  0
 16  8  2  0  0  0  0
 18 27  1  6  0  0  0
 18  1  1  0  0  0  0
 19 10  1  0  0  0  0
 20 17  2  0  0  0  0
 21 24  1  0  0  0  0
 21 23  1  1  0  0  0
 23 22  1  0  0  0  0
 24 26  1  0  0  0  0
 25 26  1  0  0  0  0
 27 28  1  0  0  0  0
 29 28  1  0  0  0  0
 30 29  1  0  0  0  0
 31 30  1  0  0  0  0
 31 33  1  0  0  0  0
 32 31  2  0  0  0  0
 33 34  2  0  0  0  0
 34 35  1  0  0  0  0
 36 32  1  0  0  0  0
 37 40  1  0  0  0  0
 38 37  2  0  0  0  0
 39 37  1  0  0  0  0
 39 36  1  0  0  0  0
M  END
>  <MODEL>
2

>  <REMARK>
 VINA RESULT:      -5.4      3.166      5.095
  Name = 
  12 active torsions:
  status: ('A' for Active; 'I' for Inactive)
    1  A    between atoms: C_4  and  N_20
    2  A    between atoms: C_4  and  C_36
    3  A    between atoms: C_4  and  O_37
    4  A    between atoms: C_6  and  N_11
    5  A    between atoms: C_6  and  C_26
    6  A    between atoms: N_8  and  N_18
    7  A    between atoms: N_8  and  N_22
    8  A    between atoms: C_13  and  C_25
    9  A    between atoms: C_13  and  C_33
   10  A    between atoms: C_25  and  C_26
   11  A    between atoms: C_33  and  C_34
   12  A    between atoms: O_37  and  C_40
                            x       y       z     vdW  Elec       q    Type
                         _______ _______ _______ _____ _____    ______ ____

>  <TORSDO>
F 12

$$$$
=
 OpenBabel11052412043D

 40 42  0  0  1  0  0  0  0  0999 V2000
  160.9480  209.2720  153.6640 C   0  0  0  0  0  2  0  0  0  0  0  0
  159.4020  211.2750  152.4640 N   0  0  0  0  0  2  0  0  0  0  0  0
  161.4930  210.3510  151.4510 N   0  0  0  0  0  0  0  0  0  0  0  0
  159.7560  213.3930  150.2310 C   0  0  0  0  0  3  0  0  0  0  0  0
  158.2330  213.5040  152.1820 C   0  0  0  0  0  0  0  0  0  0  0  0
  158.4530  212.3090  154.4320 C   0  0  0  0  0  0  0  0  0  0  0  0
  157.0750  214.2520  152.7840 C   0  0  0  0  0  2  0  0  0  0  0  0
  157.0500  212.6560  154.6960 C   0  0  0  0  0  3  0  0  0  0  0  0
  161.6710  210.3580  154.4470 C   0  0  0  0  0  2  0  0  0  0  0  0
  161.1610  210.4020  155.8170 N   0  0  0  0  0  0  0  0  0  0  0  0
  159.0550  212.5630  153.0860 C   0  0  1  0  0  3  0  0  0  0  0  0
  160.2570  212.2700  150.6250 C   0  0  0  0  0  3  0  0  0  0  0  0
  158.6450  213.9070  150.9960 N   0  0  0  0  0  0  0  0  0  0  0  0
  160.3460  211.2390  151.3990 C   0  0  2  0  0  3  0  0  0  0  0  0
  159.1440  211.6260  155.3080 C   0  0  0  0  0  0  0  0  0  0  0  0
  156.3980  213.5090  153.9060 C   0  0  0  0  0  3  0  0  0  0  0  0
  162.6830  210.5490  150.6750 C   0  0  0  0  0  3  0  0  0  0  0  0
  161.4550  209.1020  152.2230 C   0  0  2  0  0  3  0  0  0  0  0  0
  159.8710  210.9440  156.1570 C   0  0  0  0  0  3  0  0  0  0  0  0
  162.8490  211.5640  149.9450 O   0  0  0  0  0  0  0  0  0  0  0  0
  162.0220  209.8840  156.8770 C   0  0  2  0  0  3  0  0  0  0  0  0
  163.2190  211.9130  157.2600 O   0  0  0  0  0  1  0  0  0  0  0  0
  163.3710  210.5840  156.8490 C   0  0  0  0  0  2  0  0  0  0  0  0
  162.1980  208.5060  156.7270 O   0  0  0  0  0  0  0  0  0  0  0  0
  160.5020  206.8840  156.3000 C   0  0  0  0  0  1  0  0  0  0  0  0
  161.0390  207.9350  157.2600 C   0  0  0  0  0  2  0  0  0  0  0  0
  160.6100  208.0700  151.4910 C   0  0  0  0  0  2  0  0  0  0  0  0
  161.4590  207.2160  150.5640 C   0  0  0  0  0  2  0  0  0  0  0  0
  160.9550  207.3470  149.1430 C   0  0  0  0  0  2  0  0  0  0  0  0
  162.0890  207.0880  148.1710 C   0  0  0  0  0  2  0  0  0  0  0  0
  161.9800  205.7000  147.6260 C   0  0  0  0  0  0  0  0  0  0  0  0
  161.8020  204.7230  148.4560 N   0  0  0  0  0  0  0  0  0  0  0  0
  162.0360  205.4470  146.2180 N   0  0  0  0  0  0  0  0  0  0  0  0
  161.0100  205.5940  145.4480 C   0  0  0  0  0  3  0  0  0  0  0  0
  161.1280  205.3190  143.9960 C   0  0  0  0  0  1  0  0  0  0  0  0
  161.6500  203.3990  148.0170 N   0  0  0  0  0  2  0  0  0  0  0  0
  160.2090  201.7340  149.2180 C   0  0  0  0  0  0  0  0  0  0  0  0
  159.1120  201.1220  149.2460 O   0  0  0  0  0  0  0  0  0  0  0  0
  160.4490  202.6900  148.1780 N   0  0  0  0  0  2  0  0  0  0  0  0
  161.1740  201.4510  150.1790 O   0  0  0  0  0  1  0  0  0  0  0  0
  1  9  1  0  0  0  0
  2 11  1  0  0  0  0
  3 18  1  0  0  0  0
  4 12  2  0  0  0  0
  4 13  1  0  0  0  0
  5  7  1  0  0  0  0
  6  8  1  0  0  0  0
  6 15  2  0  0  0  0
  7 16  1  0  0  0  0
  9 10  1  0  0  0  0
 10 19  1  0  0  0  0
 10 21  1  0  0  0  0
 11  5  1  6  0  0  0
 11  6  1  0  0  0  0
 13  5  2  0  0  0  0
 14 12  1  1  0  0  0
 14  3  1  0  0  0  0
 14  2  1  0  0  0  0
 15 19  2  0  0  0  0
 16  8  2  0  0  0  0
 17  3  1  0  0  0  0
 18 27  1  6  0  0  0
 18  1  1  0  0  0  0
 20 17  2  0  0  0  0
 21 23  1  6  0  0  0
 23 22  1  0  0  0  0
 24 21  1  0  0  0  0
 24 26  1  0  0  0  0
 25 26  1  0  0  0  0
 28 27  1  0  0  0  0
 29 28  1  0  0  0  0
 30 29  1  0  0  0  0
 31 30  1  0  0  0  0
 31 32  2  0  0  0  0
 33 31  1  0  0  0  0
 34 33  2  0  0  0  0
 35 34  1  0  0  0  0
 36 39  1  0  0  0  0
 36 32  1  0  0  0  0
 37 38  2  0  0  0  0
 37 40  1  0  0  0  0
 39 37  1  0  0  0  0
M  END
>  <MODEL>
3

>  <REMARK>
 VINA RESULT:      -5.1      1.648      2.464
  Name = 
  12 active torsions:
  status: ('A' for Active; 'I' for Inactive)
    1  A    between atoms: C_4  and  N_20
    2  A    between atoms: C_4  and  C_36
    3  A    between atoms: C_4  and  O_37
    4  A    between atoms: C_6  and  N_11
    5  A    between atoms: C_6  and  C_26
    6  A    between atoms: N_8  and  N_18
    7  A    between atoms: N_8  and  N_22
    8  A    between atoms: C_13  and  C_25
    9  A    between atoms: C_13  and  C_33
   10  A    between atoms: C_25  and  C_26
   11  A    between atoms: C_33  and  C_34
   12  A    between atoms: O_37  and  C_40
                            x       y       z     vdW  Elec       q    Type
                         _______ _______ _______ _____ _____    ______ ____

>  <TORSDO>
F 12

$$$$
=
 OpenBabel11052412043D

 40 42  0  0  1  0  0  0  0  0999 V2000
  160.5930  211.7980  149.9660 C   0  0  0  0  0  2  0  0  0  0  0  0
  159.9200  212.6530  147.3860 N   0  0  0  0  0  2  0  0  0  0  0  0
  162.2750  212.3980  148.1860 N   0  0  0  0  0  0  0  0  0  0  0  0
  161.3220  214.0920  145.0270 C   0  0  0  0  0  3  0  0  0  0  0  0
  158.9030  214.0920  145.5660 C   0  0  2  0  0  3  0  0  0  0  0  0
  157.7870  213.6990  147.8330 C   0  0  0  0  0  0  0  0  0  0  0  0
  157.5380  214.4530  145.0470 C   0  0  0  0  0  2  0  0  0  0  0  0
  156.5150  213.5240  147.1200 C   0  0  0  0  0  3  0  0  0  0  0  0
  160.4700  213.2420  150.4310 C   0  0  0  0  0  2  0  0  0  0  0  0
  159.1970  213.4310  151.1240 N   0  0  0  0  0  0  0  0  0  0  0  0
  159.0710  213.8150  147.0740 C   0  0  1  0  0  3  0  0  0  0  0  0
  161.6050  213.3960  146.0770 C   0  0  0  0  0  3  0  0  0  0  0  0
  159.9200  214.3060  144.7540 N   0  0  0  0  0  0  0  0  0  0  0  0
  161.3210  212.7190  147.1410 C   0  0  0  0  0  0  0  0  0  0  0  0
  157.8370  213.5920  149.1360 C   0  0  0  0  0  0  0  0  0  0  0  0
  156.4140  213.8190  145.8240 C   0  0  0  0  0  3  0  0  0  0  0  0
  163.6400  212.8400  148.1750 C   0  0  0  0  0  3  0  0  0  0  0  0
  161.9280  211.4770  149.2770 C   0  0  2  0  0  3  0  0  0  0  0  0
  157.9320  213.4910  150.4380 C   0  0  0  0  0  3  0  0  0  0  0  0
  164.0890  213.6150  147.2870 O   0  0  0  0  0  0  0  0  0  0  0  0
  159.2320  213.5830  152.5760 C   0  0  2  0  0  3  0  0  0  0  0  0
  160.3070  211.6020  153.3590 O   0  0  0  0  0  1  0  0  0  0  0  0
  159.0630  212.2310  153.2510 C   0  0  0  0  0  2  0  0  0  0  0  0
  158.2230  214.4530  152.9950 O   0  0  0  0  0  0  0  0  0  0  0  0
  156.0430  214.2010  153.9310 C   0  0  0  0  0  1  0  0  0  0  0  0
  157.4890  213.7270  153.9370 C   0  0  0  0  0  2  0  0  0  0  0  0
  161.9180  210.0460  148.7600 C   0  0  0  0  0  2  0  0  0  0  0  0
  161.9870  209.0440  149.9000 C   0  0  0  0  0  2  0  0  0  0  0  0
  161.3570  207.7370  149.4720 C   0  0  0  0  0  2  0  0  0  0  0  0
  161.6660  207.4710  148.0130 C   0  0  0  0  0  2  0  0  0  0  0  0
  161.6540  205.9990  147.7540 C   0  0  0  0  0  0  0  0  0  0  0  0
  161.5010  205.1960  148.7580 N   0  0  0  0  0  0  0  0  0  0  0  0
  161.7760  205.4760  146.4270 N   0  0  0  0  0  0  0  0  0  0  0  0
  161.1010  205.9500  145.4330 C   0  0  0  0  0  3  0  0  0  0  0  0
  161.2690  205.3680  144.0790 C   0  0  0  0  0  1  0  0  0  0  0  0
  161.4390  203.8050  148.5890 N   0  0  0  0  0  0  0  0  0  0  0  0
  160.4080  201.5860  149.1360 C   0  0  0  0  0  0  0  0  0  0  0  0
  159.5070  200.9710  149.7610 O   0  0  0  0  0  1  0  0  0  0  0  0
  160.5060  203.0080  149.2720 N   0  0  0  0  0  0  0  0  0  0  0  0
  161.2720  200.8750  148.3090 O   0  0  0  0  0  0  0  0  0  0  0  0
  1  9  1  0  0  0  0
  3 18  1  0  0  0  0
  4 12  1  0  0  0  0
  5  7  1  1  0  0  0
  5 11  1  0  0  0  0
  6 15  2  0  0  0  0
  7 16  1  0  0  0  0
  8  6  1  0  0  0  0
  9 10  1  0  0  0  0
 10 21  1  0  0  0  0
 11  2  1  6  0  0  0
 11  6  1  0  0  0  0
 12 14  2  0  0  0  0
 13  4  2  0  0  0  0
 13  5  1  0  0  0  0
 14  2  1  0  0  0  0
 14  3  1  0  0  0  0
 15 19  2  0  0  0  0
 16  8  2  0  0  0  0
 17  3  1  0  0  0  0
 18 27  1  6  0  0  0
 18  1  1  0  0  0  0
 19 10  1  0  0  0  0
 20 17  2  0  0  0  0
 21 24  1  0  0  0  0
 21 23  1  1  0  0  0
 23 22  1  0  0  0  0
 24 26  1  0  0  0  0
 25 26  1  0  0  0  0
 27 28  1  0  0  0  0
 29 28  1  0  0  0  0
 30 29  1  0  0  0  0
 31 30  1  0  0  0  0
 31 32  2  0  0  0  0
 33 31  1  0  0  0  0
 34 33  2  0  0  0  0
 35 34  1  0  0  0  0
 36 32  1  0  0  0  0
 36 39  2  0  0  0  0
 37 39  1  0  0  0  0
 37 38  1  0  0  0  0
 40 37  2  0  0  0  0
M  END
>  <MODEL>
4

>  <REMARK>
 VINA RESULT:      -4.9      3.234      5.449
  Name = 
  12 active torsions:
  status: ('A' for Active; 'I' for Inactive)
    1  A    between atoms: C_4  and  N_20
    2  A    between atoms: C_4  and  C_36
    3  A    between atoms: C_4  and  O_37
    4  A    between atoms: C_6  and  N_11
    5  A    between atoms: C_6  and  C_26
    6  A    between atoms: N_8  and  N_18
    7  A    between atoms: N_8  and  N_22
    8  A    between atoms: C_13  and  C_25
    9  A    between atoms: C_13  and  C_33
   10  A    between atoms: C_25  and  C_26
   11  A    between atoms: C_33  and  C_34
   12  A    between atoms: O_37  and  C_40
                            x       y       z     vdW  Elec       q    Type
                         _______ _______ _______ _____ _____    ______ ____

>  <TORSDO>
F 12

$$$$
=
 OpenBabel11052412043D

 40 42  0  0  1  0  0  0  0  0999 V2000
  159.4640  211.0150  153.5770 C   0  0  0  0  0  2  0  0  0  0  0  0
  159.8690  211.7310  150.9000 N   0  0  0  0  0  2  0  0  0  0  0  0
  161.5840  210.5570  152.2910 N   0  0  0  0  0  0  0  0  0  0  0  0
  162.2710  212.0630  148.9720 C   0  0  0  0  0  3  0  0  0  0  0  0
  160.0820  213.2180  148.8600 C   0  0  2  0  0  3  0  0  0  0  0  0
  158.4320  213.6710  150.7620 C   0  0  0  0  0  0  0  0  0  0  0  0
  159.2000  214.0790  147.9990 C   0  0  0  0  0  2  0  0  0  0  0  0
  157.4240  213.9900  149.7430 C   0  0  0  0  0  3  0  0  0  0  0  0
  159.9280  212.4090  153.9760 C   0  0  0  0  0  2  0  0  0  0  0  0
  158.7710  213.2380  154.3100 N   0  0  0  0  0  0  0  0  0  0  0  0
  159.7550  213.0970  150.3630 C   0  0  1  0  0  3  0  0  0  0  0  0
  161.9520  211.4610  150.0680 C   0  0  0  0  0  3  0  0  0  0  0  0
  161.2340  212.8440  148.3400 N   0  0  0  0  0  0  0  0  0  0  0  0
  161.1540  211.1300  151.0290 C   0  0  0  0  0  0  0  0  0  0  0  0
  158.1310  213.7250  152.0340 C   0  0  0  0  0  0  0  0  0  0  0  0
  157.7670  214.1250  148.4620 C   0  0  0  0  0  3  0  0  0  0  0  0
  162.9600  210.3360  152.6320 C   0  0  0  0  0  3  0  0  0  0  0  0
  160.6110  210.0430  153.2650 C   0  0  2  0  0  3  0  0  0  0  0  0
  157.8720  213.7670  153.3160 C   0  0  0  0  0  3  0  0  0  0  0  0
  163.9050  210.7030  151.8820 O   0  0  0  0  0  0  0  0  0  0  0  0
  158.5440  213.5490  155.7180 C   0  0  2  0  0  3  0  0  0  0  0  0
  160.3750  213.6200  157.2480 O   0  0  0  0  0  1  0  0  0  0  0  0
  159.4960  212.7500  156.5950 C   0  0  0  0  0  2  0  0  0  0  0  0
  157.2220  213.2640  156.0690 O   0  0  0  0  0  0  0  0  0  0  0  0
  156.1830  211.1510  155.6870 C   0  0  0  0  0  1  0  0  0  0  0  0
  157.2360  211.9250  156.4680 C   0  0  0  0  0  2  0  0  0  0  0  0
  160.0520  208.7140  152.7800 C   0  0  0  0  0  2  0  0  0  0  0  0
  160.9330  207.5520  153.2090 C   0  0  0  0  0  2  0  0  0  0  0  0
  161.6400  206.9730  152.0040 C   0  0  0  0  0  2  0  0  0  0  0  0
  161.2700  205.5120  151.8440 C   0  0  0  0  0  2  0  0  0  0  0  0
  161.1610  205.1750  150.3910 C   0  0  0  0  0  0  0  0  0  0  0  0
  160.9360  206.1320  149.5500 N   0  0  0  0  0  0  0  0  0  0  0  0
  161.3320  203.8320  149.9240 N   0  0  0  0  0  0  0  0  0  0  0  0
  160.4540  202.9100  150.1370 C   0  0  0  0  0  3  0  0  0  0  0  0
  160.6850  201.5360  149.6270 C   0  0  0  0  0  1  0  0  0  0  0  0
  160.8620  205.9010  148.1690 N   0  0  0  0  0  2  0  0  0  0  0  0
  162.3520  204.6620  146.5770 C   0  0  0  0  0  0  0  0  0  0  0  0
  163.4240  204.6690  145.9200 O   0  0  0  0  0  0  0  0  0  0  0  0
  162.0070  205.8110  147.3610 N   0  0  0  0  0  2  0  0  0  0  0  0
  161.5400  203.5330  146.5470 O   0  0  0  0  0  1  0  0  0  0  0  0
  1  9  1  0  0  0  0
  2 14  1  0  0  0  0
  3 17  1  0  0  0  0
  3 18  1  0  0  0  0
  4 12  1  0  0  0  0
  5  7  1  1  0  0  0
  5 11  1  0  0  0  0
  6 15  2  0  0  0  0
  7 16  1  0  0  0  0
  8  6  1  0  0  0  0
  9 10  1  0  0  0  0
 10 21  1  0  0  0  0
 11  6  1  6  0  0  0
 11  2  1  0  0  0  0
 12 14  2  0  0  0  0
 13  5  1  0  0  0  0
 13  4  2  0  0  0  0
 14  3  1  0  0  0  0
 15 19  2  0  0  0  0
 16  8  2  0  0  0  0
 18 27  1  6  0  0  0
 18  1  1  0  0  0  0
 19 10  1  0  0  0  0
 20 17  2  0  0  0  0
 21 24  1  0  0  0  0
 21 23  1  1  0  0  0
 23 22  1  0  0  0  0
 24 26  1  0  0  0  0
 25 26  1  0  0  0  0
 27 28  1  0  0  0  0
 29 28  1  0  0  0  0
 30 29  1  0  0  0  0
 31 30  1  0  0  0  0
 32 31  2  0  0  0  0
 33 34  2  0  0  0  0
 33 31  1  0  0  0  0
 35 34  1  0  0  0  0
 36 32  1  0  0  0  0
 37 39  1  0  0  0  0
 38 37  2  0  0  0  0
 39 36  1  0  0  0  0
 40 37  1  0  0  0  0
M  END
>  <MODEL>
5

>  <REMARK>
 VINA RESULT:      -4.2      2.204      3.364
  Name = 
  12 active torsions:
  status: ('A' for Active; 'I' for Inactive)
    1  A    between atoms: C_4  and  N_20
    2  A    between atoms: C_4  and  C_36
    3  A    between atoms: C_4  and  O_37
    4  A    between atoms: C_6  and  N_11
    5  A    between atoms: C_6  and  C_26
    6  A    between atoms: N_8  and  N_18
    7  A    between atoms: N_8  and  N_22
    8  A    between atoms: C_13  and  C_25
    9  A    between atoms: C_13  and  C_33
   10  A    between atoms: C_25  and  C_26
   11  A    between atoms: C_33  and  C_34
   12  A    between atoms: O_37  and  C_40
                            x       y       z     vdW  Elec       q    Type
                         _______ _______ _______ _____ _____    ______ ____

>  <TORSDO>
F 12

$$$$
=
 OpenBabel11052412043D

 40 42  0  0  1  0  0  0  0  0999 V2000
  160.5880  209.7580  154.2120 C   0  0  0  0  0  2  0  0  0  0  0  0
  158.3790  211.4010  153.7000 N   0  0  0  0  0  2  0  0  0  0  0  0
  160.3290  211.1860  152.1490 N   0  0  0  0  0  0  0  0  0  0  0  0
  157.6930  213.7770  151.8310 C   0  0  0  0  0  3  0  0  0  0  0  0
  156.6890  213.2580  154.0370 C   0  0  2  0  0  3  0  0  0  0  0  0
  157.7050  211.9180  155.9630 C   0  0  0  0  0  0  0  0  0  0  0  0
  155.5630  213.5980  154.9740 C   0  0  0  0  0  2  0  0  0  0  0  0
  156.3630  211.8480  156.5560 C   0  0  0  0  0  3  0  0  0  0  0  0
  161.2000  210.9020  155.0080 C   0  0  0  0  0  2  0  0  0  0  0  0
  161.0320  210.6530  156.4390 N   0  0  0  0  0  0  0  0  0  0  0  0
  157.8970  212.4720  154.5870 C   0  0  1  0  0  3  0  0  0  0  0  0
  158.5210  212.7890  151.9220 C   0  0  0  0  0  3  0  0  0  0  0  0
  156.7050  213.8870  152.8780 N   0  0  0  0  0  0  0  0  0  0  0  0
  159.0280  211.7380  152.4770 C   0  0  0  0  0  0  0  0  0  0  0  0
  158.7230  211.3480  156.5560 C   0  0  0  0  0  0  0  0  0  0  0  0
  155.3630  212.5810  156.0660 C   0  0  0  0  0  3  0  0  0  0  0  0
  161.2240  211.7790  151.1970 C   0  0  0  0  0  3  0  0  0  0  0  0
  160.7670  209.8930  152.6920 C   0  0  2  0  0  3  0  0  0  0  0  0
  159.7680  210.7910  157.1150 C   0  0  0  0  0  3  0  0  0  0  0  0
  160.9710  212.8780  150.6310 O   0  0  0  0  0  0  0  0  0  0  0  0
  162.2140  210.2660  157.2030 C   0  0  2  0  0  3  0  0  0  0  0  0
  164.0650  210.8670  155.8220 O   0  0  0  0  0  1  0  0  0  0  0  0
  163.3460  211.2520  156.9580 C   0  0  0  0  0  2  0  0  0  0  0  0
  162.6190  208.9780  156.8470 O   0  0  0  0  0  0  0  0  0  0  0  0
  161.0400  207.3710  156.0630 C   0  0  0  0  0  1  0  0  0  0  0  0
  161.5750  208.1450  157.2590 C   0  0  0  0  0  2  0  0  0  0  0  0
  160.0390  208.7630  151.9790 C   0  0  0  0  0  2  0  0  0  0  0  0
  160.9770  207.9850  151.0710 C   0  0  0  0  0  2  0  0  0  0  0  0
  161.7560  206.9750  151.8840 C   0  0  0  0  0  2  0  0  0  0  0  0
  162.5210  206.0510  150.9580 C   0  0  0  0  0  2  0  0  0  0  0  0
  161.5850  205.0550  150.3530 C   0  0  0  0  0  0  0  0  0  0  0  0
  161.1090  204.1170  151.1060 N   0  0  0  0  0  0  0  0  0  0  0  0
  161.1890  205.1450  148.9790 N   0  0  0  0  0  0  0  0  0  0  0  0
  161.5510  206.1250  148.2190 C   0  0  0  0  0  3  0  0  0  0  0  0
  161.1110  206.1640  146.8030 C   0  0  0  0  0  1  0  0  0  0  0  0
  160.1940  203.1710  150.6210 N   0  0  0  0  0  2  0  0  0  0  0  0
  160.8900  201.4080  148.9790 C   0  0  0  0  0  0  0  0  0  0  0  0
  161.1770  200.1970  148.7960 O   0  0  0  0  0  1  0  0  0  0  0  0
  160.5730  201.8570  150.3020 N   0  0  0  0  0  2  0  0  0  0  0  0
  160.8640  202.2750  147.8920 O   0  0  0  0  0  0  0  0  0  0  0  0
  1  9  1  0  0  0  0
  3 14  1  0  0  0  0
  3 18  1  0  0  0  0
  4 12  1  0  0  0  0
  4 13  2  0  0  0  0
  5 11  1  0  0  0  0
  5  7  1  1  0  0  0
  6 15  2  0  0  0  0
  6  8  1  0  0  0  0
  7 16  1  0  0  0  0
  9 10  1  0  0  0  0
 10 19  1  0  0  0  0
 10 21  1  0  0  0  0
 11  2  1  6  0  0  0
 11  6  1  0  0  0  0
 12 14  2  0  0  0  0
 13  5  1  0  0  0  0
 14  2  1  0  0  0  0
 15 19  2  0  0  0  0
 16  8  2  0  0  0  0
 17  3  1  0  0  0  0
 18 27  1  6  0  0  0
 18  1  1  0  0  0  0
 20 17  2  0  0  0  0
 21 23  1  6  0  0  0
 22 23  1  0  0  0  0
 24 21  1  0  0  0  0
 24 26  1  0  0  0  0
 25 26  1  0  0  0  0
 28 29  1  0  0  0  0
 28 27  1  0  0  0  0
 30 29  1  0  0  0  0
 31 30  1  0  0  0  0
 31 32  2  0  0  0  0
 33 31  1  0  0  0  0
 34 33  2  0  0  0  0
 35 34  1  0  0  0  0
 36 32  1  0  0  0  0
 37 39  1  0  0  0  0
 38 37  1  0  0  0  0
 39 36  1  0  0  0  0
 40 37  2  0  0  0  0
M  END
>  <MODEL>
6

>  <REMARK>
 VINA RESULT:      -4.1      1.718      2.790
  Name = 
  12 active torsions:
  status: ('A' for Active; 'I' for Inactive)
    1  A    between atoms: C_4  and  N_20
    2  A    between atoms: C_4  and  C_36
    3  A    between atoms: C_4  and  O_37
    4  A    between atoms: C_6  and  N_11
    5  A    between atoms: C_6  and  C_26
    6  A    between atoms: N_8  and  N_18
    7  A    between atoms: N_8  and  N_22
    8  A    between atoms: C_13  and  C_25
    9  A    between atoms: C_13  and  C_33
   10  A    between atoms: C_25  and  C_26
   11  A    between atoms: C_33  and  C_34
   12  A    between atoms: O_37  and  C_40
                            x       y       z     vdW  Elec       q    Type
                         _______ _______ _______ _____ _____    ______ ____

>  <TORSDO>
F 12

$$$$
=
 OpenBabel11052412043D

 40 42  0  0  1  0  0  0  0  0999 V2000
  159.3710  210.9200  154.0620 C   0  0  0  0  0  2  0  0  0  0  0  0
  159.8200  211.4610  151.3510 N   0  0  0  0  0  2  0  0  0  0  0  0
  161.5450  210.4710  152.8660 N   0  0  0  0  0  0  0  0  0  0  0  0
  162.2590  211.7680  149.4640 C   0  0  0  0  0  3  0  0  0  0  0  0
  160.0230  212.8070  149.2140 C   0  0  2  0  0  3  0  0  0  0  0  0
  158.3010  213.3160  151.0350 C   0  0  0  0  0  0  0  0  0  0  0  0
  159.1280  213.5610  148.2700 C   0  0  0  0  0  2  0  0  0  0  0  0
  157.3090  213.5140  149.9710 C   0  0  0  0  0  3  0  0  0  0  0  0
  159.7600  212.3590  154.3690 C   0  0  0  0  0  2  0  0  0  0  0  0
  158.5580  213.1540  154.6130 N   0  0  0  0  0  0  0  0  0  0  0  0
  159.6600  212.7780  150.7130 C   0  0  1  0  0  3  0  0  0  0  0  0
  161.9360  211.2300  150.5940 C   0  0  0  0  0  3  0  0  0  0  0  0
  161.2060  212.4510  148.7510 N   0  0  0  0  0  0  0  0  0  0  0  0
  161.1260  210.9320  151.5550 C   0  0  0  0  0  0  0  0  0  0  0  0
  157.9620  213.4470  152.2920 C   0  0  0  0  0  0  0  0  0  0  0  0
  157.6820  213.5720  148.6920 C   0  0  0  0  0  3  0  0  0  0  0  0
  162.9200  210.3410  153.2570 C   0  0  0  0  0  3  0  0  0  0  0  0
  160.5700  209.9830  153.8500 C   0  0  2  0  0  3  0  0  0  0  0  0
  157.6640  213.5680  153.5610 C   0  0  0  0  0  3  0  0  0  0  0  0
  163.8690  210.6970  152.5060 O   0  0  0  0  0  0  0  0  0  0  0  0
  158.2770  213.5540  155.9890 C   0  0  2  0  0  3  0  0  0  0  0  0
  160.2950  213.6190  157.2610 O   0  0  0  0  0  1  0  0  0  0  0  0
  159.1940  212.8140  156.9500 C   0  0  0  0  0  2  0  0  0  0  0  0
  156.9420  213.2900  156.3060 O   0  0  0  0  0  0  0  0  0  0  0  0
  155.9730  211.1400  155.9470 C   0  0  0  0  0  1  0  0  0  0  0  0
  156.9380  211.9740  156.7770 C   0  0  0  0  0  2  0  0  0  0  0  0
  160.0850  208.5980  153.4490 C   0  0  0  0  0  2  0  0  0  0  0  0
  160.6030  207.5320  154.4020 C   0  0  0  0  0  2  0  0  0  0  0  0
  161.1200  206.3480  153.6140 C   0  0  0  0  0  2  0  0  0  0  0  0
  161.8750  206.8340  152.3930 C   0  0  0  0  0  2  0  0  0  0  0  0
  161.3460  206.1560  151.1700 C   0  0  0  0  0  0  0  0  0  0  0  0
  160.9260  204.9360  151.2720 N   0  0  0  0  0  0  0  0  0  0  0  0
  161.2680  206.8410  149.9150 N   0  0  0  0  0  0  0  0  0  0  0  0
  162.1610  207.6930  149.5370 C   0  0  0  0  0  3  0  0  0  0  0  0
  162.0290  208.3720  148.2250 C   0  0  0  0  0  1  0  0  0  0  0  0
  160.3790  204.2480  150.1790 N   0  0  0  0  0  2  0  0  0  0  0  0
  160.9740  202.1850  148.8840 C   0  0  0  0  0  0  0  0  0  0  0  0
  160.9750  200.9280  148.8530 O   0  0  0  0  0  1  0  0  0  0  0  0
  160.4720  202.8530  150.0480 N   0  0  0  0  0  2  0  0  0  0  0  0
  161.4340  202.8950  147.7810 O   0  0  0  0  0  0  0  0  0  0  0  0
  1  9  1  0  0  0  0
  2 14  1  0  0  0  0
  3 17  1  0  0  0  0
  3 18  1  0  0  0  0
  4 12  1  0  0  0  0
  5  7  1  1  0  0  0
  5 11  1  0  0  0  0
  6 15  2  0  0  0  0
  7 16  1  0  0  0  0
  8  6  1  0  0  0  0
  9 10  1  0  0  0  0
 10 21  1  0  0  0  0
 11  6  1  6  0  0  0
 11  2  1  0  0  0  0
 12 14  2  0  0  0  0
 13  5  1  0  0  0  0
 13  4  2  0  0  0  0
 14  3  1  0  0  0  0
 15 19  2  0  0  0  0
 16  8  2  0  0  0  0
 18 27  1  6  0  0  0
 18  1  1  0  0  0  0
 19 10  1  0  0  0  0
 20 17  2  0  0  0  0
 21 24  1  0  0  0  0
 21 23  1  1  0  0  0
 23 22  1  0  0  0  0
 24 26  1  0  0  0  0
 25 26  1  0  0  0  0
 27 28  1  0  0  0  0
 29 28  1  0  0  0  0
 30 29  1  0  0  0  0
 31 32  2  0  0  0  0
 31 30  1  0  0  0  0
 33 31  1  0  0  0  0
 34 33  2  0  0  0  0
 35 34  1  0  0  0  0
 36 32  1  0  0  0  0
 37 39  1  0  0  0  0
 38 37  1  0  0  0  0
 39 36  1  0  0  0  0
 40 37  2  0  0  0  0
M  END
>  <MODEL>
7

>  <REMARK>
 VINA RESULT:      -4.0      2.525      4.146
  Name = 
  12 active torsions:
  status: ('A' for Active; 'I' for Inactive)
    1  A    between atoms: C_4  and  N_20
    2  A    between atoms: C_4  and  C_36
    3  A    between atoms: C_4  and  O_37
    4  A    between atoms: C_6  and  N_11
    5  A    between atoms: C_6  and  C_26
    6  A    between atoms: N_8  and  N_18
    7  A    between atoms: N_8  and  N_22
    8  A    between atoms: C_13  and  C_25
    9  A    between atoms: C_13  and  C_33
   10  A    between atoms: C_25  and  C_26
   11  A    between atoms: C_33  and  C_34
   12  A    between atoms: O_37  and  C_40
                            x       y       z     vdW  Elec       q    Type
                         _______ _______ _______ _____ _____    ______ ____

>  <TORSDO>
F 12

$$$$
=
 OpenBabel11052412043D

 40 42  0  0  1  0  0  0  0  0999 V2000
  160.8560  212.7230  149.3650 C   0  0  0  0  0  2  0  0  0  0  0  0
  161.4720  210.9950  151.4810 N   0  0  0  0  0  2  0  0  0  0  0  0
  161.6850  210.3590  149.0720 N   0  0  0  0  0  0  0  0  0  0  0  0
  161.8910  207.9520  151.8870 C   0  0  0  0  0  3  0  0  0  0  0  0
  161.1270  209.6030  153.5690 C   0  0  2  0  0  3  0  0  0  0  0  0
  159.9680  211.8480  153.1710 C   0  0  0  0  0  0  0  0  0  0  0  0
  160.8630  209.8180  155.0340 C   0  0  0  0  0  2  0  0  0  0  0  0
  160.2640  212.1900  154.5680 C   0  0  0  0  0  3  0  0  0  0  0  0
  159.4060  212.2720  149.4750 C   0  0  0  0  0  2  0  0  0  0  0  0
  158.6230  213.2910  150.1710 N   0  0  0  0  0  0  0  0  0  0  0  0
  160.5440  210.6110  152.5570 C   0  0  1  0  0  3  0  0  0  0  0  0
  161.9230  208.8450  150.9540 C   0  0  0  0  0  3  0  0  0  0  0  0
  161.6010  208.4230  153.2200 N   0  0  0  0  0  0  0  0  0  0  0  0
  161.8240  210.0430  150.4810 C   0  0  0  0  0  0  0  0  0  0  0  0
  159.3400  212.6960  152.3980 C   0  0  0  0  0  0  0  0  0  0  0  0
  160.7270  211.2690  155.4130 C   0  0  0  0  0  3  0  0  0  0  0  0
  161.5940  209.3640  148.0430 C   0  0  0  0  0  3  0  0  0  0  0  0
  161.7550  211.7460  148.5910 C   0  0  2  0  0  3  0  0  0  0  0  0
  158.7140  213.5160  151.5910 C   0  0  0  0  0  3  0  0  0  0  0  0
  161.5490  208.1310  148.3030 O   0  0  0  0  0  0  0  0  0  0  0  0
  157.6990  214.0960  149.3770 C   0  0  2  0  0  3  0  0  0  0  0  0
  155.5450  214.1080  150.4060 O   0  0  0  0  0  1  0  0  0  0  0  0
  156.3060  213.4860  149.4110 C   0  0  0  0  0  2  0  0  0  0  0  0
  158.1470  214.1850  148.0570 O   0  0  0  0  0  0  0  0  0  0  0  0
  157.3500  212.6510  146.4140 C   0  0  0  0  0  1  0  0  0  0  0  0
  157.0330  213.8640  147.2760 C   0  0  0  0  0  2  0  0  0  0  0  0
  163.1970  212.2290  148.6210 C   0  0  0  0  0  2  0  0  0  0  0  0
  163.5040  213.1320  147.4380 C   0  0  0  0  0  2  0  0  0  0  0  0
  162.4350  212.9720  146.3800 C   0  0  0  0  0  2  0  0  0  0  0  0
  162.6030  214.0370  145.3150 C   0  0  0  0  0  2  0  0  0  0  0  0
  161.9710  213.5790  144.0400 C   0  0  0  0  0  0  0  0  0  0  0  0
  162.5010  212.5800  143.4110 N   0  0  0  0  0  0  0  0  0  0  0  0
  160.7860  214.2020  143.5310 N   0  0  0  0  0  0  0  0  0  0  0  0
  159.6030  213.7640  143.8070 C   0  0  0  0  0  3  0  0  0  0  0  0
  158.4110  214.4510  143.2530 C   0  0  0  0  0  1  0  0  0  0  0  0
  161.9410  212.0680  142.2310 N   0  0  0  0  0  0  0  0  0  0  0  0
  162.2880  211.2900  139.8720 C   0  0  0  0  0  0  0  0  0  0  0  0
  162.9860  211.3740  138.8300 O   0  0  0  0  0  0  0  0  0  0  0  0
  162.6180  212.1080  141.0010 N   0  0  0  0  0  0  0  0  0  0  0  0
  161.2290  210.3890  139.9140 O   0  0  0  0  0  1  0  0  0  0  0  0
  1  9  1  0  0  0  0
  3 14  1  0  0  0  0
  4 13  2  0  0  0  0
  5  7  1  1  0  0  0
  6  8  1  0  0  0  0
  7 16  1  0  0  0  0
  8 16  2  0  0  0  0
  9 10  1  0  0  0  0
 10 19  1  0  0  0  0
 11  2  1  6  0  0  0
 11  6  1  0  0  0  0
 11  5  1  0  0  0  0
 12  4  1  0  0  0  0
 13  5  1  0  0  0  0
 14 12  2  0  0  0  0
 14  2  1  0  0  0  0
 15  6  2  0  0  0  0
 17 20  2  0  0  0  0
 17  3  1  0  0  0  0
 18 27  1  1  0  0  0
 18  3  1  0  0  0  0
 18  1  1  0  0  0  0
 19 15  2  0  0  0  0
 21 23  1  6  0  0  0
 21 10  1  0  0  0  0
 23 22  1  0  0  0  0
 24 21  1  0  0  0  0
 25 26  1  0  0  0  0
 26 24  1  0  0  0  0
 28 27  1  0  0  0  0
 29 28  1  0  0  0  0
 30 29  1  0  0  0  0
 31 30  1  0  0  0  0
 32 31  2  0  0  0  0
 33 34  2  0  0  0  0
 33 31  1  0  0  0  0
 35 34  1  0  0  0  0
 36 32  1  0  0  0  0
 37 40  1  0  0  0  0
 37 39  1  0  0  0  0
 38 37  2  0  0  0  0
 39 36  2  0  0  0  0
M  END
>  <MODEL>
8

>  <REMARK>
 VINA RESULT:      -3.6      4.434      7.744
  Name = 
  12 active torsions:
  status: ('A' for Active; 'I' for Inactive)
    1  A    between atoms: C_4  and  N_20
    2  A    between atoms: C_4  and  C_36
    3  A    between atoms: C_4  and  O_37
    4  A    between atoms: C_6  and  N_11
    5  A    between atoms: C_6  and  C_26
    6  A    between atoms: N_8  and  N_18
    7  A    between atoms: N_8  and  N_22
    8  A    between atoms: C_13  and  C_25
    9  A    between atoms: C_13  and  C_33
   10  A    between atoms: C_25  and  C_26
   11  A    between atoms: C_33  and  C_34
   12  A    between atoms: O_37  and  C_40
                            x       y       z     vdW  Elec       q    Type
                         _______ _______ _______ _____ _____    ______ ____

>  <TORSDO>
F 12

$$$$
=
 OpenBabel11052412043D

 40 42  0  0  1  0  0  0  0  0999 V2000
  160.6580  211.8030  149.9500 C   0  0  0  0  0  2  0  0  0  0  0  0
  160.0900  212.6530  147.3420 N   0  0  0  0  0  2  0  0  0  0  0  0
  162.4120  212.3930  148.2360 N   0  0  0  0  0  0  0  0  0  0  0  0
  161.5890  214.0820  145.0370 C   0  0  0  0  0  3  0  0  0  0  0  0
  159.1510  214.0900  145.4800 C   0  0  2  0  0  3  0  0  0  0  0  0
  157.9440  213.7070  147.7020 C   0  0  0  0  0  0  0  0  0  0  0  0
  157.8090  214.4530  144.9060 C   0  0  0  0  0  2  0  0  0  0  0  0
  156.7020  213.5330  146.9390 C   0  0  0  0  0  3  0  0  0  0  0  0
  160.5210  213.2490  150.4050 C   0  0  0  0  0  2  0  0  0  0  0  0
  159.2220  213.4430  151.0470 N   0  0  0  0  0  0  0  0  0  0  0  0
  159.2580  213.8160  146.9940 C   0  0  1  0  0  3  0  0  0  0  0  0
  161.8290  213.3880  146.1000 C   0  0  0  0  0  3  0  0  0  0  0  0
  160.2000  214.2990  144.7090 N   0  0  0  0  0  0  0  0  0  0  0  0
  161.5010  212.7150  147.1530 C   0  0  0  0  0  0  0  0  0  0  0  0
  157.9430  213.6020  149.0060 C   0  0  0  0  0  0  0  0  0  0  0  0
  156.6530  213.8240  145.6390 C   0  0  0  0  0  3  0  0  0  0  0  0
  163.7770  212.8320  148.2790 C   0  0  0  0  0  3  0  0  0  0  0  0
  162.0190  211.4770  149.3150 C   0  0  2  0  0  3  0  0  0  0  0  0
  157.9860  213.5050  150.3110 C   0  0  0  0  0  3  0  0  0  0  0  0
  164.2630  213.6030  147.4070 O   0  0  0  0  0  0  0  0  0  0  0  0
  159.2000  213.5990  152.4980 C   0  0  2  0  0  3  0  0  0  0  0  0
  158.8140  211.2500  152.6640 O   0  0  0  0  0  1  0  0  0  0  0  0
  159.5910  212.2940  153.1750 C   0  0  0  0  0  2  0  0  0  0  0  0
  157.9280  213.9920  152.9230 O   0  0  0  0  0  0  0  0  0  0  0  0
  157.0250  213.8670  155.1270 C   0  0  0  0  0  1  0  0  0  0  0  0
  158.1100  214.4470  154.2320 C   0  0  0  0  0  2  0  0  0  0  0  0
  162.0250  210.0450  148.8010 C   0  0  0  0  0  2  0  0  0  0  0  0
  161.1900  209.1340  149.6860 C   0  0  0  0  0  2  0  0  0  0  0  0
  161.9960  208.7150  150.8960 C   0  0  0  0  0  2  0  0  0  0  0  0
  162.7190  207.4150  150.6060 C   0  0  0  0  0  2  0  0  0  0  0  0
  162.1550  206.3230  151.4560 C   0  0  0  0  0  0  0  0  0  0  0  0
  161.8320  205.2040  150.8910 N   0  0  0  0  0  0  0  0  0  0  0  0
  161.9990  206.4860  152.8700 N   0  0  0  0  0  0  0  0  0  0  0  0
  161.0060  207.1300  153.3860 C   0  0  0  0  0  3  0  0  0  0  0  0
  160.8970  207.2650  154.8590 C   0  0  0  0  0  1  0  0  0  0  0  0
  161.3350  204.1200  151.6290 N   0  0  0  0  0  2  0  0  0  0  0  0
  160.5500  202.6590  149.7470 C   0  0  0  0  0  0  0  0  0  0  0  0
  159.6760  201.8550  149.3360 O   0  0  0  0  0  1  0  0  0  0  0  0
  160.4470  203.1820  151.0770 N   0  0  0  0  0  2  0  0  0  0  0  0
  161.5800  203.0420  148.8950 O   0  0  0  0  0  0  0  0  0  0  0  0
  1  9  1  0  0  0  0
  3 17  1  0  0  0  0
  3 18  1  0  0  0  0
  4 12  1  0  0  0  0
  5  7  1  1  0  0  0
  5 11  1  0  0  0  0
  6 15  2  0  0  0  0
  7 16  1  0  0  0  0
  8  6  1  0  0  0  0
  9 10  1  0  0  0  0
 10 21  1  0  0  0  0
 11  2  1  6  0  0  0
 11  6  1  0  0  0  0
 12 14  2  0  0  0  0
 13  4  2  0  0  0  0
 13  5  1  0  0  0  0
 14  2  1  0  0  0  0
 14  3  1  0  0  0  0
 15 19  2  0  0  0  0
 16  8  2  0  0  0  0
 18 27  1  6  0  0  0
 18  1  1  0  0  0  0
 19 10  1  0  0  0  0
 20 17  2  0  0  0  0
 21 24  1  0  0  0  0
 21 23  1  1  0  0  0
 22 23  1  0  0  0  0
 24 26  1  0  0  0  0
 26 25  1  0  0  0  0
 27 28  1  0  0  0  0
 28 29  1  0  0  0  0
 30 29  1  0  0  0  0
 30 31  1  0  0  0  0
 31 33  1  0  0  0  0
 32 31  2  0  0  0  0
 32 36  1  0  0  0  0
 33 34  2  0  0  0  0
 34 35  1  0  0  0  0
 37 39  1  0  0  0  0
 38 37  1  0  0  0  0
 39 36  1  0  0  0  0
 40 37  2  0  0  0  0
M  END
>  <MODEL>
9

>  <REMARK>
 VINA RESULT:      -3.5      3.408      5.760
  Name = 
  12 active torsions:
  status: ('A' for Active; 'I' for Inactive)
    1  A    between atoms: C_4  and  N_20
    2  A    between atoms: C_4  and  C_36
    3  A    between atoms: C_4  and  O_37
    4  A    between atoms: C_6  and  N_11
    5  A    between atoms: C_6  and  C_26
    6  A    between atoms: N_8  and  N_18
    7  A    between atoms: N_8  and  N_22
    8  A    between atoms: C_13  and  C_25
    9  A    between atoms: C_13  and  C_33
   10  A    between atoms: C_25  and  C_26
   11  A    between atoms: C_33  and  C_34
   12  A    between atoms: O_37  and  C_40
                            x       y       z     vdW  Elec       q    Type
                         _______ _______ _______ _____ _____    ______ ____

>  <TORSDO>
F 12

$$$$
