=
 OpenBabel11052411383D

 43 48  0  0  1  0  0  0  0  0999 V2000
  161.1840  204.4330  150.0560 C   0  0  0  0  0  0  0  0  0  0  0  0
  162.2830  209.6660  150.1420 O   0  0  0  0  0  0  0  0  0  0  0  0
  161.3620  206.6970  151.0000 C   0  0  0  0  0  0  0  0  0  0  0  0
  161.0680  206.5260  148.4560 C   0  0  2  0  0  3  0  0  0  0  0  0
  161.2370  201.4040  151.0820 N   0  0  0  0  0  0  0  0  0  0  0  0
  161.6210  207.8890  148.4400 N   0  0  0  0  0  0  0  0  0  0  0  0
  160.9940  201.2910  149.6540 C   0  0  0  0  0  2  0  0  0  0  0  0
  161.4360  202.4780  151.7880 C   0  0  0  0  0  3  0  0  0  0  0  0
  161.0690  208.1670  150.8660 C   0  0  1  0  0  3  0  0  0  0  0  0
  161.2440  205.8490  149.8530 C   0  0  0  0  0  0  0  0  0  0  0  0
  161.9950  209.1180  151.4210 C   0  0  2  0  0  3  0  0  0  0  0  0
  161.6140  208.5340  149.5530 C   0  0  0  0  0  0  0  0  0  0  0  0
  161.5480  206.1560  152.2640 C   0  0  0  0  0  3  0  0  0  0  0  0
  160.9000  203.5570  148.8700 C   0  0  0  0  0  2  0  0  0  0  0  0
  161.6070  204.7810  152.4320 C   0  0  0  0  0  3  0  0  0  0  0  0
  160.0440  202.3580  149.1820 C   0  0  0  0  0  2  0  0  0  0  0  0
  161.4260  203.9040  151.3630 C   0  0  0  0  0  0  0  0  0  0  0  0
  161.7510  205.7650  147.3280 C   0  0  0  0  0  2  0  0  0  0  0  0
  161.3780  206.3040  146.0950 O   0  0  0  0  0  0  0  0  0  0  0  0
  161.8190  205.3700  145.1500 C   0  0  1  0  0  3  0  0  0  0  0  0
  161.6360  203.9330  145.6410 C   0  0  0  0  0  2  0  0  0  0  0  0
  160.5490  203.2050  144.9110 C   0  0  0  0  0  3  0  0  0  0  0  0
  160.2420  201.9760  145.1830 N   0  0  0  0  0  0  0  0  0  0  0  0
  161.1150  199.8500  146.0670 C   0  0  0  0  0  0  0  0  0  0  0  0
  160.7380  199.2330  145.0350 O   0  0  0  0  0  0  0  0  0  0  0  0
  161.7390  199.1590  147.0970 O   0  0  0  0  0  1  0  0  0  0  0  0
  160.9050  201.2560  146.1850 N   0  0  0  0  0  2  0  0  0  0  0  0
  161.2000  205.6240  143.7750 C   0  0  0  0  0  2  0  0  0  0  0  0
  162.2480  205.9220  142.7100 C   0  0  0  0  0  2  0  0  0  0  0  0
  161.6080  206.5730  141.4990 C   0  0  0  0  0  2  0  0  0  0  0  0
  162.4700  206.3640  140.2670 C   0  0  0  0  0  2  0  0  0  0  0  0
  162.5720  207.5630  139.5630 O   0  0  0  0  0  0  0  0  0  0  0  0
  161.2650  207.8510  139.1720 C   0  0  0  0  0  1  0  0  0  0  0  0
  161.3000  210.1470  152.3120 C   0  0  0  0  0  2  0  0  0  0  0  0
  160.4270  209.5370  153.2200 O   0  0  0  0  0  0  0  0  0  0  0  0
  161.1420  209.4690  154.4210 C   0  0  2  0  0  3  0  0  0  0  0  0
  160.0940  207.4560  155.4420 C   0  0  1  0  0  3  0  0  0  0  0  0
  160.2390  208.9640  155.5360 C   0  0  1  0  0  3  0  0  0  0  0  0
  161.0240  208.0550  156.4660 C   0  0  1  0  0  3  0  0  0  0  0  0
  160.1470  206.8750  156.8430 C   0  0  0  0  0  2  0  0  0  0  0  0
  161.7130  210.8400  154.7790 C   0  0  0  0  0  3  0  0  0  0  0  0
  160.7890  211.5580  155.5380 O   0  0  0  0  0  1  0  0  0  0  0  0
  162.9050  210.7080  155.4950 O   0  0  0  0  0  1  0  0  0  0  0  0
  1 17  1  0  0  0  0
  2 11  1  0  0  0  0
  3 13  2  0  0  0  0
  4 18  1  6  0  0  0
  4 10  1  0  0  0  0
  5  8  2  0  0  0  0
  6  4  1  0  0  0  0
  6 12  2  0  0  0  0
  7  5  1  0  0  0  0
  9 12  1  6  0  0  0
  9  3  1  0  0  0  0
  9 11  1  0  0  0  0
 10  1  2  0  0  0  0
 10  3  1  0  0  0  0
 11 34  1  1  0  0  0
 12  2  1  0  0  0  0
 13 15  1  0  0  0  0
 14 16  1  0  0  0  0
 14  1  1  0  0  0  0
 16  7  1  0  0  0  0
 17  8  1  0  0  0  0
 17 15  2  0  0  0  0
 19 18  1  0  0  0  0
 20 28  1  6  0  0  0
 20 21  1  0  0  0  0
 20 19  1  0  0  0  0
 22 23  2  0  0  0  0
 22 21  1  0  0  0  0
 23 27  1  0  0  0  0
 24 27  1  0  0  0  0
 24 26  1  0  0  0  0
 25 24  2  0  0  0  0
 29 28  1  0  0  0  0
 30 29  1  0  0  0  0
 31 30  1  0  0  0  0
 32 31  1  0  0  0  0
 33 32  1  0  0  0  0
 34 35  1  0  0  0  0
 36 35  1  6  0  0  0
 36 41  1  0  0  0  0
 37 38  1  0  0  0  0
 37 39  1  0  0  0  0
 37 40  1  1  0  0  0
 38 36  1  6  0  0  0
 38 39  1  0  0  0  0
 39 40  1  1  0  0  0
 41 43  1  0  0  0  0
 41 42  1  0  0  0  0
M  END
>  <MODEL>
1

>  <REMARK>
 VINA RESULT:      -7.4      0.000      0.000
  Name = 
  16 active torsions:
  status: ('A' for Active; 'I' for Inactive)
    1  A    between atoms: C_1  and  C_11
    2  A    between atoms: C_1  and  O_30
    3  A    between atoms: O_2  and  C_3
    4  A    between atoms: O_2  and  C_4
    5  A    between atoms: C_3  and  C_27
    6  A    between atoms: C_4  and  C_15
    7  A    between atoms: C_4  and  C_23
    8  A    between atoms: C_6  and  C_25
    9  A    between atoms: C_6  and  C_43
   10  A    between atoms: C_7  and  C_20
   11  A    between atoms: C_7  and  C_25
   12  A    between atoms: O_17  and  C_22
   13  A    between atoms: C_22  and  C_39
   14  A    between atoms: C_25  and  O_30
   15  A    between atoms: N_37  and  N_42
   16  A    between atoms: C_39  and  C_43
                            x       y       z     vdW  Elec       q    Type
                         _______ _______ _______ _____ _____    ______ ____

>  <TORSDO>
F 16

$$$$
=
 OpenBabel11052411383D

 43 48  0  0  1  0  0  0  0  0999 V2000
  161.2280  208.4290  153.9410 C   0  0  0  0  0  0  0  0  0  0  0  0
  161.5680  208.6290  148.6080 O   0  0  0  0  0  0  0  0  0  0  0  0
  161.6200  207.5930  151.6620 C   0  0  0  0  0  0  0  0  0  0  0  0
  161.9730  210.1050  152.0480 C   0  0  2  0  0  3  0  0  0  0  0  0
  160.3190  207.2800  156.7850 N   0  0  0  0  0  0  0  0  0  0  0  0
  161.8070  210.2120  150.5900 N   0  0  0  0  0  0  0  0  0  0  0  0
  160.5880  208.6860  157.0380 C   0  0  0  0  0  2  0  0  0  0  0  0
  160.3830  206.6340  155.6580 C   0  0  0  0  0  3  0  0  0  0  0  0
  162.3020  207.7710  150.3320 C   0  0  1  0  0  3  0  0  0  0  0  0
  161.5590  208.6940  152.5750 C   0  0  0  0  0  0  0  0  0  0  0  0
  161.6390  207.3120  149.1400 C   0  0  2  0  0  3  0  0  0  0  0  0
  161.9350  209.1290  149.9080 C   0  0  0  0  0  0  0  0  0  0  0  0
  161.2380  206.3200  152.0620 C   0  0  0  0  0  3  0  0  0  0  0  0
  161.3210  209.5580  154.9270 C   0  0  0  0  0  2  0  0  0  0  0  0
  160.8060  206.0980  153.3600 C   0  0  0  0  0  3  0  0  0  0  0  0
  161.8090  209.1450  156.2900 C   0  0  0  0  0  2  0  0  0  0  0  0
  160.7940  207.1170  154.3130 C   0  0  0  0  0  0  0  0  0  0  0  0
  161.1640  211.2380  152.6630 C   0  0  0  0  0  2  0  0  0  0  0  0
  159.9050  211.3060  152.0630 O   0  0  0  0  0  0  0  0  0  0  0  0
  159.3560  212.5100  152.5200 C   0  0  1  0  0  3  0  0  0  0  0  0
  158.7690  213.3390  151.3750 C   0  0  0  0  0  2  0  0  0  0  0  0
  159.6820  214.4410  150.9300 C   0  0  0  0  0  3  0  0  0  0  0  0
  160.2190  214.4530  149.7510 N   0  0  0  0  0  0  0  0  0  0  0  0
  161.0400  212.7460  148.1770 C   0  0  0  0  0  0  0  0  0  0  0  0
  162.2370  213.0110  148.4700 O   0  0  0  0  0  1  0  0  0  0  0  0
  160.7590  211.7750  147.2250 O   0  0  0  0  0  0  0  0  0  0  0  0
  159.9700  213.4390  148.8170 N   0  0  0  0  0  2  0  0  0  0  0  0
  158.3720  212.2820  153.6680 C   0  0  0  0  0  2  0  0  0  0  0  0
  158.9790  212.6040  155.0280 C   0  0  0  0  0  2  0  0  0  0  0  0
  157.8890  212.8450  156.0540 C   0  0  0  0  0  2  0  0  0  0  0  0
  157.1360  211.5570  156.3390 C   0  0  0  0  0  2  0  0  0  0  0  0
  155.8130  211.6910  155.9210 O   0  0  0  0  0  0  0  0  0  0  0  0
  155.5270  210.4900  155.2720 C   0  0  0  0  0  1  0  0  0  0  0  0
  162.5440  206.4270  148.2830 C   0  0  0  0  0  2  0  0  0  0  0  0
  162.0570  206.3040  146.9770 O   0  0  0  0  0  0  0  0  0  0  0  0
  161.3020  205.1250  146.9800 C   0  0  2  0  0  3  0  0  0  0  0  0
  160.8200  203.8530  149.0630 C   0  0  1  0  0  3  0  0  0  0  0  0
  161.8640  204.1500  148.0030 C   0  0  1  0  0  3  0  0  0  0  0  0
  161.0770  202.8520  147.9670 C   0  0  1  0  0  3  0  0  0  0  0  0
  160.8700  202.3720  149.3910 C   0  0  0  0  0  2  0  0  0  0  0  0
  161.2940  204.4940  145.5890 C   0  0  0  0  0  3  0  0  0  0  0  0
  160.6950  205.3610  144.6760 O   0  0  0  0  0  1  0  0  0  0  0  0
  162.5950  204.2020  145.1720 O   0  0  0  0  0  1  0  0  0  0  0  0
  1 17  1  0  0  0  0
  1 14  1  0  0  0  0
  2 11  1  0  0  0  0
  2 12  1  0  0  0  0
  3 13  2  0  0  0  0
  3 10  1  0  0  0  0
  4 10  1  0  0  0  0
  4 18  1  1  0  0  0
  5  7  1  0  0  0  0
  6  4  1  0  0  0  0
  8  5  2  0  0  0  0
  9 12  1  6  0  0  0
  9  3  1  0  0  0  0
 10  1  2  0  0  0  0
 11 34  1  6  0  0  0
 11  9  1  0  0  0  0
 12  6  2  0  0  0  0
 13 15  1  0  0  0  0
 14 16  1  0  0  0  0
 15 17  2  0  0  0  0
 16  7  1  0  0  0  0
 17  8  1  0  0  0  0
 19 20  1  0  0  0  0
 19 18  1  0  0  0  0
 20 21  1  6  0  0  0
 20 28  1  0  0  0  0
 22 21  1  0  0  0  0
 23 22  2  0  0  0  0
 24 25  1  0  0  0  0
 24 27  1  0  0  0  0
 26 24  2  0  0  0  0
 27 23  1  0  0  0  0
 28 29  1  0  0  0  0
 29 30  1  0  0  0  0
 30 31  1  0  0  0  0
 32 31  1  0  0  0  0
 33 32  1  0  0  0  0
 35 36  1  0  0  0  0
 35 34  1  0  0  0  0
 36 41  1  6  0  0  0
 37 40  1  1  0  0  0
 38 36  1  6  0  0  0
 38 37  1  0  0  0  0
 39 38  1  0  0  0  0
 39 37  1  0  0  0  0
 39 40  1  1  0  0  0
 42 41  1  0  0  0  0
 43 41  1  0  0  0  0
M  END
>  <MODEL>
2

>  <REMARK>
 VINA RESULT:      -7.2      3.702     10.075
  Name = 
  16 active torsions:
  status: ('A' for Active; 'I' for Inactive)
    1  A    between atoms: C_1  and  C_11
    2  A    between atoms: C_1  and  O_30
    3  A    between atoms: O_2  and  C_3
    4  A    between atoms: O_2  and  C_4
    5  A    between atoms: C_3  and  C_27
    6  A    between atoms: C_4  and  C_15
    7  A    between atoms: C_4  and  C_23
    8  A    between atoms: C_6  and  C_25
    9  A    between atoms: C_6  and  C_43
   10  A    between atoms: C_7  and  C_20
   11  A    between atoms: C_7  and  C_25
   12  A    between atoms: O_17  and  C_22
   13  A    between atoms: C_22  and  C_39
   14  A    between atoms: C_25  and  O_30
   15  A    between atoms: N_37  and  N_42
   16  A    between atoms: C_39  and  C_43
                            x       y       z     vdW  Elec       q    Type
                         _______ _______ _______ _____ _____    ______ ____

>  <TORSDO>
F 16

$$$$
=
 OpenBabel11052411383D

 43 48  0  0  1  0  0  0  0  0999 V2000
  161.3820  209.1850  154.1720 C   0  0  0  0  0  0  0  0  0  0  0  0
  160.8710  206.9210  149.3540 O   0  0  0  0  0  0  0  0  0  0  0  0
  161.1990  207.3620  152.5320 C   0  0  0  0  0  0  0  0  0  0  0  0
  162.1540  209.5870  151.6830 C   0  0  2  0  0  3  0  0  0  0  0  0
  160.7260  209.6980  157.2610 N   0  0  0  0  0  0  0  0  0  0  0  0
  161.7760  209.0830  150.3540 N   0  0  0  0  0  0  0  0  0  0  0  0
  161.3360  210.9400  156.8150 C   0  0  0  0  0  2  0  0  0  0  0  0
  160.4590  208.6310  156.5650 C   0  0  0  0  0  3  0  0  0  0  0  0
  161.6730  206.7450  151.2440 C   0  0  1  0  0  3  0  0  0  0  0  0
  161.5320  208.7220  152.8260 C   0  0  0  0  0  0  0  0  0  0  0  0
  160.7380  206.0080  150.4360 C   0  0  2  0  0  3  0  0  0  0  0  0
  161.5490  207.8210  150.2520 C   0  0  0  0  0  0  0  0  0  0  0  0
  160.6180  206.5510  153.4970 C   0  0  0  0  0  3  0  0  0  0  0  0
  161.8830  210.5600  154.5110 C   0  0  0  0  0  2  0  0  0  0  0  0
  160.3690  207.0490  154.7670 C   0  0  0  0  0  3  0  0  0  0  0  0
  162.4870  210.6730  155.8850 C   0  0  0  0  0  2  0  0  0  0  0  0
  160.7380  208.3430  155.1330 C   0  0  0  0  0  0  0  0  0  0  0  0
  161.7260  211.0470  151.7330 C   0  0  0  0  0  2  0  0  0  0  0  0
  160.3930  211.1680  151.3380 O   0  0  0  0  0  0  0  0  0  0  0  0
  159.8700  212.1830  152.1490 C   0  0  1  0  0  3  0  0  0  0  0  0
  159.6920  213.4930  151.3770 C   0  0  0  0  0  2  0  0  0  0  0  0
  158.7240  213.3690  150.2410 C   0  0  0  0  0  3  0  0  0  0  0  0
  159.0620  213.6320  149.0180 N   0  0  0  0  0  0  0  0  0  0  0  0
  161.1550  213.2930  147.7660 C   0  0  0  0  0  0  0  0  0  0  0  0
  160.6890  212.2640  147.2080 O   0  0  0  0  0  0  0  0  0  0  0  0
  162.4530  213.7020  147.4890 O   0  0  0  0  0  1  0  0  0  0  0  0
  160.3600  214.0410  148.6840 N   0  0  0  0  0  2  0  0  0  0  0  0
  158.6020  211.7300  152.8730 C   0  0  0  0  0  2  0  0  0  0  0  0
  158.6610  211.9990  154.3720 C   0  0  0  0  0  2  0  0  0  0  0  0
  157.8370  210.9740  155.1290 C   0  0  0  0  0  2  0  0  0  0  0  0
  156.4230  211.4840  155.3410 C   0  0  0  0  0  2  0  0  0  0  0  0
  156.4690  212.7620  155.8960 O   0  0  0  0  0  0  0  0  0  0  0  0
  156.6600  212.5440  157.2610 C   0  0  0  0  0  1  0  0  0  0  0  0
  161.2720  204.6280  150.0520 C   0  0  0  0  0  2  0  0  0  0  0  0
  160.5780  204.0920  148.9610 O   0  0  0  0  0  0  0  0  0  0  0  0
  161.5110  203.2880  148.2960 C   0  0  2  0  0  3  0  0  0  0  0  0
  161.2890  205.1850  146.7010 C   0  0  1  0  0  3  0  0  0  0  0  0
  161.6160  203.7090  146.8390 C   0  0  1  0  0  3  0  0  0  0  0  0
  162.7260  204.7310  146.6740 C   0  0  1  0  0  3  0  0  0  0  0  0
  162.2570  205.8040  145.7100 C   0  0  0  0  0  2  0  0  0  0  0  0
  161.1150  201.8170  148.3990 C   0  0  0  0  0  3  0  0  0  0  0  0
  160.1220  201.6570  149.3660 O   0  0  0  0  0  1  0  0  0  0  0  0
  160.6490  201.3430  147.1700 O   0  0  0  0  0  1  0  0  0  0  0  0
  1 14  1  0  0  0  0
  1 17  1  0  0  0  0
  2 12  1  0  0  0  0
  2 11  1  0  0  0  0
  3 10  1  0  0  0  0
  3 13  2  0  0  0  0
  4 18  1  1  0  0  0
  4 10  1  0  0  0  0
  6  4  1  0  0  0  0
  7  5  1  0  0  0  0
  8  5  2  0  0  0  0
  9 12  1  6  0  0  0
  9  3  1  0  0  0  0
 10  1  2  0  0  0  0
 11 34  1  6  0  0  0
 11  9  1  0  0  0  0
 12  6  2  0  0  0  0
 13 15  1  0  0  0  0
 14 16  1  0  0  0  0
 15 17  2  0  0  0  0
 16  7  1  0  0  0  0
 17  8  1  0  0  0  0
 19 18  1  0  0  0  0
 19 20  1  0  0  0  0
 20 21  1  6  0  0  0
 20 28  1  0  0  0  0
 22 21  1  0  0  0  0
 23 22  2  0  0  0  0
 24 27  1  0  0  0  0
 25 24  2  0  0  0  0
 26 24  1  0  0  0  0
 27 23  1  0  0  0  0
 28 29  1  0  0  0  0
 29 30  1  0  0  0  0
 30 31  1  0  0  0  0
 31 32  1  0  0  0  0
 32 33  1  0  0  0  0
 35 34  1  0  0  0  0
 36 41  1  6  0  0  0
 36 35  1  0  0  0  0
 37 40  1  6  0  0  0
 37 38  1  0  0  0  0
 38 36  1  1  0  0  0
 39 40  1  6  0  0  0
 39 37  1  0  0  0  0
 39 38  1  0  0  0  0
 41 42  1  0  0  0  0
 43 41  1  0  0  0  0
M  END
>  <MODEL>
3

>  <REMARK>
 VINA RESULT:      -7.2      3.586     10.299
  Name = 
  16 active torsions:
  status: ('A' for Active; 'I' for Inactive)
    1  A    between atoms: C_1  and  C_11
    2  A    between atoms: C_1  and  O_30
    3  A    between atoms: O_2  and  C_3
    4  A    between atoms: O_2  and  C_4
    5  A    between atoms: C_3  and  C_27
    6  A    between atoms: C_4  and  C_15
    7  A    between atoms: C_4  and  C_23
    8  A    between atoms: C_6  and  C_25
    9  A    between atoms: C_6  and  C_43
   10  A    between atoms: C_7  and  C_20
   11  A    between atoms: C_7  and  C_25
   12  A    between atoms: O_17  and  C_22
   13  A    between atoms: C_22  and  C_39
   14  A    between atoms: C_25  and  O_30
   15  A    between atoms: N_37  and  N_42
   16  A    between atoms: C_39  and  C_43
                            x       y       z     vdW  Elec       q    Type
                         _______ _______ _______ _____ _____    ______ ____

>  <TORSDO>
F 16

$$$$
=
 OpenBabel11052411383D

 43 48  0  0  1  0  0  0  0  0999 V2000
  161.3990  209.1440  153.9690 C   0  0  0  0  0  0  0  0  0  0  0  0
  160.7150  206.8690  149.1780 O   0  0  0  0  0  0  0  0  0  0  0  0
  161.2300  207.3180  152.3300 C   0  0  0  0  0  0  0  0  0  0  0  0
  161.9680  209.6080  151.4370 C   0  0  2  0  0  3  0  0  0  0  0  0
  160.9230  209.5970  157.1000 N   0  0  0  0  0  0  0  0  0  0  0  0
  161.5360  209.0840  150.1330 N   0  0  0  0  0  0  0  0  0  0  0  0
  161.4130  210.8800  156.6250 C   0  0  0  0  0  2  0  0  0  0  0  0
  160.6830  208.5180  156.4150 C   0  0  0  0  0  3  0  0  0  0  0  0
  161.6560  206.7410  151.0070 C   0  0  1  0  0  3  0  0  0  0  0  0
  161.4880  208.6970  152.6130 C   0  0  0  0  0  0  0  0  0  0  0  0
  160.7210  205.9440  150.2580 C   0  0  2  0  0  3  0  0  0  0  0  0
  161.3900  207.8100  150.0350 C   0  0  0  0  0  0  0  0  0  0  0  0
  160.7740  206.4650  153.3260 C   0  0  0  0  0  3  0  0  0  0  0  0
  161.8260  210.5480  154.2850 C   0  0  0  0  0  2  0  0  0  0  0  0
  160.5790  206.9390  154.6130 C   0  0  0  0  0  3  0  0  0  0  0  0
  162.5130  210.6980  155.6160 C   0  0  0  0  0  2  0  0  0  0  0  0
  160.8820  208.2550  154.9650 C   0  0  0  0  0  0  0  0  0  0  0  0
  161.4450  211.0350  151.5290 C   0  0  0  0  0  2  0  0  0  0  0  0
  161.3280  211.5830  150.2510 O   0  0  0  0  0  0  0  0  0  0  0  0
  160.3180  212.5460  150.3660 C   0  0  1  0  0  3  0  0  0  0  0  0
  159.9710  212.8350  151.8290 C   0  0  0  0  0  2  0  0  0  0  0  0
  158.6930  213.6010  151.9810 C   0  0  0  0  0  3  0  0  0  0  0  0
  157.7230  213.1770  152.7270 N   0  0  0  0  0  0  0  0  0  0  0  0
  157.9330  211.9750  154.8660 C   0  0  0  0  0  0  0  0  0  0  0  0
  157.9190  213.0580  155.5100 O   0  0  0  0  0  0  0  0  0  0  0  0
  158.0650  210.7700  155.5440 O   0  0  0  0  0  1  0  0  0  0  0  0
  157.8150  211.9770  153.4450 N   0  0  0  0  0  2  0  0  0  0  0  0
  160.6440  213.8050  149.5620 C   0  0  0  0  0  2  0  0  0  0  0  0
  159.6620  214.0360  148.4190 C   0  0  0  0  0  2  0  0  0  0  0  0
  159.4550  212.7580  147.6290 C   0  0  0  0  0  2  0  0  0  0  0  0
  160.2150  212.8180  146.3160 C   0  0  0  0  0  2  0  0  0  0  0  0
  159.5300  212.0840  145.3490 O   0  0  0  0  0  0  0  0  0  0  0  0
  159.1210  213.0330  144.4130 C   0  0  0  0  0  1  0  0  0  0  0  0
  161.3210  204.6060  149.8270 C   0  0  0  0  0  2  0  0  0  0  0  0
  160.5790  204.0160  148.7970 O   0  0  0  0  0  0  0  0  0  0  0  0
  161.4910  203.2070  148.1100 C   0  0  2  0  0  3  0  0  0  0  0  0
  161.4210  205.1140  146.5130 C   0  0  1  0  0  3  0  0  0  0  0  0
  161.5380  203.6060  146.6430 C   0  0  1  0  0  3  0  0  0  0  0  0
  162.7700  204.4540  146.3770 C   0  0  1  0  0  3  0  0  0  0  0  0
  162.3860  205.5830  145.4400 C   0  0  0  0  0  2  0  0  0  0  0  0
  161.1070  201.7350  148.2490 C   0  0  0  0  0  3  0  0  0  0  0  0
  159.8390  201.6260  148.8200 O   0  0  0  0  0  1  0  0  0  0  0  0
  161.1140  201.1020  147.0040 O   0  0  0  0  0  1  0  0  0  0  0  0
  1 14  1  0  0  0  0
  1 17  1  0  0  0  0
  2 12  1  0  0  0  0
  2 11  1  0  0  0  0
  3 10  1  0  0  0  0
  3 13  2  0  0  0  0
  4 18  1  1  0  0  0
  4 10  1  0  0  0  0
  6  4  1  0  0  0  0
  7  5  1  0  0  0  0
  8  5  2  0  0  0  0
  9 12  1  6  0  0  0
  9  3  1  0  0  0  0
 10  1  2  0  0  0  0
 11 34  1  6  0  0  0
 11  9  1  0  0  0  0
 12  6  2  0  0  0  0
 13 15  1  0  0  0  0
 14 16  1  0  0  0  0
 15 17  2  0  0  0  0
 16  7  1  0  0  0  0
 17  8  1  0  0  0  0
 19 20  1  0  0  0  0
 19 18  1  0  0  0  0
 20 28  1  1  0  0  0
 20 21  1  0  0  0  0
 21 22  1  0  0  0  0
 22 23  2  0  0  0  0
 23 27  1  0  0  0  0
 24 25  2  0  0  0  0
 24 26  1  0  0  0  0
 27 24  1  0  0  0  0
 29 28  1  0  0  0  0
 30 29  1  0  0  0  0
 31 30  1  0  0  0  0
 32 31  1  0  0  0  0
 33 32  1  0  0  0  0
 35 34  1  0  0  0  0
 36 41  1  6  0  0  0
 36 35  1  0  0  0  0
 37 40  1  6  0  0  0
 37 38  1  0  0  0  0
 38 36  1  1  0  0  0
 39 40  1  6  0  0  0
 39 37  1  0  0  0  0
 39 38  1  0  0  0  0
 41 42  1  0  0  0  0
 43 41  1  0  0  0  0
M  END
>  <MODEL>
4

>  <REMARK>
 VINA RESULT:      -7.1      3.552      9.375
  Name = 
  16 active torsions:
  status: ('A' for Active; 'I' for Inactive)
    1  A    between atoms: C_1  and  C_11
    2  A    between atoms: C_1  and  O_30
    3  A    between atoms: O_2  and  C_3
    4  A    between atoms: O_2  and  C_4
    5  A    between atoms: C_3  and  C_27
    6  A    between atoms: C_4  and  C_15
    7  A    between atoms: C_4  and  C_23
    8  A    between atoms: C_6  and  C_25
    9  A    between atoms: C_6  and  C_43
   10  A    between atoms: C_7  and  C_20
   11  A    between atoms: C_7  and  C_25
   12  A    between atoms: O_17  and  C_22
   13  A    between atoms: C_22  and  C_39
   14  A    between atoms: C_25  and  O_30
   15  A    between atoms: N_37  and  N_42
   16  A    between atoms: C_39  and  C_43
                            x       y       z     vdW  Elec       q    Type
                         _______ _______ _______ _____ _____    ______ ____

>  <TORSDO>
F 16

$$$$
=
 OpenBabel11052411383D

 43 48  0  0  1  0  0  0  0  0999 V2000
  161.1910  204.6820  150.3030 C   0  0  0  0  0  0  0  0  0  0  0  0
  162.4020  209.8830  150.5890 O   0  0  0  0  0  0  0  0  0  0  0  0
  161.3730  206.9150  151.3170 C   0  0  0  0  0  0  0  0  0  0  0  0
  161.2020  206.8190  148.7590 C   0  0  2  0  0  3  0  0  0  0  0  0
  161.1250  201.6260  151.2450 N   0  0  0  0  0  0  0  0  0  0  0  0
  161.7850  208.1690  148.8080 N   0  0  0  0  0  0  0  0  0  0  0  0
  160.9510  201.5580  149.8040 C   0  0  0  0  0  2  0  0  0  0  0  0
  161.3130  202.6760  151.9900 C   0  0  0  0  0  3  0  0  0  0  0  0
  161.1200  208.3950  151.2110 C   0  0  1  0  0  3  0  0  0  0  0  0
  161.2930  206.1010  150.1430 C   0  0  0  0  0  0  0  0  0  0  0  0
  162.0390  209.3080  151.8370 C   0  0  2  0  0  3  0  0  0  0  0  0
  161.7380  208.7840  149.9370 C   0  0  0  0  0  0  0  0  0  0  0  0
  161.4840  206.3360  152.5740 C   0  0  0  0  0  3  0  0  0  0  0  0
  160.9460  203.8450  149.0800 C   0  0  0  0  0  2  0  0  0  0  0  0
  161.5030  204.9560  152.7060 C   0  0  0  0  0  3  0  0  0  0  0  0
  160.0500  202.6590  149.3170 C   0  0  0  0  0  2  0  0  0  0  0  0
  161.3560  204.1120  151.6050 C   0  0  0  0  0  0  0  0  0  0  0  0
  161.9220  206.0730  147.6450 C   0  0  0  0  0  2  0  0  0  0  0  0
  161.7170  206.7210  146.4260 O   0  0  0  0  0  0  0  0  0  0  0  0
  161.3680  205.7010  145.5320 C   0  0  1  0  0  3  0  0  0  0  0  0
  161.1140  206.2410  144.1230 C   0  0  0  0  0  2  0  0  0  0  0  0
  161.6870  205.3620  143.0540 C   0  0  0  0  0  3  0  0  0  0  0  0
  161.9520  205.8090  141.8670 N   0  0  0  0  0  0  0  0  0  0  0  0
  161.8150  207.5770  140.1580 C   0  0  0  0  0  0  0  0  0  0  0  0
  162.0650  206.7500  139.2410 O   0  0  0  0  0  0  0  0  0  0  0  0
  161.6260  208.9180  139.8480 O   0  0  0  0  0  1  0  0  0  0  0  0
  161.7260  207.1460  141.5150 N   0  0  0  0  0  2  0  0  0  0  0  0
  162.3760  204.5520  145.5670 C   0  0  0  0  0  2  0  0  0  0  0  0
  161.7580  203.2510  146.0640 C   0  0  0  0  0  2  0  0  0  0  0  0
  160.5570  202.8750  145.2170 C   0  0  0  0  0  2  0  0  0  0  0  0
  160.3440  201.3710  145.2370 C   0  0  0  0  0  2  0  0  0  0  0  0
  160.9640  200.8300  146.3620 O   0  0  0  0  0  0  0  0  0  0  0  0
  161.2560  199.5150  146.0020 C   0  0  0  0  0  1  0  0  0  0  0  0
  161.3230  210.3290  152.7210 C   0  0  0  0  0  2  0  0  0  0  0  0
  160.1280  209.8150  153.2390 O   0  0  0  0  0  0  0  0  0  0  0  0
  159.9250  210.5070  154.4390 C   0  0  2  0  0  3  0  0  0  0  0  0
  160.4470  208.2640  155.3790 C   0  0  1  0  0  3  0  0  0  0  0  0
  159.6250  209.5260  155.5610 C   0  0  1  0  0  3  0  0  0  0  0  0
  160.8740  209.2930  156.3930 C   0  0  1  0  0  3  0  0  0  0  0  0
  160.9580  207.8180  156.7360 C   0  0  0  0  0  2  0  0  0  0  0  0
  158.7830  211.5100  154.2880 C   0  0  0  0  0  3  0  0  0  0  0  0
  158.2230  211.4060  153.0150 O   0  0  0  0  0  1  0  0  0  0  0  0
  157.7970  211.2860  155.2510 O   0  0  0  0  0  1  0  0  0  0  0  0
  1 17  1  0  0  0  0
  2 11  1  0  0  0  0
  3 13  2  0  0  0  0
  4 18  1  6  0  0  0
  4  6  1  0  0  0  0
  4 10  1  0  0  0  0
  5  8  2  0  0  0  0
  6 12  2  0  0  0  0
  7  5  1  0  0  0  0
  9 12  1  6  0  0  0
  9  3  1  0  0  0  0
  9 11  1  0  0  0  0
 10  1  2  0  0  0  0
 10  3  1  0  0  0  0
 11 34  1  1  0  0  0
 12  2  1  0  0  0  0
 13 15  1  0  0  0  0
 14 16  1  0  0  0  0
 14  1  1  0  0  0  0
 16  7  1  0  0  0  0
 17  8  1  0  0  0  0
 17 15  2  0  0  0  0
 19 18  1  0  0  0  0
 20 21  1  6  0  0  0
 20 28  1  0  0  0  0
 20 19  1  0  0  0  0
 22 21  1  0  0  0  0
 23 22  2  0  0  0  0
 24 27  1  0  0  0  0
 25 24  2  0  0  0  0
 26 24  1  0  0  0  0
 27 23  1  0  0  0  0
 28 29  1  0  0  0  0
 30 31  1  0  0  0  0
 30 29  1  0  0  0  0
 31 32  1  0  0  0  0
 33 32  1  0  0  0  0
 34 35  1  0  0  0  0
 36 35  1  6  0  0  0
 37 38  1  0  0  0  0
 37 39  1  0  0  0  0
 37 40  1  1  0  0  0
 38 36  1  6  0  0  0
 38 39  1  0  0  0  0
 39 40  1  1  0  0  0
 41 36  1  0  0  0  0
 41 43  1  0  0  0  0
 42 41  1  0  0  0  0
M  END
>  <MODEL>
5

>  <REMARK>
 VINA RESULT:      -6.9      1.690      4.354
  Name = 
  16 active torsions:
  status: ('A' for Active; 'I' for Inactive)
    1  A    between atoms: C_1  and  C_11
    2  A    between atoms: C_1  and  O_30
    3  A    between atoms: O_2  and  C_3
    4  A    between atoms: O_2  and  C_4
    5  A    between atoms: C_3  and  C_27
    6  A    between atoms: C_4  and  C_15
    7  A    between atoms: C_4  and  C_23
    8  A    between atoms: C_6  and  C_25
    9  A    between atoms: C_6  and  C_43
   10  A    between atoms: C_7  and  C_20
   11  A    between atoms: C_7  and  C_25
   12  A    between atoms: O_17  and  C_22
   13  A    between atoms: C_22  and  C_39
   14  A    between atoms: C_25  and  O_30
   15  A    between atoms: N_37  and  N_42
   16  A    between atoms: C_39  and  C_43
                            x       y       z     vdW  Elec       q    Type
                         _______ _______ _______ _____ _____    ______ ____

>  <TORSDO>
F 16

$$$$
=
 OpenBabel11052411383D

 43 48  0  0  1  0  0  0  0  0999 V2000
  161.1010  208.6590  153.9990 C   0  0  0  0  0  0  0  0  0  0  0  0
  161.4530  208.7850  148.6640 O   0  0  0  0  0  0  0  0  0  0  0  0
  161.5630  207.8120  151.7370 C   0  0  0  0  0  0  0  0  0  0  0  0
  161.7340  210.3490  152.0780 C   0  0  2  0  0  3  0  0  0  0  0  0
  160.2610  207.5010  156.8600 N   0  0  0  0  0  0  0  0  0  0  0  0
  161.5690  210.4170  150.6180 N   0  0  0  0  0  0  0  0  0  0  0  0
  160.4280  208.9260  157.0880 C   0  0  0  0  0  2  0  0  0  0  0  0
  160.3760  206.8390  155.7450 C   0  0  0  0  0  3  0  0  0  0  0  0
  162.2370  208.0140  150.4060 C   0  0  1  0  0  3  0  0  0  0  0  0
  161.4190  208.9220  152.6290 C   0  0  0  0  0  0  0  0  0  0  0  0
  161.6150  207.4870  149.2210 C   0  0  2  0  0  3  0  0  0  0  0  0
  161.7770  209.3340  149.9560 C   0  0  0  0  0  0  0  0  0  0  0  0
  161.2700  206.5220  152.1590 C   0  0  0  0  0  3  0  0  0  0  0  0
  161.1080  209.8090  154.9640 C   0  0  0  0  0  2  0  0  0  0  0  0
  160.8480  206.2940  153.4590 C   0  0  0  0  0  3  0  0  0  0  0  0
  161.6170  209.4570  156.3360 C   0  0  0  0  0  2  0  0  0  0  0  0
  160.7590  207.3270  154.3930 C   0  0  0  0  0  0  0  0  0  0  0  0
  160.8440  211.4330  152.6690 C   0  0  0  0  0  2  0  0  0  0  0  0
  159.5430  211.3010  152.1790 O   0  0  0  0  0  0  0  0  0  0  0  0
  159.0970  212.6150  151.9890 C   0  0  1  0  0  3  0  0  0  0  0  0
  158.6340  213.2540  153.3000 C   0  0  0  0  0  2  0  0  0  0  0  0
  157.3720  214.0450  153.1450 C   0  0  0  0  0  3  0  0  0  0  0  0
  156.2500  213.6580  153.6650 N   0  0  0  0  0  0  0  0  0  0  0  0
  156.0770  212.5110  155.8370 C   0  0  0  0  0  0  0  0  0  0  0  0
  156.0580  213.6120  156.4490 O   0  0  0  0  0  0  0  0  0  0  0  0
  156.0230  211.3210  156.5510 O   0  0  0  0  0  1  0  0  0  0  0  0
  156.1530  212.4770  154.4130 N   0  0  0  0  0  2  0  0  0  0  0  0
  160.1280  213.4570  151.2370 C   0  0  0  0  0  2  0  0  0  0  0  0
  159.5720  214.0390  149.9430 C   0  0  0  0  0  2  0  0  0  0  0  0
  160.0240  213.2170  148.7510 C   0  0  0  0  0  2  0  0  0  0  0  0
  160.3710  214.1240  147.5840 C   0  0  0  0  0  2  0  0  0  0  0  0
  161.2160  213.4480  146.7060 O   0  0  0  0  0  0  0  0  0  0  0  0
  161.7920  214.4530  145.9290 C   0  0  0  0  0  1  0  0  0  0  0  0
  162.5850  206.6530  148.3840 C   0  0  0  0  0  2  0  0  0  0  0  0
  162.1670  206.5600  147.0510 O   0  0  0  0  0  0  0  0  0  0  0  0
  161.4770  205.3460  146.9700 C   0  0  2  0  0  3  0  0  0  0  0  0
  160.9380  204.3110  149.1680 C   0  0  1  0  0  3  0  0  0  0  0  0
  161.9650  204.3970  148.0540 C   0  0  1  0  0  3  0  0  0  0  0  0
  161.0330  203.2010  148.1530 C   0  0  1  0  0  3  0  0  0  0  0  0
  160.8310  202.8660  149.6190 C   0  0  0  0  0  2  0  0  0  0  0  0
  161.6630  204.7190  145.5900 C   0  0  0  0  0  3  0  0  0  0  0  0
  161.2880  205.6260  144.6000 O   0  0  0  0  0  1  0  0  0  0  0  0
  162.9930  204.3370  145.3950 O   0  0  0  0  0  1  0  0  0  0  0  0
  1 17  1  0  0  0  0
  1 14  1  0  0  0  0
  2 11  1  0  0  0  0
  2 12  1  0  0  0  0
  3 13  2  0  0  0  0
  3 10  1  0  0  0  0
  4 10  1  0  0  0  0
  4 18  1  1  0  0  0
  5  7  1  0  0  0  0
  6  4  1  0  0  0  0
  8  5  2  0  0  0  0
  9 12  1  6  0  0  0
  9  3  1  0  0  0  0
 10  1  2  0  0  0  0
 11 34  1  6  0  0  0
 11  9  1  0  0  0  0
 12  6  2  0  0  0  0
 13 15  1  0  0  0  0
 14 16  1  0  0  0  0
 15 17  2  0  0  0  0
 16  7  1  0  0  0  0
 17  8  1  0  0  0  0
 19 18  1  0  0  0  0
 20 28  1  1  0  0  0
 20 19  1  0  0  0  0
 20 21  1  0  0  0  0
 22 21  1  0  0  0  0
 22 23  2  0  0  0  0
 23 27  1  0  0  0  0
 24 25  2  0  0  0  0
 24 26  1  0  0  0  0
 27 24  1  0  0  0  0
 29 28  1  0  0  0  0
 30 29  1  0  0  0  0
 31 30  1  0  0  0  0
 32 31  1  0  0  0  0
 33 32  1  0  0  0  0
 35 34  1  0  0  0  0
 36 41  1  6  0  0  0
 36 35  1  0  0  0  0
 37 40  1  1  0  0  0
 38 36  1  6  0  0  0
 38 39  1  0  0  0  0
 38 37  1  0  0  0  0
 39 37  1  0  0  0  0
 39 40  1  1  0  0  0
 42 41  1  0  0  0  0
 43 41  1  0  0  0  0
M  END
>  <MODEL>
6

>  <REMARK>
 VINA RESULT:      -6.6      3.793      9.605
  Name = 
  16 active torsions:
  status: ('A' for Active; 'I' for Inactive)
    1  A    between atoms: C_1  and  C_11
    2  A    between atoms: C_1  and  O_30
    3  A    between atoms: O_2  and  C_3
    4  A    between atoms: O_2  and  C_4
    5  A    between atoms: C_3  and  C_27
    6  A    between atoms: C_4  and  C_15
    7  A    between atoms: C_4  and  C_23
    8  A    between atoms: C_6  and  C_25
    9  A    between atoms: C_6  and  C_43
   10  A    between atoms: C_7  and  C_20
   11  A    between atoms: C_7  and  C_25
   12  A    between atoms: O_17  and  C_22
   13  A    between atoms: C_22  and  C_39
   14  A    between atoms: C_25  and  O_30
   15  A    between atoms: N_37  and  N_42
   16  A    between atoms: C_39  and  C_43
                            x       y       z     vdW  Elec       q    Type
                         _______ _______ _______ _____ _____    ______ ____

>  <TORSDO>
F 16

$$$$
=
 OpenBabel11052411383D

 43 48  0  0  1  0  0  0  0  0999 V2000
  161.3530  209.1570  153.1520 C   0  0  0  0  0  0  0  0  0  0  0  0
  161.0890  207.2700  148.1560 O   0  0  0  0  0  0  0  0  0  0  0  0
  161.4170  207.4770  151.3570 C   0  0  0  0  0  0  0  0  0  0  0  0
  161.9980  209.8900  150.7030 C   0  0  2  0  0  3  0  0  0  0  0  0
  160.6960  209.2900  156.2800 N   0  0  0  0  0  0  0  0  0  0  0  0
  161.6730  209.4510  149.3370 N   0  0  0  0  0  0  0  0  0  0  0  0
  161.0960  210.6460  155.9430 C   0  0  0  0  0  2  0  0  0  0  0  0
  160.5810  208.2600  155.4940 C   0  0  0  0  0  3  0  0  0  0  0  0
  161.9510  207.0570  150.0150 C   0  0  1  0  0  3  0  0  0  0  0  0
  161.5430  208.8420  151.7690 C   0  0  0  0  0  0  0  0  0  0  0  0
  161.1230  206.2570  149.1520 C   0  0  2  0  0  3  0  0  0  0  0  0
  161.6410  208.1820  149.1240 C   0  0  0  0  0  0  0  0  0  0  0  0
  160.9900  206.5050  152.2510 C   0  0  0  0  0  3  0  0  0  0  0  0
  161.6440  210.5580  153.6080 C   0  0  0  0  0  2  0  0  0  0  0  0
  160.6950  206.8450  153.5620 C   0  0  0  0  0  3  0  0  0  0  0  0
  162.2540  210.6440  154.9820 C   0  0  0  0  0  2  0  0  0  0  0  0
  160.8690  208.1450  154.0390 C   0  0  0  0  0  0  0  0  0  0  0  0
  161.3520  211.2560  150.8880 C   0  0  0  0  0  2  0  0  0  0  0  0
  161.3060  211.9310  149.6660 O   0  0  0  0  0  0  0  0  0  0  0  0
  160.7390  213.1750  149.9670 C   0  0  1  0  0  3  0  0  0  0  0  0
  160.1540  213.8490  148.7240 C   0  0  0  0  0  2  0  0  0  0  0  0
  159.5420  212.8710  147.7690 C   0  0  0  0  0  3  0  0  0  0  0  0
  160.1620  212.4720  146.7030 N   0  0  0  0  0  0  0  0  0  0  0  0
  161.7920  213.2980  145.0530 C   0  0  0  0  0  0  0  0  0  0  0  0
  160.9270  213.2600  144.1370 O   0  0  0  0  0  0  0  0  0  0  0  0
  163.0880  213.7040  144.7640 O   0  0  0  0  0  1  0  0  0  0  0  0
  161.4490  212.9250  146.3860 N   0  0  0  0  0  2  0  0  0  0  0  0
  159.7470  213.0780  151.1270 C   0  0  0  0  0  2  0  0  0  0  0  0
  158.9010  214.3370  151.2760 C   0  0  0  0  0  2  0  0  0  0  0  0
  157.4440  213.9770  151.4900 C   0  0  0  0  0  2  0  0  0  0  0  0
  157.0300  214.2740  152.9200 C   0  0  0  0  0  2  0  0  0  0  0  0
  156.0730  213.3460  153.3280 O   0  0  0  0  0  0  0  0  0  0  0  0
  154.9800  214.1180  153.7200 C   0  0  0  0  0  1  0  0  0  0  0  0
  161.8550  205.0150  148.6420 C   0  0  0  0  0  2  0  0  0  0  0  0
  160.9580  204.0190  148.2380 O   0  0  0  0  0  0  0  0  0  0  0  0
  161.2500  202.9160  149.0500 C   0  0  2  0  0  3  0  0  0  0  0  0
  160.9860  201.4360  147.0670 C   0  0  1  0  0  3  0  0  0  0  0  0
  160.5640  201.6730  148.5050 C   0  0  1  0  0  3  0  0  0  0  0  0
  161.6000  200.6140  148.1720 C   0  0  1  0  0  3  0  0  0  0  0  0
  161.2080  199.9480  146.8660 C   0  0  0  0  0  2  0  0  0  0  0  0
  160.8070  203.1830  150.4870 C   0  0  0  0  0  3  0  0  0  0  0  0
  159.7120  202.3810  150.8050 O   0  0  0  0  0  1  0  0  0  0  0  0
  161.8500  202.9260  151.3810 O   0  0  0  0  0  1  0  0  0  0  0  0
  1 14  1  0  0  0  0
  1 17  1  0  0  0  0
  2 12  1  0  0  0  0
  2 11  1  0  0  0  0
  3 10  1  0  0  0  0
  3 13  2  0  0  0  0
  4 18  1  1  0  0  0
  4 10  1  0  0  0  0
  6  4  1  0  0  0  0
  7  5  1  0  0  0  0
  8  5  2  0  0  0  0
  9 12  1  6  0  0  0
  9  3  1  0  0  0  0
 10  1  2  0  0  0  0
 11 34  1  6  0  0  0
 11  9  1  0  0  0  0
 12  6  2  0  0  0  0
 13 15  1  0  0  0  0
 14 16  1  0  0  0  0
 15 17  2  0  0  0  0
 16  7  1  0  0  0  0
 17  8  1  0  0  0  0
 19 20  1  0  0  0  0
 19 18  1  0  0  0  0
 20 21  1  6  0  0  0
 20 28  1  0  0  0  0
 22 21  1  0  0  0  0
 23 22  2  0  0  0  0
 24 27  1  0  0  0  0
 25 24  2  0  0  0  0
 26 24  1  0  0  0  0
 27 23  1  0  0  0  0
 28 29  1  0  0  0  0
 29 30  1  0  0  0  0
 30 31  1  0  0  0  0
 31 32  1  0  0  0  0
 32 33  1  0  0  0  0
 35 34  1  0  0  0  0
 36 35  1  6  0  0  0
 36 41  1  0  0  0  0
 37 40  1  6  0  0  0
 37 39  1  0  0  0  0
 37 38  1  0  0  0  0
 38 36  1  1  0  0  0
 39 40  1  6  0  0  0
 39 38  1  0  0  0  0
 41 42  1  0  0  0  0
 41 43  1  0  0  0  0
M  END
>  <MODEL>
7

>  <REMARK>
 VINA RESULT:      -6.3      4.169      9.602
  Name = 
  16 active torsions:
  status: ('A' for Active; 'I' for Inactive)
    1  A    between atoms: C_1  and  C_11
    2  A    between atoms: C_1  and  O_30
    3  A    between atoms: O_2  and  C_3
    4  A    between atoms: O_2  and  C_4
    5  A    between atoms: C_3  and  C_27
    6  A    between atoms: C_4  and  C_15
    7  A    between atoms: C_4  and  C_23
    8  A    between atoms: C_6  and  C_25
    9  A    between atoms: C_6  and  C_43
   10  A    between atoms: C_7  and  C_20
   11  A    between atoms: C_7  and  C_25
   12  A    between atoms: O_17  and  C_22
   13  A    between atoms: C_22  and  C_39
   14  A    between atoms: C_25  and  O_30
   15  A    between atoms: N_37  and  N_42
   16  A    between atoms: C_39  and  C_43
                            x       y       z     vdW  Elec       q    Type
                         _______ _______ _______ _____ _____    ______ ____

>  <TORSDO>
F 16

$$$$
=
 OpenBabel11052411383D

 43 48  0  0  1  0  0  0  0  0999 V2000
  161.5580  208.8630  152.2910 C   0  0  0  0  0  0  0  0  0  0  0  0
  161.1960  206.9660  147.3050 O   0  0  0  0  0  0  0  0  0  0  0  0
  161.5540  207.1760  150.5020 C   0  0  0  0  0  0  0  0  0  0  0  0
  162.2070  209.5650  149.8340 C   0  0  2  0  0  3  0  0  0  0  0  0
  160.9290  209.0300  155.4230 N   0  0  0  0  0  0  0  0  0  0  0  0
  161.8580  209.1320  148.4720 N   0  0  0  0  0  0  0  0  0  0  0  0
  161.3700  210.3710  155.0770 C   0  0  0  0  0  2  0  0  0  0  0  0
  160.7750  208.0010  154.6420 C   0  0  0  0  0  3  0  0  0  0  0  0
  162.0650  206.7330  149.1580 C   0  0  1  0  0  3  0  0  0  0  0  0
  161.7270  208.5370  150.9080 C   0  0  0  0  0  0  0  0  0  0  0  0
  161.2050  205.9560  148.3050 C   0  0  2  0  0  3  0  0  0  0  0  0
  161.7840  207.8640  148.2650 C   0  0  0  0  0  0  0  0  0  0  0  0
  161.1030  206.2210  151.4040 C   0  0  0  0  0  3  0  0  0  0  0  0
  161.8970  210.2560  152.7390 C   0  0  0  0  0  2  0  0  0  0  0  0
  160.8290  206.5760  152.7150 C   0  0  0  0  0  3  0  0  0  0  0  0
  162.5200  210.3280  154.1080 C   0  0  0  0  0  2  0  0  0  0  0  0
  161.0480  207.8710  153.1860 C   0  0  0  0  0  0  0  0  0  0  0  0
  161.6070  210.9520  150.0170 C   0  0  0  0  0  2  0  0  0  0  0  0
  162.1370  211.8300  149.0700 O   0  0  0  0  0  0  0  0  0  0  0  0
  161.5660  213.0720  149.3760 C   0  0  1  0  0  3  0  0  0  0  0  0
  161.2520  213.8800  148.1140 C   0  0  0  0  0  2  0  0  0  0  0  0
  161.6910  213.1890  146.8600 C   0  0  0  0  0  3  0  0  0  0  0  0
  160.8750  212.4860  146.1400 N   0  0  0  0  0  0  0  0  0  0  0  0
  158.4880  212.5680  145.5400 C   0  0  0  0  0  0  0  0  0  0  0  0
  158.7680  212.8780  144.3510 O   0  0  0  0  0  0  0  0  0  0  0  0
  157.1600  212.4520  145.9310 O   0  0  0  0  0  1  0  0  0  0  0  0
  159.5260  212.3370  146.4900 N   0  0  0  0  0  2  0  0  0  0  0  0
  160.3680  212.9260  150.3150 C   0  0  0  0  0  2  0  0  0  0  0  0
  159.8340  214.2730  150.7900 C   0  0  0  0  0  2  0  0  0  0  0  0
  158.4800  214.1050  151.4510 C   0  0  0  0  0  2  0  0  0  0  0  0
  158.6420  213.9280  152.9510 C   0  0  0  0  0  2  0  0  0  0  0  0
  157.3890  213.7460  153.5340 O   0  0  0  0  0  0  0  0  0  0  0  0
  157.4250  212.4480  154.0430 C   0  0  0  0  0  1  0  0  0  0  0  0
  161.8920  204.6890  147.7950 C   0  0  0  0  0  2  0  0  0  0  0  0
  161.2850  204.2080  146.6290 O   0  0  0  0  0  0  0  0  0  0  0  0
  160.7850  202.9470  146.9740 C   0  0  2  0  0  3  0  0  0  0  0  0
  160.7530  202.6410  149.4430 C   0  0  1  0  0  3  0  0  0  0  0  0
  161.5440  202.3960  148.1710 C   0  0  1  0  0  3  0  0  0  0  0  0
  160.7510  201.2710  148.8130 C   0  0  1  0  0  3  0  0  0  0  0  0
  160.8540  201.4070  150.3210 C   0  0  0  0  0  2  0  0  0  0  0  0
  160.8910  201.9900  145.7890 C   0  0  0  0  0  3  0  0  0  0  0  0
  160.8450  200.6700  146.2360 O   0  0  0  0  0  1  0  0  0  0  0  0
  159.8540  202.2110  144.8790 O   0  0  0  0  0  1  0  0  0  0  0  0
  1 14  1  0  0  0  0
  1 17  1  0  0  0  0
  2 12  1  0  0  0  0
  2 11  1  0  0  0  0
  3 10  1  0  0  0  0
  3 13  2  0  0  0  0
  4 18  1  1  0  0  0
  4 10  1  0  0  0  0
  6  4  1  0  0  0  0
  7  5  1  0  0  0  0
  8  5  2  0  0  0  0
  9 12  1  6  0  0  0
  9  3  1  0  0  0  0
 10  1  2  0  0  0  0
 11 34  1  6  0  0  0
 11  9  1  0  0  0  0
 12  6  2  0  0  0  0
 13 15  1  0  0  0  0
 14 16  1  0  0  0  0
 15 17  2  0  0  0  0
 16  7  1  0  0  0  0
 17  8  1  0  0  0  0
 19 20  1  0  0  0  0
 19 18  1  0  0  0  0
 20 21  1  6  0  0  0
 20 28  1  0  0  0  0
 22 21  1  0  0  0  0
 23 27  1  0  0  0  0
 23 22  2  0  0  0  0
 24 26  1  0  0  0  0
 24 27  1  0  0  0  0
 25 24  2  0  0  0  0
 28 29  1  0  0  0  0
 29 30  1  0  0  0  0
 30 31  1  0  0  0  0
 31 32  1  0  0  0  0
 32 33  1  0  0  0  0
 35 36  1  0  0  0  0
 35 34  1  0  0  0  0
 36 41  1  6  0  0  0
 37 40  1  1  0  0  0
 38 36  1  6  0  0  0
 38 39  1  0  0  0  0
 38 37  1  0  0  0  0
 39 37  1  0  0  0  0
 39 40  1  1  0  0  0
 41 42  1  0  0  0  0
 43 41  1  0  0  0  0
M  END
>  <MODEL>
8

>  <REMARK>
 VINA RESULT:      -6.2      3.840      9.555
  Name = 
  16 active torsions:
  status: ('A' for Active; 'I' for Inactive)
    1  A    between atoms: C_1  and  C_11
    2  A    between atoms: C_1  and  O_30
    3  A    between atoms: O_2  and  C_3
    4  A    between atoms: O_2  and  C_4
    5  A    between atoms: C_3  and  C_27
    6  A    between atoms: C_4  and  C_15
    7  A    between atoms: C_4  and  C_23
    8  A    between atoms: C_6  and  C_25
    9  A    between atoms: C_6  and  C_43
   10  A    between atoms: C_7  and  C_20
   11  A    between atoms: C_7  and  C_25
   12  A    between atoms: O_17  and  C_22
   13  A    between atoms: C_22  and  C_39
   14  A    between atoms: C_25  and  O_30
   15  A    between atoms: N_37  and  N_42
   16  A    between atoms: C_39  and  C_43
                            x       y       z     vdW  Elec       q    Type
                         _______ _______ _______ _____ _____    ______ ____

>  <TORSDO>
F 16

$$$$
=
 OpenBabel11052411383D

 43 48  0  0  1  0  0  0  0  0999 V2000
  161.0190  211.2870  150.6860 C   0  0  0  0  0  0  0  0  0  0  0  0
  161.9820  206.7020  153.2640 O   0  0  0  0  0  0  0  0  0  0  0  0
  161.5170  208.8930  150.9430 C   0  0  0  0  0  0  0  0  0  0  0  0
  160.2520  210.0230  152.8680 C   0  0  2  0  0  3  0  0  0  0  0  0
  161.5180  213.6170  148.5510 N   0  0  0  0  0  0  0  0  0  0  0  0
  160.7330  208.8860  153.6680 N   0  0  0  0  0  0  0  0  0  0  0  0
  160.7350  214.2540  149.5970 C   0  0  0  0  0  2  0  0  0  0  0  0
  161.9610  212.3950  148.5020 C   0  0  0  0  0  3  0  0  0  0  0  0
  161.1730  207.5740  151.5810 C   0  0  1  0  0  3  0  0  0  0  0  0
  160.9720  210.1000  151.4840 C   0  0  0  0  0  0  0  0  0  0  0  0
  162.2280  206.6380  151.8650 C   0  0  2  0  0  3  0  0  0  0  0  0
  161.1530  207.8550  153.0220 C   0  0  0  0  0  0  0  0  0  0  0  0
  162.1940  208.9020  149.7310 C   0  0  0  0  0  3  0  0  0  0  0  0
  160.3050  212.5100  151.1870 C   0  0  0  0  0  2  0  0  0  0  0  0
  162.3350  210.0850  149.0210 C   0  0  0  0  0  3  0  0  0  0  0  0
  159.6600  213.3320  150.1040 C   0  0  0  0  0  2  0  0  0  0  0  0
  161.7620  211.2780  149.4630 C   0  0  0  0  0  0  0  0  0  0  0  0
  160.4490  211.2690  153.7200 C   0  0  0  0  0  2  0  0  0  0  0  0
  160.0640  211.0120  155.0370 O   0  0  0  0  0  0  0  0  0  0  0  0
  160.6460  212.0420  155.7870 C   0  0  1  0  0  3  0  0  0  0  0  0
  159.6050  213.0560  156.2660 C   0  0  0  0  0  2  0  0  0  0  0  0
  158.4550  212.4120  156.9790 C   0  0  0  0  0  3  0  0  0  0  0  0
  157.2270  212.5960  156.6100 N   0  0  0  0  0  0  0  0  0  0  0  0
  156.2750  212.8550  154.3540 C   0  0  0  0  0  0  0  0  0  0  0  0
  155.9680  211.6340  154.3120 O   0  0  0  0  0  1  0  0  0  0  0  0
  156.0030  213.6750  153.2660 O   0  0  0  0  0  0  0  0  0  0  0  0
  156.9010  213.4030  155.5120 N   0  0  0  0  0  2  0  0  0  0  0  0
  161.5210  211.4940  156.9150 C   0  0  0  0  0  2  0  0  0  0  0  0
  162.5440  210.4800  156.4170 C   0  0  0  0  0  2  0  0  0  0  0  0
  162.4980  209.2200  157.2590 C   0  0  0  0  0  2  0  0  0  0  0  0
  161.1010  208.6260  157.2480 C   0  0  0  0  0  2  0  0  0  0  0  0
  161.1390  207.3600  156.6670 O   0  0  0  0  0  0  0  0  0  0  0  0
  159.8020  206.9710  156.5860 C   0  0  0  0  0  1  0  0  0  0  0  0
  161.9220  205.2430  151.3210 C   0  0  0  0  0  2  0  0  0  0  0  0
  160.8670  205.2690  150.4010 O   0  0  0  0  0  0  0  0  0  0  0  0
  161.2240  204.3450  149.4120 C   0  0  2  0  0  3  0  0  0  0  0  0
  162.0600  205.8100  147.5830 C   0  0  1  0  0  3  0  0  0  0  0  0
  160.9210  204.9140  148.0350 C   0  0  1  0  0  3  0  0  0  0  0  0
  161.9450  204.4130  147.0310 C   0  0  1  0  0  3  0  0  0  0  0  0
  162.3190  205.5580  146.1100 C   0  0  0  0  0  2  0  0  0  0  0  0
  160.4790  203.0280  149.6200 C   0  0  0  0  0  3  0  0  0  0  0  0
  160.4180  202.3200  148.4200 O   0  0  0  0  0  1  0  0  0  0  0  0
  161.1140  202.2480  150.5900 O   0  0  0  0  0  1  0  0  0  0  0  0
  1 14  1  0  0  0  0
  1 10  1  0  0  0  0
  3 10  2  0  0  0  0
  4  6  1  0  0  0  0
  4 18  1  1  0  0  0
  5  7  1  0  0  0  0
  7 16  1  0  0  0  0
  8  5  2  0  0  0  0
  8 17  1  0  0  0  0
  9  3  1  6  0  0  0
  9 11  1  0  0  0  0
  9 12  1  0  0  0  0
 10  4  1  0  0  0  0
 11 34  1  6  0  0  0
 11  2  1  0  0  0  0
 12  2  1  0  0  0  0
 12  6  2  0  0  0  0
 13  3  1  0  0  0  0
 15 17  1  0  0  0  0
 15 13  2  0  0  0  0
 16 14  1  0  0  0  0
 17  1  2  0  0  0  0
 18 19  1  0  0  0  0
 19 20  1  0  0  0  0
 20 21  1  1  0  0  0
 20 28  1  0  0  0  0
 21 22  1  0  0  0  0
 23 22  2  0  0  0  0
 24 27  1  0  0  0  0
 25 24  1  0  0  0  0
 26 24  2  0  0  0  0
 27 23  1  0  0  0  0
 29 28  1  0  0  0  0
 29 30  1  0  0  0  0
 31 30  1  0  0  0  0
 32 31  1  0  0  0  0
 33 32  1  0  0  0  0
 35 34  1  0  0  0  0
 36 41  1  1  0  0  0
 36 35  1  0  0  0  0
 37 40  1  6  0  0  0
 37 38  1  0  0  0  0
 38 36  1  1  0  0  0
 39 40  1  6  0  0  0
 39 37  1  0  0  0  0
 39 38  1  0  0  0  0
 41 43  1  0  0  0  0
 42 41  1  0  0  0  0
M  END
>  <MODEL>
9

>  <REMARK>
 VINA RESULT:      -6.2      4.111     11.173
  Name = 
  16 active torsions:
  status: ('A' for Active; 'I' for Inactive)
    1  A    between atoms: C_1  and  C_11
    2  A    between atoms: C_1  and  O_30
    3  A    between atoms: O_2  and  C_3
    4  A    between atoms: O_2  and  C_4
    5  A    between atoms: C_3  and  C_27
    6  A    between atoms: C_4  and  C_15
    7  A    between atoms: C_4  and  C_23
    8  A    between atoms: C_6  and  C_25
    9  A    between atoms: C_6  and  C_43
   10  A    between atoms: C_7  and  C_20
   11  A    between atoms: C_7  and  C_25
   12  A    between atoms: O_17  and  C_22
   13  A    between atoms: C_22  and  C_39
   14  A    between atoms: C_25  and  O_30
   15  A    between atoms: N_37  and  N_42
   16  A    between atoms: C_39  and  C_43
                            x       y       z     vdW  Elec       q    Type
                         _______ _______ _______ _____ _____    ______ ____

>  <TORSDO>
F 16

$$$$
