=
 OpenBabel11052411263D

 43 46  0  0  1  0  0  0  0  0999 V2000
  161.9790  210.4030  150.9380 C   0  0  1  0  0  3  0  0  0  0  0  0
  161.8400  208.9460  151.2480 C   0  0  0  0  0  0  0  0  0  0  0  0
  161.7080  206.9360  152.2430 C   0  0  0  0  0  0  0  0  0  0  0  0
  162.0500  208.3470  152.5940 C   0  0  0  0  0  2  0  0  0  0  0  0
  161.4630  208.0650  150.3810 N   0  0  0  0  0  0  0  0  0  0  0  0
  161.3760  206.8180  151.0030 N   0  0  0  0  0  0  0  0  0  0  0  0
  161.6120  205.8050  153.2110 C   0  0  1  0  0  3  0  0  0  0  0  0
  160.5630  206.0650  154.1810 N   0  0  0  0  0  1  0  0  0  0  0  0
  161.3270  204.5580  152.4960 C   0  0  0  0  0  0  0  0  0  0  0  0
  161.0860  203.5300  151.9120 C   0  0  0  0  0  0  0  0  0  0  0  0
  160.7910  202.2820  151.2050 C   0  0  0  0  0  2  0  0  0  0  0  0
  161.2460  203.3840  147.7810 N   0  0  0  0  0  0  0  0  0  0  0  0
  161.2380  203.6610  149.0980 C   0  0  0  0  0  3  0  0  0  0  0  0
  161.5510  204.3110  146.7360 C   0  0  0  0  0  0  0  0  0  0  0  0
  160.7140  201.5260  148.7590 C   0  0  0  0  0  3  0  0  0  0  0  0
  162.0990  206.1690  145.7300 N   0  0  0  0  0  0  0  0  0  0  0  0
  161.9390  205.3310  144.7590 C   0  0  0  0  0  3  0  0  0  0  0  0
  161.5540  203.9850  145.2840 C   0  0  0  0  0  3  0  0  0  0  0  0
  161.8600  205.5430  146.9540 N   0  0  0  0  0  2  0  0  0  0  0  0
  160.9360  202.1140  147.5680 N   0  0  0  0  0  0  0  0  0  0  0  0
  160.8910  202.4900  149.7340 C   0  0  0  0  0  0  0  0  0  0  0  0
  162.3080  210.5290  148.5930 C   0  0  0  0  0  2  0  0  0  0  0  0
  161.4480  212.1660  149.4400 C   0  0  0  0  0  2  0  0  0  0  0  0
  161.3330  210.7270  149.6630 N   0  0  0  0  0  0  0  0  0  0  0  0
  162.4470  212.0070  148.3200 C   0  0  0  0  0  2  0  0  0  0  0  0
  161.3780  211.1740  152.0180 N   0  0  0  0  0  2  0  0  0  0  0  0
  160.0350  210.6500  152.2090 C   0  0  0  0  0  2  0  0  0  0  0  0
  159.3590  211.2910  153.4170 C   0  0  1  0  0  3  0  0  0  0  0  0
  160.3650  211.9400  154.3780 C   0  0  0  0  0  2  0  0  0  0  0  0
  161.8340  210.5170  155.8680 C   0  0  0  0  0  0  0  0  0  0  0  0
  162.8320  210.6990  155.1210 O   0  0  0  0  0  0  0  0  0  0  0  0
  160.5680  211.0970  155.5480 N   0  0  0  0  0  2  0  0  0  0  0  0
  161.9830  209.7170  157.1130 C   0  0  0  0  0  2  0  0  0  0  0  0
  160.2150  207.9860  157.1790 C   0  0  0  0  0  1  0  0  0  0  0  0
  161.6630  208.2620  156.8290 C   0  0  0  0  0  2  0  0  0  0  0  0
  158.2690  212.1850  152.9980 N   0  0  0  0  0  0  0  0  0  0  0  0
  158.2510  213.1440  151.0280 C   0  0  0  0  0  1  0  0  0  0  0  0
  158.7650  213.2600  152.3220 O   0  0  0  0  0  0  0  0  0  0  0  0
  157.5320  212.6300  154.1920 C   0  0  0  0  0  3  0  0  0  0  0  0
  156.7410  213.9170  153.9630 C   0  0  0  0  0  2  0  0  0  0  0  0
  155.5280  213.6270  153.3370 O   0  0  0  0  0  1  0  0  0  0  0  0
  156.9310  211.2020  156.0090 O   0  0  0  0  0  1  0  0  0  0  0  0
  156.6140  211.5230  154.6900 C   0  0  0  0  0  2  0  0  0  0  0  0
  1  2  1  0  0  0  0
  1 26  1  1  0  0  0
  2  4  1  0  0  0  0
  3  4  1  0  0  0  0
  3  7  1  0  0  0  0
  5  6  1  0  0  0  0
  5  2  2  0  0  0  0
  6  3  2  0  0  0  0
  7  8  1  1  0  0  0
  9  7  1  0  0  0  0
 10  9  3  0  0  0  0
 11 10  1  0  0  0  0
 12 13  1  0  0  0  0
 13 21  2  0  0  0  0
 14 19  1  0  0  0  0
 14 12  1  0  0  0  0
 15 21  1  0  0  0  0
 16 19  1  0  0  0  0
 17 18  1  0  0  0  0
 17 16  2  0  0  0  0
 18 14  2  0  0  0  0
 20 12  1  0  0  0  0
 20 15  2  0  0  0  0
 21 11  1  0  0  0  0
 22 24  1  0  0  0  0
 23 24  1  0  0  0  0
 24  1  1  0  0  0  0
 25 22  1  0  0  0  0
 25 23  1  0  0  0  0
 26 27  1  0  0  0  0
 28 27  1  6  0  0  0
 28 29  1  0  0  0  0
 29 32  1  0  0  0  0
 30 33  1  0  0  0  0
 31 30  2  0  0  0  0
 32 30  1  0  0  0  0
 35 33  1  0  0  0  0
 35 34  1  0  0  0  0
 36 28  1  0  0  0  0
 36 39  1  0  0  0  0
 37 38  1  0  0  0  0
 38 36  1  0  0  0  0
 39 43  1  0  0  0  0
 40 39  1  0  0  0  0
 41 40  1  0  0  0  0
 43 42  1  0  0  0  0
M  END
>  <MODEL>
1

>  <REMARK>
 VINA RESULT:      -6.2      0.000      0.000
  Name = 
  18 active torsions:
  status: ('A' for Active; 'I' for Inactive)
    1  A    between atoms: C_3  and  C_9
    2  A    between atoms: C_3  and  C_22
    3  A    between atoms: C_5  and  C_42
    4  A    between atoms: C_8  and  C_35
    5  A    between atoms: C_12  and  N_24
    6  A    between atoms: C_12  and  C_27
    7  A    between atoms: C_13  and  C_39
    8  A    between atoms: C_14  and  C_21
    9  A    between atoms: C_14  and  C_41
   10  A    between atoms: C_15  and  C_42
   11  A    between atoms: C_18  and  C_39
   12  A    between atoms: N_23  and  C_35
   13  A    between atoms: N_24  and  C_35
   14  A    between atoms: C_27  and  N_28
   15  A    between atoms: C_27  and  C_43
   16  A    between atoms: N_28  and  O_37
   17  A    between atoms: N_28  and  C_42
   18  A    between atoms: N_32  and  C_43
                            x       y       z     vdW  Elec       q    Type
                         _______ _______ _______ _____ _____    ______ ____

>  <TORSDO>
F 18

$$$$
=
 OpenBabel11052411263D

 43 46  0  0  1  0  0  0  0  0999 V2000
  162.2590  208.6630  149.4440 C   0  0  1  0  0  3  0  0  0  0  0  0
  162.0080  210.0800  149.0350 C   0  0  0  0  0  0  0  0  0  0  0  0
  161.3550  211.9620  147.9960 C   0  0  0  0  0  0  0  0  0  0  0  0
  161.3530  210.4870  147.7620 C   0  0  0  0  0  3  0  0  0  0  0  0
  162.2850  211.0970  149.7820 N   0  0  0  0  0  2  0  0  0  0  0  0
  161.8730  212.2650  149.1370 N   0  0  0  0  0  0  0  0  0  0  0  0
  160.7150  212.9760  147.1090 C   0  0  1  0  0  3  0  0  0  0  0  0
  160.7840  214.2910  147.7220 N   0  0  0  0  0  1  0  0  0  0  0  0
  161.3900  213.0000  145.8080 C   0  0  0  0  0  0  0  0  0  0  0  0
  161.9460  213.0280  144.7380 C   0  0  0  0  0  0  0  0  0  0  0  0
  162.6200  213.0660  143.4380 C   0  0  0  0  0  2  0  0  0  0  0  0
  161.2340  211.1800  140.6680 N   0  0  0  0  0  0  0  0  0  0  0  0
  162.2890  211.7780  141.2520 C   0  0  0  0  0  3  0  0  0  0  0  0
  161.2600  210.4750  139.4240 C   0  0  0  0  0  0  0  0  0  0  0  0
  160.4700  212.0290  142.5080 C   0  0  0  0  0  3  0  0  0  0  0  0
  162.0130  209.5990  137.5720 N   0  0  0  0  0  0  0  0  0  0  0  0
  160.7580  209.2860  137.5720 C   0  0  0  0  0  3  0  0  0  0  0  0
  160.0830  209.8200  138.7930 C   0  0  0  0  0  2  0  0  0  0  0  0
  162.3280  210.3340  138.7160 N   0  0  0  0  0  0  0  0  0  0  0  0
  160.1450  211.3230  141.4080 N   0  0  0  0  0  0  0  0  0  0  0  0
  161.8160  212.3330  142.4220 C   0  0  0  0  0  0  0  0  0  0  0  0
  162.5220  207.1380  151.2420 C   0  0  0  0  0  2  0  0  0  0  0  0
  160.9220  208.3850  151.3840 C   0  0  0  0  0  2  0  0  0  0  0  0
  162.2920  208.5420  150.9040 N   0  0  0  0  0  0  0  0  0  0  0  0
  161.1190  206.9370  151.7610 C   0  0  0  0  0  2  0  0  0  0  0  0
  161.2080  207.8200  148.8910 N   0  0  0  0  0  2  0  0  0  0  0  0
  161.7760  207.1500  147.7320 C   0  0  0  0  0  2  0  0  0  0  0  0
  161.8280  205.6390  147.9380 C   0  0  1  0  0  3  0  0  0  0  0  0
  160.6470  205.1180  148.7680 C   0  0  0  0  0  2  0  0  0  0  0  0
  160.8620  203.0340  150.1870 C   0  0  0  0  0  0  0  0  0  0  0  0
  160.9430  203.7170  151.2430 O   0  0  0  0  0  0  0  0  0  0  0  0
  160.7260  203.6710  148.9150 N   0  0  0  0  0  2  0  0  0  0  0  0
  160.8760  201.5490  150.2670 C   0  0  0  0  0  2  0  0  0  0  0  0
  161.5500  200.4150  148.1740 C   0  0  0  0  0  1  0  0  0  0  0  0
  160.3770  200.9590  148.9630 C   0  0  0  0  0  2  0  0  0  0  0  0
  162.0150  204.9390  146.6580 N   0  0  0  0  0  0  0  0  0  0  0  0
  164.0400  204.3520  146.0590 C   0  0  0  0  0  1  0  0  0  0  0  0
  163.1220  205.4050  146.0140 O   0  0  0  0  0  0  0  0  0  0  0  0
  160.8180  205.1410  145.8260 C   0  0  0  0  0  3  0  0  0  0  0  0
  161.0250  206.1740  144.7180 C   0  0  0  0  0  2  0  0  0  0  0  0
  161.3000  205.5310  143.5110 O   0  0  0  0  0  1  0  0  0  0  0  0
  161.2040  202.7910  145.6450 O   0  0  0  0  0  1  0  0  0  0  0  0
  160.3520  203.8170  145.2370 C   0  0  0  0  0  2  0  0  0  0  0  0
  1 26  1  1  0  0  0
  1 24  1  0  0  0  0
  2  1  1  0  0  0  0
  2  5  1  0  0  0  0
  3  6  2  0  0  0  0
  4  3  1  0  0  0  0
  4  2  2  0  0  0  0
  6  5  1  0  0  0  0
  7  8  1  1  0  0  0
  7  3  1  0  0  0  0
  9  7  1  0  0  0  0
 10  9  3  0  0  0  0
 11 10  1  0  0  0  0
 12 13  1  0  0  0  0
 12 20  1  0  0  0  0
 13 21  2  0  0  0  0
 14 12  1  0  0  0  0
 16 19  1  0  0  0  0
 17 16  2  0  0  0  0
 17 18  1  0  0  0  0
 18 14  1  0  0  0  0
 19 14  2  0  0  0  0
 20 15  2  0  0  0  0
 21 15  1  0  0  0  0
 21 11  1  0  0  0  0
 22 25  1  0  0  0  0
 23 25  1  0  0  0  0
 24 22  1  0  0  0  0
 24 23  1  0  0  0  0
 27 26  1  0  0  0  0
 28 27  1  6  0  0  0
 28 29  1  0  0  0  0
 29 32  1  0  0  0  0
 30 33  1  0  0  0  0
 30 31  2  0  0  0  0
 32 30  1  0  0  0  0
 34 35  1  0  0  0  0
 35 33  1  0  0  0  0
 36 28  1  0  0  0  0
 38 37  1  0  0  0  0
 38 36  1  0  0  0  0
 39 36  1  0  0  0  0
 40 39  1  0  0  0  0
 41 40  1  0  0  0  0
 43 42  1  0  0  0  0
 43 39  1  0  0  0  0
M  END
>  <MODEL>
2

>  <REMARK>
 VINA RESULT:      -5.9      5.171      9.606
  Name = 
  18 active torsions:
  status: ('A' for Active; 'I' for Inactive)
    1  A    between atoms: C_3  and  C_9
    2  A    between atoms: C_3  and  C_22
    3  A    between atoms: C_5  and  C_42
    4  A    between atoms: C_8  and  C_35
    5  A    between atoms: C_12  and  N_24
    6  A    between atoms: C_12  and  C_27
    7  A    between atoms: C_13  and  C_39
    8  A    between atoms: C_14  and  C_21
    9  A    between atoms: C_14  and  C_41
   10  A    between atoms: C_15  and  C_42
   11  A    between atoms: C_18  and  C_39
   12  A    between atoms: N_23  and  C_35
   13  A    between atoms: N_24  and  C_35
   14  A    between atoms: C_27  and  N_28
   15  A    between atoms: C_27  and  C_43
   16  A    between atoms: N_28  and  O_37
   17  A    between atoms: N_28  and  C_42
   18  A    between atoms: N_32  and  C_43
                            x       y       z     vdW  Elec       q    Type
                         _______ _______ _______ _____ _____    ______ ____

>  <TORSDO>
F 18

$$$$
=
 OpenBabel11052411263D

 43 46  0  0  1  0  0  0  0  0999 V2000
  161.5170  208.2420  149.1100 C   0  0  1  0  0  3  0  0  0  0  0  0
  161.7320  209.7160  148.9710 C   0  0  0  0  0  0  0  0  0  0  0  0
  161.7290  211.8620  148.3060 C   0  0  0  0  0  0  0  0  0  0  0  0
  161.2760  210.5280  147.8110 C   0  0  0  0  0  3  0  0  0  0  0  0
  162.2890  210.4450  149.8810 N   0  0  0  0  0  2  0  0  0  0  0  0
  162.2800  211.7780  149.4690 N   0  0  0  0  0  0  0  0  0  0  0  0
  161.4640  213.1680  147.6350 C   0  0  1  0  0  3  0  0  0  0  0  0
  162.0360  214.2540  148.4110 N   0  0  0  0  0  1  0  0  0  0  0  0
  162.0420  213.1630  146.2880 C   0  0  0  0  0  0  0  0  0  0  0  0
  162.5110  213.1550  145.1770 C   0  0  0  0  0  0  0  0  0  0  0  0
  163.0770  213.1440  143.8260 C   0  0  0  0  0  2  0  0  0  0  0  0
  161.2810  211.5060  141.1350 N   0  0  0  0  0  0  0  0  0  0  0  0
  162.4220  212.0350  141.6160 C   0  0  0  0  0  3  0  0  0  0  0  0
  161.1210  210.8980  139.8510 C   0  0  0  0  0  0  0  0  0  0  0  0
  160.7930  212.2280  143.1180 C   0  0  0  0  0  3  0  0  0  0  0  0
  161.5950  210.1510  137.8560 N   0  0  0  0  0  0  0  0  0  0  0  0
  160.3420  209.8660  138.0000 C   0  0  0  0  0  3  0  0  0  0  0  0
  159.8510  210.3190  139.3370 C   0  0  0  0  0  2  0  0  0  0  0  0
  162.0810  210.7890  138.9980 N   0  0  0  0  0  0  0  0  0  0  0  0
  160.3040  211.6160  142.0230 N   0  0  0  0  0  0  0  0  0  0  0  0
  162.1240  212.5080  142.8750 C   0  0  0  0  0  0  0  0  0  0  0  0
  160.4800  206.4650  147.9300 C   0  0  0  0  0  2  0  0  0  0  0  0
  162.4790  206.6700  147.6160 C   0  0  0  0  0  2  0  0  0  0  0  0
  161.3770  207.6110  147.7950 N   0  0  0  0  0  0  0  0  0  0  0  0
  161.5870  205.4580  147.7350 C   0  0  0  0  0  2  0  0  0  0  0  0
  162.6450  207.6660  149.8280 N   0  0  0  0  0  2  0  0  0  0  0  0
  162.5860  208.1860  151.1850 C   0  0  0  0  0  2  0  0  0  0  0  0
  161.5740  207.4160  152.0280 C   0  0  1  0  0  3  0  0  0  0  0  0
  161.9170  205.9240  152.1410 C   0  0  0  0  0  2  0  0  0  0  0  0
  161.1750  203.7290  151.1250 C   0  0  0  0  0  0  0  0  0  0  0  0
  161.8130  203.0710  151.9890 O   0  0  0  0  0  0  0  0  0  0  0  0
  161.1950  205.1580  151.1350 N   0  0  0  0  0  2  0  0  0  0  0  0
  160.3670  203.0120  150.1030 C   0  0  0  0  0  2  0  0  0  0  0  0
  161.0140  201.2390  148.5020 C   0  0  0  0  0  1  0  0  0  0  0  0
  160.8580  201.5840  149.9690 C   0  0  0  0  0  2  0  0  0  0  0  0
  161.3530  208.0790  153.3220 N   0  0  0  0  0  0  0  0  0  0  0  0
  160.5190  207.1210  155.1090 C   0  0  0  0  0  1  0  0  0  0  0  0
  160.1740  207.6740  153.8720 O   0  0  0  0  0  0  0  0  0  0  0  0
  161.3450  209.5360  153.1160 C   0  0  0  0  0  3  0  0  0  0  0  0
  159.9490  210.0950  152.8430 C   0  0  0  0  0  2  0  0  0  0  0  0
  160.0470  211.3300  152.2000 O   0  0  0  0  0  1  0  0  0  0  0  0
  160.9920  210.5960  155.2260 O   0  0  0  0  0  1  0  0  0  0  0  0
  161.9780  210.2430  154.3060 C   0  0  0  0  0  2  0  0  0  0  0  0
  1 26  1  6  0  0  0
  2  1  1  0  0  0  0
  2  5  1  0  0  0  0
  3  6  2  0  0  0  0
  4  3  1  0  0  0  0
  4  2  2  0  0  0  0
  6  5  1  0  0  0  0
  7  3  1  0  0  0  0
  7  8  1  1  0  0  0
  9  7  1  0  0  0  0
 10  9  3  0  0  0  0
 11 10  1  0  0  0  0
 12 13  1  0  0  0  0
 12 20  1  0  0  0  0
 13 21  2  0  0  0  0
 14 12  1  0  0  0  0
 16 17  2  0  0  0  0
 16 19  1  0  0  0  0
 17 18  1  0  0  0  0
 18 14  1  0  0  0  0
 19 14  2  0  0  0  0
 20 15  2  0  0  0  0
 21 15  1  0  0  0  0
 21 11  1  0  0  0  0
 23 25  1  0  0  0  0
 23 24  1  0  0  0  0
 24 22  1  0  0  0  0
 24  1  1  0  0  0  0
 25 22  1  0  0  0  0
 26 27  1  0  0  0  0
 28 27  1  1  0  0  0
 28 29  1  0  0  0  0
 28 36  1  0  0  0  0
 30 32  1  0  0  0  0
 30 31  2  0  0  0  0
 32 29  1  0  0  0  0
 33 30  1  0  0  0  0
 34 35  1  0  0  0  0
 35 33  1  0  0  0  0
 36 38  1  0  0  0  0
 38 37  1  0  0  0  0
 39 36  1  0  0  0  0
 39 43  1  0  0  0  0
 40 39  1  0  0  0  0
 41 40  1  0  0  0  0
 43 42  1  0  0  0  0
M  END
>  <MODEL>
3

>  <REMARK>
 VINA RESULT:      -5.9      4.150      8.007
  Name = 
  18 active torsions:
  status: ('A' for Active; 'I' for Inactive)
    1  A    between atoms: C_3  and  C_9
    2  A    between atoms: C_3  and  C_22
    3  A    between atoms: C_5  and  C_42
    4  A    between atoms: C_8  and  C_35
    5  A    between atoms: C_12  and  N_24
    6  A    between atoms: C_12  and  C_27
    7  A    between atoms: C_13  and  C_39
    8  A    between atoms: C_14  and  C_21
    9  A    between atoms: C_14  and  C_41
   10  A    between atoms: C_15  and  C_42
   11  A    between atoms: C_18  and  C_39
   12  A    between atoms: N_23  and  C_35
   13  A    between atoms: N_24  and  C_35
   14  A    between atoms: C_27  and  N_28
   15  A    between atoms: C_27  and  C_43
   16  A    between atoms: N_28  and  O_37
   17  A    between atoms: N_28  and  C_42
   18  A    between atoms: N_32  and  C_43
                            x       y       z     vdW  Elec       q    Type
                         _______ _______ _______ _____ _____    ______ ____

>  <TORSDO>
F 18

$$$$
=
 OpenBabel11052411263D

 43 46  0  0  1  0  0  0  0  0999 V2000
  158.7440  212.7310  152.8480 C   0  0  1  0  0  3  0  0  0  0  0  0
  158.9170  213.1380  151.4180 C   0  0  0  0  0  0  0  0  0  0  0  0
  159.7230  213.7600  149.4160 C   0  0  0  0  0  0  0  0  0  0  0  0
  160.2080  213.5650  150.8150 C   0  0  0  0  0  2  0  0  0  0  0  0
  157.9650  213.1000  150.5460 N   0  0  0  0  0  0  0  0  0  0  0  0
  158.4690  213.4820  149.3010 N   0  0  0  0  0  0  0  0  0  0  0  0
  160.5820  214.0930  148.2430 C   0  0  1  0  0  3  0  0  0  0  0  0
  161.9420  213.6410  148.4740 N   0  0  0  0  0  1  0  0  0  0  0  0
  160.0470  213.4580  147.0350 C   0  0  0  0  0  0  0  0  0  0  0  0
  159.6010  212.9420  146.0400 C   0  0  0  0  0  0  0  0  0  0  0  0
  159.0580  212.3170  144.8320 C   0  0  0  0  0  2  0  0  0  0  0  0
  161.1830  211.7240  141.9540 N   0  0  0  0  0  0  0  0  0  0  0  0
  159.9950  211.5770  142.5690 C   0  0  0  0  0  3  0  0  0  0  0  0
  161.5090  211.2440  140.6470 C   0  0  0  0  0  0  0  0  0  0  0  0
  161.4040  212.6950  143.8770 C   0  0  0  0  0  3  0  0  0  0  0  0
  161.3020  210.2830  138.6980 N   0  0  0  0  0  0  0  0  0  0  0  0
  162.5180  210.7200  138.6970 C   0  0  0  0  0  3  0  0  0  0  0  0
  162.8280  211.4160  139.9830 C   0  0  0  0  0  2  0  0  0  0  0  0
  160.6740  210.6050  139.9020 N   0  0  0  0  0  0  0  0  0  0  0  0
  162.0300  212.3900  142.7240 N   0  0  0  0  0  0  0  0  0  0  0  0
  160.1230  212.1820  143.8010 C   0  0  0  0  0  0  0  0  0  0  0  0
  157.4290  214.0820  154.2870 C   0  0  0  0  0  2  0  0  0  0  0  0
  157.0660  212.0840  154.3950 C   0  0  0  0  0  2  0  0  0  0  0  0
  157.3780  213.0020  153.3030 N   0  0  0  0  0  0  0  0  0  0  0  0
  157.0950  213.1710  155.4420 C   0  0  0  0  0  2  0  0  0  0  0  0
  159.0470  211.3120  152.9740 N   0  0  0  0  0  2  0  0  0  0  0  0
  160.4000  211.2180  153.4970 C   0  0  0  0  0  2  0  0  0  0  0  0
  160.8110  209.7630  153.7080 C   0  0  1  0  0  3  0  0  0  0  0  0
  161.6990  209.2340  152.5740 C   0  0  0  0  0  2  0  0  0  0  0  0
  161.5650  207.1340  151.1680 C   0  0  0  0  0  0  0  0  0  0  0  0
  162.7900  206.8950  151.3430 O   0  0  0  0  0  0  0  0  0  0  0  0
  160.9590  208.2930  151.7440 N   0  0  0  0  0  2  0  0  0  0  0  0
  160.7350  206.1840  150.3810 C   0  0  0  0  0  2  0  0  0  0  0  0
  160.8020  203.7980  149.7290 C   0  0  0  0  0  1  0  0  0  0  0  0
  160.9600  204.7700  150.8800 C   0  0  0  0  0  2  0  0  0  0  0  0
  161.3730  209.5640  155.0520 N   0  0  0  0  0  0  0  0  0  0  0  0
  160.3560  207.6280  155.1940 C   0  0  0  0  0  1  0  0  0  0  0  0
  160.5070  208.8620  155.8340 O   0  0  0  0  0  0  0  0  0  0  0  0
  161.6510  210.8790  155.6520 C   0  0  0  0  0  3  0  0  0  0  0  0
  160.7010  211.2280  156.7970 C   0  0  0  0  0  2  0  0  0  0  0  0
  160.5520  212.6120  156.8880 O   0  0  0  0  0  1  0  0  0  0  0  0
  163.2680  210.1690  157.2590 O   0  0  0  0  0  1  0  0  0  0  0  0
  163.0980  210.9530  156.1190 C   0  0  0  0  0  2  0  0  0  0  0  0
  1 26  1  6  0  0  0
  1 24  1  0  0  0  0
  2  1  1  0  0  0  0
  3  4  1  0  0  0  0
  4  2  1  0  0  0  0
  5  2  2  0  0  0  0
  6  3  2  0  0  0  0
  6  5  1  0  0  0  0
  7  8  1  1  0  0  0
  7  3  1  0  0  0  0
  9  7  1  0  0  0  0
 10  9  3  0  0  0  0
 11 10  1  0  0  0  0
 12 13  1  0  0  0  0
 12 20  1  0  0  0  0
 13 21  2  0  0  0  0
 14 12  1  0  0  0  0
 16 19  1  0  0  0  0
 17 16  2  0  0  0  0
 17 18  1  0  0  0  0
 18 14  1  0  0  0  0
 19 14  2  0  0  0  0
 20 15  2  0  0  0  0
 21 15  1  0  0  0  0
 21 11  1  0  0  0  0
 22 25  1  0  0  0  0
 23 25  1  0  0  0  0
 24 22  1  0  0  0  0
 24 23  1  0  0  0  0
 26 27  1  0  0  0  0
 27 28  1  0  0  0  0
 28 29  1  6  0  0  0
 28 36  1  0  0  0  0
 30 31  2  0  0  0  0
 30 32  1  0  0  0  0
 32 29  1  0  0  0  0
 33 35  1  0  0  0  0
 33 30  1  0  0  0  0
 34 35  1  0  0  0  0
 36 39  1  0  0  0  0
 36 38  1  0  0  0  0
 37 38  1  0  0  0  0
 39 43  1  0  0  0  0
 39 40  1  0  0  0  0
 40 41  1  0  0  0  0
 43 42  1  0  0  0  0
M  END
>  <MODEL>
4

>  <REMARK>
 VINA RESULT:      -5.8      3.949      7.780
  Name = 
  18 active torsions:
  status: ('A' for Active; 'I' for Inactive)
    1  A    between atoms: C_3  and  C_9
    2  A    between atoms: C_3  and  C_22
    3  A    between atoms: C_5  and  C_42
    4  A    between atoms: C_8  and  C_35
    5  A    between atoms: C_12  and  N_24
    6  A    between atoms: C_12  and  C_27
    7  A    between atoms: C_13  and  C_39
    8  A    between atoms: C_14  and  C_21
    9  A    between atoms: C_14  and  C_41
   10  A    between atoms: C_15  and  C_42
   11  A    between atoms: C_18  and  C_39
   12  A    between atoms: N_23  and  C_35
   13  A    between atoms: N_24  and  C_35
   14  A    between atoms: C_27  and  N_28
   15  A    between atoms: C_27  and  C_43
   16  A    between atoms: N_28  and  O_37
   17  A    between atoms: N_28  and  C_42
   18  A    between atoms: N_32  and  C_43
                            x       y       z     vdW  Elec       q    Type
                         _______ _______ _______ _____ _____    ______ ____

>  <TORSDO>
F 18

$$$$
=
 OpenBabel11052411263D

 43 46  0  0  1  0  0  0  0  0999 V2000
  161.6440  205.9290  151.2360 C   0  0  1  0  0  3  0  0  0  0  0  0
  161.6030  207.3250  151.7760 C   0  0  0  0  0  0  0  0  0  0  0  0
  161.2750  209.1690  153.0170 C   0  0  0  0  0  0  0  0  0  0  0  0
  160.8750  207.7300  153.0090 C   0  0  0  0  0  2  0  0  0  0  0  0
  162.2510  208.3110  151.2520 N   0  0  0  0  0  0  0  0  0  0  0  0
  162.0510  209.4550  152.0270 N   0  0  0  0  0  0  0  0  0  0  0  0
  160.9560  210.1470  154.0960 C   0  0  1  0  0  3  0  0  0  0  0  0
  162.1800  210.6520  154.6920 N   0  0  0  0  0  1  0  0  0  0  0  0
  160.1760  211.2610  153.5470 C   0  0  0  0  0  0  0  0  0  0  0  0
  159.5290  212.1720  153.0930 C   0  0  0  0  0  0  0  0  0  0  0  0
  158.7400  213.2750  152.5410 C   0  0  0  0  0  2  0  0  0  0  0  0
  159.9170  213.3490  149.1120 N   0  0  0  0  0  0  0  0  0  0  0  0
  160.1710  213.1780  150.4230 C   0  0  0  0  0  3  0  0  0  0  0  0
  160.8730  213.2260  148.0560 C   0  0  0  0  0  0  0  0  0  0  0  0
  158.0250  213.6750  150.1150 C   0  0  0  0  0  3  0  0  0  0  0  0
  162.7660  212.8880  147.0250 N   0  0  0  0  0  0  0  0  0  0  0  0
  161.9400  213.1570  146.0680 C   0  0  0  0  0  3  0  0  0  0  0  0
  160.5730  213.4200  146.6120 C   0  0  0  0  0  3  0  0  0  0  0  0
  162.1110  212.9290  148.2560 N   0  0  0  0  0  2  0  0  0  0  0  0
  158.6410  213.6450  148.9170 N   0  0  0  0  0  0  0  0  0  0  0  0
  158.9770  213.3930  151.0760 C   0  0  0  0  0  0  0  0  0  0  0  0
  162.3230  203.7000  151.6770 C   0  0  0  0  0  2  0  0  0  0  0  0
  160.7120  204.3450  152.7370 C   0  0  0  0  0  2  0  0  0  0  0  0
  161.9570  204.9700  152.2990 N   0  0  0  0  0  0  0  0  0  0  0  0
  161.0560  203.0110  152.1200 C   0  0  0  0  0  2  0  0  0  0  0  0
  160.3530  205.6170  150.6390 N   0  0  0  0  0  2  0  0  0  0  0  0
  160.4890  205.8440  149.2090 C   0  0  0  0  0  2  0  0  0  0  0  0
  161.2110  204.6820  148.5320 C   0  0  1  0  0  3  0  0  0  0  0  0
  160.4710  203.3480  148.7070 C   0  0  0  0  0  2  0  0  0  0  0  0
  161.2440  200.9650  148.3510 C   0  0  0  0  0  0  0  0  0  0  0  0
  160.8610  200.6300  149.5030 O   0  0  0  0  0  0  0  0  0  0  0  0
  161.0910  202.3110  147.8950 N   0  0  0  0  0  2  0  0  0  0  0  0
  161.8320  199.9440  147.4440 C   0  0  0  0  0  2  0  0  0  0  0  0
  161.2850  198.5820  145.4510 C   0  0  0  0  0  1  0  0  0  0  0  0
  161.0650  199.9150  146.1360 C   0  0  0  0  0  2  0  0  0  0  0  0
  161.5370  205.0060  147.1350 N   0  0  0  0  0  0  0  0  0  0  0  0
  163.0940  204.2380  145.7960 C   0  0  0  0  0  1  0  0  0  0  0  0
  162.8870  205.0060  146.9460 O   0  0  0  0  0  0  0  0  0  0  0  0
  160.9770  206.3270  146.8100 C   0  0  0  0  0  3  0  0  0  0  0  0
  161.9650  207.4710  147.0420 C   0  0  0  0  0  2  0  0  0  0  0  0
  161.5250  208.2740  148.0950 O   0  0  0  0  0  1  0  0  0  0  0  0
  160.0910  205.0630  144.9880 O   0  0  0  0  0  1  0  0  0  0  0  0
  160.4680  206.3480  145.3750 C   0  0  0  0  0  2  0  0  0  0  0  0
  1 26  1  1  0  0  0
  1  2  1  0  0  0  0
  1 24  1  0  0  0  0
  2  4  1  0  0  0  0
  3  7  1  0  0  0  0
  4  3  1  0  0  0  0
  5  2  2  0  0  0  0
  5  6  1  0  0  0  0
  6  3  2  0  0  0  0
  7  8  1  6  0  0  0
  9  7  1  0  0  0  0
 10  9  3  0  0  0  0
 11 10  1  0  0  0  0
 12 13  1  0  0  0  0
 13 21  2  0  0  0  0
 14 19  1  0  0  0  0
 14 12  1  0  0  0  0
 15 21  1  0  0  0  0
 16 19  1  0  0  0  0
 17 18  1  0  0  0  0
 17 16  2  0  0  0  0
 18 14  2  0  0  0  0
 20 12  1  0  0  0  0
 20 15  2  0  0  0  0
 21 11  1  0  0  0  0
 22 25  1  0  0  0  0
 22 24  1  0  0  0  0
 24 23  1  0  0  0  0
 25 23  1  0  0  0  0
 27 26  1  0  0  0  0
 28 29  1  6  0  0  0
 28 27  1  0  0  0  0
 30 31  2  0  0  0  0
 32 30  1  0  0  0  0
 32 29  1  0  0  0  0
 33 30  1  0  0  0  0
 34 35  1  0  0  0  0
 35 33  1  0  0  0  0
 36 28  1  0  0  0  0
 37 38  1  0  0  0  0
 38 36  1  0  0  0  0
 39 40  1  0  0  0  0
 39 36  1  0  0  0  0
 40 41  1  0  0  0  0
 42 43  1  0  0  0  0
 43 39  1  0  0  0  0
M  END
>  <MODEL>
5

>  <REMARK>
 VINA RESULT:      -5.7      3.661      9.375
  Name = 
  18 active torsions:
  status: ('A' for Active; 'I' for Inactive)
    1  A    between atoms: C_3  and  C_9
    2  A    between atoms: C_3  and  C_22
    3  A    between atoms: C_5  and  C_42
    4  A    between atoms: C_8  and  C_35
    5  A    between atoms: C_12  and  N_24
    6  A    between atoms: C_12  and  C_27
    7  A    between atoms: C_13  and  C_39
    8  A    between atoms: C_14  and  C_21
    9  A    between atoms: C_14  and  C_41
   10  A    between atoms: C_15  and  C_42
   11  A    between atoms: C_18  and  C_39
   12  A    between atoms: N_23  and  C_35
   13  A    between atoms: N_24  and  C_35
   14  A    between atoms: C_27  and  N_28
   15  A    between atoms: C_27  and  C_43
   16  A    between atoms: N_28  and  O_37
   17  A    between atoms: N_28  and  C_42
   18  A    between atoms: N_32  and  C_43
                            x       y       z     vdW  Elec       q    Type
                         _______ _______ _______ _____ _____    ______ ____

>  <TORSDO>
F 18

$$$$
=
 OpenBabel11052411263D

 43 46  0  0  1  0  0  0  0  0999 V2000
  161.9250  211.0560  150.2320 C   0  0  1  0  0  3  0  0  0  0  0  0
  161.8590  209.6470  150.7320 C   0  0  0  0  0  0  0  0  0  0  0  0
  161.9130  207.7730  151.9690 C   0  0  0  0  0  0  0  0  0  0  0  0
  162.2790  209.2160  152.0920 C   0  0  0  0  0  2  0  0  0  0  0  0
  161.3720  208.6690  150.0430 N   0  0  0  0  0  0  0  0  0  0  0  0
  161.4000  207.5070  150.8160 N   0  0  0  0  0  0  0  0  0  0  0  0
  161.9810  206.7680  153.0690 C   0  0  1  0  0  3  0  0  0  0  0  0
  161.1510  207.1890  154.1840 N   0  0  0  0  0  1  0  0  0  0  0  0
  161.5310  205.4610  152.5810 C   0  0  0  0  0  0  0  0  0  0  0  0
  161.1530  204.3860  152.1850 C   0  0  0  0  0  0  0  0  0  0  0  0
  160.6910  203.0820  151.7050 C   0  0  0  0  0  2  0  0  0  0  0  0
  161.1900  203.5210  148.1400 N   0  0  0  0  0  0  0  0  0  0  0  0
  161.2050  204.0310  149.3850 C   0  0  0  0  0  3  0  0  0  0  0  0
  161.5410  204.2260  146.9470 C   0  0  0  0  0  0  0  0  0  0  0  0
  160.5590  201.9030  149.4350 C   0  0  0  0  0  3  0  0  0  0  0  0
  162.1880  205.8380  145.6250 N   0  0  0  0  0  0  0  0  0  0  0  0
  161.9760  204.8490  144.8210 C   0  0  0  0  0  3  0  0  0  0  0  0
  161.5190  203.6440  145.5780 C   0  0  0  0  0  3  0  0  0  0  0  0
  161.9210  205.4570  146.9410 N   0  0  0  0  0  2  0  0  0  0  0  0
  160.8080  202.2530  148.1580 N   0  0  0  0  0  0  0  0  0  0  0  0
  160.7950  203.0150  150.2210 C   0  0  0  0  0  0  0  0  0  0  0  0
  163.3150  211.8170  148.4660 C   0  0  0  0  0  2  0  0  0  0  0  0
  161.3330  212.2160  148.2490 C   0  0  0  0  0  2  0  0  0  0  0  0
  162.0890  211.0840  148.7760 N   0  0  0  0  0  0  0  0  0  0  0  0
  162.5730  213.0020  147.9000 C   0  0  0  0  0  2  0  0  0  0  0  0
  160.7050  211.7510  150.6160 N   0  0  0  0  0  2  0  0  0  0  0  0
  160.4100  211.3520  151.9830 C   0  0  0  0  0  2  0  0  0  0  0  0
  159.6630  212.4530  152.7300 C   0  0  1  0  0  3  0  0  0  0  0  0
  159.2560  213.6140  151.8120 C   0  0  0  0  0  2  0  0  0  0  0  0
  157.3500  213.5830  150.1480 C   0  0  0  0  0  0  0  0  0  0  0  0
  156.7170  214.4530  150.8030 O   0  0  0  0  0  0  0  0  0  0  0  0
  158.6190  213.1090  150.6040 N   0  0  0  0  0  2  0  0  0  0  0  0
  156.7870  213.0660  148.8730 C   0  0  0  0  0  2  0  0  0  0  0  0
  157.2330  212.9110  146.4440 C   0  0  0  0  0  1  0  0  0  0  0  0
  157.8700  213.0200  147.8140 C   0  0  0  0  0  2  0  0  0  0  0  0
  158.5530  211.8960  153.5180 N   0  0  0  0  0  0  0  0  0  0  0  0
  156.5940  212.2150  154.4480 C   0  0  0  0  0  1  0  0  0  0  0  0
  157.4910  212.7500  153.5190 O   0  0  0  0  0  0  0  0  0  0  0  0
  159.0170  211.6590  154.8940 C   0  0  0  0  0  3  0  0  0  0  0  0
  159.5550  210.2440  155.1090 C   0  0  0  0  0  2  0  0  0  0  0  0
  160.8020  210.2970  155.7330 O   0  0  0  0  0  1  0  0  0  0  0  0
  159.4760  213.6990  156.0470 O   0  0  0  0  0  1  0  0  0  0  0  0
  160.0650  212.6910  155.2850 C   0  0  0  0  0  2  0  0  0  0  0  0
  1 26  1  6  0  0  0
  1  2  1  0  0  0  0
  2  4  1  0  0  0  0
  3  4  1  0  0  0  0
  3  7  1  0  0  0  0
  5  2  2  0  0  0  0
  5  6  1  0  0  0  0
  6  3  2  0  0  0  0
  7  8  1  1  0  0  0
  9  7  1  0  0  0  0
 10  9  3  0  0  0  0
 11 10  1  0  0  0  0
 12 20  1  0  0  0  0
 12 13  1  0  0  0  0
 13 21  2  0  0  0  0
 14 12  1  0  0  0  0
 15 21  1  0  0  0  0
 16 19  1  0  0  0  0
 17 18  1  0  0  0  0
 17 16  2  0  0  0  0
 18 14  2  0  0  0  0
 19 14  1  0  0  0  0
 20 15  2  0  0  0  0
 21 11  1  0  0  0  0
 22 24  1  0  0  0  0
 23 24  1  0  0  0  0
 24  1  1  0  0  0  0
 25 23  1  0  0  0  0
 25 22  1  0  0  0  0
 26 27  1  0  0  0  0
 27 28  1  0  0  0  0
 28 29  1  6  0  0  0
 28 36  1  0  0  0  0
 30 32  1  0  0  0  0
 30 31  2  0  0  0  0
 32 29  1  0  0  0  0
 33 30  1  0  0  0  0
 34 35  1  0  0  0  0
 35 33  1  0  0  0  0
 36 38  1  0  0  0  0
 36 39  1  0  0  0  0
 38 37  1  0  0  0  0
 39 40  1  0  0  0  0
 39 43  1  0  0  0  0
 40 41  1  0  0  0  0
 43 42  1  0  0  0  0
M  END
>  <MODEL>
6

>  <REMARK>
 VINA RESULT:      -5.6      1.576      4.003
  Name = 
  18 active torsions:
  status: ('A' for Active; 'I' for Inactive)
    1  A    between atoms: C_3  and  C_9
    2  A    between atoms: C_3  and  C_22
    3  A    between atoms: C_5  and  C_42
    4  A    between atoms: C_8  and  C_35
    5  A    between atoms: C_12  and  N_24
    6  A    between atoms: C_12  and  C_27
    7  A    between atoms: C_13  and  C_39
    8  A    between atoms: C_14  and  C_21
    9  A    between atoms: C_14  and  C_41
   10  A    between atoms: C_15  and  C_42
   11  A    between atoms: C_18  and  C_39
   12  A    between atoms: N_23  and  C_35
   13  A    between atoms: N_24  and  C_35
   14  A    between atoms: C_27  and  N_28
   15  A    between atoms: C_27  and  C_43
   16  A    between atoms: N_28  and  O_37
   17  A    between atoms: N_28  and  C_42
   18  A    between atoms: N_32  and  C_43
                            x       y       z     vdW  Elec       q    Type
                         _______ _______ _______ _____ _____    ______ ____

>  <TORSDO>
F 18

$$$$
=
 OpenBabel11052411263D

 43 46  0  0  1  0  0  0  0  0999 V2000
  162.3270  208.8120  151.2090 C   0  0  1  0  0  3  0  0  0  0  0  0
  161.9790  207.3570  151.1750 C   0  0  0  0  0  0  0  0  0  0  0  0
  161.5860  205.2020  151.6720 C   0  0  0  0  0  0  0  0  0  0  0  0
  162.1580  206.4210  152.3180 C   0  0  0  0  0  2  0  0  0  0  0  0
  161.4300  206.7790  150.1580 N   0  0  0  0  0  0  0  0  0  0  0  0
  161.1810  205.4420  150.4710 N   0  0  0  0  0  0  0  0  0  0  0  0
  161.3610  203.8920  152.3480 C   0  0  1  0  0  3  0  0  0  0  0  0
  160.1420  203.9370  153.1360 N   0  0  0  0  0  1  0  0  0  0  0  0
  161.2670  202.8230  151.3490 C   0  0  0  0  0  0  0  0  0  0  0  0
  161.1940  201.9480  150.5230 C   0  0  0  0  0  0  0  0  0  0  0  0
  161.1080  200.8870  149.5170 C   0  0  0  0  0  2  0  0  0  0  0  0
  161.0610  202.8830  146.4900 N   0  0  0  0  0  0  0  0  0  0  0  0
  161.1800  202.8080  147.8290 C   0  0  0  0  0  3  0  0  0  0  0  0
  161.1570  204.0790  145.7120 C   0  0  0  0  0  0  0  0  0  0  0  0
  160.8210  200.7860  146.9740 C   0  0  0  0  0  3  0  0  0  0  0  0
  161.4100  206.1860  145.2020 N   0  0  0  0  0  0  0  0  0  0  0  0
  161.2180  205.6150  144.0580 C   0  0  0  0  0  3  0  0  0  0  0  0
  161.0230  204.1430  144.2320 C   0  0  0  0  0  3  0  0  0  0  0  0
  161.3730  205.2410  146.2270 N   0  0  0  0  0  2  0  0  0  0  0  0
  160.8490  201.6840  145.9700 N   0  0  0  0  0  0  0  0  0  0  0  0
  161.0190  201.4780  148.1530 C   0  0  0  0  0  0  0  0  0  0  0  0
  161.7690  209.3220  148.9610 C   0  0  0  0  0  2  0  0  0  0  0  0
  161.9690  210.9270  150.1940 C   0  0  0  0  0  2  0  0  0  0  0  0
  161.4200  209.5840  150.3560 N   0  0  0  0  0  0  0  0  0  0  0  0
  162.3350  210.7040  148.7470 C   0  0  0  0  0  2  0  0  0  0  0  0
  162.2490  209.2830  152.5850 N   0  0  0  0  0  2  0  0  0  0  0  0
  160.8480  209.5710  152.8490 C   0  0  0  0  0  2  0  0  0  0  0  0
  160.6970  210.7580  153.7950 C   0  0  1  0  0  3  0  0  0  0  0  0
  159.5150  211.6630  153.4190 C   0  0  0  0  0  2  0  0  0  0  0  0
  159.1150  213.2380  151.4790 C   0  0  0  0  0  0  0  0  0  0  0  0
  157.9600  212.7700  151.2920 O   0  0  0  0  0  0  0  0  0  0  0  0
  159.9500  212.7200  152.5170 N   0  0  0  0  0  2  0  0  0  0  0  0
  159.6020  214.3590  150.6340 C   0  0  0  0  0  2  0  0  0  0  0  0
  160.4520  213.8390  148.3690 C   0  0  0  0  0  1  0  0  0  0  0  0
  159.2100  214.1210  149.1880 C   0  0  0  0  0  2  0  0  0  0  0  0
  160.6900  210.3170  155.1980 N   0  0  0  0  0  0  0  0  0  0  0  0
  159.7030  208.5380  156.0130 C   0  0  0  0  0  1  0  0  0  0  0  0
  159.4640  209.8320  155.5410 O   0  0  0  0  0  0  0  0  0  0  0  0
  161.0460  211.4560  156.0580 C   0  0  0  0  0  3  0  0  0  0  0  0
  159.8720  211.9670  156.8930 C   0  0  0  0  0  2  0  0  0  0  0  0
  159.9050  213.3610  156.9610 O   0  0  0  0  0  1  0  0  0  0  0  0
  162.8500  209.9490  156.4750 O   0  0  0  0  0  1  0  0  0  0  0  0
  162.2200  211.0950  156.9570 C   0  0  0  0  0  2  0  0  0  0  0  0
  1 26  1  1  0  0  0
  2  1  1  0  0  0  0
  2  4  1  0  0  0  0
  3  4  1  0  0  0  0
  3  7  1  0  0  0  0
  5  6  1  0  0  0  0
  5  2  2  0  0  0  0
  6  3  2  0  0  0  0
  7  8  1  6  0  0  0
  9  7  1  0  0  0  0
 10  9  3  0  0  0  0
 11 10  1  0  0  0  0
 12 13  1  0  0  0  0
 13 21  2  0  0  0  0
 14 19  1  0  0  0  0
 14 12  1  0  0  0  0
 15 21  1  0  0  0  0
 16 19  1  0  0  0  0
 17 18  1  0  0  0  0
 17 16  2  0  0  0  0
 18 14  2  0  0  0  0
 20 12  1  0  0  0  0
 20 15  2  0  0  0  0
 21 11  1  0  0  0  0
 22 24  1  0  0  0  0
 23 24  1  0  0  0  0
 24  1  1  0  0  0  0
 25 22  1  0  0  0  0
 25 23  1  0  0  0  0
 26 27  1  0  0  0  0
 28 27  1  6  0  0  0
 28 36  1  0  0  0  0
 29 28  1  0  0  0  0
 30 32  1  0  0  0  0
 31 30  2  0  0  0  0
 32 29  1  0  0  0  0
 33 30  1  0  0  0  0
 34 35  1  0  0  0  0
 35 33  1  0  0  0  0
 36 38  1  0  0  0  0
 36 39  1  0  0  0  0
 38 37  1  0  0  0  0
 39 40  1  0  0  0  0
 39 43  1  0  0  0  0
 40 41  1  0  0  0  0
 42 43  1  0  0  0  0
M  END
>  <MODEL>
7

>  <REMARK>
 VINA RESULT:      -5.3      1.586      3.970
  Name = 
  18 active torsions:
  status: ('A' for Active; 'I' for Inactive)
    1  A    between atoms: C_3  and  C_9
    2  A    between atoms: C_3  and  C_22
    3  A    between atoms: C_5  and  C_42
    4  A    between atoms: C_8  and  C_35
    5  A    between atoms: C_12  and  N_24
    6  A    between atoms: C_12  and  C_27
    7  A    between atoms: C_13  and  C_39
    8  A    between atoms: C_14  and  C_21
    9  A    between atoms: C_14  and  C_41
   10  A    between atoms: C_15  and  C_42
   11  A    between atoms: C_18  and  C_39
   12  A    between atoms: N_23  and  C_35
   13  A    between atoms: N_24  and  C_35
   14  A    between atoms: C_27  and  N_28
   15  A    between atoms: C_27  and  C_43
   16  A    between atoms: N_28  and  O_37
   17  A    between atoms: N_28  and  C_42
   18  A    between atoms: N_32  and  C_43
                            x       y       z     vdW  Elec       q    Type
                         _______ _______ _______ _____ _____    ______ ____

>  <TORSDO>
F 18

$$$$
=
 OpenBabel11052411263D

 43 46  0  0  1  0  0  0  0  0999 V2000
  159.7530  213.5790  150.5430 C   0  0  1  0  0  3  0  0  0  0  0  0
  160.7060  212.5080  150.1120 C   0  0  0  0  0  0  0  0  0  0  0  0
  161.8950  210.6160  149.8870 C   0  0  0  0  0  0  0  0  0  0  0  0
  160.9100  211.2220  150.8320 C   0  0  0  0  0  2  0  0  0  0  0  0
  161.4070  212.5720  149.0280 N   0  0  0  0  0  0  0  0  0  0  0  0
  162.1400  211.3930  148.8870 N   0  0  0  0  0  0  0  0  0  0  0  0
  162.4370  209.2290  149.9780 C   0  0  1  0  0  3  0  0  0  0  0  0
  162.0080  208.6050  151.2170 N   0  0  0  0  0  1  0  0  0  0  0  0
  161.9730  208.4350  148.8370 C   0  0  0  0  0  0  0  0  0  0  0  0
  161.5870  207.7870  147.8950 C   0  0  0  0  0  0  0  0  0  0  0  0
  161.1160  207.0040  146.7510 C   0  0  0  0  0  2  0  0  0  0  0  0
  161.1660  203.6080  148.0210 N   0  0  0  0  0  0  0  0  0  0  0  0
  160.9400  204.9200  148.2230 C   0  0  0  0  0  3  0  0  0  0  0  0
  160.9830  202.5720  148.9890 C   0  0  0  0  0  0  0  0  0  0  0  0
  161.6380  204.5730  146.1400 C   0  0  0  0  0  3  0  0  0  0  0  0
  160.4980  201.5790  150.8720 N   0  0  0  0  0  0  0  0  0  0  0  0
  160.8650  200.6100  150.0990 C   0  0  0  0  0  3  0  0  0  0  0  0
  161.2370  201.1270  148.7470 C   0  0  0  0  0  3  0  0  0  0  0  0
  160.5690  202.7940  150.1900 N   0  0  0  0  0  2  0  0  0  0  0  0
  161.5810  203.3900  146.7820 N   0  0  0  0  0  0  0  0  0  0  0  0
  161.2470  205.5490  147.0360 C   0  0  0  0  0  0  0  0  0  0  0  0
  157.6130  214.3130  149.8310 C   0  0  0  0  0  2  0  0  0  0  0  0
  158.5130  212.9480  148.6210 C   0  0  0  0  0  2  0  0  0  0  0  0
  158.9910  214.0880  149.4000 N   0  0  0  0  0  0  0  0  0  0  0  0
  157.0750  213.1530  149.0300 C   0  0  0  0  0  2  0  0  0  0  0  0
  158.8510  213.0310  151.5470 N   0  0  0  0  0  2  0  0  0  0  0  0
  159.3020  213.5370  152.8340 C   0  0  0  0  0  2  0  0  0  0  0  0
  159.1020  212.4990  153.9350 C   0  0  1  0  0  3  0  0  0  0  0  0
  160.3980  211.7550  154.2830 C   0  0  0  0  0  2  0  0  0  0  0  0
  160.8180  209.4680  155.2820 C   0  0  0  0  0  0  0  0  0  0  0  0
  161.6580  209.9370  156.0950 O   0  0  0  0  0  0  0  0  0  0  0  0
  160.1610  210.3190  154.3400 N   0  0  0  0  0  2  0  0  0  0  0  0
  160.4820  208.0200  155.3240 C   0  0  0  0  0  2  0  0  0  0  0  0
  161.2520  206.1920  153.8450 C   0  0  0  0  0  1  0  0  0  0  0  0
  160.4320  207.4630  153.9150 C   0  0  0  0  0  2  0  0  0  0  0  0
  158.4210  213.0890  155.0970 N   0  0  0  0  0  0  0  0  0  0  0  0
  159.5870  214.1540  156.6170 C   0  0  0  0  0  1  0  0  0  0  0  0
  159.1460  212.8840  156.2320 O   0  0  0  0  0  0  0  0  0  0  0  0
  157.0870  212.4800  155.2270 C   0  0  0  0  0  3  0  0  0  0  0  0
  156.8010  211.9600  156.6360 C   0  0  0  0  0  2  0  0  0  0  0  0
  155.4270  211.7910  156.8120 O   0  0  0  0  0  1  0  0  0  0  0  0
  155.1500  212.8560  153.8830 O   0  0  0  0  0  1  0  0  0  0  0  0
  156.0100  213.4650  154.7950 C   0  0  0  0  0  2  0  0  0  0  0  0
  1 26  1  1  0  0  0
  2  1  1  0  0  0  0
  2  4  1  0  0  0  0
  3  7  1  0  0  0  0
  3  4  1  0  0  0  0
  5  2  2  0  0  0  0
  6  5  1  0  0  0  0
  6  3  2  0  0  0  0
  7  8  1  1  0  0  0
  9  7  1  0  0  0  0
 10  9  3  0  0  0  0
 11 21  1  0  0  0  0
 11 10  1  0  0  0  0
 12 13  1  0  0  0  0
 12 14  1  0  0  0  0
 14 19  1  0  0  0  0
 15 20  2  0  0  0  0
 15 21  1  0  0  0  0
 17 16  2  0  0  0  0
 18 14  2  0  0  0  0
 18 17  1  0  0  0  0
 19 16  1  0  0  0  0
 20 12  1  0  0  0  0
 21 13  2  0  0  0  0
 23 25  1  0  0  0  0
 23 24  1  0  0  0  0
 24 22  1  0  0  0  0
 24  1  1  0  0  0  0
 25 22  1  0  0  0  0
 26 27  1  0  0  0  0
 28 27  1  6  0  0  0
 28 29  1  0  0  0  0
 28 36  1  0  0  0  0
 29 32  1  0  0  0  0
 30 33  1  0  0  0  0
 30 31  2  0  0  0  0
 32 30  1  0  0  0  0
 34 35  1  0  0  0  0
 35 33  1  0  0  0  0
 36 39  1  0  0  0  0
 36 38  1  0  0  0  0
 38 37  1  0  0  0  0
 39 40  1  0  0  0  0
 40 41  1  0  0  0  0
 42 43  1  0  0  0  0
 43 39  1  0  0  0  0
M  END
>  <MODEL>
8

>  <REMARK>
 VINA RESULT:      -4.8      1.902      4.038
  Name = 
  18 active torsions:
  status: ('A' for Active; 'I' for Inactive)
    1  A    between atoms: C_3  and  C_9
    2  A    between atoms: C_3  and  C_22
    3  A    between atoms: C_5  and  C_42
    4  A    between atoms: C_8  and  C_35
    5  A    between atoms: C_12  and  N_24
    6  A    between atoms: C_12  and  C_27
    7  A    between atoms: C_13  and  C_39
    8  A    between atoms: C_14  and  C_21
    9  A    between atoms: C_14  and  C_41
   10  A    between atoms: C_15  and  C_42
   11  A    between atoms: C_18  and  C_39
   12  A    between atoms: N_23  and  C_35
   13  A    between atoms: N_24  and  C_35
   14  A    between atoms: C_27  and  N_28
   15  A    between atoms: C_27  and  C_43
   16  A    between atoms: N_28  and  O_37
   17  A    between atoms: N_28  and  C_42
   18  A    between atoms: N_32  and  C_43
                            x       y       z     vdW  Elec       q    Type
                         _______ _______ _______ _____ _____    ______ ____

>  <TORSDO>
F 18

$$$$
=
 OpenBabel11052411263D

 43 46  0  0  1  0  0  0  0  0999 V2000
  161.3420  212.0930  150.8540 C   0  0  1  0  0  3  0  0  0  0  0  0
  161.2820  210.7470  151.5050 C   0  0  0  0  0  0  0  0  0  0  0  0
  161.2670  209.0290  152.9530 C   0  0  0  0  0  0  0  0  0  0  0  0
  161.5430  210.4970  152.9480 C   0  0  0  0  0  2  0  0  0  0  0  0
  160.9360  209.6690  150.8830 N   0  0  0  0  0  0  0  0  0  0  0  0
  160.9220  208.6040  151.7850 N   0  0  0  0  0  0  0  0  0  0  0  0
  161.2430  208.1590  154.1640 C   0  0  1  0  0  3  0  0  0  0  0  0
  160.1480  208.5460  155.0360 N   0  0  0  0  0  1  0  0  0  0  0  0
  161.0900  206.7560  153.7690 C   0  0  0  0  0  0  0  0  0  0  0  0
  160.9700  205.6020  153.4380 C   0  0  0  0  0  0  0  0  0  0  0  0
  160.8260  204.2020  153.0340 C   0  0  0  0  0  2  0  0  0  0  0  0
  161.0820  204.5640  149.4350 N   0  0  0  0  0  0  0  0  0  0  0  0
  160.9580  205.1260  150.6520 C   0  0  0  0  0  3  0  0  0  0  0  0
  161.1630  205.2720  148.1960 C   0  0  0  0  0  0  0  0  0  0  0  0
  161.0330  202.9100  150.8330 C   0  0  0  0  0  3  0  0  0  0  0  0
  161.2290  206.9250  146.7720 N   0  0  0  0  0  0  0  0  0  0  0  0
  161.3300  205.8740  146.0260 C   0  0  0  0  0  3  0  0  0  0  0  0
  161.3000  204.6340  146.8590 C   0  0  0  0  0  3  0  0  0  0  0  0
  161.1260  206.5580  148.1140 N   0  0  0  0  0  2  0  0  0  0  0  0
  161.1280  203.2440  149.5310 N   0  0  0  0  0  0  0  0  0  0  0  0
  160.9150  204.0830  151.5530 C   0  0  0  0  0  0  0  0  0  0  0  0
  162.1680  211.4060  148.7390 C   0  0  0  0  0  2  0  0  0  0  0  0
  161.3510  213.2670  148.7920 C   0  0  0  0  0  2  0  0  0  0  0  0
  161.0210  211.9940  149.4270 N   0  0  0  0  0  0  0  0  0  0  0  0
  162.5370  212.6970  148.0510 C   0  0  0  0  0  2  0  0  0  0  0  0
  160.4030  212.9830  151.5220 N   0  0  0  0  0  2  0  0  0  0  0  0
  159.0840  212.3890  151.3690 C   0  0  0  0  0  2  0  0  0  0  0  0
  157.9850  213.4310  151.5560 C   0  0  1  0  0  3  0  0  0  0  0  0
  157.0970  213.5770  150.3130 C   0  0  0  0  0  2  0  0  0  0  0  0
  157.8510  213.2380  147.9210 C   0  0  0  0  0  0  0  0  0  0  0  0
  157.1200  212.2200  147.7970 O   0  0  0  0  0  0  0  0  0  0  0  0
  157.8970  213.9560  149.1560 N   0  0  0  0  0  2  0  0  0  0  0  0
  158.6500  213.7180  146.7620 C   0  0  0  0  0  2  0  0  0  0  0  0
  158.9540  213.3210  144.3390 C   0  0  0  0  0  1  0  0  0  0  0  0
  158.6540  212.6650  145.6710 C   0  0  0  0  0  2  0  0  0  0  0  0
  157.2390  213.1930  152.8010 N   0  0  0  0  0  0  0  0  0  0  0  0
  155.1790  213.7680  153.2780 C   0  0  0  0  0  1  0  0  0  0  0  0
  156.4710  214.2740  153.1130 O   0  0  0  0  0  0  0  0  0  0  0  0
  158.1960  212.9170  153.8840 C   0  0  0  0  0  3  0  0  0  0  0  0
  158.0820  213.9010  155.0490 C   0  0  0  0  0  2  0  0  0  0  0  0
  159.3520  214.2250  155.5270 O   0  0  0  0  0  1  0  0  0  0  0  0
  157.0830  211.4380  155.3920 O   0  0  0  0  0  1  0  0  0  0  0  0
  158.0390  211.4870  154.3790 C   0  0  0  0  0  2  0  0  0  0  0  0
  1  2  1  0  0  0  0
  1 26  1  1  0  0  0
  2  4  1  0  0  0  0
  3  7  1  0  0  0  0
  4  3  1  0  0  0  0
  5  2  2  0  0  0  0
  5  6  1  0  0  0  0
  6  3  2  0  0  0  0
  7  8  1  1  0  0  0
  9  7  1  0  0  0  0
 10  9  3  0  0  0  0
 11 10  1  0  0  0  0
 12 20  1  0  0  0  0
 12 13  1  0  0  0  0
 13 21  2  0  0  0  0
 14 12  1  0  0  0  0
 15 21  1  0  0  0  0
 16 19  1  0  0  0  0
 17 16  2  0  0  0  0
 17 18  1  0  0  0  0
 18 14  2  0  0  0  0
 19 14  1  0  0  0  0
 20 15  2  0  0  0  0
 21 11  1  0  0  0  0
 22 24  1  0  0  0  0
 23 24  1  0  0  0  0
 24  1  1  0  0  0  0
 25 22  1  0  0  0  0
 25 23  1  0  0  0  0
 27 26  1  0  0  0  0
 27 28  1  0  0  0  0
 28 29  1  6  0  0  0
 28 36  1  0  0  0  0
 30 32  1  0  0  0  0
 31 30  2  0  0  0  0
 32 29  1  0  0  0  0
 33 30  1  0  0  0  0
 34 35  1  0  0  0  0
 35 33  1  0  0  0  0
 36 38  1  0  0  0  0
 36 39  1  0  0  0  0
 38 37  1  0  0  0  0
 39 43  1  0  0  0  0
 39 40  1  0  0  0  0
 40 41  1  0  0  0  0
 43 42  1  0  0  0  0
M  END
>  <MODEL>
9

>  <REMARK>
 VINA RESULT:      -4.7      2.186      4.612
  Name = 
  18 active torsions:
  status: ('A' for Active; 'I' for Inactive)
    1  A    between atoms: C_3  and  C_9
    2  A    between atoms: C_3  and  C_22
    3  A    between atoms: C_5  and  C_42
    4  A    between atoms: C_8  and  C_35
    5  A    between atoms: C_12  and  N_24
    6  A    between atoms: C_12  and  C_27
    7  A    between atoms: C_13  and  C_39
    8  A    between atoms: C_14  and  C_21
    9  A    between atoms: C_14  and  C_41
   10  A    between atoms: C_15  and  C_42
   11  A    between atoms: C_18  and  C_39
   12  A    between atoms: N_23  and  C_35
   13  A    between atoms: N_24  and  C_35
   14  A    between atoms: C_27  and  N_28
   15  A    between atoms: C_27  and  C_43
   16  A    between atoms: N_28  and  O_37
   17  A    between atoms: N_28  and  C_42
   18  A    between atoms: N_32  and  C_43
                            x       y       z     vdW  Elec       q    Type
                         _______ _______ _______ _____ _____    ______ ____

>  <TORSDO>
F 18

$$$$
