=
 OpenBabel11042421393D

 45 49  0  0  1  0  0  0  0  0999 V2000
  161.9300  209.1250  152.2880 C   0  0  1  0  0  3  0  0  0  0  0  0
  161.4100  205.6350  151.0000 N   0  0  0  0  0  0  0  0  0  0  0  0
  161.1980  206.4560  153.3060 C   0  0  0  0  0  2  0  0  0  0  0  0
  160.6530  211.0490  153.2140 C   0  0  1  0  0  3  0  0  0  0  0  0
  161.5260  210.2100  154.5030 S   0  0  0  0  0  0  0  0  0  0  0  0
  162.7650  210.9750  154.8740 O   0  0  0  0  0  0  0  0  0  0  0  0
  160.8750  207.7850  153.9560 C   0  0  0  0  0  2  0  0  0  0  0  0
  160.8000  210.1360  152.0010 C   0  0  1  0  0  3  0  0  0  0  0  0
  160.6810  209.9700  155.7270 O   0  0  0  0  0  0  0  0  0  0  0  0
  161.5000  206.6240  151.8430 C   0  0  0  0  0  0  0  0  0  0  0  0
  161.9520  208.7390  153.7070 N   0  0  1  0  0  0  0  0  0  0  0  0
  161.9630  207.9470  151.2980 C   0  0  0  0  0  2  0  0  0  0  0  0
  160.4470  213.7570  148.8590 C   0  0  0  0  0  2  0  0  0  0  0  0
  161.8990  210.3220  149.6550 C   0  0  0  0  0  2  0  0  0  0  0  0
  161.0570  210.9290  150.7530 C   0  0  0  0  0  0  0  0  0  0  0  0
  161.9030  213.7510  148.3400 C   0  0  1  0  0  3  0  0  0  0  0  0
  160.6230  212.1560  150.6250 C   0  0  0  0  0  0  0  0  0  0  0  0
  160.3070  213.3740  150.3020 C   0  0  0  0  0  3  0  0  0  0  0  0
  162.7380  212.4990  148.6700 C   0  0  0  0  0  2  0  0  0  0  0  0
  162.0150  211.1810  148.3810 C   0  0  0  0  0  2  0  0  0  0  0  0
  161.9260  214.0010  146.8420 C   0  0  0  0  0  2  0  0  0  0  0  0
  160.2860  214.4530  145.2270 C   0  0  0  0  0  2  0  0  0  0  0  0
  160.8580  213.1960  144.7590 C   0  0  2  0  0  3  0  0  0  0  0  0
  160.7200  213.4580  146.2200 N   0  0  0  0  0  0  0  0  0  0  0  0
  162.2530  213.4450  144.1800 C   0  0  0  0  0  2  0  0  0  0  0  0
  162.1460  214.1150  142.8210 C   0  0  0  0  0  2  0  0  0  0  0  0
  162.1660  212.8470  140.7220 C   0  0  1  0  0  0  0  0  0  0  0  0
  163.4810  214.3970  140.9140 C   0  0  0  0  0  2  0  0  0  0  0  0
  162.9570  213.3950  141.8400 N   0  0  0  0  0  0  0  0  0  0  0  0
  160.7180  212.9510  140.8900 N   0  0  0  0  0  1  0  0  0  0  0  0
  162.6830  213.8640  139.7360 C   0  0  0  0  0  2  0  0  0  0  0  0
  162.5960  211.4300  140.3610 C   0  0  0  0  0  2  0  0  0  0  0  0
  163.2390  211.4130  139.0570 N   0  0  0  0  0  2  0  0  0  0  0  0
  162.3500  210.6910  138.1640 C   0  0  0  0  0  1  0  0  0  0  0  0
  161.0570  204.2620  151.2490 C   0  0  0  0  0  0  0  0  0  0  0  0
  160.8420  203.8990  152.4350 O   0  0  0  0  0  0  0  0  0  0  0  0
  160.8570  203.2610  150.1560 C   0  0  0  0  0  2  0  0  0  0  0  0
  160.6770  203.9400  148.8810 N   0  0  0  0  0  2  0  0  0  0  0  0
  161.6200  203.3580  147.9370 C   0  0  0  0  0  2  0  0  0  0  0  0
  161.1610  203.4530  145.6010 F   0  0  0  0  0  0  0  0  0  0  0  0
  160.9510  205.3450  146.8130 F   0  0  0  0  0  0  0  0  0  0  0  0
  161.6790  204.1800  146.6580 C   0  0  0  0  0  0  0  0  0  0  0  0
  162.9950  204.4980  146.3840 F   0  0  0  0  0  0  0  0  0  0  0  0
  158.3750  211.0700  152.4470 F   0  0  0  0  0  0  0  0  0  0  0  0
  159.1840  211.2680  153.5550 C   0  0  0  0  0  2  0  0  0  0  0  0
  1 12  1  6  0  0  0
  1 11  1  0  0  0  0
  2 35  1  0  0  0  0
  2 10  2  0  0  0  0
  3  7  1  0  0  0  0
  4 45  1  1  0  0  0
  4  5  1  0  0  0  0
  5  6  2  0  0  0  0
  5  9  2  0  0  0  0
  8 15  1  6  0  0  0
  8  1  1  0  0  0  0
  8  4  1  0  0  0  0
 10  3  1  0  0  0  0
 11  7  1  6  0  0  0
 11  5  1  0  0  0  0
 12 10  1  0  0  0  0
 13 18  1  0  0  0  0
 14 15  1  0  0  0  0
 16 21  1  6  0  0  0
 16 19  1  0  0  0  0
 16 13  1  0  0  0  0
 17 15  2  0  0  0  0
 18 17  2  0  0  0  0
 20 19  1  0  0  0  0
 20 14  1  0  0  0  0
 22 24  1  0  0  0  0
 23 25  1  1  0  0  0
 23 22  1  0  0  0  0
 23 24  1  0  0  0  0
 24 21  1  0  0  0  0
 26 25  1  0  0  0  0
 27 30  1  1  0  0  0
 27 29  1  0  0  0  0
 28 29  1  0  0  0  0
 29 26  1  0  0  0  0
 31 27  1  0  0  0  0
 31 28  1  0  0  0  0
 32 27  1  0  0  0  0
 33 32  1  0  0  0  0
 34 33  1  0  0  0  0
 35 36  2  0  0  0  0
 37 35  1  0  0  0  0
 38 37  1  0  0  0  0
 39 38  1  0  0  0  0
 40 42  1  0  0  0  0
 42 41  1  0  0  0  0
 42 39  1  0  0  0  0
 43 42  1  0  0  0  0
 44 45  1  0  0  0  0
M  END
>  <MODEL>
1

>  <REMARK>
 VINA RESULT:      -6.6      0.000      0.000
  Name = 
  14 active torsions:
  status: ('A' for Active; 'I' for Inactive)
    1  A    between atoms: C_3  and  C_36
    2  A    between atoms: N_4  and  C_12
    3  A    between atoms: C_10  and  C_34
    4  A    between atoms: C_12  and  C_38
    5  A    between atoms: N_13  and  C_22
    6  A    between atoms: N_13  and  C_38
    7  A    between atoms: C_14  and  C_19
    8  A    between atoms: C_14  and  N_42
    9  A    between atoms: N_15  and  C_20
   10  A    between atoms: C_17  and  C_22
   11  A    between atoms: C_18  and  C_30
   12  A    between atoms: C_20  and  C_23
   13  A    between atoms: C_23  and  C_39
   14  A    between atoms: N_25  and  C_36
                            x       y       z     vdW  Elec       q    Type
                         _______ _______ _______ _____ _____    ______ ____

>  <TORSDO>
F 14

$$$$
=
 OpenBabel11042421393D

 45 49  0  0  1  0  0  0  0  0999 V2000
  159.7690  210.5180  152.7980 C   0  0  1  0  0  3  0  0  0  0  0  0
  160.2080  212.5080  149.6420 N   0  0  0  0  0  0  0  0  0  0  0  0
  159.6820  213.3250  151.8980 C   0  0  0  0  0  2  0  0  0  0  0  0
  160.8870  210.0910  154.9790 C   0  0  1  0  0  3  0  0  0  0  0  0
  159.4910  211.1550  155.1980 S   0  0  0  0  0  0  0  0  0  0  0  0
  158.3280  210.3800  155.7490 O   0  0  0  0  0  0  0  0  0  0  0  0
  159.9350  212.8410  153.3110 C   0  0  0  0  0  2  0  0  0  0  0  0
  161.0610  210.0020  153.4660 C   0  0  1  0  0  3  0  0  0  0  0  0
  159.7860  212.3400  156.0810 O   0  0  0  0  0  0  0  0  0  0  0  0
  159.9620  212.2420  150.8930 C   0  0  0  0  0  0  0  0  0  0  0  0
  159.1740  211.6220  153.5670 N   0  0  1  0  0  0  0  0  0  0  0  0
  159.9280  210.7920  151.2920 C   0  0  0  0  0  2  0  0  0  0  0  0
  161.3710  205.2110  153.7200 C   0  0  0  0  0  2  0  0  0  0  0  0
  162.1910  208.3870  151.7750 C   0  0  0  0  0  2  0  0  0  0  0  0
  161.3950  208.6020  153.0410 C   0  0  0  0  0  0  0  0  0  0  0  0
  161.1640  204.8900  152.2220 C   0  0  1  0  0  3  0  0  0  0  0  0
  160.9560  207.5650  153.7070 C   0  0  0  0  0  0  0  0  0  0  0  0
  160.6150  206.4140  154.2020 C   0  0  0  0  0  3  0  0  0  0  0  0
  161.3120  206.0720  151.2450 C   0  0  0  0  0  2  0  0  0  0  0  0
  162.5640  206.9200  151.4870 C   0  0  0  0  0  2  0  0  0  0  0  0
  162.0820  203.7580  151.7970 C   0  0  0  0  0  2  0  0  0  0  0  0
  159.9900  203.0180  151.0370 C   0  0  0  0  0  2  0  0  0  0  0  0
  160.9110  202.4130  150.0800 C   0  0  2  0  0  3  0  0  0  0  0  0
  161.3040  202.5550  151.5110 N   0  0  0  0  0  0  0  0  0  0  0  0
  161.4640  203.4900  149.1420 C   0  0  0  0  0  2  0  0  0  0  0  0
  161.6720  202.9180  147.7500 C   0  0  0  0  0  2  0  0  0  0  0  0
  162.0720  204.6220  146.0330 C   0  0  1  0  0  0  0  0  0  0  0  0
  160.9230  203.0120  145.5290 C   0  0  0  0  0  2  0  0  0  0  0  0
  161.0770  203.8030  146.7490 N   0  0  0  0  0  0  0  0  0  0  0  0
  163.4280  204.5480  146.5750 N   0  0  0  0  0  1  0  0  0  0  0  0
  161.9430  203.8300  144.7570 C   0  0  0  0  0  2  0  0  0  0  0  0
  161.6060  206.0630  145.8620 C   0  0  0  0  0  2  0  0  0  0  0  0
  160.6240  206.4030  146.8780 N   0  0  0  0  0  2  0  0  0  0  0  0
  161.2950  207.2630  147.8360 C   0  0  0  0  0  1  0  0  0  0  0  0
  160.2410  213.7830  148.9760 C   0  0  0  0  0  0  0  0  0  0  0  0
  161.3530  214.3480  148.8090 O   0  0  0  0  0  0  0  0  0  0  0  0
  159.0230  214.4340  148.4020 C   0  0  0  0  0  2  0  0  0  0  0  0
  158.2870  213.4840  147.5810 N   0  0  0  0  0  2  0  0  0  0  0  0
  158.2860  213.9920  146.2170 C   0  0  0  0  0  2  0  0  0  0  0  0
  158.8650  213.2470  144.0290 F   0  0  0  0  0  0  0  0  0  0  0  0
  160.5300  213.7700  145.4590 F   0  0  0  0  0  0  0  0  0  0  0  0
  159.2680  213.2150  145.3510 C   0  0  0  0  0  0  0  0  0  0  0  0
  159.3100  211.9030  145.7790 F   0  0  0  0  0  0  0  0  0  0  0  0
  162.2250  210.2530  156.9690 F   0  0  0  0  0  0  0  0  0  0  0  0
  162.1450  210.6410  155.6410 C   0  0  0  0  0  2  0  0  0  0  0  0
  1 12  1  6  0  0  0
  1  8  1  0  0  0  0
  1 11  1  0  0  0  0
  2 10  2  0  0  0  0
  3  7  1  0  0  0  0
  4  5  1  0  0  0  0
  4 45  1  1  0  0  0
  5  6  2  0  0  0  0
  5  9  2  0  0  0  0
  8 15  1  1  0  0  0
  8  4  1  0  0  0  0
 10 12  1  0  0  0  0
 10  3  1  0  0  0  0
 11  7  1  6  0  0  0
 11  5  1  0  0  0  0
 13 18  1  0  0  0  0
 14 15  1  0  0  0  0
 15 17  2  0  0  0  0
 16 21  1  6  0  0  0
 16 13  1  0  0  0  0
 17 18  2  0  0  0  0
 19 20  1  0  0  0  0
 19 16  1  0  0  0  0
 20 14  1  0  0  0  0
 22 24  1  0  0  0  0
 23 25  1  6  0  0  0
 23 22  1  0  0  0  0
 23 24  1  0  0  0  0
 24 21  1  0  0  0  0
 26 25  1  0  0  0  0
 27 30  1  1  0  0  0
 27 29  1  0  0  0  0
 28 29  1  0  0  0  0
 29 26  1  0  0  0  0
 31 28  1  0  0  0  0
 31 27  1  0  0  0  0
 32 27  1  0  0  0  0
 32 33  1  0  0  0  0
 33 34  1  0  0  0  0
 35  2  1  0  0  0  0
 36 35  2  0  0  0  0
 37 35  1  0  0  0  0
 38 37  1  0  0  0  0
 39 38  1  0  0  0  0
 40 42  1  0  0  0  0
 42 41  1  0  0  0  0
 42 43  1  0  0  0  0
 42 39  1  0  0  0  0
 45 44  1  0  0  0  0
M  END
>  <MODEL>
2

>  <REMARK>
 VINA RESULT:      -5.6      4.338      8.577
  Name = 
  14 active torsions:
  status: ('A' for Active; 'I' for Inactive)
    1  A    between atoms: C_3  and  C_36
    2  A    between atoms: N_4  and  C_12
    3  A    between atoms: C_10  and  C_34
    4  A    between atoms: C_12  and  C_38
    5  A    between atoms: N_13  and  C_22
    6  A    between atoms: N_13  and  C_38
    7  A    between atoms: C_14  and  C_19
    8  A    between atoms: C_14  and  N_42
    9  A    between atoms: N_15  and  C_20
   10  A    between atoms: C_17  and  C_22
   11  A    between atoms: C_18  and  C_30
   12  A    between atoms: C_20  and  C_23
   13  A    between atoms: C_23  and  C_39
   14  A    between atoms: N_25  and  C_36
                            x       y       z     vdW  Elec       q    Type
                         _______ _______ _______ _____ _____    ______ ____

>  <TORSDO>
F 14

$$$$
=
 OpenBabel11042421393D

 45 49  0  0  1  0  0  0  0  0999 V2000
  161.7440  209.0920  152.8610 C   0  0  1  0  0  3  0  0  0  0  0  0
  161.2790  205.6010  151.5550 N   0  0  0  0  0  0  0  0  0  0  0  0
  161.2030  206.3800  153.8830 C   0  0  0  0  0  2  0  0  0  0  0  0
  160.4580  210.9450  153.9110 C   0  0  1  0  0  3  0  0  0  0  0  0
  161.4590  210.1270  155.1180 S   0  0  0  0  0  0  0  0  0  0  0  0
  162.6890  210.9400  155.4110 O   0  0  0  0  0  0  0  0  0  0  0  0
  160.8730  207.6840  154.5790 C   0  0  0  0  0  2  0  0  0  0  0  0
  160.5530  210.0560  152.6750 C   0  0  1  0  0  3  0  0  0  0  0  0
  160.7190  209.8330  156.3970 O   0  0  0  0  0  0  0  0  0  0  0  0
  161.3890  206.5810  152.4050 C   0  0  0  0  0  0  0  0  0  0  0  0
  161.8880  208.6870  154.2680 N   0  0  1  0  0  0  0  0  0  0  0  0
  161.7530  207.9310  151.8510 C   0  0  0  0  0  2  0  0  0  0  0  0
  159.6090  213.5460  149.5070 C   0  0  0  0  0  2  0  0  0  0  0  0
  161.6340  210.4250  150.3430 C   0  0  0  0  0  2  0  0  0  0  0  0
  160.6830  210.8780  151.4260 C   0  0  0  0  0  0  0  0  0  0  0  0
  161.0500  213.7950  149.0060 C   0  0  1  0  0  3  0  0  0  0  0  0
  160.0410  212.0080  151.2850 C   0  0  0  0  0  0  0  0  0  0  0  0
  159.5190  213.1500  150.9510 C   0  0  0  0  0  3  0  0  0  0  0  0
  162.0880  212.7110  149.3540 C   0  0  0  0  0  2  0  0  0  0  0  0
  161.6130  211.2850  149.0640 C   0  0  0  0  0  2  0  0  0  0  0  0
  161.0490  214.0390  147.5070 C   0  0  0  0  0  2  0  0  0  0  0  0
  162.7240  213.1150  146.1500 C   0  0  0  0  0  2  0  0  0  0  0  0
  162.5170  214.4290  145.5520 C   0  0  2  0  0  3  0  0  0  0  0  0
  162.4130  214.2530  147.0290 N   0  0  0  0  0  0  0  0  0  0  0  0
  161.1820  214.4530  144.8030 C   0  0  0  0  0  2  0  0  0  0  0  0
  161.1250  213.3190  143.7940 C   0  0  0  0  0  2  0  0  0  0  0  0
  160.2790  212.8110  141.5490 C   0  0  1  0  0  0  0  0  0  0  0  0
  159.4430  214.3800  142.5520 C   0  0  0  0  0  2  0  0  0  0  0  0
  160.7990  213.8410  142.4680 N   0  0  0  0  0  0  0  0  0  0  0  0
  160.3640  211.4420  142.0550 N   0  0  0  0  0  1  0  0  0  0  0  0
  158.8670  213.3360  141.6100 C   0  0  0  0  0  2  0  0  0  0  0  0
  160.8770  212.9390  140.1530 C   0  0  0  0  0  2  0  0  0  0  0  0
  162.2490  213.4130  140.2310 N   0  0  0  0  0  2  0  0  0  0  0  0
  163.0980  212.2880  139.8820 C   0  0  0  0  0  1  0  0  0  0  0  0
  161.0040  204.2100  151.8050 C   0  0  0  0  0  0  0  0  0  0  0  0
  160.2750  203.9060  152.7850 O   0  0  0  0  0  0  0  0  0  0  0  0
  161.4800  203.1120  150.9100 C   0  0  0  0  0  2  0  0  0  0  0  0
  160.7020  203.0960  149.6790 N   0  0  0  0  0  2  0  0  0  0  0  0
  160.6580  201.7190  149.2060 C   0  0  0  0  0  2  0  0  0  0  0  0
  159.6940  201.6970  147.0270 F   0  0  0  0  0  0  0  0  0  0  0  0
  161.6830  202.7260  147.3100 F   0  0  0  0  0  0  0  0  0  0  0  0
  160.8990  201.6570  147.7050 C   0  0  0  0  0  0  0  0  0  0  0  0
  161.5500  200.4780  147.3990 F   0  0  0  0  0  0  0  0  0  0  0  0
  158.5930  212.4140  154.2850 F   0  0  0  0  0  0  0  0  0  0  0  0
  159.0100  211.0950  154.3640 C   0  0  0  0  0  2  0  0  0  0  0  0
  1 12  1  6  0  0  0
  1 11  1  0  0  0  0
  2 35  1  0  0  0  0
  2 10  2  0  0  0  0
  3  7  1  0  0  0  0
  4 45  1  1  0  0  0
  4  5  1  0  0  0  0
  5  6  2  0  0  0  0
  5  9  2  0  0  0  0
  8 15  1  6  0  0  0
  8  1  1  0  0  0  0
  8  4  1  0  0  0  0
 10  3  1  0  0  0  0
 11  7  1  1  0  0  0
 11  5  1  0  0  0  0
 12 10  1  0  0  0  0
 13 18  1  0  0  0  0
 14 15  1  0  0  0  0
 16 21  1  6  0  0  0
 16 19  1  0  0  0  0
 16 13  1  0  0  0  0
 17 15  2  0  0  0  0
 18 17  2  0  0  0  0
 20 19  1  0  0  0  0
 20 14  1  0  0  0  0
 22 24  1  0  0  0  0
 23 25  1  6  0  0  0
 23 22  1  0  0  0  0
 23 24  1  0  0  0  0
 24 21  1  0  0  0  0
 26 25  1  0  0  0  0
 27 31  1  0  0  0  0
 27 30  1  1  0  0  0
 27 29  1  0  0  0  0
 29 28  1  0  0  0  0
 29 26  1  0  0  0  0
 31 28  1  0  0  0  0
 32 33  1  0  0  0  0
 32 27  1  0  0  0  0
 34 33  1  0  0  0  0
 35 36  2  0  0  0  0
 37 35  1  0  0  0  0
 38 37  1  0  0  0  0
 39 38  1  0  0  0  0
 40 42  1  0  0  0  0
 41 42  1  0  0  0  0
 42 39  1  0  0  0  0
 43 42  1  0  0  0  0
 44 45  1  0  0  0  0
M  END
>  <MODEL>
3

>  <REMARK>
 VINA RESULT:      -5.4      1.477      1.888
  Name = 
  14 active torsions:
  status: ('A' for Active; 'I' for Inactive)
    1  A    between atoms: C_3  and  C_36
    2  A    between atoms: N_4  and  C_12
    3  A    between atoms: C_10  and  C_34
    4  A    between atoms: C_12  and  C_38
    5  A    between atoms: N_13  and  C_22
    6  A    between atoms: N_13  and  C_38
    7  A    between atoms: C_14  and  C_19
    8  A    between atoms: C_14  and  N_42
    9  A    between atoms: N_15  and  C_20
   10  A    between atoms: C_17  and  C_22
   11  A    between atoms: C_18  and  C_30
   12  A    between atoms: C_20  and  C_23
   13  A    between atoms: C_23  and  C_39
   14  A    between atoms: N_25  and  C_36
                            x       y       z     vdW  Elec       q    Type
                         _______ _______ _______ _____ _____    ______ ____

>  <TORSDO>
F 14

$$$$
=
 OpenBabel11042421393D

 45 49  0  0  1  0  0  0  0  0999 V2000
  159.3470  211.5090  152.6140 C   0  0  1  0  0  3  0  0  0  0  0  0
  160.7520  212.8170  149.3850 N   0  0  0  0  0  0  0  0  0  0  0  0
  160.0330  214.0890  151.3600 C   0  0  0  0  0  2  0  0  0  0  0  0
  159.9470  211.2540  155.0150 C   0  0  1  0  0  3  0  0  0  0  0  0
  158.8010  212.5850  154.8030 S   0  0  0  0  0  0  0  0  0  0  0  0
  157.4190  212.1480  155.1990 O   0  0  0  0  0  0  0  0  0  0  0  0
  159.9250  213.8120  152.8450 C   0  0  0  0  0  2  0  0  0  0  0  0
  160.3580  210.8790  153.5950 C   0  0  1  0  0  3  0  0  0  0  0  0
  159.1900  213.8250  155.5670 O   0  0  0  0  0  0  0  0  0  0  0  0
  160.2400  212.8190  150.5830 C   0  0  0  0  0  0  0  0  0  0  0  0
  158.8830  212.8200  153.0950 N   0  0  1  0  0  0  0  0  0  0  0  0
  159.8220  211.4900  151.1500 C   0  0  0  0  0  2  0  0  0  0  0  0
  160.8440  206.6530  151.3560 C   0  0  0  0  0  2  0  0  0  0  0  0
  160.1870  208.5020  154.6260 C   0  0  0  0  0  2  0  0  0  0  0  0
  160.4470  209.3900  153.4320 C   0  0  0  0  0  0  0  0  0  0  0  0
  161.6070  205.8940  152.4650 C   0  0  1  0  0  3  0  0  0  0  0  0
  160.8080  208.8500  152.2970 C   0  0  0  0  0  0  0  0  0  0  0  0
  161.1600  208.1170  151.2830 C   0  0  0  0  0  3  0  0  0  0  0  0
  161.5940  206.5390  153.8650 C   0  0  0  0  0  2  0  0  0  0  0  0
  160.2050  206.9910  154.3230 C   0  0  0  0  0  2  0  0  0  0  0  0
  161.1090  204.4620  152.5590 C   0  0  0  0  0  2  0  0  0  0  0  0
  161.3640  202.3170  151.6450 C   0  0  0  0  0  2  0  0  0  0  0  0
  161.8340  203.1810  150.5680 C   0  0  2  0  0  3  0  0  0  0  0  0
  162.0950  203.5460  151.9900 N   0  0  0  0  0  0  0  0  0  0  0  0
  160.6440  203.8950  149.9200 C   0  0  0  0  0  2  0  0  0  0  0  0
  161.1320  204.9800  148.9760 C   0  0  0  0  0  2  0  0  0  0  0  0
  161.4200  205.5270  146.6030 C   0  0  1  0  0  0  0  0  0  0  0  0
  161.7370  203.5950  147.1820 C   0  0  0  0  0  2  0  0  0  0  0  0
  160.7950  204.6340  147.5950 N   0  0  0  0  0  0  0  0  0  0  0  0
  162.0940  206.6940  147.1700 N   0  0  0  0  0  1  0  0  0  0  0  0
  162.4090  204.4840  146.1490 C   0  0  0  0  0  2  0  0  0  0  0  0
  160.4490  205.9150  145.4940 C   0  0  0  0  0  2  0  0  0  0  0  0
  160.6110  205.0350  144.3480 N   0  0  0  0  0  2  0  0  0  0  0  0
  161.4470  205.7430  143.3950 C   0  0  0  0  0  1  0  0  0  0  0  0
  161.1780  213.9320  148.5800 C   0  0  0  0  0  0  0  0  0  0  0  0
  162.3000  214.4510  148.8150 O   0  0  0  0  0  0  0  0  0  0  0  0
  160.3850  214.4530  147.4260 C   0  0  0  0  0  2  0  0  0  0  0  0
  160.3120  213.4500  146.3730 N   0  0  0  0  0  2  0  0  0  0  0  0
  160.1020  214.1500  145.1140 C   0  0  0  0  0  2  0  0  0  0  0  0
  160.5800  212.0080  144.1850 F   0  0  0  0  0  0  0  0  0  0  0  0
  158.4990  212.8460  143.9360 F   0  0  0  0  0  0  0  0  0  0  0  0
  159.8450  213.1620  143.9850 C   0  0  0  0  0  0  0  0  0  0  0  0
  160.2210  213.7360  142.7860 F   0  0  0  0  0  0  0  0  0  0  0  0
  160.9740  211.3640  157.1850 F   0  0  0  0  0  0  0  0  0  0  0  0
  161.1600  211.6600  155.8440 C   0  0  0  0  0  2  0  0  0  0  0  0
  1 12  1  6  0  0  0
  1 11  1  0  0  0  0
  1  8  1  0  0  0  0
  2 10  2  0  0  0  0
  3  7  1  0  0  0  0
  4 45  1  1  0  0  0
  5  4  1  0  0  0  0
  5  6  2  0  0  0  0
  5  9  2  0  0  0  0
  8 15  1  1  0  0  0
  8  4  1  0  0  0  0
 10 12  1  0  0  0  0
 10  3  1  0  0  0  0
 11  7  1  1  0  0  0
 11  5  1  0  0  0  0
 13 16  1  0  0  0  0
 15 14  1  0  0  0  0
 16 21  1  1  0  0  0
 16 19  1  0  0  0  0
 17 15  2  0  0  0  0
 18 13  1  0  0  0  0
 18 17  2  0  0  0  0
 19 20  1  0  0  0  0
 20 14  1  0  0  0  0
 22 24  1  0  0  0  0
 23 25  1  1  0  0  0
 23 22  1  0  0  0  0
 23 24  1  0  0  0  0
 24 21  1  0  0  0  0
 26 25  1  0  0  0  0
 27 30  1  1  0  0  0
 27 29  1  0  0  0  0
 28 29  1  0  0  0  0
 29 26  1  0  0  0  0
 31 27  1  0  0  0  0
 31 28  1  0  0  0  0
 32 27  1  0  0  0  0
 33 32  1  0  0  0  0
 34 33  1  0  0  0  0
 35 36  2  0  0  0  0
 35  2  1  0  0  0  0
 37 35  1  0  0  0  0
 38 37  1  0  0  0  0
 39 38  1  0  0  0  0
 41 42  1  0  0  0  0
 42 40  1  0  0  0  0
 42 39  1  0  0  0  0
 43 42  1  0  0  0  0
 45 44  1  0  0  0  0
M  END
>  <MODEL>
4

>  <REMARK>
 VINA RESULT:      -4.8      3.974      8.459
  Name = 
  14 active torsions:
  status: ('A' for Active; 'I' for Inactive)
    1  A    between atoms: C_3  and  C_36
    2  A    between atoms: N_4  and  C_12
    3  A    between atoms: C_10  and  C_34
    4  A    between atoms: C_12  and  C_38
    5  A    between atoms: N_13  and  C_22
    6  A    between atoms: N_13  and  C_38
    7  A    between atoms: C_14  and  C_19
    8  A    between atoms: C_14  and  N_42
    9  A    between atoms: N_15  and  C_20
   10  A    between atoms: C_17  and  C_22
   11  A    between atoms: C_18  and  C_30
   12  A    between atoms: C_20  and  C_23
   13  A    between atoms: C_23  and  C_39
   14  A    between atoms: N_25  and  C_36
                            x       y       z     vdW  Elec       q    Type
                         _______ _______ _______ _____ _____    ______ ____

>  <TORSDO>
F 14

$$$$
=
 OpenBabel11042421393D

 45 49  0  0  1  0  0  0  0  0999 V2000
  160.1040  211.0360  151.3210 C   0  0  1  0  0  3  0  0  0  0  0  0
  161.9990  212.6710  148.5190 N   0  0  0  0  0  0  0  0  0  0  0  0
  160.7440  213.7420  150.3400 C   0  0  0  0  0  2  0  0  0  0  0  0
  160.2130  210.6990  153.7840 C   0  0  1  0  0  3  0  0  0  0  0  0
  158.9960  211.9180  153.3800 S   0  0  0  0  0  0  0  0  0  0  0  0
  157.6180  211.3200  153.4540 O   0  0  0  0  0  0  0  0  0  0  0  0
  160.3590  213.3680  151.7560 C   0  0  0  0  0  2  0  0  0  0  0  0
  160.9510  210.4540  152.4710 C   0  0  1  0  0  3  0  0  0  0  0  0
  159.0740  213.1420  154.2550 O   0  0  0  0  0  0  0  0  0  0  0  0
  161.2500  212.5490  149.5780 C   0  0  0  0  0  0  0  0  0  0  0  0
  159.4060  212.2620  151.7390 N   0  0  1  0  0  0  0  0  0  0  0  0
  160.8740  211.1530  149.9930 C   0  0  0  0  0  2  0  0  0  0  0  0
  161.5570  205.8280  153.6310 C   0  0  0  0  0  2  0  0  0  0  0  0
  161.7020  208.5090  150.9220 C   0  0  0  0  0  2  0  0  0  0  0  0
  161.2390  208.9940  152.2760 C   0  0  0  0  0  0  0  0  0  0  0  0
  160.9980  205.1930  152.3370 C   0  0  1  0  0  3  0  0  0  0  0  0
  161.0340  208.1260  153.2330 C   0  0  0  0  0  0  0  0  0  0  0  0
  160.8870  207.1090  154.0280 C   0  0  0  0  0  3  0  0  0  0  0  0
  160.8370  206.1380  151.1300 C   0  0  0  0  0  2  0  0  0  0  0  0
  162.0650  207.0130  150.8620 C   0  0  0  0  0  2  0  0  0  0  0  0
  161.8370  203.9920  151.9360 C   0  0  0  0  0  2  0  0  0  0  0  0
  159.9270  202.8690  151.1690 C   0  0  0  0  0  2  0  0  0  0  0  0
  160.9970  201.9270  150.8600 C   0  0  2  0  0  3  0  0  0  0  0  0
  161.0660  202.7620  152.0940 N   0  0  0  0  0  0  0  0  0  0  0  0
  161.8180  202.4460  149.6760 C   0  0  0  0  0  2  0  0  0  0  0  0
  160.9090  203.1170  148.6610 C   0  0  0  0  0  2  0  0  0  0  0  0
  161.4710  204.2610  146.5660 C   0  0  1  0  0  0  0  0  0  0  0  0
  160.6810  205.3780  148.0800 C   0  0  0  0  0  2  0  0  0  0  0  0
  161.6010  204.2430  148.0340 N   0  0  0  0  0  0  0  0  0  0  0  0
  160.8510  203.0670  145.9930 N   0  0  0  0  0  1  0  0  0  0  0  0
  160.5190  205.4290  146.5700 C   0  0  0  0  0  2  0  0  0  0  0  0
  162.7900  204.6000  145.8810 C   0  0  0  0  0  2  0  0  0  0  0  0
  162.6110  205.7120  144.9610 N   0  0  0  0  0  2  0  0  0  0  0  0
  161.6240  205.2900  143.9840 C   0  0  0  0  0  1  0  0  0  0  0  0
  162.4560  213.8700  147.8670 C   0  0  0  0  0  0  0  0  0  0  0  0
  163.4750  214.4530  148.3210 O   0  0  0  0  0  0  0  0  0  0  0  0
  161.8250  214.4130  146.6250 C   0  0  0  0  0  2  0  0  0  0  0  0
  162.2330  213.6270  145.4700 N   0  0  0  0  0  2  0  0  0  0  0  0
  161.6460  214.2450  144.2900 C   0  0  0  0  0  2  0  0  0  0  0  0
  163.5010  214.0830  142.8030 F   0  0  0  0  0  0  0  0  0  0  0  0
  162.2270  212.2500  143.1320 F   0  0  0  0  0  0  0  0  0  0  0  0
  162.2130  213.6280  143.0190 C   0  0  0  0  0  0  0  0  0  0  0  0
  161.4210  213.9890  141.9470 F   0  0  0  0  0  0  0  0  0  0  0  0
  162.3600  210.4610  154.8370 F   0  0  0  0  0  0  0  0  0  0  0  0
  161.1730  211.1750  154.8670 C   0  0  0  0  0  2  0  0  0  0  0  0
  1 12  1  6  0  0  0
  1 11  1  0  0  0  0
  1  8  1  0  0  0  0
  2 10  2  0  0  0  0
  3  7  1  0  0  0  0
  4 45  1  1  0  0  0
  5  6  2  0  0  0  0
  5  4  1  0  0  0  0
  5  9  2  0  0  0  0
  8 15  1  6  0  0  0
  8  4  1  0  0  0  0
 10 12  1  0  0  0  0
 10  3  1  0  0  0  0
 11  7  1  1  0  0  0
 11  5  1  0  0  0  0
 13 18  1  0  0  0  0
 14 15  1  0  0  0  0
 15 17  2  0  0  0  0
 16 21  1  6  0  0  0
 16 13  1  0  0  0  0
 17 18  2  0  0  0  0
 19 16  1  0  0  0  0
 20 14  1  0  0  0  0
 20 19  1  0  0  0  0
 21 24  1  0  0  0  0
 22 24  1  0  0  0  0
 23 25  1  6  0  0  0
 23 22  1  0  0  0  0
 23 24  1  0  0  0  0
 26 25  1  0  0  0  0
 27 30  1  6  0  0  0
 27 31  1  0  0  0  0
 27 29  1  0  0  0  0
 29 28  1  0  0  0  0
 29 26  1  0  0  0  0
 31 28  1  0  0  0  0
 32 27  1  0  0  0  0
 33 32  1  0  0  0  0
 34 33  1  0  0  0  0
 35 36  2  0  0  0  0
 35  2  1  0  0  0  0
 37 35  1  0  0  0  0
 38 37  1  0  0  0  0
 39 38  1  0  0  0  0
 40 42  1  0  0  0  0
 42 41  1  0  0  0  0
 42 39  1  0  0  0  0
 43 42  1  0  0  0  0
 44 45  1  0  0  0  0
M  END
>  <MODEL>
5

>  <REMARK>
 VINA RESULT:      -4.4      3.560      8.726
  Name = 
  14 active torsions:
  status: ('A' for Active; 'I' for Inactive)
    1  A    between atoms: C_3  and  C_36
    2  A    between atoms: N_4  and  C_12
    3  A    between atoms: C_10  and  C_34
    4  A    between atoms: C_12  and  C_38
    5  A    between atoms: N_13  and  C_22
    6  A    between atoms: N_13  and  C_38
    7  A    between atoms: C_14  and  C_19
    8  A    between atoms: C_14  and  N_42
    9  A    between atoms: N_15  and  C_20
   10  A    between atoms: C_17  and  C_22
   11  A    between atoms: C_18  and  C_30
   12  A    between atoms: C_20  and  C_23
   13  A    between atoms: C_23  and  C_39
   14  A    between atoms: N_25  and  C_36
                            x       y       z     vdW  Elec       q    Type
                         _______ _______ _______ _____ _____    ______ ____

>  <TORSDO>
F 14

$$$$
=
 OpenBabel11042421393D

 45 49  0  0  1  0  0  0  0  0999 V2000
  159.9600  210.8780  151.8460 C   0  0  1  0  0  3  0  0  0  0  0  0
  161.2000  212.5970  148.7440 N   0  0  0  0  0  0  0  0  0  0  0  0
  160.2610  213.6090  150.7760 C   0  0  0  0  0  2  0  0  0  0  0  0
  160.5530  210.5580  154.2410 C   0  0  1  0  0  3  0  0  0  0  0  0
  159.2200  211.7100  154.0830 S   0  0  0  0  0  0  0  0  0  0  0  0
  157.9150  211.0420  154.4140 O   0  0  0  0  0  0  0  0  0  0  0  0
  160.1730  213.2220  152.2370 C   0  0  0  0  0  2  0  0  0  0  0  0
  161.0400  210.3460  152.8110 C   0  0  1  0  0  3  0  0  0  0  0  0
  159.4000  212.9400  154.9340 O   0  0  0  0  0  0  0  0  0  0  0  0
  160.6740  212.4410  149.9250 C   0  0  0  0  0  0  0  0  0  0  0  0
  159.2920  212.0680  152.3960 N   0  0  1  0  0  0  0  0  0  0  0  0
  160.4560  211.0290  150.3970 C   0  0  0  0  0  2  0  0  0  0  0  0
  161.3740  205.6270  153.6690 C   0  0  0  0  0  2  0  0  0  0  0  0
  162.1020  208.5220  151.2960 C   0  0  0  0  0  2  0  0  0  0  0  0
  161.3600  208.9010  152.5560 C   0  0  0  0  0  0  0  0  0  0  0  0
  161.1050  205.1150  152.2360 C   0  0  1  0  0  3  0  0  0  0  0  0
  160.9530  207.9600  153.3690 C   0  0  0  0  0  0  0  0  0  0  0  0
  160.6360  206.8840  154.0230 C   0  0  0  0  0  3  0  0  0  0  0  0
  161.2080  206.1610  151.1090 C   0  0  0  0  0  2  0  0  0  0  0  0
  162.4660  207.0290  151.1860 C   0  0  0  0  0  2  0  0  0  0  0  0
  162.0080  203.9350  151.9220 C   0  0  0  0  0  2  0  0  0  0  0  0
  160.0830  202.8750  151.1010 C   0  0  0  0  0  2  0  0  0  0  0  0
  161.1510  201.9770  150.6720 C   0  0  2  0  0  3  0  0  0  0  0  0
  161.2480  202.6880  151.9790 N   0  0  0  0  0  0  0  0  0  0  0  0
  161.9340  202.6160  149.5230 C   0  0  0  0  0  2  0  0  0  0  0  0
  160.9790  203.2190  148.5070 C   0  0  0  0  0  2  0  0  0  0  0  0
  161.0830  204.2470  146.2830 C   0  0  1  0  0  0  0  0  0  0  0  0
  161.2150  205.4750  147.9080 C   0  0  0  0  0  2  0  0  0  0  0  0
  161.7010  204.1270  147.6160 N   0  0  0  0  0  0  0  0  0  0  0  0
  159.9920  203.3070  146.0280 N   0  0  0  0  0  1  0  0  0  0  0  0
  160.5630  205.6380  146.5460 C   0  0  0  0  0  2  0  0  0  0  0  0
  162.1230  204.2260  145.1690 C   0  0  0  0  0  2  0  0  0  0  0  0
  162.2880  205.5560  144.6050 N   0  0  0  0  0  2  0  0  0  0  0  0
  161.4100  205.6310  143.4510 C   0  0  0  0  0  1  0  0  0  0  0  0
  161.4630  213.8150  148.0230 C   0  0  0  0  0  0  0  0  0  0  0  0
  162.6050  214.3340  148.1130 O   0  0  0  0  0  0  0  0  0  0  0  0
  160.4660  214.4510  147.1080 C   0  0  0  0  0  2  0  0  0  0  0  0
  159.2810  213.6120  146.9960 N   0  0  0  0  0  2  0  0  0  0  0  0
  158.3150  214.0860  147.9770 C   0  0  0  0  0  2  0  0  0  0  0  0
  157.2370  212.2150  148.9850 F   0  0  0  0  0  0  0  0  0  0  0  0
  155.9590  213.9320  148.2710 F   0  0  0  0  0  0  0  0  0  0  0  0
  157.0910  213.1820  148.0070 C   0  0  0  0  0  0  0  0  0  0  0  0
  156.9520  212.5650  146.7800 F   0  0  0  0  0  0  0  0  0  0  0  0
  162.8850  210.4840  154.8180 F   0  0  0  0  0  0  0  0  0  0  0  0
  161.6750  211.0880  155.1250 C   0  0  0  0  0  2  0  0  0  0  0  0
  1 12  1  6  0  0  0
  1 11  1  0  0  0  0
  1  8  1  0  0  0  0
  2 10  2  0  0  0  0
  3  7  1  0  0  0  0
  4 45  1  1  0  0  0
  5  4  1  0  0  0  0
  5  6  2  0  0  0  0
  5  9  2  0  0  0  0
  8 15  1  6  0  0  0
  8  4  1  0  0  0  0
 10 12  1  0  0  0  0
 10  3  1  0  0  0  0
 11  7  1  1  0  0  0
 11  5  1  0  0  0  0
 13 18  1  0  0  0  0
 14 15  1  0  0  0  0
 15 17  2  0  0  0  0
 16 21  1  6  0  0  0
 16 13  1  0  0  0  0
 17 18  2  0  0  0  0
 19 20  1  0  0  0  0
 19 16  1  0  0  0  0
 20 14  1  0  0  0  0
 21 24  1  0  0  0  0
 22 24  1  0  0  0  0
 23 25  1  6  0  0  0
 23 22  1  0  0  0  0
 23 24  1  0  0  0  0
 26 25  1  0  0  0  0
 27 30  1  6  0  0  0
 27 31  1  0  0  0  0
 27 29  1  0  0  0  0
 29 28  1  0  0  0  0
 29 26  1  0  0  0  0
 31 28  1  0  0  0  0
 32 27  1  0  0  0  0
 33 32  1  0  0  0  0
 34 33  1  0  0  0  0
 35 36  2  0  0  0  0
 35  2  1  0  0  0  0
 37 35  1  0  0  0  0
 38 37  1  0  0  0  0
 38 39  1  0  0  0  0
 39 42  1  0  0  0  0
 42 41  1  0  0  0  0
 42 40  1  0  0  0  0
 43 42  1  0  0  0  0
 44 45  1  0  0  0  0
M  END
>  <MODEL>
6

>  <REMARK>
 VINA RESULT:      -4.4      4.438      8.632
  Name = 
  14 active torsions:
  status: ('A' for Active; 'I' for Inactive)
    1  A    between atoms: C_3  and  C_36
    2  A    between atoms: N_4  and  C_12
    3  A    between atoms: C_10  and  C_34
    4  A    between atoms: C_12  and  C_38
    5  A    between atoms: N_13  and  C_22
    6  A    between atoms: N_13  and  C_38
    7  A    between atoms: C_14  and  C_19
    8  A    between atoms: C_14  and  N_42
    9  A    between atoms: N_15  and  C_20
   10  A    between atoms: C_17  and  C_22
   11  A    between atoms: C_18  and  C_30
   12  A    between atoms: C_20  and  C_23
   13  A    between atoms: C_23  and  C_39
   14  A    between atoms: N_25  and  C_36
                            x       y       z     vdW  Elec       q    Type
                         _______ _______ _______ _____ _____    ______ ____

>  <TORSDO>
F 14

$$$$
=
 OpenBabel11042421393D

 45 49  0  0  1  0  0  0  0  0999 V2000
  162.3020  209.3420  150.2740 C   0  0  1  0  0  3  0  0  0  0  0  0
  161.1830  205.9790  149.0260 N   0  0  0  0  0  0  0  0  0  0  0  0
  161.4760  206.7230  151.3490 C   0  0  0  0  0  2  0  0  0  0  0  0
  161.4270  211.3480  151.4570 C   0  0  1  0  0  3  0  0  0  0  0  0
  162.4190  210.3710  152.5480 S   0  0  0  0  0  0  0  0  0  0  0  0
  163.7810  210.9870  152.7050 O   0  0  0  0  0  0  0  0  0  0  0  0
  161.4210  208.0510  152.0760 C   0  0  0  0  0  2  0  0  0  0  0  0
  161.2560  210.4740  150.2180 C   0  0  1  0  0  3  0  0  0  0  0  0
  161.7850  210.1690  153.9000 O   0  0  0  0  0  0  0  0  0  0  0  0
  161.5290  206.9180  149.8600 C   0  0  0  0  0  0  0  0  0  0  0  0
  162.5340  208.8970  151.6560 N   0  0  1  0  0  0  0  0  0  0  0  0
  162.0290  208.2080  149.2680 C   0  0  0  0  0  2  0  0  0  0  0  0
  159.8350  213.1180  146.4630 C   0  0  0  0  0  2  0  0  0  0  0  0
  162.7150  211.4020  148.2810 C   0  0  0  0  0  2  0  0  0  0  0  0
  161.3720  211.2880  148.9620 C   0  0  0  0  0  0  0  0  0  0  0  0
  161.0510  214.0680  146.3790 C   0  0  1  0  0  3  0  0  0  0  0  0
  160.3500  211.9500  148.4830 C   0  0  0  0  0  0  0  0  0  0  0  0
  159.4850  212.6870  147.8560 C   0  0  0  0  0  3  0  0  0  0  0  0
  162.3060  213.6380  147.1640 C   0  0  0  0  0  2  0  0  0  0  0  0
  162.6990  212.1740  146.9470 C   0  0  0  0  0  2  0  0  0  0  0  0
  161.4200  214.3230  144.9280 C   0  0  0  0  0  2  0  0  0  0  0  0
  160.6910  214.4510  142.7020 C   0  0  0  0  0  2  0  0  0  0  0  0
  160.4410  213.0540  143.0410 C   0  0  2  0  0  3  0  0  0  0  0  0
  160.2570  214.1190  144.0680 N   0  0  0  0  0  0  0  0  0  0  0  0
  161.7680  212.2950  143.1200 C   0  0  0  0  0  2  0  0  0  0  0  0
  162.5200  212.4130  141.8060 C   0  0  0  0  0  2  0  0  0  0  0  0
  161.7050  211.8910  139.5530 C   0  0  1  0  0  0  0  0  0  0  0  0
  163.2880  210.8170  140.2670 C   0  0  0  0  0  2  0  0  0  0  0  0
  162.0810  211.3690  140.8800 N   0  0  0  0  0  0  0  0  0  0  0  0
  161.6540  213.3490  139.4610 N   0  0  0  0  0  1  0  0  0  0  0  0
  162.9380  211.3380  138.8840 C   0  0  0  0  0  2  0  0  0  0  0  0
  160.4300  211.2430  139.0260 C   0  0  0  0  0  2  0  0  0  0  0  0
  159.3130  212.1680  139.1270 N   0  0  0  0  0  2  0  0  0  0  0  0
  158.2720  211.6600  138.2510 C   0  0  0  0  0  1  0  0  0  0  0  0
  160.7330  204.6410  149.3060 C   0  0  0  0  0  0  0  0  0  0  0  0
  159.9600  204.4550  150.2810 O   0  0  0  0  0  0  0  0  0  0  0  0
  161.0760  203.4700  148.4430 C   0  0  0  0  0  2  0  0  0  0  0  0
  162.1670  203.8130  147.5420 N   0  0  0  0  0  2  0  0  0  0  0  0
  161.6200  203.8720  146.1940 C   0  0  0  0  0  2  0  0  0  0  0  0
  162.2480  206.1410  146.5580 F   0  0  0  0  0  0  0  0  0  0  0  0
  162.0820  205.4020  144.4320 F   0  0  0  0  0  0  0  0  0  0  0  0
  161.5460  205.3100  145.7040 C   0  0  0  0  0  0  0  0  0  0  0  0
  160.2250  205.7110  145.6700 F   0  0  0  0  0  0  0  0  0  0  0  0
  159.7650  213.0380  151.8530 F   0  0  0  0  0  0  0  0  0  0  0  0
  160.0760  211.7030  152.0650 C   0  0  0  0  0  2  0  0  0  0  0  0
  1 12  1  6  0  0  0
  1 11  1  0  0  0  0
  2 35  1  0  0  0  0
  2 10  2  0  0  0  0
  3  7  1  0  0  0  0
  4 45  1  1  0  0  0
  4  5  1  0  0  0  0
  5  6  2  0  0  0  0
  5  9  2  0  0  0  0
  8 15  1  6  0  0  0
  8  1  1  0  0  0  0
  8  4  1  0  0  0  0
 10  3  1  0  0  0  0
 11  7  1  1  0  0  0
 11  5  1  0  0  0  0
 12 10  1  0  0  0  0
 13 18  1  0  0  0  0
 14 15  1  0  0  0  0
 16 21  1  6  0  0  0
 16 13  1  0  0  0  0
 16 19  1  0  0  0  0
 17 15  2  0  0  0  0
 18 17  2  0  0  0  0
 20 19  1  0  0  0  0
 20 14  1  0  0  0  0
 22 23  1  0  0  0  0
 22 24  1  0  0  0  0
 23 25  1  1  0  0  0
 23 24  1  0  0  0  0
 24 21  1  0  0  0  0
 26 25  1  0  0  0  0
 27 30  1  6  0  0  0
 27 29  1  0  0  0  0
 28 29  1  0  0  0  0
 29 26  1  0  0  0  0
 31 27  1  0  0  0  0
 31 28  1  0  0  0  0
 32 33  1  0  0  0  0
 32 27  1  0  0  0  0
 34 33  1  0  0  0  0
 35 36  2  0  0  0  0
 37 35  1  0  0  0  0
 38 37  1  0  0  0  0
 39 38  1  0  0  0  0
 41 42  1  0  0  0  0
 42 39  1  0  0  0  0
 42 40  1  0  0  0  0
 43 42  1  0  0  0  0
 44 45  1  0  0  0  0
M  END
>  <MODEL>
7

>  <REMARK>
 VINA RESULT:      -4.0      1.750      2.328
  Name = 
  14 active torsions:
  status: ('A' for Active; 'I' for Inactive)
    1  A    between atoms: C_3  and  C_36
    2  A    between atoms: N_4  and  C_12
    3  A    between atoms: C_10  and  C_34
    4  A    between atoms: C_12  and  C_38
    5  A    between atoms: N_13  and  C_22
    6  A    between atoms: N_13  and  C_38
    7  A    between atoms: C_14  and  C_19
    8  A    between atoms: C_14  and  N_42
    9  A    between atoms: N_15  and  C_20
   10  A    between atoms: C_17  and  C_22
   11  A    between atoms: C_18  and  C_30
   12  A    between atoms: C_20  and  C_23
   13  A    between atoms: C_23  and  C_39
   14  A    between atoms: N_25  and  C_36
                            x       y       z     vdW  Elec       q    Type
                         _______ _______ _______ _____ _____    ______ ____

>  <TORSDO>
F 14

$$$$
=
 OpenBabel11042421393D

 45 49  0  0  1  0  0  0  0  0999 V2000
  161.8740  203.5810  147.8000 C   0  0  1  0  0  3  0  0  0  0  0  0
  161.7250  205.6670  144.6800 N   0  0  0  0  0  0  0  0  0  0  0  0
  161.4590  203.2350  144.9010 C   0  0  0  0  0  2  0  0  0  0  0  0
  160.4050  202.2390  149.2950 C   0  0  1  0  0  3  0  0  0  0  0  0
  161.3860  201.1760  148.2760 S   0  0  0  0  0  0  0  0  0  0  0  0
  162.5380  200.6200  149.0640 O   0  0  0  0  0  0  0  0  0  0  0  0
  161.0000  202.2910  145.9940 C   0  0  0  0  0  2  0  0  0  0  0  0
  160.6340  203.6330  148.7170 C   0  0  1  0  0  3  0  0  0  0  0  0
  160.5920  200.0540  147.6590 O   0  0  0  0  0  0  0  0  0  0  0  0
  161.7180  204.6130  145.4440 C   0  0  0  0  0  0  0  0  0  0  0  0
  161.9610  202.2940  147.0930 N   0  0  1  0  0  0  0  0  0  0  0  0
  162.0220  204.8220  146.9020 C   0  0  0  0  0  2  0  0  0  0  0  0
  160.9940  205.3760  153.1830 C   0  0  0  0  0  2  0  0  0  0  0  0
  160.7750  206.1210  149.4490 C   0  0  0  0  0  2  0  0  0  0  0  0
  160.7830  204.6530  149.8080 C   0  0  0  0  0  0  0  0  0  0  0  0
  161.9720  206.5380  152.8960 C   0  0  1  0  0  3  0  0  0  0  0  0
  160.9840  204.2970  151.0510 C   0  0  0  0  0  0  0  0  0  0  0  0
  161.2070  204.1660  152.3230 C   0  0  0  0  0  3  0  0  0  0  0  0
  162.1500  206.9280  151.4160 C   0  0  0  0  0  2  0  0  0  0  0  0
  160.8310  207.0800  150.6540 C   0  0  0  0  0  2  0  0  0  0  0  0
  161.5810  207.7640  153.7030 C   0  0  0  0  0  2  0  0  0  0  0  0
  161.4160  208.0420  156.0260 C   0  0  0  0  0  2  0  0  0  0  0  0
  160.1170  208.5080  155.5550 C   0  0  2  0  0  3  0  0  0  0  0  0
  160.7980  207.3720  154.8720 N   0  0  0  0  0  0  0  0  0  0  0  0
  160.2720  209.8680  154.8690 C   0  0  0  0  0  2  0  0  0  0  0  0
  159.2260  210.8410  155.3880 C   0  0  0  0  0  2  0  0  0  0  0  0
  157.9180  212.5950  154.2800 C   0  0  1  0  0  0  0  0  0  0  0  0
  159.3950  213.1730  155.5660 C   0  0  0  0  0  2  0  0  0  0  0  0
  159.2600  212.0780  154.6080 N   0  0  0  0  0  0  0  0  0  0  0  0
  156.8170  211.6950  154.6190 N   0  0  0  0  0  1  0  0  0  0  0  0
  158.0180  213.7380  155.2590 C   0  0  0  0  0  2  0  0  0  0  0  0
  157.8320  213.0820  152.8390 C   0  0  0  0  0  2  0  0  0  0  0  0
  158.9470  212.5660  152.0610 N   0  0  0  0  0  2  0  0  0  0  0  0
  159.5330  213.7010  151.3710 C   0  0  0  0  0  1  0  0  0  0  0  0
  161.5310  205.7550  143.2560 C   0  0  0  0  0  0  0  0  0  0  0  0
  160.5680  205.1320  142.7380 O   0  0  0  0  0  0  0  0  0  0  0  0
  162.3730  206.6180  142.3710 C   0  0  0  0  0  2  0  0  0  0  0  0
  161.9330  206.4990  140.9890 N   0  0  0  0  0  2  0  0  0  0  0  0
  162.0220  207.8200  140.3850 C   0  0  0  0  0  2  0  0  0  0  0  0
  160.2820  207.9830  138.7650 F   0  0  0  0  0  0  0  0  0  0  0  0
  162.3360  208.7350  138.2120 F   0  0  0  0  0  0  0  0  0  0  0  0
  161.6400  207.7670  138.9130 C   0  0  0  0  0  0  0  0  0  0  0  0
  161.9570  206.5220  138.4060 F   0  0  0  0  0  0  0  0  0  0  0  0
  158.7060  200.6230  149.8190 F   0  0  0  0  0  0  0  0  0  0  0  0
  158.9270  201.8720  149.2610 C   0  0  0  0  0  2  0  0  0  0  0  0
  1 12  1  6  0  0  0
  1  8  1  0  0  0  0
  2 10  2  0  0  0  0
  3 10  1  0  0  0  0
  3  7  1  0  0  0  0
  4 45  1  6  0  0  0
  5  6  2  0  0  0  0
  5  4  1  0  0  0  0
  8  4  1  0  0  0  0
  8 15  1  1  0  0  0
  9  5  2  0  0  0  0
 10 12  1  0  0  0  0
 11  7  1  6  0  0  0
 11  1  1  0  0  0  0
 11  5  1  0  0  0  0
 14 15  1  0  0  0  0
 14 20  1  0  0  0  0
 15 17  2  0  0  0  0
 16 13  1  0  0  0  0
 16 21  1  1  0  0  0
 17 18  2  0  0  0  0
 18 13  1  0  0  0  0
 19 16  1  0  0  0  0
 20 19  1  0  0  0  0
 21 24  1  0  0  0  0
 23 25  1  6  0  0  0
 23 22  1  0  0  0  0
 24 23  1  0  0  0  0
 24 22  1  0  0  0  0
 25 26  1  0  0  0  0
 27 29  1  0  0  0  0
 27 30  1  1  0  0  0
 27 31  1  0  0  0  0
 29 26  1  0  0  0  0
 29 28  1  0  0  0  0
 31 28  1  0  0  0  0
 32 27  1  0  0  0  0
 33 32  1  0  0  0  0
 34 33  1  0  0  0  0
 35  2  1  0  0  0  0
 36 35  2  0  0  0  0
 37 35  1  0  0  0  0
 38 37  1  0  0  0  0
 39 38  1  0  0  0  0
 40 42  1  0  0  0  0
 41 42  1  0  0  0  0
 42 39  1  0  0  0  0
 43 42  1  0  0  0  0
 45 44  1  0  0  0  0
M  END
>  <MODEL>
8

>  <REMARK>
 VINA RESULT:      -4.0      5.361     10.309
  Name = 
  14 active torsions:
  status: ('A' for Active; 'I' for Inactive)
    1  A    between atoms: C_3  and  C_36
    2  A    between atoms: N_4  and  C_12
    3  A    between atoms: C_10  and  C_34
    4  A    between atoms: C_12  and  C_38
    5  A    between atoms: N_13  and  C_22
    6  A    between atoms: N_13  and  C_38
    7  A    between atoms: C_14  and  C_19
    8  A    between atoms: C_14  and  N_42
    9  A    between atoms: N_15  and  C_20
   10  A    between atoms: C_17  and  C_22
   11  A    between atoms: C_18  and  C_30
   12  A    between atoms: C_20  and  C_23
   13  A    between atoms: C_23  and  C_39
   14  A    between atoms: N_25  and  C_36
                            x       y       z     vdW  Elec       q    Type
                         _______ _______ _______ _____ _____    ______ ____

>  <TORSDO>
F 14

$$$$
=
 OpenBabel11042421393D

 45 49  0  0  1  0  0  0  0  0999 V2000
  161.9180  203.7730  148.1240 C   0  0  1  0  0  3  0  0  0  0  0  0
  161.6390  205.6150  144.8620 N   0  0  0  0  0  0  0  0  0  0  0  0
  161.4670  203.1980  145.2670 C   0  0  0  0  0  2  0  0  0  0  0  0
  160.5250  202.4940  149.7410 C   0  0  1  0  0  3  0  0  0  0  0  0
  161.5280  201.3940  148.7850 S   0  0  0  0  0  0  0  0  0  0  0  0
  162.7140  200.9400  149.5890 O   0  0  0  0  0  0  0  0  0  0  0  0
  161.0630  202.3220  146.4340 C   0  0  0  0  0  2  0  0  0  0  0  0
  160.6920  203.8480  149.0590 C   0  0  1  0  0  3  0  0  0  0  0  0
  160.7670  200.2010  148.2680 O   0  0  0  0  0  0  0  0  0  0  0  0
  161.6840  204.6210  145.7020 C   0  0  0  0  0  0  0  0  0  0  0  0
  162.0410  202.4410  147.5120 N   0  0  1  0  0  0  0  0  0  0  0  0
  162.0040  204.9490  147.1350 C   0  0  0  0  0  2  0  0  0  0  0  0
  160.9780  205.9370  153.3790 C   0  0  0  0  0  2  0  0  0  0  0  0
  160.8120  206.3860  149.5960 C   0  0  0  0  0  2  0  0  0  0  0  0
  160.8200  204.9510  150.0680 C   0  0  0  0  0  0  0  0  0  0  0  0
  161.9560  207.0780  153.0170 C   0  0  1  0  0  3  0  0  0  0  0  0
  161.0050  204.6940  151.3380 C   0  0  0  0  0  0  0  0  0  0  0  0
  161.2090  204.6640  152.6200 C   0  0  0  0  0  3  0  0  0  0  0  0
  162.1550  207.3510  151.5130 C   0  0  0  0  0  2  0  0  0  0  0  0
  160.8460  207.4370  150.7230 C   0  0  0  0  0  2  0  0  0  0  0  0
  161.5480  208.3610  153.7190 C   0  0  0  0  0  2  0  0  0  0  0  0
  161.4200  208.0830  156.0450 C   0  0  0  0  0  2  0  0  0  0  0  0
  160.4810  209.1730  155.8010 C   0  0  2  0  0  3  0  0  0  0  0  0
  160.6210  208.0680  154.8100 N   0  0  0  0  0  0  0  0  0  0  0  0
  161.2500  210.4530  155.4620 C   0  0  0  0  0  2  0  0  0  0  0  0
  160.3140  211.6490  155.4830 C   0  0  0  0  0  2  0  0  0  0  0  0
  158.4180  212.6730  154.3130 C   0  0  1  0  0  0  0  0  0  0  0  0
  159.8280  211.7170  153.1890 C   0  0  0  0  0  2  0  0  0  0  0  0
  159.2420  211.4660  154.5050 N   0  0  0  0  0  0  0  0  0  0  0  0
  158.6900  213.7560  155.2580 N   0  0  0  0  0  1  0  0  0  0  0  0
  158.9990  212.9680  152.9540 C   0  0  0  0  0  2  0  0  0  0  0  0
  156.9320  212.3430  154.2410 C   0  0  0  0  0  2  0  0  0  0  0  0
  156.6470  211.1240  154.9810 N   0  0  0  0  0  2  0  0  0  0  0  0
  156.0190  211.5310  156.2260 C   0  0  0  0  0  1  0  0  0  0  0  0
  161.4180  205.5910  143.4400 C   0  0  0  0  0  0  0  0  0  0  0  0
  160.3840  205.0240  142.9990 O   0  0  0  0  0  0  0  0  0  0  0  0
  162.3190  206.2770  142.4640 C   0  0  0  0  0  2  0  0  0  0  0  0
  161.7090  206.2900  141.1420 N   0  0  0  0  0  2  0  0  0  0  0  0
  162.6090  207.0070  140.2510 C   0  0  0  0  0  2  0  0  0  0  0  0
  162.3350  208.3940  138.3330 F   0  0  0  0  0  0  0  0  0  0  0  0
  160.5440  208.0270  139.6560 F   0  0  0  0  0  0  0  0  0  0  0  0
  161.9140  208.2140  139.6380 C   0  0  0  0  0  0  0  0  0  0  0  0
  162.2290  209.3400  140.3740 F   0  0  0  0  0  0  0  0  0  0  0  0
  158.6260  201.7030  148.5000 F   0  0  0  0  0  0  0  0  0  0  0  0
  159.0610  202.0720  149.7630 C   0  0  0  0  0  2  0  0  0  0  0  0
  1 12  1  6  0  0  0
  1  8  1  0  0  0  0
  2 10  2  0  0  0  0
  3 10  1  0  0  0  0
  3  7  1  0  0  0  0
  4 45  1  6  0  0  0
  5  6  2  0  0  0  0
  5  4  1  0  0  0  0
  8  4  1  0  0  0  0
  8 15  1  1  0  0  0
  9  5  2  0  0  0  0
 10 12  1  0  0  0  0
 11  7  1  6  0  0  0
 11  1  1  0  0  0  0
 11  5  1  0  0  0  0
 14 15  1  0  0  0  0
 14 20  1  0  0  0  0
 15 17  2  0  0  0  0
 16 13  1  0  0  0  0
 16 21  1  1  0  0  0
 17 18  2  0  0  0  0
 18 13  1  0  0  0  0
 19 16  1  0  0  0  0
 20 19  1  0  0  0  0
 21 24  1  0  0  0  0
 23 25  1  6  0  0  0
 23 22  1  0  0  0  0
 24 23  1  0  0  0  0
 24 22  1  0  0  0  0
 25 26  1  0  0  0  0
 27 29  1  0  0  0  0
 27 30  1  1  0  0  0
 28 29  1  0  0  0  0
 29 26  1  0  0  0  0
 31 28  1  0  0  0  0
 31 27  1  0  0  0  0
 32 27  1  0  0  0  0
 32 33  1  0  0  0  0
 33 34  1  0  0  0  0
 35  2  1  0  0  0  0
 36 35  2  0  0  0  0
 37 35  1  0  0  0  0
 38 37  1  0  0  0  0
 39 38  1  0  0  0  0
 40 42  1  0  0  0  0
 42 41  1  0  0  0  0
 42 39  1  0  0  0  0
 42 43  1  0  0  0  0
 44 45  1  0  0  0  0
M  END
>  <MODEL>
9

>  <REMARK>
 VINA RESULT:      -3.6      5.386     10.289
  Name = 
  14 active torsions:
  status: ('A' for Active; 'I' for Inactive)
    1  A    between atoms: C_3  and  C_36
    2  A    between atoms: N_4  and  C_12
    3  A    between atoms: C_10  and  C_34
    4  A    between atoms: C_12  and  C_38
    5  A    between atoms: N_13  and  C_22
    6  A    between atoms: N_13  and  C_38
    7  A    between atoms: C_14  and  C_19
    8  A    between atoms: C_14  and  N_42
    9  A    between atoms: N_15  and  C_20
   10  A    between atoms: C_17  and  C_22
   11  A    between atoms: C_18  and  C_30
   12  A    between atoms: C_20  and  C_23
   13  A    between atoms: C_23  and  C_39
   14  A    between atoms: N_25  and  C_36
                            x       y       z     vdW  Elec       q    Type
                         _______ _______ _______ _____ _____    ______ ____

>  <TORSDO>
F 14

$$$$
