=
 OpenBabel11052412073D

 50 56  0  0  1  0  0  0  0  0999 V2000
  162.3040  206.1320  151.9300 C   0  0  0  0  0  0  0  0  0  0  0  0
  163.3460  205.1390  152.3970 C   0  0  0  0  0  2  0  0  0  0  0  0
  163.7760  206.5210  151.9490 C   0  0  0  0  0  2  0  0  0  0  0  0
  161.4970  206.9440  152.9320 C   0  0  0  0  0  0  0  0  0  0  0  0
  161.3800  208.2130  155.8150 C   0  0  0  0  0  0  0  0  0  0  0  0
  161.9110  208.5880  156.8950 O   0  0  0  0  0  0  0  0  0  0  0  0
  159.7070  206.8130  154.6950 C   0  0  0  0  0  2  0  0  0  0  0  0
  161.9190  209.4580  152.4230 C   0  0  0  0  0  0  0  0  0  0  0  0
  161.7260  210.3070  154.4030 C   0  0  0  0  0  0  0  0  0  0  0  0
  161.7870  208.3740  153.2840 C   0  0  1  0  0  3  0  0  0  0  0  0
  160.4990  207.1330  155.8290 O   0  0  0  0  0  0  0  0  0  0  0  0
  160.5720  206.2460  153.6150 C   0  0  0  0  0  3  0  0  0  0  0  0
  161.8300  210.6200  153.0950 N   0  0  0  0  0  0  0  0  0  0  0  0
  161.7110  208.9240  154.5570 C   0  0  0  0  0  0  0  0  0  0  0  0
  161.9480  210.8390  150.3810 C   0  0  0  0  0  1  0  0  0  0  0  0
  161.9140  209.4290  150.9360 C   0  0  0  0  0  2  0  0  0  0  0  0
  160.9610  211.4410  155.5900 S   0  0  0  0  0  0  0  0  0  0  0  0
  157.3730  213.5150  153.7140 C   0  0  2  0  0  3  0  0  0  0  0  0
  158.2620  212.7330  152.7600 C   0  0  0  0  0  2  0  0  0  0  0  0
  158.4930  212.4640  155.6500 O   0  0  0  0  0  0  0  0  0  0  0  0
  159.5770  212.4200  153.4570 C   0  0  0  0  0  2  0  0  0  0  0  0
  157.2330  212.7560  155.0440 C   0  0  2  0  0  3  0  0  0  0  0  0
  159.3410  211.7130  154.7900 C   0  0  1  0  0  0  0  0  0  0  0  0
  158.7930  210.4520  154.5400 O   0  0  0  0  0  1  0  0  0  0  0  0
  156.1210  213.6310  153.1250 F   0  0  0  0  0  0  0  0  0  0  0  0
  155.8030  211.4730  156.1400 C   0  0  0  0  0  1  0  0  0  0  0  0
  156.4420  211.6010  154.9030 O   0  0  0  0  0  0  0  0  0  0  0  0
  161.7100  205.7800  150.5530 C   0  0  1  0  0  3  0  0  0  0  0  0
  160.6250  202.1210  151.7190 C   0  0  0  0  0  2  0  0  0  0  0  0
  160.4950  203.6670  151.5010 C   0  0  0  0  0  2  0  0  0  0  0  0
  160.2590  200.5080  149.7510 O   0  0  0  0  0  0  0  0  0  0  0  0
  159.9310  201.8600  149.5620 C   0  0  2  0  0  3  0  0  0  0  0  0
  161.4910  204.2550  150.4450 C   0  0  1  0  0  3  0  0  0  0  0  0
  160.6220  202.7140  148.5600 C   0  0  0  0  0  3  0  0  0  0  0  0
  161.2700  203.8370  148.9770 C   0  0  0  0  0  3  0  0  0  0  0  0
  161.0610  201.4460  150.4300 C   0  0  1  0  0  3  0  0  0  0  0  0
  160.4630  206.6080  150.1800 C   0  0  0  0  0  2  0  0  0  0  0  0
  160.7350  207.6990  149.1420 C   0  0  0  0  0  2  0  0  0  0  0  0
  161.8940  207.3200  148.2210 C   0  0  0  0  0  2  0  0  0  0  0  0
  161.9340  204.6230  145.4250 C   0  0  0  0  0  0  0  0  0  0  0  0
  162.7300  203.5960  144.9240 O   0  0  0  0  0  1  0  0  0  0  0  0
  162.4110  205.4240  146.4860 C   0  0  0  0  0  0  0  0  0  0  0  0
  159.8170  205.7910  145.4790 C   0  0  0  0  0  3  0  0  0  0  0  0
  161.5830  206.4590  147.0190 C   0  0  0  0  0  0  0  0  0  0  0  0
  163.7880  205.1550  147.0030 C   0  0  0  0  0  1  0  0  0  0  0  0
  160.2770  206.5800  146.5370 C   0  0  0  0  0  3  0  0  0  0  0  0
  160.6570  204.8610  144.8790 C   0  0  0  0  0  0  0  0  0  0  0  0
  160.1200  204.0320  143.7630 C   0  0  0  0  0  2  0  0  0  0  0  0
  159.1730  202.9830  144.3010 C   0  0  0  0  0  2  0  0  0  0  0  0
  159.9270  201.9090  144.8080 O   0  0  0  0  0  1  0  0  0  0  0  0
  1  3  1  0  0  0  0
  1  2  1  0  0  0  0
  1  4  1  0  0  0  0
  3  2  1  0  0  0  0
  4 10  1  0  0  0  0
  4 12  2  0  0  0  0
  5 11  1  0  0  0  0
  5  6  2  0  0  0  0
  7 11  1  0  0  0  0
  8 13  2  0  0  0  0
  9 14  2  0  0  0  0
  9 17  1  0  0  0  0
 10  8  1  6  0  0  0
 10 14  1  0  0  0  0
 12  7  1  0  0  0  0
 13  9  1  0  0  0  0
 14  5  1  0  0  0  0
 15 16  1  0  0  0  0
 16  8  1  0  0  0  0
 18 25  1  6  0  0  0
 18 22  1  0  0  0  0
 19 21  1  0  0  0  0
 19 18  1  0  0  0  0
 21 23  1  0  0  0  0
 22 27  1  6  0  0  0
 22 20  1  0  0  0  0
 23 24  1  6  0  0  0
 23 17  1  0  0  0  0
 23 20  1  0  0  0  0
 27 26  1  0  0  0  0
 28 37  1  1  0  0  0
 28  1  1  0  0  0  0
 30 29  1  0  0  0  0
 31 36  1  0  0  0  0
 32 34  1  6  0  0  0
 32 31  1  0  0  0  0
 32 36  1  0  0  0  0
 33 28  1  6  0  0  0
 33 30  1  0  0  0  0
 34 35  2  0  0  0  0
 35 33  1  0  0  0  0
 36 29  1  1  0  0  0
 38 37  1  0  0  0  0
 39 38  1  0  0  0  0
 40 42  1  0  0  0  0
 41 40  1  0  0  0  0
 42 45  1  0  0  0  0
 42 44  2  0  0  0  0
 43 46  2  0  0  0  0
 44 39  1  0  0  0  0
 46 44  1  0  0  0  0
 47 40  2  0  0  0  0
 47 43  1  0  0  0  0
 48 49  1  0  0  0  0
 48 47  1  0  0  0  0
 49 50  1  0  0  0  0
M  END
>  <MODEL>
1

>  <REMARK>
 VINA RESULT:      -4.3      0.000      0.000
  Name = 
  13 active torsions:
  status: ('A' for Active; 'I' for Inactive)
    1  A    between atoms: C_3  and  C_6
    2  A    between atoms: C_3  and  C_11
    3  A    between atoms: C_11  and  C_35
    4  A    between atoms: C_11  and  C_41
    5  A    between atoms: C_12  and  C_36
    6  A    between atoms: C_12  and  C_45
    7  A    between atoms: C_16  and  C_42
    8  A    between atoms: C_24  and  C_37
    9  A    between atoms: C_25  and  O_38
   10  A    between atoms: C_26  and  S_31
   11  A    between atoms: C_27  and  S_31
   12  A    between atoms: C_37  and  C_39
   13  A    between atoms: C_39  and  C_41
                            x       y       z     vdW  Elec       q    Type
                         _______ _______ _______ _____ _____    ______ ____

>  <TORSDO>
F 13

$$$$
=
 OpenBabel11052412073D

 50 56  0  0  1  0  0  0  0  0999 V2000
  161.8480  209.1980  150.9580 C   0  0  0  0  0  0  0  0  0  0  0  0
  162.7680  210.3400  150.5860 C   0  0  0  0  0  2  0  0  0  0  0  0
  161.3210  210.3660  150.1370 C   0  0  0  0  0  2  0  0  0  0  0  0
  161.1940  209.1400  152.3310 C   0  0  0  0  0  0  0  0  0  0  0  0
  161.6050  209.2470  155.4540 C   0  0  0  0  0  0  0  0  0  0  0  0
  162.2830  209.5010  156.4860 O   0  0  0  0  0  0  0  0  0  0  0  0
  160.3670  207.5920  154.1350 C   0  0  0  0  0  2  0  0  0  0  0  0
  160.3470  211.5320  152.8970 C   0  0  0  0  0  0  0  0  0  0  0  0
  160.5430  211.5280  155.0510 C   0  0  0  0  0  0  0  0  0  0  0  0
  160.9820  210.3360  153.2130 C   0  0  0  0  0  0  0  0  0  0  0  0
  161.3070  207.9200  155.1470 O   0  0  0  0  0  0  0  0  0  0  0  0
  160.9410  207.9000  152.7880 C   0  0  0  0  0  3  0  0  0  0  0  0
  160.0390  212.2220  154.0100 N   0  0  0  0  0  2  0  0  0  0  0  0
  161.1470  210.3620  154.5920 C   0  0  0  0  0  0  0  0  0  0  0  0
  159.7260  213.4580  151.4880 C   0  0  0  0  0  1  0  0  0  0  0  0
  159.8260  211.9470  151.5670 C   0  0  0  0  0  2  0  0  0  0  0  0
  159.8600  211.6960  156.7200 S   0  0  0  0  0  0  0  0  0  0  0  0
  155.7730  213.6620  157.0760 C   0  0  2  0  0  3  0  0  0  0  0  0
  156.7310  214.2960  156.0790 C   0  0  0  0  0  2  0  0  0  0  0  0
  157.2430  211.6840  157.2600 O   0  0  0  0  0  0  0  0  0  0  0  0
  158.1340  213.7700  156.3400 C   0  0  0  0  0  2  0  0  0  0  0  0
  155.9060  212.1310  157.0320 C   0  0  2  0  0  3  0  0  0  0  0  0
  158.1620  212.2430  156.3280 C   0  0  1  0  0  0  0  0  0  0  0  0
  157.8780  211.7970  155.0340 O   0  0  0  0  0  1  0  0  0  0  0  0
  154.4830  214.0160  156.7050 F   0  0  0  0  0  0  0  0  0  0  0  0
  154.8590  210.3550  156.2310 C   0  0  0  0  0  1  0  0  0  0  0  0
  155.3720  211.5970  155.8450 O   0  0  0  0  0  0  0  0  0  0  0  0
  162.1510  207.9010  150.1840 C   0  0  1  0  0  3  0  0  0  0  0  0
  159.7650  204.8460  151.1320 C   0  0  0  0  0  2  0  0  0  0  0  0
  160.6260  205.7760  150.2110 C   0  0  0  0  0  2  0  0  0  0  0  0
  160.9130  203.1070  152.6390 O   0  0  0  0  0  0  0  0  0  0  0  0
  161.7000  203.7710  151.6850 C   0  0  2  0  0  3  0  0  0  0  0  0
  161.6480  206.6780  150.9830 C   0  0  1  0  0  3  0  0  0  0  0  0
  162.8350  204.6530  152.0640 C   0  0  0  0  0  3  0  0  0  0  0  0
  162.8230  205.9590  151.6760 C   0  0  0  0  0  3  0  0  0  0  0  0
  160.5620  204.4430  152.3610 C   0  0  1  0  0  3  0  0  0  0  0  0
  161.6660  207.9200  148.7200 C   0  0  0  0  0  2  0  0  0  0  0  0
  162.6820  207.3510  147.7270 C   0  0  0  0  0  2  0  0  0  0  0  0
  161.9920  206.6170  146.5770 C   0  0  0  0  0  2  0  0  0  0  0  0
  160.9810  202.8970  146.0940 C   0  0  0  0  0  0  0  0  0  0  0  0
  160.5150  202.0210  145.1170 O   0  0  0  0  0  1  0  0  0  0  0  0
  161.1450  204.2650  145.7860 C   0  0  0  0  0  0  0  0  0  0  0  0
  161.8890  203.2730  148.3040 C   0  0  0  0  0  3  0  0  0  0  0  0
  161.6500  205.1590  146.7790 C   0  0  0  0  0  0  0  0  0  0  0  0
  160.7640  204.7260  144.4160 C   0  0  0  0  0  1  0  0  0  0  0  0
  162.0650  204.6270  148.0030 C   0  0  0  0  0  3  0  0  0  0  0  0
  161.2910  202.4210  147.3840 C   0  0  0  0  0  0  0  0  0  0  0  0
  161.1360  200.9830  147.7420 C   0  0  0  0  0  2  0  0  0  0  0  0
  160.2200  200.8390  148.9360 C   0  0  0  0  0  2  0  0  0  0  0  0
  161.0040  200.7210  150.0980 O   0  0  0  0  0  1  0  0  0  0  0  0
  1  4  1  0  0  0  0
  2  1  1  0  0  0  0
  3  2  1  0  0  0  0
  3  1  1  0  0  0  0
  4 12  2  0  0  0  0
  4 10  1  0  0  0  0
  5  6  2  0  0  0  0
  7 11  1  0  0  0  0
  8 10  2  0  0  0  0
  8 13  1  0  0  0  0
  9 17  1  0  0  0  0
 10 14  1  0  0  0  0
 11  5  1  0  0  0  0
 12  7  1  0  0  0  0
 13  9  1  0  0  0  0
 14  9  2  0  0  0  0
 14  5  1  0  0  0  0
 15 16  1  0  0  0  0
 16  8  1  0  0  0  0
 18 25  1  6  0  0  0
 19 21  1  0  0  0  0
 19 18  1  0  0  0  0
 22 27  1  6  0  0  0
 22 18  1  0  0  0  0
 22 20  1  0  0  0  0
 23 24  1  6  0  0  0
 23 21  1  0  0  0  0
 23 17  1  0  0  0  0
 23 20  1  0  0  0  0
 27 26  1  0  0  0  0
 28 37  1  6  0  0  0
 28  1  1  0  0  0  0
 30 33  1  0  0  0  0
 30 29  1  0  0  0  0
 32 34  1  1  0  0  0
 32 36  1  0  0  0  0
 32 31  1  0  0  0  0
 33 28  1  6  0  0  0
 33 35  1  0  0  0  0
 35 34  2  0  0  0  0
 36 29  1  6  0  0  0
 36 31  1  0  0  0  0
 38 37  1  0  0  0  0
 39 44  1  0  0  0  0
 39 38  1  0  0  0  0
 40 47  1  0  0  0  0
 41 40  1  0  0  0  0
 42 40  2  0  0  0  0
 42 44  1  0  0  0  0
 44 46  2  0  0  0  0
 45 42  1  0  0  0  0
 46 43  1  0  0  0  0
 47 48  1  0  0  0  0
 47 43  2  0  0  0  0
 48 49  1  0  0  0  0
 49 50  1  0  0  0  0
M  END
>  <MODEL>
2

>  <REMARK>
 VINA RESULT:      -4.2      1.551      3.104
  Name = 
  13 active torsions:
  status: ('A' for Active; 'I' for Inactive)
    1  A    between atoms: C_3  and  C_6
    2  A    between atoms: C_3  and  C_11
    3  A    between atoms: C_11  and  C_35
    4  A    between atoms: C_11  and  C_41
    5  A    between atoms: C_12  and  C_36
    6  A    between atoms: C_12  and  C_45
    7  A    between atoms: C_16  and  C_42
    8  A    between atoms: C_24  and  C_37
    9  A    between atoms: C_25  and  O_38
   10  A    between atoms: C_26  and  S_31
   11  A    between atoms: C_27  and  S_31
   12  A    between atoms: C_37  and  C_39
   13  A    between atoms: C_39  and  C_41
                            x       y       z     vdW  Elec       q    Type
                         _______ _______ _______ _____ _____    ______ ____

>  <TORSDO>
F 13

$$$$
=
 OpenBabel11052412073D

 50 56  0  0  1  0  0  0  0  0999 V2000
  161.7630  209.4470  151.6190 C   0  0  0  0  0  0  0  0  0  0  0  0
  162.1400  210.5370  150.6410 C   0  0  0  0  0  2  0  0  0  0  0  0
  163.0270  210.2650  151.8390 C   0  0  0  0  0  2  0  0  0  0  0  0
  162.0840  207.9890  151.3230 C   0  0  0  0  0  0  0  0  0  0  0  0
  161.2030  204.9790  151.6290 C   0  0  0  0  0  0  0  0  0  0  0  0
  160.3580  204.0810  151.8920 O   0  0  0  0  0  0  0  0  0  0  0  0
  163.3860  205.9850  152.1100 C   0  0  0  0  0  2  0  0  0  0  0  0
  161.1800  207.4550  148.9450 C   0  0  0  0  0  0  0  0  0  0  0  0
  160.6870  205.3610  149.1630 C   0  0  0  0  0  0  0  0  0  0  0  0
  161.3730  207.1640  150.2910 C   0  0  1  0  0  3  0  0  0  0  0  0
  162.2970  205.1510  152.4750 O   0  0  0  0  0  0  0  0  0  0  0  0
  162.9680  207.4200  152.1620 C   0  0  0  0  0  3  0  0  0  0  0  0
  160.8160  206.3560  148.2610 N   0  0  0  0  0  0  0  0  0  0  0  0
  161.0090  205.8310  150.4320 C   0  0  0  0  0  0  0  0  0  0  0  0
  163.0280  208.7480  147.9480 C   0  0  0  0  0  1  0  0  0  0  0  0
  161.5400  208.7150  148.2390 C   0  0  0  0  0  2  0  0  0  0  0  0
  160.8440  203.6220  148.6840 S   0  0  0  0  0  0  0  0  0  0  0  0
  161.7330  205.4850  144.6310 C   0  0  2  0  0  3  0  0  0  0  0  0
  162.8750  204.7130  145.2710 C   0  0  0  0  0  2  0  0  0  0  0  0
  160.1470  204.5420  146.2740 O   0  0  0  0  0  0  0  0  0  0  0  0
  162.5490  204.4770  146.7380 C   0  0  0  0  0  2  0  0  0  0  0  0
  160.4000  204.7620  144.8860 C   0  0  2  0  0  3  0  0  0  0  0  0
  161.1890  203.8010  146.8990 C   0  0  1  0  0  0  0  0  0  0  0  0
  161.2600  202.5120  146.3650 O   0  0  0  0  0  1  0  0  0  0  0  0
  161.9690  205.5310  143.2630 F   0  0  0  0  0  0  0  0  0  0  0  0
  158.9440  203.2540  144.1820 C   0  0  0  0  0  1  0  0  0  0  0  0
  160.3040  203.5720  144.1430 O   0  0  0  0  0  0  0  0  0  0  0  0
  160.5510  209.8150  152.4970 C   0  0  1  0  0  3  0  0  0  0  0  0
  160.1650  209.4330  156.4500 C   0  0  0  0  0  2  0  0  0  0  0  0
  159.7270  209.7400  154.9780 C   0  0  0  0  0  2  0  0  0  0  0  0
  160.3780  206.9990  157.2480 O   0  0  0  0  0  0  0  0  0  0  0  0
  159.7870  207.2290  155.9960 C   0  0  2  0  0  3  0  0  0  0  0  0
  160.6820  209.1510  153.8850 C   0  0  1  0  0  3  0  0  0  0  0  0
  160.3820  206.7260  154.7310 C   0  0  0  0  0  3  0  0  0  0  0  0
  160.7200  207.6150  153.7540 C   0  0  0  0  0  3  0  0  0  0  0  0
  160.8770  208.0930  156.5150 C   0  0  1  0  0  3  0  0  0  0  0  0
  160.2660  211.3290  152.5650 C   0  0  0  0  0  2  0  0  0  0  0  0
  158.8510  211.7100  152.1250 C   0  0  0  0  0  2  0  0  0  0  0  0
  158.8000  213.1340  151.5720 C   0  0  0  0  0  2  0  0  0  0  0  0
  159.0410  213.7720  147.7470 C   0  0  0  0  0  0  0  0  0  0  0  0
  158.2360  213.8890  146.6170 O   0  0  0  0  0  1  0  0  0  0  0  0
  158.4580  213.4470  148.9920 C   0  0  0  0  0  0  0  0  0  0  0  0
  161.2020  214.0030  148.8070 C   0  0  0  0  0  3  0  0  0  0  0  0
  159.2800  213.3550  150.1570 C   0  0  0  0  0  0  0  0  0  0  0  0
  156.9840  213.1970  149.0310 C   0  0  0  0  0  1  0  0  0  0  0  0
  160.6310  213.6930  150.0440 C   0  0  0  0  0  3  0  0  0  0  0  0
  160.4310  213.9800  147.6520 C   0  0  0  0  0  0  0  0  0  0  0  0
  161.0800  214.3310  146.3570 C   0  0  0  0  0  2  0  0  0  0  0  0
  161.2470  213.0930  145.5050 C   0  0  0  0  0  2  0  0  0  0  0  0
  161.1660  213.4610  144.1490 O   0  0  0  0  0  1  0  0  0  0  0  0
  1  3  1  0  0  0  0
  1 28  1  0  0  0  0
  2  1  1  0  0  0  0
  2  3  1  0  0  0  0
  4  1  1  0  0  0  0
  4 12  2  0  0  0  0
  5  6  2  0  0  0  0
  5 11  1  0  0  0  0
  7 12  1  0  0  0  0
  7 11  1  0  0  0  0
  9 14  2  0  0  0  0
 10  8  1  6  0  0  0
 10 14  1  0  0  0  0
 10  4  1  0  0  0  0
 13  8  2  0  0  0  0
 13  9  1  0  0  0  0
 14  5  1  0  0  0  0
 15 16  1  0  0  0  0
 16  8  1  0  0  0  0
 17  9  1  0  0  0  0
 18 25  1  6  0  0  0
 18 22  1  0  0  0  0
 18 19  1  0  0  0  0
 19 21  1  0  0  0  0
 20 23  1  0  0  0  0
 21 23  1  0  0  0  0
 22 27  1  6  0  0  0
 22 20  1  0  0  0  0
 23 24  1  6  0  0  0
 23 17  1  0  0  0  0
 27 26  1  0  0  0  0
 28 37  1  1  0  0  0
 30 29  1  0  0  0  0
 32 34  1  6  0  0  0
 32 36  1  0  0  0  0
 32 31  1  0  0  0  0
 33 28  1  6  0  0  0
 33 30  1  0  0  0  0
 35 33  1  0  0  0  0
 35 34  2  0  0  0  0
 36 29  1  1  0  0  0
 36 31  1  0  0  0  0
 38 37  1  0  0  0  0
 39 38  1  0  0  0  0
 40 42  1  0  0  0  0
 41 40  1  0  0  0  0
 42 45  1  0  0  0  0
 42 44  2  0  0  0  0
 43 46  2  0  0  0  0
 44 39  1  0  0  0  0
 46 44  1  0  0  0  0
 47 40  2  0  0  0  0
 47 43  1  0  0  0  0
 48 47  1  0  0  0  0
 49 48  1  0  0  0  0
 50 49  1  0  0  0  0
M  END
>  <MODEL>
3

>  <REMARK>
 VINA RESULT:      -3.9      3.976      8.737
  Name = 
  13 active torsions:
  status: ('A' for Active; 'I' for Inactive)
    1  A    between atoms: C_3  and  C_6
    2  A    between atoms: C_3  and  C_11
    3  A    between atoms: C_11  and  C_35
    4  A    between atoms: C_11  and  C_41
    5  A    between atoms: C_12  and  C_36
    6  A    between atoms: C_12  and  C_45
    7  A    between atoms: C_16  and  C_42
    8  A    between atoms: C_24  and  C_37
    9  A    between atoms: C_25  and  O_38
   10  A    between atoms: C_26  and  S_31
   11  A    between atoms: C_27  and  S_31
   12  A    between atoms: C_37  and  C_39
   13  A    between atoms: C_39  and  C_41
                            x       y       z     vdW  Elec       q    Type
                         _______ _______ _______ _____ _____    ______ ____

>  <TORSDO>
F 13

$$$$
=
 OpenBabel11052412073D

 50 56  0  0  1  0  0  0  0  0999 V2000
  162.0020  210.0210  151.4310 C   0  0  0  0  0  0  0  0  0  0  0  0
  163.4790  209.6970  151.4330 C   0  0  0  0  0  2  0  0  0  0  0  0
  163.0240  211.1200  151.6850 C   0  0  0  0  0  2  0  0  0  0  0  0
  161.1450  209.7590  152.6600 C   0  0  0  0  0  0  0  0  0  0  0  0
  161.0550  209.4460  155.7950 C   0  0  0  0  0  0  0  0  0  0  0  0
  161.5500  209.5730  156.9470 O   0  0  0  0  0  0  0  0  0  0  0  0
  160.1190  207.9570  154.0870 C   0  0  0  0  0  2  0  0  0  0  0  0
  160.1070  212.0270  153.3910 C   0  0  0  0  0  0  0  0  0  0  0  0
  159.9630  211.7330  155.5290 C   0  0  0  0  0  0  0  0  0  0  0  0
  160.7410  210.8160  153.6460 C   0  0  0  0  0  0  0  0  0  0  0  0
  160.8710  208.1670  155.2720 O   0  0  0  0  0  0  0  0  0  0  0  0
  160.8820  208.4620  152.9030 C   0  0  0  0  0  3  0  0  0  0  0  0
  159.5960  212.5500  154.5200 N   0  0  0  0  0  2  0  0  0  0  0  0
  160.6860  210.6570  155.0250 C   0  0  0  0  0  0  0  0  0  0  0  0
  158.3180  212.3920  151.7350 C   0  0  0  0  0  1  0  0  0  0  0  0
  159.7830  212.6080  152.0610 C   0  0  0  0  0  2  0  0  0  0  0  0
  159.0200  211.6530  157.0730 S   0  0  0  0  0  0  0  0  0  0  0  0
  155.6680  213.4540  154.5810 C   0  0  2  0  0  3  0  0  0  0  0  0
  155.8800  211.9570  154.4250 C   0  0  0  0  0  2  0  0  0  0  0  0
  157.1300  213.4750  156.5730 O   0  0  0  0  0  0  0  0  0  0  0  0
  157.2300  211.5860  155.0200 C   0  0  0  0  0  2  0  0  0  0  0  0
  155.8580  213.8630  156.0510 C   0  0  2  0  0  3  0  0  0  0  0  0
  157.3510  212.0730  156.4620 C   0  0  1  0  0  0  0  0  0  0  0  0
  156.4380  211.3700  157.2530 O   0  0  0  0  0  1  0  0  0  0  0  0
  154.3640  213.7380  154.1970 F   0  0  0  0  0  0  0  0  0  0  0  0
  153.8650  214.4430  156.8130 C   0  0  0  0  0  1  0  0  0  0  0  0
  154.8010  213.4060  156.8580 O   0  0  0  0  0  0  0  0  0  0  0  0
  161.3770  209.9830  150.0230 C   0  0  1  0  0  3  0  0  0  0  0  0
  163.5200  212.6160  147.9240 C   0  0  0  0  0  2  0  0  0  0  0  0
  162.9160  211.2220  148.3080 C   0  0  0  0  0  2  0  0  0  0  0  0
  162.0650  214.3620  146.7230 O   0  0  0  0  0  0  0  0  0  0  0  0
  161.5510  213.0630  146.8610 C   0  0  2  0  0  3  0  0  0  0  0  0
  161.6830  211.2980  149.2730 C   0  0  1  0  0  3  0  0  0  0  0  0
  160.3220  212.7730  147.6440 C   0  0  0  0  0  3  0  0  0  0  0  0
  160.3910  211.9130  148.6980 C   0  0  0  0  0  3  0  0  0  0  0  0
  162.4270  213.6700  147.8950 C   0  0  1  0  0  3  0  0  0  0  0  0
  161.7330  208.7180  149.2150 C   0  0  0  0  0  2  0  0  0  0  0  0
  160.8340  207.5180  149.5210 C   0  0  0  0  0  2  0  0  0  0  0  0
  161.6070  206.4020  150.2230 C   0  0  0  0  0  2  0  0  0  0  0  0
  160.5150  202.6770  150.0960 C   0  0  0  0  0  0  0  0  0  0  0  0
  160.0290  201.6630  150.9180 O   0  0  0  0  0  1  0  0  0  0  0  0
  160.8500  203.9300  150.6530 C   0  0  0  0  0  0  0  0  0  0  0  0
  161.0150  203.5140  147.8830 C   0  0  0  0  0  3  0  0  0  0  0  0
  161.3200  204.9800  149.8060 C   0  0  0  0  0  0  0  0  0  0  0  0
  160.7060  204.1010  152.1320 C   0  0  0  0  0  1  0  0  0  0  0  0
  161.3380  204.7610  148.4260 C   0  0  0  0  0  3  0  0  0  0  0  0
  160.6690  202.4550  148.7130 C   0  0  0  0  0  0  0  0  0  0  0  0
  160.3200  201.1480  148.0890 C   0  0  0  0  0  2  0  0  0  0  0  0
  161.5710  200.4490  147.6060 C   0  0  0  0  0  2  0  0  0  0  0  0
  161.4330  200.1710  146.2340 O   0  0  0  0  0  1  0  0  0  0  0  0
  1  2  1  0  0  0  0
  1  3  1  0  0  0  0
  1  4  1  0  0  0  0
  2  3  1  0  0  0  0
  4 12  2  0  0  0  0
  4 10  1  0  0  0  0
  5  6  2  0  0  0  0
  7 11  1  0  0  0  0
  8 10  2  0  0  0  0
  8 13  1  0  0  0  0
  9 17  1  0  0  0  0
 10 14  1  0  0  0  0
 11  5  1  0  0  0  0
 12  7  1  0  0  0  0
 13  9  1  0  0  0  0
 14  9  2  0  0  0  0
 14  5  1  0  0  0  0
 15 16  1  0  0  0  0
 16  8  1  0  0  0  0
 18 25  1  1  0  0  0
 18 22  1  0  0  0  0
 19 18  1  0  0  0  0
 19 21  1  0  0  0  0
 21 23  1  0  0  0  0
 22 20  1  0  0  0  0
 22 27  1  1  0  0  0
 23 20  1  0  0  0  0
 23 17  1  0  0  0  0
 23 24  1  1  0  0  0
 26 27  1  0  0  0  0
 28 37  1  6  0  0  0
 28  1  1  0  0  0  0
 29 30  1  0  0  0  0
 30 33  1  0  0  0  0
 31 32  1  0  0  0  0
 31 36  1  0  0  0  0
 32 34  1  1  0  0  0
 32 36  1  0  0  0  0
 33 28  1  6  0  0  0
 34 35  2  0  0  0  0
 35 33  1  0  0  0  0
 36 29  1  6  0  0  0
 37 38  1  0  0  0  0
 38 39  1  0  0  0  0
 40 42  1  0  0  0  0
 40 41  1  0  0  0  0
 42 45  1  0  0  0  0
 43 46  2  0  0  0  0
 43 47  1  0  0  0  0
 44 39  1  0  0  0  0
 44 42  2  0  0  0  0
 46 44  1  0  0  0  0
 47 40  2  0  0  0  0
 48 47  1  0  0  0  0
 49 48  1  0  0  0  0
 50 49  1  0  0  0  0
M  END
>  <MODEL>
4

>  <REMARK>
 VINA RESULT:      -3.7      2.352      5.347
  Name = 
  13 active torsions:
  status: ('A' for Active; 'I' for Inactive)
    1  A    between atoms: C_3  and  C_6
    2  A    between atoms: C_3  and  C_11
    3  A    between atoms: C_11  and  C_35
    4  A    between atoms: C_11  and  C_41
    5  A    between atoms: C_12  and  C_36
    6  A    between atoms: C_12  and  C_45
    7  A    between atoms: C_16  and  C_42
    8  A    between atoms: C_24  and  C_37
    9  A    between atoms: C_25  and  O_38
   10  A    between atoms: C_26  and  S_31
   11  A    between atoms: C_27  and  S_31
   12  A    between atoms: C_37  and  C_39
   13  A    between atoms: C_39  and  C_41
                            x       y       z     vdW  Elec       q    Type
                         _______ _______ _______ _____ _____    ______ ____

>  <TORSDO>
F 13

$$$$
=
 OpenBabel11052412073D

 50 56  0  0  1  0  0  0  0  0999 V2000
  161.8280  206.4100  152.1590 C   0  0  0  0  0  0  0  0  0  0  0  0
  163.3270  206.2070  152.1300 C   0  0  0  0  0  2  0  0  0  0  0  0
  162.7050  207.3230  151.3160 C   0  0  0  0  0  2  0  0  0  0  0  0
  161.1660  207.1670  153.3010 C   0  0  0  0  0  0  0  0  0  0  0  0
  161.5070  208.4660  156.1520 C   0  0  0  0  0  0  0  0  0  0  0  0
  162.2040  208.9010  157.1070 O   0  0  0  0  0  0  0  0  0  0  0  0
  159.7720  206.9150  155.3810 C   0  0  0  0  0  2  0  0  0  0  0  0
  161.2650  209.6990  152.7220 C   0  0  0  0  0  0  0  0  0  0  0  0
  161.3910  210.5590  154.7020 C   0  0  0  0  0  0  0  0  0  0  0  0
  161.3960  208.6210  153.5910 C   0  0  1  0  0  3  0  0  0  0  0  0
  160.7400  207.3170  156.3380 O   0  0  0  0  0  0  0  0  0  0  0  0
  160.4540  206.4050  154.1510 C   0  0  0  0  0  3  0  0  0  0  0  0
  161.2110  210.8600  153.4000 N   0  0  0  0  0  0  0  0  0  0  0  0
  161.5240  209.1830  154.8540 C   0  0  0  0  0  0  0  0  0  0  0  0
  161.9260  210.5460  150.5030 C   0  0  0  0  0  1  0  0  0  0  0  0
  160.9720  209.6470  151.2640 C   0  0  0  0  0  2  0  0  0  0  0  0
  160.7790  211.6440  156.0180 S   0  0  0  0  0  0  0  0  0  0  0  0
  156.7060  213.3700  154.9580 C   0  0  2  0  0  3  0  0  0  0  0  0
  157.4660  212.7130  153.8170 C   0  0  0  0  0  2  0  0  0  0  0  0
  158.2800  212.3960  156.5950 O   0  0  0  0  0  0  0  0  0  0  0  0
  158.9160  212.5250  154.2350 C   0  0  0  0  0  2  0  0  0  0  0  0
  156.9040  212.5660  156.2540 C   0  0  2  0  0  3  0  0  0  0  0  0
  159.0160  211.7620  155.5540 C   0  0  1  0  0  0  0  0  0  0  0  0
  158.5580  210.4570  155.3560 O   0  0  0  0  0  1  0  0  0  0  0  0
  155.3580  213.3670  154.6240 F   0  0  0  0  0  0  0  0  0  0  0  0
  155.2640  211.4470  157.2270 C   0  0  0  0  0  1  0  0  0  0  0  0
  156.2200  211.3380  156.2130 O   0  0  0  0  0  0  0  0  0  0  0  0
  161.0560  205.3140  151.3990 C   0  0  1  0  0  3  0  0  0  0  0  0
  161.2140  207.6590  148.1740 C   0  0  0  0  0  2  0  0  0  0  0  0
  161.7170  206.9770  149.4920 C   0  0  0  0  0  2  0  0  0  0  0  0
  161.1850  206.3360  145.9700 O   0  0  0  0  0  0  0  0  0  0  0  0
  161.8330  205.7590  147.0730 C   0  0  2  0  0  3  0  0  0  0  0  0
  160.8980  205.7100  149.9140 C   0  0  1  0  0  3  0  0  0  0  0  0
  161.3740  204.4860  147.6880 C   0  0  0  0  0  3  0  0  0  0  0  0
  161.0170  204.4730  149.0030 C   0  0  0  0  0  3  0  0  0  0  0  0
  160.6320  206.6170  147.2340 C   0  0  1  0  0  3  0  0  0  0  0  0
  161.6260  203.8950  151.5990 C   0  0  0  0  0  2  0  0  0  0  0  0
  160.5530  202.8220  151.7990 C   0  0  0  0  0  2  0  0  0  0  0  0
  160.9970  201.4720  151.2350 C   0  0  0  0  0  2  0  0  0  0  0  0
  159.5150  201.1830  147.6570 C   0  0  0  0  0  0  0  0  0  0  0  0
  158.3120  201.3260  146.9690 O   0  0  0  0  0  1  0  0  0  0  0  0
  159.5410  201.3380  149.0600 C   0  0  0  0  0  0  0  0  0  0  0  0
  161.9150  200.8920  147.6310 C   0  0  0  0  0  3  0  0  0  0  0  0
  160.7800  201.2210  149.7620 C   0  0  0  0  0  0  0  0  0  0  0  0
  158.2480  201.6100  149.7600 C   0  0  0  0  0  1  0  0  0  0  0  0
  161.9510  201.0550  149.0190 C   0  0  0  0  0  3  0  0  0  0  0  0
  160.7010  200.8890  146.9560 C   0  0  0  0  0  0  0  0  0  0  0  0
  160.7110  200.7250  145.4750 C   0  0  0  0  0  2  0  0  0  0  0  0
  160.0880  201.9320  144.8110 C   0  0  0  0  0  2  0  0  0  0  0  0
  160.9790  203.0160  144.9120 O   0  0  0  0  0  1  0  0  0  0  0  0
  1  4  1  0  0  0  0
  2  1  1  0  0  0  0
  3  2  1  0  0  0  0
  3  1  1  0  0  0  0
  4 10  1  0  0  0  0
  4 12  2  0  0  0  0
  5 11  1  0  0  0  0
  5  6  2  0  0  0  0
  7 11  1  0  0  0  0
  8 13  2  0  0  0  0
  9 14  2  0  0  0  0
  9 17  1  0  0  0  0
 10  8  1  1  0  0  0
 10 14  1  0  0  0  0
 12  7  1  0  0  0  0
 13  9  1  0  0  0  0
 14  5  1  0  0  0  0
 15 16  1  0  0  0  0
 16  8  1  0  0  0  0
 18 25  1  6  0  0  0
 18 22  1  0  0  0  0
 19 21  1  0  0  0  0
 19 18  1  0  0  0  0
 21 23  1  0  0  0  0
 22 27  1  6  0  0  0
 22 20  1  0  0  0  0
 23 24  1  6  0  0  0
 23 17  1  0  0  0  0
 23 20  1  0  0  0  0
 27 26  1  0  0  0  0
 28 37  1  6  0  0  0
 28  1  1  0  0  0  0
 29 30  1  0  0  0  0
 30 33  1  0  0  0  0
 31 32  1  0  0  0  0
 31 36  1  0  0  0  0
 32 36  1  0  0  0  0
 32 34  1  6  0  0  0
 33 28  1  1  0  0  0
 34 35  2  0  0  0  0
 35 33  1  0  0  0  0
 36 29  1  1  0  0  0
 37 38  1  0  0  0  0
 39 38  1  0  0  0  0
 40 42  1  0  0  0  0
 41 40  1  0  0  0  0
 42 45  1  0  0  0  0
 42 44  2  0  0  0  0
 43 46  2  0  0  0  0
 44 39  1  0  0  0  0
 46 44  1  0  0  0  0
 47 43  1  0  0  0  0
 47 40  2  0  0  0  0
 48 47  1  0  0  0  0
 49 50  1  0  0  0  0
 49 48  1  0  0  0  0
M  END
>  <MODEL>
5

>  <REMARK>
 VINA RESULT:      -3.5      1.314      3.379
  Name = 
  13 active torsions:
  status: ('A' for Active; 'I' for Inactive)
    1  A    between atoms: C_3  and  C_6
    2  A    between atoms: C_3  and  C_11
    3  A    between atoms: C_11  and  C_35
    4  A    between atoms: C_11  and  C_41
    5  A    between atoms: C_12  and  C_36
    6  A    between atoms: C_12  and  C_45
    7  A    between atoms: C_16  and  C_42
    8  A    between atoms: C_24  and  C_37
    9  A    between atoms: C_25  and  O_38
   10  A    between atoms: C_26  and  S_31
   11  A    between atoms: C_27  and  S_31
   12  A    between atoms: C_37  and  C_39
   13  A    between atoms: C_39  and  C_41
                            x       y       z     vdW  Elec       q    Type
                         _______ _______ _______ _____ _____    ______ ____

>  <TORSDO>
F 13

$$$$
=
 OpenBabel11052412073D

 50 56  0  0  1  0  0  0  0  0999 V2000
  161.3390  206.6800  152.4340 C   0  0  0  0  0  0  0  0  0  0  0  0
  160.0350  205.9920  152.7730 C   0  0  0  0  0  2  0  0  0  0  0  0
  161.2000  205.9060  153.7370 C   0  0  0  0  0  2  0  0  0  0  0  0
  161.5220  208.1690  152.6840 C   0  0  0  0  0  0  0  0  0  0  0  0
  160.3760  211.0750  152.2640 C   0  0  0  0  0  0  0  0  0  0  0  0
  159.4570  211.8830  151.9600 O   0  0  0  0  0  0  0  0  0  0  0  0
  162.6490  210.2570  151.8450 C   0  0  0  0  0  2  0  0  0  0  0  0
  160.5370  208.6970  155.0310 C   0  0  0  0  0  0  0  0  0  0  0  0
  159.8590  210.7290  154.7350 C   0  0  0  0  0  0  0  0  0  0  0  0
  160.7230  208.9600  153.6790 C   0  0  0  0  0  0  0  0  0  0  0  0
  161.4950  210.9750  151.4380 O   0  0  0  0  0  0  0  0  0  0  0  0
  162.3640  208.7890  151.8370 C   0  0  0  0  0  3  0  0  0  0  0  0
  160.0640  209.7810  155.6720 N   0  0  0  0  0  2  0  0  0  0  0  0
  160.2420  210.2490  153.4870 C   0  0  0  0  0  0  0  0  0  0  0  0
  161.7280  207.9200  157.0450 C   0  0  0  0  0  1  0  0  0  0  0  0
  160.9980  207.5000  155.7840 C   0  0  0  0  0  2  0  0  0  0  0  0
  159.8500  212.4900  155.1560 S   0  0  0  0  0  0  0  0  0  0  0  0
  155.4860  211.6200  156.1020 C   0  0  2  0  0  3  0  0  0  0  0  0
  156.3090  212.2040  157.2400 C   0  0  0  0  0  2  0  0  0  0  0  0
  157.2810  212.1720  154.4950 O   0  0  0  0  0  0  0  0  0  0  0  0
  157.7840  212.0930  156.8880 C   0  0  0  0  0  2  0  0  0  0  0  0
  155.8840  212.2820  154.7720 C   0  0  2  0  0  3  0  0  0  0  0  0
  158.0780  212.7300  155.5320 C   0  0  1  0  0  0  0  0  0  0  0  0
  157.8650  214.1080  155.6260 O   0  0  0  0  0  1  0  0  0  0  0  0
  154.1500  211.8940  156.3630 F   0  0  0  0  0  0  0  0  0  0  0  0
  155.2930  213.8530  153.3320 C   0  0  0  0  0  1  0  0  0  0  0  0
  155.4400  213.6140  154.7020 O   0  0  0  0  0  0  0  0  0  0  0  0
  162.1170  205.9780  151.3040 C   0  0  1  0  0  3  0  0  0  0  0  0
  160.5180  203.2390  148.8820 C   0  0  0  0  0  2  0  0  0  0  0  0
  161.5860  204.2580  149.4060 C   0  0  0  0  0  2  0  0  0  0  0  0
  160.2890  200.9310  149.9910 O   0  0  0  0  0  0  0  0  0  0  0  0
  161.3880  201.7260  150.3520 C   0  0  2  0  0  3  0  0  0  0  0  0
  161.4050  204.6660  150.9080 C   0  0  1  0  0  3  0  0  0  0  0  0
  161.5880  202.2240  151.7380 C   0  0  0  0  0  3  0  0  0  0  0  0
  161.6600  203.5670  151.9590 C   0  0  0  0  0  3  0  0  0  0  0  0
  160.0720  202.3220  150.0090 C   0  0  1  0  0  3  0  0  0  0  0  0
  162.4340  206.8910  150.1030 C   0  0  0  0  0  2  0  0  0  0  0  0
  161.2000  207.2890  149.2890 C   0  0  0  0  0  2  0  0  0  0  0  0
  161.5700  207.6500  147.8500 C   0  0  0  0  0  2  0  0  0  0  0  0
  162.0500  204.5430  145.5680 C   0  0  0  0  0  0  0  0  0  0  0  0
  162.9640  203.5260  145.3030 O   0  0  0  0  0  1  0  0  0  0  0  0
  162.3750  205.5500  146.5030 C   0  0  0  0  0  0  0  0  0  0  0  0
  159.8460  205.4970  145.2880 C   0  0  0  0  0  3  0  0  0  0  0  0
  161.4250  206.5760  146.7980 C   0  0  0  0  0  0  0  0  0  0  0  0
  163.7250  205.5030  147.1440 C   0  0  0  0  0  1  0  0  0  0  0  0
  160.1560  206.4910  146.2210 C   0  0  0  0  0  3  0  0  0  0  0  0
  160.8040  204.5650  144.9110 C   0  0  0  0  0  0  0  0  0  0  0  0
  160.4250  203.5150  143.9230 C   0  0  0  0  0  2  0  0  0  0  0  0
  159.2660  202.6990  144.4490 C   0  0  0  0  0  2  0  0  0  0  0  0
  159.7740  201.6030  145.1700 O   0  0  0  0  0  1  0  0  0  0  0  0
  1  4  1  0  0  0  0
  1  2  1  0  0  0  0
  1  3  1  0  0  0  0
  2  3  1  0  0  0  0
  4 10  1  0  0  0  0
  5 14  1  0  0  0  0
  6  5  2  0  0  0  0
  8 13  1  0  0  0  0
  8 16  1  0  0  0  0
  9 17  1  0  0  0  0
  9 13  1  0  0  0  0
 10  8  2  0  0  0  0
 11  7  1  0  0  0  0
 11  5  1  0  0  0  0
 12  7  1  0  0  0  0
 12  4  2  0  0  0  0
 14 10  1  0  0  0  0
 14  9  2  0  0  0  0
 16 15  1  0  0  0  0
 17 23  1  0  0  0  0
 18 25  1  1  0  0  0
 18 19  1  0  0  0  0
 20 22  1  0  0  0  0
 20 23  1  0  0  0  0
 21 19  1  0  0  0  0
 22 27  1  1  0  0  0
 22 18  1  0  0  0  0
 23 24  1  1  0  0  0
 23 21  1  0  0  0  0
 26 27  1  0  0  0  0
 28 37  1  6  0  0  0
 28  1  1  0  0  0  0
 29 30  1  0  0  0  0
 30 33  1  0  0  0  0
 31 36  1  0  0  0  0
 31 32  1  0  0  0  0
 32 34  1  1  0  0  0
 33 28  1  1  0  0  0
 33 35  1  0  0  0  0
 34 35  2  0  0  0  0
 36 29  1  6  0  0  0
 36 32  1  0  0  0  0
 38 37  1  0  0  0  0
 39 38  1  0  0  0  0
 40 42  1  0  0  0  0
 41 40  1  0  0  0  0
 42 44  2  0  0  0  0
 42 45  1  0  0  0  0
 43 46  2  0  0  0  0
 44 39  1  0  0  0  0
 46 44  1  0  0  0  0
 47 43  1  0  0  0  0
 47 40  2  0  0  0  0
 48 49  1  0  0  0  0
 48 47  1  0  0  0  0
 49 50  1  0  0  0  0
M  END
>  <MODEL>
6

>  <REMARK>
 VINA RESULT:      -3.4      1.793      2.961
  Name = 
  13 active torsions:
  status: ('A' for Active; 'I' for Inactive)
    1  A    between atoms: C_3  and  C_6
    2  A    between atoms: C_3  and  C_11
    3  A    between atoms: C_11  and  C_35
    4  A    between atoms: C_11  and  C_41
    5  A    between atoms: C_12  and  C_36
    6  A    between atoms: C_12  and  C_45
    7  A    between atoms: C_16  and  C_42
    8  A    between atoms: C_24  and  C_37
    9  A    between atoms: C_25  and  O_38
   10  A    between atoms: C_26  and  S_31
   11  A    between atoms: C_27  and  S_31
   12  A    between atoms: C_37  and  C_39
   13  A    between atoms: C_39  and  C_41
                            x       y       z     vdW  Elec       q    Type
                         _______ _______ _______ _____ _____    ______ ____

>  <TORSDO>
F 13

$$$$
=
 OpenBabel11052412073D

 50 56  0  0  1  0  0  0  0  0999 V2000
  161.6310  210.7010  150.3890 C   0  0  0  0  0  0  0  0  0  0  0  0
  161.8330  209.4820  151.2610 C   0  0  0  0  0  2  0  0  0  0  0  0
  163.0040  210.3980  150.9710 C   0  0  0  0  0  2  0  0  0  0  0  0
  161.0500  211.9830  150.9650 C   0  0  0  0  0  0  0  0  0  0  0  0
  158.4540  213.6740  151.5470 C   0  0  0  0  0  0  0  0  0  0  0  0
  157.2050  213.8050  151.6590 O   0  0  0  0  0  0  0  0  0  0  0  0
  160.5330  214.3950  150.4660 C   0  0  0  0  0  2  0  0  0  0  0  0
  160.7450  211.6260  153.5220 C   0  0  0  0  0  0  0  0  0  0  0  0
  159.0260  212.8810  153.9010 C   0  0  0  0  0  0  0  0  0  0  0  0
  160.3170  212.0620  152.2730 C   0  0  0  0  0  0  0  0  0  0  0  0
  159.1160  214.3240  150.5070 O   0  0  0  0  0  0  0  0  0  0  0  0
  161.1010  213.0490  150.1450 C   0  0  0  0  0  3  0  0  0  0  0  0
  159.9960  212.1630  154.5020 N   0  0  0  0  0  2  0  0  0  0  0  0
  159.1850  212.8280  152.5200 C   0  0  0  0  0  0  0  0  0  0  0  0
  162.0680  210.5700  155.3150 C   0  0  0  0  0  1  0  0  0  0  0  0
  161.9910  210.8740  153.8310 C   0  0  0  0  0  2  0  0  0  0  0  0
  158.2020  214.2550  154.7480 S   0  0  0  0  0  0  0  0  0  0  0  0
  155.0510  211.2380  156.0390 C   0  0  2  0  0  3  0  0  0  0  0  0
  156.4420  211.0330  156.6170 C   0  0  0  0  0  2  0  0  0  0  0  0
  155.6910  213.4890  155.2440 O   0  0  0  0  0  0  0  0  0  0  0  0
  157.4330  211.8720  155.8240 C   0  0  0  0  0  2  0  0  0  0  0  0
  154.7220  212.7390  155.9790 C   0  0  2  0  0  3  0  0  0  0  0  0
  157.0020  213.3360  155.7750 C   0  0  1  0  0  0  0  0  0  0  0  0
  157.0740  213.8710  157.0640 O   0  0  0  0  0  1  0  0  0  0  0  0
  154.1460  210.6100  156.8840 F   0  0  0  0  0  0  0  0  0  0  0  0
  153.4690  214.1930  157.0780 C   0  0  0  0  0  1  0  0  0  0  0  0
  154.5080  213.2760  157.2610 O   0  0  0  0  0  0  0  0  0  0  0  0
  161.4290  210.3530  148.9020 C   0  0  1  0  0  3  0  0  0  0  0  0
  163.0360  213.5930  147.2150 C   0  0  0  0  0  2  0  0  0  0  0  0
  162.9290  212.0910  147.6480 C   0  0  0  0  0  2  0  0  0  0  0  0
  161.6830  214.4530  145.2050 O   0  0  0  0  0  0  0  0  0  0  0  0
  161.7180  213.0680  145.4280 C   0  0  2  0  0  3  0  0  0  0  0  0
  161.4830  211.6370  148.0450 C   0  0  1  0  0  3  0  0  0  0  0  0
  160.4960  212.2830  145.7450 C   0  0  0  0  0  3  0  0  0  0  0  0
  160.4380  211.5840  146.9130 C   0  0  0  0  0  3  0  0  0  0  0  0
  161.7450  214.0400  146.5500 C   0  0  1  0  0  3  0  0  0  0  0  0
  162.3600  209.2350  148.3890 C   0  0  0  0  0  2  0  0  0  0  0  0
  162.0220  207.8490  148.9450 C   0  0  0  0  0  2  0  0  0  0  0  0
  161.0740  207.0890  148.0170 C   0  0  0  0  0  2  0  0  0  0  0  0
  161.0690  203.2790  148.7750 C   0  0  0  0  0  0  0  0  0  0  0  0
  160.8430  202.3840  149.8180 O   0  0  0  0  0  1  0  0  0  0  0  0
  161.0130  204.6690  149.0210 C   0  0  0  0  0  0  0  0  0  0  0  0
  161.4310  203.6990  146.4220 C   0  0  0  0  0  3  0  0  0  0  0  0
  161.2160  205.5870  147.9460 C   0  0  0  0  0  0  0  0  0  0  0  0
  160.7510  205.1220  150.4220 C   0  0  0  0  0  1  0  0  0  0  0  0
  161.3650  205.0750  146.6550 C   0  0  0  0  0  3  0  0  0  0  0  0
  161.3500  202.8020  147.4800 C   0  0  0  0  0  0  0  0  0  0  0  0
  161.4110  201.3430  147.1820 C   0  0  0  0  0  2  0  0  0  0  0  0
  160.5580  201.0200  145.9760 C   0  0  0  0  0  2  0  0  0  0  0  0
  160.7540  199.6700  145.6310 O   0  0  0  0  0  1  0  0  0  0  0  0
  1  4  1  0  0  0  0
  1  3  1  0  0  0  0
  1  2  1  0  0  0  0
  3  2  1  0  0  0  0
  4 10  1  0  0  0  0
  5  6  2  0  0  0  0
  5 14  1  0  0  0  0
  7 11  1  0  0  0  0
  8 16  1  0  0  0  0
  8 13  1  0  0  0  0
  9 13  1  0  0  0  0
  9 17  1  0  0  0  0
 10 14  1  0  0  0  0
 10  8  2  0  0  0  0
 11  5  1  0  0  0  0
 12  7  1  0  0  0  0
 12  4  2  0  0  0  0
 14  9  2  0  0  0  0
 16 15  1  0  0  0  0
 17 23  1  0  0  0  0
 18 19  1  0  0  0  0
 18 25  1  1  0  0  0
 20 23  1  0  0  0  0
 20 22  1  0  0  0  0
 21 19  1  0  0  0  0
 22 18  1  0  0  0  0
 22 27  1  1  0  0  0
 23 21  1  0  0  0  0
 23 24  1  1  0  0  0
 26 27  1  0  0  0  0
 28 37  1  6  0  0  0
 28  1  1  0  0  0  0
 29 30  1  0  0  0  0
 30 33  1  0  0  0  0
 31 32  1  0  0  0  0
 31 36  1  0  0  0  0
 32 34  1  1  0  0  0
 32 36  1  0  0  0  0
 33 28  1  6  0  0  0
 34 35  2  0  0  0  0
 35 33  1  0  0  0  0
 36 29  1  6  0  0  0
 37 38  1  0  0  0  0
 39 38  1  0  0  0  0
 40 42  1  0  0  0  0
 40 41  1  0  0  0  0
 42 45  1  0  0  0  0
 43 46  2  0  0  0  0
 43 47  1  0  0  0  0
 44 39  1  0  0  0  0
 44 42  2  0  0  0  0
 46 44  1  0  0  0  0
 47 40  2  0  0  0  0
 48 47  1  0  0  0  0
 49 48  1  0  0  0  0
 50 49  1  0  0  0  0
M  END
>  <MODEL>
7

>  <REMARK>
 VINA RESULT:      -3.3      3.018      6.158
  Name = 
  13 active torsions:
  status: ('A' for Active; 'I' for Inactive)
    1  A    between atoms: C_3  and  C_6
    2  A    between atoms: C_3  and  C_11
    3  A    between atoms: C_11  and  C_35
    4  A    between atoms: C_11  and  C_41
    5  A    between atoms: C_12  and  C_36
    6  A    between atoms: C_12  and  C_45
    7  A    between atoms: C_16  and  C_42
    8  A    between atoms: C_24  and  C_37
    9  A    between atoms: C_25  and  O_38
   10  A    between atoms: C_26  and  S_31
   11  A    between atoms: C_27  and  S_31
   12  A    between atoms: C_37  and  C_39
   13  A    between atoms: C_39  and  C_41
                            x       y       z     vdW  Elec       q    Type
                         _______ _______ _______ _____ _____    ______ ____

>  <TORSDO>
F 13

$$$$
=
 OpenBabel11052412073D

 50 56  0  0  1  0  0  0  0  0999 V2000
  161.1260  206.9280  149.8360 C   0  0  0  0  0  0  0  0  0  0  0  0
  160.1420  206.9380  148.6870 C   0  0  0  0  0  2  0  0  0  0  0  0
  159.6640  206.5850  150.0810 C   0  0  0  0  0  2  0  0  0  0  0  0
  161.5220  208.2210  150.5330 C   0  0  0  0  0  0  0  0  0  0  0  0
  160.6570  211.1280  151.3890 C   0  0  0  0  0  0  0  0  0  0  0  0
  159.7960  212.0280  151.5850 O   0  0  0  0  0  0  0  0  0  0  0  0
  162.7010  210.4240  150.2340 C   0  0  0  0  0  2  0  0  0  0  0  0
  161.0630  207.9130  153.0730 C   0  0  0  0  0  0  0  0  0  0  0  0
  160.5780  209.9420  153.6430 C   0  0  0  0  0  0  0  0  0  0  0  0
  161.0200  208.6350  151.8860 C   0  0  0  0  0  0  0  0  0  0  0  0
  161.5810  211.2860  150.3570 O   0  0  0  0  0  0  0  0  0  0  0  0
  162.2540  209.0690  149.7870 C   0  0  0  0  0  3  0  0  0  0  0  0
  160.8470  208.7140  154.1320 N   0  0  0  0  0  2  0  0  0  0  0  0
  160.6620  209.9250  152.2540 C   0  0  0  0  0  0  0  0  0  0  0  0
  160.9800  205.9420  154.5530 C   0  0  0  0  0  1  0  0  0  0  0  0
  161.5190  206.5080  153.2530 C   0  0  0  0  0  2  0  0  0  0  0  0
  160.8510  211.4350  154.6310 S   0  0  0  0  0  0  0  0  0  0  0  0
  156.4380  211.0280  155.6590 C   0  0  2  0  0  3  0  0  0  0  0  0
  157.3480  211.4540  156.7990 C   0  0  0  0  0  2  0  0  0  0  0  0
  158.2470  211.4500  154.0290 O   0  0  0  0  0  0  0  0  0  0  0  0
  158.7930  211.1910  156.4010 C   0  0  0  0  0  2  0  0  0  0  0  0
  156.8790  211.7060  154.3510 C   0  0  2  0  0  3  0  0  0  0  0  0
  159.1280  211.8590  155.0690 C   0  0  1  0  0  0  0  0  0  0  0  0
  159.0790  213.2460  155.2350 O   0  0  0  0  0  1  0  0  0  0  0  0
  155.1490  211.4410  155.9700 F   0  0  0  0  0  0  0  0  0  0  0  0
  156.6340  213.4460  153.0080 C   0  0  0  0  0  1  0  0  0  0  0  0
  156.5930  213.0830  154.3580 O   0  0  0  0  0  0  0  0  0  0  0  0
  162.1060  205.7400  149.7820 C   0  0  1  0  0  3  0  0  0  0  0  0
  160.3520  202.3140  148.7270 C   0  0  0  0  0  2  0  0  0  0  0  0
  161.4680  203.4130  148.7720 C   0  0  0  0  0  2  0  0  0  0  0  0
  160.0700  200.6850  150.6950 O   0  0  0  0  0  0  0  0  0  0  0  0
  161.2050  201.5110  150.6850 C   0  0  2  0  0  3  0  0  0  0  0  0
  161.3390  204.4130  149.9710 C   0  0  1  0  0  3  0  0  0  0  0  0
  161.4570  202.5290  151.7380 C   0  0  0  0  0  3  0  0  0  0  0  0
  161.5820  203.8380  151.3810 C   0  0  0  0  0  3  0  0  0  0  0  0
  159.9020  201.9660  150.1360 C   0  0  1  0  0  3  0  0  0  0  0  0
  163.0270  205.7450  148.5450 C   0  0  0  0  0  2  0  0  0  0  0  0
  162.6370  206.7830  147.4900 C   0  0  0  0  0  2  0  0  0  0  0  0
  162.6960  206.1980  146.0790 C   0  0  0  0  0  2  0  0  0  0  0  0
  159.9890  203.6760  144.8940 C   0  0  0  0  0  0  0  0  0  0  0  0
  158.7370  203.6400  144.2850 O   0  0  0  0  0  1  0  0  0  0  0  0
  160.5830  204.9210  145.2000 C   0  0  0  0  0  0  0  0  0  0  0  0
  161.9680  202.5270  145.6740 C   0  0  0  0  0  3  0  0  0  0  0  0
  161.8790  204.9590  145.7980 C   0  0  0  0  0  0  0  0  0  0  0  0
  159.8080  206.1620  144.8910 C   0  0  0  0  0  1  0  0  0  0  0  0
  162.5670  203.7550  145.9690 C   0  0  0  0  0  3  0  0  0  0  0  0
  160.6630  202.4780  145.2000 C   0  0  0  0  0  0  0  0  0  0  0  0
  160.0700  201.1470  144.8860 C   0  0  0  0  0  2  0  0  0  0  0  0
  160.6750  200.0830  145.7730 C   0  0  0  0  0  2  0  0  0  0  0  0
  160.8390  198.9050  145.0220 O   0  0  0  0  0  1  0  0  0  0  0  0
  1  3  1  0  0  0  0
  1  4  1  0  0  0  0
  2  1  1  0  0  0  0
  2  3  1  0  0  0  0
  4 10  1  0  0  0  0
  5  6  2  0  0  0  0
  5 14  1  0  0  0  0
  7 11  1  0  0  0  0
  8 16  1  0  0  0  0
  8 13  1  0  0  0  0
  9 13  1  0  0  0  0
  9 17  1  0  0  0  0
 10 14  1  0  0  0  0
 10  8  2  0  0  0  0
 11  5  1  0  0  0  0
 12  7  1  0  0  0  0
 12  4  2  0  0  0  0
 14  9  2  0  0  0  0
 16 15  1  0  0  0  0
 17 23  1  0  0  0  0
 18 25  1  1  0  0  0
 18 19  1  0  0  0  0
 20 22  1  0  0  0  0
 20 23  1  0  0  0  0
 21 19  1  0  0  0  0
 22 27  1  1  0  0  0
 22 18  1  0  0  0  0
 23 24  1  1  0  0  0
 23 21  1  0  0  0  0
 26 27  1  0  0  0  0
 28 37  1  6  0  0  0
 28  1  1  0  0  0  0
 29 30  1  0  0  0  0
 30 33  1  0  0  0  0
 32 31  1  0  0  0  0
 32 34  1  1  0  0  0
 33 28  1  6  0  0  0
 33 35  1  0  0  0  0
 35 34  2  0  0  0  0
 36 29  1  6  0  0  0
 36 32  1  0  0  0  0
 36 31  1  0  0  0  0
 38 37  1  0  0  0  0
 39 38  1  0  0  0  0
 40 47  2  0  0  0  0
 40 42  1  0  0  0  0
 41 40  1  0  0  0  0
 42 44  2  0  0  0  0
 43 46  2  0  0  0  0
 44 46  1  0  0  0  0
 44 39  1  0  0  0  0
 45 42  1  0  0  0  0
 47 43  1  0  0  0  0
 48 47  1  0  0  0  0
 48 49  1  0  0  0  0
 50 49  1  0  0  0  0
M  END
>  <MODEL>
8

>  <REMARK>
 VINA RESULT:      -3.1      1.843      3.456
  Name = 
  13 active torsions:
  status: ('A' for Active; 'I' for Inactive)
    1  A    between atoms: C_3  and  C_6
    2  A    between atoms: C_3  and  C_11
    3  A    between atoms: C_11  and  C_35
    4  A    between atoms: C_11  and  C_41
    5  A    between atoms: C_12  and  C_36
    6  A    between atoms: C_12  and  C_45
    7  A    between atoms: C_16  and  C_42
    8  A    between atoms: C_24  and  C_37
    9  A    between atoms: C_25  and  O_38
   10  A    between atoms: C_26  and  S_31
   11  A    between atoms: C_27  and  S_31
   12  A    between atoms: C_37  and  C_39
   13  A    between atoms: C_39  and  C_41
                            x       y       z     vdW  Elec       q    Type
                         _______ _______ _______ _____ _____    ______ ____

>  <TORSDO>
F 13

$$$$
=
 OpenBabel11052412073D

 50 56  0  0  1  0  0  0  0  0999 V2000
  161.4990  206.8650  152.3880 C   0  0  0  0  0  0  0  0  0  0  0  0
  160.2260  206.0750  152.6010 C   0  0  0  0  0  2  0  0  0  0  0  0
  161.2980  206.0730  153.6720 C   0  0  0  0  0  2  0  0  0  0  0  0
  161.5410  208.3620  152.6540 C   0  0  0  0  0  0  0  0  0  0  0  0
  160.1050  211.1450  152.3000 C   0  0  0  0  0  0  0  0  0  0  0  0
  159.1050  211.8620  152.0280 O   0  0  0  0  0  0  0  0  0  0  0  0
  162.4370  210.5600  151.8170 C   0  0  0  0  0  2  0  0  0  0  0  0
  160.5650  208.7630  155.0300 C   0  0  0  0  0  0  0  0  0  0  0  0
  159.6850  210.7220  154.7770 C   0  0  0  0  0  0  0  0  0  0  0  0
  160.6920  209.0590  153.6770 C   0  0  0  0  0  0  0  0  0  0  0  0
  161.2080  211.1650  151.4470 O   0  0  0  0  0  0  0  0  0  0  0  0
  162.2970  209.0710  151.7960 C   0  0  0  0  0  3  0  0  0  0  0  0
  160.0050  209.7880  155.6960 N   0  0  0  0  0  2  0  0  0  0  0  0
  160.0830  210.2960  153.5140 C   0  0  0  0  0  0  0  0  0  0  0  0
  161.0640  207.8220  157.2540 C   0  0  0  0  0  1  0  0  0  0  0  0
  161.1610  207.6090  155.7550 C   0  0  0  0  0  2  0  0  0  0  0  0
  159.5140  212.4690  155.2220 S   0  0  0  0  0  0  0  0  0  0  0  0
  155.5010  213.5170  157.0920 C   0  0  2  0  0  3  0  0  0  0  0  0
  155.8040  214.1770  155.7570 C   0  0  0  0  0  2  0  0  0  0  0  0
  157.4010  211.9670  156.7800 O   0  0  0  0  0  0  0  0  0  0  0  0
  157.2870  214.0220  155.4560 C   0  0  0  0  0  2  0  0  0  0  0  0
  156.0100  212.0650  157.0890 C   0  0  2  0  0  3  0  0  0  0  0  0
  157.7140  212.5580  155.5230 C   0  0  1  0  0  0  0  0  0  0  0  0
  157.0920  211.8580  154.4860 O   0  0  0  0  0  1  0  0  0  0  0  0
  154.1220  213.5130  157.2580 F   0  0  0  0  0  0  0  0  0  0  0  0
  154.6290  210.3380  157.1350 C   0  0  0  0  0  1  0  0  0  0  0  0
  155.2300  211.2430  156.2560 O   0  0  0  0  0  0  0  0  0  0  0  0
  162.4320  206.2330  151.3360 C   0  0  1  0  0  3  0  0  0  0  0  0
  162.1480  202.2720  151.7310 C   0  0  0  0  0  2  0  0  0  0  0  0
  162.1550  203.7730  152.1810 C   0  0  0  0  0  2  0  0  0  0  0  0
  160.0850  201.2920  150.5510 O   0  0  0  0  0  0  0  0  0  0  0  0
  159.9700  202.5710  151.1190 C   0  0  2  0  0  3  0  0  0  0  0  0
  161.9660  204.7970  151.0100 C   0  0  1  0  0  3  0  0  0  0  0  0
  159.6970  203.7820  150.3010 C   0  0  0  0  0  3  0  0  0  0  0  0
  160.5880  204.8130  150.3200 C   0  0  0  0  0  3  0  0  0  0  0  0
  161.2440  202.0920  150.5240 C   0  0  1  0  0  3  0  0  0  0  0  0
  162.6460  207.1090  150.0850 C   0  0  0  0  0  2  0  0  0  0  0  0
  161.4520  207.1160  149.1260 C   0  0  0  0  0  2  0  0  0  0  0  0
  161.8930  206.8850  147.6810 C   0  0  0  0  0  2  0  0  0  0  0  0
  160.5070  204.1840  145.2570 C   0  0  0  0  0  0  0  0  0  0  0  0
  159.7880  204.0610  144.0700 O   0  0  0  0  0  1  0  0  0  0  0  0
  160.7180  205.4620  145.8190 C   0  0  0  0  0  0  0  0  0  0  0  0
  161.8620  203.1840  146.9930 C   0  0  0  0  0  3  0  0  0  0  0  0
  161.4800  205.5910  147.0200 C   0  0  0  0  0  0  0  0  0  0  0  0
  160.1120  206.6410  145.1260 C   0  0  0  0  0  1  0  0  0  0  0  0
  162.0840  204.4470  147.5490 C   0  0  0  0  0  3  0  0  0  0  0  0
  161.0260  203.0380  145.8920 C   0  0  0  0  0  0  0  0  0  0  0  0
  160.8290  201.6750  145.3250 C   0  0  0  0  0  2  0  0  0  0  0  0
  161.2310  200.6250  146.3360 C   0  0  0  0  0  2  0  0  0  0  0  0
  160.9920  199.3520  145.7880 O   0  0  0  0  0  1  0  0  0  0  0  0
  1  2  1  0  0  0  0
  1  4  1  0  0  0  0
  1  3  1  0  0  0  0
  2  3  1  0  0  0  0
  4 10  1  0  0  0  0
  5 14  1  0  0  0  0
  6  5  2  0  0  0  0
  8 13  1  0  0  0  0
  8 16  1  0  0  0  0
  9 17  1  0  0  0  0
  9 13  1  0  0  0  0
 10  8  2  0  0  0  0
 11  7  1  0  0  0  0
 11  5  1  0  0  0  0
 12  7  1  0  0  0  0
 12  4  2  0  0  0  0
 14 10  1  0  0  0  0
 14  9  2  0  0  0  0
 16 15  1  0  0  0  0
 17 23  1  0  0  0  0
 18 25  1  6  0  0  0
 19 18  1  0  0  0  0
 20 22  1  0  0  0  0
 21 23  1  0  0  0  0
 21 19  1  0  0  0  0
 22 27  1  6  0  0  0
 22 18  1  0  0  0  0
 23 24  1  6  0  0  0
 23 20  1  0  0  0  0
 27 26  1  0  0  0  0
 28 37  1  6  0  0  0
 28  1  1  0  0  0  0
 29 30  1  0  0  0  0
 31 32  1  0  0  0  0
 32 34  1  6  0  0  0
 33 28  1  1  0  0  0
 33 30  1  0  0  0  0
 34 35  2  0  0  0  0
 35 33  1  0  0  0  0
 36 31  1  0  0  0  0
 36 32  1  0  0  0  0
 36 29  1  1  0  0  0
 38 37  1  0  0  0  0
 39 38  1  0  0  0  0
 40 42  2  0  0  0  0
 40 47  1  0  0  0  0
 41 40  1  0  0  0  0
 42 44  1  0  0  0  0
 43 46  1  0  0  0  0
 44 46  2  0  0  0  0
 44 39  1  0  0  0  0
 45 42  1  0  0  0  0
 47 43  2  0  0  0  0
 48 47  1  0  0  0  0
 48 49  1  0  0  0  0
 50 49  1  0  0  0  0
M  END
>  <MODEL>
9

>  <REMARK>
 VINA RESULT:      -3.1      1.988      3.153
  Name = 
  13 active torsions:
  status: ('A' for Active; 'I' for Inactive)
    1  A    between atoms: C_3  and  C_6
    2  A    between atoms: C_3  and  C_11
    3  A    between atoms: C_11  and  C_35
    4  A    between atoms: C_11  and  C_41
    5  A    between atoms: C_12  and  C_36
    6  A    between atoms: C_12  and  C_45
    7  A    between atoms: C_16  and  C_42
    8  A    between atoms: C_24  and  C_37
    9  A    between atoms: C_25  and  O_38
   10  A    between atoms: C_26  and  S_31
   11  A    between atoms: C_27  and  S_31
   12  A    between atoms: C_37  and  C_39
   13  A    between atoms: C_39  and  C_41
                            x       y       z     vdW  Elec       q    Type
                         _______ _______ _______ _____ _____    ______ ____

>  <TORSDO>
F 13

$$$$
