=
 OpenBabel11052412153D

 41 44  0  0  1  0  0  0  0  0999 V2000
  160.0780  209.4410  155.6220 C   0  0  0  0  0  0  0  0  0  0  0  0
  160.5130  211.5040  153.2500 C   0  0  0  0  0  2  0  0  0  0  0  0
  160.8070  210.1800  152.6410 C   0  0  0  0  0  3  0  0  0  0  0  0
  160.5220  208.7210  154.6240 N   0  0  0  0  0  0  0  0  0  0  0  0
  159.7970  210.9130  155.5680 C   0  0  1  0  0  3  0  0  0  0  0  0
  160.8470  208.9760  153.2370 C   0  0  0  0  0  0  0  0  0  0  0  0
  160.9650  211.6940  156.1570 C   0  0  0  0  0  1  0  0  0  0  0  0
  159.3400  211.4030  154.1990 C   0  0  1  0  0  3  0  0  0  0  0  0
  159.8600  208.8260  156.8600 O   0  0  0  0  0  0  0  0  0  0  0  0
  160.2770  207.4950  157.1330 C   0  0  0  0  0  1  0  0  0  0  0  0
  161.2170  207.8030  152.4040 C   0  0  0  0  0  0  0  0  0  0  0  0
  161.4550  207.9750  151.0990 C   0  0  0  0  0  3  0  0  0  0  0  0
  161.3130  206.4810  152.9910 C   0  0  0  0  0  0  0  0  0  0  0  0
  161.3950  205.3820  153.4780 C   0  0  0  0  0  3  0  0  0  0  0  0
  161.8430  206.8690  150.1680 C   0  0  0  0  0  2  0  0  0  0  0  0
  160.6110  206.2730  149.5050 C   0  0  0  0  0  2  0  0  0  0  0  0
  160.2470  204.9390  150.1380 C   0  0  0  0  0  2  0  0  0  0  0  0
  161.0080  203.8110  149.4630 C   0  0  1  0  0  3  0  0  0  0  0  0
  160.4220  202.5850  149.7840 O   0  0  0  0  0  1  0  0  0  0  0  0
  160.9810  203.9910  148.0210 N   0  0  0  0  0  2  0  0  0  0  0  0
  162.0160  202.9730  146.1140 C   0  0  1  0  0  3  0  0  0  0  0  0
  162.1230  206.6510  146.6490 C   0  0  0  0  0  2  0  0  0  0  0  0
  162.6770  204.2770  146.3530 C   0  0  2  0  0  3  0  0  0  0  0  0
  162.1890  203.4720  147.5100 N   0  0  0  0  0  0  0  0  0  0  0  0
  160.2050  201.7930  145.0780 O   0  0  0  0  0  1  0  0  0  0  0  0
  160.9350  206.3640  143.9840 O   0  0  0  0  0  1  0  0  0  0  0  0
  160.4830  204.0770  144.4640 C   0  0  0  0  0  2  0  0  0  0  0  0
  160.5730  203.0430  145.5740 C   0  0  2  0  0  3  0  0  0  0  0  0
  160.7050  205.4720  145.0340 C   0  0  1  0  0  3  0  0  0  0  0  0
  161.8520  205.5130  146.0160 C   0  0  0  0  0  0  0  0  0  0  0  0
  158.5580  212.6420  154.2730 N   0  0  0  0  0  2  0  0  0  0  0  0
  159.1390  213.6310  153.4580 N   0  0  0  0  0  2  0  0  0  0  0  0
  156.0160  214.1370  151.9460 O   0  0  0  0  0  0  0  0  0  0  0  0
  158.5450  214.0560  152.2280 C   0  0  0  0  0  0  0  0  0  0  0  0
  157.2460  214.0970  152.0820 C   0  0  0  0  0  0  0  0  0  0  0  0
  159.4190  214.4510  151.0920 C   0  0  0  0  0  2  0  0  0  0  0  0
  159.7350  213.2840  150.2850 N   0  0  0  0  0  2  0  0  0  0  0  0
  160.7540  213.6810  149.3260 C   0  0  0  0  0  2  0  0  0  0  0  0
  161.4460  212.6980  147.2080 N   0  0  0  0  0  2  0  0  0  0  0  0
  161.3460  212.4560  148.6530 C   0  0  1  0  0  3  0  0  0  0  0  0
  162.6360  212.8000  148.0680 C   0  0  0  0  0  2  0  0  0  0  0  0
  1  9  1  0  0  0  0
  2  8  1  0  0  0  0
  3  6  2  0  0  0  0
  3  2  1  0  0  0  0
  4  1  2  0  0  0  0
  5  1  1  0  0  0  0
  5  7  1  6  0  0  0
  6  4  1  0  0  0  0
  8 31  1  1  0  0  0
  8  5  1  0  0  0  0
  9 10  1  0  0  0  0
 11 13  1  0  0  0  0
 11  6  1  0  0  0  0
 12 11  2  0  0  0  0
 13 14  3  0  0  0  0
 15 12  1  0  0  0  0
 16 17  1  0  0  0  0
 16 15  1  0  0  0  0
 18 19  1  6  0  0  0
 18 17  1  0  0  0  0
 20 18  1  0  0  0  0
 21 23  1  0  0  0  0
 21 24  1  1  0  0  0
 23 30  1  6  0  0  0
 23 24  1  0  0  0  0
 24 20  1  0  0  0  0
 27 29  1  0  0  0  0
 27 28  1  0  0  0  0
 28 25  1  6  0  0  0
 28 21  1  0  0  0  0
 29 26  1  6  0  0  0
 29 30  1  0  0  0  0
 30 22  2  0  0  0  0
 32 31  1  0  0  0  0
 33 35  2  0  0  0  0
 34 32  1  0  0  0  0
 35 34  2  0  0  0  0
 36 34  1  0  0  0  0
 37 36  1  0  0  0  0
 38 37  1  0  0  0  0
 39 41  1  0  0  0  0
 39 40  1  0  0  0  0
 40 38  1  1  0  0  0
 41 40  1  0  0  0  0
M  END
>  <MODEL>
1

>  <REMARK>
 VINA RESULT:      -6.6      0.000      0.000
  Name = 
  16 active torsions:
  status: ('A' for Active; 'I' for Inactive)
    1  A    between atoms: C_1  and  O_6
    2  A    between atoms: C_5  and  C_15
    3  A    between atoms: C_5  and  N_23
    4  A    between atoms: N_7  and  N_11
    5  A    between atoms: N_7  and  C_20
    6  A    between atoms: C_8  and  C_35
    7  A    between atoms: N_9  and  C_22
    8  A    between atoms: N_9  and  C_35
    9  A    between atoms: C_10  and  C_28
   10  A    between atoms: C_10  and  C_33
   11  A    between atoms: N_11  and  C_36
   12  A    between atoms: N_14  and  N_23
   13  A    between atoms: C_15  and  C_26
   14  A    between atoms: C_16  and  C_26
   15  A    between atoms: C_16  and  C_32
   16  A    between atoms: C_20  and  C_22
                            x       y       z     vdW  Elec       q    Type
                         _______ _______ _______ _____ _____    ______ ____

>  <TORSDO>
F 16

$$$$
=
 OpenBabel11052412153D

 41 44  0  0  1  0  0  0  0  0999 V2000
  160.7220  208.6060  155.7410 C   0  0  0  0  0  0  0  0  0  0  0  0
  160.2740  211.3690  154.2460 C   0  0  0  0  0  2  0  0  0  0  0  0
  160.6220  210.4180  153.1580 C   0  0  0  0  0  3  0  0  0  0  0  0
  161.0320  208.3700  154.4920 N   0  0  0  0  0  0  0  0  0  0  0  0
  160.2110  209.9110  156.2720 C   0  0  1  0  0  3  0  0  0  0  0  0
  160.9840  209.1280  153.2600 C   0  0  0  0  0  0  0  0  0  0  0  0
  161.3480  210.7020  156.9090 C   0  0  0  0  0  1  0  0  0  0  0  0
  159.3810  210.7030  155.2680 C   0  0  1  0  0  3  0  0  0  0  0  0
  160.8940  207.5900  156.6870 O   0  0  0  0  0  0  0  0  0  0  0  0
  159.8220  206.7680  157.1270 C   0  0  0  0  0  1  0  0  0  0  0  0
  161.3310  208.4050  152.0090 C   0  0  0  0  0  0  0  0  0  0  0  0
  161.3190  207.0670  152.0020 C   0  0  0  0  0  3  0  0  0  0  0  0
  161.6880  209.1330  150.8090 C   0  0  0  0  0  0  0  0  0  0  0  0
  161.9840  209.7390  149.8090 C   0  0  0  0  0  3  0  0  0  0  0  0
  161.6420  206.2360  150.8000 C   0  0  0  0  0  2  0  0  0  0  0  0
  160.4730  205.3310  150.4460 C   0  0  0  0  0  2  0  0  0  0  0  0
  160.7820  203.8840  150.7960 C   0  0  0  0  0  2  0  0  0  0  0  0
  160.9100  203.0520  149.5300 C   0  0  1  0  0  3  0  0  0  0  0  0
  159.7860  202.2380  149.3840 O   0  0  0  0  0  1  0  0  0  0  0  0
  161.0210  203.9270  148.3750 N   0  0  0  0  0  2  0  0  0  0  0  0
  162.2420  203.3790  146.3870 C   0  0  1  0  0  3  0  0  0  0  0  0
  161.5530  206.9090  147.3320 C   0  0  0  0  0  2  0  0  0  0  0  0
  162.6060  204.7600  146.7830 C   0  0  2  0  0  3  0  0  0  0  0  0
  162.3110  203.7430  147.8330 N   0  0  0  0  0  0  0  0  0  0  0  0
  160.7250  201.9620  145.1900 O   0  0  0  0  0  1  0  0  0  0  0  0
  160.4410  206.6770  144.6300 O   0  0  0  0  0  1  0  0  0  0  0  0
  160.4980  204.3060  144.8410 C   0  0  0  0  0  2  0  0  0  0  0  0
  160.8160  203.1970  145.8300 C   0  0  2  0  0  3  0  0  0  0  0  0
  160.4150  205.6430  145.5680 C   0  0  1  0  0  3  0  0  0  0  0  0
  161.5320  205.8190  146.5700 C   0  0  0  0  0  0  0  0  0  0  0  0
  158.4540  211.6390  155.9130 N   0  0  0  0  0  2  0  0  0  0  0  0
  157.8730  212.4850  154.9500 N   0  0  0  0  0  2  0  0  0  0  0  0
  155.1840  210.2450  154.7340 O   0  0  0  0  0  0  0  0  0  0  0  0
  156.4810  212.4320  154.6250 C   0  0  0  0  0  0  0  0  0  0  0  0
  155.8140  211.3090  154.6800 C   0  0  0  0  0  0  0  0  0  0  0  0
  155.7800  213.6770  154.2100 C   0  0  0  0  0  2  0  0  0  0  0  0
  156.6200  214.4320  153.2960 N   0  0  0  0  0  2  0  0  0  0  0  0
  156.2160  214.0820  151.9440 C   0  0  0  0  0  2  0  0  0  0  0  0
  158.4070  213.4590  151.0820 N   0  0  0  0  0  2  0  0  0  0  0  0
  157.3160  214.4340  150.9590 C   0  0  1  0  0  3  0  0  0  0  0  0
  157.4450  213.3690  149.9730 C   0  0  0  0  0  2  0  0  0  0  0  0
  1  5  1  0  0  0  0
  1  9  1  0  0  0  0
  2  8  1  0  0  0  0
  3  6  2  0  0  0  0
  3  2  1  0  0  0  0
  4  1  2  0  0  0  0
  5  7  1  6  0  0  0
  6  4  1  0  0  0  0
  8 31  1  1  0  0  0
  8  5  1  0  0  0  0
  9 10  1  0  0  0  0
 11  6  1  0  0  0  0
 12 11  2  0  0  0  0
 13 11  1  0  0  0  0
 14 13  3  0  0  0  0
 15 12  1  0  0  0  0
 16 17  1  0  0  0  0
 16 15  1  0  0  0  0
 18 19  1  6  0  0  0
 18 17  1  0  0  0  0
 20 18  1  0  0  0  0
 21 23  1  0  0  0  0
 21 24  1  1  0  0  0
 23 30  1  6  0  0  0
 23 24  1  0  0  0  0
 24 20  1  0  0  0  0
 27 29  1  0  0  0  0
 27 28  1  0  0  0  0
 28 25  1  6  0  0  0
 28 21  1  0  0  0  0
 29 26  1  6  0  0  0
 29 30  1  0  0  0  0
 30 22  2  0  0  0  0
 32 31  1  0  0  0  0
 34 35  2  0  0  0  0
 34 32  1  0  0  0  0
 35 33  2  0  0  0  0
 36 34  1  0  0  0  0
 37 36  1  0  0  0  0
 38 37  1  0  0  0  0
 40 39  1  0  0  0  0
 40 38  1  1  0  0  0
 41 40  1  0  0  0  0
 41 39  1  0  0  0  0
M  END
>  <MODEL>
2

>  <REMARK>
 VINA RESULT:      -6.6      1.741      2.624
  Name = 
  16 active torsions:
  status: ('A' for Active; 'I' for Inactive)
    1  A    between atoms: C_1  and  O_6
    2  A    between atoms: C_5  and  C_15
    3  A    between atoms: C_5  and  N_23
    4  A    between atoms: N_7  and  N_11
    5  A    between atoms: N_7  and  C_20
    6  A    between atoms: C_8  and  C_35
    7  A    between atoms: N_9  and  C_22
    8  A    between atoms: N_9  and  C_35
    9  A    between atoms: C_10  and  C_28
   10  A    between atoms: C_10  and  C_33
   11  A    between atoms: N_11  and  C_36
   12  A    between atoms: N_14  and  N_23
   13  A    between atoms: C_15  and  C_26
   14  A    between atoms: C_16  and  C_26
   15  A    between atoms: C_16  and  C_32
   16  A    between atoms: C_20  and  C_22
                            x       y       z     vdW  Elec       q    Type
                         _______ _______ _______ _____ _____    ______ ____

>  <TORSDO>
F 16

$$$$
=
 OpenBabel11052412153D

 41 44  0  0  1  0  0  0  0  0999 V2000
  160.0250  209.7460  155.6370 C   0  0  0  0  0  0  0  0  0  0  0  0
  159.7740  211.7830  153.2160 C   0  0  0  0  0  2  0  0  0  0  0  0
  160.3350  210.5520  152.6000 C   0  0  0  0  0  3  0  0  0  0  0  0
  160.5580  209.1260  154.6150 N   0  0  0  0  0  0  0  0  0  0  0  0
  159.3930  211.1040  155.5880 C   0  0  1  0  0  3  0  0  0  0  0  0
  160.7090  209.4110  153.2030 C   0  0  0  0  0  0  0  0  0  0  0  0
  160.3770  212.1610  156.0760 C   0  0  0  0  0  1  0  0  0  0  0  0
  158.7330  211.4300  154.2540 C   0  0  1  0  0  3  0  0  0  0  0  0
  160.0550  209.1330  156.8940 O   0  0  0  0  0  0  0  0  0  0  0  0
  160.9700  208.0960  157.2150 C   0  0  0  0  0  1  0  0  0  0  0  0
  161.2920  208.3380  152.3580 C   0  0  0  0  0  0  0  0  0  0  0  0
  161.7670  208.6450  151.1460 C   0  0  0  0  0  3  0  0  0  0  0  0
  161.3400  206.9680  152.8300 C   0  0  0  0  0  0  0  0  0  0  0  0
  161.3790  205.8300  153.2240 C   0  0  0  0  0  3  0  0  0  0  0  0
  162.3830  207.6480  150.2130 C   0  0  0  0  0  2  0  0  0  0  0  0
  161.6320  207.6200  148.8920 C   0  0  0  0  0  2  0  0  0  0  0  0
  160.5530  206.5490  148.9040 C   0  0  0  0  0  2  0  0  0  0  0  0
  161.1770  205.1750  149.0820 C   0  0  1  0  0  3  0  0  0  0  0  0
  160.6070  204.5340  150.1820 O   0  0  0  0  0  1  0  0  0  0  0  0
  160.9510  204.3730  147.8910 N   0  0  0  0  0  2  0  0  0  0  0  0
  162.2180  202.9220  146.4640 C   0  0  1  0  0  3  0  0  0  0  0  0
  160.3800  205.8570  145.1110 C   0  0  0  0  0  2  0  0  0  0  0  0
  162.0940  204.2350  145.7890 C   0  0  2  0  0  3  0  0  0  0  0  0
  162.2060  204.1750  147.2750 N   0  0  0  0  0  0  0  0  0  0  0  0
  161.2450  200.7700  146.8770 O   0  0  0  0  0  1  0  0  0  0  0  0
  159.3250  203.5970  143.5690 O   0  0  0  0  0  1  0  0  0  0  0  0
  160.2080  202.1080  145.2030 C   0  0  0  0  0  2  0  0  0  0  0  0
  160.9240  202.0850  146.5430 C   0  0  2  0  0  3  0  0  0  0  0  0
  159.6920  203.5120  144.9140 C   0  0  1  0  0  3  0  0  0  0  0  0
  160.7120  204.5760  145.2460 C   0  0  0  0  0  0  0  0  0  0  0  0
  157.6810  212.4460  154.3750 N   0  0  0  0  0  2  0  0  0  0  0  0
  157.6740  213.2730  153.2370 N   0  0  0  0  0  2  0  0  0  0  0  0
  154.5640  214.4520  154.3470 O   0  0  0  0  0  0  0  0  0  0  0  0
  156.4880  213.9200  152.7670 C   0  0  0  0  0  0  0  0  0  0  0  0
  155.4990  214.1930  153.5770 C   0  0  0  0  0  0  0  0  0  0  0  0
  156.3740  214.2830  151.3290 C   0  0  0  0  0  2  0  0  0  0  0  0
  157.5610  213.8420  150.6160 N   0  0  0  0  0  2  0  0  0  0  0  0
  157.1200  212.9840  149.5270 C   0  0  0  0  0  2  0  0  0  0  0  0
  158.6300  213.1700  147.6250 N   0  0  0  0  0  2  0  0  0  0  0  0
  157.3670  213.6630  148.1920 C   0  0  1  0  0  3  0  0  0  0  0  0
  157.3390  212.6660  147.1290 C   0  0  0  0  0  2  0  0  0  0  0  0
  1  9  1  0  0  0  0
  2  8  1  0  0  0  0
  3  6  2  0  0  0  0
  3  2  1  0  0  0  0
  4  1  2  0  0  0  0
  5  1  1  0  0  0  0
  5  7  1  6  0  0  0
  6  4  1  0  0  0  0
  8 31  1  1  0  0  0
  8  5  1  0  0  0  0
  9 10  1  0  0  0  0
 11 13  1  0  0  0  0
 11  6  1  0  0  0  0
 12 11  2  0  0  0  0
 13 14  3  0  0  0  0
 15 12  1  0  0  0  0
 16 17  1  0  0  0  0
 16 15  1  0  0  0  0
 17 18  1  0  0  0  0
 18 19  1  1  0  0  0
 20 18  1  0  0  0  0
 21 28  1  0  0  0  0
 21 24  1  1  0  0  0
 22 30  2  0  0  0  0
 23 30  1  1  0  0  0
 23 21  1  0  0  0  0
 23 24  1  0  0  0  0
 24 20  1  0  0  0  0
 27 28  1  0  0  0  0
 28 25  1  6  0  0  0
 29 26  1  6  0  0  0
 29 27  1  0  0  0  0
 29 30  1  0  0  0  0
 32 31  1  0  0  0  0
 34 32  1  0  0  0  0
 34 35  2  0  0  0  0
 35 33  2  0  0  0  0
 36 34  1  0  0  0  0
 37 36  1  0  0  0  0
 38 37  1  0  0  0  0
 39 40  1  0  0  0  0
 40 38  1  1  0  0  0
 41 39  1  0  0  0  0
 41 40  1  0  0  0  0
M  END
>  <MODEL>
3

>  <REMARK>
 VINA RESULT:      -6.4      1.842      1.980
  Name = 
  16 active torsions:
  status: ('A' for Active; 'I' for Inactive)
    1  A    between atoms: C_1  and  O_6
    2  A    between atoms: C_5  and  C_15
    3  A    between atoms: C_5  and  N_23
    4  A    between atoms: N_7  and  N_11
    5  A    between atoms: N_7  and  C_20
    6  A    between atoms: C_8  and  C_35
    7  A    between atoms: N_9  and  C_22
    8  A    between atoms: N_9  and  C_35
    9  A    between atoms: C_10  and  C_28
   10  A    between atoms: C_10  and  C_33
   11  A    between atoms: N_11  and  C_36
   12  A    between atoms: N_14  and  N_23
   13  A    between atoms: C_15  and  C_26
   14  A    between atoms: C_16  and  C_26
   15  A    between atoms: C_16  and  C_32
   16  A    between atoms: C_20  and  C_22
                            x       y       z     vdW  Elec       q    Type
                         _______ _______ _______ _____ _____    ______ ____

>  <TORSDO>
F 16

$$$$
=
 OpenBabel11052412153D

 41 44  0  0  1  0  0  0  0  0999 V2000
  161.6730  207.9260  151.1650 C   0  0  0  0  0  0  0  0  0  0  0  0
  161.3600  205.6920  153.3980 C   0  0  0  0  0  2  0  0  0  0  0  0
  160.8520  206.9290  154.0460 C   0  0  0  0  0  3  0  0  0  0  0  0
  161.2570  208.5650  152.2290 N   0  0  0  0  0  0  0  0  0  0  0  0
  161.8770  206.4440  151.0730 C   0  0  1  0  0  3  0  0  0  0  0  0
  160.8360  208.1810  153.5600 C   0  0  0  0  0  0  0  0  0  0  0  0
  163.3500  206.1020  151.2620 C   0  0  0  0  0  1  0  0  0  0  0  0
  160.9280  205.6350  151.9500 C   0  0  1  0  0  3  0  0  0  0  0  0
  161.9860  208.6560  150.0140 O   0  0  0  0  0  0  0  0  0  0  0  0
  162.0020  208.0690  148.7200 C   0  0  0  0  0  1  0  0  0  0  0  0
  160.3120  209.2590  154.4380 C   0  0  0  0  0  0  0  0  0  0  0  0
  159.8530  210.3880  153.8860 C   0  0  0  0  0  3  0  0  0  0  0  0
  160.3040  209.1010  155.8780 C   0  0  0  0  0  0  0  0  0  0  0  0
  160.2970  208.9710  157.0760 C   0  0  0  0  0  3  0  0  0  0  0  0
  159.2960  211.5350  154.6710 C   0  0  0  0  0  2  0  0  0  0  0  0
  158.3180  212.3350  153.8260 C   0  0  0  0  0  2  0  0  0  0  0  0
  158.4750  211.9980  152.3510 C   0  0  0  0  0  2  0  0  0  0  0  0
  159.6140  212.8010  151.7460 C   0  0  1  0  0  3  0  0  0  0  0  0
  160.8260  212.1470  151.9700 O   0  0  0  0  0  1  0  0  0  0  0  0
  159.4070  212.9490  150.3150 N   0  0  0  0  0  2  0  0  0  0  0  0
  161.0840  213.8600  148.8650 C   0  0  1  0  0  3  0  0  0  0  0  0
  157.5000  213.7730  147.8780 C   0  0  0  0  0  2  0  0  0  0  0  0
  159.7790  214.4530  148.4880 C   0  0  2  0  0  3  0  0  0  0  0  0
  160.0610  214.1340  149.9170 N   0  0  0  0  0  0  0  0  0  0  0  0
  162.6210  212.0410  148.5990 O   0  0  0  0  0  1  0  0  0  0  0  0
  158.8610  212.3550  145.7020 O   0  0  0  0  0  1  0  0  0  0  0  0
  160.7720  212.1050  147.1010 C   0  0  0  0  0  2  0  0  0  0  0  0
  161.2690  212.3710  148.5120 C   0  0  2  0  0  3  0  0  0  0  0  0
  159.2610  212.2880  147.0390 C   0  0  1  0  0  3  0  0  0  0  0  0
  158.8020  213.5190  147.7840 C   0  0  0  0  0  0  0  0  0  0  0  0
  160.7380  204.2630  151.4640 N   0  0  0  0  0  2  0  0  0  0  0  0
  160.5910  204.2630  150.0650 N   0  0  0  0  0  2  0  0  0  0  0  0
  160.8800  200.7720  150.2440 O   0  0  0  0  0  0  0  0  0  0  0  0
  160.9070  203.1210  149.2620 C   0  0  0  0  0  0  0  0  0  0  0  0
  160.8950  201.9150  149.7660 C   0  0  0  0  0  0  0  0  0  0  0  0
  161.2640  203.3100  147.8310 C   0  0  0  0  0  2  0  0  0  0  0  0
  161.7470  204.6650  147.6200 N   0  0  0  0  0  2  0  0  0  0  0  0
  162.5470  204.6560  146.4050 C   0  0  0  0  0  2  0  0  0  0  0  0
  160.9960  205.2180  144.6130 N   0  0  0  0  0  2  0  0  0  0  0  0
  162.0760  205.7450  145.4590 C   0  0  1  0  0  3  0  0  0  0  0  0
  160.6920  206.0850  145.7620 C   0  0  0  0  0  2  0  0  0  0  0  0
  1  4  2  0  0  0  0
  2  3  1  0  0  0  0
  4  6  1  0  0  0  0
  5  1  1  0  0  0  0
  5  7  1  1  0  0  0
  5  8  1  0  0  0  0
  6  3  2  0  0  0  0
  6 11  1  0  0  0  0
  8 31  1  6  0  0  0
  8  2  1  0  0  0  0
  9  1  1  0  0  0  0
 10  9  1  0  0  0  0
 11 13  1  0  0  0  0
 12 11  2  0  0  0  0
 12 15  1  0  0  0  0
 13 14  3  0  0  0  0
 16 15  1  0  0  0  0
 17 16  1  0  0  0  0
 18 19  1  6  0  0  0
 18 17  1  0  0  0  0
 20 18  1  0  0  0  0
 21 24  1  1  0  0  0
 23 30  1  6  0  0  0
 23 21  1  0  0  0  0
 23 24  1  0  0  0  0
 24 20  1  0  0  0  0
 27 28  1  0  0  0  0
 28 25  1  6  0  0  0
 28 21  1  0  0  0  0
 29 26  1  6  0  0  0
 29 27  1  0  0  0  0
 29 30  1  0  0  0  0
 30 22  2  0  0  0  0
 32 31  1  0  0  0  0
 34 35  2  0  0  0  0
 34 32  1  0  0  0  0
 35 33  2  0  0  0  0
 36 34  1  0  0  0  0
 37 36  1  0  0  0  0
 38 37  1  0  0  0  0
 39 40  1  0  0  0  0
 39 41  1  0  0  0  0
 40 41  1  0  0  0  0
 40 38  1  1  0  0  0
M  END
>  <MODEL>
4

>  <REMARK>
 VINA RESULT:      -6.3      2.592      8.469
  Name = 
  16 active torsions:
  status: ('A' for Active; 'I' for Inactive)
    1  A    between atoms: C_1  and  O_6
    2  A    between atoms: C_5  and  C_15
    3  A    between atoms: C_5  and  N_23
    4  A    between atoms: N_7  and  N_11
    5  A    between atoms: N_7  and  C_20
    6  A    between atoms: C_8  and  C_35
    7  A    between atoms: N_9  and  C_22
    8  A    between atoms: N_9  and  C_35
    9  A    between atoms: C_10  and  C_28
   10  A    between atoms: C_10  and  C_33
   11  A    between atoms: N_11  and  C_36
   12  A    between atoms: N_14  and  N_23
   13  A    between atoms: C_15  and  C_26
   14  A    between atoms: C_16  and  C_26
   15  A    between atoms: C_16  and  C_32
   16  A    between atoms: C_20  and  C_22
                            x       y       z     vdW  Elec       q    Type
                         _______ _______ _______ _____ _____    ______ ____

>  <TORSDO>
F 16

$$$$
=
 OpenBabel11052412153D

 41 44  0  0  1  0  0  0  0  0999 V2000
  160.0820  209.4830  155.6450 C   0  0  0  0  0  0  0  0  0  0  0  0
  160.6310  211.6060  153.3510 C   0  0  0  0  0  2  0  0  0  0  0  0
  160.8670  210.2920  152.6960 C   0  0  0  0  0  3  0  0  0  0  0  0
  160.5010  208.7790  154.6240 N   0  0  0  0  0  0  0  0  0  0  0  0
  159.8700  210.9670  155.6420 C   0  0  1  0  0  3  0  0  0  0  0  0
  160.8470  209.0680  153.2490 C   0  0  0  0  0  0  0  0  0  0  0  0
  161.0690  211.6720  156.2650 C   0  0  0  0  0  1  0  0  0  0  0  0
  159.4470  211.5260  154.2880 C   0  0  1  0  0  3  0  0  0  0  0  0
  159.8280  208.8350  156.8580 O   0  0  0  0  0  0  0  0  0  0  0  0
  160.2970  207.5230  157.1350 C   0  0  0  0  0  1  0  0  0  0  0  0
  161.1690  207.9090  152.3770 C   0  0  0  0  0  0  0  0  0  0  0  0
  161.3340  208.1030  151.0640 C   0  0  0  0  0  3  0  0  0  0  0  0
  161.2960  206.5770  152.9350 C   0  0  0  0  0  0  0  0  0  0  0  0
  161.4010  205.4690  153.3980 C   0  0  0  0  0  3  0  0  0  0  0  0
  161.6680  207.0120  150.0940 C   0  0  0  0  0  2  0  0  0  0  0  0
  160.3990  206.3960  149.5270 C   0  0  0  0  0  2  0  0  0  0  0  0
  160.1620  205.0120  150.1090 C   0  0  0  0  0  2  0  0  0  0  0  0
  161.1490  204.0170  149.5200 C   0  0  1  0  0  3  0  0  0  0  0  0
  160.8930  202.7420  150.0260 O   0  0  0  0  0  1  0  0  0  0  0  0
  161.0190  203.9920  148.0730 N   0  0  0  0  0  2  0  0  0  0  0  0
  162.0570  203.0020  146.1530 C   0  0  1  0  0  3  0  0  0  0  0  0
  162.1200  206.6770  146.7170 C   0  0  0  0  0  2  0  0  0  0  0  0
  162.7030  204.3130  146.3990 C   0  0  2  0  0  3  0  0  0  0  0  0
  162.2320  203.4930  147.5520 N   0  0  0  0  0  0  0  0  0  0  0  0
  160.2570  201.8070  145.1160 O   0  0  0  0  0  1  0  0  0  0  0  0
  160.9220  206.3960  144.0550 O   0  0  0  0  0  1  0  0  0  0  0  0
  160.5020  204.0990  144.5190 C   0  0  0  0  0  2  0  0  0  0  0  0
  160.6110  203.0580  145.6210 C   0  0  2  0  0  3  0  0  0  0  0  0
  160.7090  205.4930  145.0990 C   0  0  1  0  0  3  0  0  0  0  0  0
  161.8610  205.5410  146.0750 C   0  0  0  0  0  0  0  0  0  0  0  0
  158.7220  212.7970  154.4020 N   0  0  0  0  0  2  0  0  0  0  0  0
  158.5710  213.3830  153.1320 N   0  0  0  0  0  2  0  0  0  0  0  0
  156.7110  213.8100  150.1900 O   0  0  0  0  0  0  0  0  0  0  0  0
  157.3140  213.8790  152.6620 C   0  0  0  0  0  0  0  0  0  0  0  0
  157.0040  213.8450  151.3920 C   0  0  0  0  0  0  0  0  0  0  0  0
  156.3450  214.4510  153.6340 C   0  0  0  0  0  2  0  0  0  0  0  0
  155.6040  213.3790  154.2780 N   0  0  0  0  0  2  0  0  0  0  0  0
  155.6550  213.6170  155.7120 C   0  0  0  0  0  2  0  0  0  0  0  0
  156.1260  211.2430  155.9870 N   0  0  0  0  0  2  0  0  0  0  0  0
  155.2890  212.3510  156.4660 C   0  0  1  0  0  3  0  0  0  0  0  0
  156.4300  211.9130  157.2600 C   0  0  0  0  0  2  0  0  0  0  0  0
  1  9  1  0  0  0  0
  2  8  1  0  0  0  0
  3  6  2  0  0  0  0
  3  2  1  0  0  0  0
  4  1  2  0  0  0  0
  5  1  1  0  0  0  0
  5  7  1  6  0  0  0
  6  4  1  0  0  0  0
  8 31  1  1  0  0  0
  8  5  1  0  0  0  0
  9 10  1  0  0  0  0
 11 13  1  0  0  0  0
 11  6  1  0  0  0  0
 12 11  2  0  0  0  0
 13 14  3  0  0  0  0
 15 12  1  0  0  0  0
 16 15  1  0  0  0  0
 16 17  1  0  0  0  0
 18 19  1  1  0  0  0
 18 17  1  0  0  0  0
 20 18  1  0  0  0  0
 21 23  1  0  0  0  0
 21 24  1  1  0  0  0
 23 30  1  6  0  0  0
 23 24  1  0  0  0  0
 24 20  1  0  0  0  0
 27 29  1  0  0  0  0
 27 28  1  0  0  0  0
 28 25  1  6  0  0  0
 28 21  1  0  0  0  0
 29 26  1  6  0  0  0
 29 30  1  0  0  0  0
 30 22  2  0  0  0  0
 32 31  1  0  0  0  0
 33 35  2  0  0  0  0
 34 32  1  0  0  0  0
 34 36  1  0  0  0  0
 35 34  2  0  0  0  0
 36 37  1  0  0  0  0
 37 38  1  0  0  0  0
 39 40  1  0  0  0  0
 39 41  1  0  0  0  0
 40 38  1  6  0  0  0
 40 41  1  0  0  0  0
M  END
>  <MODEL>
5

>  <REMARK>
 VINA RESULT:      -6.2      1.829      3.321
  Name = 
  16 active torsions:
  status: ('A' for Active; 'I' for Inactive)
    1  A    between atoms: C_1  and  O_6
    2  A    between atoms: C_5  and  C_15
    3  A    between atoms: C_5  and  N_23
    4  A    between atoms: N_7  and  N_11
    5  A    between atoms: N_7  and  C_20
    6  A    between atoms: C_8  and  C_35
    7  A    between atoms: N_9  and  C_22
    8  A    between atoms: N_9  and  C_35
    9  A    between atoms: C_10  and  C_28
   10  A    between atoms: C_10  and  C_33
   11  A    between atoms: N_11  and  C_36
   12  A    between atoms: N_14  and  N_23
   13  A    between atoms: C_15  and  C_26
   14  A    between atoms: C_16  and  C_26
   15  A    between atoms: C_16  and  C_32
   16  A    between atoms: C_20  and  C_22
                            x       y       z     vdW  Elec       q    Type
                         _______ _______ _______ _____ _____    ______ ____

>  <TORSDO>
F 16

$$$$
=
 OpenBabel11052412153D

 41 44  0  0  1  0  0  0  0  0999 V2000
  161.5980  208.1750  148.8980 C   0  0  0  0  0  0  0  0  0  0  0  0
  162.2630  209.5300  151.6890 C   0  0  0  0  0  2  0  0  0  0  0  0
  162.1420  210.6740  150.7480 C   0  0  0  0  0  3  0  0  0  0  0  0
  161.7300  209.4490  148.6340 N   0  0  0  0  0  0  0  0  0  0  0  0
  161.6930  207.5620  150.2630 C   0  0  1  0  0  3  0  0  0  0  0  0
  161.9460  210.6460  149.4190 C   0  0  0  0  0  0  0  0  0  0  0  0
  163.0800  206.9700  150.4800 C   0  0  0  0  0  1  0  0  0  0  0  0
  161.2190  208.4790  151.3850 C   0  0  1  0  0  3  0  0  0  0  0  0
  161.3770  207.2810  147.8440 O   0  0  0  0  0  0  0  0  0  0  0  0
  160.4510  206.2090  147.9360 C   0  0  0  0  0  1  0  0  0  0  0  0
  161.9110  211.9430  148.6960 C   0  0  0  0  0  0  0  0  0  0  0  0
  162.6060  212.0780  147.5610 C   0  0  0  0  0  3  0  0  0  0  0  0
  161.1400  213.0560  149.2120 C   0  0  0  0  0  0  0  0  0  0  0  0
  160.4980  213.9820  149.6400 C   0  0  0  0  0  3  0  0  0  0  0  0
  162.6370  213.3340  146.7460 C   0  0  0  0  0  2  0  0  0  0  0  0
  161.3770  213.4550  145.9050 C   0  0  0  0  0  2  0  0  0  0  0  0
  161.6170  212.9450  144.4930 C   0  0  0  0  0  2  0  0  0  0  0  0
  160.3610  212.2810  143.9530 C   0  0  1  0  0  3  0  0  0  0  0  0
  159.3050  213.1930  143.9530 O   0  0  0  0  0  1  0  0  0  0  0  0
  160.5940  211.8180  142.5950 N   0  0  0  0  0  2  0  0  0  0  0  0
  162.3410  211.5370  140.9790 C   0  0  1  0  0  3  0  0  0  0  0  0
  159.8720  214.3050  140.7100 C   0  0  0  0  0  2  0  0  0  0  0  0
  161.9100  212.9540  140.9470 C   0  0  2  0  0  3  0  0  0  0  0  0
  161.9020  212.2080  142.2380 N   0  0  0  0  0  0  0  0  0  0  0  0
  161.9880  209.3060  140.1780 O   0  0  0  0  0  1  0  0  0  0  0  0
  159.6440  212.9100  138.1420 O   0  0  0  0  0  1  0  0  0  0  0  0
  160.7660  211.0370  139.0930 C   0  0  0  0  0  2  0  0  0  0  0  0
  161.3370  210.5190  140.4010 C   0  0  2  0  0  3  0  0  0  0  0  0
  159.9000  212.2640  139.3540 C   0  0  1  0  0  3  0  0  0  0  0  0
  160.5410  213.2200  140.3310 C   0  0  0  0  0  0  0  0  0  0  0  0
  160.7880  207.7400  152.5770 N   0  0  0  0  0  2  0  0  0  0  0  0
  161.5690  208.1140  153.6860 N   0  0  0  0  0  2  0  0  0  0  0  0
  159.3500  206.9550  156.1410 O   0  0  0  0  0  0  0  0  0  0  0  0
  160.9900  208.4870  154.9400 C   0  0  0  0  0  0  0  0  0  0  0  0
  160.1470  207.7010  155.5570 C   0  0  0  0  0  0  0  0  0  0  0  0
  161.3460  209.7970  155.5490 C   0  0  0  0  0  2  0  0  0  0  0  0
  160.2170  210.7060  155.4530 N   0  0  0  0  0  2  0  0  0  0  0  0
  160.3330  211.4100  154.1850 C   0  0  0  0  0  2  0  0  0  0  0  0
  159.2010  213.2140  153.0010 N   0  0  0  0  0  2  0  0  0  0  0  0
  158.9880  211.9870  153.7800 C   0  0  1  0  0  3  0  0  0  0  0  0
  158.8610  211.9500  152.3290 C   0  0  0  0  0  2  0  0  0  0  0  0
  1  5  1  0  0  0  0
  3  2  1  0  0  0  0
  4  1  2  0  0  0  0
  4  6  1  0  0  0  0
  5  7  1  1  0  0  0
  5  8  1  0  0  0  0
  6  3  2  0  0  0  0
  8  2  1  0  0  0  0
  8 31  1  1  0  0  0
  9 10  1  0  0  0  0
  9  1  1  0  0  0  0
 11 13  1  0  0  0  0
 11  6  1  0  0  0  0
 12 11  2  0  0  0  0
 13 14  3  0  0  0  0
 15 12  1  0  0  0  0
 16 15  1  0  0  0  0
 17 16  1  0  0  0  0
 18 19  1  6  0  0  0
 18 17  1  0  0  0  0
 20 18  1  0  0  0  0
 21 24  1  1  0  0  0
 23 30  1  6  0  0  0
 23 21  1  0  0  0  0
 23 24  1  0  0  0  0
 24 20  1  0  0  0  0
 27 29  1  0  0  0  0
 27 28  1  0  0  0  0
 28 25  1  6  0  0  0
 28 21  1  0  0  0  0
 29 26  1  6  0  0  0
 29 30  1  0  0  0  0
 30 22  2  0  0  0  0
 31 32  1  0  0  0  0
 32 34  1  0  0  0  0
 34 36  1  0  0  0  0
 34 35  2  0  0  0  0
 35 33  2  0  0  0  0
 37 36  1  0  0  0  0
 38 37  1  0  0  0  0
 39 40  1  0  0  0  0
 40 38  1  6  0  0  0
 41 39  1  0  0  0  0
 41 40  1  0  0  0  0
M  END
>  <MODEL>
6

>  <REMARK>
 VINA RESULT:      -5.8      4.279      7.889
  Name = 
  16 active torsions:
  status: ('A' for Active; 'I' for Inactive)
    1  A    between atoms: C_1  and  O_6
    2  A    between atoms: C_5  and  C_15
    3  A    between atoms: C_5  and  N_23
    4  A    between atoms: N_7  and  N_11
    5  A    between atoms: N_7  and  C_20
    6  A    between atoms: C_8  and  C_35
    7  A    between atoms: N_9  and  C_22
    8  A    between atoms: N_9  and  C_35
    9  A    between atoms: C_10  and  C_28
   10  A    between atoms: C_10  and  C_33
   11  A    between atoms: N_11  and  C_36
   12  A    between atoms: N_14  and  N_23
   13  A    between atoms: C_15  and  C_26
   14  A    between atoms: C_16  and  C_26
   15  A    between atoms: C_16  and  C_32
   16  A    between atoms: C_20  and  C_22
                            x       y       z     vdW  Elec       q    Type
                         _______ _______ _______ _____ _____    ______ ____

>  <TORSDO>
F 16

$$$$
=
 OpenBabel11052412153D

 41 44  0  0  1  0  0  0  0  0999 V2000
  160.9860  205.0360  150.2540 C   0  0  0  0  0  0  0  0  0  0  0  0
  162.4630  207.6160  149.1430 C   0  0  0  0  0  2  0  0  0  0  0  0
  162.1420  206.8270  147.9250 C   0  0  0  0  0  3  0  0  0  0  0  0
  161.1010  204.8330  148.9660 N   0  0  0  0  0  0  0  0  0  0  0  0
  161.4240  206.2750  150.9750 C   0  0  1  0  0  3  0  0  0  0  0  0
  161.5850  205.6080  147.8420 C   0  0  0  0  0  0  0  0  0  0  0  0
  162.7870  206.0540  151.6220 C   0  0  0  0  0  1  0  0  0  0  0  0
  161.3260  207.5440  150.1370 C   0  0  1  0  0  3  0  0  0  0  0  0
  160.4390  204.0270  151.0540 O   0  0  0  0  0  0  0  0  0  0  0  0
  161.0810  202.7760  151.2480 C   0  0  0  0  0  1  0  0  0  0  0  0
  161.4140  205.0140  146.4920 C   0  0  0  0  0  0  0  0  0  0  0  0
  161.3560  205.8190  145.4250 C   0  0  0  0  0  3  0  0  0  0  0  0
  161.3030  203.5790  146.3240 C   0  0  0  0  0  0  0  0  0  0  0  0
  161.2090  202.3850  146.1850 C   0  0  0  0  0  3  0  0  0  0  0  0
  161.1940  205.3310  144.0190 C   0  0  0  0  0  2  0  0  0  0  0  0
  162.0870  206.1210  143.0750 C   0  0  0  0  0  2  0  0  0  0  0  0
  161.5680  206.0440  141.6480 C   0  0  0  0  0  2  0  0  0  0  0  0
  162.3320  207.0100  140.7570 C   0  0  1  0  0  3  0  0  0  0  0  0
  163.1750  206.2990  139.9020 O   0  0  0  0  0  1  0  0  0  0  0  0
  161.3990  207.7950  139.9660 N   0  0  0  0  0  2  0  0  0  0  0  0
  161.0330  208.6640  137.7630 C   0  0  1  0  0  3  0  0  0  0  0  0
  162.7040  210.6870  140.3970 C   0  0  0  0  0  2  0  0  0  0  0  0
  162.1580  209.4120  138.3710 C   0  0  2  0  0  3  0  0  0  0  0  0
  161.9740  207.9670  138.6890 N   0  0  0  0  0  0  0  0  0  0  0  0
  158.6610  208.4680  137.4870 O   0  0  0  0  0  1  0  0  0  0  0  0
  160.4510  212.3610  139.5510 O   0  0  0  0  0  1  0  0  0  0  0  0
  159.4540  210.4540  138.5330 C   0  0  0  0  0  2  0  0  0  0  0  0
  159.6390  208.9570  138.3520 C   0  0  2  0  0  3  0  0  0  0  0  0
  160.3980  210.9670  139.6130 C   0  0  1  0  0  3  0  0  0  0  0  0
  161.7860  210.3850  139.4830 C   0  0  0  0  0  0  0  0  0  0  0  0
  161.2060  208.7560  150.9570 N   0  0  0  0  0  2  0  0  0  0  0  0
  160.5230  208.4650  152.1520 N   0  0  0  0  0  2  0  0  0  0  0  0
  160.8680  207.4820  155.5010 O   0  0  0  0  0  0  0  0  0  0  0  0
  160.9650  208.9500  153.4230 C   0  0  0  0  0  0  0  0  0  0  0  0
  160.9140  208.1970  154.4910 C   0  0  0  0  0  0  0  0  0  0  0  0
  161.4840  210.3390  153.5350 C   0  0  0  0  0  2  0  0  0  0  0  0
  161.0240  210.9370  154.7770 N   0  0  0  0  0  2  0  0  0  0  0  0
  159.9560  211.8670  154.4430 C   0  0  0  0  0  2  0  0  0  0  0  0
  158.6550  211.8300  152.3840 N   0  0  0  0  0  2  0  0  0  0  0  0
  159.9670  212.1630  152.9540 C   0  0  1  0  0  3  0  0  0  0  0  0
  159.0150  213.2280  152.6650 C   0  0  0  0  0  2  0  0  0  0  0  0
  1  5  1  0  0  0  0
  1  9  1  0  0  0  0
  2  8  1  0  0  0  0
  3  2  1  0  0  0  0
  4  1  2  0  0  0  0
  5  7  1  6  0  0  0
  6  3  2  0  0  0  0
  6  4  1  0  0  0  0
  8 31  1  1  0  0  0
  8  5  1  0  0  0  0
  9 10  1  0  0  0  0
 11  6  1  0  0  0  0
 12 11  2  0  0  0  0
 13 11  1  0  0  0  0
 14 13  3  0  0  0  0
 15 12  1  0  0  0  0
 16 15  1  0  0  0  0
 17 16  1  0  0  0  0
 18 19  1  6  0  0  0
 18 17  1  0  0  0  0
 20 18  1  0  0  0  0
 21 28  1  0  0  0  0
 21 23  1  0  0  0  0
 21 24  1  1  0  0  0
 23 24  1  0  0  0  0
 23 30  1  1  0  0  0
 24 20  1  0  0  0  0
 27 29  1  0  0  0  0
 28 25  1  6  0  0  0
 28 27  1  0  0  0  0
 29 26  1  6  0  0  0
 30 29  1  0  0  0  0
 30 22  2  0  0  0  0
 31 32  1  0  0  0  0
 32 34  1  0  0  0  0
 34 36  1  0  0  0  0
 34 35  2  0  0  0  0
 35 33  2  0  0  0  0
 36 37  1  0  0  0  0
 38 37  1  0  0  0  0
 39 41  1  0  0  0  0
 39 40  1  0  0  0  0
 40 38  1  1  0  0  0
 41 40  1  0  0  0  0
M  END
>  <MODEL>
7

>  <REMARK>
 VINA RESULT:      -5.8      4.500      7.497
  Name = 
  16 active torsions:
  status: ('A' for Active; 'I' for Inactive)
    1  A    between atoms: C_1  and  O_6
    2  A    between atoms: C_5  and  C_15
    3  A    between atoms: C_5  and  N_23
    4  A    between atoms: N_7  and  N_11
    5  A    between atoms: N_7  and  C_20
    6  A    between atoms: C_8  and  C_35
    7  A    between atoms: N_9  and  C_22
    8  A    between atoms: N_9  and  C_35
    9  A    between atoms: C_10  and  C_28
   10  A    between atoms: C_10  and  C_33
   11  A    between atoms: N_11  and  C_36
   12  A    between atoms: N_14  and  N_23
   13  A    between atoms: C_15  and  C_26
   14  A    between atoms: C_16  and  C_26
   15  A    between atoms: C_16  and  C_32
   16  A    between atoms: C_20  and  C_22
                            x       y       z     vdW  Elec       q    Type
                         _______ _______ _______ _____ _____    ______ ____

>  <TORSDO>
F 16

$$$$
=
 OpenBabel11052412153D

 41 44  0  0  1  0  0  0  0  0999 V2000
  159.7050  213.3040  150.6360 C   0  0  0  0  0  0  0  0  0  0  0  0
  162.0540  211.5560  149.4120 C   0  0  0  0  0  2  0  0  0  0  0  0
  161.6930  210.8520  150.6700 C   0  0  0  0  0  3  0  0  0  0  0  0
  159.9450  212.3820  151.5330 N   0  0  0  0  0  0  0  0  0  0  0  0
  160.3890  213.4140  149.3070 C   0  0  1  0  0  3  0  0  0  0  0  0
  160.8070  211.2210  151.6100 C   0  0  0  0  0  0  0  0  0  0  0  0
  161.5040  214.4510  149.3720 C   0  0  0  0  0  1  0  0  0  0  0  0
  160.8130  212.0730  148.7190 C   0  0  1  0  0  3  0  0  0  0  0  0
  158.7600  214.2960  150.9180 O   0  0  0  0  0  0  0  0  0  0  0  0
  157.8480  214.1940  152.0020 C   0  0  0  0  0  1  0  0  0  0  0  0
  160.6680  210.3570  152.8100 C   0  0  0  0  0  0  0  0  0  0  0  0
  160.9190  209.0470  152.7060 C   0  0  0  0  0  3  0  0  0  0  0  0
  160.2560  210.9170  154.0820 C   0  0  0  0  0  0  0  0  0  0  0  0
  159.9130  211.3840  155.1380 C   0  0  0  0  0  3  0  0  0  0  0  0
  160.8200  208.0850  153.8490 C   0  0  0  0  0  2  0  0  0  0  0  0
  161.5400  206.7880  153.5180 C   0  0  0  0  0  2  0  0  0  0  0  0
  161.6430  206.5940  152.0130 C   0  0  0  0  0  2  0  0  0  0  0  0
  162.0110  205.1540  151.6920 C   0  0  1  0  0  3  0  0  0  0  0  0
  161.1510  204.2850  152.3640 O   0  0  0  0  0  1  0  0  0  0  0  0
  161.9000  204.9250  150.2610 N   0  0  0  0  0  2  0  0  0  0  0  0
  160.8060  206.3840  148.7050 C   0  0  1  0  0  3  0  0  0  0  0  0
  161.1820  202.7480  148.0250 C   0  0  0  0  0  2  0  0  0  0  0  0
  160.3210  205.0050  148.4620 C   0  0  2  0  0  3  0  0  0  0  0  0
  160.6520  205.4380  149.8500 N   0  0  0  0  0  0  0  0  0  0  0  0
  162.4760  208.0410  148.2470 O   0  0  0  0  0  1  0  0  0  0  0  0
  162.4160  204.0280  145.6940 O   0  0  0  0  0  1  0  0  0  0  0  0
  162.5340  206.0690  146.9140 C   0  0  0  0  0  2  0  0  0  0  0  0
  162.2640  206.6640  148.2860 C   0  0  2  0  0  3  0  0  0  0  0  0
  162.4840  204.5480  146.9890 C   0  0  1  0  0  3  0  0  0  0  0  0
  161.3180  204.0540  147.8120 C   0  0  0  0  0  0  0  0  0  0  0  0
  160.9490  212.1120  147.2580 N   0  0  0  0  0  2  0  0  0  0  0  0
  160.5770  213.3800  146.7730 N   0  0  0  0  0  2  0  0  0  0  0  0
  157.2610  212.4940  146.0550 O   0  0  0  0  0  0  0  0  0  0  0  0
  159.5610  213.5510  145.7810 C   0  0  0  0  0  0  0  0  0  0  0  0
  158.3800  213.0080  145.9200 C   0  0  0  0  0  0  0  0  0  0  0  0
  159.8540  214.3570  144.5650 C   0  0  0  0  0  2  0  0  0  0  0  0
  161.1400  213.9630  144.0140 N   0  0  0  0  0  2  0  0  0  0  0  0
  161.1680  214.3960  142.6260 C   0  0  0  0  0  2  0  0  0  0  0  0
  162.2730  212.2250  142.6090 N   0  0  0  0  0  2  0  0  0  0  0  0
  161.8620  213.3550  141.7650 C   0  0  1  0  0  3  0  0  0  0  0  0
  161.0750  212.1290  141.7600 C   0  0  0  0  0  2  0  0  0  0  0  0
  1  9  1  0  0  0  0
  1  4  2  0  0  0  0
  2  3  1  0  0  0  0
  3  6  2  0  0  0  0
  4  6  1  0  0  0  0
  5  7  1  1  0  0  0
  5  1  1  0  0  0  0
  6 11  1  0  0  0  0
  8 31  1  6  0  0  0
  8  5  1  0  0  0  0
  8  2  1  0  0  0  0
  9 10  1  0  0  0  0
 11 13  1  0  0  0  0
 12 11  2  0  0  0  0
 12 15  1  0  0  0  0
 13 14  3  0  0  0  0
 16 15  1  0  0  0  0
 17 16  1  0  0  0  0
 18 17  1  0  0  0  0
 18 19  1  1  0  0  0
 20 18  1  0  0  0  0
 21 24  1  1  0  0  0
 23 30  1  6  0  0  0
 23 21  1  0  0  0  0
 23 24  1  0  0  0  0
 24 20  1  0  0  0  0
 27 29  1  0  0  0  0
 27 28  1  0  0  0  0
 28 25  1  6  0  0  0
 28 21  1  0  0  0  0
 29 26  1  6  0  0  0
 29 30  1  0  0  0  0
 30 22  2  0  0  0  0
 32 31  1  0  0  0  0
 34 35  2  0  0  0  0
 34 32  1  0  0  0  0
 35 33  2  0  0  0  0
 36 34  1  0  0  0  0
 37 36  1  0  0  0  0
 38 37  1  0  0  0  0
 40 39  1  0  0  0  0
 40 38  1  1  0  0  0
 41 40  1  0  0  0  0
 41 39  1  0  0  0  0
M  END
>  <MODEL>
8

>  <REMARK>
 VINA RESULT:      -5.7      2.904      5.302
  Name = 
  16 active torsions:
  status: ('A' for Active; 'I' for Inactive)
    1  A    between atoms: C_1  and  O_6
    2  A    between atoms: C_5  and  C_15
    3  A    between atoms: C_5  and  N_23
    4  A    between atoms: N_7  and  N_11
    5  A    between atoms: N_7  and  C_20
    6  A    between atoms: C_8  and  C_35
    7  A    between atoms: N_9  and  C_22
    8  A    between atoms: N_9  and  C_35
    9  A    between atoms: C_10  and  C_28
   10  A    between atoms: C_10  and  C_33
   11  A    between atoms: N_11  and  C_36
   12  A    between atoms: N_14  and  N_23
   13  A    between atoms: C_15  and  C_26
   14  A    between atoms: C_16  and  C_26
   15  A    between atoms: C_16  and  C_32
   16  A    between atoms: C_20  and  C_22
                            x       y       z     vdW  Elec       q    Type
                         _______ _______ _______ _____ _____    ______ ____

>  <TORSDO>
F 16

$$$$
=
 OpenBabel11052412153D

 41 44  0  0  1  0  0  0  0  0999 V2000
  160.5530  208.7780  154.1630 C   0  0  0  0  0  0  0  0  0  0  0  0
  161.6710  210.5970  151.8160 C   0  0  0  0  0  2  0  0  0  0  0  0
  161.6160  209.2340  151.2260 C   0  0  0  0  0  3  0  0  0  0  0  0
  160.8320  207.9460  153.1920 N   0  0  0  0  0  0  0  0  0  0  0  0
  160.6980  210.2680  154.0910 C   0  0  1  0  0  3  0  0  0  0  0  0
  161.2870  208.0770  151.8240 C   0  0  0  0  0  0  0  0  0  0  0  0
  162.0050  210.7030  154.7420 C   0  0  0  0  0  1  0  0  0  0  0  0
  160.4680  210.8430  152.6980 C   0  0  1  0  0  3  0  0  0  0  0  0
  160.1080  208.2680  155.3880 O   0  0  0  0  0  0  0  0  0  0  0  0
  160.9270  207.4570  156.2180 C   0  0  0  0  0  1  0  0  0  0  0  0
  161.3580  206.8330  151.0160 C   0  0  0  0  0  0  0  0  0  0  0  0
  161.4630  206.9220  149.6850 C   0  0  0  0  0  3  0  0  0  0  0  0
  161.3080  205.5320  151.6530 C   0  0  0  0  0  0  0  0  0  0  0  0
  161.2640  204.4510  152.1830 C   0  0  0  0  0  3  0  0  0  0  0  0
  161.5510  205.7380  148.7730 C   0  0  0  0  0  2  0  0  0  0  0  0
  161.9100  206.1760  147.3630 C   0  0  0  0  0  2  0  0  0  0  0  0
  161.1940  205.3190  146.3300 C   0  0  0  0  0  2  0  0  0  0  0  0
  162.1630  204.3290  145.7050 C   0  0  1  0  0  3  0  0  0  0  0  0
  163.4760  204.7030  145.9960 O   0  0  0  0  0  1  0  0  0  0  0  0
  161.9160  202.9980  146.2340 N   0  0  0  0  0  2  0  0  0  0  0  0
  160.2980  201.2320  146.1440 C   0  0  1  0  0  3  0  0  0  0  0  0
  160.7880  203.2630  149.2200 C   0  0  0  0  0  2  0  0  0  0  0  0
  159.8890  202.1760  147.2100 C   0  0  2  0  0  3  0  0  0  0  0  0
  160.5620  202.6920  145.9840 N   0  0  0  0  0  0  0  0  0  0  0  0
  161.6130  199.3200  145.5440 O   0  0  0  0  0  1  0  0  0  0  0  0
  161.1870  200.5060  150.1310 O   0  0  0  0  0  1  0  0  0  0  0  0
  161.4650  199.8290  147.8650 C   0  0  0  0  0  2  0  0  0  0  0  0
  161.5450  200.3770  146.4500 C   0  0  2  0  0  3  0  0  0  0  0  0
  161.5740  200.9680  148.8710 C   0  0  1  0  0  3  0  0  0  0  0  0
  160.7400  202.1630  148.4740 C   0  0  0  0  0  0  0  0  0  0  0  0
  160.0600  212.2520  152.7270 N   0  0  0  0  0  2  0  0  0  0  0  0
  159.8580  212.7240  151.4170 N   0  0  0  0  0  2  0  0  0  0  0  0
  156.8300  213.9310  152.7090 O   0  0  0  0  0  0  0  0  0  0  0  0
  158.7050  213.4840  151.0460 C   0  0  0  0  0  0  0  0  0  0  0  0
  157.7410  213.7130  151.8990 C   0  0  0  0  0  0  0  0  0  0  0  0
  158.5950  214.0170  149.6610 C   0  0  0  0  0  2  0  0  0  0  0  0
  159.9190  214.1360  149.0740 N   0  0  0  0  0  2  0  0  0  0  0  0
  159.9020  213.4090  147.8140 C   0  0  0  0  0  2  0  0  0  0  0  0
  162.1150  212.8060  148.6340 N   0  0  0  0  0  2  0  0  0  0  0  0
  161.3130  213.0100  147.4200 C   0  0  1  0  0  3  0  0  0  0  0  0
  161.5820  211.6560  147.8870 C   0  0  0  0  0  2  0  0  0  0  0  0
  1  9  1  0  0  0  0
  2  8  1  0  0  0  0
  3  2  1  0  0  0  0
  3  6  2  0  0  0  0
  4  1  2  0  0  0  0
  5  1  1  0  0  0  0
  5  7  1  6  0  0  0
  6  4  1  0  0  0  0
  8 31  1  1  0  0  0
  8  5  1  0  0  0  0
  9 10  1  0  0  0  0
 11 13  1  0  0  0  0
 11  6  1  0  0  0  0
 12 11  2  0  0  0  0
 13 14  3  0  0  0  0
 15 12  1  0  0  0  0
 16 15  1  0  0  0  0
 17 16  1  0  0  0  0
 18 19  1  1  0  0  0
 18 20  1  0  0  0  0
 18 17  1  0  0  0  0
 21 24  1  6  0  0  0
 21 28  1  0  0  0  0
 21 23  1  0  0  0  0
 23 30  1  1  0  0  0
 24 20  1  0  0  0  0
 24 23  1  0  0  0  0
 27 29  1  0  0  0  0
 28 25  1  6  0  0  0
 28 27  1  0  0  0  0
 29 26  1  1  0  0  0
 30 29  1  0  0  0  0
 30 22  2  0  0  0  0
 32 31  1  0  0  0  0
 34 32  1  0  0  0  0
 34 35  2  0  0  0  0
 35 33  2  0  0  0  0
 36 34  1  0  0  0  0
 37 36  1  0  0  0  0
 38 37  1  0  0  0  0
 40 38  1  1  0  0  0
 40 41  1  0  0  0  0
 40 39  1  0  0  0  0
 41 39  1  0  0  0  0
M  END
>  <MODEL>
9

>  <REMARK>
 VINA RESULT:      -5.6      1.747      2.980
  Name = 
  16 active torsions:
  status: ('A' for Active; 'I' for Inactive)
    1  A    between atoms: C_1  and  O_6
    2  A    between atoms: C_5  and  C_15
    3  A    between atoms: C_5  and  N_23
    4  A    between atoms: N_7  and  N_11
    5  A    between atoms: N_7  and  C_20
    6  A    between atoms: C_8  and  C_35
    7  A    between atoms: N_9  and  C_22
    8  A    between atoms: N_9  and  C_35
    9  A    between atoms: C_10  and  C_28
   10  A    between atoms: C_10  and  C_33
   11  A    between atoms: N_11  and  C_36
   12  A    between atoms: N_14  and  N_23
   13  A    between atoms: C_15  and  C_26
   14  A    between atoms: C_16  and  C_26
   15  A    between atoms: C_16  and  C_32
   16  A    between atoms: C_20  and  C_22
                            x       y       z     vdW  Elec       q    Type
                         _______ _______ _______ _____ _____    ______ ____

>  <TORSDO>
F 16

$$$$
