=
 OpenBabel11052410133D

 48 54  0  0  1  0  0  0  0  0999 V2000
  159.7280  208.6460  156.1550 C   0  0  0  0  0  2  0  0  0  0  0  0
  158.9710  211.0190  154.5190 C   0  0  0  0  0  0  0  0  0  0  0  0
  156.6650  212.4120  155.1990 C   0  0  0  0  0  3  0  0  0  0  0  0
  160.2230  210.5190  153.9370 C   0  0  2  0  0  3  0  0  0  0  0  0
  158.3170  210.6890  155.7170 C   0  0  0  0  0  0  0  0  0  0  0  0
  157.1660  211.4150  156.0610 C   0  0  0  0  0  3  0  0  0  0  0  0
  158.7790  209.6530  156.5870 N   0  0  0  0  0  2  0  0  0  0  0  0
  161.2430  210.0350  154.6710 C   0  0  2  0  0  3  0  0  0  0  0  0
  161.0070  209.2720  155.8610 N   0  0  0  0  0  2  0  0  0  0  0  0
  160.3140  211.1620  152.6000 C   0  0  0  0  0  0  0  0  0  0  0  0
  158.4810  212.0000  153.6840 C   0  0  0  0  0  0  0  0  0  0  0  0
  159.3220  212.0570  152.4880 C   0  0  0  0  0  0  0  0  0  0  0  0
  157.3170  212.7010  153.9900 C   0  0  0  0  0  3  0  0  0  0  0  0
  161.4910  209.3520  151.2760 C   0  0  0  0  0  0  0  0  0  0  0  0
  161.8560  208.0010  151.2160 C   0  0  2  0  0  0  0  0  0  0  0  0
  162.9880  207.6290  151.9410 O   0  0  0  0  0  1  0  0  0  0  0  0
  162.3690  209.4460  148.9140 C   0  0  0  0  0  3  0  0  0  0  0  0
  161.0920  210.6420  151.4450 C   0  0  0  0  0  0  0  0  0  0  0  0
  161.3700  211.3900  150.2480 C   0  0  0  0  0  3  0  0  0  0  0  0
  162.0970  208.7780  150.0720 C   0  0  0  0  0  0  0  0  0  0  0  0
  162.1980  211.6660  147.9500 O   0  0  0  0  0  1  0  0  0  0  0  0
  161.9880  210.8290  149.0400 C   0  0  0  0  0  0  0  0  0  0  0  0
  160.7880  207.0260  151.0860 N   0  0  0  0  0  0  0  0  0  0  0  0
  160.9830  205.8310  151.4810 N   0  0  0  0  0  0  0  0  0  0  0  0
  159.9670  204.8740  151.3560 N   0  0  0  0  0  2  0  0  0  0  0  0
  161.2910  202.9930  152.1180 C   0  0  0  0  0  1  0  0  0  0  0  0
  160.2960  203.4850  151.0870 C   0  0  2  0  0  3  0  0  0  0  0  0
  160.8640  203.3520  149.7540 N   0  0  0  0  0  2  0  0  0  0  0  0
  160.3320  202.1260  149.1840 C   0  0  0  0  0  2  0  0  0  0  0  0
  161.0450  201.8070  147.8840 C   0  0  0  0  0  2  0  0  0  0  0  0
  161.6940  203.0700  147.3650 C   0  0  0  0  0  2  0  0  0  0  0  0
  160.8790  203.6440  146.3030 N   0  0  0  0  0  2  0  0  0  0  0  0
  160.9220  206.0420  145.5710 C   0  0  0  0  0  2  0  0  0  0  0  0
  161.0970  205.1540  144.3370 C   0  0  0  0  0  2  0  0  0  0  0  0
  163.1520  204.7450  145.8080 C   0  0  0  0  0  1  0  0  0  0  0  0
  161.6410  204.7170  145.6760 C   0  0  0  0  0  0  0  0  0  0  0  0
  162.6310  210.2960  154.2630 C   0  0  0  0  0  3  0  0  0  0  0  0
  163.5450  210.7640  155.1050 C   0  0  0  0  0  2  0  0  0  0  0  0
  159.1160  212.8660  151.3680 O   0  0  0  0  0  0  0  0  0  0  0  0
  158.0780  212.6330  150.4310 C   0  0  0  0  0  2  0  0  0  0  0  0
  157.3980  213.9470  150.0960 C   0  0  0  0  0  2  0  0  0  0  0  0
  157.6170  214.3300  148.6380 C   0  0  0  0  0  2  0  0  0  0  0  0
  158.3480  213.2120  147.8750 C   0  0  1  0  0  3  0  0  0  0  0  0
  159.2980  214.4210  146.1090 C   0  0  0  0  0  2  0  0  0  0  0  0
  158.2140  213.6870  145.3430 C   0  0  0  0  0  2  0  0  0  0  0  0
  160.4100  214.4520  148.2010 C   0  0  0  0  0  1  0  0  0  0  0  0
  157.2960  212.6370  146.5120 S   0  0  0  0  0  0  0  0  0  0  0  0
  159.6240  213.6350  147.2870 N   0  0  0  0  0  0  0  0  0  0  0  0
  1  7  1  0  0  0  0
  2  5  1  0  0  0  0
  3  6  1  0  0  0  0
  4 10  1  1  0  0  0
  4  2  1  0  0  0  0
  4  8  1  0  0  0  0
  5  6  2  0  0  0  0
  5  7  1  0  0  0  0
  8 37  1  1  0  0  0
  8  9  1  0  0  0  0
  9  1  1  0  0  0  0
 11 13  1  0  0  0  0
 11  2  2  0  0  0  0
 12 10  2  0  0  0  0
 12 11  1  0  0  0  0
 13  3  2  0  0  0  0
 14 18  1  0  0  0  0
 15 14  1  0  0  0  0
 15 16  1  1  0  0  0
 17 22  2  0  0  0  0
 17 20  1  0  0  0  0
 18 10  1  0  0  0  0
 19 18  2  0  0  0  0
 20 15  1  0  0  0  0
 20 14  2  0  0  0  0
 21 22  1  0  0  0  0
 22 19  1  0  0  0  0
 23 15  1  0  0  0  0
 23 24  2  0  0  0  0
 25 24  1  0  0  0  0
 27 25  1  0  0  0  0
 27 26  1  1  0  0  0
 28 27  1  0  0  0  0
 29 28  1  0  0  0  0
 30 29  1  0  0  0  0
 31 30  1  0  0  0  0
 32 31  1  0  0  0  0
 33 36  1  0  0  0  0
 34 33  1  0  0  0  0
 34 36  1  0  0  0  0
 36 35  1  0  0  0  0
 36 32  1  0  0  0  0
 37 38  2  0  0  0  0
 39 12  1  0  0  0  0
 40 39  1  0  0  0  0
 41 40  1  0  0  0  0
 42 41  1  0  0  0  0
 43 42  1  6  0  0  0
 44 48  1  0  0  0  0
 45 44  1  0  0  0  0
 45 47  1  0  0  0  0
 47 43  1  0  0  0  0
 48 43  1  0  0  0  0
 48 46  1  0  0  0  0
M  END
>  <MODEL>
1

>  <REMARK>
 VINA RESULT:      -4.8      0.000      0.000
  Name = 
  16 active torsions:
  status: ('A' for Active; 'I' for Inactive)
    1  A    between atoms: C_6  and  C_13
    2  A    between atoms: C_6  and  C_16
    3  A    between atoms: N_7  and  C_41
    4  A    between atoms: N_7  and  N_44
    5  A    between atoms: C_9  and  C_33
    6  A    between atoms: C_9  and  C_35
    7  A    between atoms: C_12  and  N_28
    8  A    between atoms: C_16  and  C_36
    9  A    between atoms: C_20  and  C_34
   10  A    between atoms: N_22  and  C_24
   11  A    between atoms: N_22  and  C_35
   12  A    between atoms: C_25  and  C_27
   13  A    between atoms: C_33  and  N_40
   14  A    between atoms: C_36  and  O_42
   15  A    between atoms: C_39  and  O_42
   16  A    between atoms: N_40  and  C_41
                            x       y       z     vdW  Elec       q    Type
                         _______ _______ _______ _____ _____    ______ ____

>  <TORSDO>
F 16

$$$$
=
 OpenBabel11052410133D

 48 54  0  0  1  0  0  0  0  0999 V2000
  161.2150  211.5320  156.0390 C   0  0  0  0  0  2  0  0  0  0  0  0
  160.6960  208.9860  154.5790 C   0  0  0  0  0  0  0  0  0  0  0  0
  160.5380  206.6310  156.0440 C   0  0  0  0  0  3  0  0  0  0  0  0
  160.7020  210.0370  153.5530 C   0  0  0  0  0  0  0  0  0  0  0  0
  160.6820  209.0680  155.9810 C   0  0  0  0  0  0  0  0  0  0  0  0
  160.5790  207.8730  156.7100 C   0  0  0  0  0  3  0  0  0  0  0  0
  160.7670  210.3120  156.6810 N   0  0  0  0  0  2  0  0  0  0  0  0
  160.1770  211.2620  153.7420 C   0  0  2  0  0  3  0  0  0  0  0  0
  160.2640  211.9230  155.0110 N   0  0  0  0  0  2  0  0  0  0  0  0
  160.8440  209.3170  152.2610 C   0  0  0  0  0  0  0  0  0  0  0  0
  160.6480  207.7690  153.9340 C   0  0  1  0  0  3  0  0  0  0  0  0
  160.7610  208.0000  152.4930 C   0  0  0  0  0  0  0  0  0  0  0  0
  160.5880  206.5720  154.6430 C   0  0  0  0  0  3  0  0  0  0  0  0
  161.8250  209.1950  149.9290 C   0  0  0  0  0  0  0  0  0  0  0  0
  162.2650  208.3640  148.8910 C   0  0  2  0  0  0  0  0  0  0  0  0
  163.5540  207.8460  149.0120 O   0  0  0  0  0  1  0  0  0  0  0  0
  162.1460  211.0530  148.2540 C   0  0  0  0  0  3  0  0  0  0  0  0
  161.3810  209.9020  151.0040 C   0  0  0  0  0  0  0  0  0  0  0  0
  161.3300  211.3000  150.6700 C   0  0  0  0  0  3  0  0  0  0  0  0
  162.1890  209.7390  148.6180 C   0  0  0  0  0  0  0  0  0  0  0  0
  161.6040  213.2320  149.1740 O   0  0  0  0  0  1  0  0  0  0  0  0
  161.7030  211.8580  149.3640 C   0  0  0  0  0  0  0  0  0  0  0  0
  161.2700  207.5450  148.2230 N   0  0  0  0  0  0  0  0  0  0  0  0
  161.5830  206.9300  147.1520 N   0  0  0  0  0  0  0  0  0  0  0  0
  160.6330  206.1430  146.4900 N   0  0  0  0  0  2  0  0  0  0  0  0
  162.5000  205.0110  145.4390 C   0  0  0  0  0  1  0  0  0  0  0  0
  161.0210  205.3260  145.3530 C   0  0  2  0  0  3  0  0  0  0  0  0
  160.7390  206.0290  144.1110 N   0  0  0  0  0  2  0  0  0  0  0  0
  161.8910  205.8400  143.2440 C   0  0  0  0  0  2  0  0  0  0  0  0
  161.4540  205.8540  141.7920 C   0  0  0  0  0  2  0  0  0  0  0  0
  162.1780  206.9740  141.0780 C   0  0  0  0  0  2  0  0  0  0  0  0
  161.9750  206.8560  139.6410 N   0  0  0  0  0  2  0  0  0  0  0  0
  160.5250  208.2160  138.1130 C   0  0  0  0  0  2  0  0  0  0  0  0
  161.9790  208.3570  137.6550 C   0  0  0  0  0  2  0  0  0  0  0  0
  161.8590  209.4040  139.9890 C   0  0  0  0  0  1  0  0  0  0  0  0
  161.6510  208.1790  139.1190 C   0  0  0  0  0  0  0  0  0  0  0  0
  159.4850  211.9440  152.6370 C   0  0  0  0  0  3  0  0  0  0  0  0
  158.3270  212.5710  152.8020 C   0  0  0  0  0  2  0  0  0  0  0  0
  160.8300  207.0200  151.5000 O   0  0  0  0  0  0  0  0  0  0  0  0
  161.4800  205.7750  151.6920 C   0  0  0  0  0  2  0  0  0  0  0  0
  160.6100  204.6620  151.1390 C   0  0  0  0  0  2  0  0  0  0  0  0
  161.0700  204.2340  149.7510 C   0  0  0  0  0  2  0  0  0  0  0  0
  161.6710  202.8170  149.7800 C   0  0  1  0  0  3  0  0  0  0  0  0
  159.8360  201.5400  149.0830 C   0  0  0  0  0  2  0  0  0  0  0  0
  159.8610  201.1460  150.5480 C   0  0  0  0  0  2  0  0  0  0  0  0
  161.1260  202.6300  147.4210 C   0  0  0  0  0  1  0  0  0  0  0  0
  161.2390  202.0210  151.3530 S   0  0  0  0  0  0  0  0  0  0  0  0
  161.1800  201.9460  148.7070 N   0  0  0  0  0  0  0  0  0  0  0  0
  1  7  1  0  0  0  0
  2  5  1  0  0  0  0
  3  6  1  0  0  0  0
  4  8  1  0  0  0  0
  4  2  2  0  0  0  0
  5  7  1  0  0  0  0
  5  6  2  0  0  0  0
  8 37  1  1  0  0  0
  8  9  1  0  0  0  0
  9  1  1  0  0  0  0
 10 12  2  0  0  0  0
 10  4  1  0  0  0  0
 11  2  1  0  0  0  0
 11 13  1  1  0  0  0
 12 11  1  0  0  0  0
 13  3  2  0  0  0  0
 14 18  1  0  0  0  0
 15 16  1  1  0  0  0
 15 14  1  0  0  0  0
 17 20  1  0  0  0  0
 17 22  2  0  0  0  0
 18 10  1  0  0  0  0
 19 18  2  0  0  0  0
 20 15  1  0  0  0  0
 20 14  2  0  0  0  0
 21 22  1  0  0  0  0
 22 19  1  0  0  0  0
 23 15  1  0  0  0  0
 24 23  2  0  0  0  0
 25 24  1  0  0  0  0
 27 26  1  1  0  0  0
 27 25  1  0  0  0  0
 28 27  1  0  0  0  0
 29 28  1  0  0  0  0
 30 29  1  0  0  0  0
 31 30  1  0  0  0  0
 32 31  1  0  0  0  0
 33 36  1  0  0  0  0
 34 33  1  0  0  0  0
 34 36  1  0  0  0  0
 36 32  1  0  0  0  0
 36 35  1  0  0  0  0
 37 38  2  0  0  0  0
 39 40  1  0  0  0  0
 39 12  1  0  0  0  0
 41 40  1  0  0  0  0
 42 41  1  0  0  0  0
 43 42  1  1  0  0  0
 43 47  1  0  0  0  0
 44 45  1  0  0  0  0
 45 47  1  0  0  0  0
 46 48  1  0  0  0  0
 48 44  1  0  0  0  0
 48 43  1  0  0  0  0
M  END
>  <MODEL>
2

>  <REMARK>
 VINA RESULT:      -4.2      3.337      6.684
  Name = 
  16 active torsions:
  status: ('A' for Active; 'I' for Inactive)
    1  A    between atoms: C_6  and  C_13
    2  A    between atoms: C_6  and  C_16
    3  A    between atoms: N_7  and  C_41
    4  A    between atoms: N_7  and  N_44
    5  A    between atoms: C_9  and  C_33
    6  A    between atoms: C_9  and  C_35
    7  A    between atoms: C_12  and  N_28
    8  A    between atoms: C_16  and  C_36
    9  A    between atoms: C_20  and  C_34
   10  A    between atoms: N_22  and  C_24
   11  A    between atoms: N_22  and  C_35
   12  A    between atoms: C_25  and  C_27
   13  A    between atoms: C_33  and  N_40
   14  A    between atoms: C_36  and  O_42
   15  A    between atoms: C_39  and  O_42
   16  A    between atoms: N_40  and  C_41
                            x       y       z     vdW  Elec       q    Type
                         _______ _______ _______ _____ _____    ______ ____

>  <TORSDO>
F 16

$$$$
=
 OpenBabel11052410133D

 48 54  0  0  1  0  0  0  0  0999 V2000
  161.0580  208.6680  155.5820 C   0  0  0  0  0  2  0  0  0  0  0  0
  161.5400  207.9480  152.7320 C   0  0  0  0  0  0  0  0  0  0  0  0
  162.8220  205.5470  152.1730 C   0  0  0  0  0  3  0  0  0  0  0  0
  160.8380  209.2380  152.7010 C   0  0  2  0  0  3  0  0  0  0  0  0
  161.7670  207.0490  153.7850 C   0  0  0  0  0  0  0  0  0  0  0  0
  162.3950  205.8290  153.4870 C   0  0  0  0  0  3  0  0  0  0  0  0
  161.3860  207.3300  155.1340 N   0  0  0  0  0  2  0  0  0  0  0  0
  159.8410  209.5610  153.5460 C   0  0  2  0  0  3  0  0  0  0  0  0
  159.8530  209.1290  154.9120 N   0  0  0  0  0  2  0  0  0  0  0  0
  161.0460  209.7610  151.3260 C   0  0  0  0  0  0  0  0  0  0  0  0
  161.9520  207.6630  151.4470 C   0  0  0  0  0  0  0  0  0  0  0  0
  161.6510  208.8140  150.5940 C   0  0  0  0  0  0  0  0  0  0  0  0
  162.6130  206.4760  151.1420 C   0  0  0  0  0  3  0  0  0  0  0  0
  161.4310  211.7100  149.7550 C   0  0  0  0  0  0  0  0  0  0  0  0
  161.9450  212.1310  148.5220 C   0  0  2  0  0  0  0  0  0  0  0  0
  163.3210  212.3480  148.4620 O   0  0  0  0  0  1  0  0  0  0  0  0
  160.5210  214.0570  149.9040 C   0  0  0  0  0  3  0  0  0  0  0  0
  160.9760  211.1920  150.9280 C   0  0  0  0  0  0  0  0  0  0  0  0
  160.2450  212.2000  151.6470 C   0  0  0  0  0  3  0  0  0  0  0  0
  161.2150  213.0740  149.2630 C   0  0  0  0  0  0  0  0  0  0  0  0
  159.3010  214.4490  151.9650 O   0  0  0  0  0  1  0  0  0  0  0  0
  160.0320  213.5730  151.1690 C   0  0  0  0  0  0  0  0  0  0  0  0
  161.2870  211.6440  147.3230 N   0  0  0  0  0  0  0  0  0  0  0  0
  160.8190  212.4800  146.4840 N   0  0  0  0  0  0  0  0  0  0  0  0
  160.1730  212.0290  145.3260 N   0  0  0  0  0  2  0  0  0  0  0  0
  160.5880  214.1310  144.1940 C   0  0  0  0  0  1  0  0  0  0  0  0
  160.4740  212.6280  144.0370 C   0  0  2  0  0  3  0  0  0  0  0  0
  159.4250  212.3120  143.0800 N   0  0  0  0  0  2  0  0  0  0  0  0
  159.4050  213.3840  142.0990 C   0  0  0  0  0  2  0  0  0  0  0  0
  159.4420  212.8060  140.6970 C   0  0  0  0  0  2  0  0  0  0  0  0
  160.0800  211.4350  140.7560 C   0  0  0  0  0  2  0  0  0  0  0  0
  161.5190  211.5510  140.5650 N   0  0  0  0  0  2  0  0  0  0  0  0
  163.0730  211.1490  138.6390 C   0  0  0  0  0  2  0  0  0  0  0  0
  161.6450  211.2530  138.0980 C   0  0  0  0  0  2  0  0  0  0  0  0
  161.6940  209.1750  139.5920 C   0  0  0  0  0  1  0  0  0  0  0  0
  161.9030  210.6720  139.4670 C   0  0  0  0  0  0  0  0  0  0  0  0
  158.7040  210.3620  153.0680 C   0  0  0  0  0  3  0  0  0  0  0  0
  158.2980  211.4630  153.6900 C   0  0  0  0  0  2  0  0  0  0  0  0
  161.9800  208.9530  149.2440 O   0  0  0  0  0  0  0  0  0  0  0  0
  161.9280  207.8750  148.3250 C   0  0  0  0  0  2  0  0  0  0  0  0
  160.5770  207.1920  148.4250 C   0  0  0  0  0  2  0  0  0  0  0  0
  160.4960  205.9840  147.5000 C   0  0  0  0  0  2  0  0  0  0  0  0
  161.7450  205.0960  147.6380 C   0  0  1  0  0  3  0  0  0  0  0  0
  161.3460  203.5020  145.9700 C   0  0  0  0  0  2  0  0  0  0  0  0
  161.0910  202.6410  147.1920 C   0  0  0  0  0  2  0  0  0  0  0  0
  162.2500  205.5920  145.3150 C   0  0  0  0  0  1  0  0  0  0  0  0
  161.3430  203.6620  148.6760 S   0  0  0  0  0  0  0  0  0  0  0  0
  162.2430  204.5760  146.3600 N   0  0  0  0  0  0  0  0  0  0  0  0
  2  5  1  0  0  0  0
  3  6  1  0  0  0  0
  4 10  1  6  0  0  0
  4  2  1  0  0  0  0
  4  8  1  0  0  0  0
  5  7  1  0  0  0  0
  6  5  2  0  0  0  0
  7  1  1  0  0  0  0
  8 37  1  6  0  0  0
  8  9  1  0  0  0  0
  9  1  1  0  0  0  0
 11  2  2  0  0  0  0
 12 10  2  0  0  0  0
 12 11  1  0  0  0  0
 13 11  1  0  0  0  0
 13  3  2  0  0  0  0
 14 18  1  0  0  0  0
 15 16  1  6  0  0  0
 15 20  1  0  0  0  0
 15 14  1  0  0  0  0
 17 22  2  0  0  0  0
 18 10  1  0  0  0  0
 18 19  2  0  0  0  0
 20 14  2  0  0  0  0
 20 17  1  0  0  0  0
 22 19  1  0  0  0  0
 22 21  1  0  0  0  0
 23 15  1  0  0  0  0
 24 23  2  0  0  0  0
 25 24  1  0  0  0  0
 27 26  1  1  0  0  0
 27 25  1  0  0  0  0
 28 27  1  0  0  0  0
 29 28  1  0  0  0  0
 30 31  1  0  0  0  0
 30 29  1  0  0  0  0
 32 31  1  0  0  0  0
 33 36  1  0  0  0  0
 34 33  1  0  0  0  0
 34 36  1  0  0  0  0
 36 35  1  0  0  0  0
 36 32  1  0  0  0  0
 37 38  2  0  0  0  0
 39 12  1  0  0  0  0
 40 41  1  0  0  0  0
 40 39  1  0  0  0  0
 42 41  1  0  0  0  0
 43 42  1  6  0  0  0
 43 47  1  0  0  0  0
 44 48  1  0  0  0  0
 44 45  1  0  0  0  0
 45 47  1  0  0  0  0
 46 48  1  0  0  0  0
 48 43  1  0  0  0  0
M  END
>  <MODEL>
3

>  <REMARK>
 VINA RESULT:      -4.0      3.559      7.770
  Name = 
  16 active torsions:
  status: ('A' for Active; 'I' for Inactive)
    1  A    between atoms: C_6  and  C_13
    2  A    between atoms: C_6  and  C_16
    3  A    between atoms: N_7  and  C_41
    4  A    between atoms: N_7  and  N_44
    5  A    between atoms: C_9  and  C_33
    6  A    between atoms: C_9  and  C_35
    7  A    between atoms: C_12  and  N_28
    8  A    between atoms: C_16  and  C_36
    9  A    between atoms: C_20  and  C_34
   10  A    between atoms: N_22  and  C_24
   11  A    between atoms: N_22  and  C_35
   12  A    between atoms: C_25  and  C_27
   13  A    between atoms: C_33  and  N_40
   14  A    between atoms: C_36  and  O_42
   15  A    between atoms: C_39  and  O_42
   16  A    between atoms: N_40  and  C_41
                            x       y       z     vdW  Elec       q    Type
                         _______ _______ _______ _____ _____    ______ ____

>  <TORSDO>
F 16

$$$$
=
 OpenBabel11052410133D

 48 54  0  0  1  0  0  0  0  0999 V2000
  162.8160  212.1150  149.0660 C   0  0  0  0  0  2  0  0  0  0  0  0
  160.2580  212.3330  150.5770 C   0  0  0  0  0  0  0  0  0  0  0  0
  158.3930  214.2220  149.7550 C   0  0  0  0  0  3  0  0  0  0  0  0
  161.0100  211.2530  151.2270 C   0  0  0  0  0  0  0  0  0  0  0  0
  160.4800  213.0120  149.3690 C   0  0  0  0  0  0  0  0  0  0  0  0
  159.5190  213.9470  148.9520 C   0  0  0  0  0  3  0  0  0  0  0  0
  161.6360  212.7860  148.5590 N   0  0  0  0  0  2  0  0  0  0  0  0
  161.7560  210.3570  150.5530 C   0  0  2  0  0  3  0  0  0  0  0  0
  162.4970  210.7330  149.3850 N   0  0  0  0  0  2  0  0  0  0  0  0
  160.3440  211.0510  152.5400 C   0  0  0  0  0  0  0  0  0  0  0  0
  159.1500  212.6000  151.3540 C   0  0  0  0  0  0  0  0  0  0  0  0
  159.2360  211.8040  152.5790 C   0  0  0  0  0  0  0  0  0  0  0  0
  158.2090  213.5550  150.9760 C   0  0  0  0  0  2  0  0  0  0  0  0
  160.7820  209.1800  154.1910 C   0  0  0  0  0  0  0  0  0  0  0  0
  160.4960  207.8610  154.5620 C   0  0  2  0  0  0  0  0  0  0  0  0
  159.3160  207.6580  155.2790 O   0  0  0  0  0  1  0  0  0  0  0  0
  162.5390  209.0510  155.9960 C   0  0  0  0  0  3  0  0  0  0  0  0
  160.9780  210.4510  153.7440 C   0  0  0  0  0  0  0  0  0  0  0  0
  162.0350  211.0680  154.5000 C   0  0  0  0  0  3  0  0  0  0  0  0
  161.5250  208.5100  155.2620 C   0  0  0  0  0  0  0  0  0  0  0  0
  163.7800  211.1230  156.2300 O   0  0  0  0  0  1  0  0  0  0  0  0
  162.7780  210.4100  155.5820 C   0  0  0  0  0  0  0  0  0  0  0  0
  160.9290  206.8050  153.6640 N   0  0  0  0  0  0  0  0  0  0  0  0
  160.7120  205.5900  153.9780 N   0  0  0  0  0  0  0  0  0  0  0  0
  161.1310  204.5590  153.1280 N   0  0  0  0  0  2  0  0  0  0  0  0
  160.1610  205.4580  151.0970 C   0  0  0  0  0  1  0  0  0  0  0  0
  161.3870  204.8240  151.7230 C   0  0  2  0  0  3  0  0  0  0  0  0
  161.7090  203.5860  151.0290 N   0  0  0  0  0  2  0  0  0  0  0  0
  160.7560  203.4480  149.9410 C   0  0  0  0  0  2  0  0  0  0  0  0
  161.4630  202.9530  148.6930 C   0  0  0  0  0  2  0  0  0  0  0  0
  161.9190  204.1500  147.8880 C   0  0  0  0  0  2  0  0  0  0  0  0
  161.4710  204.0170  146.5090 N   0  0  0  0  0  2  0  0  0  0  0  0
  162.1640  206.4230  146.6310 C   0  0  0  0  0  2  0  0  0  0  0  0
  160.6500  206.3430  146.8390 C   0  0  0  0  0  2  0  0  0  0  0  0
  161.0890  205.5200  144.4550 C   0  0  0  0  0  1  0  0  0  0  0  0
  161.3520  205.3540  145.9390 C   0  0  0  0  0  0  0  0  0  0  0  0
  161.8110  208.9580  151.0040 C   0  0  0  0  0  3  0  0  0  0  0  0
  162.0370  207.9500  150.1700 C   0  0  0  0  0  2  0  0  0  0  0  0
  158.3490  211.8440  153.6570 O   0  0  0  0  0  0  0  0  0  0  0  0
  158.5090  212.7290  154.7520 C   0  0  0  0  0  2  0  0  0  0  0  0
  157.5350  213.8840  154.6130 C   0  0  0  0  0  2  0  0  0  0  0  0
  156.1300  213.4800  155.0380 C   0  0  0  0  0  2  0  0  0  0  0  0
  155.9670  213.5660  156.5660 C   0  0  1  0  0  3  0  0  0  0  0  0
  155.0500  211.4630  157.0360 C   0  0  0  0  0  2  0  0  0  0  0  0
  153.8170  212.3180  157.2590 C   0  0  0  0  0  2  0  0  0  0  0  0
  157.3970  211.6110  156.7440 C   0  0  0  0  0  1  0  0  0  0  0  0
  154.2630  214.0560  156.9550 S   0  0  0  0  0  0  0  0  0  0  0  0
  156.2190  212.2970  157.2590 N   0  0  0  0  0  0  0  0  0  0  0  0
  1  9  1  0  0  0  0
  2  4  1  0  0  0  0
  2 11  1  0  0  0  0
  3 13  1  0  0  0  0
  4 10  2  0  0  0  0
  5  2  2  0  0  0  0
  6  5  1  0  0  0  0
  6  3  2  0  0  0  0
  7  1  1  0  0  0  0
  7  5  1  0  0  0  0
  8 37  1  6  0  0  0
  8  4  1  0  0  0  0
  9  8  1  0  0  0  0
 10 12  1  0  0  0  0
 10 18  1  0  0  0  0
 11 12  2  0  0  0  0
 12 39  1  0  0  0  0
 13 11  1  0  0  0  0
 14 15  1  0  0  0  0
 14 20  1  0  0  0  0
 15 20  1  0  0  0  0
 15 16  1  1  0  0  0
 18 14  2  0  0  0  0
 18 19  1  0  0  0  0
 19 22  2  0  0  0  0
 20 17  2  0  0  0  0
 22 17  1  0  0  0  0
 22 21  1  0  0  0  0
 23 24  2  0  0  0  0
 23 15  1  0  0  0  0
 25 24  1  0  0  0  0
 27 26  1  6  0  0  0
 27 25  1  0  0  0  0
 28 27  1  0  0  0  0
 29 28  1  0  0  0  0
 30 29  1  0  0  0  0
 31 30  1  0  0  0  0
 32 31  1  0  0  0  0
 33 34  1  0  0  0  0
 35 36  1  0  0  0  0
 36 32  1  0  0  0  0
 36 33  1  0  0  0  0
 36 34  1  0  0  0  0
 38 37  2  0  0  0  0
 39 40  1  0  0  0  0
 41 40  1  0  0  0  0
 41 42  1  0  0  0  0
 43 42  1  6  0  0  0
 43 47  1  0  0  0  0
 43 48  1  0  0  0  0
 44 45  1  0  0  0  0
 44 48  1  0  0  0  0
 46 48  1  0  0  0  0
 47 45  1  0  0  0  0
M  END
>  <MODEL>
4

>  <REMARK>
 VINA RESULT:      -3.3      2.605      5.742
  Name = 
  16 active torsions:
  status: ('A' for Active; 'I' for Inactive)
    1  A    between atoms: C_6  and  C_13
    2  A    between atoms: C_6  and  C_16
    3  A    between atoms: N_7  and  C_41
    4  A    between atoms: N_7  and  N_44
    5  A    between atoms: C_9  and  C_33
    6  A    between atoms: C_9  and  C_35
    7  A    between atoms: C_12  and  N_28
    8  A    between atoms: C_16  and  C_36
    9  A    between atoms: C_20  and  C_34
   10  A    between atoms: N_22  and  C_24
   11  A    between atoms: N_22  and  C_35
   12  A    between atoms: C_25  and  C_27
   13  A    between atoms: C_33  and  N_40
   14  A    between atoms: C_36  and  O_42
   15  A    between atoms: C_39  and  O_42
   16  A    between atoms: N_40  and  C_41
                            x       y       z     vdW  Elec       q    Type
                         _______ _______ _______ _____ _____    ______ ____

>  <TORSDO>
F 16

$$$$
=
 OpenBabel11052410133D

 48 54  0  0  1  0  0  0  0  0999 V2000
  160.5130  206.4060  148.2430 C   0  0  0  0  0  2  0  0  0  0  0  0
  161.2470  207.0250  151.0640 C   0  0  0  0  0  0  0  0  0  0  0  0
  161.1880  204.9660  152.9280 C   0  0  0  0  0  3  0  0  0  0  0  0
  161.3930  208.2890  150.3310 C   0  0  0  0  0  0  0  0  0  0  0  0
  161.0520  205.7120  150.6060 C   0  0  0  0  0  0  0  0  0  0  0  0
  161.0470  204.6770  151.5550 C   0  0  0  0  0  3  0  0  0  0  0  0
  160.8620  205.3980  149.2250 N   0  0  0  0  0  2  0  0  0  0  0  0
  161.8820  208.3690  149.0790 C   0  0  2  0  0  3  0  0  0  0  0  0
  161.6060  207.3540  148.1050 N   0  0  0  0  0  2  0  0  0  0  0  0
  161.4460  209.3420  151.3780 C   0  0  0  0  0  0  0  0  0  0  0  0
  161.3920  207.2990  152.4080 C   0  0  0  0  0  0  0  0  0  0  0  0
  161.4950  208.7490  152.5790 C   0  0  0  0  0  0  0  0  0  0  0  0
  161.3480  206.2890  153.3650 C   0  0  0  0  0  2  0  0  0  0  0  0
  161.3280  211.4910  150.0420 C   0  0  0  0  0  0  0  0  0  0  0  0
  161.6200  212.1280  148.8300 C   0  0  2  0  0  0  0  0  0  0  0  0
  162.9280  212.5850  148.6660 O   0  0  0  0  0  1  0  0  0  0  0  0
  160.0770  213.6140  150.5800 C   0  0  0  0  0  3  0  0  0  0  0  0
  161.1010  210.7740  151.1770 C   0  0  0  0  0  0  0  0  0  0  0  0
  160.3060  211.5550  152.0860 C   0  0  0  0  0  3  0  0  0  0  0  0
  160.8400  212.8420  149.7530 C   0  0  0  0  0  0  0  0  0  0  0  0
  159.0590  213.5560  152.7810 O   0  0  0  0  0  1  0  0  0  0  0  0
  159.8220  212.9140  151.8120 C   0  0  0  0  0  0  0  0  0  0  0  0
  160.9140  211.6710  147.6470 N   0  0  0  0  0  0  0  0  0  0  0  0
  160.3210  212.5210  146.9060 N   0  0  0  0  0  0  0  0  0  0  0  0
  159.6270  212.0970  145.7660 N   0  0  0  0  0  2  0  0  0  0  0  0
  157.3300  212.8520  145.6060 C   0  0  0  0  0  1  0  0  0  0  0  0
  158.7370  213.0080  145.0670 C   0  0  2  0  0  3  0  0  0  0  0  0
  158.7500  212.7270  143.6400 N   0  0  0  0  0  2  0  0  0  0  0  0
  159.9980  213.2550  143.1130 C   0  0  0  0  0  2  0  0  0  0  0  0
  160.2650  212.6770  141.7360 C   0  0  0  0  0  2  0  0  0  0  0  0
  161.7540  212.4590  141.5830 C   0  0  0  0  0  2  0  0  0  0  0  0
  162.2830  213.3590  140.5670 N   0  0  0  0  0  2  0  0  0  0  0  0
  162.7270  211.0980  139.5780 C   0  0  0  0  0  2  0  0  0  0  0  0
  163.9290  212.0010  139.2860 C   0  0  0  0  0  2  0  0  0  0  0  0
  161.9440  213.0280  138.0380 C   0  0  0  0  0  1  0  0  0  0  0  0
  162.5370  212.5810  139.3600 C   0  0  0  0  0  0  0  0  0  0  0  0
  162.7300  209.5070  148.6920 C   0  0  0  0  0  3  0  0  0  0  0  0
  163.7010  209.3980  147.7930 C   0  0  0  0  0  2  0  0  0  0  0  0
  161.5760  209.4360  153.7920 O   0  0  0  0  0  0  0  0  0  0  0  0
  161.0840  208.9060  155.0110 C   0  0  0  0  0  2  0  0  0  0  0  0
  159.6450  209.3450  155.2070 C   0  0  0  0  0  2  0  0  0  0  0  0
  159.5230  210.8640  155.2060 C   0  0  0  0  0  2  0  0  0  0  0  0
  158.7750  211.3590  156.4550 C   0  0  1  0  0  3  0  0  0  0  0  0
  157.6950  213.2560  155.6070 C   0  0  0  0  0  2  0  0  0  0  0  0
  158.7480  213.9400  156.4580 C   0  0  0  0  0  2  0  0  0  0  0  0
  156.7070  211.1410  155.2010 C   0  0  0  0  0  1  0  0  0  0  0  0
  159.7580  212.6560  157.2610 S   0  0  0  0  0  0  0  0  0  0  0  0
  157.4570  211.9360  156.1650 N   0  0  0  0  0  0  0  0  0  0  0  0
  1  7  1  0  0  0  0
  2 11  1  0  0  0  0
  3 13  1  0  0  0  0
  4  2  1  0  0  0  0
  4 10  2  0  0  0  0
  5  2  2  0  0  0  0
  5  6  1  0  0  0  0
  6  3  2  0  0  0  0
  7  5  1  0  0  0  0
  8 37  1  1  0  0  0
  8  4  1  0  0  0  0
  9  1  1  0  0  0  0
  9  8  1  0  0  0  0
 10 12  1  0  0  0  0
 11 12  2  0  0  0  0
 11 13  1  0  0  0  0
 12 39  1  0  0  0  0
 14 18  1  0  0  0  0
 15 16  1  6  0  0  0
 15 20  1  0  0  0  0
 15 14  1  0  0  0  0
 17 22  2  0  0  0  0
 18 10  1  0  0  0  0
 18 19  2  0  0  0  0
 20 14  2  0  0  0  0
 20 17  1  0  0  0  0
 22 19  1  0  0  0  0
 22 21  1  0  0  0  0
 23 15  1  0  0  0  0
 24 23  2  0  0  0  0
 25 24  1  0  0  0  0
 27 26  1  1  0  0  0
 27 25  1  0  0  0  0
 28 27  1  0  0  0  0
 29 28  1  0  0  0  0
 30 29  1  0  0  0  0
 31 30  1  0  0  0  0
 32 31  1  0  0  0  0
 34 36  1  0  0  0  0
 34 33  1  0  0  0  0
 35 36  1  0  0  0  0
 36 33  1  0  0  0  0
 36 32  1  0  0  0  0
 38 37  2  0  0  0  0
 39 40  1  0  0  0  0
 40 41  1  0  0  0  0
 42 41  1  0  0  0  0
 43 42  1  6  0  0  0
 43 47  1  0  0  0  0
 44 48  1  0  0  0  0
 44 45  1  0  0  0  0
 45 47  1  0  0  0  0
 46 48  1  0  0  0  0
 48 43  1  0  0  0  0
M  END
>  <MODEL>
5

>  <REMARK>
 VINA RESULT:      -2.7      3.578      8.140
  Name = 
  16 active torsions:
  status: ('A' for Active; 'I' for Inactive)
    1  A    between atoms: C_6  and  C_13
    2  A    between atoms: C_6  and  C_16
    3  A    between atoms: N_7  and  C_41
    4  A    between atoms: N_7  and  N_44
    5  A    between atoms: C_9  and  C_33
    6  A    between atoms: C_9  and  C_35
    7  A    between atoms: C_12  and  N_28
    8  A    between atoms: C_16  and  C_36
    9  A    between atoms: C_20  and  C_34
   10  A    between atoms: N_22  and  C_24
   11  A    between atoms: N_22  and  C_35
   12  A    between atoms: C_25  and  C_27
   13  A    between atoms: C_33  and  N_40
   14  A    between atoms: C_36  and  O_42
   15  A    between atoms: C_39  and  O_42
   16  A    between atoms: N_40  and  C_41
                            x       y       z     vdW  Elec       q    Type
                         _______ _______ _______ _____ _____    ______ ____

>  <TORSDO>
F 16

$$$$
