=
 OpenBabel11052411373D

 43 47  0  0  1  0  0  0  0  0999 V2000
  160.9980  208.0120  155.0920 C   0  0  0  0  0  3  0  0  0  0  0  0
  161.0140  209.4970  153.3700 C   0  0  1  0  0  3  0  0  0  0  0  0
  160.6410  208.3470  152.8220 C   0  0  1  0  0  3  0  0  0  0  0  0
  162.2980  206.7370  152.1070 C   0  0  1  0  0  3  0  0  0  0  0  0
  161.1280  207.8110  151.2080 S   0  0  0  0  0  0  0  0  0  0  0  0
  160.5950  207.2780  153.8470 C   0  0  1  0  0  3  0  0  0  0  0  0
  161.1900  209.2880  154.7960 C   0  0  0  0  0  0  0  0  0  0  0  0
  161.6420  206.2560  153.4080 C   0  0  0  0  0  2  0  0  0  0  0  0
  162.9840  210.7620  155.8030 C   0  0  0  0  0  1  0  0  0  0  0  0
  161.6230  210.2580  155.7520 N   0  0  0  0  0  2  0  0  0  0  0  0
  161.3420  210.6700  152.6870 O   0  0  0  0  0  0  0  0  0  0  0  0
  160.3720  211.5330  152.2270 N   0  0  0  0  0  2  0  0  0  0  0  0
  161.2450  212.8780  148.9600 C   0  0  1  0  0  3  0  0  0  0  0  0
  159.7070  213.1770  150.6460 N   0  0  0  0  0  0  0  0  0  0  0  0
  161.9380  210.7840  149.5450 C   0  0  0  0  0  3  0  0  0  0  0  0
  161.7520  212.1440  150.1380 C   0  0  2  0  0  3  0  0  0  0  0  0
  161.6550  210.7690  148.2840 N   0  0  0  0  0  0  0  0  0  0  0  0
  160.5670  212.2890  151.0360 C   0  0  0  0  0  0  0  0  0  0  0  0
  161.1730  212.0540  147.9200 C   0  0  0  0  0  2  0  0  0  0  0  0
  160.1290  213.7820  149.3880 C   0  0  2  0  0  3  0  0  0  0  0  0
  158.9870  213.8620  148.4150 C   0  0  0  0  0  0  0  0  0  0  0  0
  159.2340  213.6390  147.0260 N   0  0  0  0  0  2  0  0  0  0  0  0
  157.8110  214.0710  148.8270 O   0  0  0  0  0  0  0  0  0  0  0  0
  157.3950  212.4080  146.0480 C   0  0  0  0  0  1  0  0  0  0  0  0
  158.1790  213.7050  146.0260 C   0  0  2  0  0  3  0  0  0  0  0  0
  158.7900  213.9170  144.6500 C   0  0  0  0  0  2  0  0  0  0  0  0
  160.3010  213.7890  144.7210 C   0  0  0  0  0  2  0  0  0  0  0  0
  160.1450  211.9180  143.3400 C   0  0  0  0  0  1  0  0  0  0  0  0
  162.2130  212.9210  143.7030 C   0  0  0  0  0  1  0  0  0  0  0  0
  160.8040  213.2030  143.4900 N   0  0  0  0  0  0  0  0  0  0  0  0
  162.6820  205.5990  151.2840 N   0  0  0  0  0  2  0  0  0  0  0  0
  161.0550  203.8710  148.6390 C   0  0  0  0  0  0  0  0  0  0  0  0
  160.8180  202.5550  148.7650 C   0  0  0  0  0  0  0  0  0  0  0  0
  161.7720  204.5610  150.9030 C   0  0  0  0  0  0  0  0  0  0  0  0
  161.6970  203.4270  151.6080 C   0  0  0  0  0  3  0  0  0  0  0  0
  160.8210  202.2890  151.2810 C   0  0  0  0  0  3  0  0  0  0  0  0
  160.8290  204.8220  149.7790 C   0  0  0  0  0  2  0  0  0  0  0  0
  160.4350  201.9180  150.0530 C   0  0  0  0  0  3  0  0  0  0  0  0
  160.9210  201.7610  147.6170 O   0  0  0  0  0  0  0  0  0  0  0  0
  161.4220  200.4310  147.6400 C   0  0  0  0  0  1  0  0  0  0  0  0
  161.4750  204.3600  147.3950 O   0  0  0  0  0  0  0  0  0  0  0  0
  162.0070  205.6640  147.2100 C   0  0  0  0  0  2  0  0  0  0  0  0
  161.0470  206.4890  146.6210 O   0  0  0  0  0  1  0  0  0  0  0  0
  2 11  1  6  0  0  0
  2  7  1  0  0  0  0
  3  5  1  6  0  0  0
  3  2  1  0  0  0  0
  3  6  1  0  0  0  0
  4 31  1  6  0  0  0
  4  8  1  0  0  0  0
  5  4  1  0  0  0  0
  6  8  1  6  0  0  0
  6  1  1  0  0  0  0
  7  1  2  0  0  0  0
  7 10  1  0  0  0  0
 10  9  1  0  0  0  0
 12 11  1  0  0  0  0
 13 19  1  6  0  0  0
 13 20  1  0  0  0  0
 13 16  1  0  0  0  0
 14 18  2  0  0  0  0
 16 15  1  6  0  0  0
 16 18  1  0  0  0  0
 17 15  2  0  0  0  0
 18 12  1  0  0  0  0
 19 17  1  0  0  0  0
 20 21  1  6  0  0  0
 20 14  1  0  0  0  0
 21 23  2  0  0  0  0
 22 21  1  0  0  0  0
 25 24  1  6  0  0  0
 25 22  1  0  0  0  0
 26 27  1  0  0  0  0
 26 25  1  0  0  0  0
 28 30  1  0  0  0  0
 30 29  1  0  0  0  0
 30 27  1  0  0  0  0
 32 33  2  0  0  0  0
 32 37  1  0  0  0  0
 33 38  1  0  0  0  0
 34 31  1  0  0  0  0
 34 35  2  0  0  0  0
 36 35  1  0  0  0  0
 37 34  1  0  0  0  0
 38 36  2  0  0  0  0
 39 40  1  0  0  0  0
 39 33  1  0  0  0  0
 41 32  1  0  0  0  0
 42 41  1  0  0  0  0
 43 42  1  0  0  0  0
M  END
>  <MODEL>
1

>  <REMARK>
 VINA RESULT:      -7.2      0.000      0.000
  Name = 
  13 active torsions:
  status: ('A' for Active; 'I' for Inactive)
    1  A    between atoms: C_2  and  O_18
    2  A    between atoms: O_4  and  C_12
    3  A    between atoms: C_6  and  C_14
    4  A    between atoms: C_6  and  N_25
    5  A    between atoms: C_8  and  O_11
    6  A    between atoms: N_10  and  O_11
    7  A    between atoms: C_13  and  C_41
    8  A    between atoms: C_14  and  C_22
    9  A    between atoms: C_15  and  N_23
   10  A    between atoms: N_17  and  C_22
   11  A    between atoms: O_18  and  C_30
   12  A    between atoms: N_23  and  C_28
   13  A    between atoms: N_26  and  C_38
                            x       y       z     vdW  Elec       q    Type
                         _______ _______ _______ _____ _____    ______ ____

>  <TORSDO>
F 13

$$$$
=
 OpenBabel11052411373D

 43 47  0  0  1  0  0  0  0  0999 V2000
  160.0000  210.6400  156.0920 C   0  0  0  0  0  3  0  0  0  0  0  0
  160.5120  209.4520  154.2220 C   0  0  1  0  0  3  0  0  0  0  0  0
  160.9400  210.6830  153.9690 C   0  0  1  0  0  3  0  0  0  0  0  0
  159.4230  212.3530  153.0990 C   0  0  1  0  0  3  0  0  0  0  0  0
  160.8470  211.4620  152.3830 S   0  0  0  0  0  0  0  0  0  0  0  0
  160.6590  211.5730  155.1200 C   0  0  1  0  0  3  0  0  0  0  0  0
  159.9680  209.4250  155.5680 C   0  0  0  0  0  0  0  0  0  0  0  0
  159.6970  212.6310  154.5820 C   0  0  0  0  0  2  0  0  0  0  0  0
  160.1410  207.2570  156.8600 C   0  0  0  0  0  1  0  0  0  0  0  0
  159.3660  208.3050  156.2210 N   0  0  0  0  0  2  0  0  0  0  0  0
  160.4410  208.3980  153.3090 O   0  0  0  0  0  0  0  0  0  0  0  0
  160.4990  208.6160  151.9500 N   0  0  0  0  0  2  0  0  0  0  0  0
  162.1890  205.8790  150.2480 C   0  0  1  0  0  3  0  0  0  0  0  0
  161.3870  207.9960  149.8350 N   0  0  0  0  0  0  0  0  0  0  0  0
  161.0030  205.4670  152.1530 C   0  0  0  0  0  3  0  0  0  0  0  0
  161.9120  206.4960  151.5610 C   0  0  2  0  0  3  0  0  0  0  0  0
  160.8480  204.4540  151.3650 N   0  0  0  0  0  0  0  0  0  0  0  0
  161.2400  207.7470  151.0990 C   0  0  0  0  0  0  0  0  0  0  0  0
  161.5410  204.7230  150.1550 C   0  0  0  0  0  2  0  0  0  0  0  0
  162.1600  206.9410  149.1910 C   0  0  2  0  0  3  0  0  0  0  0  0
  161.5220  206.5140  147.8990 C   0  0  0  0  0  0  0  0  0  0  0  0
  162.3470  206.2740  146.7570 N   0  0  0  0  0  2  0  0  0  0  0  0
  160.2770  206.3150  147.8370 O   0  0  0  0  0  0  0  0  0  0  0  0
  160.2930  206.0250  145.5030 C   0  0  0  0  0  1  0  0  0  0  0  0
  161.8000  205.8630  145.4730 C   0  0  2  0  0  3  0  0  0  0  0  0
  162.1590  204.4100  145.2040 C   0  0  0  0  0  2  0  0  0  0  0  0
  160.8990  203.5820  145.0260 C   0  0  0  0  0  2  0  0  0  0  0  0
  159.8930  201.5000  145.3160 C   0  0  0  0  0  1  0  0  0  0  0  0
  161.0600  202.4780  147.0760 C   0  0  0  0  0  1  0  0  0  0  0  0
  161.0770  202.2760  145.6370 N   0  0  0  0  0  0  0  0  0  0  0  0
  159.1920  213.6010  152.3850 N   0  0  0  0  0  2  0  0  0  0  0  0
  159.9910  213.5850  148.9220 C   0  0  0  0  0  0  0  0  0  0  0  0
  159.1490  212.9940  148.0590 C   0  0  0  0  0  0  0  0  0  0  0  0
  158.7110  213.6590  151.0370 C   0  0  0  0  0  0  0  0  0  0  0  0
  157.5380  213.1070  150.7060 C   0  0  0  0  0  3  0  0  0  0  0  0
  156.9730  213.0840  149.3460 C   0  0  0  0  0  3  0  0  0  0  0  0
  159.4870  214.4510  150.0410 C   0  0  0  0  0  2  0  0  0  0  0  0
  157.6700  213.0430  148.2030 C   0  0  0  0  0  3  0  0  0  0  0  0
  159.7040  212.3190  146.9650 O   0  0  0  0  0  0  0  0  0  0  0  0
  159.2150  212.4620  145.6390 C   0  0  0  0  0  1  0  0  0  0  0  0
  161.3690  213.4210  148.7320 O   0  0  0  0  0  0  0  0  0  0  0  0
  162.1860  214.3830  148.0800 C   0  0  0  0  0  2  0  0  0  0  0  0
  162.5470  213.9190  146.8140 O   0  0  0  0  0  1  0  0  0  0  0  0
  2 11  1  6  0  0  0
  2  7  1  0  0  0  0
  3  5  1  6  0  0  0
  3  2  1  0  0  0  0
  3  6  1  0  0  0  0
  4 31  1  6  0  0  0
  4  8  1  0  0  0  0
  5  4  1  0  0  0  0
  6  8  1  6  0  0  0
  6  1  1  0  0  0  0
  7  1  2  0  0  0  0
  7 10  1  0  0  0  0
 10  9  1  0  0  0  0
 12 11  1  0  0  0  0
 13 19  1  6  0  0  0
 13 16  1  0  0  0  0
 14 18  2  0  0  0  0
 16 15  1  1  0  0  0
 17 15  2  0  0  0  0
 18 16  1  0  0  0  0
 18 12  1  0  0  0  0
 19 17  1  0  0  0  0
 20 21  1  6  0  0  0
 20 14  1  0  0  0  0
 20 13  1  0  0  0  0
 22 21  1  0  0  0  0
 23 21  2  0  0  0  0
 25 24  1  1  0  0  0
 25 22  1  0  0  0  0
 26 25  1  0  0  0  0
 27 26  1  0  0  0  0
 27 30  1  0  0  0  0
 28 30  1  0  0  0  0
 30 29  1  0  0  0  0
 32 37  1  0  0  0  0
 33 38  1  0  0  0  0
 33 32  2  0  0  0  0
 34 31  1  0  0  0  0
 35 34  2  0  0  0  0
 36 35  1  0  0  0  0
 37 34  1  0  0  0  0
 38 36  2  0  0  0  0
 39 33  1  0  0  0  0
 40 39  1  0  0  0  0
 41 32  1  0  0  0  0
 42 41  1  0  0  0  0
 43 42  1  0  0  0  0
M  END
>  <MODEL>
2

>  <REMARK>
 VINA RESULT:      -6.7      2.661      7.981
  Name = 
  13 active torsions:
  status: ('A' for Active; 'I' for Inactive)
    1  A    between atoms: C_2  and  O_18
    2  A    between atoms: O_4  and  C_12
    3  A    between atoms: C_6  and  C_14
    4  A    between atoms: C_6  and  N_25
    5  A    between atoms: C_8  and  O_11
    6  A    between atoms: N_10  and  O_11
    7  A    between atoms: C_13  and  C_41
    8  A    between atoms: C_14  and  C_22
    9  A    between atoms: C_15  and  N_23
   10  A    between atoms: N_17  and  C_22
   11  A    between atoms: O_18  and  C_30
   12  A    between atoms: N_23  and  C_28
   13  A    between atoms: N_26  and  C_38
                            x       y       z     vdW  Elec       q    Type
                         _______ _______ _______ _____ _____    ______ ____

>  <TORSDO>
F 13

$$$$
=
 OpenBabel11052411373D

 43 47  0  0  1  0  0  0  0  0999 V2000
  159.7250  214.3510  148.8480 C   0  0  0  0  0  3  0  0  0  0  0  0
  161.2990  212.7140  148.9650 C   0  0  1  0  0  3  0  0  0  0  0  0
  161.5550  213.3510  147.8280 C   0  0  1  0  0  3  0  0  0  0  0  0
  160.3750  212.7650  145.8010 C   0  0  1  0  0  3  0  0  0  0  0  0
  162.1050  212.5570  146.3460 S   0  0  0  0  0  0  0  0  0  0  0  0
  160.5860  214.4530  147.6240 C   0  0  1  0  0  3  0  0  0  0  0  0
  160.1820  213.3750  149.6160 C   0  0  0  0  0  0  0  0  0  0  0  0
  159.8300  214.0910  146.3470 C   0  0  0  0  0  2  0  0  0  0  0  0
  159.2320  213.9330  151.8940 C   0  0  0  0  0  1  0  0  0  0  0  0
  159.5600  212.9860  150.8440 N   0  0  0  0  0  2  0  0  0  0  0  0
  161.8820  211.5200  149.3930 O   0  0  0  0  0  0  0  0  0  0  0  0
  161.6880  210.3380  148.7140 N   0  0  0  0  0  2  0  0  0  0  0  0
  162.1270  207.4680  150.9080 C   0  0  1  0  0  3  0  0  0  0  0  0
  161.8670  207.9690  148.6770 N   0  0  0  0  0  0  0  0  0  0  0  0
  161.3380  209.4340  151.7580 C   0  0  0  0  0  3  0  0  0  0  0  0
  162.3370  208.9240  150.7680 C   0  0  2  0  0  3  0  0  0  0  0  0
  160.7350  208.4690  152.3710 N   0  0  0  0  0  0  0  0  0  0  0  0
  161.9480  209.0830  149.3350 C   0  0  0  0  0  0  0  0  0  0  0  0
  161.1810  207.2410  151.8140 C   0  0  0  0  0  2  0  0  0  0  0  0
  162.1510  206.8360  149.5500 C   0  0  2  0  0  3  0  0  0  0  0  0
  161.1450  205.7370  149.3580 C   0  0  0  0  0  0  0  0  0  0  0  0
  161.5530  204.3780  149.5230 N   0  0  0  0  0  2  0  0  0  0  0  0
  159.9390  206.0140  149.1070 O   0  0  0  0  0  0  0  0  0  0  0  0
  161.0890  202.1080  150.2200 C   0  0  0  0  0  1  0  0  0  0  0  0
  160.6350  203.2620  149.3490 C   0  0  2  0  0  3  0  0  0  0  0  0
  160.6190  202.8350  147.8900 C   0  0  0  0  0  2  0  0  0  0  0  0
  161.5790  203.6900  147.0820 C   0  0  0  0  0  2  0  0  0  0  0  0
  160.8690  204.1660  144.9140 C   0  0  0  0  0  1  0  0  0  0  0  0
  160.8880  201.9650  145.6700 C   0  0  0  0  0  1  0  0  0  0  0  0
  161.6260  203.2160  145.7090 N   0  0  0  0  0  0  0  0  0  0  0  0
  160.2930  212.7450  144.3470 N   0  0  0  0  0  2  0  0  0  0  0  0
  161.6720  212.5170  141.0790 C   0  0  0  0  0  0  0  0  0  0  0  0
  162.4870  213.4920  140.6440 C   0  0  0  0  0  0  0  0  0  0  0  0
  161.4120  213.0000  143.4920 C   0  0  0  0  0  0  0  0  0  0  0  0
  162.1760  214.0830  143.6720 C   0  0  0  0  0  3  0  0  0  0  0  0
  163.3260  214.4520  142.8290 C   0  0  0  0  0  3  0  0  0  0  0  0
  161.7770  211.9720  142.4750 C   0  0  0  0  0  2  0  0  0  0  0  0
  163.4630  214.1890  141.5230 C   0  0  0  0  0  3  0  0  0  0  0  0
  162.4150  213.8450  139.2910 O   0  0  0  0  0  0  0  0  0  0  0  0
  163.5590  214.1870  138.5210 C   0  0  0  0  0  1  0  0  0  0  0  0
  160.7410  211.9720  140.1860 O   0  0  0  0  0  0  0  0  0  0  0  0
  160.4820  210.5790  140.0840 C   0  0  0  0  0  2  0  0  0  0  0  0
  161.6640  209.8960  139.7920 O   0  0  0  0  0  1  0  0  0  0  0  0
  1  7  2  0  0  0  0
  2 11  1  6  0  0  0
  2  7  1  0  0  0  0
  3  5  1  6  0  0  0
  3  2  1  0  0  0  0
  4 31  1  6  0  0  0
  4  5  1  0  0  0  0
  4  8  1  0  0  0  0
  6  8  1  6  0  0  0
  6  3  1  0  0  0  0
  6  1  1  0  0  0  0
  7 10  1  0  0  0  0
 10  9  1  0  0  0  0
 12 18  1  0  0  0  0
 12 11  1  0  0  0  0
 13 19  1  6  0  0  0
 14 18  2  0  0  0  0
 14 20  1  0  0  0  0
 15 17  2  0  0  0  0
 16 13  1  0  0  0  0
 16 15  1  1  0  0  0
 18 16  1  0  0  0  0
 19 17  1  0  0  0  0
 20 21  1  1  0  0  0
 20 13  1  0  0  0  0
 21 22  1  0  0  0  0
 23 21  2  0  0  0  0
 25 22  1  0  0  0  0
 25 24  1  1  0  0  0
 26 25  1  0  0  0  0
 27 26  1  0  0  0  0
 28 30  1  0  0  0  0
 29 30  1  0  0  0  0
 30 27  1  0  0  0  0
 32 37  1  0  0  0  0
 33 32  2  0  0  0  0
 33 38  1  0  0  0  0
 34 35  2  0  0  0  0
 34 31  1  0  0  0  0
 36 35  1  0  0  0  0
 37 34  1  0  0  0  0
 38 36  2  0  0  0  0
 39 33  1  0  0  0  0
 40 39  1  0  0  0  0
 41 32  1  0  0  0  0
 42 41  1  0  0  0  0
 43 42  1  0  0  0  0
M  END
>  <MODEL>
3

>  <REMARK>
 VINA RESULT:      -6.5      3.425      9.561
  Name = 
  13 active torsions:
  status: ('A' for Active; 'I' for Inactive)
    1  A    between atoms: C_2  and  O_18
    2  A    between atoms: O_4  and  C_12
    3  A    between atoms: C_6  and  C_14
    4  A    between atoms: C_6  and  N_25
    5  A    between atoms: C_8  and  O_11
    6  A    between atoms: N_10  and  O_11
    7  A    between atoms: C_13  and  C_41
    8  A    between atoms: C_14  and  C_22
    9  A    between atoms: C_15  and  N_23
   10  A    between atoms: N_17  and  C_22
   11  A    between atoms: O_18  and  C_30
   12  A    between atoms: N_23  and  C_28
   13  A    between atoms: N_26  and  C_38
                            x       y       z     vdW  Elec       q    Type
                         _______ _______ _______ _____ _____    ______ ____

>  <TORSDO>
F 13

$$$$
=
 OpenBabel11052411373D

 43 47  0  0  1  0  0  0  0  0999 V2000
  160.2070  210.1920  155.2110 C   0  0  0  0  0  3  0  0  0  0  0  0
  161.3340  209.6490  153.3110 C   0  0  1  0  0  3  0  0  0  0  0  0
  161.2530  210.9740  153.2910 C   0  0  1  0  0  3  0  0  0  0  0  0
  159.2870  212.0690  152.4090 C   0  0  1  0  0  3  0  0  0  0  0  0
  161.0100  211.9330  151.8240 S   0  0  0  0  0  0  0  0  0  0  0  0
  160.5280  211.4660  154.4860 C   0  0  1  0  0  3  0  0  0  0  0  0
  160.7170  209.1730  154.5360 C   0  0  0  0  0  0  0  0  0  0  0  0
  159.2790  212.1560  153.9400 C   0  0  0  0  0  2  0  0  0  0  0  0
  159.9520  207.4240  156.1980 C   0  0  0  0  0  1  0  0  0  0  0  0
  160.5560  207.8090  154.9350 N   0  0  0  0  0  2  0  0  0  0  0  0
  161.7810  208.8320  152.2710 O   0  0  0  0  0  0  0  0  0  0  0  0
  161.4930  207.4860  152.2360 N   0  0  0  0  0  2  0  0  0  0  0  0
  160.7060  206.3920  148.8550 C   0  0  1  0  0  3  0  0  0  0  0  0
  160.6470  205.6250  151.0240 N   0  0  0  0  0  0  0  0  0  0  0  0
  162.1720  208.1120  149.1770 C   0  0  0  0  0  3  0  0  0  0  0  0
  160.8940  207.5680  149.7310 C   0  0  2  0  0  3  0  0  0  0  0  0
  162.5860  207.4240  148.1640 N   0  0  0  0  0  0  0  0  0  0  0  0
  161.0170  206.8680  151.0440 C   0  0  0  0  0  0  0  0  0  0  0  0
  161.7090  206.3210  147.9860 C   0  0  0  0  0  2  0  0  0  0  0  0
  160.2340  205.2350  149.6810 C   0  0  2  0  0  3  0  0  0  0  0  0
  160.8290  203.9110  149.2940 C   0  0  0  0  0  0  0  0  0  0  0  0
  159.9660  202.7940  149.0720 N   0  0  0  0  0  2  0  0  0  0  0  0
  162.0730  203.7990  149.1130 O   0  0  0  0  0  0  0  0  0  0  0  0
  161.1900  200.8720  149.8870 C   0  0  0  0  0  1  0  0  0  0  0  0
  160.4710  201.4810  148.6990 C   0  0  2  0  0  3  0  0  0  0  0  0
  161.4290  201.6140  147.5260 C   0  0  0  0  0  2  0  0  0  0  0  0
  160.9250  200.8070  146.3430 C   0  0  0  0  0  2  0  0  0  0  0  0
  161.1320  203.0080  145.6070 C   0  0  0  0  0  1  0  0  0  0  0  0
  159.2220  201.7860  145.0840 C   0  0  0  0  0  1  0  0  0  0  0  0
  160.6650  201.6900  145.2190 N   0  0  0  0  0  0  0  0  0  0  0  0
  158.6440  213.2430  151.8330 N   0  0  0  0  0  2  0  0  0  0  0  0
  159.9600  213.4660  148.5390 C   0  0  0  0  0  0  0  0  0  0  0  0
  159.2720  212.9240  147.5220 C   0  0  0  0  0  0  0  0  0  0  0  0
  158.3720  213.3840  150.4340 C   0  0  0  0  0  0  0  0  0  0  0  0
  157.2760  212.8410  149.8930 C   0  0  0  0  0  3  0  0  0  0  0  0
  156.9240  212.9010  148.4640 C   0  0  0  0  0  3  0  0  0  0  0  0
  159.2730  214.2500  149.6210 C   0  0  0  0  0  2  0  0  0  0  0  0
  157.7870  212.9450  147.4400 C   0  0  0  0  0  3  0  0  0  0  0  0
  160.0020  212.3290  146.4850 O   0  0  0  0  0  0  0  0  0  0  0  0
  159.5180  212.2390  145.1520 C   0  0  0  0  0  1  0  0  0  0  0  0
  161.3540  213.3320  148.5530 O   0  0  0  0  0  0  0  0  0  0  0  0
  162.0160  212.0810  148.6780 C   0  0  0  0  0  2  0  0  0  0  0  0
  163.2220  212.1090  147.9770 O   0  0  0  0  0  1  0  0  0  0  0  0
  2 11  1  6  0  0  0
  2  7  1  0  0  0  0
  3  5  1  6  0  0  0
  3  2  1  0  0  0  0
  3  6  1  0  0  0  0
  4 31  1  6  0  0  0
  4  8  1  0  0  0  0
  5  4  1  0  0  0  0
  6  8  1  6  0  0  0
  6  1  1  0  0  0  0
  7 10  1  0  0  0  0
  7  1  2  0  0  0  0
 10  9  1  0  0  0  0
 12 11  1  0  0  0  0
 13 19  1  1  0  0  0
 13 20  1  0  0  0  0
 13 16  1  0  0  0  0
 14 18  2  0  0  0  0
 16 15  1  6  0  0  0
 16 18  1  0  0  0  0
 17 15  2  0  0  0  0
 18 12  1  0  0  0  0
 19 17  1  0  0  0  0
 20 21  1  6  0  0  0
 20 14  1  0  0  0  0
 22 21  1  0  0  0  0
 23 21  2  0  0  0  0
 25 22  1  0  0  0  0
 25 24  1  1  0  0  0
 26 25  1  0  0  0  0
 27 26  1  0  0  0  0
 29 30  1  0  0  0  0
 30 28  1  0  0  0  0
 30 27  1  0  0  0  0
 32 41  1  0  0  0  0
 32 37  1  0  0  0  0
 33 32  2  0  0  0  0
 34 31  1  0  0  0  0
 35 34  2  0  0  0  0
 36 35  1  0  0  0  0
 37 34  1  0  0  0  0
 38 33  1  0  0  0  0
 38 36  2  0  0  0  0
 39 33  1  0  0  0  0
 40 39  1  0  0  0  0
 41 42  1  0  0  0  0
 43 42  1  0  0  0  0
M  END
>  <MODEL>
4

>  <REMARK>
 VINA RESULT:      -5.8      2.610      8.478
  Name = 
  13 active torsions:
  status: ('A' for Active; 'I' for Inactive)
    1  A    between atoms: C_2  and  O_18
    2  A    between atoms: O_4  and  C_12
    3  A    between atoms: C_6  and  C_14
    4  A    between atoms: C_6  and  N_25
    5  A    between atoms: C_8  and  O_11
    6  A    between atoms: N_10  and  O_11
    7  A    between atoms: C_13  and  C_41
    8  A    between atoms: C_14  and  C_22
    9  A    between atoms: C_15  and  N_23
   10  A    between atoms: N_17  and  C_22
   11  A    between atoms: O_18  and  C_30
   12  A    between atoms: N_23  and  C_28
   13  A    between atoms: N_26  and  C_38
                            x       y       z     vdW  Elec       q    Type
                         _______ _______ _______ _____ _____    ______ ____

>  <TORSDO>
F 13

$$$$
=
 OpenBabel11052411373D

 43 47  0  0  1  0  0  0  0  0999 V2000
  160.2800  212.5230  156.3250 C   0  0  0  0  0  3  0  0  0  0  0  0
  160.3280  210.8930  154.7400 C   0  0  1  0  0  3  0  0  0  0  0  0
  159.7910  211.9430  154.1300 C   0  0  1  0  0  3  0  0  0  0  0  0
  157.4220  212.3890  154.3160 C   0  0  1  0  0  3  0  0  0  0  0  0
  158.4870  211.8410  152.9390 S   0  0  0  0  0  0  0  0  0  0  0  0
  159.6950  213.0890  155.0650 C   0  0  1  0  0  3  0  0  0  0  0  0
  160.6710  211.2790  156.0970 C   0  0  0  0  0  0  0  0  0  0  0  0
  158.2010  213.3770  155.1940 C   0  0  0  0  0  2  0  0  0  0  0  0
  162.4390  209.6520  156.8920 C   0  0  0  0  0  1  0  0  0  0  0  0
  161.2360  210.4370  157.1050 N   0  0  0  0  0  2  0  0  0  0  0  0
  160.4050  209.5930  154.2340 O   0  0  0  0  0  0  0  0  0  0  0  0
  160.2810  209.3350  152.8870 N   0  0  0  0  0  2  0  0  0  0  0  0
  162.1240  206.3420  151.9440 C   0  0  1  0  0  3  0  0  0  0  0  0
  161.0030  208.1080  150.9850 N   0  0  0  0  0  0  0  0  0  0  0  0
  161.2240  206.5060  154.0350 C   0  0  0  0  0  3  0  0  0  0  0  0
  161.9150  207.3460  153.0080 C   0  0  2  0  0  3  0  0  0  0  0  0
  161.1200  205.2740  153.6560 N   0  0  0  0  0  0  0  0  0  0  0  0
  161.0330  208.2970  152.2670 C   0  0  0  0  0  0  0  0  0  0  0  0
  161.6310  205.1710  152.3350 C   0  0  0  0  0  2  0  0  0  0  0  0
  161.8340  206.9680  150.6140 C   0  0  2  0  0  3  0  0  0  0  0  0
  161.1190  206.0690  149.6460 C   0  0  0  0  0  0  0  0  0  0  0  0
  161.4330  204.6750  149.6240 N   0  0  0  0  0  2  0  0  0  0  0  0
  160.2130  206.5290  148.8980 O   0  0  0  0  0  0  0  0  0  0  0  0
  160.4870  202.4550  149.4500 C   0  0  0  0  0  1  0  0  0  0  0  0
  160.7850  203.7450  148.7120 C   0  0  2  0  0  3  0  0  0  0  0  0
  161.7000  203.4650  147.5300 C   0  0  0  0  0  2  0  0  0  0  0  0
  162.0330  204.7580  146.8070 C   0  0  0  0  0  2  0  0  0  0  0  0
  160.9660  203.4750  145.1800 C   0  0  0  0  0  1  0  0  0  0  0  0
  162.1790  205.3620  144.5580 C   0  0  0  0  0  1  0  0  0  0  0  0
  161.2760  204.8390  145.5690 N   0  0  0  0  0  0  0  0  0  0  0  0
  156.2090  213.0130  153.8050 N   0  0  0  0  0  2  0  0  0  0  0  0
  157.8820  213.9010  150.7980 C   0  0  0  0  0  0  0  0  0  0  0  0
  157.1830  213.9570  149.6530 C   0  0  0  0  0  0  0  0  0  0  0  0
  156.1400  213.6820  152.5410 C   0  0  0  0  0  0  0  0  0  0  0  0
  155.0010  213.7040  151.8410 C   0  0  0  0  0  3  0  0  0  0  0  0
  154.8370  214.3340  150.5200 C   0  0  0  0  0  3  0  0  0  0  0  0
  157.3310  214.4530  152.0810 C   0  0  0  0  0  2  0  0  0  0  0  0
  155.7820  214.4500  149.5780 C   0  0  0  0  0  3  0  0  0  0  0  0
  157.8240  213.5460  148.4770 O   0  0  0  0  0  0  0  0  0  0  0  0
  157.2450  212.6250  147.5640 C   0  0  0  0  0  1  0  0  0  0  0  0
  159.1730  213.3560  150.7700 O   0  0  0  0  0  0  0  0  0  0  0  0
  160.3240  214.0980  150.3910 C   0  0  0  0  0  2  0  0  0  0  0  0
  160.8230  213.6140  149.1810 O   0  0  0  0  0  1  0  0  0  0  0  0
  2 11  1  1  0  0  0
  2  7  1  0  0  0  0
  3  5  1  1  0  0  0
  3  2  1  0  0  0  0
  3  6  1  0  0  0  0
  4 31  1  6  0  0  0
  4  8  1  0  0  0  0
  5  4  1  0  0  0  0
  6  8  1  1  0  0  0
  6  1  1  0  0  0  0
  7  1  2  0  0  0  0
  7 10  1  0  0  0  0
  9 10  1  0  0  0  0
 12 11  1  0  0  0  0
 13 19  1  1  0  0  0
 13 16  1  0  0  0  0
 14 18  2  0  0  0  0
 16 15  1  1  0  0  0
 17 15  2  0  0  0  0
 18 12  1  0  0  0  0
 18 16  1  0  0  0  0
 19 17  1  0  0  0  0
 20 21  1  6  0  0  0
 20 14  1  0  0  0  0
 20 13  1  0  0  0  0
 22 21  1  0  0  0  0
 23 21  2  0  0  0  0
 25 24  1  1  0  0  0
 25 22  1  0  0  0  0
 26 25  1  0  0  0  0
 27 26  1  0  0  0  0
 28 30  1  0  0  0  0
 29 30  1  0  0  0  0
 30 27  1  0  0  0  0
 32 37  1  0  0  0  0
 33 32  2  0  0  0  0
 34 31  1  0  0  0  0
 35 34  2  0  0  0  0
 36 35  1  0  0  0  0
 37 34  1  0  0  0  0
 38 33  1  0  0  0  0
 38 36  2  0  0  0  0
 39 33  1  0  0  0  0
 40 39  1  0  0  0  0
 41 32  1  0  0  0  0
 42 41  1  0  0  0  0
 43 42  1  0  0  0  0
M  END
>  <MODEL>
5

>  <REMARK>
 VINA RESULT:      -5.5      3.154      8.531
  Name = 
  13 active torsions:
  status: ('A' for Active; 'I' for Inactive)
    1  A    between atoms: C_2  and  O_18
    2  A    between atoms: O_4  and  C_12
    3  A    between atoms: C_6  and  C_14
    4  A    between atoms: C_6  and  N_25
    5  A    between atoms: C_8  and  O_11
    6  A    between atoms: N_10  and  O_11
    7  A    between atoms: C_13  and  C_41
    8  A    between atoms: C_14  and  C_22
    9  A    between atoms: C_15  and  N_23
   10  A    between atoms: N_17  and  C_22
   11  A    between atoms: O_18  and  C_30
   12  A    between atoms: N_23  and  C_28
   13  A    between atoms: N_26  and  C_38
                            x       y       z     vdW  Elec       q    Type
                         _______ _______ _______ _____ _____    ______ ____

>  <TORSDO>
F 13

$$$$
=
 OpenBabel11052411373D

 43 47  0  0  1  0  0  0  0  0999 V2000
  160.0300  214.4490  149.3820 C   0  0  0  0  0  3  0  0  0  0  0  0
  160.8800  212.3650  149.7060 C   0  0  1  0  0  3  0  0  0  0  0  0
  159.7770  212.4000  150.4440 C   0  0  1  0  0  3  0  0  0  0  0  0
  159.8280  213.3120  152.6820 C   0  0  1  0  0  3  0  0  0  0  0  0
  159.6130  211.6230  152.0250 S   0  0  0  0  0  0  0  0  0  0  0  0
  159.1190  213.7220  150.3270 C   0  0  1  0  0  3  0  0  0  0  0  0
  161.0050  213.6340  149.0110 C   0  0  0  0  0  0  0  0  0  0  0  0
  159.1500  214.3120  151.7360 C   0  0  0  0  0  2  0  0  0  0  0  0
  162.2780  213.4400  146.8330 C   0  0  0  0  0  1  0  0  0  0  0  0
  162.0700  214.0290  148.1440 N   0  0  0  0  0  2  0  0  0  0  0  0
  161.8470  211.3580  149.7120 O   0  0  0  0  0  0  0  0  0  0  0  0
  161.7030  210.2160  148.9560 N   0  0  0  0  0  2  0  0  0  0  0  0
  162.1370  207.2280  150.9890 C   0  0  1  0  0  3  0  0  0  0  0  0
  161.9390  207.8570  148.7840 N   0  0  0  0  0  0  0  0  0  0  0  0
  161.2730  209.1200  151.9270 C   0  0  0  0  0  3  0  0  0  0  0  0
  162.3160  208.6930  150.9440 C   0  0  2  0  0  3  0  0  0  0  0  0
  160.6740  208.1070  152.4600 N   0  0  0  0  0  0  0  0  0  0  0  0
  161.9720  208.9310  149.5100 C   0  0  0  0  0  0  0  0  0  0  0  0
  161.1670  206.9250  151.8460 C   0  0  0  0  0  2  0  0  0  0  0  0
  162.2210  206.6800  149.5970 C   0  0  2  0  0  3  0  0  0  0  0  0
  161.2470  205.5730  149.3040 C   0  0  0  0  0  0  0  0  0  0  0  0
  161.5730  204.2360  149.6860 N   0  0  0  0  0  2  0  0  0  0  0  0
  160.1300  205.8300  148.7760 O   0  0  0  0  0  0  0  0  0  0  0  0
  160.7860  202.1300  150.5800 C   0  0  0  0  0  1  0  0  0  0  0  0
  160.6830  203.1140  149.4310 C   0  0  2  0  0  3  0  0  0  0  0  0
  161.0750  202.4320  148.1300 C   0  0  0  0  0  2  0  0  0  0  0  0
  161.7900  203.4140  147.2190 C   0  0  0  0  0  2  0  0  0  0  0  0
  160.6860  202.2040  145.5610 C   0  0  0  0  0  1  0  0  0  0  0  0
  162.0090  204.0280  144.9780 C   0  0  0  0  0  1  0  0  0  0  0  0
  161.0610  203.5460  145.9680 N   0  0  0  0  0  0  0  0  0  0  0  0
  159.2590  213.4160  154.0190 N   0  0  0  0  0  2  0  0  0  0  0  0
  158.3780  210.5350  155.9050 C   0  0  0  0  0  0  0  0  0  0  0  0
  159.3500  209.7300  156.3610 C   0  0  0  0  0  0  0  0  0  0  0  0
  159.5970  212.5270  155.0890 C   0  0  0  0  0  0  0  0  0  0  0  0
  160.8750  212.2360  155.3560 C   0  0  0  0  0  3  0  0  0  0  0  0
  161.3240  211.3110  156.4110 C   0  0  0  0  0  3  0  0  0  0  0  0
  158.5030  212.0310  155.9720 C   0  0  0  0  0  2  0  0  0  0  0  0
  160.6610  210.2330  156.8500 C   0  0  0  0  0  3  0  0  0  0  0  0
  159.0960  208.3530  156.3890 O   0  0  0  0  0  0  0  0  0  0  0  0
  160.0730  207.3950  156.7700 C   0  0  0  0  0  1  0  0  0  0  0  0
  157.2050  209.9550  155.4040 O   0  0  0  0  0  0  0  0  0  0  0  0
  155.9850  210.6670  155.2550 C   0  0  0  0  0  2  0  0  0  0  0  0
  155.0540  209.8780  154.5780 O   0  0  0  0  0  1  0  0  0  0  0  0
  2 11  1  1  0  0  0
  2  3  1  0  0  0  0
  3  5  1  1  0  0  0
  4 31  1  1  0  0  0
  5  4  1  0  0  0  0
  6  1  1  6  0  0  0
  6  3  1  0  0  0  0
  6  8  1  0  0  0  0
  7  1  2  0  0  0  0
  7  2  1  0  0  0  0
  8  4  1  0  0  0  0
  9 10  1  0  0  0  0
 10  7  1  0  0  0  0
 12 18  1  0  0  0  0
 12 11  1  0  0  0  0
 13 19  1  6  0  0  0
 14 18  2  0  0  0  0
 14 20  1  0  0  0  0
 15 17  2  0  0  0  0
 16 13  1  0  0  0  0
 16 15  1  1  0  0  0
 18 16  1  0  0  0  0
 19 17  1  0  0  0  0
 20 21  1  1  0  0  0
 20 13  1  0  0  0  0
 21 22  1  0  0  0  0
 23 21  2  0  0  0  0
 25 22  1  0  0  0  0
 25 24  1  1  0  0  0
 26 25  1  0  0  0  0
 27 26  1  0  0  0  0
 28 30  1  0  0  0  0
 29 30  1  0  0  0  0
 30 27  1  0  0  0  0
 31 34  1  0  0  0  0
 32 37  1  0  0  0  0
 32 33  2  0  0  0  0
 33 39  1  0  0  0  0
 33 38  1  0  0  0  0
 34 35  2  0  0  0  0
 34 37  1  0  0  0  0
 35 36  1  0  0  0  0
 36 38  2  0  0  0  0
 39 40  1  0  0  0  0
 41 32  1  0  0  0  0
 42 41  1  0  0  0  0
 43 42  1  0  0  0  0
M  END
>  <MODEL>
6

>  <REMARK>
 VINA RESULT:      -5.3      2.894      8.692
  Name = 
  13 active torsions:
  status: ('A' for Active; 'I' for Inactive)
    1  A    between atoms: C_2  and  O_18
    2  A    between atoms: O_4  and  C_12
    3  A    between atoms: C_6  and  C_14
    4  A    between atoms: C_6  and  N_25
    5  A    between atoms: C_8  and  O_11
    6  A    between atoms: N_10  and  O_11
    7  A    between atoms: C_13  and  C_41
    8  A    between atoms: C_14  and  C_22
    9  A    between atoms: C_15  and  N_23
   10  A    between atoms: N_17  and  C_22
   11  A    between atoms: O_18  and  C_30
   12  A    between atoms: N_23  and  C_28
   13  A    between atoms: N_26  and  C_38
                            x       y       z     vdW  Elec       q    Type
                         _______ _______ _______ _____ _____    ______ ____

>  <TORSDO>
F 13

$$$$
=
 OpenBabel11052411373D

 43 47  0  0  1  0  0  0  0  0999 V2000
  159.7170  210.0440  154.8870 C   0  0  0  0  0  3  0  0  0  0  0  0
  161.0750  209.7620  153.0850 C   0  0  1  0  0  3  0  0  0  0  0  0
  160.8880  211.0740  153.1670 C   0  0  1  0  0  3  0  0  0  0  0  0
  158.9390  212.0970  152.1670 C   0  0  1  0  0  3  0  0  0  0  0  0
  160.7200  212.1430  151.7670 S   0  0  0  0  0  0  0  0  0  0  0  0
  160.0040  211.3990  154.3110 C   0  0  1  0  0  3  0  0  0  0  0  0
  160.3760  209.1310  154.1910 C   0  0  0  0  0  0  0  0  0  0  0  0
  158.7660  212.0430  153.6900 C   0  0  0  0  0  2  0  0  0  0  0  0
  160.5290  207.1570  155.7670 C   0  0  0  0  0  1  0  0  0  0  0  0
  160.2880  207.7290  154.4540 N   0  0  0  0  0  2  0  0  0  0  0  0
  161.6940  209.0790  152.0360 O   0  0  0  0  0  0  0  0  0  0  0  0
  161.4540  207.7430  151.8040 N   0  0  0  0  0  2  0  0  0  0  0  0
  161.0470  207.0740  148.2500 C   0  0  1  0  0  3  0  0  0  0  0  0
  160.7930  206.0360  150.2880 N   0  0  0  0  0  0  0  0  0  0  0  0
  162.4190  208.7650  148.9350 C   0  0  0  0  0  3  0  0  0  0  0  0
  161.1090  208.1320  149.2800 C   0  0  2  0  0  3  0  0  0  0  0  0
  162.9550  208.2190  147.8930 N   0  0  0  0  0  0  0  0  0  0  0  0
  161.1200  207.2720  150.5020 C   0  0  0  0  0  0  0  0  0  0  0  0
  162.1350  207.1330  147.4880 C   0  0  0  0  0  2  0  0  0  0  0  0
  160.5300  205.8130  148.8720 C   0  0  2  0  0  3  0  0  0  0  0  0
  161.2030  204.5600  148.3860 C   0  0  0  0  0  0  0  0  0  0  0  0
  160.6610  203.2890  148.7510 N   0  0  0  0  0  2  0  0  0  0  0  0
  162.2030  204.6280  147.6190 O   0  0  0  0  0  0  0  0  0  0  0  0
  160.5180  201.5220  147.1050 C   0  0  0  0  0  1  0  0  0  0  0  0
  161.2600  202.0340  148.3230 C   0  0  2  0  0  3  0  0  0  0  0  0
  161.1750  201.0140  149.4480 C   0  0  0  0  0  2  0  0  0  0  0  0
  160.4980  201.6270  150.6610 C   0  0  0  0  0  2  0  0  0  0  0  0
  162.4720  201.7830  151.8890 C   0  0  0  0  0  1  0  0  0  0  0  0
  160.6690  203.1580  152.4140 C   0  0  0  0  0  1  0  0  0  0  0  0
  161.3990  202.5670  151.3050 N   0  0  0  0  0  0  0  0  0  0  0  0
  158.2650  213.2680  151.6230 N   0  0  0  0  0  2  0  0  0  0  0  0
  159.8520  213.7690  148.4820 C   0  0  0  0  0  0  0  0  0  0  0  0
  159.2720  213.2860  147.3720 C   0  0  0  0  0  0  0  0  0  0  0  0
  158.1100  213.5060  150.2190 C   0  0  0  0  0  0  0  0  0  0  0  0
  157.0830  212.9770  149.5460 C   0  0  0  0  0  3  0  0  0  0  0  0
  156.8540  213.1350  148.1000 C   0  0  0  0  0  3  0  0  0  0  0  0
  159.0500  214.4530  149.5530 C   0  0  0  0  0  2  0  0  0  0  0  0
  157.8000  213.2760  147.1620 C   0  0  0  0  0  3  0  0  0  0  0  0
  160.1070  212.7890  146.3640 O   0  0  0  0  0  0  0  0  0  0  0  0
  159.6120  212.1490  145.1970 C   0  0  0  0  0  1  0  0  0  0  0  0
  161.2440  213.6700  148.6100 O   0  0  0  0  0  0  0  0  0  0  0  0
  161.9380  212.4300  148.6310 C   0  0  0  0  0  2  0  0  0  0  0  0
  163.2050  212.5850  148.0660 O   0  0  0  0  0  1  0  0  0  0  0  0
  2 11  1  6  0  0  0
  2  3  1  0  0  0  0
  2  7  1  0  0  0  0
  3  5  1  6  0  0  0
  3  6  1  0  0  0  0
  4 31  1  1  0  0  0
  4  8  1  0  0  0  0
  5  4  1  0  0  0  0
  6  8  1  6  0  0  0
  6  1  1  0  0  0  0
  7 10  1  0  0  0  0
  7  1  2  0  0  0  0
 10  9  1  0  0  0  0
 12 11  1  0  0  0  0
 13 19  1  1  0  0  0
 13 20  1  0  0  0  0
 13 16  1  0  0  0  0
 14 18  2  0  0  0  0
 16 15  1  6  0  0  0
 16 18  1  0  0  0  0
 17 15  2  0  0  0  0
 18 12  1  0  0  0  0
 19 17  1  0  0  0  0
 20 21  1  6  0  0  0
 20 14  1  0  0  0  0
 21 22  1  0  0  0  0
 23 21  2  0  0  0  0
 25 24  1  6  0  0  0
 25 22  1  0  0  0  0
 25 26  1  0  0  0  0
 26 27  1  0  0  0  0
 27 30  1  0  0  0  0
 30 28  1  0  0  0  0
 30 29  1  0  0  0  0
 32 41  1  0  0  0  0
 32 37  1  0  0  0  0
 33 32  2  0  0  0  0
 34 31  1  0  0  0  0
 35 34  2  0  0  0  0
 36 35  1  0  0  0  0
 37 34  1  0  0  0  0
 38 33  1  0  0  0  0
 38 36  2  0  0  0  0
 39 33  1  0  0  0  0
 40 39  1  0  0  0  0
 41 42  1  0  0  0  0
 43 42  1  0  0  0  0
M  END
>  <MODEL>
7

>  <REMARK>
 VINA RESULT:      -5.2      2.371      8.703
  Name = 
  13 active torsions:
  status: ('A' for Active; 'I' for Inactive)
    1  A    between atoms: C_2  and  O_18
    2  A    between atoms: O_4  and  C_12
    3  A    between atoms: C_6  and  C_14
    4  A    between atoms: C_6  and  N_25
    5  A    between atoms: C_8  and  O_11
    6  A    between atoms: N_10  and  O_11
    7  A    between atoms: C_13  and  C_41
    8  A    between atoms: C_14  and  C_22
    9  A    between atoms: C_15  and  N_23
   10  A    between atoms: N_17  and  C_22
   11  A    between atoms: O_18  and  C_30
   12  A    between atoms: N_23  and  C_28
   13  A    between atoms: N_26  and  C_38
                            x       y       z     vdW  Elec       q    Type
                         _______ _______ _______ _____ _____    ______ ____

>  <TORSDO>
F 13

$$$$
=
 OpenBabel11052411373D

 43 47  0  0  1  0  0  0  0  0999 V2000
  160.0360  212.9030  150.7940 C   0  0  0  0  0  3  0  0  0  0  0  0
  161.6540  211.4690  150.0900 C   0  0  1  0  0  3  0  0  0  0  0  0
  161.7130  212.4890  149.2420 C   0  0  1  0  0  3  0  0  0  0  0  0
  160.2480  212.5700  147.3200 C   0  0  1  0  0  3  0  0  0  0  0  0
  162.0460  212.3260  147.5120 S   0  0  0  0  0  0  0  0  0  0  0  0
  160.6930  213.5070  149.5880 C   0  0  1  0  0  3  0  0  0  0  0  0
  160.6350  211.7580  151.0820 C   0  0  0  0  0  0  0  0  0  0  0  0
  159.7580  213.5640  148.3820 C   0  0  0  0  0  2  0  0  0  0  0  0
  159.2170  211.2940  153.1260 C   0  0  0  0  0  1  0  0  0  0  0  0
  160.2240  210.9060  152.1550 N   0  0  0  0  0  2  0  0  0  0  0  0
  162.3310  210.2540  149.9690 O   0  0  0  0  0  0  0  0  0  0  0  0
  162.0200  209.1730  150.7630 N   0  0  0  0  0  2  0  0  0  0  0  0
  160.8620  206.3590  148.7650 C   0  0  1  0  0  3  0  0  0  0  0  0
  161.0210  207.0260  150.9620 N   0  0  0  0  0  0  0  0  0  0  0  0
  162.3820  207.8200  147.8910 C   0  0  0  0  0  3  0  0  0  0  0  0
  161.1600  207.8060  148.7540 C   0  0  2  0  0  3  0  0  0  0  0  0
  162.6750  206.6390  147.4570 N   0  0  0  0  0  0  0  0  0  0  0  0
  161.4110  208.0090  150.2120 C   0  0  0  0  0  0  0  0  0  0  0  0
  161.7670  205.7140  148.0360 C   0  0  0  0  0  2  0  0  0  0  0  0
  160.4610  205.9520  150.1500 C   0  0  2  0  0  3  0  0  0  0  0  0
  160.9910  204.6130  150.5820 C   0  0  0  0  0  0  0  0  0  0  0  0
  160.2290  203.4370  150.3050 N   0  0  0  0  0  2  0  0  0  0  0  0
  162.1220  204.5230  151.1360 O   0  0  0  0  0  0  0  0  0  0  0  0
  161.8340  202.2420  151.6660 C   0  0  0  0  0  1  0  0  0  0  0  0
  160.6760  202.1090  150.6960 C   0  0  2  0  0  3  0  0  0  0  0  0
  161.1190  201.3330  149.4660 C   0  0  0  0  0  2  0  0  0  0  0  0
  160.5240  201.9520  148.2140 C   0  0  0  0  0  2  0  0  0  0  0  0
  160.4260  201.6900  145.9000 C   0  0  0  0  0  1  0  0  0  0  0  0
  161.5760  200.1350  147.1940 C   0  0  0  0  0  1  0  0  0  0  0  0
  161.3000  201.5540  147.0510 N   0  0  0  0  0  0  0  0  0  0  0  0
  159.9400  213.0640  145.9850 N   0  0  0  0  0  2  0  0  0  0  0  0
  160.3320  213.0750  142.4530 C   0  0  0  0  0  0  0  0  0  0  0  0
  161.4650  213.5620  141.9220 C   0  0  0  0  0  0  0  0  0  0  0  0
  160.8300  212.9290  144.8720 C   0  0  0  0  0  0  0  0  0  0  0  0
  162.0930  213.3590  144.9520 C   0  0  0  0  0  3  0  0  0  0  0  0
  163.0750  213.2970  143.8550 C   0  0  0  0  0  3  0  0  0  0  0  0
  160.3520  212.1910  143.6670 C   0  0  0  0  0  2  0  0  0  0  0  0
  162.8020  213.3760  142.5460 C   0  0  0  0  0  3  0  0  0  0  0  0
  161.3690  214.2620  140.7120 O   0  0  0  0  0  0  0  0  0  0  0  0
  162.0770  213.8790  139.5410 C   0  0  0  0  0  1  0  0  0  0  0  0
  159.1160  213.3650  141.8200 O   0  0  0  0  0  0  0  0  0  0  0  0
  158.5970  212.6010  140.7400 C   0  0  0  0  0  2  0  0  0  0  0  0
  158.1870  213.4500  139.7120 O   0  0  0  0  0  1  0  0  0  0  0  0
  1  7  2  0  0  0  0
  2 11  1  6  0  0  0
  2  7  1  0  0  0  0
  3  5  1  6  0  0  0
  3  6  1  0  0  0  0
  3  2  1  0  0  0  0
  4 31  1  6  0  0  0
  4  5  1  0  0  0  0
  4  8  1  0  0  0  0
  6  8  1  6  0  0  0
  6  1  1  0  0  0  0
  7 10  1  0  0  0  0
 10  9  1  0  0  0  0
 11 12  1  0  0  0  0
 13 19  1  1  0  0  0
 13 20  1  0  0  0  0
 16 15  1  6  0  0  0
 16 13  1  0  0  0  0
 16 18  1  0  0  0  0
 17 15  2  0  0  0  0
 17 19  1  0  0  0  0
 18 12  1  0  0  0  0
 18 14  2  0  0  0  0
 20 21  1  1  0  0  0
 20 14  1  0  0  0  0
 21 23  2  0  0  0  0
 22 21  1  0  0  0  0
 22 25  1  0  0  0  0
 25 24  1  1  0  0  0
 26 25  1  0  0  0  0
 27 26  1  0  0  0  0
 28 30  1  0  0  0  0
 30 29  1  0  0  0  0
 30 27  1  0  0  0  0
 32 37  1  0  0  0  0
 33 32  2  0  0  0  0
 33 38  1  0  0  0  0
 34 35  2  0  0  0  0
 34 31  1  0  0  0  0
 36 35  1  0  0  0  0
 37 34  1  0  0  0  0
 38 36  2  0  0  0  0
 39 33  1  0  0  0  0
 40 39  1  0  0  0  0
 41 32  1  0  0  0  0
 42 41  1  0  0  0  0
 43 42  1  0  0  0  0
M  END
>  <MODEL>
8

>  <REMARK>
 VINA RESULT:      -5.2      3.187      9.584
  Name = 
  13 active torsions:
  status: ('A' for Active; 'I' for Inactive)
    1  A    between atoms: C_2  and  O_18
    2  A    between atoms: O_4  and  C_12
    3  A    between atoms: C_6  and  C_14
    4  A    between atoms: C_6  and  N_25
    5  A    between atoms: C_8  and  O_11
    6  A    between atoms: N_10  and  O_11
    7  A    between atoms: C_13  and  C_41
    8  A    between atoms: C_14  and  C_22
    9  A    between atoms: C_15  and  N_23
   10  A    between atoms: N_17  and  C_22
   11  A    between atoms: O_18  and  C_30
   12  A    between atoms: N_23  and  C_28
   13  A    between atoms: N_26  and  C_38
                            x       y       z     vdW  Elec       q    Type
                         _______ _______ _______ _____ _____    ______ ____

>  <TORSDO>
F 13

$$$$
=
 OpenBabel11052411373D

 43 47  0  0  1  0  0  0  0  0999 V2000
  158.3170  213.8840  146.5470 C   0  0  0  0  0  3  0  0  0  0  0  0
  160.1580  213.1770  147.6790 C   0  0  1  0  0  3  0  0  0  0  0  0
  160.6370  213.8140  146.6160 C   0  0  1  0  0  3  0  0  0  0  0  0
  160.8770  212.6630  144.5040 C   0  0  1  0  0  3  0  0  0  0  0  0
  162.0760  213.3080  145.7190 S   0  0  0  0  0  0  0  0  0  0  0  0
  159.5270  214.3270  145.7790 C   0  0  1  0  0  3  0  0  0  0  0  0
  158.7090  213.2660  147.6500 C   0  0  0  0  0  0  0  0  0  0  0  0
  159.6660  213.6020  144.4420 C   0  0  0  0  0  2  0  0  0  0  0  0
  157.1220  213.4560  149.6120 C   0  0  0  0  0  1  0  0  0  0  0  0
  157.8010  212.6830  148.5880 N   0  0  0  0  0  2  0  0  0  0  0  0
  160.8950  212.4120  148.5850 O   0  0  0  0  0  0  0  0  0  0  0  0
  161.2190  211.0990  148.3240 N   0  0  0  0  0  2  0  0  0  0  0  0
  162.2300  209.3630  151.3590 C   0  0  1  0  0  3  0  0  0  0  0  0
  162.1820  209.0620  149.0780 N   0  0  0  0  0  0  0  0  0  0  0  0
  160.7030  211.0550  151.4770 C   0  0  0  0  0  3  0  0  0  0  0  0
  161.9610  210.6850  150.7570 C   0  0  2  0  0  3  0  0  0  0  0  0
  160.3670  210.1580  152.3460 N   0  0  0  0  0  0  0  0  0  0  0  0
  161.7790  210.2670  149.3350 C   0  0  0  0  0  0  0  0  0  0  0  0
  161.2810  209.0770  152.2450 C   0  0  0  0  0  2  0  0  0  0  0  0
  162.6830  208.4190  150.2870 C   0  0  2  0  0  3  0  0  0  0  0  0
  162.1460  207.0220  150.4210 C   0  0  0  0  0  0  0  0  0  0  0  0
  161.1190  206.5790  149.5310 N   0  0  0  0  0  2  0  0  0  0  0  0
  162.6350  206.2300  151.2740 O   0  0  0  0  0  0  0  0  0  0  0  0
  160.4580  204.8220  151.0580 C   0  0  0  0  0  1  0  0  0  0  0  0
  160.5480  205.2430  149.6040 C   0  0  2  0  0  3  0  0  0  0  0  0
  161.4260  204.2670  148.8360 C   0  0  0  0  0  2  0  0  0  0  0  0
  161.2020  204.4240  147.3430 C   0  0  0  0  0  2  0  0  0  0  0  0
  161.9350  206.2300  146.0660 C   0  0  0  0  0  1  0  0  0  0  0  0
  162.8060  204.1070  145.6780 C   0  0  0  0  0  1  0  0  0  0  0  0
  162.3780  205.0160  146.7270 N   0  0  0  0  0  0  0  0  0  0  0  0
  161.4950  212.5470  143.1900 N   0  0  0  0  0  2  0  0  0  0  0  0
  161.3730  211.8120  139.7150 C   0  0  0  0  0  0  0  0  0  0  0  0
  160.1910  211.5190  139.1500 C   0  0  0  0  0  0  0  0  0  0  0  0
  160.7610  212.6400  141.9640 C   0  0  0  0  0  0  0  0  0  0  0  0
  159.4250  212.5770  141.9620 C   0  0  0  0  0  3  0  0  0  0  0  0
  158.5820  212.6300  140.7560 C   0  0  0  0  0  3  0  0  0  0  0  0
  161.5110  212.9300  140.7090 C   0  0  0  0  0  2  0  0  0  0  0  0
  158.9170  212.1800  139.5390 C   0  0  0  0  0  3  0  0  0  0  0  0
  160.1750  210.5560  138.1330 O   0  0  0  0  0  0  0  0  0  0  0  0
  160.2270  209.1600  138.3910 C   0  0  0  0  0  1  0  0  0  0  0  0
  162.5030  211.0830  139.3230 O   0  0  0  0  0  0  0  0  0  0  0  0
  163.7910  211.6630  139.1720 C   0  0  0  0  0  2  0  0  0  0  0  0
  163.8660  212.3420  137.9550 O   0  0  0  0  0  1  0  0  0  0  0  0
  1  7  2  0  0  0  0
  2 11  1  6  0  0  0
  3  5  1  6  0  0  0
  3  2  1  0  0  0  0
  4 31  1  6  0  0  0
  4  5  1  0  0  0  0
  6  8  1  6  0  0  0
  6  1  1  0  0  0  0
  6  3  1  0  0  0  0
  7  2  1  0  0  0  0
  7 10  1  0  0  0  0
  8  4  1  0  0  0  0
 10  9  1  0  0  0  0
 12 11  1  0  0  0  0
 12 18  1  0  0  0  0
 13 19  1  6  0  0  0
 14 18  2  0  0  0  0
 14 20  1  0  0  0  0
 15 17  2  0  0  0  0
 16 13  1  0  0  0  0
 16 15  1  1  0  0  0
 18 16  1  0  0  0  0
 19 17  1  0  0  0  0
 20 21  1  1  0  0  0
 20 13  1  0  0  0  0
 21 23  2  0  0  0  0
 22 25  1  0  0  0  0
 22 21  1  0  0  0  0
 25 24  1  1  0  0  0
 26 25  1  0  0  0  0
 27 26  1  0  0  0  0
 28 30  1  0  0  0  0
 29 30  1  0  0  0  0
 30 27  1  0  0  0  0
 32 37  1  0  0  0  0
 33 38  1  0  0  0  0
 33 32  2  0  0  0  0
 34 31  1  0  0  0  0
 35 34  2  0  0  0  0
 36 35  1  0  0  0  0
 37 34  1  0  0  0  0
 38 36  2  0  0  0  0
 39 40  1  0  0  0  0
 39 33  1  0  0  0  0
 41 32  1  0  0  0  0
 42 41  1  0  0  0  0
 43 42  1  0  0  0  0
M  END
>  <MODEL>
9

>  <REMARK>
 VINA RESULT:      -4.9      3.717      9.484
  Name = 
  13 active torsions:
  status: ('A' for Active; 'I' for Inactive)
    1  A    between atoms: C_2  and  O_18
    2  A    between atoms: O_4  and  C_12
    3  A    between atoms: C_6  and  C_14
    4  A    between atoms: C_6  and  N_25
    5  A    between atoms: C_8  and  O_11
    6  A    between atoms: N_10  and  O_11
    7  A    between atoms: C_13  and  C_41
    8  A    between atoms: C_14  and  C_22
    9  A    between atoms: C_15  and  N_23
   10  A    between atoms: N_17  and  C_22
   11  A    between atoms: O_18  and  C_30
   12  A    between atoms: N_23  and  C_28
   13  A    between atoms: N_26  and  C_38
                            x       y       z     vdW  Elec       q    Type
                         _______ _______ _______ _____ _____    ______ ____

>  <TORSDO>
F 13

$$$$
