=
 OpenBabel11042423023D

 65 71  0  0  1  0  0  0  0  0999 V2000
  161.5190  209.0940  151.6210 C   0  0  2  0  0  3  0  0  0  0  0  0
  161.3040  207.6800  149.6490 C   0  0  2  0  0  3  0  0  0  0  0  0
  161.7810  209.4590  148.0290 O   0  0  0  0  0  1  0  0  0  0  0  0
  162.3330  208.3110  153.9560 C   0  0  2  0  0  3  0  0  0  0  0  0
  162.4820  209.3020  152.7780 C   0  0  0  0  0  2  0  0  0  0  0  0
  161.2140  209.1580  149.2720 C   0  0  2  0  0  3  0  0  0  0  0  0
  161.5360  207.6400  151.1570 C   0  0  2  0  0  3  0  0  0  0  0  0
  160.4660  207.0620  153.1650 C   0  0  2  0  0  3  0  0  0  0  0  0
  160.5190  206.8680  151.7590 O   0  0  0  0  0  0  0  0  0  0  0  0
  161.9060  209.8970  150.3820 C   0  0  1  0  0  3  0  0  0  0  0  0
  159.6980  208.1920  153.4920 O   0  0  0  0  0  1  0  0  0  0  0  0
  161.7390  207.0340  153.7850 O   0  0  0  0  0  0  0  0  0  0  0  0
  162.0700  206.1070  147.8710 C   0  0  0  0  0  3  0  0  0  0  0  0
  162.3520  206.9010  148.8960 C   0  0  0  0  0  3  0  0  0  0  0  0
  163.1440  205.2550  147.2300 C   0  0  0  0  0  2  0  0  0  0  0  0
  162.8410  204.8060  145.8030 C   0  0  1  0  0  3  0  0  0  0  0  0
  160.1450  202.6420  144.8980 C   0  0  0  0  0  0  0  0  0  0  0  0
  160.4570  201.4860  145.2820 O   0  0  0  0  0  0  0  0  0  0  0  0
  160.7860  205.0650  144.6520 C   0  0  0  0  0  3  0  0  0  0  0  0
  158.8610  202.8670  144.3310 N   0  0  0  0  0  1  0  0  0  0  0  0
  162.2200  203.5410  145.7960 O   0  0  0  0  0  0  0  0  0  0  0  0
  161.0440  203.7310  145.1400 N   0  0  0  0  0  0  0  0  0  0  0  0
  162.0240  205.8200  145.0300 C   0  0  0  0  0  3  0  0  0  0  0  0
  160.4650  211.6810  151.4420 C   0  0  0  0  0  1  0  0  0  0  0  0
  161.5440  211.3840  150.4140 C   0  0  2  0  0  3  0  0  0  0  0  0
  161.3450  212.0990  149.0670 C   0  0  1  0  0  3  0  0  0  0  0  0
  162.3450  211.7700  148.0980 O   0  0  0  0  0  0  0  0  0  0  0  0
  163.4150  212.6350  147.8540 C   0  0  0  0  0  0  0  0  0  0  0  0
  163.2160  214.0450  147.9420 N   0  0  0  0  0  1  0  0  0  0  0  0
  164.5510  212.1780  147.5400 O   0  0  0  0  0  0  0  0  0  0  0  0
  159.9380  212.1410  148.4680 C   0  0  0  0  0  2  0  0  0  0  0  0
  157.3950  213.5000  148.2220 C   0  0  0  0  0  1  0  0  0  0  0  0
  158.9710  213.0540  146.3810 C   0  0  1  0  0  3  0  0  0  0  0  0
  159.8490  213.3810  147.5730 C   0  0  1  0  0  3  0  0  0  0  0  0
  158.5060  214.0890  147.3890 C   0  0  2  0  0  3  0  0  0  0  0  0
  160.0060  210.9270  137.9970 C   0  0  2  0  0  3  0  0  0  0  0  0
  158.0120  209.9510  139.2800 C   0  0  0  0  0  1  0  0  0  0  0  0
  161.4630  210.4290  139.8860 C   0  0  2  0  0  3  0  0  0  0  0  0
  158.9880  213.2950  142.6980 N   0  0  0  0  0  2  0  0  0  0  0  0
  160.2850  212.7720  142.4000 C   0  0  0  0  0  0  0  0  0  0  0  0
  161.3730  212.8590  143.4150 C   0  0  0  0  0  2  0  0  0  0  0  0
  159.3460  208.6580  137.7230 N   0  0  0  0  0  2  0  0  0  0  0  0
  160.7230  211.6970  140.0700 C   0  0  0  0  0  0  0  0  0  0  0  0
  157.6170  214.4460  144.1860 O   0  0  0  0  0  0  0  0  0  0  0  0
  158.8050  209.9790  137.9790 C   0  0  2  0  0  3  0  0  0  0  0  0
  162.9510  210.6250  140.0880 C   0  0  0  0  0  1  0  0  0  0  0  0
  160.5160  212.2360  141.2350 C   0  0  0  0  0  0  0  0  0  0  0  0
  161.1830  210.0640  138.4310 C   0  0  1  0  0  3  0  0  0  0  0  0
  158.6800  213.8080  144.0040 C   0  0  0  0  0  0  0  0  0  0  0  0
  160.6750  208.6340  138.3370 C   0  0  0  0  0  2  0  0  0  0  0  0
  160.7890  212.6410  144.7940 C   0  0  0  0  0  2  0  0  0  0  0  0
  159.6640  213.6380  145.1440 C   0  0  2  0  0  3  0  0  0  0  0  0
  159.8730  211.9950  138.9730 N   0  0  0  0  0  2  0  0  0  0  0  0
  162.2250  208.8630  155.2660 O   0  0  0  0  0  0  0  0  0  0  0  0
  162.7750  211.0760  154.9840 O   0  0  0  0  0  0  0  0  0  0  0  0
  161.9940  210.2250  155.5000 C   0  0  0  0  0  0  0  0  0  0  0  0
  161.2900  211.8700  157.0380 O   0  0  0  0  0  1  0  0  0  0  0  0
  160.8620  210.6940  156.3650 C   0  0  2  0  0  0  0  0  0  0  0  0
  160.5110  209.6320  157.2600 O   0  0  0  0  0  0  0  0  0  0  0  0
  159.7180  208.6480  156.6230 C   0  0  0  0  0  1  0  0  0  0  0  0
  160.0190  211.8720  154.4010 O   0  0  0  0  0  1  0  0  0  0  0  0
  159.6490  211.0180  155.4580 C   0  0  2  0  0  3  0  0  0  0  0  0
  157.2760  210.8380  155.7070 O   0  0  0  0  0  1  0  0  0  0  0  0
  158.3880  211.5210  156.1930 C   0  0  2  0  0  3  0  0  0  0  0  0
  158.1730  213.0000  155.9590 C   0  0  0  0  0  1  0  0  0  0  0  0
  1  5  1  1  0  0  0
  2 14  1  6  0  0  0
  2  7  1  0  0  0  0
  4 54  1  1  0  0  0
  5  4  1  0  0  0  0
  6  3  1  6  0  0  0
  6  2  1  0  0  0  0
  6 10  1  0  0  0  0
  7  1  1  0  0  0  0
  7  9  1  1  0  0  0
  8 11  1  6  0  0  0
  8 12  1  0  0  0  0
  9  8  1  0  0  0  0
 10 25  1  1  0  0  0
 10  1  1  0  0  0  0
 12  4  1  0  0  0  0
 13 14  2  0  0  0  0
 15 13  1  0  0  0  0
 16 15  1  1  0  0  0
 17 22  1  0  0  0  0
 17 18  2  0  0  0  0
 19 23  2  0  0  0  0
 19 22  1  0  0  0  0
 20 17  1  0  0  0  0
 21 16  1  0  0  0  0
 22 21  1  0  0  0  0
 23 16  1  0  0  0  0
 25 24  1  1  0  0  0
 26 31  1  6  0  0  0
 26 25  1  0  0  0  0
 27 26  1  0  0  0  0
 28 29  1  0  0  0  0
 28 27  1  0  0  0  0
 30 28  2  0  0  0  0
 33 52  1  6  0  0  0
 33 35  1  0  0  0  0
 33 34  1  0  0  0  0
 34 31  1  1  0  0  0
 35 34  1  0  0  0  0
 35 32  1  1  0  0  0
 36 48  1  0  0  0  0
 36 53  1  1  0  0  0
 38 43  1  0  0  0  0
 38 46  1  6  0  0  0
 39 49  1  0  0  0  0
 40 39  1  0  0  0  0
 40 41  1  0  0  0  0
 41 51  1  0  0  0  0
 42 45  1  0  0  0  0
 42 50  1  0  0  0  0
 43 47  2  0  0  0  0
 45 36  1  0  0  0  0
 45 37  1  1  0  0  0
 47 40  2  0  0  0  0
 48 50  1  1  0  0  0
 48 38  1  0  0  0  0
 49 44  2  0  0  0  0
 49 52  1  0  0  0  0
 52 51  1  6  0  0  0
 53 43  1  0  0  0  0
 54 56  1  0  0  0  0
 55 56  2  0  0  0  0
 56 58  1  0  0  0  0
 58 57  1  1  0  0  0
 58 59  1  0  0  0  0
 60 59  1  0  0  0  0
 62 61  1  6  0  0  0
 62 64  1  0  0  0  0
 62 58  1  0  0  0  0
 63 64  1  0  0  0  0
 64 65  1  6  0  0  0
M  END
>  <MODEL>
1

>  <REMARK>
 VINA RESULT:      -2.5      0.000      0.000
  Name = 
  16 active torsions:
  status: ('A' for Active; 'I' for Inactive)
    1  A    between atoms: C_2  and  C_39
    2  A    between atoms: C_5  and  C_24
    3  A    between atoms: C_5  and  C_51
    4  A    between atoms: O_7  and  C_55
    5  A    between atoms: C_8  and  C_39
    6  A    between atoms: C_10  and  O_36
    7  A    between atoms: C_11  and  C_35
    8  A    between atoms: C_15  and  O_28
    9  A    between atoms: C_19  and  C_31
   10  A    between atoms: C_19  and  C_55
   11  A    between atoms: C_24  and  O_36
   12  A    between atoms: C_24  and  C_54
   13  A    between atoms: O_28  and  C_50
   14  A    between atoms: C_33  and  C_62
   15  A    between atoms: C_37  and  C_54
   16  A    between atoms: C_50  and  C_55
                            x       y       z     vdW  Elec       q    Type
                         _______ _______ _______ _____ _____    ______ ____

>  <TORSDO>
F 16

$$$$
