=
 OpenBabel11052411503D

 40 46  0  0  1  0  0  0  0  0999 V2000
  160.8960  207.6330  155.0330 C   0  0  0  0  0  3  0  0  0  0  0  0
  157.7090  213.7100  153.5350 N   0  0  0  0  0  0  0  0  0  0  0  0
  155.8010  212.1220  156.1440 O   0  0  0  0  0  1  0  0  0  0  0  0
  161.2270  208.0230  156.3330 C   0  0  0  0  0  0  0  0  0  0  0  0
  158.9250  213.2110  152.9110 C   0  0  1  0  0  3  0  0  0  0  0  0
  160.2600  210.9600  153.4290 N   0  0  0  0  0  0  0  0  0  0  0  0
  161.5660  207.0900  157.2540 F   0  0  0  0  0  0  0  0  0  0  0  0
  160.5400  208.5930  154.0760 C   0  0  0  0  0  0  0  0  0  0  0  0
  160.1720  208.2200  152.7770 O   0  0  0  0  0  0  0  0  0  0  0  0
  159.9600  212.6870  150.6600 C   0  0  0  0  0  2  0  0  0  0  0  0
  162.3790  209.1980  151.0870 C   0  0  0  0  0  2  0  0  0  0  0  0
  159.1430  211.8820  153.6280 C   0  0  0  0  0  0  0  0  0  0  0  0
  160.8630  210.3380  155.7310 C   0  0  0  0  0  3  0  0  0  0  0  0
  160.5370  209.9550  154.4230 C   0  0  0  0  0  0  0  0  0  0  0  0
  162.3570  207.8370  151.7710 C   0  0  0  0  0  2  0  0  0  0  0  0
  156.1470  213.0560  155.2250 N   0  0  0  0  0  0  0  0  0  0  0  0
  158.1870  211.6970  154.5280 C   0  0  0  0  0  3  0  0  0  0  0  0
  157.3180  212.8600  154.4250 C   0  0  0  0  0  0  0  0  0  0  0  0
  161.0570  210.9980  152.2180 C   0  0  1  0  0  3  0  0  0  0  0  0
  160.6530  211.7900  151.2780 C   0  0  0  0  0  2  0  0  0  0  0  0
  161.2030  209.3750  156.6840 C   0  0  0  0  0  3  0  0  0  0  0  0
  162.3930  210.3210  152.1160 C   0  0  0  0  0  2  0  0  0  0  0  0
  158.7020  213.0760  151.3840 C   0  0  0  0  0  2  0  0  0  0  0  0
  160.9270  207.3320  151.9540 C   0  0  1  0  0  3  0  0  0  0  0  0
  154.4400  214.4530  156.2700 C   0  0  0  0  0  1  0  0  0  0  0  0
  155.3240  214.2470  155.0550 C   0  0  0  0  0  3  0  0  0  0  0  0
  154.4680  214.1210  153.8090 C   0  0  0  0  0  1  0  0  0  0  0  0
  160.8950  205.9060  152.4940 C   0  0  0  0  0  2  0  0  0  0  0  0
  160.5060  202.5830  150.5750 C   0  0  0  0  0  3  0  0  0  0  0  0
  161.2790  205.2660  150.1900 N   0  0  0  0  0  0  0  0  0  0  0  0
  161.2690  204.3170  149.1510 N   0  0  0  0  0  0  0  0  0  0  0  0
  160.4630  203.5600  151.6270 N   0  0  0  0  0  2  0  0  0  0  0  0
  160.9030  202.9850  149.3740 C   0  0  0  0  0  0  0  0  0  0  0  0
  161.7590  204.5530  147.8610 N   0  0  0  0  0  0  0  0  0  0  0  0
  161.0920  202.1850  148.1670 C   0  0  0  0  0  3  0  0  0  0  0  0
  160.8780  204.9170  151.3790 C   0  0  0  0  0  0  0  0  0  0  0  0
  161.6660  203.2360  147.1920 C   0  0  0  0  0  3  0  0  0  0  0  0
  160.8190  205.4420  147.1880 C   0  0  0  0  0  3  0  0  0  0  0  0
  161.2550  206.8830  147.3810 C   0  0  0  0  0  2  0  0  0  0  0  0
  161.5300  206.1830  146.0700 C   0  0  0  0  0  2  0  0  0  0  0  0
  1  4  1  0  0  0  0
  2 18  2  0  0  0  0
  4 21  2  0  0  0  0
  4  7  1  0  0  0  0
  5 23  1  6  0  0  0
  5  2  1  0  0  0  0
  5 12  1  0  0  0  0
  6 12  1  0  0  0  0
  6 14  1  0  0  0  0
  8 14  1  0  0  0  0
  8  1  2  0  0  0  0
  9  8  1  0  0  0  0
 10 20  1  0  0  0  0
 10 23  1  0  0  0  0
 11 15  1  0  0  0  0
 11 22  1  0  0  0  0
 12 17  2  0  0  0  0
 13 21  1  0  0  0  0
 14 13  2  0  0  0  0
 15 24  1  0  0  0  0
 16  3  1  0  0  0  0
 18 17  1  0  0  0  0
 18 16  1  0  0  0  0
 19 20  1  1  0  0  0
 19  6  1  0  0  0  0
 22 19  1  0  0  0  0
 24 28  1  1  0  0  0
 24  9  1  0  0  0  0
 26 16  1  0  0  0  0
 26 25  1  0  0  0  0
 27 26  1  0  0  0  0
 29 32  1  0  0  0  0
 30 36  2  0  0  0  0
 31 33  1  0  0  0  0
 31 30  1  0  0  0  0
 33 29  2  0  0  0  0
 34 31  1  0  0  0  0
 35 33  1  0  0  0  0
 36 32  1  0  0  0  0
 36 28  1  0  0  0  0
 37 34  1  0  0  0  0
 37 35  2  0  0  0  0
 38 39  1  0  0  0  0
 38 34  1  0  0  0  0
 40 38  1  0  0  0  0
 40 39  1  0  0  0  0
M  END
>  <MODEL>
1

>  <REMARK>
 VINA RESULT:      -8.3      0.000      0.000
  Name = 
  4 active torsions:
  status: ('A' for Active; 'I' for Inactive)
    1  A    between atoms: C_6  and  N_26
    2  A    between atoms: C_15  and  N_28
    3  A    between atoms: C_31  and  C_37
    4  A    between atoms: C_37  and  C_40
                            x       y       z     vdW  Elec       q    Type
                         _______ _______ _______ _____ _____    ______ ____

>  <TORSDO>
F 4

$$$$
=
 OpenBabel11052411503D

 40 46  0  0  1  0  0  0  0  0999 V2000
  160.8620  207.5080  153.7840 C   0  0  0  0  0  3  0  0  0  0  0  0
  157.8270  213.8130  153.1710 N   0  0  0  0  0  0  0  0  0  0  0  0
  155.7850  211.8600  155.4060 O   0  0  0  0  0  1  0  0  0  0  0  0
  161.1420  207.6750  155.1420 C   0  0  0  0  0  0  0  0  0  0  0  0
  159.0610  213.3970  152.5240 C   0  0  1  0  0  3  0  0  0  0  0  0
  160.3420  211.0640  152.7210 N   0  0  0  0  0  0  0  0  0  0  0  0
  161.4270  206.5970  155.9120 F   0  0  0  0  0  0  0  0  0  0  0  0
  160.5610  208.6190  152.9830 C   0  0  0  0  0  0  0  0  0  0  0  0
  160.2450  208.4700  151.6260 O   0  0  0  0  0  0  0  0  0  0  0  0
  160.1870  213.2250  150.2620 C   0  0  0  0  0  2  0  0  0  0  0  0
  162.5370  209.6640  150.2100 C   0  0  0  0  0  2  0  0  0  0  0  0
  159.2300  211.9650  153.0220 C   0  0  0  0  0  0  0  0  0  0  0  0
  160.8350  210.0630  154.9130 C   0  0  0  0  0  3  0  0  0  0  0  0
  160.5610  209.9050  153.5480 C   0  0  0  0  0  0  0  0  0  0  0  0
  162.4670  208.2110  150.6610 C   0  0  0  0  0  2  0  0  0  0  0  0
  156.1840  212.9230  154.6670 N   0  0  0  0  0  0  0  0  0  0  0  0
  158.2330  211.6550  153.8400 C   0  0  0  0  0  3  0  0  0  0  0  0
  157.3860  212.8370  153.8940 C   0  0  0  0  0  0  0  0  0  0  0  0
  161.1920  211.2830  151.5660 C   0  0  1  0  0  3  0  0  0  0  0  0
  160.8400  212.2250  150.7530 C   0  0  0  0  0  2  0  0  0  0  0  0
  161.1210  208.9510  155.7090 C   0  0  0  0  0  3  0  0  0  0  0  0
  162.5210  210.6050  151.4090 C   0  0  0  0  0  2  0  0  0  0  0  0
  158.9040  213.5170  150.9880 C   0  0  0  0  0  2  0  0  0  0  0  0
  161.0230  207.7120  150.7010 C   0  0  1  0  0  3  0  0  0  0  0  0
  154.5990  214.2640  155.9520 C   0  0  0  0  0  1  0  0  0  0  0  0
  155.3850  214.1440  154.6610 C   0  0  0  0  0  3  0  0  0  0  0  0
  154.4360  214.1450  153.4770 C   0  0  0  0  0  1  0  0  0  0  0  0
  160.9480  206.2190  150.9980 C   0  0  0  0  0  2  0  0  0  0  0  0
  161.8780  205.2910  147.3720 C   0  0  0  0  0  3  0  0  0  0  0  0
  160.7510  204.1810  149.7050 N   0  0  0  0  0  0  0  0  0  0  0  0
  160.9360  203.4440  148.5210 N   0  0  0  0  0  0  0  0  0  0  0  0
  161.7410  206.0320  148.5940 N   0  0  0  0  0  2  0  0  0  0  0  0
  161.4760  204.0260  147.3680 C   0  0  0  0  0  0  0  0  0  0  0  0
  160.4690  202.1390  148.3210 N   0  0  0  0  0  0  0  0  0  0  0  0
  161.4500  203.0860  146.2510 C   0  0  0  0  0  3  0  0  0  0  0  0
  161.1490  205.4200  149.7560 C   0  0  0  0  0  0  0  0  0  0  0  0
  160.7730  201.8590  146.9000 C   0  0  0  0  0  3  0  0  0  0  0  0
  161.3000  201.2460  149.1210 C   0  0  0  0  0  3  0  0  0  0  0  0
  161.2790  201.6950  150.5700 C   0  0  0  0  0  2  0  0  0  0  0  0
  160.4350  200.5190  150.1340 C   0  0  0  0  0  2  0  0  0  0  0  0
  1  4  1  0  0  0  0
  2 18  2  0  0  0  0
  4 21  2  0  0  0  0
  4  7  1  0  0  0  0
  5 23  1  6  0  0  0
  5 12  1  0  0  0  0
  5  2  1  0  0  0  0
  6 12  1  0  0  0  0
  6 14  1  0  0  0  0
  8 14  1  0  0  0  0
  8  1  2  0  0  0  0
  9  8  1  0  0  0  0
 10 20  1  0  0  0  0
 10 23  1  0  0  0  0
 11 15  1  0  0  0  0
 11 22  1  0  0  0  0
 12 17  2  0  0  0  0
 13 21  1  0  0  0  0
 14 13  2  0  0  0  0
 15 24  1  0  0  0  0
 16  3  1  0  0  0  0
 17 18  1  0  0  0  0
 18 16  1  0  0  0  0
 19 20  1  1  0  0  0
 19  6  1  0  0  0  0
 22 19  1  0  0  0  0
 24 28  1  1  0  0  0
 24  9  1  0  0  0  0
 26 16  1  0  0  0  0
 26 25  1  0  0  0  0
 27 26  1  0  0  0  0
 29 32  1  0  0  0  0
 30 36  2  0  0  0  0
 31 30  1  0  0  0  0
 32 36  1  0  0  0  0
 33 29  2  0  0  0  0
 33 31  1  0  0  0  0
 34 31  1  0  0  0  0
 34 38  1  0  0  0  0
 35 37  2  0  0  0  0
 35 33  1  0  0  0  0
 36 28  1  0  0  0  0
 37 34  1  0  0  0  0
 38 40  1  0  0  0  0
 38 39  1  0  0  0  0
 40 39  1  0  0  0  0
M  END
>  <MODEL>
2

>  <REMARK>
 VINA RESULT:      -7.0      1.072      2.203
  Name = 
  4 active torsions:
  status: ('A' for Active; 'I' for Inactive)
    1  A    between atoms: C_6  and  N_26
    2  A    between atoms: C_15  and  N_28
    3  A    between atoms: C_31  and  C_37
    4  A    between atoms: C_37  and  C_40
                            x       y       z     vdW  Elec       q    Type
                         _______ _______ _______ _____ _____    ______ ____

>  <TORSDO>
F 4

$$$$
=
 OpenBabel11052411503D

 40 46  0  0  1  0  0  0  0  0999 V2000
  160.3120  212.1520  150.6740 C   0  0  0  0  0  3  0  0  0  0  0  0
  161.7180  205.3040  151.3540 N   0  0  0  0  0  0  0  0  0  0  0  0
  160.5690  205.8260  147.9790 O   0  0  0  0  0  1  0  0  0  0  0  0
  161.3190  212.3570  149.7290 C   0  0  0  0  0  0  0  0  0  0  0  0
  161.8840  206.3130  152.3880 C   0  0  1  0  0  3  0  0  0  0  0  0
  161.4440  208.9400  152.2390 N   0  0  0  0  0  0  0  0  0  0  0  0
  161.2980  213.4630  148.9460 F   0  0  0  0  0  0  0  0  0  0  0  0
  160.3250  211.0070  151.4830 C   0  0  0  0  0  0  0  0  0  0  0  0
  159.3060  210.7660  152.4140 O   0  0  0  0  0  0  0  0  0  0  0  0
  161.2420  206.8720  154.7730 C   0  0  0  0  0  2  0  0  0  0  0  0
  160.6210  211.0860  155.0320 C   0  0  0  0  0  2  0  0  0  0  0  0
  161.4410  207.5890  151.6800 C   0  0  0  0  0  0  0  0  0  0  0  0
  162.3710  210.2840  150.3990 C   0  0  0  0  0  3  0  0  0  0  0  0
  161.3680  210.0750  151.3540 C   0  0  0  0  0  0  0  0  0  0  0  0
  159.9940  212.2260  154.2400 C   0  0  0  0  0  2  0  0  0  0  0  0
  161.0180  205.1570  149.0700 N   0  0  0  0  0  0  0  0  0  0  0  0
  161.1000  207.3110  150.4290 C   0  0  0  0  0  3  0  0  0  0  0  0
  161.2840  205.8760  150.2790 C   0  0  0  0  0  0  0  0  0  0  0  0
  161.4600  209.1580  153.6730 C   0  0  1  0  0  3  0  0  0  0  0  0
  161.3400  208.1110  154.4230 C   0  0  0  0  0  2  0  0  0  0  0  0
  162.3450  211.4190  149.5850 C   0  0  0  0  0  3  0  0  0  0  0  0
  161.8020  210.4880  154.2780 C   0  0  0  0  0  2  0  0  0  0  0  0
  161.0180  205.9390  153.6170 C   0  0  0  0  0  2  0  0  0  0  0  0
  158.8450  211.7260  153.3650 C   0  0  1  0  0  3  0  0  0  0  0  0
  161.2410  203.2520  147.5610 C   0  0  0  0  0  1  0  0  0  0  0  0
  161.2220  203.7150  149.0040 C   0  0  0  0  0  3  0  0  0  0  0  0
  160.1240  202.9940  149.7640 C   0  0  0  0  0  1  0  0  0  0  0  0
  158.1080  212.8760  152.6870 C   0  0  0  0  0  2  0  0  0  0  0  0
  154.5980  214.2460  153.5110 C   0  0  0  0  0  3  0  0  0  0  0  0
  156.8570  213.1000  154.7480 N   0  0  0  0  0  0  0  0  0  0  0  0
  155.7020  213.4690  155.4600 N   0  0  0  0  0  0  0  0  0  0  0  0
  155.7540  213.8210  152.7720 N   0  0  0  0  0  0  0  0  0  0  0  0
  154.6020  214.0590  154.8250 C   0  0  0  0  0  0  0  0  0  0  0  0
  155.5890  213.4380  156.8550 N   0  0  1  0  0  0  0  0  0  0  0  0
  153.5890  214.4530  155.8000 C   0  0  0  0  0  3  0  0  0  0  0  0
  156.8870  213.2490  153.4550 C   0  0  0  0  0  0  0  0  0  0  0  0
  154.2670  214.0450  157.1260 C   0  0  0  0  0  2  0  0  0  0  0  0
  155.5080  212.0390  157.2590 C   0  0  0  0  0  3  0  0  0  0  0  0
  155.8990  211.1490  156.0930 C   0  0  0  0  0  2  0  0  0  0  0  0
  156.8890  211.4120  157.2050 C   0  0  0  0  0  2  0  0  0  0  0  0
  1  8  1  0  0  0  0
  2  5  1  0  0  0  0
  3 16  1  0  0  0  0
  4  1  2  0  0  0  0
  5 23  1  1  0  0  0
  6 19  1  0  0  0  0
  7  4  1  0  0  0  0
  8  9  1  0  0  0  0
  9 24  1  0  0  0  0
 12  6  1  0  0  0  0
 12  5  1  0  0  0  0
 13 14  1  0  0  0  0
 14  8  2  0  0  0  0
 14  6  1  0  0  0  0
 15 11  1  0  0  0  0
 16 18  1  0  0  0  0
 17 12  2  0  0  0  0
 18 17  1  0  0  0  0
 18  2  2  0  0  0  0
 19 22  1  1  0  0  0
 19 20  1  0  0  0  0
 20 10  1  0  0  0  0
 21  4  1  0  0  0  0
 21 13  2  0  0  0  0
 22 11  1  0  0  0  0
 23 10  1  0  0  0  0
 24 28  1  6  0  0  0
 24 15  1  0  0  0  0
 25 26  1  0  0  0  0
 26 16  1  0  0  0  0
 26 27  1  0  0  0  0
 28 36  1  0  0  0  0
 29 33  1  0  0  0  0
 30 31  1  0  0  0  0
 31 34  1  0  0  0  0
 32 36  1  0  0  0  0
 32 29  2  0  0  0  0
 33 31  1  0  0  0  0
 33 35  2  0  0  0  0
 34 37  1  0  0  0  0
 34 38  1  6  0  0  0
 35 37  1  0  0  0  0
 36 30  2  0  0  0  0
 39 40  1  0  0  0  0
 39 38  1  0  0  0  0
 40 38  1  0  0  0  0
M  END
>  <MODEL>
3

>  <REMARK>
 VINA RESULT:      -5.7      2.374      9.778
  Name = 
  4 active torsions:
  status: ('A' for Active; 'I' for Inactive)
    1  A    between atoms: C_6  and  N_26
    2  A    between atoms: C_15  and  N_28
    3  A    between atoms: C_31  and  C_37
    4  A    between atoms: C_37  and  C_40
                            x       y       z     vdW  Elec       q    Type
                         _______ _______ _______ _____ _____    ______ ____

>  <TORSDO>
F 4

$$$$
