=
 OpenBabel11052411183D

 31 34  0  0  1  0  0  0  0  0999 V2000
  161.1500  205.7300  150.9840 C   0  0  0  0  0  0  0  0  0  0  0  0
  162.2340  210.6260  149.0040 O   0  0  0  0  0  0  0  0  0  0  0  0
  161.3810  206.9660  150.2850 C   0  0  0  0  0  0  0  0  0  0  0  0
  161.5320  205.8120  152.2210 N   0  0  0  0  0  0  0  0  0  0  0  0
  162.0730  207.1590  152.4890 C   0  0  1  0  0  3  0  0  0  0  0  0
  162.2580  209.1320  150.7600 C   0  0  0  0  0  3  0  0  0  0  0  0
  161.4110  208.5460  148.5900 N   0  0  0  0  0  2  0  0  0  0  0  0
  161.1150  207.3080  149.0040 N   0  0  0  0  0  0  0  0  0  0  0  0
  161.9360  207.8400  151.1630 C   0  0  0  0  0  0  0  0  0  0  0  0
  160.5360  204.5710  150.4160 N   0  0  0  0  0  2  0  0  0  0  0  0
  161.9750  209.4710  149.4270 C   0  0  0  0  0  0  0  0  0  0  0  0
  161.2590  207.8540  153.5410 C   0  0  0  0  0  0  0  0  0  0  0  0
  159.8260  207.0860  156.8950 N   0  0  0  0  0  1  0  0  0  0  0  0
  160.1580  209.8370  154.4100 C   0  0  0  0  0  3  0  0  0  0  0  0
  160.9070  207.1580  154.7040 C   0  0  0  0  0  3  0  0  0  0  0  0
  159.8060  209.1360  155.5670 C   0  0  0  0  0  3  0  0  0  0  0  0
  160.1810  207.7970  155.7150 C   0  0  0  0  0  0  0  0  0  0  0  0
  160.8860  209.2010  153.4020 C   0  0  0  0  0  3  0  0  0  0  0  0
  160.2660  203.3630  151.1850 C   0  0  0  0  0  2  0  0  0  0  0  0
  161.3560  202.3220  150.9630 C   0  0  0  0  0  2  0  0  0  0  0  0
  160.8020  201.0620  150.3080 C   0  0  0  0  0  2  0  0  0  0  0  0
  160.1730  201.3800  149.1040 O   0  0  0  0  0  0  0  0  0  0  0  0
  161.1290  201.1110  148.1230 C   0  0  0  0  0  2  0  0  0  0  0  0
  161.1640  202.2170  147.1260 C   0  0  0  0  0  0  0  0  0  0  0  0
  160.6040  203.0690  144.9280 C   0  0  0  0  0  3  0  0  0  0  0  0
  162.5340  205.6270  146.7800 O   0  0  0  0  0  1  0  0  0  0  0  0
  161.2600  204.2680  145.2190 C   0  0  0  0  0  0  0  0  0  0  0  0
  161.8770  204.4420  146.4700 C   0  0  0  0  0  0  0  0  0  0  0  0
  161.8310  203.4140  147.4160 C   0  0  0  0  0  3  0  0  0  0  0  0
  161.2930  205.3470  144.1930 C   0  0  0  0  0  1  0  0  0  0  0  0
  160.5560  202.0450  145.8770 C   0  0  0  0  0  3  0  0  0  0  0  0
  1  4  2  0  0  0  0
  2 11  2  0  0  0  0
  3  1  1  0  0  0  0
  3  9  1  0  0  0  0
  4  5  1  0  0  0  0
  5 12  1  1  0  0  0
  6  9  2  0  0  0  0
  7  8  1  0  0  0  0
  7 11  1  0  0  0  0
  8  3  2  0  0  0  0
  9  5  1  0  0  0  0
 10  1  1  0  0  0  0
 10 19  1  0  0  0  0
 11  6  1  0  0  0  0
 12 15  1  0  0  0  0
 14 16  2  0  0  0  0
 15 17  2  0  0  0  0
 16 17  1  0  0  0  0
 17 13  1  0  0  0  0
 18 12  2  0  0  0  0
 18 14  1  0  0  0  0
 20 19  1  0  0  0  0
 21 20  1  0  0  0  0
 22 21  1  0  0  0  0
 23 22  1  0  0  0  0
 24 29  1  0  0  0  0
 24 23  1  0  0  0  0
 25 27  2  0  0  0  0
 25 31  1  0  0  0  0
 27 28  1  0  0  0  0
 28 26  1  0  0  0  0
 28 29  2  0  0  0  0
 30 27  1  0  0  0  0
 31 24  2  0  0  0  0
M  END
>  <MODEL>
1

>  <REMARK>
 VINA RESULT:      -9.1      0.000      0.000
  Name = 
  7 active torsions:
  status: ('A' for Active; 'I' for Inactive)
    1  A    between atoms: C_1  and  C_24
    2  A    between atoms: C_3  and  C_17
    3  A    between atoms: C_13  and  C_15
    4  A    between atoms: C_13  and  N_29
    5  A    between atoms: C_15  and  C_20
    6  A    between atoms: C_20  and  O_23
    7  A    between atoms: O_23  and  C_24
                            x       y       z     vdW  Elec       q    Type
                         _______ _______ _______ _____ _____    ______ ____

>  <TORSDO>
F 7

$$$$
=
 OpenBabel11052411183D

 31 34  0  0  1  0  0  0  0  0999 V2000
  161.2980  207.0110  151.2200 C   0  0  0  0  0  0  0  0  0  0  0  0
  162.4510  211.6050  148.6440 O   0  0  0  0  0  0  0  0  0  0  0  0
  161.5870  208.1350  150.3690 C   0  0  0  0  0  0  0  0  0  0  0  0
  161.4230  207.3280  152.4730 N   0  0  0  0  0  0  0  0  0  0  0  0
  161.8180  208.7440  152.5950 C   0  0  1  0  0  3  0  0  0  0  0  0
  162.2190  210.4220  150.6090 C   0  0  0  0  0  3  0  0  0  0  0  0
  161.8540  209.4180  148.4580 N   0  0  0  0  0  2  0  0  0  0  0  0
  161.5580  208.2400  149.0220 N   0  0  0  0  0  0  0  0  0  0  0  0
  161.9040  209.1880  151.1670 C   0  0  0  0  0  0  0  0  0  0  0  0
  160.8800  205.7240  150.7630 N   0  0  0  0  0  2  0  0  0  0  0  0
  162.1850  210.5140  149.2090 C   0  0  0  0  0  0  0  0  0  0  0  0
  160.7710  209.5200  153.3400 C   0  0  0  0  0  0  0  0  0  0  0  0
  159.7560  210.1170  156.8760 N   0  0  0  0  0  1  0  0  0  0  0  0
  158.9210  211.0930  153.3820 C   0  0  0  0  0  3  0  0  0  0  0  0
  160.7330  209.4490  154.7370 C   0  0  0  0  0  3  0  0  0  0  0  0
  158.8850  211.0140  154.7770 C   0  0  0  0  0  3  0  0  0  0  0  0
  159.7910  210.1930  155.4550 C   0  0  0  0  0  0  0  0  0  0  0  0
  159.8640  210.3530  152.6650 C   0  0  0  0  0  3  0  0  0  0  0  0
  160.5380  204.6350  151.6690 C   0  0  0  0  0  2  0  0  0  0  0  0
  161.6300  203.5730  151.6800 C   0  0  0  0  0  2  0  0  0  0  0  0
  161.1140  202.2360  151.1610 C   0  0  0  0  0  2  0  0  0  0  0  0
  160.3480  202.4260  150.0100 O   0  0  0  0  0  0  0  0  0  0  0  0
  161.0400  201.7460  149.0080 C   0  0  0  0  0  2  0  0  0  0  0  0
  161.1340  202.5940  147.7860 C   0  0  0  0  0  0  0  0  0  0  0  0
  160.8820  202.8420  145.3890 C   0  0  0  0  0  3  0  0  0  0  0  0
  162.1840  205.9980  146.8190 O   0  0  0  0  0  1  0  0  0  0  0  0
  161.3500  204.1570  145.4700 C   0  0  0  0  0  0  0  0  0  0  0  0
  161.7170  204.6930  146.7170 C   0  0  0  0  0  0  0  0  0  0  0  0
  161.6140  203.9070  147.8690 C   0  0  0  0  0  3  0  0  0  0  0  0
  161.4500  204.9720  144.2280 C   0  0  0  0  0  1  0  0  0  0  0  0
  160.7760  202.0610  146.5430 C   0  0  0  0  0  3  0  0  0  0  0  0
  1  4  2  0  0  0  0
  2 11  2  0  0  0  0
  3  9  1  0  0  0  0
  3  1  1  0  0  0  0
  4  5  1  0  0  0  0
  5 12  1  1  0  0  0
  6  9  2  0  0  0  0
  7  8  1  0  0  0  0
  7 11  1  0  0  0  0
  8  3  2  0  0  0  0
  9  5  1  0  0  0  0
 10  1  1  0  0  0  0
 10 19  1  0  0  0  0
 11  6  1  0  0  0  0
 12 15  1  0  0  0  0
 14 16  2  0  0  0  0
 15 17  2  0  0  0  0
 16 17  1  0  0  0  0
 17 13  1  0  0  0  0
 18 12  2  0  0  0  0
 18 14  1  0  0  0  0
 19 20  1  0  0  0  0
 21 20  1  0  0  0  0
 22 21  1  0  0  0  0
 23 22  1  0  0  0  0
 24 29  1  0  0  0  0
 24 23  1  0  0  0  0
 25 27  2  0  0  0  0
 25 31  1  0  0  0  0
 27 28  1  0  0  0  0
 28 26  1  0  0  0  0
 28 29  2  0  0  0  0
 30 27  1  0  0  0  0
 31 24  2  0  0  0  0
M  END
>  <MODEL>
2

>  <REMARK>
 VINA RESULT:      -8.8      1.215      1.449
  Name = 
  7 active torsions:
  status: ('A' for Active; 'I' for Inactive)
    1  A    between atoms: C_1  and  C_24
    2  A    between atoms: C_3  and  C_17
    3  A    between atoms: C_13  and  C_15
    4  A    between atoms: C_13  and  N_29
    5  A    between atoms: C_15  and  C_20
    6  A    between atoms: C_20  and  O_23
    7  A    between atoms: O_23  and  C_24
                            x       y       z     vdW  Elec       q    Type
                         _______ _______ _______ _____ _____    ______ ____

>  <TORSDO>
F 7

$$$$
=
 OpenBabel11052411183D

 31 34  0  0  1  0  0  0  0  0999 V2000
  161.6290  207.5590  151.8240 C   0  0  0  0  0  0  0  0  0  0  0  0
  162.1920  211.4040  148.0870 O   0  0  0  0  0  0  0  0  0  0  0  0
  161.7700  208.4420  150.6960 C   0  0  0  0  0  0  0  0  0  0  0  0
  161.7380  208.2070  152.9430 N   0  0  0  0  0  0  0  0  0  0  0  0
  161.9660  209.6400  152.6720 C   0  0  1  0  0  3  0  0  0  0  0  0
  162.1340  210.7650  150.3010 C   0  0  0  0  0  3  0  0  0  0  0  0
  161.8520  209.1940  148.5060 N   0  0  0  0  0  2  0  0  0  0  0  0
  161.7050  208.1830  149.3720 N   0  0  0  0  0  0  0  0  0  0  0  0
  161.9750  209.6960  151.1760 C   0  0  0  0  0  0  0  0  0  0  0  0
  161.3560  206.1600  151.7390 N   0  0  0  0  0  2  0  0  0  0  0  0
  162.0650  210.4790  148.9280 C   0  0  0  0  0  0  0  0  0  0  0  0
  160.8490  210.4670  153.2380 C   0  0  0  0  0  0  0  0  0  0  0  0
  160.2360  212.6410  156.2030 N   0  0  0  0  0  1  0  0  0  0  0  0
  158.6190  211.4170  153.0820 C   0  0  0  0  0  3  0  0  0  0  0  0
  161.0450  211.1450  154.4470 C   0  0  0  0  0  3  0  0  0  0  0  0
  158.8190  212.0880  154.2920 C   0  0  0  0  0  3  0  0  0  0  0  0
  160.0310  211.9530  154.9740 C   0  0  0  0  0  0  0  0  0  0  0  0
  159.6310  210.6130  152.5530 C   0  0  0  0  0  3  0  0  0  0  0  0
  161.1600  205.3190  152.9130 C   0  0  0  0  0  2  0  0  0  0  0  0
  160.7120  203.9190  152.5110 C   0  0  0  0  0  2  0  0  0  0  0  0
  161.8660  203.1060  151.9380 C   0  0  0  0  0  2  0  0  0  0  0  0
  161.3880  202.1680  151.0210 O   0  0  0  0  0  0  0  0  0  0  0  0
  160.3540  202.8230  150.3510 C   0  0  0  0  0  2  0  0  0  0  0  0
  160.7740  203.1560  148.9610 C   0  0  0  0  0  0  0  0  0  0  0  0
  161.6110  204.7700  147.3590 C   0  0  0  0  0  3  0  0  0  0  0  0
  160.9610  201.5580  145.6390 O   0  0  0  0  0  1  0  0  0  0  0  0
  161.5240  203.8140  146.3420 C   0  0  0  0  0  0  0  0  0  0  0  0
  161.0540  202.5220  146.6350 C   0  0  0  0  0  0  0  0  0  0  0  0
  160.6750  202.2000  147.9420 C   0  0  0  0  0  3  0  0  0  0  0  0
  161.9340  204.1840  144.9590 C   0  0  0  0  0  1  0  0  0  0  0  0
  161.2360  204.4430  148.6650 C   0  0  0  0  0  3  0  0  0  0  0  0
  1  4  2  0  0  0  0
  2 11  2  0  0  0  0
  3  9  1  0  0  0  0
  3  1  1  0  0  0  0
  5  4  1  0  0  0  0
  5 12  1  6  0  0  0
  6  9  2  0  0  0  0
  7 11  1  0  0  0  0
  7  8  1  0  0  0  0
  8  3  2  0  0  0  0
  9  5  1  0  0  0  0
 10  1  1  0  0  0  0
 10 19  1  0  0  0  0
 11  6  1  0  0  0  0
 12 15  1  0  0  0  0
 14 16  2  0  0  0  0
 15 17  2  0  0  0  0
 16 17  1  0  0  0  0
 17 13  1  0  0  0  0
 18 14  1  0  0  0  0
 18 12  2  0  0  0  0
 20 19  1  0  0  0  0
 21 20  1  0  0  0  0
 22 21  1  0  0  0  0
 23 22  1  0  0  0  0
 24 23  1  0  0  0  0
 25 31  2  0  0  0  0
 26 28  1  0  0  0  0
 27 28  2  0  0  0  0
 27 25  1  0  0  0  0
 28 29  1  0  0  0  0
 29 24  2  0  0  0  0
 30 27  1  0  0  0  0
 31 24  1  0  0  0  0
M  END
>  <MODEL>
3

>  <REMARK>
 VINA RESULT:      -8.4      1.931      2.694
  Name = 
  7 active torsions:
  status: ('A' for Active; 'I' for Inactive)
    1  A    between atoms: C_1  and  C_24
    2  A    between atoms: C_3  and  C_17
    3  A    between atoms: C_13  and  C_15
    4  A    between atoms: C_13  and  N_29
    5  A    between atoms: C_15  and  C_20
    6  A    between atoms: C_20  and  O_23
    7  A    between atoms: O_23  and  C_24
                            x       y       z     vdW  Elec       q    Type
                         _______ _______ _______ _____ _____    ______ ____

>  <TORSDO>
F 7

$$$$
=
 OpenBabel11052411183D

 31 34  0  0  1  0  0  0  0  0999 V2000
  160.9540  211.1830  151.7990 C   0  0  0  0  0  0  0  0  0  0  0  0
  156.8910  213.0490  154.8120 O   0  0  0  0  0  0  0  0  0  0  0  0
  159.8060  211.7670  152.4410 C   0  0  0  0  0  0  0  0  0  0  0  0
  161.7060  210.5640  152.6560 N   0  0  0  0  0  0  0  0  0  0  0  0
  161.1180  210.6670  154.0050 C   0  0  1  0  0  3  0  0  0  0  0  0
  158.8860  211.9060  154.6370 C   0  0  0  0  0  3  0  0  0  0  0  0
  157.8050  212.8980  152.7340 N   0  0  0  0  0  2  0  0  0  0  0  0
  158.7780  212.4730  151.9190 N   0  0  0  0  0  0  0  0  0  0  0  0
  159.8800  211.4750  153.7650 C   0  0  0  0  0  0  0  0  0  0  0  0
  161.2180  211.2310  150.3960 N   0  0  0  0  0  2  0  0  0  0  0  0
  157.8250  212.6380  154.0790 C   0  0  0  0  0  0  0  0  0  0  0  0
  160.7800  209.3060  154.5380 C   0  0  0  0  0  0  0  0  0  0  0  0
  161.0940  205.7510  153.4630 N   0  0  0  0  0  1  0  0  0  0  0  0
  159.9520  207.8620  156.3080 C   0  0  0  0  0  3  0  0  0  0  0  0
  161.0690  208.1770  153.7620 C   0  0  0  0  0  3  0  0  0  0  0  0
  160.2380  206.7390  155.5270 C   0  0  0  0  0  3  0  0  0  0  0  0
  160.7980  206.8950  154.2550 C   0  0  0  0  0  0  0  0  0  0  0  0
  160.2250  209.1410  155.8190 C   0  0  0  0  0  3  0  0  0  0  0  0
  162.3640  210.5690  149.7840 C   0  0  0  0  0  2  0  0  0  0  0  0
  161.9460  209.2640  149.1170 C   0  0  0  0  0  2  0  0  0  0  0  0
  162.2410  208.0620  150.0070 C   0  0  0  0  0  2  0  0  0  0  0  0
  161.1020  207.2670  150.1380 O   0  0  0  0  0  0  0  0  0  0  0  0
  160.8700  206.7650  148.8570 C   0  0  0  0  0  2  0  0  0  0  0  0
  160.9720  205.2790  148.8640 C   0  0  0  0  0  0  0  0  0  0  0  0
  161.2900  203.1990  147.6610 C   0  0  0  0  0  3  0  0  0  0  0  0
  160.7000  202.4690  151.2410 O   0  0  0  0  0  1  0  0  0  0  0  0
  161.1210  202.4810  148.8480 C   0  0  0  0  0  0  0  0  0  0  0  0
  160.8710  203.1640  150.0500 C   0  0  0  0  0  0  0  0  0  0  0  0
  160.7920  204.5610  150.0520 C   0  0  0  0  0  3  0  0  0  0  0  0
  161.2100  200.9940  148.8180 C   0  0  0  0  0  1  0  0  0  0  0  0
  161.2150  204.5950  147.6670 C   0  0  0  0  0  3  0  0  0  0  0  0
  1  3  1  0  0  0  0
  1  4  2  0  0  0  0
  3  9  1  0  0  0  0
  4  5  1  0  0  0  0
  5 12  1  6  0  0  0
  7 11  1  0  0  0  0
  8  3  2  0  0  0  0
  8  7  1  0  0  0  0
  9  5  1  0  0  0  0
  9  6  2  0  0  0  0
 10  1  1  0  0  0  0
 11  6  1  0  0  0  0
 11  2  2  0  0  0  0
 12 18  1  0  0  0  0
 13 17  1  0  0  0  0
 15 17  1  0  0  0  0
 15 12  2  0  0  0  0
 16 14  1  0  0  0  0
 17 16  2  0  0  0  0
 18 14  2  0  0  0  0
 19 10  1  0  0  0  0
 20 19  1  0  0  0  0
 20 21  1  0  0  0  0
 21 22  1  0  0  0  0
 23 24  1  0  0  0  0
 23 22  1  0  0  0  0
 24 29  1  0  0  0  0
 25 31  1  0  0  0  0
 25 27  2  0  0  0  0
 27 28  1  0  0  0  0
 28 29  2  0  0  0  0
 28 26  1  0  0  0  0
 30 27  1  0  0  0  0
 31 24  2  0  0  0  0
M  END
>  <MODEL>
4

>  <REMARK>
 VINA RESULT:      -8.2      2.920      5.169
  Name = 
  7 active torsions:
  status: ('A' for Active; 'I' for Inactive)
    1  A    between atoms: C_1  and  C_24
    2  A    between atoms: C_3  and  C_17
    3  A    between atoms: C_13  and  C_15
    4  A    between atoms: C_13  and  N_29
    5  A    between atoms: C_15  and  C_20
    6  A    between atoms: C_20  and  O_23
    7  A    between atoms: O_23  and  C_24
                            x       y       z     vdW  Elec       q    Type
                         _______ _______ _______ _____ _____    ______ ____

>  <TORSDO>
F 7

$$$$
=
 OpenBabel11052411183D

 31 34  0  0  1  0  0  0  0  0999 V2000
  161.2730  206.5620  150.7540 C   0  0  0  0  0  0  0  0  0  0  0  0
  162.5310  211.2050  148.3190 O   0  0  0  0  0  0  0  0  0  0  0  0
  161.6710  207.8600  150.2780 C   0  0  0  0  0  0  0  0  0  0  0  0
  160.6940  205.8760  149.8170 N   0  0  0  0  0  0  0  0  0  0  0  0
  160.6480  206.6680  148.5730 C   0  0  1  0  0  3  0  0  0  0  0  0
  161.5810  209.1050  148.2460 C   0  0  0  0  0  3  0  0  0  0  0  0
  162.5910  209.9860  150.2400 N   0  0  0  0  0  2  0  0  0  0  0  0
  162.3110  208.8650  150.9160 N   0  0  0  0  0  0  0  0  0  0  0  0
  161.3070  207.9510  148.9730 C   0  0  0  0  0  0  0  0  0  0  0  0
  161.5180  206.0620  152.0700 N   0  0  0  0  0  2  0  0  0  0  0  0
  162.2460  210.1400  148.9230 C   0  0  0  0  0  0  0  0  0  0  0  0
  161.4190  205.9820  147.4820 C   0  0  0  0  0  0  0  0  0  0  0  0
  161.1900  205.5290  143.7890 N   0  0  0  0  0  1  0  0  0  0  0  0
  163.3430  204.7130  146.7150 C   0  0  0  0  0  3  0  0  0  0  0  0
  160.9490  206.0530  146.1650 C   0  0  0  0  0  3  0  0  0  0  0  0
  162.8660  204.7830  145.4030 C   0  0  0  0  0  3  0  0  0  0  0  0
  161.6710  205.4530  145.1270 C   0  0  0  0  0  0  0  0  0  0  0  0
  162.6250  205.3140  147.7510 C   0  0  0  0  0  3  0  0  0  0  0  0
  161.1500  204.7140  152.4850 C   0  0  0  0  0  2  0  0  0  0  0  0
  161.9190  203.6700  151.6860 C   0  0  0  0  0  2  0  0  0  0  0  0
  161.1700  202.3430  151.6330 C   0  0  0  0  0  2  0  0  0  0  0  0
  160.2300  202.3590  150.6020 O   0  0  0  0  0  0  0  0  0  0  0  0
  160.9160  202.8840  149.5060 C   0  0  0  0  0  2  0  0  0  0  0  0
  160.9690  201.8790  148.4070 C   0  0  0  0  0  0  0  0  0  0  0  0
  161.6020  199.6800  147.6140 C   0  0  0  0  0  3  0  0  0  0  0  0
  160.0800  201.5930  144.8360 O   0  0  0  0  0  1  0  0  0  0  0  0
  161.1210  199.9940  146.3400 C   0  0  0  0  0  0  0  0  0  0  0  0
  160.5650  201.2610  146.0950 C   0  0  0  0  0  0  0  0  0  0  0  0
  160.4960  202.2010  147.1280 C   0  0  0  0  0  3  0  0  0  0  0  0
  161.2060  198.9740  145.2580 C   0  0  0  0  0  1  0  0  0  0  0  0
  161.5280  200.6190  148.6450 C   0  0  0  0  0  3  0  0  0  0  0  0
  1 10  1  0  0  0  0
  2 11  2  0  0  0  0
  3  1  1  0  0  0  0
  3  8  2  0  0  0  0
  4  1  2  0  0  0  0
  5 12  1  6  0  0  0
  5  9  1  0  0  0  0
  5  4  1  0  0  0  0
  6 11  1  0  0  0  0
  6  9  2  0  0  0  0
  7  8  1  0  0  0  0
  9  3  1  0  0  0  0
 10 19  1  0  0  0  0
 11  7  1  0  0  0  0
 12 18  1  0  0  0  0
 13 17  1  0  0  0  0
 14 18  2  0  0  0  0
 15 12  2  0  0  0  0
 16 14  1  0  0  0  0
 17 16  2  0  0  0  0
 17 15  1  0  0  0  0
 20 19  1  0  0  0  0
 21 20  1  0  0  0  0
 22 21  1  0  0  0  0
 23 22  1  0  0  0  0
 24 31  1  0  0  0  0
 24 23  1  0  0  0  0
 25 31  2  0  0  0  0
 26 28  1  0  0  0  0
 27 25  1  0  0  0  0
 28 27  2  0  0  0  0
 28 29  1  0  0  0  0
 29 24  2  0  0  0  0
 30 27  1  0  0  0  0
M  END
>  <MODEL>
5

>  <REMARK>
 VINA RESULT:      -8.1      2.577      5.389
  Name = 
  7 active torsions:
  status: ('A' for Active; 'I' for Inactive)
    1  A    between atoms: C_1  and  C_24
    2  A    between atoms: C_3  and  C_17
    3  A    between atoms: C_13  and  C_15
    4  A    between atoms: C_13  and  N_29
    5  A    between atoms: C_15  and  C_20
    6  A    between atoms: C_20  and  O_23
    7  A    between atoms: O_23  and  C_24
                            x       y       z     vdW  Elec       q    Type
                         _______ _______ _______ _____ _____    ______ ____

>  <TORSDO>
F 7

$$$$
=
 OpenBabel11052411183D

 31 34  0  0  1  0  0  0  0  0999 V2000
  161.8980  208.6570  151.4990 C   0  0  0  0  0  0  0  0  0  0  0  0
  159.9140  207.0540  156.2500 O   0  0  0  0  0  0  0  0  0  0  0  0
  161.3020  208.4110  152.7860 C   0  0  0  0  0  0  0  0  0  0  0  0
  162.5480  207.6160  151.0760 N   0  0  0  0  0  0  0  0  0  0  0  0
  162.4470  206.5270  152.0660 C   0  0  1  0  0  3  0  0  0  0  0  0
  161.1590  206.6230  154.3570 C   0  0  0  0  0  3  0  0  0  0  0  0
  160.0800  208.7370  154.7270 N   0  0  0  0  0  2  0  0  0  0  0  0
  160.5380  209.2110  153.5620 N   0  0  0  0  0  0  0  0  0  0  0  0
  161.6170  207.1410  153.1510 C   0  0  0  0  0  0  0  0  0  0  0  0
  161.7610  209.8670  150.7520 N   0  0  0  0  0  2  0  0  0  0  0  0
  160.3670  207.4670  155.1520 C   0  0  0  0  0  0  0  0  0  0  0  0
  161.7590  205.3340  151.4690 C   0  0  0  0  0  0  0  0  0  0  0  0
  161.8290  201.6250  151.8290 N   0  0  0  0  0  1  0  0  0  0  0  0
  160.0810  204.3600  150.0070 C   0  0  0  0  0  3  0  0  0  0  0  0
  162.1170  204.0520  151.9010 C   0  0  0  0  0  3  0  0  0  0  0  0
  160.4460  203.0820  150.4390 C   0  0  0  0  0  3  0  0  0  0  0  0
  161.4620  202.9270  151.3860 C   0  0  0  0  0  0  0  0  0  0  0  0
  160.7310  205.4840  150.5230 C   0  0  0  0  0  3  0  0  0  0  0  0
  162.3320  210.0460  149.4240 C   0  0  0  0  0  2  0  0  0  0  0  0
  161.6150  209.1720  148.4020 C   0  0  0  0  0  2  0  0  0  0  0  0
  162.3260  207.8380  148.2090 C   0  0  0  0  0  2  0  0  0  0  0  0
  161.5150  206.9560  147.4940 O   0  0  0  0  0  0  0  0  0  0  0  0
  162.4010  206.2170  146.7090 C   0  0  0  0  0  2  0  0  0  0  0  0
  161.7470  204.9620  146.2430 C   0  0  0  0  0  0  0  0  0  0  0  0
  160.4290  203.7810  144.5880 C   0  0  0  0  0  3  0  0  0  0  0  0
  161.2020  201.4990  147.3970 O   0  0  0  0  0  1  0  0  0  0  0  0
  160.4700  202.6250  145.3730 C   0  0  0  0  0  0  0  0  0  0  0  0
  161.1490  202.6380  146.6030 C   0  0  0  0  0  0  0  0  0  0  0  0
  161.7800  203.8080  147.0360 C   0  0  0  0  0  3  0  0  0  0  0  0
  159.7900  201.3920  144.8870 C   0  0  0  0  0  1  0  0  0  0  0  0
  161.0640  204.9480  145.0220 C   0  0  0  0  0  3  0  0  0  0  0  0
  1  3  1  0  0  0  0
  3  9  1  0  0  0  0
  3  8  2  0  0  0  0
  4  1  2  0  0  0  0
  4  5  1  0  0  0  0
  5 12  1  6  0  0  0
  5  9  1  0  0  0  0
  6 11  1  0  0  0  0
  7 11  1  0  0  0  0
  8  7  1  0  0  0  0
  9  6  2  0  0  0  0
 10  1  1  0  0  0  0
 11  2  2  0  0  0  0
 12 15  1  0  0  0  0
 14 16  2  0  0  0  0
 14 18  1  0  0  0  0
 16 17  1  0  0  0  0
 17 13  1  0  0  0  0
 17 15  2  0  0  0  0
 18 12  2  0  0  0  0
 19 10  1  0  0  0  0
 20 19  1  0  0  0  0
 21 20  1  0  0  0  0
 22 21  1  0  0  0  0
 23 22  1  0  0  0  0
 24 23  1  0  0  0  0
 24 29  1  0  0  0  0
 25 31  1  0  0  0  0
 25 27  2  0  0  0  0
 27 28  1  0  0  0  0
 28 29  2  0  0  0  0
 28 26  1  0  0  0  0
 30 27  1  0  0  0  0
 31 24  2  0  0  0  0
M  END
>  <MODEL>
6

>  <REMARK>
 VINA RESULT:      -8.1      2.212      5.107
  Name = 
  7 active torsions:
  status: ('A' for Active; 'I' for Inactive)
    1  A    between atoms: C_1  and  C_24
    2  A    between atoms: C_3  and  C_17
    3  A    between atoms: C_13  and  C_15
    4  A    between atoms: C_13  and  N_29
    5  A    between atoms: C_15  and  C_20
    6  A    between atoms: C_20  and  O_23
    7  A    between atoms: O_23  and  C_24
                            x       y       z     vdW  Elec       q    Type
                         _______ _______ _______ _____ _____    ______ ____

>  <TORSDO>
F 7

$$$$
=
 OpenBabel11052411183D

 31 34  0  0  1  0  0  0  0  0999 V2000
  161.6650  207.7220  148.3830 C   0  0  0  0  0  0  0  0  0  0  0  0
  161.9410  203.0890  145.6390 O   0  0  0  0  0  0  0  0  0  0  0  0
  161.8590  206.5790  147.5300 C   0  0  0  0  0  0  0  0  0  0  0  0
  160.7970  207.4710  149.3140 N   0  0  0  0  0  0  0  0  0  0  0  0
  160.3060  206.0860  149.1800 C   0  0  1  0  0  3  0  0  0  0  0  0
  161.0440  204.3450  147.3520 C   0  0  0  0  0  3  0  0  0  0  0  0
  162.6880  205.2290  145.8400 N   0  0  0  0  0  2  0  0  0  0  0  0
  162.6750  206.4120  146.4660 N   0  0  0  0  0  0  0  0  0  0  0  0
  161.0540  205.5840  147.9840 C   0  0  0  0  0  0  0  0  0  0  0  0
  162.3660  208.9620  148.2610 N   0  0  0  0  0  2  0  0  0  0  0  0
  161.8980  204.1880  146.2480 C   0  0  0  0  0  0  0  0  0  0  0  0
  160.6440  205.2860  150.4040 C   0  0  0  0  0  0  0  0  0  0  0  0
  161.5680  205.9180  153.9600 N   0  0  0  0  0  1  0  0  0  0  0  0
  160.8840  203.1600  151.5550 C   0  0  0  0  0  3  0  0  0  0  0  0
  160.9630  205.9570  151.5920 C   0  0  0  0  0  3  0  0  0  0  0  0
  161.2060  203.8350  152.7360 C   0  0  0  0  0  3  0  0  0  0  0  0
  161.2450  205.2320  152.7550 C   0  0  0  0  0  0  0  0  0  0  0  0
  160.5990  203.8820  150.3930 C   0  0  0  0  0  3  0  0  0  0  0  0
  162.1800  210.0690  149.1900 C   0  0  0  0  0  2  0  0  0  0  0  0
  162.4710  211.4020  148.5120 C   0  0  0  0  0  2  0  0  0  0  0  0
  161.3510  212.4080  148.7520 C   0  0  0  0  0  2  0  0  0  0  0  0
  160.5360  212.5020  147.6230 O   0  0  0  0  0  0  0  0  0  0  0  0
  161.0190  213.6120  146.9280 C   0  0  0  0  0  2  0  0  0  0  0  0
  161.3470  213.2340  145.5250 C   0  0  0  0  0  0  0  0  0  0  0  0
  162.9800  212.9930  143.7510 C   0  0  0  0  0  3  0  0  0  0  0  0
  159.6320  212.0720  142.4690 O   0  0  0  0  0  1  0  0  0  0  0  0
  161.9750  212.5740  142.8750 C   0  0  0  0  0  0  0  0  0  0  0  0
  160.6460  212.4880  143.3240 C   0  0  0  0  0  0  0  0  0  0  0  0
  160.3360  212.8240  144.6460 C   0  0  0  0  0  3  0  0  0  0  0  0
  162.3330  212.2210  141.4730 C   0  0  0  0  0  1  0  0  0  0  0  0
  162.6680  213.3240  145.0720 C   0  0  0  0  0  3  0  0  0  0  0  0
  1  4  2  0  0  0  0
  2 11  2  0  0  0  0
  3  9  1  0  0  0  0
  3  1  1  0  0  0  0
  5  4  1  0  0  0  0
  5 12  1  1  0  0  0
  6  9  2  0  0  0  0
  7 11  1  0  0  0  0
  7  8  1  0  0  0  0
  8  3  2  0  0  0  0
  9  5  1  0  0  0  0
 10  1  1  0  0  0  0
 10 19  1  0  0  0  0
 11  6  1  0  0  0  0
 12 15  1  0  0  0  0
 14 16  2  0  0  0  0
 15 17  2  0  0  0  0
 16 17  1  0  0  0  0
 17 13  1  0  0  0  0
 18 12  2  0  0  0  0
 18 14  1  0  0  0  0
 20 21  1  0  0  0  0
 20 19  1  0  0  0  0
 22 21  1  0  0  0  0
 23 22  1  0  0  0  0
 24 23  1  0  0  0  0
 25 31  2  0  0  0  0
 26 28  1  0  0  0  0
 27 28  2  0  0  0  0
 27 25  1  0  0  0  0
 28 29  1  0  0  0  0
 29 24  2  0  0  0  0
 30 27  1  0  0  0  0
 31 24  1  0  0  0  0
M  END
>  <MODEL>
7

>  <REMARK>
 VINA RESULT:      -8.0      3.892      7.494
  Name = 
  7 active torsions:
  status: ('A' for Active; 'I' for Inactive)
    1  A    between atoms: C_1  and  C_24
    2  A    between atoms: C_3  and  C_17
    3  A    between atoms: C_13  and  C_15
    4  A    between atoms: C_13  and  N_29
    5  A    between atoms: C_15  and  C_20
    6  A    between atoms: C_20  and  O_23
    7  A    between atoms: O_23  and  C_24
                            x       y       z     vdW  Elec       q    Type
                         _______ _______ _______ _____ _____    ______ ____

>  <TORSDO>
F 7

$$$$
=
 OpenBabel11052411183D

 31 34  0  0  1  0  0  0  0  0999 V2000
  161.8660  208.9940  150.9920 C   0  0  0  0  0  0  0  0  0  0  0  0
  160.0060  207.4930  155.8260 O   0  0  0  0  0  0  0  0  0  0  0  0
  161.3020  208.7740  152.2990 C   0  0  0  0  0  0  0  0  0  0  0  0
  162.5110  207.9470  150.5780 N   0  0  0  0  0  0  0  0  0  0  0  0
  162.4410  206.8800  151.5960 C   0  0  1  0  0  3  0  0  0  0  0  0
  161.2080  207.0240  153.9140 C   0  0  0  0  0  3  0  0  0  0  0  0
  160.1260  209.1400  154.2610 N   0  0  0  0  0  2  0  0  0  0  0  0
  160.5520  209.5890  153.0740 N   0  0  0  0  0  0  0  0  0  0  0  0
  161.6330  207.5150  152.6850 C   0  0  0  0  0  0  0  0  0  0  0  0
  161.7030  210.1850  150.2210 N   0  0  0  0  0  2  0  0  0  0  0  0
  160.4300  207.8820  154.7080 C   0  0  0  0  0  0  0  0  0  0  0  0
  161.7450  205.6700  151.0440 C   0  0  0  0  0  0  0  0  0  0  0  0
  160.8310  204.2790  147.7080 N   0  0  0  0  0  1  0  0  0  0  0  0
  160.6750  203.5100  151.3470 C   0  0  0  0  0  3  0  0  0  0  0  0
  161.5940  205.5420  149.6580 C   0  0  0  0  0  3  0  0  0  0  0  0
  160.5230  203.3900  149.9630 C   0  0  0  0  0  3  0  0  0  0  0  0
  160.9820  204.4050  149.1180 C   0  0  0  0  0  0  0  0  0  0  0  0
  161.2890  204.6440  151.8870 C   0  0  0  0  0  3  0  0  0  0  0  0
  162.2410  210.3350  148.8750 C   0  0  0  0  0  2  0  0  0  0  0  0
  162.5070  211.8000  148.5550 C   0  0  0  0  0  2  0  0  0  0  0  0
  161.2270  212.6250  148.6060 C   0  0  0  0  0  2  0  0  0  0  0  0
  160.4180  212.3310  147.5070 O   0  0  0  0  0  0  0  0  0  0  0  0
  160.4750  213.4750  146.7100 C   0  0  0  0  0  2  0  0  0  0  0  0
  160.9810  213.1270  145.3520 C   0  0  0  0  0  0  0  0  0  0  0  0
  162.8080  213.0260  143.7640 C   0  0  0  0  0  3  0  0  0  0  0  0
  159.7050  211.8300  142.1410 O   0  0  0  0  0  1  0  0  0  0  0  0
  161.9410  212.5250  142.7890 C   0  0  0  0  0  0  0  0  0  0  0  0
  160.5830  212.3280  143.0950 C   0  0  0  0  0  0  0  0  0  0  0  0
  160.1070  212.6350  144.3740 C   0  0  0  0  0  3  0  0  0  0  0  0
  162.4740  212.2050  141.4360 C   0  0  0  0  0  1  0  0  0  0  0  0
  162.3300  213.3280  145.0420 C   0  0  0  0  0  3  0  0  0  0  0  0
  1  3  1  0  0  0  0
  3  9  1  0  0  0  0
  3  8  2  0  0  0  0
  4  1  2  0  0  0  0
  4  5  1  0  0  0  0
  5 12  1  6  0  0  0
  5  9  1  0  0  0  0
  6 11  1  0  0  0  0
  7 11  1  0  0  0  0
  8  7  1  0  0  0  0
  9  6  2  0  0  0  0
 10  1  1  0  0  0  0
 11  2  2  0  0  0  0
 12 18  1  0  0  0  0
 13 17  1  0  0  0  0
 14 18  2  0  0  0  0
 15 12  2  0  0  0  0
 16 14  1  0  0  0  0
 17 15  1  0  0  0  0
 17 16  2  0  0  0  0
 19 10  1  0  0  0  0
 20 21  1  0  0  0  0
 20 19  1  0  0  0  0
 22 21  1  0  0  0  0
 23 22  1  0  0  0  0
 24 23  1  0  0  0  0
 25 31  2  0  0  0  0
 26 28  1  0  0  0  0
 27 28  2  0  0  0  0
 27 25  1  0  0  0  0
 28 29  1  0  0  0  0
 29 24  2  0  0  0  0
 30 27  1  0  0  0  0
 31 24  1  0  0  0  0
M  END
>  <MODEL>
8

>  <REMARK>
 VINA RESULT:      -7.9      4.169      7.735
  Name = 
  7 active torsions:
  status: ('A' for Active; 'I' for Inactive)
    1  A    between atoms: C_1  and  C_24
    2  A    between atoms: C_3  and  C_17
    3  A    between atoms: C_13  and  C_15
    4  A    between atoms: C_13  and  N_29
    5  A    between atoms: C_15  and  C_20
    6  A    between atoms: C_20  and  O_23
    7  A    between atoms: O_23  and  C_24
                            x       y       z     vdW  Elec       q    Type
                         _______ _______ _______ _____ _____    ______ ____

>  <TORSDO>
F 7

$$$$
=
 OpenBabel11052411183D

 31 34  0  0  1  0  0  0  0  0999 V2000
  161.9060  209.0260  150.8520 C   0  0  0  0  0  0  0  0  0  0  0  0
  160.0470  207.3550  155.6290 O   0  0  0  0  0  0  0  0  0  0  0  0
  161.3380  208.7590  152.1470 C   0  0  0  0  0  0  0  0  0  0  0  0
  162.5810  208.0070  150.4170 N   0  0  0  0  0  0  0  0  0  0  0  0
  162.5300  206.9130  151.4060 C   0  0  1  0  0  3  0  0  0  0  0  0
  161.2750  206.9650  153.7170 C   0  0  0  0  0  3  0  0  0  0  0  0
  160.1370  209.0440  154.1080 N   0  0  0  0  0  2  0  0  0  0  0  0
  160.5610  209.5340  152.9360 N   0  0  0  0  0  0  0  0  0  0  0  0
  161.6980  207.4990  152.5050 C   0  0  0  0  0  0  0  0  0  0  0  0
  161.7190  210.2320  150.1100 N   0  0  0  0  0  2  0  0  0  0  0  0
  160.4690  207.7830  154.5250 C   0  0  0  0  0  0  0  0  0  0  0  0
  161.8700  205.7000  150.8170 C   0  0  0  0  0  0  0  0  0  0  0  0
  161.0650  204.3490  147.4380 N   0  0  0  0  0  1  0  0  0  0  0  0
  160.8310  203.5180  151.0590 C   0  0  0  0  0  3  0  0  0  0  0  0
  161.7560  205.5930  149.4260 C   0  0  0  0  0  3  0  0  0  0  0  0
  160.7160  203.4180  149.6700 C   0  0  0  0  0  3  0  0  0  0  0  0
  161.1780  204.4540  148.8530 C   0  0  0  0  0  0  0  0  0  0  0  0
  161.4100  204.6530  151.6320 C   0  0  0  0  0  3  0  0  0  0  0  0
  162.2640  210.4300  148.7720 C   0  0  0  0  0  2  0  0  0  0  0  0
  162.4870  211.9110  148.4900 C   0  0  0  0  0  2  0  0  0  0  0  0
  161.2170  212.7220  148.7210 C   0  0  0  0  0  2  0  0  0  0  0  0
  160.2680  212.4220  147.7430 O   0  0  0  0  0  0  0  0  0  0  0  0
  160.2270  213.5550  146.9300 C   0  0  0  0  0  2  0  0  0  0  0  0
  160.7660  213.2340  145.5780 C   0  0  0  0  0  0  0  0  0  0  0  0
  160.5050  212.1550  143.4250 C   0  0  0  0  0  3  0  0  0  0  0  0
  163.8310  213.7680  143.5930 O   0  0  0  0  0  1  0  0  0  0  0  0
  161.7820  212.5810  143.0500 C   0  0  0  0  0  0  0  0  0  0  0  0
  162.5590  213.3340  143.9460 C   0  0  0  0  0  0  0  0  0  0  0  0
  162.0510  213.6530  145.2090 C   0  0  0  0  0  3  0  0  0  0  0  0
  162.3000  212.2280  141.6990 C   0  0  0  0  0  1  0  0  0  0  0  0
  159.9970  212.4790  144.6860 C   0  0  0  0  0  3  0  0  0  0  0  0
  1  3  1  0  0  0  0
  3  9  1  0  0  0  0
  3  8  2  0  0  0  0
  4  1  2  0  0  0  0
  4  5  1  0  0  0  0
  5 12  1  6  0  0  0
  5  9  1  0  0  0  0
  6 11  1  0  0  0  0
  7 11  1  0  0  0  0
  8  7  1  0  0  0  0
  9  6  2  0  0  0  0
 10  1  1  0  0  0  0
 11  2  2  0  0  0  0
 12 18  1  0  0  0  0
 13 17  1  0  0  0  0
 14 18  2  0  0  0  0
 15 12  2  0  0  0  0
 16 14  1  0  0  0  0
 17 15  1  0  0  0  0
 17 16  2  0  0  0  0
 19 10  1  0  0  0  0
 20 21  1  0  0  0  0
 20 19  1  0  0  0  0
 22 21  1  0  0  0  0
 23 22  1  0  0  0  0
 24 23  1  0  0  0  0
 25 31  1  0  0  0  0
 26 28  1  0  0  0  0
 27 25  2  0  0  0  0
 27 28  1  0  0  0  0
 28 29  2  0  0  0  0
 29 24  1  0  0  0  0
 30 27  1  0  0  0  0
 31 24  2  0  0  0  0
M  END
>  <MODEL>
9

>  <REMARK>
 VINA RESULT:      -7.8      4.077      7.762
  Name = 
  7 active torsions:
  status: ('A' for Active; 'I' for Inactive)
    1  A    between atoms: C_1  and  C_24
    2  A    between atoms: C_3  and  C_17
    3  A    between atoms: C_13  and  C_15
    4  A    between atoms: C_13  and  N_29
    5  A    between atoms: C_15  and  C_20
    6  A    between atoms: C_20  and  O_23
    7  A    between atoms: O_23  and  C_24
                            x       y       z     vdW  Elec       q    Type
                         _______ _______ _______ _____ _____    ______ ____

>  <TORSDO>
F 7

$$$$
