=
 OpenBabel11052410173D

 57 63  0  0  1  0  0  0  0  0999 V2000
  160.8760  208.2510  152.3070 C   0  0  0  0  0  2  0  0  0  0  0  0
  162.0060  203.1350  147.8370 C   0  0  0  0  0  0  0  0  0  0  0  0
  162.0360  209.0740  150.2400 C   0  0  0  0  0  2  0  0  0  0  0  0
  161.5350  204.0200  148.9320 C   0  0  1  0  0  3  0  0  0  0  0  0
  162.6040  206.1880  151.2400 C   0  0  0  0  0  2  0  0  0  0  0  0
  161.4890  207.1660  153.1650 C   0  0  0  0  0  0  0  0  0  0  0  0
  161.1760  207.1090  154.5590 N   0  0  0  0  0  2  0  0  0  0  0  0
  162.2630  205.2070  146.8690 C   0  0  1  0  0  3  0  0  0  0  0  0
  162.2350  206.2320  152.6530 N   0  0  0  0  0  0  0  0  0  0  0  0
  161.7410  201.8650  147.8030 N   0  0  0  0  0  0  0  0  0  0  0  0
  161.7170  205.3640  148.2700 C   0  0  0  0  0  0  0  0  0  0  0  0
  162.2080  207.6860  148.2490 O   0  0  0  0  0  0  0  0  0  0  0  0
  160.0950  203.5940  149.2800 C   0  0  1  0  0  3  0  0  0  0  0  0
  160.0680  202.1020  149.5150 C   0  0  0  0  0  3  0  0  0  0  0  0
  161.7540  206.5410  148.9240 C   0  0  0  0  0  0  0  0  0  0  0  0
  162.5630  203.8210  146.7760 O   0  0  0  0  0  0  0  0  0  0  0  0
  161.9800  209.0140  148.7230 C   0  0  0  0  0  2  0  0  0  0  0  0
  160.8520  201.3000  148.7810 C   0  0  0  0  0  3  0  0  0  0  0  0
  161.4210  206.6350  150.3920 C   0  0  2  0  0  3  0  0  0  0  0  0
  161.0340  208.0670  150.7910 C   0  0  1  0  0  3  0  0  0  0  0  0
  159.5810  204.2810  150.5280 C   0  0  0  0  0  1  0  0  0  0  0  0
  161.1880  205.5300  145.8300 C   0  0  0  0  0  2  0  0  0  0  0  0
  161.5660  205.0890  144.4260 C   0  0  0  0  0  2  0  0  0  0  0  0
  161.1690  206.1430  143.4110 C   0  0  0  0  0  2  0  0  0  0  0  0
  162.2470  206.2450  142.3490 C   0  0  0  0  0  2  0  0  0  0  0  0
  161.6140  206.1490  140.9710 C   0  0  0  0  0  2  0  0  0  0  0  0
  161.5530  208.4220  138.2240 C   0  0  1  0  0  3  0  0  0  0  0  0
  162.3860  206.3630  138.6360 C   0  0  0  0  0  2  0  0  0  0  0  0
  162.3550  207.0340  139.9830 C   0  0  1  0  0  3  0  0  0  0  0  0
  161.5740  208.2850  139.7300 C   0  0  1  0  0  3  0  0  0  0  0  0
  162.4220  209.7120  140.4680 S   0  0  0  0  0  1  0  0  0  0  0  0
  162.2350  207.3400  137.6380 O   0  0  0  0  0  0  0  0  0  0  0  0
  160.1120  208.4580  137.7390 C   0  0  0  0  0  2  0  0  0  0  0  0
  158.5930  211.8580  137.5260 C   0  0  0  0  0  2  0  0  0  0  0  0
  158.0540  209.2510  138.4590 C   0  0  0  0  0  2  0  0  0  0  0  0
  157.2000  210.4620  138.8190 C   0  0  0  0  0  2  0  0  0  0  0  0
  157.2180  211.4080  137.7110 N   0  0  0  0  0  2  0  0  0  0  0  0
  159.4950  210.6760  137.1640 C   0  0  2  0  0  3  0  0  0  0  0  0
  159.4430  209.6560  138.2270 N   0  0  0  0  0  0  0  0  0  0  0  0
  161.1150  212.2720  137.9020 O   0  0  0  0  0  1  0  0  0  0  0  0
  160.9090  211.2220  137.0110 C   0  0  0  0  0  2  0  0  0  0  0  0
  160.3830  208.1340  155.2070 C   0  0  0  0  0  2  0  0  0  0  0  0
  160.9710  209.5000  154.9030 C   0  0  0  0  0  2  0  0  0  0  0  0
  159.7150  209.8460  156.9710 N   0  0  0  0  0  1  0  0  0  0  0  0
  160.4590  210.5150  155.9120 C   0  0  2  0  0  3  0  0  0  0  0  0
  159.6050  211.5780  155.2200 C   0  0  2  0  0  3  0  0  0  0  0  0
  157.8820  212.8160  156.5840 N   0  0  0  0  0  1  0  0  0  0  0  0
  157.4200  210.7180  155.7100 O   0  0  0  0  0  0  0  0  0  0  0  0
  158.2440  211.6620  155.8360 C   0  0  0  0  0  0  0  0  0  0  0  0
  159.5140  211.3430  153.8380 O   0  0  0  0  0  0  0  0  0  0  0  0
  159.4740  212.5430  153.2870 O   0  0  0  0  0  0  0  0  0  0  0  0
  158.3210  212.5350  152.4940 C   0  0  0  0  0  2  0  0  0  0  0  0
  157.8780  213.2950  150.3270 C   0  0  0  0  0  2  0  0  0  0  0  0
  158.7500  214.0040  149.3230 C   0  0  0  0  0  2  0  0  0  0  0  0
  159.6890  214.1710  151.5140 C   0  0  0  0  0  2  0  0  0  0  0  0
  158.3070  213.7200  151.6500 N   0  0  0  0  0  0  0  0  0  0  0  0
  160.0570  214.1700  150.0430 C   0  0  0  0  0  2  0  0  0  0  0  0
  1  6  1  0  0  0  0
  4  2  1  6  0  0  0
  4 13  1  0  0  0  0
  5  9  1  0  0  0  0
  6  7  1  0  0  0  0
  7 42  1  0  0  0  0
  8 22  1  6  0  0  0
  8 11  1  0  0  0  0
  9  6  2  0  0  0  0
 10  2  2  0  0  0  0
 10 18  1  0  0  0  0
 11 15  2  0  0  0  0
 11  4  1  0  0  0  0
 12 17  1  0  0  0  0
 12 15  1  0  0  0  0
 13 14  1  0  0  0  0
 13 21  1  1  0  0  0
 15 19  1  0  0  0  0
 16  8  1  0  0  0  0
 16  2  1  0  0  0  0
 17  3  1  0  0  0  0
 18 14  2  0  0  0  0
 19 20  1  0  0  0  0
 19  5  1  1  0  0  0
 20  3  1  1  0  0  0
 20  1  1  0  0  0  0
 23 22  1  0  0  0  0
 24 23  1  0  0  0  0
 25 24  1  0  0  0  0
 26 25  1  0  0  0  0
 27 33  1  6  0  0  0
 27 30  1  0  0  0  0
 28 29  1  0  0  0  0
 29 26  1  1  0  0  0
 30 29  1  0  0  0  0
 30 31  1  1  0  0  0
 32 27  1  0  0  0  0
 32 28  1  0  0  0  0
 33 39  1  0  0  0  0
 34 37  1  0  0  0  0
 35 36  1  0  0  0  0
 37 36  1  0  0  0  0
 38 41  1  1  0  0  0
 38 34  1  0  0  0  0
 38 39  1  0  0  0  0
 39 35  1  0  0  0  0
 41 40  1  0  0  0  0
 43 42  1  0  0  0  0
 43 45  1  0  0  0  0
 45 44  1  1  0  0  0
 46 50  1  6  0  0  0
 46 49  1  0  0  0  0
 46 45  1  0  0  0  0
 48 49  2  0  0  0  0
 49 47  1  0  0  0  0
 51 50  1  0  0  0  0
 52 51  1  0  0  0  0
 53 56  1  0  0  0  0
 54 57  1  0  0  0  0
 54 53  1  0  0  0  0
 55 56  1  0  0  0  0
 56 52  1  0  0  0  0
 57 55  1  0  0  0  0
M  END
>  <MODEL>
1

>  <REMARK>
 VINA RESULT:      -4.9      0.000      0.000
  Name = 
  18 active torsions:
  status: ('A' for Active; 'I' for Inactive)
    1  A    between atoms: C_6  and  C_28
    2  A    between atoms: C_10  and  C_14
    3  A    between atoms: C_10  and  C_24
    4  A    between atoms: C_12  and  C_18
    5  A    between atoms: C_12  and  C_20
    6  A    between atoms: C_14  and  C_53
    7  A    between atoms: O_15  and  O_19
    8  A    between atoms: O_15  and  C_23
    9  A    between atoms: C_18  and  C_23
   10  A    between atoms: O_19  and  C_42
   11  A    between atoms: C_20  and  N_30
   12  A    between atoms: C_22  and  C_57
   13  A    between atoms: C_23  and  C_56
   14  A    between atoms: C_24  and  C_57
   15  A    between atoms: C_28  and  N_38
   16  A    between atoms: C_31  and  C_53
   17  A    between atoms: C_35  and  C_41
   18  A    between atoms: C_42  and  N_49
                            x       y       z     vdW  Elec       q    Type
                         _______ _______ _______ _____ _____    ______ ____

>  <TORSDO>
F 18

$$$$
=
 OpenBabel11052410173D

 57 63  0  0  1  0  0  0  0  0999 V2000
  160.9390  212.1570  147.0690 C   0  0  0  0  0  2  0  0  0  0  0  0
  159.2900  213.1370  153.6830 C   0  0  0  0  0  0  0  0  0  0  0  0
  162.3940  210.7950  148.5910 C   0  0  0  0  0  2  0  0  0  0  0  0
  159.3350  213.0560  152.2010 C   0  0  1  0  0  3  0  0  0  0  0  0
  161.3430  213.5480  149.5750 C   0  0  0  0  0  2  0  0  0  0  0  0
  160.8750  213.6640  147.1940 C   0  0  0  0  0  0  0  0  0  0  0  0
  160.5540  214.4530  146.0460 N   0  0  0  0  0  2  0  0  0  0  0  0
  160.6140  211.2780  153.3840 C   0  0  1  0  0  3  0  0  0  0  0  0
  161.0280  214.2600  148.3400 N   0  0  0  0  0  0  0  0  0  0  0  0
  158.3970  213.8320  154.3170 N   0  0  0  0  0  0  0  0  0  0  0  0
  160.2080  211.8350  152.0380 C   0  0  0  0  0  0  0  0  0  0  0  0
  161.8460  210.5110  150.9450 O   0  0  0  0  0  0  0  0  0  0  0  0
  157.8800  212.9550  151.7030 C   0  0  1  0  0  3  0  0  0  0  0  0
  157.0690  214.0650  152.3260 C   0  0  0  0  0  3  0  0  0  0  0  0
  160.8460  211.4970  150.9030 C   0  0  0  0  0  0  0  0  0  0  0  0
  160.1430  212.2490  154.3090 O   0  0  0  0  0  0  0  0  0  0  0  0
  162.3420  209.8500  149.7810 C   0  0  0  0  0  2  0  0  0  0  0  0
  157.3270  214.4510  153.5830 C   0  0  0  0  0  3  0  0  0  0  0  0
  160.5870  212.2260  149.6080 C   0  0  2  0  0  3  0  0  0  0  0  0
  161.0030  211.3830  148.3930 C   0  0  1  0  0  3  0  0  0  0  0  0
  157.7820  213.0830  150.1960 C   0  0  0  0  0  1  0  0  0  0  0  0
  159.8880  209.9620  153.6660 C   0  0  0  0  0  2  0  0  0  0  0  0
  160.6600  209.0460  154.6010 C   0  0  0  0  0  2  0  0  0  0  0  0
  161.0120  207.7470  153.9030 C   0  0  0  0  0  2  0  0  0  0  0  0
  162.1420  207.9950  152.9230 C   0  0  0  0  0  2  0  0  0  0  0  0
  162.4640  206.7100  152.1810 C   0  0  0  0  0  2  0  0  0  0  0  0
  160.7280  204.6090  149.8800 C   0  0  1  0  0  3  0  0  0  0  0  0
  160.5820  206.7510  150.5830 C   0  0  0  0  0  2  0  0  0  0  0  0
  161.1850  206.0130  151.7470 C   0  0  1  0  0  3  0  0  0  0  0  0
  161.5040  204.6670  151.1770 C   0  0  1  0  0  3  0  0  0  0  0  0
  160.9270  203.3590  152.2990 S   0  0  0  0  0  1  0  0  0  0  0  0
  160.0340  205.8180  149.6870 O   0  0  0  0  0  0  0  0  0  0  0  0
  161.6880  204.3650  148.7260 C   0  0  0  0  0  2  0  0  0  0  0  0
  161.1800  203.4110  145.1560 C   0  0  0  0  0  2  0  0  0  0  0  0
  160.9180  202.3940  147.7740 C   0  0  0  0  0  2  0  0  0  0  0  0
  160.3320  201.7060  146.5470 C   0  0  0  0  0  2  0  0  0  0  0  0
  161.1840  201.9720  145.3950 N   0  0  0  0  0  2  0  0  0  0  0  0
  161.7590  204.1520  146.3640 C   0  0  2  0  0  3  0  0  0  0  0  0
  160.9710  203.8440  147.5710 N   0  0  0  0  0  0  0  0  0  0  0  0
  160.8080  206.2770  146.9050 O   0  0  0  0  0  1  0  0  0  0  0  0
  161.7010  205.6400  146.0460 C   0  0  0  0  0  2  0  0  0  0  0  0
  160.4070  213.8650  144.7300 C   0  0  0  0  0  2  0  0  0  0  0  0
  161.5040  212.8390  144.5060 C   0  0  0  0  0  2  0  0  0  0  0  0
  162.3090  214.3610  142.7710 N   0  0  0  0  0  1  0  0  0  0  0  0
  162.0420  212.9650  143.0890 C   0  0  2  0  0  3  0  0  0  0  0  0
  161.0680  212.3430  142.0870 C   0  0  2  0  0  3  0  0  0  0  0  0
  161.0690  210.8730  140.0390 N   0  0  0  0  0  1  0  0  0  0  0  0
  163.0550  211.6890  140.9160 O   0  0  0  0  0  0  0  0  0  0  0  0
  161.8000  211.6320  140.9930 C   0  0  0  0  0  0  0  0  0  0  0  0
  160.1920  213.3060  141.5590 O   0  0  0  0  0  0  0  0  0  0  0  0
  158.9830  212.8890  141.8880 O   0  0  0  0  0  0  0  0  0  0  0  0
  158.1120  213.8150  141.3030 C   0  0  0  0  0  2  0  0  0  0  0  0
  156.8080  214.2280  139.4060 C   0  0  0  0  0  2  0  0  0  0  0  0
  156.0890  213.2930  138.4690 C   0  0  0  0  0  2  0  0  0  0  0  0
  157.7330  212.1090  139.7360 C   0  0  0  0  0  2  0  0  0  0  0  0
  157.9970  213.5380  139.8800 N   0  0  0  0  0  0  0  0  0  0  0  0
  156.4160  211.9300  139.0090 C   0  0  0  0  0  2  0  0  0  0  0  0
  1  6  1  0  0  0  0
  2 16  1  0  0  0  0
  2 10  2  0  0  0  0
  3 17  1  0  0  0  0
  4 11  1  1  0  0  0
  4  2  1  0  0  0  0
  6  9  2  0  0  0  0
  7  6  1  0  0  0  0
  8 22  1  1  0  0  0
  8 16  1  0  0  0  0
  9  5  1  0  0  0  0
 11  8  1  0  0  0  0
 13 21  1  6  0  0  0
 13  4  1  0  0  0  0
 13 14  1  0  0  0  0
 14 18  2  0  0  0  0
 15 12  1  0  0  0  0
 15 11  2  0  0  0  0
 17 12  1  0  0  0  0
 18 10  1  0  0  0  0
 19  5  1  1  0  0  0
 19 15  1  0  0  0  0
 20  1  1  6  0  0  0
 20  3  1  0  0  0  0
 20 19  1  0  0  0  0
 22 23  1  0  0  0  0
 24 23  1  0  0  0  0
 25 24  1  0  0  0  0
 26 25  1  0  0  0  0
 27 33  1  6  0  0  0
 27 30  1  0  0  0  0
 28 29  1  0  0  0  0
 29 26  1  6  0  0  0
 30 29  1  0  0  0  0
 30 31  1  1  0  0  0
 32 27  1  0  0  0  0
 32 28  1  0  0  0  0
 34 37  1  0  0  0  0
 34 38  1  0  0  0  0
 36 35  1  0  0  0  0
 37 36  1  0  0  0  0
 38 41  1  6  0  0  0
 38 39  1  0  0  0  0
 39 35  1  0  0  0  0
 39 33  1  0  0  0  0
 41 40  1  0  0  0  0
 42  7  1  0  0  0  0
 43 42  1  0  0  0  0
 45 44  1  6  0  0  0
 45 43  1  0  0  0  0
 46 49  1  6  0  0  0
 46 45  1  0  0  0  0
 47 49  1  0  0  0  0
 48 49  2  0  0  0  0
 50 51  1  0  0  0  0
 50 46  1  0  0  0  0
 52 51  1  0  0  0  0
 53 56  1  0  0  0  0
 54 57  1  0  0  0  0
 54 53  1  0  0  0  0
 55 56  1  0  0  0  0
 56 52  1  0  0  0  0
 57 55  1  0  0  0  0
M  END
>  <MODEL>
2

>  <REMARK>
 VINA RESULT:      -4.9      3.441     11.187
  Name = 
  18 active torsions:
  status: ('A' for Active; 'I' for Inactive)
    1  A    between atoms: C_6  and  C_28
    2  A    between atoms: C_10  and  C_14
    3  A    between atoms: C_10  and  C_24
    4  A    between atoms: C_12  and  C_18
    5  A    between atoms: C_12  and  C_20
    6  A    between atoms: C_14  and  C_53
    7  A    between atoms: O_15  and  O_19
    8  A    between atoms: O_15  and  C_23
    9  A    between atoms: C_18  and  C_23
   10  A    between atoms: O_19  and  C_42
   11  A    between atoms: C_20  and  N_30
   12  A    between atoms: C_22  and  C_57
   13  A    between atoms: C_23  and  C_56
   14  A    between atoms: C_24  and  C_57
   15  A    between atoms: C_28  and  N_38
   16  A    between atoms: C_31  and  C_53
   17  A    between atoms: C_35  and  C_41
   18  A    between atoms: C_42  and  N_49
                            x       y       z     vdW  Elec       q    Type
                         _______ _______ _______ _____ _____    ______ ____

>  <TORSDO>
F 18

$$$$
=
 OpenBabel11052410173D

 57 63  0  0  1  0  0  0  0  0999 V2000
  161.0360  208.1790  152.0640 C   0  0  0  0  0  2  0  0  0  0  0  0
  162.0640  203.4250  147.1890 C   0  0  0  0  0  0  0  0  0  0  0  0
  161.9340  209.2010  149.9570 C   0  0  0  0  0  2  0  0  0  0  0  0
  161.6440  204.2090  148.3780 C   0  0  1  0  0  3  0  0  0  0  0  0
  162.7860  206.3110  150.7120 C   0  0  0  0  0  2  0  0  0  0  0  0
  161.8010  207.0930  152.7900 C   0  0  0  0  0  0  0  0  0  0  0  0
  161.6280  206.9330  154.2000 N   0  0  0  0  0  2  0  0  0  0  0  0
  162.0880  205.5620  146.3360 C   0  0  1  0  0  3  0  0  0  0  0  0
  162.5530  206.2470  152.1520 N   0  0  0  0  0  0  0  0  0  0  0  0
  161.8810  202.1440  147.0980 N   0  0  0  0  0  0  0  0  0  0  0  0
  161.6710  205.5990  147.7900 C   0  0  0  0  0  0  0  0  0  0  0  0
  162.0040  207.9480  147.8730 O   0  0  0  0  0  0  0  0  0  0  0  0
  160.2760  203.6610  148.8290 C   0  0  1  0  0  3  0  0  0  0  0  0
  160.3700  202.1600  148.9690 C   0  0  0  0  0  3  0  0  0  0  0  0
  161.6940  206.7350  148.5110 C   0  0  0  0  0  0  0  0  0  0  0  0
  162.4690  204.2090  146.1270 O   0  0  0  0  0  0  0  0  0  0  0  0
  161.7360  209.2250  148.4500 C   0  0  0  0  0  2  0  0  0  0  0  0
  161.1300  201.4600  148.1160 C   0  0  0  0  0  3  0  0  0  0  0  0
  161.4990  206.7200  150.0070 C   0  0  2  0  0  3  0  0  0  0  0  0
  161.0590  208.0950  150.5310 C   0  0  1  0  0  3  0  0  0  0  0  0
  159.8400  204.2370  150.1620 C   0  0  0  0  0  1  0  0  0  0  0  0
  160.8990  205.8670  145.4250 C   0  0  0  0  0  2  0  0  0  0  0  0
  161.1150  205.4080  143.9920 C   0  0  0  0  0  2  0  0  0  0  0  0
  161.9010  206.4450  143.2140 C   0  0  0  0  0  2  0  0  0  0  0  0
  162.0810  205.9680  141.7850 C   0  0  0  0  0  2  0  0  0  0  0  0
  162.5530  207.1230  140.9190 C   0  0  0  0  0  2  0  0  0  0  0  0
  161.5160  209.0620  138.1110 C   0  0  1  0  0  3  0  0  0  0  0  0
  160.6700  208.5140  140.1330 C   0  0  0  0  0  2  0  0  0  0  0  0
  161.5770  207.3660  139.7800 C   0  0  1  0  0  3  0  0  0  0  0  0
  162.3110  207.8610  138.5740 C   0  0  1  0  0  3  0  0  0  0  0  0
  162.3170  206.5880  137.2770 S   0  0  0  0  0  1  0  0  0  0  0  0
  160.4270  209.2740  138.9770 O   0  0  0  0  0  0  0  0  0  0  0  0
  162.4160  210.2880  138.0910 C   0  0  0  0  0  2  0  0  0  0  0  0
  161.7750  213.9580  138.2710 C   0  0  0  0  0  2  0  0  0  0  0  0
  160.8250  211.6060  137.0370 C   0  0  0  0  0  2  0  0  0  0  0  0
  160.0670  212.9290  137.0110 C   0  0  0  0  0  2  0  0  0  0  0  0
  161.0240  214.0290  137.0240 N   0  0  0  0  0  2  0  0  0  0  0  0
  162.5540  212.6430  138.3480 C   0  0  2  0  0  3  0  0  0  0  0  0
  161.6270  211.5000  138.2580 N   0  0  0  0  0  0  0  0  0  0  0  0
  162.4240  212.2570  140.7040 O   0  0  0  0  0  1  0  0  0  0  0  0
  163.2900  212.6350  139.6820 C   0  0  0  0  0  2  0  0  0  0  0  0
  160.8350  207.8600  154.9840 C   0  0  0  0  0  2  0  0  0  0  0  0
  161.6990  208.4760  156.0700 C   0  0  0  0  0  2  0  0  0  0  0  0
  162.9430  210.4870  156.6850 N   0  0  0  0  0  1  0  0  0  0  0  0
  162.0160  209.9200  155.7160 C   0  0  2  0  0  3  0  0  0  0  0  0
  160.7320  210.7460  155.6250 C   0  0  2  0  0  3  0  0  0  0  0  0
  159.0280  210.4930  153.7840 N   0  0  0  0  0  1  0  0  0  0  0  0
  161.0870  211.4760  153.3690 O   0  0  0  0  0  0  0  0  0  0  0  0
  160.3120  210.9370  154.2020 C   0  0  0  0  0  0  0  0  0  0  0  0
  160.8720  211.9830  156.2750 O   0  0  0  0  0  0  0  0  0  0  0  0
  159.7530  212.6360  156.0160 O   0  0  0  0  0  0  0  0  0  0  0  0
  159.1000  212.7330  157.2500 C   0  0  0  0  0  2  0  0  0  0  0  0
  157.0900  211.5820  156.9270 C   0  0  0  0  0  2  0  0  0  0  0  0
  156.0950  211.6140  155.7970 C   0  0  0  0  0  2  0  0  0  0  0  0
  157.5120  213.5360  155.7200 C   0  0  0  0  0  2  0  0  0  0  0  0
  157.6730  212.9100  157.0290 N   0  0  0  0  0  0  0  0  0  0  0  0
  156.6680  212.6280  154.8490 C   0  0  0  0  0  2  0  0  0  0  0  0
  1  6  1  0  0  0  0
  4  2  1  6  0  0  0
  4 13  1  0  0  0  0
  5  9  1  0  0  0  0
  6  7  1  0  0  0  0
  7 42  1  0  0  0  0
  8 22  1  6  0  0  0
  8 11  1  0  0  0  0
  9  6  2  0  0  0  0
 10  2  2  0  0  0  0
 10 18  1  0  0  0  0
 11  4  1  0  0  0  0
 11 15  2  0  0  0  0
 12 17  1  0  0  0  0
 12 15  1  0  0  0  0
 13 14  1  0  0  0  0
 13 21  1  1  0  0  0
 15 19  1  0  0  0  0
 16  8  1  0  0  0  0
 16  2  1  0  0  0  0
 17  3  1  0  0  0  0
 18 14  2  0  0  0  0
 19 20  1  0  0  0  0
 19  5  1  1  0  0  0
 20  3  1  6  0  0  0
 20  1  1  0  0  0  0
 23 22  1  0  0  0  0
 24 23  1  0  0  0  0
 25 24  1  0  0  0  0
 26 25  1  0  0  0  0
 27 33  1  1  0  0  0
 27 30  1  0  0  0  0
 27 32  1  0  0  0  0
 29 28  1  0  0  0  0
 29 26  1  1  0  0  0
 30 31  1  6  0  0  0
 30 29  1  0  0  0  0
 32 28  1  0  0  0  0
 33 39  1  0  0  0  0
 34 38  1  0  0  0  0
 35 39  1  0  0  0  0
 36 37  1  0  0  0  0
 36 35  1  0  0  0  0
 37 34  1  0  0  0  0
 38 41  1  1  0  0  0
 39 38  1  0  0  0  0
 41 40  1  0  0  0  0
 42 43  1  0  0  0  0
 45 43  1  0  0  0  0
 45 44  1  1  0  0  0
 46 49  1  6  0  0  0
 46 45  1  0  0  0  0
 46 50  1  0  0  0  0
 47 49  1  0  0  0  0
 48 49  2  0  0  0  0
 51 50  1  0  0  0  0
 51 52  1  0  0  0  0
 53 56  1  0  0  0  0
 54 53  1  0  0  0  0
 55 56  1  0  0  0  0
 56 52  1  0  0  0  0
 57 55  1  0  0  0  0
 57 54  1  0  0  0  0
M  END
>  <MODEL>
3

>  <REMARK>
 VINA RESULT:      -4.6      2.196      2.868
  Name = 
  18 active torsions:
  status: ('A' for Active; 'I' for Inactive)
    1  A    between atoms: C_6  and  C_28
    2  A    between atoms: C_10  and  C_14
    3  A    between atoms: C_10  and  C_24
    4  A    between atoms: C_12  and  C_18
    5  A    between atoms: C_12  and  C_20
    6  A    between atoms: C_14  and  C_53
    7  A    between atoms: O_15  and  O_19
    8  A    between atoms: O_15  and  C_23
    9  A    between atoms: C_18  and  C_23
   10  A    between atoms: O_19  and  C_42
   11  A    between atoms: C_20  and  N_30
   12  A    between atoms: C_22  and  C_57
   13  A    between atoms: C_23  and  C_56
   14  A    between atoms: C_24  and  C_57
   15  A    between atoms: C_28  and  N_38
   16  A    between atoms: C_31  and  C_53
   17  A    between atoms: C_35  and  C_41
   18  A    between atoms: C_42  and  N_49
                            x       y       z     vdW  Elec       q    Type
                         _______ _______ _______ _____ _____    ______ ____

>  <TORSDO>
F 18

$$$$
=
 OpenBabel11052410173D

 57 63  0  0  1  0  0  0  0  0999 V2000
  160.8480  212.0990  147.0690 C   0  0  0  0  0  2  0  0  0  0  0  0
  159.8360  212.7570  153.8490 C   0  0  0  0  0  0  0  0  0  0  0  0
  162.4390  210.6690  148.3790 C   0  0  0  0  0  2  0  0  0  0  0  0
  159.7400  212.7470  152.3670 C   0  0  1  0  0  3  0  0  0  0  0  0
  161.4900  213.3690  149.5890 C   0  0  0  0  0  2  0  0  0  0  0  0
  160.7990  213.5980  147.2710 C   0  0  0  0  0  0  0  0  0  0  0  0
  160.3720  214.4400  146.1980 N   0  0  0  0  0  2  0  0  0  0  0  0
  161.1220  210.9180  153.3370 C   0  0  1  0  0  3  0  0  0  0  0  0
  161.0610  214.1380  148.4250 N   0  0  0  0  0  0  0  0  0  0  0  0
  159.0090  213.4190  154.5970 N   0  0  0  0  0  0  0  0  0  0  0  0
  160.5910  211.5380  152.0640 C   0  0  0  0  0  0  0  0  0  0  0  0
  162.1170  210.2720  150.7580 O   0  0  0  0  0  0  0  0  0  0  0  0
  158.2440  212.6650  152.0040 C   0  0  1  0  0  3  0  0  0  0  0  0
  157.4980  213.7430  152.7540 C   0  0  0  0  0  3  0  0  0  0  0  0
  161.1190  211.2560  150.8580 C   0  0  0  0  0  0  0  0  0  0  0  0
  160.7430  211.8420  154.3480 O   0  0  0  0  0  0  0  0  0  0  0  0
  162.4990  209.6690  149.5220 C   0  0  0  0  0  2  0  0  0  0  0  0
  157.8740  214.0680  153.9990 C   0  0  0  0  0  3  0  0  0  0  0  0
  160.7390  212.0450  149.6300 C   0  0  2  0  0  3  0  0  0  0  0  0
  161.0360  211.2630  148.3430 C   0  0  1  0  0  3  0  0  0  0  0  0
  158.0040  212.8650  150.5210 C   0  0  0  0  0  1  0  0  0  0  0  0
  160.4240  209.5880  153.6230 C   0  0  0  0  0  2  0  0  0  0  0  0
  161.3970  208.4540  153.8990 C   0  0  0  0  0  2  0  0  0  0  0  0
  161.0610  207.2450  153.0470 C   0  0  0  0  0  2  0  0  0  0  0  0
  162.3320  206.7100  152.4150 C   0  0  0  0  0  2  0  0  0  0  0  0
  162.1350  205.2520  152.0340 C   0  0  0  0  0  2  0  0  0  0  0  0
  161.0570  204.3730  148.7500 C   0  0  1  0  0  3  0  0  0  0  0  0
  161.1120  206.2430  150.0170 C   0  0  0  0  0  2  0  0  0  0  0  0
  161.0200  205.1170  151.0120 C   0  0  1  0  0  3  0  0  0  0  0  0
  161.2380  203.8960  150.1740 C   0  0  1  0  0  3  0  0  0  0  0  0
  159.9890  202.6360  150.5670 S   0  0  0  0  0  1  0  0  0  0  0  0
  160.7810  205.7530  148.7430 O   0  0  0  0  0  0  0  0  0  0  0  0
  162.3200  204.0860  147.9550 C   0  0  0  0  0  2  0  0  0  0  0  0
  160.3190  203.4910  144.8640 C   0  0  0  0  0  2  0  0  0  0  0  0
  161.7990  205.4940  146.1880 C   0  0  0  0  0  2  0  0  0  0  0  0
  161.3240  205.6210  144.7440 C   0  0  0  0  0  2  0  0  0  0  0  0
  160.0670  204.9000  144.5890 N   0  0  0  0  0  2  0  0  0  0  0  0
  160.8020  203.3090  146.3050 C   0  0  2  0  0  3  0  0  0  0  0  0
  162.0330  204.0890  146.5280 N   0  0  0  0  0  0  0  0  0  0  0  0
  160.6400  201.1060  145.3880 O   0  0  0  0  0  1  0  0  0  0  0  0
  161.0630  201.8210  146.5050 C   0  0  0  0  0  2  0  0  0  0  0  0
  160.1000  213.9140  144.8750 C   0  0  0  0  0  2  0  0  0  0  0  0
  161.3530  214.0050  144.0240 C   0  0  0  0  0  2  0  0  0  0  0  0
  159.5520  213.6620  142.4080 N   0  0  0  0  0  1  0  0  0  0  0  0
  160.9920  213.8270  142.5580 C   0  0  2  0  0  3  0  0  0  0  0  0
  161.7510  212.6440  141.9570 C   0  0  2  0  0  3  0  0  0  0  0  0
  163.2270  214.4400  140.9780 N   0  0  0  0  0  1  0  0  0  0  0  0
  163.1530  212.3210  140.0380 O   0  0  0  0  0  0  0  0  0  0  0  0
  162.7460  213.1020  140.9370 C   0  0  0  0  0  0  0  0  0  0  0  0
  160.8730  211.6960  141.4060 O   0  0  0  0  0  0  0  0  0  0  0  0
  160.4670  212.2250  140.2650 O   0  0  0  0  0  0  0  0  0  0  0  0
  159.2900  211.5380  139.9500 C   0  0  0  0  0  2  0  0  0  0  0  0
  160.7870  210.3620  138.5910 C   0  0  0  0  0  2  0  0  0  0  0  0
  160.5620  209.5000  137.3770 C   0  0  0  0  0  2  0  0  0  0  0  0
  158.5230  209.7870  138.5880 C   0  0  0  0  0  2  0  0  0  0  0  0
  159.6220  210.2130  139.4500 N   0  0  0  0  0  0  0  0  0  0  0  0
  159.0710  209.5150  137.2020 C   0  0  0  0  0  2  0  0  0  0  0  0
  1  6  1  0  0  0  0
  2 16  1  0  0  0  0
  2 10  2  0  0  0  0
  3 17  1  0  0  0  0
  4 11  1  1  0  0  0
  4  2  1  0  0  0  0
  6  9  2  0  0  0  0
  7  6  1  0  0  0  0
  8 22  1  1  0  0  0
  8 16  1  0  0  0  0
  9  5  1  0  0  0  0
 11  8  1  0  0  0  0
 12 15  1  0  0  0  0
 13 21  1  6  0  0  0
 13  4  1  0  0  0  0
 13 14  1  0  0  0  0
 14 18  2  0  0  0  0
 15 11  2  0  0  0  0
 17 12  1  0  0  0  0
 18 10  1  0  0  0  0
 19  5  1  6  0  0  0
 19 15  1  0  0  0  0
 20  1  1  6  0  0  0
 20  3  1  0  0  0  0
 20 19  1  0  0  0  0
 22 23  1  0  0  0  0
 24 23  1  0  0  0  0
 25 24  1  0  0  0  0
 26 25  1  0  0  0  0
 27 33  1  6  0  0  0
 27 30  1  0  0  0  0
 28 29  1  0  0  0  0
 29 26  1  1  0  0  0
 30 31  1  1  0  0  0
 30 29  1  0  0  0  0
 32 27  1  0  0  0  0
 32 28  1  0  0  0  0
 34 38  1  0  0  0  0
 35 39  1  0  0  0  0
 36 35  1  0  0  0  0
 37 36  1  0  0  0  0
 37 34  1  0  0  0  0
 38 41  1  6  0  0  0
 38 39  1  0  0  0  0
 39 33  1  0  0  0  0
 40 41  1  0  0  0  0
 42  7  1  0  0  0  0
 43 42  1  0  0  0  0
 45 44  1  1  0  0  0
 45 43  1  0  0  0  0
 46 49  1  6  0  0  0
 46 45  1  0  0  0  0
 48 49  2  0  0  0  0
 49 47  1  0  0  0  0
 50 46  1  0  0  0  0
 51 50  1  0  0  0  0
 52 51  1  0  0  0  0
 53 56  1  0  0  0  0
 54 53  1  0  0  0  0
 55 56  1  0  0  0  0
 56 52  1  0  0  0  0
 57 54  1  0  0  0  0
 57 55  1  0  0  0  0
M  END
>  <MODEL>
4

>  <REMARK>
 VINA RESULT:      -4.5      3.335     11.164
  Name = 
  18 active torsions:
  status: ('A' for Active; 'I' for Inactive)
    1  A    between atoms: C_6  and  C_28
    2  A    between atoms: C_10  and  C_14
    3  A    between atoms: C_10  and  C_24
    4  A    between atoms: C_12  and  C_18
    5  A    between atoms: C_12  and  C_20
    6  A    between atoms: C_14  and  C_53
    7  A    between atoms: O_15  and  O_19
    8  A    between atoms: O_15  and  C_23
    9  A    between atoms: C_18  and  C_23
   10  A    between atoms: O_19  and  C_42
   11  A    between atoms: C_20  and  N_30
   12  A    between atoms: C_22  and  C_57
   13  A    between atoms: C_23  and  C_56
   14  A    between atoms: C_24  and  C_57
   15  A    between atoms: C_28  and  N_38
   16  A    between atoms: C_31  and  C_53
   17  A    between atoms: C_35  and  C_41
   18  A    between atoms: C_42  and  N_49
                            x       y       z     vdW  Elec       q    Type
                         _______ _______ _______ _____ _____    ______ ____

>  <TORSDO>
F 18

$$$$
=
 OpenBabel11052410173D

 57 63  0  0  1  0  0  0  0  0999 V2000
  162.2780  206.5690  145.2010 C   0  0  0  0  0  2  0  0  0  0  0  0
  160.1190  202.6220  150.4160 C   0  0  0  0  0  0  0  0  0  0  0  0
  161.8940  207.9200  147.2800 C   0  0  0  0  0  2  0  0  0  0  0  0
  160.6870  203.1750  149.1600 C   0  0  1  0  0  3  0  0  0  0  0  0
  160.1190  205.4240  146.7540 C   0  0  0  0  0  2  0  0  0  0  0  0
  161.1610  205.7540  144.5840 C   0  0  0  0  0  0  0  0  0  0  0  0
  161.1800  205.4840  143.1810 N   0  0  0  0  0  2  0  0  0  0  0  0
  160.8330  204.6910  151.1300 C   0  0  1  0  0  3  0  0  0  0  0  0
  160.2230  205.2240  145.3110 N   0  0  0  0  0  0  0  0  0  0  0  0
  159.8920  201.3560  150.5800 N   0  0  0  0  0  0  0  0  0  0  0  0
  161.1420  204.5260  149.6580 C   0  0  0  0  0  0  0  0  0  0  0  0
  161.5680  206.8510  149.4410 O   0  0  0  0  0  0  0  0  0  0  0  0
  161.7770  202.1980  148.6790 C   0  0  1  0  0  3  0  0  0  0  0  0
  161.2020  200.8020  148.6400 C   0  0  0  0  0  3  0  0  0  0  0  0
  161.4340  205.5750  148.8670 C   0  0  0  0  0  0  0  0  0  0  0  0
  160.0570  203.5430  151.4430 O   0  0  0  0  0  0  0  0  0  0  0  0
  162.1890  207.9470  148.7700 C   0  0  0  0  0  2  0  0  0  0  0  0
  160.3170  200.4220  149.5730 C   0  0  0  0  0  3  0  0  0  0  0  0
  161.5130  205.4310  147.3680 C   0  0  2  0  0  3  0  0  0  0  0  0
  162.3320  206.5660  146.7360 C   0  0  1  0  0  3  0  0  0  0  0  0
  162.2830  202.5420  147.2930 C   0  0  0  0  0  1  0  0  0  0  0  0
  162.1160  204.6390  151.9610 C   0  0  0  0  0  2  0  0  0  0  0  0
  162.2350  205.7940  152.9410 C   0  0  0  0  0  2  0  0  0  0  0  0
  160.8640  206.2350  153.4140 C   0  0  0  0  0  2  0  0  0  0  0  0
  160.8880  207.7260  153.6960 C   0  0  0  0  0  2  0  0  0  0  0  0
  160.9810  207.9580  155.1940 C   0  0  0  0  0  2  0  0  0  0  0  0
  160.0560  211.3650  154.6870 C   0  0  1  0  0  3  0  0  0  0  0  0
  161.8810  210.0850  154.3220 C   0  0  0  0  0  2  0  0  0  0  0  0
  161.1920  209.4330  155.4900 C   0  0  1  0  0  3  0  0  0  0  0  0
  159.8730  210.1370  155.5510 C   0  0  1  0  0  3  0  0  0  0  0  0
  159.5070  210.6340  157.2600 S   0  0  0  0  0  1  0  0  0  0  0  0
  161.3540  211.3750  154.1440 O   0  0  0  0  0  0  0  0  0  0  0  0
  159.0210  211.3580  153.5730 C   0  0  0  0  0  2  0  0  0  0  0  0
  157.6220  214.2000  151.6030 C   0  0  0  0  0  2  0  0  0  0  0  0
  157.1910  212.7280  153.9700 C   0  0  0  0  0  2  0  0  0  0  0  0
  156.4780  214.0390  153.6590 C   0  0  0  0  0  2  0  0  0  0  0  0
  156.3000  214.1580  152.2180 N   0  0  0  0  0  2  0  0  0  0  0  0
  158.3820  212.9030  151.8880 C   0  0  2  0  0  3  0  0  0  0  0  0
  158.5150  212.7040  153.3430 N   0  0  0  0  0  0  0  0  0  0  0  0
  159.9850  214.3590  150.8740 O   0  0  0  0  0  1  0  0  0  0  0  0
  159.7520  213.0340  151.2350 C   0  0  0  0  0  2  0  0  0  0  0  0
  162.1720  206.0710  142.3010 C   0  0  0  0  0  2  0  0  0  0  0  0
  161.5350  206.3970  140.9630 C   0  0  0  0  0  2  0  0  0  0  0  0
  163.4560  207.9060  141.0300 N   0  0  0  0  0  1  0  0  0  0  0  0
  162.4630  207.2930  140.1590 C   0  0  2  0  0  3  0  0  0  0  0  0
  161.6620  208.3520  139.3980 C   0  0  2  0  0  3  0  0  0  0  0  0
  162.1750  207.0850  137.2790 N   0  0  0  0  0  1  0  0  0  0  0  0
  160.1220  208.1230  137.5750 O   0  0  0  0  0  0  0  0  0  0  0  0
  161.2590  207.8560  138.0460 C   0  0  0  0  0  0  0  0  0  0  0  0
  162.3750  209.5580  139.2960 O   0  0  0  0  0  0  0  0  0  0  0  0
  161.6760  210.4320  139.9970 O   0  0  0  0  0  0  0  0  0  0  0  0
  162.5660  211.4800  140.2550 C   0  0  0  0  0  2  0  0  0  0  0  0
  162.3410  212.2650  142.4470 C   0  0  0  0  0  2  0  0  0  0  0  0
  161.1310  212.4150  143.3300 C   0  0  0  0  0  2  0  0  0  0  0  0
  160.4750  212.1980  141.0430 C   0  0  0  0  0  2  0  0  0  0  0  0
  161.9070  212.4840  141.0760 N   0  0  0  0  0  0  0  0  0  0  0  0
  159.9970  211.9550  142.4610 C   0  0  0  0  0  2  0  0  0  0  0  0
  2 10  2  0  0  0  0
  2 16  1  0  0  0  0
  3 17  1  0  0  0  0
  4 11  1  1  0  0  0
  4  2  1  0  0  0  0
  6  1  1  0  0  0  0
  6  9  2  0  0  0  0
  7  6  1  0  0  0  0
  8 16  1  0  0  0  0
  8 22  1  1  0  0  0
  9  5  1  0  0  0  0
 11  8  1  0  0  0  0
 13 21  1  6  0  0  0
 13  4  1  0  0  0  0
 14 13  1  0  0  0  0
 14 18  2  0  0  0  0
 15 12  1  0  0  0  0
 15 11  2  0  0  0  0
 17 12  1  0  0  0  0
 18 10  1  0  0  0  0
 19  5  1  6  0  0  0
 19 15  1  0  0  0  0
 20  1  1  6  0  0  0
 20  3  1  0  0  0  0
 20 19  1  0  0  0  0
 22 23  1  0  0  0  0
 23 24  1  0  0  0  0
 24 25  1  0  0  0  0
 25 26  1  0  0  0  0
 27 33  1  6  0  0  0
 27 30  1  0  0  0  0
 28 29  1  0  0  0  0
 29 26  1  6  0  0  0
 29 30  1  0  0  0  0
 30 31  1  1  0  0  0
 32 28  1  0  0  0  0
 32 27  1  0  0  0  0
 34 38  1  0  0  0  0
 34 37  1  0  0  0  0
 36 35  1  0  0  0  0
 37 36  1  0  0  0  0
 38 41  1  6  0  0  0
 38 39  1  0  0  0  0
 39 33  1  0  0  0  0
 39 35  1  0  0  0  0
 40 41  1  0  0  0  0
 42  7  1  0  0  0  0
 43 42  1  0  0  0  0
 45 43  1  0  0  0  0
 45 44  1  1  0  0  0
 46 49  1  6  0  0  0
 46 45  1  0  0  0  0
 47 49  1  0  0  0  0
 48 49  2  0  0  0  0
 50 46  1  0  0  0  0
 50 51  1  0  0  0  0
 51 52  1  0  0  0  0
 52 56  1  0  0  0  0
 53 54  1  0  0  0  0
 55 56  1  0  0  0  0
 55 57  1  0  0  0  0
 56 53  1  0  0  0  0
 57 54  1  0  0  0  0
M  END
>  <MODEL>
5

>  <REMARK>
 VINA RESULT:      -4.1      3.382     11.836
  Name = 
  18 active torsions:
  status: ('A' for Active; 'I' for Inactive)
    1  A    between atoms: C_6  and  C_28
    2  A    between atoms: C_10  and  C_14
    3  A    between atoms: C_10  and  C_24
    4  A    between atoms: C_12  and  C_18
    5  A    between atoms: C_12  and  C_20
    6  A    between atoms: C_14  and  C_53
    7  A    between atoms: O_15  and  O_19
    8  A    between atoms: O_15  and  C_23
    9  A    between atoms: C_18  and  C_23
   10  A    between atoms: O_19  and  C_42
   11  A    between atoms: C_20  and  N_30
   12  A    between atoms: C_22  and  C_57
   13  A    between atoms: C_23  and  C_56
   14  A    between atoms: C_24  and  C_57
   15  A    between atoms: C_28  and  N_38
   16  A    between atoms: C_31  and  C_53
   17  A    between atoms: C_35  and  C_41
   18  A    between atoms: C_42  and  N_49
                            x       y       z     vdW  Elec       q    Type
                         _______ _______ _______ _____ _____    ______ ____

>  <TORSDO>
F 18

$$$$
=
 OpenBabel11052410173D

 57 63  0  0  1  0  0  0  0  0999 V2000
  161.0880  204.3740  144.7970 C   0  0  0  0  0  2  0  0  0  0  0  0
  162.5780  206.6640  151.1190 C   0  0  0  0  0  0  0  0  0  0  0  0
  161.1990  202.4940  146.4540 C   0  0  0  0  0  2  0  0  0  0  0  0
  162.1730  206.4960  149.7000 C   0  0  1  0  0  3  0  0  0  0  0  0
  163.0350  204.9680  146.8560 C   0  0  0  0  0  2  0  0  0  0  0  0
  162.2770  205.2820  144.5690 C   0  0  0  0  0  0  0  0  0  0  0  0
  162.4380  205.9260  143.3030 N   0  0  0  0  0  2  0  0  0  0  0  0
  161.7720  204.5080  151.1430 C   0  0  1  0  0  3  0  0  0  0  0  0
  163.1170  205.5580  145.5220 N   0  0  0  0  0  0  0  0  0  0  0  0
  162.7880  207.8280  151.6520 N   0  0  0  0  0  0  0  0  0  0  0  0
  161.6540  205.0800  149.7480 C   0  0  0  0  0  0  0  0  0  0  0  0
  161.2500  202.9200  148.8490 O   0  0  0  0  0  0  0  0  0  0  0  0
  161.1570  207.6090  149.3780 C   0  0  1  0  0  3  0  0  0  0  0  0
  161.7380  208.9390  149.7950 C   0  0  0  0  0  3  0  0  0  0  0  0
  161.4620  204.2980  148.6700 C   0  0  0  0  0  0  0  0  0  0  0  0
  162.5070  205.4960  151.8530 O   0  0  0  0  0  0  0  0  0  0  0  0
  160.7160  202.0720  147.8320 C   0  0  0  0  0  2  0  0  0  0  0  0
  162.4970  209.0160  150.8970 C   0  0  0  0  0  3  0  0  0  0  0  0
  161.5740  204.8480  147.2700 C   0  0  2  0  0  3  0  0  0  0  0  0
  160.8390  203.9610  146.2550 C   0  0  1  0  0  3  0  0  0  0  0  0
  160.8310  207.6760  147.9000 C   0  0  0  0  0  1  0  0  0  0  0  0
  160.3940  204.3810  151.7940 C   0  0  0  0  0  2  0  0  0  0  0  0
  160.3970  204.7520  153.2680 C   0  0  0  0  0  2  0  0  0  0  0  0
  160.5730  206.2480  153.4400 C   0  0  0  0  0  2  0  0  0  0  0  0
  160.5740  206.5850  154.9190 C   0  0  0  0  0  2  0  0  0  0  0  0
  159.9320  207.9460  155.1310 C   0  0  0  0  0  2  0  0  0  0  0  0
  160.8010  211.4040  155.1500 C   0  0  1  0  0  3  0  0  0  0  0  0
  160.4030  209.8170  153.5920 C   0  0  0  0  0  2  0  0  0  0  0  0
  160.9110  209.0540  154.7850 C   0  0  1  0  0  3  0  0  0  0  0  0
  160.9260  210.0820  155.8730 C   0  0  1  0  0  3  0  0  0  0  0  0
  162.5040  210.0180  156.7730 S   0  0  0  0  0  1  0  0  0  0  0  0
  160.6960  211.1810  153.7650 O   0  0  0  0  0  0  0  0  0  0  0  0
  159.5730  212.1440  155.6570 C   0  0  0  0  0  2  0  0  0  0  0  0
  156.3720  213.0770  153.9840 C   0  0  0  0  0  2  0  0  0  0  0  0
  159.0750  213.8600  154.1780 C   0  0  0  0  0  2  0  0  0  0  0  0
  158.1180  214.4120  153.1270 C   0  0  0  0  0  2  0  0  0  0  0  0
  156.7700  214.4470  153.6790 N   0  0  0  0  0  2  0  0  0  0  0  0
  157.3060  212.4750  155.0360 C   0  0  2  0  0  3  0  0  0  0  0  0
  158.6980  212.4940  154.5480 N   0  0  0  0  0  0  0  0  0  0  0  0
  155.5680  211.0470  155.8470 O   0  0  0  0  0  1  0  0  0  0  0  0
  156.8410  211.0460  155.2820 C   0  0  0  0  0  2  0  0  0  0  0  0
  161.5650  205.6390  142.1820 C   0  0  0  0  0  2  0  0  0  0  0  0
  161.2350  206.9290  141.4520 C   0  0  0  0  0  2  0  0  0  0  0  0
  163.3470  206.7020  140.2440 N   0  0  0  0  0  1  0  0  0  0  0  0
  161.9180  206.9380  140.0940 C   0  0  2  0  0  3  0  0  0  0  0  0
  161.6460  208.2540  139.3640 C   0  0  2  0  0  3  0  0  0  0  0  0
  162.1980  209.2540  137.1160 N   0  0  0  0  0  1  0  0  0  0  0  0
  161.7410  206.9900  137.3290 O   0  0  0  0  0  0  0  0  0  0  0  0
  161.8630  208.1100  137.8910 C   0  0  0  0  0  0  0  0  0  0  0  0
  162.4270  209.3000  139.8840 O   0  0  0  0  0  0  0  0  0  0  0  0
  161.5590  210.1830  140.3430 O   0  0  0  0  0  0  0  0  0  0  0  0
  162.2820  211.3760  140.4490 C   0  0  0  0  0  2  0  0  0  0  0  0
  162.3090  213.0690  142.0630 C   0  0  0  0  0  2  0  0  0  0  0  0
  161.5020  213.2590  143.3200 C   0  0  0  0  0  2  0  0  0  0  0  0
  160.4420  211.6780  141.8750 C   0  0  0  0  0  2  0  0  0  0  0  0
  161.4600  212.3830  141.1010 N   0  0  0  0  0  0  0  0  0  0  0  0
  160.5800  212.0740  143.3310 C   0  0  0  0  0  2  0  0  0  0  0  0
  2 10  2  0  0  0  0
  2 16  1  0  0  0  0
  3 17  1  0  0  0  0
  4 11  1  1  0  0  0
  4  2  1  0  0  0  0
  6  1  1  0  0  0  0
  6  9  2  0  0  0  0
  7  6  1  0  0  0  0
  8 22  1  1  0  0  0
  8 16  1  0  0  0  0
  9  5  1  0  0  0  0
 11  8  1  0  0  0  0
 13 21  1  6  0  0  0
 13  4  1  0  0  0  0
 13 14  1  0  0  0  0
 14 18  2  0  0  0  0
 15 12  1  0  0  0  0
 15 11  2  0  0  0  0
 17 12  1  0  0  0  0
 18 10  1  0  0  0  0
 19  5  1  6  0  0  0
 19 15  1  0  0  0  0
 20  1  1  6  0  0  0
 20  3  1  0  0  0  0
 20 19  1  0  0  0  0
 22 23  1  0  0  0  0
 23 24  1  0  0  0  0
 24 25  1  0  0  0  0
 25 26  1  0  0  0  0
 27 33  1  1  0  0  0
 27 30  1  0  0  0  0
 28 32  1  0  0  0  0
 28 29  1  0  0  0  0
 29 26  1  1  0  0  0
 29 30  1  0  0  0  0
 30 31  1  6  0  0  0
 32 27  1  0  0  0  0
 34 38  1  0  0  0  0
 35 39  1  0  0  0  0
 36 37  1  0  0  0  0
 36 35  1  0  0  0  0
 37 34  1  0  0  0  0
 38 41  1  6  0  0  0
 39 38  1  0  0  0  0
 39 33  1  0  0  0  0
 41 40  1  0  0  0  0
 42  7  1  0  0  0  0
 43 42  1  0  0  0  0
 45 44  1  1  0  0  0
 45 43  1  0  0  0  0
 46 49  1  6  0  0  0
 46 50  1  0  0  0  0
 46 45  1  0  0  0  0
 47 49  1  0  0  0  0
 48 49  2  0  0  0  0
 50 51  1  0  0  0  0
 51 52  1  0  0  0  0
 52 56  1  0  0  0  0
 53 54  1  0  0  0  0
 54 57  1  0  0  0  0
 55 57  1  0  0  0  0
 56 55  1  0  0  0  0
 56 53  1  0  0  0  0
M  END
>  <MODEL>
6

>  <REMARK>
 VINA RESULT:      -4.0      3.332     12.519
  Name = 
  18 active torsions:
  status: ('A' for Active; 'I' for Inactive)
    1  A    between atoms: C_6  and  C_28
    2  A    between atoms: C_10  and  C_14
    3  A    between atoms: C_10  and  C_24
    4  A    between atoms: C_12  and  C_18
    5  A    between atoms: C_12  and  C_20
    6  A    between atoms: C_14  and  C_53
    7  A    between atoms: O_15  and  O_19
    8  A    between atoms: O_15  and  C_23
    9  A    between atoms: C_18  and  C_23
   10  A    between atoms: O_19  and  C_42
   11  A    between atoms: C_20  and  N_30
   12  A    between atoms: C_22  and  C_57
   13  A    between atoms: C_23  and  C_56
   14  A    between atoms: C_24  and  C_57
   15  A    between atoms: C_28  and  N_38
   16  A    between atoms: C_31  and  C_53
   17  A    between atoms: C_35  and  C_41
   18  A    between atoms: C_42  and  N_49
                            x       y       z     vdW  Elec       q    Type
                         _______ _______ _______ _____ _____    ______ ____

>  <TORSDO>
F 18

$$$$
=
 OpenBabel11052410173D

 57 63  0  0  1  0  0  0  0  0999 V2000
  162.2930  206.6050  145.1320 C   0  0  0  0  0  2  0  0  0  0  0  0
  160.1310  202.6140  150.3120 C   0  0  0  0  0  0  0  0  0  0  0  0
  161.9190  207.9360  147.2250 C   0  0  0  0  0  2  0  0  0  0  0  0
  160.6980  203.1780  149.0600 C   0  0  1  0  0  3  0  0  0  0  0  0
  160.1340  205.4530  146.6780 C   0  0  0  0  0  2  0  0  0  0  0  0
  161.1720  205.8000  144.5100 C   0  0  0  0  0  0  0  0  0  0  0  0
  161.1860  205.5440  143.1030 N   0  0  0  0  0  2  0  0  0  0  0  0
  160.8550  204.6720  151.0440 C   0  0  1  0  0  3  0  0  0  0  0  0
  160.2330  205.2660  145.2330 N   0  0  0  0  0  0  0  0  0  0  0  0
  159.8990  201.3470  150.4640 N   0  0  0  0  0  0  0  0  0  0  0  0
  161.1590  204.5210  149.5710 C   0  0  0  0  0  0  0  0  0  0  0  0
  161.5950  206.8460  149.3760 O   0  0  0  0  0  0  0  0  0  0  0  0
  161.7830  202.2000  148.5670 C   0  0  1  0  0  3  0  0  0  0  0  0
  161.2020  200.8070  148.5160 C   0  0  0  0  0  3  0  0  0  0  0  0
  161.4530  205.5770  148.7900 C   0  0  0  0  0  0  0  0  0  0  0  0
  160.0740  203.5240  151.3490 O   0  0  0  0  0  0  0  0  0  0  0  0
  162.2180  207.9470  148.7150 C   0  0  0  0  0  2  0  0  0  0  0  0
  160.3180  200.4220  149.4460 C   0  0  0  0  0  3  0  0  0  0  0  0
  161.5290  205.4480  147.2890 C   0  0  2  0  0  3  0  0  0  0  0  0
  162.3510  206.5860  146.6660 C   0  0  1  0  0  3  0  0  0  0  0  0
  162.2870  202.5560  147.1830 C   0  0  0  0  0  1  0  0  0  0  0  0
  162.1390  204.6070  151.8720 C   0  0  0  0  0  2  0  0  0  0  0  0
  162.3960  205.8740  152.6710 C   0  0  0  0  0  2  0  0  0  0  0  0
  161.3040  206.0830  153.7030 C   0  0  0  0  0  2  0  0  0  0  0  0
  160.8120  207.5160  153.6260 C   0  0  0  0  0  2  0  0  0  0  0  0
  160.9300  208.1670  154.9940 C   0  0  0  0  0  2  0  0  0  0  0  0
  159.8430  211.5410  154.6060 C   0  0  1  0  0  3  0  0  0  0  0  0
  161.0720  210.0630  153.4190 C   0  0  0  0  0  2  0  0  0  0  0  0
  161.2590  209.6440  154.8520 C   0  0  1  0  0  3  0  0  0  0  0  0
  160.2490  210.4660  155.5890 C   0  0  1  0  0  3  0  0  0  0  0  0
  161.0100  211.2250  157.0550 S   0  0  0  0  0  1  0  0  0  0  0  0
  160.5290  211.3590  153.3910 O   0  0  0  0  0  0  0  0  0  0  0  0
  158.3420  211.4760  154.3760 C   0  0  0  0  0  2  0  0  0  0  0  0
  155.5750  213.8050  155.2920 C   0  0  0  0  0  2  0  0  0  0  0  0
  157.2960  211.8680  156.4090 C   0  0  0  0  0  2  0  0  0  0  0  0
  156.4310  212.8020  157.2490 C   0  0  0  0  0  2  0  0  0  0  0  0
  155.2060  213.1060  156.5180 N   0  0  0  0  0  2  0  0  0  0  0  0
  156.4490  212.9080  154.4120 C   0  0  2  0  0  3  0  0  0  0  0  0
  157.6650  212.5110  155.1460 N   0  0  0  0  0  0  0  0  0  0  0  0
  155.6600  214.2700  152.6120 O   0  0  0  0  0  1  0  0  0  0  0  0
  156.8080  213.7130  153.1700 C   0  0  0  0  0  2  0  0  0  0  0  0
  162.1780  206.1360  142.2270 C   0  0  0  0  0  2  0  0  0  0  0  0
  161.6700  206.1160  140.7970 C   0  0  0  0  0  2  0  0  0  0  0  0
  163.2380  207.9910  140.8260 N   0  0  0  0  0  1  0  0  0  0  0  0
  162.4440  207.1250  139.9640 C   0  0  2  0  0  3  0  0  0  0  0  0
  161.4940  207.9380  139.0840 C   0  0  2  0  0  3  0  0  0  0  0  0
  162.4310  206.7760  137.0510 N   0  0  0  0  0  1  0  0  0  0  0  0
  161.9760  209.0500  137.0150 O   0  0  0  0  0  0  0  0  0  0  0  0
  161.9690  207.9720  137.6650 C   0  0  0  0  0  0  0  0  0  0  0  0
  161.3190  209.2390  139.5830 O   0  0  0  0  0  0  0  0  0  0  0  0
  160.0280  209.4870  139.4510 O   0  0  0  0  0  0  0  0  0  0  0  0
  159.9590  210.8230  139.0420 C   0  0  0  0  0  2  0  0  0  0  0  0
  157.7620  210.1730  139.5110 C   0  0  0  0  0  2  0  0  0  0  0  0
  156.5900  209.8990  138.6050 C   0  0  0  0  0  2  0  0  0  0  0  0
  158.2650  211.1530  137.4520 C   0  0  0  0  0  2  0  0  0  0  0  0
  158.5660  211.2080  138.8790 N   0  0  0  0  0  0  0  0  0  0  0  0
  157.1330  210.1700  137.2320 C   0  0  0  0  0  2  0  0  0  0  0  0
  2 10  2  0  0  0  0
  2 16  1  0  0  0  0
  3 17  1  0  0  0  0
  4 11  1  1  0  0  0
  4  2  1  0  0  0  0
  6  1  1  0  0  0  0
  6  9  2  0  0  0  0
  7  6  1  0  0  0  0
  8 16  1  0  0  0  0
  8 22  1  1  0  0  0
  9  5  1  0  0  0  0
 11  8  1  0  0  0  0
 13 21  1  6  0  0  0
 13  4  1  0  0  0  0
 14 13  1  0  0  0  0
 14 18  2  0  0  0  0
 15 12  1  0  0  0  0
 15 11  2  0  0  0  0
 17 12  1  0  0  0  0
 18 10  1  0  0  0  0
 19  5  1  6  0  0  0
 19 15  1  0  0  0  0
 20  1  1  6  0  0  0
 20  3  1  0  0  0  0
 20 19  1  0  0  0  0
 22 23  1  0  0  0  0
 23 24  1  0  0  0  0
 25 24  1  0  0  0  0
 25 26  1  0  0  0  0
 27 33  1  6  0  0  0
 27 30  1  0  0  0  0
 28 29  1  0  0  0  0
 29 26  1  6  0  0  0
 29 30  1  0  0  0  0
 30 31  1  1  0  0  0
 32 28  1  0  0  0  0
 32 27  1  0  0  0  0
 33 39  1  0  0  0  0
 34 37  1  0  0  0  0
 35 36  1  0  0  0  0
 37 36  1  0  0  0  0
 38 41  1  6  0  0  0
 38 39  1  0  0  0  0
 38 34  1  0  0  0  0
 39 35  1  0  0  0  0
 40 41  1  0  0  0  0
 42  7  1  0  0  0  0
 43 42  1  0  0  0  0
 45 43  1  0  0  0  0
 45 44  1  1  0  0  0
 46 49  1  6  0  0  0
 46 50  1  0  0  0  0
 46 45  1  0  0  0  0
 47 49  1  0  0  0  0
 48 49  2  0  0  0  0
 51 50  1  0  0  0  0
 52 51  1  0  0  0  0
 54 53  1  0  0  0  0
 55 56  1  0  0  0  0
 56 52  1  0  0  0  0
 56 53  1  0  0  0  0
 57 55  1  0  0  0  0
 57 54  1  0  0  0  0
M  END
>  <MODEL>
7

>  <REMARK>
 VINA RESULT:      -3.5      3.168     12.708
  Name = 
  18 active torsions:
  status: ('A' for Active; 'I' for Inactive)
    1  A    between atoms: C_6  and  C_28
    2  A    between atoms: C_10  and  C_14
    3  A    between atoms: C_10  and  C_24
    4  A    between atoms: C_12  and  C_18
    5  A    between atoms: C_12  and  C_20
    6  A    between atoms: C_14  and  C_53
    7  A    between atoms: O_15  and  O_19
    8  A    between atoms: O_15  and  C_23
    9  A    between atoms: C_18  and  C_23
   10  A    between atoms: O_19  and  C_42
   11  A    between atoms: C_20  and  N_30
   12  A    between atoms: C_22  and  C_57
   13  A    between atoms: C_23  and  C_56
   14  A    between atoms: C_24  and  C_57
   15  A    between atoms: C_28  and  N_38
   16  A    between atoms: C_31  and  C_53
   17  A    between atoms: C_35  and  C_41
   18  A    between atoms: C_42  and  N_49
                            x       y       z     vdW  Elec       q    Type
                         _______ _______ _______ _____ _____    ______ ____

>  <TORSDO>
F 18

$$$$
=
 OpenBabel11052410173D

 57 63  0  0  1  0  0  0  0  0999 V2000
  161.1780  211.0380  148.6680 C   0  0  0  0  0  2  0  0  0  0  0  0
  158.7160  213.2190  154.7180 C   0  0  0  0  0  0  0  0  0  0  0  0
  162.4330  210.0270  150.5900 C   0  0  0  0  0  2  0  0  0  0  0  0
  158.9460  212.8590  153.2960 C   0  0  1  0  0  3  0  0  0  0  0  0
  161.2650  212.8900  150.8900 C   0  0  0  0  0  2  0  0  0  0  0  0
  161.0980  212.5390  148.4920 C   0  0  0  0  0  0  0  0  0  0  0  0
  160.9230  213.0860  147.1830 N   0  0  0  0  0  2  0  0  0  0  0  0
  160.0690  211.3710  154.9460 C   0  0  1  0  0  3  0  0  0  0  0  0
  161.1060  213.3450  149.5120 N   0  0  0  0  0  0  0  0  0  0  0  0
  157.7510  214.0010  155.0930 N   0  0  0  0  0  0  0  0  0  0  0  0
  159.8330  211.6510  153.4790 C   0  0  0  0  0  0  0  0  0  0  0  0
  161.5960  210.1840  152.8700 O   0  0  0  0  0  0  0  0  0  0  0  0
  157.5650  212.6280  152.6520 C   0  0  1  0  0  3  0  0  0  0  0  0
  156.6810  213.8170  152.9460 C   0  0  0  0  0  3  0  0  0  0  0  0
  160.6090  211.1180  152.5160 C   0  0  0  0  0  0  0  0  0  0  0  0
  159.4850  212.4880  155.6020 O   0  0  0  0  0  0  0  0  0  0  0  0
  162.2340  209.3260  151.9230 C   0  0  0  0  0  2  0  0  0  0  0  0
  156.7800  214.4410  154.1280 C   0  0  0  0  0  3  0  0  0  0  0  0
  160.5120  211.5810  151.0830 C   0  0  2  0  0  3  0  0  0  0  0  0
  161.0770  210.5320  150.1140 C   0  0  1  0  0  3  0  0  0  0  0  0
  157.6560  212.4640  151.1480 C   0  0  0  0  0  1  0  0  0  0  0  0
  159.3140  210.1150  155.3850 C   0  0  0  0  0  2  0  0  0  0  0  0
  160.2320  209.0240  155.9100 C   0  0  0  0  0  2  0  0  0  0  0  0
  159.6590  207.6540  155.6060 C   0  0  0  0  0  2  0  0  0  0  0  0
  160.7660  206.7500  155.0970 C   0  0  0  0  0  2  0  0  0  0  0  0
  160.6450  206.5970  153.5900 C   0  0  0  0  0  2  0  0  0  0  0  0
  161.5490  204.3070  151.0110 C   0  0  1  0  0  3  0  0  0  0  0  0
  160.6780  204.1800  153.0910 C   0  0  0  0  0  2  0  0  0  0  0  0
  161.5010  205.4400  153.1040 C   0  0  1  0  0  3  0  0  0  0  0  0
  161.8560  205.6370  151.6630 C   0  0  1  0  0  3  0  0  0  0  0  0
  163.6270  206.0090  151.5010 S   0  0  0  0  0  1  0  0  0  0  0  0
  161.0360  203.4140  151.9690 O   0  0  0  0  0  0  0  0  0  0  0  0
  160.5400  204.5130  149.8920 C   0  0  0  0  0  2  0  0  0  0  0  0
  161.2750  205.0440  146.2740 C   0  0  0  0  0  2  0  0  0  0  0  0
  160.5960  206.4530  148.6210 C   0  0  0  0  0  2  0  0  0  0  0  0
  161.0670  207.1370  147.3420 C   0  0  0  0  0  2  0  0  0  0  0  0
  160.6350  206.3520  146.1930 N   0  0  0  0  0  2  0  0  0  0  0  0
  160.8350  204.3150  147.5450 C   0  0  2  0  0  3  0  0  0  0  0  0
  161.1840  205.1160  148.7330 N   0  0  0  0  0  0  0  0  0  0  0  0
  160.9440  202.0850  146.6920 O   0  0  0  0  0  1  0  0  0  0  0  0
  161.5600  202.9760  147.5670 C   0  0  0  0  0  2  0  0  0  0  0  0
  160.9420  212.2540  145.9970 C   0  0  0  0  0  2  0  0  0  0  0  0
  160.2960  212.9980  144.8430 C   0  0  0  0  0  2  0  0  0  0  0  0
  162.3770  214.1620  144.3060 N   0  0  0  0  0  1  0  0  0  0  0  0
  161.3370  213.2910  143.7750 C   0  0  2  0  0  3  0  0  0  0  0  0
  160.6800  213.9020  142.5360 C   0  0  2  0  0  3  0  0  0  0  0  0
  158.4720  213.2270  141.5210 N   0  0  0  0  0  1  0  0  0  0  0  0
  158.5620  214.2200  143.6160 O   0  0  0  0  0  0  0  0  0  0  0  0
  159.1890  213.7980  142.6090 C   0  0  0  0  0  0  0  0  0  0  0  0
  161.1650  213.3150  141.3560 O   0  0  0  0  0  0  0  0  0  0  0  0
  161.7020  212.1700  141.7370 O   0  0  0  0  0  0  0  0  0  0  0  0
  161.3800  211.2670  140.7180 C   0  0  0  0  0  2  0  0  0  0  0  0
  160.6020  211.4400  138.5190 C   0  0  0  0  0  2  0  0  0  0  0  0
  161.2560  211.1100  137.2030 C   0  0  0  0  0  2  0  0  0  0  0  0
  162.8970  211.3050  138.9270 C   0  0  0  0  0  2  0  0  0  0  0  0
  161.6510  211.8780  139.4260 N   0  0  0  0  0  0  0  0  0  0  0  0
  162.6240  210.6340  137.5960 C   0  0  0  0  0  2  0  0  0  0  0  0
  2 10  2  0  0  0  0
  2 16  1  0  0  0  0
  3 17  1  0  0  0  0
  4 11  1  1  0  0  0
  4  2  1  0  0  0  0
  6  1  1  0  0  0  0
  6  9  2  0  0  0  0
  7  6  1  0  0  0  0
  8 22  1  1  0  0  0
  8 16  1  0  0  0  0
  9  5  1  0  0  0  0
 11  8  1  0  0  0  0
 13 21  1  6  0  0  0
 13 14  1  0  0  0  0
 13  4  1  0  0  0  0
 14 18  2  0  0  0  0
 15 12  1  0  0  0  0
 15 11  2  0  0  0  0
 17 12  1  0  0  0  0
 18 10  1  0  0  0  0
 19  5  1  1  0  0  0
 19 15  1  0  0  0  0
 20  1  1  6  0  0  0
 20  3  1  0  0  0  0
 20 19  1  0  0  0  0
 22 23  1  0  0  0  0
 24 23  1  0  0  0  0
 25 24  1  0  0  0  0
 26 25  1  0  0  0  0
 27 33  1  6  0  0  0
 27 30  1  0  0  0  0
 27 32  1  0  0  0  0
 28 29  1  0  0  0  0
 29 26  1  6  0  0  0
 30 31  1  1  0  0  0
 30 29  1  0  0  0  0
 32 28  1  0  0  0  0
 34 38  1  0  0  0  0
 35 39  1  0  0  0  0
 36 35  1  0  0  0  0
 37 34  1  0  0  0  0
 37 36  1  0  0  0  0
 38 41  1  1  0  0  0
 38 39  1  0  0  0  0
 39 33  1  0  0  0  0
 40 41  1  0  0  0  0
 42  7  1  0  0  0  0
 43 42  1  0  0  0  0
 45 44  1  1  0  0  0
 45 43  1  0  0  0  0
 46 50  1  6  0  0  0
 46 49  1  0  0  0  0
 46 45  1  0  0  0  0
 47 49  1  0  0  0  0
 49 48  2  0  0  0  0
 50 51  1  0  0  0  0
 52 51  1  0  0  0  0
 53 56  1  0  0  0  0
 54 57  1  0  0  0  0
 54 53  1  0  0  0  0
 55 56  1  0  0  0  0
 56 52  1  0  0  0  0
 57 55  1  0  0  0  0
M  END
>  <MODEL>
8

>  <REMARK>
 VINA RESULT:      -3.4      3.478     11.399
  Name = 
  18 active torsions:
  status: ('A' for Active; 'I' for Inactive)
    1  A    between atoms: C_6  and  C_28
    2  A    between atoms: C_10  and  C_14
    3  A    between atoms: C_10  and  C_24
    4  A    between atoms: C_12  and  C_18
    5  A    between atoms: C_12  and  C_20
    6  A    between atoms: C_14  and  C_53
    7  A    between atoms: O_15  and  O_19
    8  A    between atoms: O_15  and  C_23
    9  A    between atoms: C_18  and  C_23
   10  A    between atoms: O_19  and  C_42
   11  A    between atoms: C_20  and  N_30
   12  A    between atoms: C_22  and  C_57
   13  A    between atoms: C_23  and  C_56
   14  A    between atoms: C_24  and  C_57
   15  A    between atoms: C_28  and  N_38
   16  A    between atoms: C_31  and  C_53
   17  A    between atoms: C_35  and  C_41
   18  A    between atoms: C_42  and  N_49
                            x       y       z     vdW  Elec       q    Type
                         _______ _______ _______ _____ _____    ______ ____

>  <TORSDO>
F 18

$$$$
=
 OpenBabel11052410173D

 57 63  0  0  1  0  0  0  0  0999 V2000
  161.0150  204.7180  144.1370 C   0  0  0  0  0  2  0  0  0  0  0  0
  162.4870  206.3310  150.6690 C   0  0  0  0  0  0  0  0  0  0  0  0
  161.0370  202.6840  145.6050 C   0  0  0  0  0  2  0  0  0  0  0  0
  162.0980  206.3160  149.2360 C   0  0  1  0  0  3  0  0  0  0  0  0
  162.9500  205.0410  146.2660 C   0  0  0  0  0  2  0  0  0  0  0  0
  162.2370  205.6020  144.0130 C   0  0  0  0  0  0  0  0  0  0  0  0
  162.4390  206.3590  142.8170 N   0  0  0  0  0  2  0  0  0  0  0  0
  161.6090  204.2130  150.4740 C   0  0  1  0  0  3  0  0  0  0  0  0
  163.0720  205.7550  144.9980 N   0  0  0  0  0  0  0  0  0  0  0  0
  162.7280  207.4300  151.3150 N   0  0  0  0  0  0  0  0  0  0  0  0
  161.5300  204.9210  149.1400 C   0  0  0  0  0  0  0  0  0  0  0  0
  161.0670  202.8740  148.0300 O   0  0  0  0  0  0  0  0  0  0  0  0
  161.1250  207.4900  149.0130 C   0  0  1  0  0  3  0  0  0  0  0  0
  161.7440  208.7520  149.5640 C   0  0  0  0  0  3  0  0  0  0  0  0
  161.3280  204.2540  147.9880 C   0  0  0  0  0  0  0  0  0  0  0  0
  162.3650  205.1010  151.2850 O   0  0  0  0  0  0  0  0  0  0  0  0
  160.5200  202.1480  146.9290 C   0  0  0  0  0  2  0  0  0  0  0  0
  162.4890  208.6950  150.6760 C   0  0  0  0  0  3  0  0  0  0  0  0
  161.4800  204.9330  146.6500 C   0  0  2  0  0  3  0  0  0  0  0  0
  160.7300  204.1750  145.5450 C   0  0  1  0  0  3  0  0  0  0  0  0
  160.8230  207.7110  147.5440 C   0  0  0  0  0  1  0  0  0  0  0  0
  160.2170  204.0710  151.0940 C   0  0  0  0  0  2  0  0  0  0  0  0
  160.2180  204.2530  152.6030 C   0  0  0  0  0  2  0  0  0  0  0  0
  161.4010  205.0950  153.0370 C   0  0  0  0  0  2  0  0  0  0  0  0
  160.9980  205.9490  154.2250 C   0  0  0  0  0  2  0  0  0  0  0  0
  160.3920  207.2510  153.7320 C   0  0  0  0  0  2  0  0  0  0  0  0
  160.1980  210.2220  155.6960 C   0  0  1  0  0  3  0  0  0  0  0  0
  160.8030  209.6810  153.5880 C   0  0  0  0  0  2  0  0  0  0  0  0
  161.0780  208.4380  154.3880 C   0  0  1  0  0  3  0  0  0  0  0  0
  160.4420  208.7290  155.7110 C   0  0  1  0  0  3  0  0  0  0  0  0
  161.5810  208.3030  157.0610 S   0  0  0  0  0  1  0  0  0  0  0  0
  160.6270  210.7610  154.4690 O   0  0  0  0  0  0  0  0  0  0  0  0
  158.7170  210.4950  155.9010 C   0  0  0  0  0  2  0  0  0  0  0  0
  156.5680  213.4730  155.2500 C   0  0  0  0  0  2  0  0  0  0  0  0
  159.1920  212.7630  156.0000 C   0  0  0  0  0  2  0  0  0  0  0  0
  158.7920  214.1770  155.5950 C   0  0  0  0  0  2  0  0  0  0  0  0
  157.4070  214.4130  155.9830 N   0  0  0  0  0  2  0  0  0  0  0  0
  156.9320  212.0340  155.6210 C   0  0  2  0  0  3  0  0  0  0  0  0
  158.3520  211.7780  155.3160 N   0  0  0  0  0  0  0  0  0  0  0  0
  155.1550  210.4350  155.6390 O   0  0  0  0  0  1  0  0  0  0  0  0
  156.0310  211.1190  154.8010 C   0  0  0  0  0  2  0  0  0  0  0  0
  161.5730  206.2140  141.6630 C   0  0  0  0  0  2  0  0  0  0  0  0
  161.4160  207.5570  140.9730 C   0  0  0  0  0  2  0  0  0  0  0  0
  162.4270  206.2690  139.1590 N   0  0  0  0  0  1  0  0  0  0  0  0
  161.5320  207.3760  139.4680 C   0  0  2  0  0  3  0  0  0  0  0  0
  162.0020  208.6710  138.8050 C   0  0  2  0  0  3  0  0  0  0  0  0
  160.8470  210.5530  140.0240 N   0  0  0  0  0  1  0  0  0  0  0  0
  163.0910  210.0980  140.3950 O   0  0  0  0  0  0  0  0  0  0  0  0
  162.0300  209.8010  139.7860 C   0  0  0  0  0  0  0  0  0  0  0  0
  161.2070  208.9960  137.6930 O   0  0  0  0  0  0  0  0  0  0  0  0
  159.9870  208.6080  138.0180 O   0  0  0  0  0  0  0  0  0  0  0  0
  159.1500  209.6290  137.5510 C   0  0  0  0  0  2  0  0  0  0  0  0
  157.0160  208.8110  137.0530 C   0  0  0  0  0  2  0  0  0  0  0  0
  155.6690  209.4840  137.0480 C   0  0  0  0  0  2  0  0  0  0  0  0
  157.2430  210.7710  138.3030 C   0  0  0  0  0  2  0  0  0  0  0  0
  157.8130  209.4430  138.0930 N   0  0  0  0  0  0  0  0  0  0  0  0
  155.9720  210.8870  137.4860 C   0  0  0  0  0  2  0  0  0  0  0  0
  2 16  1  0  0  0  0
  2 10  2  0  0  0  0
  3 17  1  0  0  0  0
  4 11  1  1  0  0  0
  4  2  1  0  0  0  0
  6  1  1  0  0  0  0
  6  9  2  0  0  0  0
  7  6  1  0  0  0  0
  8 22  1  1  0  0  0
  8 16  1  0  0  0  0
  9  5  1  0  0  0  0
 11  8  1  0  0  0  0
 13 21  1  6  0  0  0
 13  4  1  0  0  0  0
 13 14  1  0  0  0  0
 14 18  2  0  0  0  0
 15 12  1  0  0  0  0
 15 11  2  0  0  0  0
 17 12  1  0  0  0  0
 18 10  1  0  0  0  0
 19  5  1  6  0  0  0
 19 15  1  0  0  0  0
 20  1  1  6  0  0  0
 20  3  1  0  0  0  0
 20 19  1  0  0  0  0
 22 23  1  0  0  0  0
 23 24  1  0  0  0  0
 24 25  1  0  0  0  0
 26 25  1  0  0  0  0
 27 30  1  0  0  0  0
 27 33  1  6  0  0  0
 28 29  1  0  0  0  0
 28 32  1  0  0  0  0
 29 26  1  6  0  0  0
 29 30  1  0  0  0  0
 30 31  1  1  0  0  0
 32 27  1  0  0  0  0
 34 38  1  0  0  0  0
 34 37  1  0  0  0  0
 36 37  1  0  0  0  0
 36 35  1  0  0  0  0
 38 41  1  6  0  0  0
 39 38  1  0  0  0  0
 39 33  1  0  0  0  0
 39 35  1  0  0  0  0
 41 40  1  0  0  0  0
 42  7  1  0  0  0  0
 43 42  1  0  0  0  0
 45 44  1  1  0  0  0
 45 43  1  0  0  0  0
 46 50  1  6  0  0  0
 46 45  1  0  0  0  0
 46 49  1  0  0  0  0
 49 47  1  0  0  0  0
 49 48  2  0  0  0  0
 50 51  1  0  0  0  0
 52 51  1  0  0  0  0
 52 56  1  0  0  0  0
 53 56  1  0  0  0  0
 54 53  1  0  0  0  0
 54 57  1  0  0  0  0
 56 55  1  0  0  0  0
 57 55  1  0  0  0  0
M  END
>  <MODEL>
9

>  <REMARK>
 VINA RESULT:      -2.7      3.213     13.065
  Name = 
  18 active torsions:
  status: ('A' for Active; 'I' for Inactive)
    1  A    between atoms: C_6  and  C_28
    2  A    between atoms: C_10  and  C_14
    3  A    between atoms: C_10  and  C_24
    4  A    between atoms: C_12  and  C_18
    5  A    between atoms: C_12  and  C_20
    6  A    between atoms: C_14  and  C_53
    7  A    between atoms: O_15  and  O_19
    8  A    between atoms: O_15  and  C_23
    9  A    between atoms: C_18  and  C_23
   10  A    between atoms: O_19  and  C_42
   11  A    between atoms: C_20  and  N_30
   12  A    between atoms: C_22  and  C_57
   13  A    between atoms: C_23  and  C_56
   14  A    between atoms: C_24  and  C_57
   15  A    between atoms: C_28  and  N_38
   16  A    between atoms: C_31  and  C_53
   17  A    between atoms: C_35  and  C_41
   18  A    between atoms: C_42  and  N_49
                            x       y       z     vdW  Elec       q    Type
                         _______ _______ _______ _____ _____    ______ ____

>  <TORSDO>
F 18

$$$$
