=
 OpenBabel11052409323D

 44 47  0  0  1  0  0  0  0  0999 V2000
  161.8030  208.7800  148.2800 C   0  0  0  0  0  3  0  0  0  0  0  0
  161.6270  206.9550  150.4220 C   0  0  0  0  0  0  0  0  0  0  0  0
  161.5620  207.3350  147.8780 C   0  0  0  0  0  3  0  0  0  0  0  0
  161.8460  208.2380  150.6830 C   0  0  0  0  0  3  0  0  0  0  0  0
  161.4680  206.4520  149.0830 C   0  0  0  0  0  0  0  0  0  0  0  0
  161.9300  209.2020  149.5570 C   0  0  0  0  0  0  0  0  0  0  0  0
  161.2270  205.1510  149.1550 C   0  0  0  0  0  0  0  0  0  0  0  0
  161.2590  204.7380  150.5790 C   0  0  0  0  0  0  0  0  0  0  0  0
  161.4890  205.8270  151.3270 C   0  0  1  0  0  3  0  0  0  0  0  0
  161.0580  204.3120  148.0060 N   0  0  0  0  0  2  0  0  0  0  0  0
  161.9940  204.1800  146.9330 C   0  0  0  0  0  0  0  0  0  0  0  0
  163.1890  204.5640  147.0690 O   0  0  0  0  0  0  0  0  0  0  0  0
  161.0050  202.1140  145.9500 C   0  0  0  0  0  2  0  0  0  0  0  0
  159.7440  201.9790  145.1170 C   0  0  0  0  0  2  0  0  0  0  0  0
  160.4570  204.2760  144.9910 C   0  0  0  0  0  2  0  0  0  0  0  0
  161.5610  203.5010  145.6750 C   0  0  0  0  0  3  0  0  0  0  0  0
  159.6430  203.2310  144.2690 C   0  0  0  0  0  2  0  0  0  0  0  0
  160.4680  202.4840  150.4550 O   0  0  0  0  0  0  0  0  0  0  0  0
  161.1580  203.3490  151.0560 C   0  0  0  0  0  3  0  0  0  0  0  0
  161.6790  205.9140  153.1090 S   0  0  0  0  0  0  0  0  0  0  0  0
  160.6930  207.4390  153.2100 C   0  0  0  0  0  2  0  0  0  0  0  0
  161.0920  208.2340  154.4390 C   0  0  0  0  0  2  0  0  0  0  0  0
  160.2310  209.4780  154.5650 C   0  0  0  0  0  2  0  0  0  0  0  0
  161.9900  210.5210  153.3630 O   0  0  0  0  0  1  0  0  0  0  0  0
  160.5990  210.4790  153.4820 C   0  0  2  0  0  3  0  0  0  0  0  0
  160.1240  211.7500  153.8330 O   0  0  0  0  0  0  0  0  0  0  0  0
  158.7670  211.7710  153.4710 C   0  0  1  0  0  3  0  0  0  0  0  0
  157.9730  212.6020  154.4840 C   0  0  1  0  0  3  0  0  0  0  0  0
  156.8830  213.2210  153.8640 O   0  0  0  0  0  1  0  0  0  0  0  0
  157.6650  212.2510  157.0240 C   0  0  0  0  0  1  0  0  0  0  0  0
  157.4830  211.7670  155.6280 C   0  0  0  0  0  0  0  0  0  0  0  0
  156.9160  210.7040  155.4230 O   0  0  0  0  0  0  0  0  0  0  0  0
  158.6220  212.3980  152.0860 C   0  0  0  0  0  2  0  0  0  0  0  0
  159.6590  213.4850  151.8820 C   0  0  0  0  0  1  0  0  0  0  0  0
  162.1660  210.6000  149.7860 N   0  0  0  0  0  2  0  0  0  0  0  0
  160.7360  212.2800  148.7480 C   0  0  0  0  0  3  0  0  0  0  0  0
  161.9990  211.6900  148.8640 C   0  0  0  0  0  0  0  0  0  0  0  0
  160.5210  213.3510  147.8680 C   0  0  0  0  0  0  0  0  0  0  0  0
  162.8580  213.2580  147.2170 C   0  0  0  0  0  3  0  0  0  0  0  0
  161.5910  213.8350  147.1020 C   0  0  0  0  0  3  0  0  0  0  0  0
  163.0610  212.1910  148.0970 C   0  0  0  0  0  3  0  0  0  0  0  0
  158.4480  214.0820  148.7620 O   0  0  0  0  0  0  0  0  0  0  0  0
  159.1840  213.9610  147.7480 C   0  0  0  0  0  0  0  0  0  0  0  0
  158.7130  214.4220  146.4840 N   0  0  0  0  0  1  0  0  0  0  0  0
  1  6  1  0  0  0  0
  2  4  1  0  0  0  0
  2  9  1  0  0  0  0
  3  1  2  0  0  0  0
  3  5  1  0  0  0  0
  5  7  1  0  0  0  0
  5  2  2  0  0  0  0
  6 35  1  0  0  0  0
  6  4  2  0  0  0  0
  7  8  2  0  0  0  0
  8 19  1  0  0  0  0
  8  9  1  0  0  0  0
  9 20  1  6  0  0  0
 10  7  1  0  0  0  0
 11 12  2  0  0  0  0
 11 10  1  0  0  0  0
 14 13  1  0  0  0  0
 15 16  1  0  0  0  0
 16 13  1  0  0  0  0
 16 11  1  0  0  0  0
 17 15  1  0  0  0  0
 17 14  1  0  0  0  0
 18 19  2  0  0  0  0
 20 21  1  0  0  0  0
 21 22  1  0  0  0  0
 22 23  1  0  0  0  0
 25 24  1  1  0  0  0
 25 26  1  0  0  0  0
 25 23  1  0  0  0  0
 27 33  1  6  0  0  0
 27 26  1  0  0  0  0
 27 28  1  0  0  0  0
 28 29  1  6  0  0  0
 28 31  1  0  0  0  0
 31 30  1  0  0  0  0
 32 31  2  0  0  0  0
 34 33  1  0  0  0  0
 36 37  1  0  0  0  0
 37 35  1  0  0  0  0
 38 36  2  0  0  0  0
 39 41  1  0  0  0  0
 40 39  2  0  0  0  0
 40 38  1  0  0  0  0
 41 37  2  0  0  0  0
 43 38  1  0  0  0  0
 43 42  2  0  0  0  0
 44 43  1  0  0  0  0
M  END
>  <MODEL>
1

>  <REMARK>
 VINA RESULT:      -7.1      0.000      0.000
  Name = 
  16 active torsions:
  status: ('A' for Active; 'I' for Inactive)
    1  A    between atoms: N_4  and  C_36
    2  A    between atoms: C_5  and  C_14
    3  A    between atoms: C_5  and  C_23
    4  A    between atoms: C_6  and  N_7
    5  A    between atoms: N_7  and  C_35
    6  A    between atoms: C_8  and  C_29
    7  A    between atoms: C_9  and  C_38
    8  A    between atoms: C_14  and  C_16
    9  A    between atoms: C_14  and  O_31
   10  A    between atoms: C_15  and  C_22
   11  A    between atoms: C_15  and  C_40
   12  A    between atoms: C_17  and  S_18
   13  A    between atoms: C_17  and  C_22
   14  A    between atoms: S_18  and  C_39
   15  A    between atoms: C_21  and  C_37
   16  A    between atoms: O_31  and  C_40
                            x       y       z     vdW  Elec       q    Type
                         _______ _______ _______ _____ _____    ______ ____

>  <TORSDO>
F 16

$$$$
=
 OpenBabel11052409323D

 44 47  0  0  1  0  0  0  0  0999 V2000
  160.9090  213.2300  149.5790 C   0  0  0  0  0  3  0  0  0  0  0  0
  161.6810  210.5850  150.1710 C   0  0  0  0  0  0  0  0  0  0  0  0
  160.5230  212.7410  150.9640 C   0  0  0  0  0  2  0  0  0  0  0  0
  161.9710  211.0910  148.9780 C   0  0  0  0  0  3  0  0  0  0  0  0
  160.9900  211.3350  151.1850 C   0  0  0  0  0  0  0  0  0  0  0  0
  161.5740  212.4880  148.6680 C   0  0  0  0  0  0  0  0  0  0  0  0
  160.8850  210.5750  152.2640 C   0  0  0  0  0  0  0  0  0  0  0  0
  161.4850  209.2500  151.9750 C   0  0  0  0  0  0  0  0  0  0  0  0
  161.9660  209.2720  150.7230 C   0  0  0  0  0  0  0  0  0  0  0  0
  160.2130  210.9860  153.4610 N   0  0  0  0  0  2  0  0  0  0  0  0
  160.7870  210.9960  154.7700 C   0  0  0  0  0  0  0  0  0  0  0  0
  162.0390  210.9340  154.9260 O   0  0  0  0  0  0  0  0  0  0  0  0
  159.7770  212.6260  156.3620 C   0  0  0  0  0  2  0  0  0  0  0  0
  158.3070  212.8870  156.6360 C   0  0  0  0  0  2  0  0  0  0  0  0
  158.4860  210.7000  155.6440 C   0  0  0  0  0  2  0  0  0  0  0  0
  159.8900  211.1670  155.9530 C   0  0  0  0  0  3  0  0  0  0  0  0
  157.5950  211.5550  156.5100 C   0  0  0  0  0  2  0  0  0  0  0  0
  160.3710  207.5600  153.2490 O   0  0  0  0  0  0  0  0  0  0  0  0
  161.4510  208.0930  152.8840 C   0  0  0  0  0  3  0  0  0  0  0  0
  162.7520  207.9310  149.8260 S   0  0  0  0  0  0  0  0  0  0  0  0
  161.2310  207.5640  148.9010 C   0  0  0  0  0  2  0  0  0  0  0  0
  160.4480  206.4690  149.6020 C   0  0  0  0  0  2  0  0  0  0  0  0
  161.3770  205.3450  150.0260 C   0  0  0  0  0  2  0  0  0  0  0  0
  160.6480  203.2220  150.7910 O   0  0  0  0  0  1  0  0  0  0  0  0
  160.7790  204.0020  149.6400 C   0  0  2  0  0  3  0  0  0  0  0  0
  161.6260  203.3520  148.7320 O   0  0  0  0  0  0  0  0  0  0  0  0
  160.8590  203.1300  147.5770 C   0  0  1  0  0  3  0  0  0  0  0  0
  161.6560  203.5480  146.3370 C   0  0  1  0  0  3  0  0  0  0  0  0
  161.0500  203.0560  145.1760 O   0  0  0  0  0  1  0  0  0  0  0  0
  160.6590  205.8360  145.6740 C   0  0  0  0  0  1  0  0  0  0  0  0
  161.7840  205.0380  146.2340 C   0  0  0  0  0  0  0  0  0  0  0  0
  162.7940  205.6030  146.6260 O   0  0  0  0  0  0  0  0  0  0  0  0
  160.5160  201.6440  147.4750 C   0  0  0  0  0  2  0  0  0  0  0  0
  161.4310  200.8240  148.3630 C   0  0  0  0  0  1  0  0  0  0  0  0
  161.8620  213.0810  147.3930 N   0  0  0  0  0  2  0  0  0  0  0  0
  161.8550  213.1050  144.9550 C   0  0  0  0  0  3  0  0  0  0  0  0
  161.1610  212.8990  146.1520 C   0  0  0  0  0  0  0  0  0  0  0  0
  161.2200  212.9340  143.7160 C   0  0  0  0  0  0  0  0  0  0  0  0
  159.1730  212.3300  144.8750 C   0  0  0  0  0  3  0  0  0  0  0  0
  159.8720  212.5460  143.6840 C   0  0  0  0  0  3  0  0  0  0  0  0
  159.8160  212.5040  146.1020 C   0  0  0  0  0  3  0  0  0  0  0  0
  162.9590  213.9250  142.4420 O   0  0  0  0  0  0  0  0  0  0  0  0
  161.9590  213.1600  142.4610 C   0  0  0  0  0  0  0  0  0  0  0  0
  161.5520  212.5140  141.2570 N   0  0  0  0  0  1  0  0  0  0  0  0
  1  3  1  0  0  0  0
  2  9  1  0  0  0  0
  2  5  1  0  0  0  0
  3  5  1  0  0  0  0
  4  2  2  0  0  0  0
  5  7  2  0  0  0  0
  6  4  1  0  0  0  0
  6  1  2  0  0  0  0
  7 10  1  0  0  0  0
  8  7  1  0  0  0  0
  8 19  1  0  0  0  0
  9  8  2  0  0  0  0
 10 11  1  0  0  0  0
 11 12  2  0  0  0  0
 11 16  1  0  0  0  0
 13 14  1  0  0  0  0
 15 16  1  0  0  0  0
 15 17  1  0  0  0  0
 16 13  1  0  0  0  0
 17 14  1  0  0  0  0
 19 18  2  0  0  0  0
 20  9  1  0  0  0  0
 21 22  1  0  0  0  0
 21 20  1  0  0  0  0
 22 23  1  0  0  0  0
 25 23  1  0  0  0  0
 25 24  1  1  0  0  0
 26 25  1  0  0  0  0
 27 33  1  6  0  0  0
 27 26  1  0  0  0  0
 28 29  1  6  0  0  0
 28 27  1  0  0  0  0
 30 31  1  0  0  0  0
 31 28  1  0  0  0  0
 31 32  2  0  0  0  0
 33 34  1  0  0  0  0
 35  6  1  0  0  0  0
 36 37  1  0  0  0  0
 37 35  1  0  0  0  0
 38 36  2  0  0  0  0
 39 41  1  0  0  0  0
 40 38  1  0  0  0  0
 40 39  2  0  0  0  0
 41 37  2  0  0  0  0
 42 43  2  0  0  0  0
 43 38  1  0  0  0  0
 44 43  1  0  0  0  0
M  END
>  <MODEL>
2

>  <REMARK>
 VINA RESULT:      -7.0      2.729      8.776
  Name = 
  16 active torsions:
  status: ('A' for Active; 'I' for Inactive)
    1  A    between atoms: N_4  and  C_36
    2  A    between atoms: C_5  and  C_14
    3  A    between atoms: C_5  and  C_23
    4  A    between atoms: C_6  and  N_7
    5  A    between atoms: N_7  and  C_35
    6  A    between atoms: C_8  and  C_29
    7  A    between atoms: C_9  and  C_38
    8  A    between atoms: C_14  and  C_16
    9  A    between atoms: C_14  and  O_31
   10  A    between atoms: C_15  and  C_22
   11  A    between atoms: C_15  and  C_40
   12  A    between atoms: C_17  and  S_18
   13  A    between atoms: C_17  and  C_22
   14  A    between atoms: S_18  and  C_39
   15  A    between atoms: C_21  and  C_37
   16  A    between atoms: O_31  and  C_40
                            x       y       z     vdW  Elec       q    Type
                         _______ _______ _______ _____ _____    ______ ____

>  <TORSDO>
F 16

$$$$
=
 OpenBabel11052409323D

 44 47  0  0  1  0  0  0  0  0999 V2000
  162.0160  210.0620  148.3100 C   0  0  0  0  0  3  0  0  0  0  0  0
  161.8390  209.4640  151.0590 C   0  0  0  0  0  0  0  0  0  0  0  0
  162.0650  208.5830  148.6520 C   0  0  0  0  0  3  0  0  0  0  0  0
  161.8130  210.7340  150.6710 C   0  0  0  0  0  3  0  0  0  0  0  0
  161.9480  208.3710  150.1300 C   0  0  0  0  0  0  0  0  0  0  0  0
  161.8970  211.0500  149.2220 C   0  0  0  0  0  0  0  0  0  0  0  0
  161.9080  207.2390  150.8150 C   0  0  0  0  0  0  0  0  0  0  0  0
  161.8090  207.5590  152.2600 C   0  0  0  0  0  0  0  0  0  0  0  0
  161.7580  208.8920  152.3920 C   0  0  1  0  0  3  0  0  0  0  0  0
  162.0340  205.9430  150.2150 N   0  0  0  0  0  2  0  0  0  0  0  0
  161.0240  204.9320  150.2110 C   0  0  0  0  0  0  0  0  0  0  0  0
  159.8220  205.2200  150.4720 O   0  0  0  0  0  0  0  0  0  0  0  0
  160.3990  202.5230  150.3400 C   0  0  0  0  0  2  0  0  0  0  0  0
  160.1110  201.5630  149.2000 C   0  0  0  0  0  2  0  0  0  0  0  0
  161.3970  203.3920  148.3040 C   0  0  0  0  0  2  0  0  0  0  0  0
  161.3930  203.5420  149.8090 C   0  0  0  0  0  3  0  0  0  0  0  0
  161.0310  201.9490  148.0590 C   0  0  0  0  0  2  0  0  0  0  0  0
  160.9040  205.7950  153.5980 O   0  0  0  0  0  0  0  0  0  0  0  0
  161.8650  206.5690  153.3480 C   0  0  0  0  0  3  0  0  0  0  0  0
  161.6850  209.8430  153.9110 S   0  0  0  0  0  0  0  0  0  0  0  0
  159.9560  210.3200  153.6130 C   0  0  0  0  0  2  0  0  0  0  0  0
  159.8820  211.7830  153.2190 C   0  0  0  0  0  2  0  0  0  0  0  0
  158.7070  212.0200  152.2870 C   0  0  0  0  0  2  0  0  0  0  0  0
  159.0100  214.3550  152.0010 O   0  0  0  0  0  1  0  0  0  0  0  0
  158.1270  213.4060  152.5210 C   0  0  2  0  0  3  0  0  0  0  0  0
  157.9670  213.6250  153.8950 O   0  0  0  0  0  0  0  0  0  0  0  0
  156.6380  213.2760  154.1920 C   0  0  1  0  0  3  0  0  0  0  0  0
  156.5110  212.9370  155.6800 C   0  0  1  0  0  3  0  0  0  0  0  0
  155.1700  212.9680  156.0760 O   0  0  0  0  0  1  0  0  0  0  0  0
  158.4070  211.5010  156.6850 C   0  0  0  0  0  1  0  0  0  0  0  0
  157.0900  211.5920  155.9970 C   0  0  0  0  0  0  0  0  0  0  0  0
  156.4800  210.5710  155.7160 O   0  0  0  0  0  0  0  0  0  0  0  0
  155.7210  214.4530  153.8650 C   0  0  0  0  0  2  0  0  0  0  0  0
  154.8040  214.1080  152.7080 C   0  0  0  0  0  1  0  0  0  0  0  0
  161.8750  212.4060  148.7510 N   0  0  0  0  0  2  0  0  0  0  0  0
  160.3470  212.9090  146.9190 C   0  0  0  0  0  3  0  0  0  0  0  0
  161.6560  212.8750  147.4110 C   0  0  0  0  0  0  0  0  0  0  0  0
  160.0780  213.3640  145.6200 C   0  0  0  0  0  0  0  0  0  0  0  0
  162.4490  213.7740  145.2960 C   0  0  0  0  0  3  0  0  0  0  0  0
  161.1390  213.7950  144.8110 C   0  0  0  0  0  3  0  0  0  0  0  0
  162.7050  213.3180  146.5910 C   0  0  0  0  0  3  0  0  0  0  0  0
  158.4380  213.9190  143.9960 O   0  0  0  0  0  0  0  0  0  0  0  0
  158.6950  213.3880  145.1090 C   0  0  0  0  0  0  0  0  0  0  0  0
  157.6370  212.8060  145.8650 N   0  0  0  0  0  1  0  0  0  0  0  0
  1  3  2  0  0  0  0
  1  6  1  0  0  0  0
  2  9  1  0  0  0  0
  3  5  1  0  0  0  0
  4  2  1  0  0  0  0
  5  7  1  0  0  0  0
  5  2  2  0  0  0  0
  6  4  2  0  0  0  0
  7  8  2  0  0  0  0
  8  9  1  0  0  0  0
  8 19  1  0  0  0  0
  9 20  1  1  0  0  0
 10  7  1  0  0  0  0
 11 10  1  0  0  0  0
 11 12  2  0  0  0  0
 14 13  1  0  0  0  0
 15 16  1  0  0  0  0
 16 11  1  0  0  0  0
 16 13  1  0  0  0  0
 17 15  1  0  0  0  0
 17 14  1  0  0  0  0
 19 18  2  0  0  0  0
 21 20  1  0  0  0  0
 22 21  1  0  0  0  0
 23 25  1  0  0  0  0
 23 22  1  0  0  0  0
 25 24  1  1  0  0  0
 25 26  1  0  0  0  0
 26 27  1  0  0  0  0
 27 33  1  1  0  0  0
 27 28  1  0  0  0  0
 28 31  1  0  0  0  0
 28 29  1  6  0  0  0
 31 30  1  0  0  0  0
 32 31  2  0  0  0  0
 34 33  1  0  0  0  0
 35  6  1  0  0  0  0
 36 37  1  0  0  0  0
 37 35  1  0  0  0  0
 38 36  2  0  0  0  0
 39 41  1  0  0  0  0
 40 39  2  0  0  0  0
 40 38  1  0  0  0  0
 41 37  2  0  0  0  0
 42 43  2  0  0  0  0
 43 38  1  0  0  0  0
 43 44  1  0  0  0  0
M  END
>  <MODEL>
3

>  <REMARK>
 VINA RESULT:      -6.7      2.166      3.200
  Name = 
  16 active torsions:
  status: ('A' for Active; 'I' for Inactive)
    1  A    between atoms: N_4  and  C_36
    2  A    between atoms: C_5  and  C_14
    3  A    between atoms: C_5  and  C_23
    4  A    between atoms: C_6  and  N_7
    5  A    between atoms: N_7  and  C_35
    6  A    between atoms: C_8  and  C_29
    7  A    between atoms: C_9  and  C_38
    8  A    between atoms: C_14  and  C_16
    9  A    between atoms: C_14  and  O_31
   10  A    between atoms: C_15  and  C_22
   11  A    between atoms: C_15  and  C_40
   12  A    between atoms: C_17  and  S_18
   13  A    between atoms: C_17  and  C_22
   14  A    between atoms: S_18  and  C_39
   15  A    between atoms: C_21  and  C_37
   16  A    between atoms: O_31  and  C_40
                            x       y       z     vdW  Elec       q    Type
                         _______ _______ _______ _____ _____    ______ ____

>  <TORSDO>
F 16

$$$$
=
 OpenBabel11052409323D

 44 47  0  0  1  0  0  0  0  0999 V2000
  160.8790  211.7940  151.1350 C   0  0  0  0  0  3  0  0  0  0  0  0
  161.0880  209.5030  152.7640 C   0  0  0  0  0  0  0  0  0  0  0  0
  160.2140  211.9080  152.4950 C   0  0  0  0  0  2  0  0  0  0  0  0
  161.6340  209.4870  151.5540 C   0  0  0  0  0  3  0  0  0  0  0  0
  160.3950  210.6500  153.2870 C   0  0  0  0  0  0  0  0  0  0  0  0
  161.5320  210.6960  150.6980 C   0  0  0  0  0  0  0  0  0  0  0  0
  160.0030  210.3700  154.5210 C   0  0  0  0  0  0  0  0  0  0  0  0
  160.4020  208.9790  154.8450 C   0  0  0  0  0  0  0  0  0  0  0  0
  161.0590  208.4750  153.7900 C   0  0  0  0  0  0  0  0  0  0  0  0
  159.2420  211.2720  155.3350 N   0  0  0  0  0  2  0  0  0  0  0  0
  157.8410  211.5240  155.2020 C   0  0  0  0  0  0  0  0  0  0  0  0
  157.1020  210.7340  154.5500 O   0  0  0  0  0  0  0  0  0  0  0  0
  156.6500  213.6980  154.9480 C   0  0  0  0  0  2  0  0  0  0  0  0
  155.3040  214.1060  155.5170 C   0  0  0  0  0  2  0  0  0  0  0  0
  156.1170  212.2560  156.8260 C   0  0  0  0  0  2  0  0  0  0  0  0
  157.2450  212.6910  155.9180 C   0  0  0  0  0  3  0  0  0  0  0  0
  155.1800  213.4370  156.8710 C   0  0  0  0  0  2  0  0  0  0  0  0
  159.2960  207.2450  156.0650 O   0  0  0  0  0  0  0  0  0  0  0  0
  160.0370  208.2630  156.0780 C   0  0  0  0  0  3  0  0  0  0  0  0
  161.7270  206.8200  153.6020 S   0  0  0  0  0  0  0  0  0  0  0  0
  160.8660  206.5770  152.0190 C   0  0  0  0  0  2  0  0  0  0  0  0
  161.8140  205.9710  151.0010 C   0  0  0  0  0  2  0  0  0  0  0  0
  161.0480  205.1020  150.0190 C   0  0  0  0  0  2  0  0  0  0  0  0
  161.4860  206.7330  148.3540 O   0  0  0  0  0  1  0  0  0  0  0  0
  161.5360  205.3590  148.6030 C   0  0  2  0  0  3  0  0  0  0  0  0
  160.7100  204.6910  147.6900 O   0  0  0  0  0  0  0  0  0  0  0  0
  161.4550  203.5960  147.2220 C   0  0  1  0  0  3  0  0  0  0  0  0
  160.5560  202.3590  147.1290 C   0  0  1  0  0  3  0  0  0  0  0  0
  161.0290  201.4820  146.1480 O   0  0  0  0  0  1  0  0  0  0  0  0
  161.5860  200.7540  148.8700 C   0  0  0  0  0  1  0  0  0  0  0  0
  160.4660  201.6360  148.4390 C   0  0  0  0  0  0  0  0  0  0  0  0
  159.4940  201.7810  149.1640 O   0  0  0  0  0  0  0  0  0  0  0  0
  162.0100  203.9170  145.8360 C   0  0  0  0  0  2  0  0  0  0  0  0
  160.9520  204.5830  144.9780 C   0  0  0  0  0  1  0  0  0  0  0  0
  162.1040  210.7290  149.3810 N   0  0  0  0  0  2  0  0  0  0  0  0
  160.8200  211.5820  147.4910 C   0  0  0  0  0  3  0  0  0  0  0  0
  161.9120  211.7180  148.3560 C   0  0  0  0  0  0  0  0  0  0  0  0
  160.5840  212.5240  146.4790 C   0  0  0  0  0  0  0  0  0  0  0  0
  162.5420  213.7630  147.2040 C   0  0  0  0  0  3  0  0  0  0  0  0
  161.4540  213.6150  146.3400 C   0  0  0  0  0  3  0  0  0  0  0  0
  162.7670  212.8200  148.2090 C   0  0  0  0  0  3  0  0  0  0  0  0
  158.2610  212.3640  146.0220 O   0  0  0  0  0  0  0  0  0  0  0  0
  159.4350  212.3670  145.5680 C   0  0  0  0  0  0  0  0  0  0  0  0
  159.6410  212.2230  144.1650 N   0  0  0  0  0  1  0  0  0  0  0  0
  1  3  1  0  0  0  0
  2  5  1  0  0  0  0
  2  9  1  0  0  0  0
  3  5  1  0  0  0  0
  4  2  2  0  0  0  0
  5  7  2  0  0  0  0
  6  1  2  0  0  0  0
  6  4  1  0  0  0  0
  7  8  1  0  0  0  0
  7 10  1  0  0  0  0
  8 19  1  0  0  0  0
  9  8  2  0  0  0  0
 11 10  1  0  0  0  0
 11 16  1  0  0  0  0
 12 11  2  0  0  0  0
 13 14  1  0  0  0  0
 13 16  1  0  0  0  0
 14 17  1  0  0  0  0
 15 17  1  0  0  0  0
 16 15  1  0  0  0  0
 18 19  2  0  0  0  0
 20  9  1  0  0  0  0
 21 20  1  0  0  0  0
 22 21  1  0  0  0  0
 23 22  1  0  0  0  0
 25 24  1  6  0  0  0
 25 23  1  0  0  0  0
 26 25  1  0  0  0  0
 27 33  1  6  0  0  0
 27 26  1  0  0  0  0
 28 29  1  6  0  0  0
 28 27  1  0  0  0  0
 28 31  1  0  0  0  0
 31 30  1  0  0  0  0
 31 32  2  0  0  0  0
 34 33  1  0  0  0  0
 35  6  1  0  0  0  0
 36 37  1  0  0  0  0
 37 35  1  0  0  0  0
 38 36  2  0  0  0  0
 39 41  1  0  0  0  0
 40 38  1  0  0  0  0
 40 39  2  0  0  0  0
 41 37  2  0  0  0  0
 43 42  2  0  0  0  0
 43 38  1  0  0  0  0
 44 43  1  0  0  0  0
M  END
>  <MODEL>
4

>  <REMARK>
 VINA RESULT:      -6.4      2.123      8.857
  Name = 
  16 active torsions:
  status: ('A' for Active; 'I' for Inactive)
    1  A    between atoms: N_4  and  C_36
    2  A    between atoms: C_5  and  C_14
    3  A    between atoms: C_5  and  C_23
    4  A    between atoms: C_6  and  N_7
    5  A    between atoms: N_7  and  C_35
    6  A    between atoms: C_8  and  C_29
    7  A    between atoms: C_9  and  C_38
    8  A    between atoms: C_14  and  C_16
    9  A    between atoms: C_14  and  O_31
   10  A    between atoms: C_15  and  C_22
   11  A    between atoms: C_15  and  C_40
   12  A    between atoms: C_17  and  S_18
   13  A    between atoms: C_17  and  C_22
   14  A    between atoms: S_18  and  C_39
   15  A    between atoms: C_21  and  C_37
   16  A    between atoms: O_31  and  C_40
                            x       y       z     vdW  Elec       q    Type
                         _______ _______ _______ _____ _____    ______ ____

>  <TORSDO>
F 16

$$$$
=
 OpenBabel11052409323D

 44 47  0  0  1  0  0  0  0  0999 V2000
  162.0580  209.8600  148.2550 C   0  0  0  0  0  3  0  0  0  0  0  0
  161.9020  209.1820  150.9860 C   0  0  0  0  0  0  0  0  0  0  0  0
  162.0860  208.3710  148.5520 C   0  0  0  0  0  3  0  0  0  0  0  0
  161.8920  210.4630  150.6370 C   0  0  0  0  0  3  0  0  0  0  0  0
  161.9820  208.1160  150.0240 C   0  0  0  0  0  0  0  0  0  0  0  0
  161.9650  210.8210  149.1980 C   0  0  0  0  0  0  0  0  0  0  0  0
  161.9310  206.9640  150.6760 C   0  0  0  0  0  0  0  0  0  0  0  0
  161.8540  207.2420  152.1300 C   0  0  0  0  0  0  0  0  0  0  0  0
  161.8270  208.5720  152.3030 C   0  0  1  0  0  3  0  0  0  0  0  0
  162.0290  205.6860  150.0360 N   0  0  0  0  0  2  0  0  0  0  0  0
  161.0340  204.6600  150.0810 C   0  0  0  0  0  0  0  0  0  0  0  0
  159.8520  204.9230  150.4390 O   0  0  0  0  0  0  0  0  0  0  0  0
  160.4360  202.2420  150.1740 C   0  0  0  0  0  2  0  0  0  0  0  0
  160.0910  201.3130  149.0250 C   0  0  0  0  0  2  0  0  0  0  0  0
  161.3100  203.1790  148.1120 C   0  0  0  0  0  2  0  0  0  0  0  0
  161.3910  203.2850  149.6190 C   0  0  0  0  0  3  0  0  0  0  0  0
  160.9420  201.7410  147.8460 C   0  0  0  0  0  2  0  0  0  0  0  0
  160.8640  205.7110  153.6780 O   0  0  0  0  0  0  0  0  0  0  0  0
  161.9060  206.2190  153.1880 C   0  0  0  0  0  3  0  0  0  0  0  0
  161.7860  209.4770  153.8510 S   0  0  0  0  0  0  0  0  0  0  0  0
  160.1270  210.1360  153.5040 C   0  0  0  0  0  2  0  0  0  0  0  0
  160.0390  211.5830  153.9520 C   0  0  0  0  0  2  0  0  0  0  0  0
  160.3860  211.7010  155.4260 C   0  0  0  0  0  2  0  0  0  0  0  0
  159.2200  210.1560  156.7970 O   0  0  0  0  0  1  0  0  0  0  0  0
  159.1510  211.4500  156.2740 C   0  0  2  0  0  3  0  0  0  0  0  0
  158.0010  211.5690  155.4820 O   0  0  0  0  0  0  0  0  0  0  0  0
  157.1090  212.3740  156.2100 C   0  0  1  0  0  3  0  0  0  0  0  0
  157.0180  213.7610  155.5650 C   0  0  1  0  0  3  0  0  0  0  0  0
  158.2250  214.4510  155.7130 O   0  0  0  0  0  1  0  0  0  0  0  0
  155.2440  213.7200  153.6880 C   0  0  0  0  0  1  0  0  0  0  0  0
  156.6720  213.6760  154.1090 C   0  0  0  0  0  0  0  0  0  0  0  0
  157.5510  213.5930  153.2650 O   0  0  0  0  0  0  0  0  0  0  0  0
  155.7260  211.7270  156.2060 C   0  0  0  0  0  2  0  0  0  0  0  0
  155.7420  210.4400  155.4050 C   0  0  0  0  0  1  0  0  0  0  0  0
  161.9610  212.1910  148.7680 N   0  0  0  0  0  2  0  0  0  0  0  0
  160.1700  212.7500  147.2090 C   0  0  0  0  0  3  0  0  0  0  0  0
  161.5380  212.7210  147.5010 C   0  0  0  0  0  0  0  0  0  0  0  0
  159.7050  213.2630  145.9890 C   0  0  0  0  0  0  0  0  0  0  0  0
  161.9960  213.7400  145.3420 C   0  0  0  0  0  3  0  0  0  0  0  0
  160.6280  213.7570  145.0560 C   0  0  0  0  0  3  0  0  0  0  0  0
  162.4480  213.2270  146.5600 C   0  0  0  0  0  3  0  0  0  0  0  0
  157.7980  214.0920  144.8450 O   0  0  0  0  0  0  0  0  0  0  0  0
  158.2620  213.2810  145.6890 C   0  0  0  0  0  0  0  0  0  0  0  0
  157.3770  212.3780  146.3480 N   0  0  0  0  0  1  0  0  0  0  0  0
  1  3  2  0  0  0  0
  1  6  1  0  0  0  0
  2  9  1  0  0  0  0
  3  5  1  0  0  0  0
  4  2  1  0  0  0  0
  5  7  1  0  0  0  0
  5  2  2  0  0  0  0
  6  4  2  0  0  0  0
  7  8  2  0  0  0  0
  8  9  1  0  0  0  0
  8 19  1  0  0  0  0
  9 20  1  1  0  0  0
 10 11  1  0  0  0  0
 10  7  1  0  0  0  0
 11 12  2  0  0  0  0
 14 13  1  0  0  0  0
 15 16  1  0  0  0  0
 16 11  1  0  0  0  0
 16 13  1  0  0  0  0
 17 15  1  0  0  0  0
 17 14  1  0  0  0  0
 19 18  2  0  0  0  0
 21 20  1  0  0  0  0
 21 22  1  0  0  0  0
 22 23  1  0  0  0  0
 23 25  1  0  0  0  0
 25 24  1  6  0  0  0
 26 27  1  0  0  0  0
 26 25  1  0  0  0  0
 27 33  1  6  0  0  0
 28 29  1  6  0  0  0
 28 27  1  0  0  0  0
 30 31  1  0  0  0  0
 31 28  1  0  0  0  0
 32 31  2  0  0  0  0
 34 33  1  0  0  0  0
 35  6  1  0  0  0  0
 36 37  1  0  0  0  0
 37 35  1  0  0  0  0
 38 36  2  0  0  0  0
 39 41  1  0  0  0  0
 40 39  2  0  0  0  0
 40 38  1  0  0  0  0
 41 37  2  0  0  0  0
 42 43  2  0  0  0  0
 43 38  1  0  0  0  0
 43 44  1  0  0  0  0
M  END
>  <MODEL>
5

>  <REMARK>
 VINA RESULT:      -6.4      2.181      3.201
  Name = 
  16 active torsions:
  status: ('A' for Active; 'I' for Inactive)
    1  A    between atoms: N_4  and  C_36
    2  A    between atoms: C_5  and  C_14
    3  A    between atoms: C_5  and  C_23
    4  A    between atoms: C_6  and  N_7
    5  A    between atoms: N_7  and  C_35
    6  A    between atoms: C_8  and  C_29
    7  A    between atoms: C_9  and  C_38
    8  A    between atoms: C_14  and  C_16
    9  A    between atoms: C_14  and  O_31
   10  A    between atoms: C_15  and  C_22
   11  A    between atoms: C_15  and  C_40
   12  A    between atoms: C_17  and  S_18
   13  A    between atoms: C_17  and  C_22
   14  A    between atoms: S_18  and  C_39
   15  A    between atoms: C_21  and  C_37
   16  A    between atoms: O_31  and  C_40
                            x       y       z     vdW  Elec       q    Type
                         _______ _______ _______ _____ _____    ______ ____

>  <TORSDO>
F 16

$$$$
=
 OpenBabel11052409323D

 44 47  0  0  1  0  0  0  0  0999 V2000
  161.0010  207.1850  154.6330 C   0  0  0  0  0  3  0  0  0  0  0  0
  161.2440  208.8090  152.3420 C   0  0  0  0  0  0  0  0  0  0  0  0
  161.3570  206.4460  153.3550 C   0  0  0  0  0  3  0  0  0  0  0  0
  160.9260  209.3720  153.5010 C   0  0  0  0  0  3  0  0  0  0  0  0
  161.4790  207.3960  152.2040 C   0  0  2  0  0  3  0  0  0  0  0  0
  160.8060  208.5190  154.7110 C   0  0  0  0  0  0  0  0  0  0  0  0
  161.8100  207.1520  150.9450 C   0  0  0  0  0  0  0  0  0  0  0  0
  161.7660  208.4240  150.1840 C   0  0  0  0  0  0  0  0  0  0  0  0
  161.4360  209.4090  151.0330 C   0  0  0  0  0  0  0  0  0  0  0  0
  162.0740  205.8390  150.4340 N   0  0  0  0  0  2  0  0  0  0  0  0
  161.1780  205.0710  149.6270 C   0  0  0  0  0  0  0  0  0  0  0  0
  160.2030  205.6210  149.0430 O   0  0  0  0  0  0  0  0  0  0  0  0
  160.5510  202.7430  150.2580 C   0  0  0  0  0  2  0  0  0  0  0  0
  160.0720  201.6200  149.3560 C   0  0  0  0  0  2  0  0  0  0  0  0
  161.2200  203.2240  147.9740 C   0  0  0  0  0  2  0  0  0  0  0  0
  161.4600  203.6200  149.4140 C   0  0  0  0  0  3  0  0  0  0  0  0
  160.8020  201.7760  148.0370 C   0  0  0  0  0  2  0  0  0  0  0  0
  162.7810  207.8330  148.1010 O   0  0  0  0  0  0  0  0  0  0  0  0
  161.9530  208.5430  148.7290 C   0  0  0  0  0  3  0  0  0  0  0  0
  161.1880  211.1460  150.6560 S   0  0  0  0  0  0  0  0  0  0  0  0
  162.2160  211.0410  149.1600 C   0  0  0  0  0  2  0  0  0  0  0  0
  162.6060  212.4330  148.6990 C   0  0  0  0  0  2  0  0  0  0  0  0
  162.8480  212.4440  147.2000 C   0  0  0  0  0  2  0  0  0  0  0  0
  161.9540  214.0830  145.7380 O   0  0  0  0  0  1  0  0  0  0  0  0
  161.6110  212.9480  146.4760 C   0  0  2  0  0  3  0  0  0  0  0  0
  160.6210  213.2830  147.4090 O   0  0  0  0  0  0  0  0  0  0  0  0
  159.5180  213.7290  146.6620 C   0  0  1  0  0  3  0  0  0  0  0  0
  158.8330  212.5360  145.9880 C   0  0  1  0  0  3  0  0  0  0  0  0
  157.4930  212.4530  146.3820 O   0  0  0  0  0  1  0  0  0  0  0  0
  158.2550  213.7670  143.7930 C   0  0  0  0  0  1  0  0  0  0  0  0
  158.9030  212.6250  144.4930 C   0  0  0  0  0  0  0  0  0  0  0  0
  159.5070  211.7810  143.8480 O   0  0  0  0  0  0  0  0  0  0  0  0
  158.5220  214.4190  147.5930 C   0  0  0  0  0  2  0  0  0  0  0  0
  158.8400  214.1040  149.0410 C   0  0  0  0  0  1  0  0  0  0  0  0
  160.4630  209.0790  155.9880 N   0  0  0  0  0  2  0  0  0  0  0  0
  158.6490  210.7000  155.8180 C   0  0  0  0  0  3  0  0  0  0  0  0
  159.9350  210.3850  156.2700 C   0  0  0  0  0  0  0  0  0  0  0  0
  158.0850  211.9590  156.0730 C   0  0  0  0  0  0  0  0  0  0  0  0
  160.1050  212.6000  157.2570 C   0  0  0  0  0  3  0  0  0  0  0  0
  158.8230  212.9080  156.7940 C   0  0  0  0  0  3  0  0  0  0  0  0
  160.6570  211.3440  156.9980 C   0  0  0  0  0  3  0  0  0  0  0  0
  156.4730  213.4330  155.1440 O   0  0  0  0  0  0  0  0  0  0  0  0
  156.7310  212.2820  155.5850 C   0  0  0  0  0  0  0  0  0  0  0  0
  155.7030  211.2950  155.6030 N   0  0  0  0  0  1  0  0  0  0  0  0
  1  6  1  0  0  0  0
  2  4  1  0  0  0  0
  3  1  2  0  0  0  0
  4  6  2  0  0  0  0
  5  2  1  0  0  0  0
  5  3  1  1  0  0  0
  6 35  1  0  0  0  0
  7  5  1  0  0  0  0
  8  7  2  0  0  0  0
  8  9  1  0  0  0  0
  9  2  2  0  0  0  0
 10  7  1  0  0  0  0
 11 10  1  0  0  0  0
 12 11  2  0  0  0  0
 14 13  1  0  0  0  0
 15 17  1  0  0  0  0
 15 16  1  0  0  0  0
 16 11  1  0  0  0  0
 16 13  1  0  0  0  0
 17 14  1  0  0  0  0
 18 19  2  0  0  0  0
 19  8  1  0  0  0  0
 20  9  1  0  0  0  0
 21 20  1  0  0  0  0
 22 21  1  0  0  0  0
 23 22  1  0  0  0  0
 25 24  1  1  0  0  0
 25 23  1  0  0  0  0
 25 26  1  0  0  0  0
 27 26  1  0  0  0  0
 27 33  1  1  0  0  0
 28 29  1  6  0  0  0
 28 27  1  0  0  0  0
 30 31  1  0  0  0  0
 31 28  1  0  0  0  0
 32 31  2  0  0  0  0
 33 34  1  0  0  0  0
 35 37  1  0  0  0  0
 36 38  2  0  0  0  0
 36 37  1  0  0  0  0
 37 41  2  0  0  0  0
 38 40  1  0  0  0  0
 40 39  2  0  0  0  0
 41 39  1  0  0  0  0
 42 43  2  0  0  0  0
 43 44  1  0  0  0  0
 43 38  1  0  0  0  0
M  END
>  <MODEL>
6

>  <REMARK>
 VINA RESULT:      -6.3      2.890      6.940
  Name = 
  16 active torsions:
  status: ('A' for Active; 'I' for Inactive)
    1  A    between atoms: N_4  and  C_36
    2  A    between atoms: C_5  and  C_14
    3  A    between atoms: C_5  and  C_23
    4  A    between atoms: C_6  and  N_7
    5  A    between atoms: N_7  and  C_35
    6  A    between atoms: C_8  and  C_29
    7  A    between atoms: C_9  and  C_38
    8  A    between atoms: C_14  and  C_16
    9  A    between atoms: C_14  and  O_31
   10  A    between atoms: C_15  and  C_22
   11  A    between atoms: C_15  and  C_40
   12  A    between atoms: C_17  and  S_18
   13  A    between atoms: C_17  and  C_22
   14  A    between atoms: S_18  and  C_39
   15  A    between atoms: C_21  and  C_37
   16  A    between atoms: O_31  and  C_40
                            x       y       z     vdW  Elec       q    Type
                         _______ _______ _______ _____ _____    ______ ____

>  <TORSDO>
F 16

$$$$
=
 OpenBabel11052409323D

 44 47  0  0  1  0  0  0  0  0999 V2000
  160.9980  212.8550  149.9780 C   0  0  0  0  0  3  0  0  0  0  0  0
  161.5330  210.2510  150.9180 C   0  0  0  0  0  0  0  0  0  0  0  0
  160.5260  212.5710  151.3940 C   0  0  0  0  0  2  0  0  0  0  0  0
  161.9040  210.5820  149.6870 C   0  0  0  0  0  3  0  0  0  0  0  0
  160.8710  211.1720  151.8030 C   0  0  0  0  0  0  0  0  0  0  0  0
  161.6310  211.9560  149.1940 C   0  0  0  0  0  0  0  0  0  0  0  0
  160.6680  210.5620  152.9610 C   0  0  0  0  0  0  0  0  0  0  0  0
  161.1680  209.1690  152.8600 C   0  0  0  0  0  0  0  0  0  0  0  0
  161.6920  208.9990  151.6370 C   0  0  0  0  0  0  0  0  0  0  0  0
  159.9910  211.1680  154.0690 N   0  0  0  0  0  2  0  0  0  0  0  0
  158.6140  211.5540  154.0860 C   0  0  0  0  0  0  0  0  0  0  0  0
  157.8080  211.1050  153.2240 O   0  0  0  0  0  0  0  0  0  0  0  0
  157.6970  213.7950  154.6750 C   0  0  0  0  0  2  0  0  0  0  0  0
  156.3800  214.1240  155.3550 C   0  0  0  0  0  2  0  0  0  0  0  0
  156.9090  211.8300  155.8640 C   0  0  0  0  0  2  0  0  0  0  0  0
  158.1230  212.4300  155.1910 C   0  0  0  0  0  3  0  0  0  0  0  0
  156.1130  213.0140  156.3520 C   0  0  0  0  0  2  0  0  0  0  0  0
  161.3610  208.3360  155.0940 O   0  0  0  0  0  0  0  0  0  0  0  0
  161.0110  208.1400  153.9010 C   0  0  0  0  0  3  0  0  0  0  0  0
  162.3970  207.5020  150.9440 S   0  0  0  0  0  0  0  0  0  0  0  0
  161.6090  207.7930  149.3320 C   0  0  0  0  0  2  0  0  0  0  0  0
  160.6250  206.6790  149.0260 C   0  0  0  0  0  2  0  0  0  0  0  0
  160.8680  206.1270  147.6330 C   0  0  0  0  0  2  0  0  0  0  0  0
  162.7210  204.9060  146.7960 O   0  0  0  0  0  1  0  0  0  0  0  0
  161.6700  204.8390  147.7140 C   0  0  2  0  0  3  0  0  0  0  0  0
  160.8470  203.7500  147.4000 O   0  0  0  0  0  0  0  0  0  0  0  0
  161.2350  202.7090  148.2610 C   0  0  1  0  0  3  0  0  0  0  0  0
  160.2610  202.6230  149.4400 C   0  0  1  0  0  3  0  0  0  0  0  0
  159.5620  201.4120  149.4110 O   0  0  0  0  0  1  0  0  0  0  0  0
  160.8810  204.0340  151.5120 C   0  0  0  0  0  1  0  0  0  0  0  0
  160.9670  202.7540  150.7560 C   0  0  0  0  0  0  0  0  0  0  0  0
  161.5930  201.8150  151.2220 O   0  0  0  0  0  0  0  0  0  0  0  0
  161.2150  201.3870  147.4960 C   0  0  0  0  0  2  0  0  0  0  0  0
  160.6910  201.5930  146.0880 C   0  0  0  0  0  1  0  0  0  0  0  0
  162.0100  212.3630  147.8700 N   0  0  0  0  0  2  0  0  0  0  0  0
  159.7840  212.9240  147.0460 C   0  0  0  0  0  3  0  0  0  0  0  0
  161.1610  212.8380  146.8120 C   0  0  0  0  0  0  0  0  0  0  0  0
  158.9130  213.3870  146.0490 C   0  0  0  0  0  0  0  0  0  0  0  0
  160.8100  213.6980  144.5660 C   0  0  0  0  0  3  0  0  0  0  0  0
  159.4360  213.7730  144.8060 C   0  0  0  0  0  3  0  0  0  0  0  0
  161.6690  213.2350  145.5660 C   0  0  0  0  0  3  0  0  0  0  0  0
  156.6650  213.7150  145.3610 O   0  0  0  0  0  0  0  0  0  0  0  0
  157.4630  213.4660  146.3030 C   0  0  0  0  0  0  0  0  0  0  0  0
  156.9490  213.2580  147.6160 N   0  0  0  0  0  1  0  0  0  0  0  0
  1  3  1  0  0  0  0
  2  9  1  0  0  0  0
  2  5  1  0  0  0  0
  3  5  1  0  0  0  0
  4  2  2  0  0  0  0
  5  7  2  0  0  0  0
  6  4  1  0  0  0  0
  6  1  2  0  0  0  0
  7 10  1  0  0  0  0
  8  7  1  0  0  0  0
  8 19  1  0  0  0  0
  9  8  2  0  0  0  0
 10 11  1  0  0  0  0
 11 16  1  0  0  0  0
 12 11  2  0  0  0  0
 13 16  1  0  0  0  0
 13 14  1  0  0  0  0
 14 17  1  0  0  0  0
 15 17  1  0  0  0  0
 16 15  1  0  0  0  0
 19 18  2  0  0  0  0
 20  9  1  0  0  0  0
 21 20  1  0  0  0  0
 22 21  1  0  0  0  0
 23 25  1  0  0  0  0
 23 22  1  0  0  0  0
 25 24  1  6  0  0  0
 26 25  1  0  0  0  0
 26 27  1  0  0  0  0
 27 33  1  6  0  0  0
 27 28  1  0  0  0  0
 28 29  1  1  0  0  0
 28 31  1  0  0  0  0
 31 32  2  0  0  0  0
 31 30  1  0  0  0  0
 34 33  1  0  0  0  0
 35  6  1  0  0  0  0
 37 36  1  0  0  0  0
 37 35  1  0  0  0  0
 38 43  1  0  0  0  0
 38 36  2  0  0  0  0
 39 40  2  0  0  0  0
 39 41  1  0  0  0  0
 40 38  1  0  0  0  0
 41 37  2  0  0  0  0
 42 43  2  0  0  0  0
 43 44  1  0  0  0  0
M  END
>  <MODEL>
7

>  <REMARK>
 VINA RESULT:      -6.2      2.120      8.567
  Name = 
  16 active torsions:
  status: ('A' for Active; 'I' for Inactive)
    1  A    between atoms: N_4  and  C_36
    2  A    between atoms: C_5  and  C_14
    3  A    between atoms: C_5  and  C_23
    4  A    between atoms: C_6  and  N_7
    5  A    between atoms: N_7  and  C_35
    6  A    between atoms: C_8  and  C_29
    7  A    between atoms: C_9  and  C_38
    8  A    between atoms: C_14  and  C_16
    9  A    between atoms: C_14  and  O_31
   10  A    between atoms: C_15  and  C_22
   11  A    between atoms: C_15  and  C_40
   12  A    between atoms: C_17  and  S_18
   13  A    between atoms: C_17  and  C_22
   14  A    between atoms: S_18  and  C_39
   15  A    between atoms: C_21  and  C_37
   16  A    between atoms: O_31  and  C_40
                            x       y       z     vdW  Elec       q    Type
                         _______ _______ _______ _____ _____    ______ ____

>  <TORSDO>
F 16

$$$$
=
 OpenBabel11052409323D

 44 47  0  0  1  0  0  0  0  0999 V2000
  161.2160  206.2590  150.2080 C   0  0  0  0  0  3  0  0  0  0  0  0
  161.2710  207.5130  152.7310 C   0  0  0  0  0  0  0  0  0  0  0  0
  161.4400  207.7610  150.1760 C   0  0  0  0  0  3  0  0  0  0  0  0
  161.0710  206.2020  152.6660 C   0  0  0  0  0  3  0  0  0  0  0  0
  161.4690  208.3270  151.5620 C   0  0  0  0  0  0  0  0  0  0  0  0
  161.0510  205.5390  151.3380 C   0  0  0  0  0  0  0  0  0  0  0  0
  161.6790  209.5740  151.9560 C   0  0  0  0  0  0  0  0  0  0  0  0
  161.5840  209.6300  153.4350 C   0  0  0  0  0  0  0  0  0  0  0  0
  161.3500  208.3900  153.8870 C   0  0  1  0  0  3  0  0  0  0  0  0
  161.8720  210.6690  151.0520 N   0  0  0  0  0  2  0  0  0  0  0  0
  160.9550  211.7470  150.8500 C   0  0  0  0  0  0  0  0  0  0  0  0
  160.0360  211.9780  151.6860 O   0  0  0  0  0  0  0  0  0  0  0  0
  161.7120  211.9050  148.4810 C   0  0  0  0  0  2  0  0  0  0  0  0
  160.9230  212.3700  147.2700 C   0  0  0  0  0  2  0  0  0  0  0  0
  159.8360  213.2520  149.2290 C   0  0  0  0  0  2  0  0  0  0  0  0
  161.1490  212.6530  149.6780 C   0  0  0  0  0  3  0  0  0  0  0  0
  159.9990  213.4730  147.7460 C   0  0  0  0  0  2  0  0  0  0  0  0
  162.5690  211.0920  155.0510 O   0  0  0  0  0  0  0  0  0  0  0  0
  161.6370  210.8640  154.2360 C   0  0  0  0  0  3  0  0  0  0  0  0
  161.0960  207.8710  155.5860 S   0  0  0  0  0  0  0  0  0  0  0  0
  159.7300  209.0490  155.8160 C   0  0  0  0  0  2  0  0  0  0  0  0
  160.0700  210.0270  156.9250 C   0  0  0  0  0  2  0  0  0  0  0  0
  158.8620  210.8840  157.2600 C   0  0  0  0  0  2  0  0  0  0  0  0
  160.0120  212.8250  156.5260 O   0  0  0  0  0  1  0  0  0  0  0  0
  158.8240  212.1070  156.3600 C   0  0  2  0  0  3  0  0  0  0  0  0
  157.7380  212.9200  156.7120 O   0  0  0  0  0  0  0  0  0  0  0  0
  156.8420  212.8600  155.6310 C   0  0  1  0  0  3  0  0  0  0  0  0
  156.9370  214.1480  154.8070 C   0  0  1  0  0  3  0  0  0  0  0  0
  158.1970  214.2550  154.2100 O   0  0  0  0  0  1  0  0  0  0  0  0
  154.4470  214.2890  154.1390 C   0  0  0  0  0  1  0  0  0  0  0  0
  155.8800  214.2090  153.7460 C   0  0  0  0  0  0  0  0  0  0  0  0
  156.1860  214.2160  152.5630 O   0  0  0  0  0  0  0  0  0  0  0  0
  157.1990  211.6690  154.7440 C   0  0  0  0  0  2  0  0  0  0  0  0
  156.0440  210.6900  154.6750 C   0  0  0  0  0  1  0  0  0  0  0  0
  160.8370  204.1240  151.2130 N   0  0  0  0  0  2  0  0  0  0  0  0
  161.2020  203.9450  148.8080 C   0  0  0  0  0  3  0  0  0  0  0  0
  160.9160  203.3180  150.0260 C   0  0  0  0  0  0  0  0  0  0  0  0
  161.2970  203.2020  147.6220 C   0  0  0  0  0  0  0  0  0  0  0  0
  160.8290  201.1770  148.8770 C   0  0  0  0  0  3  0  0  0  0  0  0
  161.1070  201.8140  147.6640 C   0  0  0  0  0  3  0  0  0  0  0  0
  160.7360  201.9270  150.0520 C   0  0  0  0  0  3  0  0  0  0  0  0
  162.1300  205.0130  146.3330 O   0  0  0  0  0  0  0  0  0  0  0  0
  161.5920  203.8750  146.3430 C   0  0  0  0  0  0  0  0  0  0  0  0
  161.2750  203.2420  145.1060 N   0  0  0  0  0  1  0  0  0  0  0  0
  1  6  1  0  0  0  0
  2  9  1  0  0  0  0
  3  1  2  0  0  0  0
  3  5  1  0  0  0  0
  4  2  1  0  0  0  0
  5  7  1  0  0  0  0
  5  2  2  0  0  0  0
  6  4  2  0  0  0  0
  7  8  2  0  0  0  0
  8  9  1  0  0  0  0
  8 19  1  0  0  0  0
  9 20  1  6  0  0  0
 10  7  1  0  0  0  0
 11 10  1  0  0  0  0
 11 12  2  0  0  0  0
 13 16  1  0  0  0  0
 14 17  1  0  0  0  0
 14 13  1  0  0  0  0
 15 16  1  0  0  0  0
 16 11  1  0  0  0  0
 17 15  1  0  0  0  0
 19 18  2  0  0  0  0
 20 21  1  0  0  0  0
 21 22  1  0  0  0  0
 22 23  1  0  0  0  0
 25 24  1  1  0  0  0
 25 26  1  0  0  0  0
 25 23  1  0  0  0  0
 27 33  1  6  0  0  0
 27 26  1  0  0  0  0
 28 29  1  6  0  0  0
 28 27  1  0  0  0  0
 31 30  1  0  0  0  0
 31 28  1  0  0  0  0
 32 31  2  0  0  0  0
 34 33  1  0  0  0  0
 35  6  1  0  0  0  0
 36 37  1  0  0  0  0
 37 41  2  0  0  0  0
 37 35  1  0  0  0  0
 38 40  1  0  0  0  0
 38 36  2  0  0  0  0
 39 41  1  0  0  0  0
 40 39  2  0  0  0  0
 42 43  2  0  0  0  0
 43 38  1  0  0  0  0
 44 43  1  0  0  0  0
M  END
>  <MODEL>
8

>  <REMARK>
 VINA RESULT:      -6.2      2.188      7.214
  Name = 
  16 active torsions:
  status: ('A' for Active; 'I' for Inactive)
    1  A    between atoms: N_4  and  C_36
    2  A    between atoms: C_5  and  C_14
    3  A    between atoms: C_5  and  C_23
    4  A    between atoms: C_6  and  N_7
    5  A    between atoms: N_7  and  C_35
    6  A    between atoms: C_8  and  C_29
    7  A    between atoms: C_9  and  C_38
    8  A    between atoms: C_14  and  C_16
    9  A    between atoms: C_14  and  O_31
   10  A    between atoms: C_15  and  C_22
   11  A    between atoms: C_15  and  C_40
   12  A    between atoms: C_17  and  S_18
   13  A    between atoms: C_17  and  C_22
   14  A    between atoms: S_18  and  C_39
   15  A    between atoms: C_21  and  C_37
   16  A    between atoms: O_31  and  C_40
                            x       y       z     vdW  Elec       q    Type
                         _______ _______ _______ _____ _____    ______ ____

>  <TORSDO>
F 16

$$$$
=
 OpenBabel11052409323D

 44 47  0  0  1  0  0  0  0  0999 V2000
  161.2220  204.5260  152.4600 C   0  0  0  0  0  3  0  0  0  0  0  0
  161.4780  206.6780  150.6570 C   0  0  0  0  0  0  0  0  0  0  0  0
  161.1360  204.1500  150.9910 C   0  0  0  0  0  3  0  0  0  0  0  0
  161.5330  206.9190  151.9610 C   0  0  0  0  0  3  0  0  0  0  0  0
  161.2990  205.3560  150.1190 C   0  0  2  0  0  3  0  0  0  0  0  0
  161.4080  205.7850  152.9120 C   0  0  0  0  0  0  0  0  0  0  0  0
  161.3240  205.4390  148.7970 C   0  0  0  0  0  0  0  0  0  0  0  0
  161.4860  206.8620  148.4110 C   0  0  0  0  0  0  0  0  0  0  0  0
  161.5870  207.5920  149.5320 C   0  0  0  0  0  0  0  0  0  0  0  0
  161.1320  204.3160  147.9270 N   0  0  0  0  0  2  0  0  0  0  0  0
  162.0010  203.9430  146.8550 C   0  0  0  0  0  0  0  0  0  0  0  0
  163.1750  204.4020  146.7860 O   0  0  0  0  0  0  0  0  0  0  0  0
  160.8340  201.7640  146.5350 C   0  0  0  0  0  2  0  0  0  0  0  0
  159.5830  201.4770  145.7250 C   0  0  0  0  0  2  0  0  0  0  0  0
  160.5210  203.5390  144.9080 C   0  0  0  0  0  2  0  0  0  0  0  0
  161.5290  202.9350  145.8590 C   0  0  0  0  0  3  0  0  0  0  0  0
  159.6230  202.3910  144.5170 C   0  0  0  0  0  2  0  0  0  0  0  0
  160.7290  206.8290  146.1430 O   0  0  0  0  0  0  0  0  0  0  0  0
  161.4360  207.3730  147.0310 C   0  0  0  0  0  3  0  0  0  0  0  0
  161.7480  209.3730  149.6720 S   0  0  0  0  0  0  0  0  0  0  0  0
  161.6530  209.3110  151.4860 C   0  0  0  0  0  2  0  0  0  0  0  0
  161.0480  210.5970  152.0190 C   0  0  0  0  0  2  0  0  0  0  0  0
  159.8120  210.2950  152.8470 C   0  0  0  0  0  2  0  0  0  0  0  0
  159.4300  212.5310  152.1520 O   0  0  0  0  0  1  0  0  0  0  0  0
  159.0150  211.5690  153.0760 C   0  0  2  0  0  3  0  0  0  0  0  0
  159.2440  212.0430  154.3740 O   0  0  0  0  0  0  0  0  0  0  0  0
  158.0080  212.5250  154.8360 C   0  0  1  0  0  3  0  0  0  0  0  0
  157.3900  211.5170  155.8100 C   0  0  1  0  0  3  0  0  0  0  0  0
  157.7450  211.8280  157.1270 O   0  0  0  0  0  1  0  0  0  0  0  0
  155.2410  210.3300  155.0120 C   0  0  0  0  0  1  0  0  0  0  0  0
  155.8960  211.4770  155.6970 C   0  0  0  0  0  0  0  0  0  0  0  0
  155.2120  212.3660  156.1810 O   0  0  0  0  0  0  0  0  0  0  0  0
  158.2220  213.8540  155.5570 C   0  0  0  0  0  2  0  0  0  0  0  0
  159.6960  214.0850  155.8250 C   0  0  0  0  0  1  0  0  0  0  0  0
  161.4590  205.9920  154.3320 N   0  0  0  0  0  2  0  0  0  0  0  0
  161.7920  208.2440  155.2090 C   0  0  0  0  0  3  0  0  0  0  0  0
  160.9710  207.1180  155.0820 C   0  0  0  0  0  0  0  0  0  0  0  0
  161.3620  209.3710  155.9240 C   0  0  0  0  0  0  0  0  0  0  0  0
  159.2580  208.2480  156.3830 C   0  0  0  0  0  3  0  0  0  0  0  0
  160.0890  209.3650  156.5120 C   0  0  0  0  0  3  0  0  0  0  0  0
  159.6980  207.1310  155.6690 C   0  0  0  0  0  3  0  0  0  0  0  0
  163.2180  210.7030  155.2820 O   0  0  0  0  0  0  0  0  0  0  0  0
  162.2380  210.5490  156.0580 C   0  0  0  0  0  0  0  0  0  0  0  0
  161.9830  211.5270  157.0620 N   0  0  0  0  0  1  0  0  0  0  0  0
  1  6  1  0  0  0  0
  2  4  1  0  0  0  0
  3  1  2  0  0  0  0
  4  6  2  0  0  0  0
  5  2  1  0  0  0  0
  5  3  1  1  0  0  0
  6 35  1  0  0  0  0
  7  5  1  0  0  0  0
  8  7  2  0  0  0  0
  8  9  1  0  0  0  0
  9 20  1  0  0  0  0
  9  2  2  0  0  0  0
 10  7  1  0  0  0  0
 11 10  1  0  0  0  0
 12 11  2  0  0  0  0
 14 13  1  0  0  0  0
 15 16  1  0  0  0  0
 16 13  1  0  0  0  0
 16 11  1  0  0  0  0
 17 15  1  0  0  0  0
 17 14  1  0  0  0  0
 18 19  2  0  0  0  0
 19  8  1  0  0  0  0
 20 21  1  0  0  0  0
 21 22  1  0  0  0  0
 22 23  1  0  0  0  0
 23 25  1  0  0  0  0
 25 24  1  6  0  0  0
 25 26  1  0  0  0  0
 26 27  1  0  0  0  0
 27 33  1  1  0  0  0
 27 28  1  0  0  0  0
 28 29  1  1  0  0  0
 30 31  1  0  0  0  0
 31 28  1  0  0  0  0
 31 32  2  0  0  0  0
 33 34  1  0  0  0  0
 35 37  1  0  0  0  0
 36 38  1  0  0  0  0
 37 36  2  0  0  0  0
 37 41  1  0  0  0  0
 38 43  1  0  0  0  0
 38 40  2  0  0  0  0
 39 40  1  0  0  0  0
 41 39  2  0  0  0  0
 42 43  2  0  0  0  0
 43 44  1  0  0  0  0
M  END
>  <MODEL>
9

>  <REMARK>
 VINA RESULT:      -6.1      3.162      5.174
  Name = 
  16 active torsions:
  status: ('A' for Active; 'I' for Inactive)
    1  A    between atoms: N_4  and  C_36
    2  A    between atoms: C_5  and  C_14
    3  A    between atoms: C_5  and  C_23
    4  A    between atoms: C_6  and  N_7
    5  A    between atoms: N_7  and  C_35
    6  A    between atoms: C_8  and  C_29
    7  A    between atoms: C_9  and  C_38
    8  A    between atoms: C_14  and  C_16
    9  A    between atoms: C_14  and  O_31
   10  A    between atoms: C_15  and  C_22
   11  A    between atoms: C_15  and  C_40
   12  A    between atoms: C_17  and  S_18
   13  A    between atoms: C_17  and  C_22
   14  A    between atoms: S_18  and  C_39
   15  A    between atoms: C_21  and  C_37
   16  A    between atoms: O_31  and  C_40
                            x       y       z     vdW  Elec       q    Type
                         _______ _______ _______ _____ _____    ______ ____

>  <TORSDO>
F 16

$$$$
