=
 OpenBabel11052410143D

 25 26  0  0  1  0  0  0  0  0999 V2000
  161.3000  205.6390  147.3920 C   0  0  1  0  0  3  0  0  0  0  0  0
  160.9540  205.7600  145.9400 C   0  0  0  0  0  0  0  0  0  0  0  0
  159.8350  206.2340  145.6100 O   0  0  0  0  0  0  0  0  0  0  0  0
  161.5400  205.3740  143.6250 O   0  0  0  0  0  1  0  0  0  0  0  0
  161.8620  205.3030  144.9370 N   0  0  0  0  0  2  0  0  0  0  0  0
  161.7490  204.2840  147.7320 N   0  0  0  0  0  2  0  0  0  0  0  0
  160.3600  202.3210  148.3610 C   0  0  1  0  0  3  0  0  0  0  0  0
  160.1660  201.6640  149.6980 C   0  0  0  0  0  2  0  0  0  0  0  0
  161.5880  203.5550  149.9630 O   0  0  0  0  0  0  0  0  0  0  0  0
  160.8820  202.5750  150.6780 C   0  0  0  0  0  2  0  0  0  0  0  0
  160.8900  203.6900  148.7570 C   0  0  1  0  0  3  0  0  0  0  0  0
  161.3750  201.5150  147.5510 C   0  0  0  0  0  2  0  0  0  0  0  0
  160.6260  202.1680  145.3790 O   0  0  0  0  0  1  0  0  0  0  0  0
  160.7850  201.0690  146.2230 C   0  0  0  0  0  2  0  0  0  0  0  0
  162.2790  206.6460  147.7950 N   0  0  0  0  0  2  0  0  0  0  0  0
  161.9890  209.6000  149.9870 N   0  0  0  0  0  0  0  0  0  0  0  0
  162.1080  208.8320  148.8720 C   0  0  0  0  0  3  0  0  0  0  0  0
  161.8990  209.0470  151.2280 C   0  0  0  0  0  0  0  0  0  0  0  0
  162.1480  207.4400  148.9780 C   0  0  0  0  0  0  0  0  0  0  0  0
  161.9400  207.6590  151.3790 C   0  0  0  0  0  3  0  0  0  0  0  0
  162.0620  206.8540  150.2470 C   0  0  0  0  0  3  0  0  0  0  0  0
  161.7980  209.9240  152.4270 C   0  0  0  0  0  2  0  0  0  0  0  0
  160.5620  209.5650  153.2270 C   0  0  0  0  0  2  0  0  0  0  0  0
  160.9650  209.1810  154.6350 C   0  0  0  0  0  2  0  0  0  0  0  0
  160.6840  207.7110  154.8570 C   0  0  0  0  0  1  0  0  0  0  0  0
  1  2  1  6  0  0  0
  1  6  1  0  0  0  0
  1 15  1  0  0  0  0
  3  2  2  0  0  0  0
  4  5  1  0  0  0  0
  5  2  1  0  0  0  0
  7 12  1  6  0  0  0
  7 11  1  0  0  0  0
  7  8  1  0  0  0  0
  8 10  1  0  0  0  0
  9 10  1  0  0  0  0
 11  6  1  6  0  0  0
 11  9  1  0  0  0  0
 13 14  1  0  0  0  0
 14 12  1  0  0  0  0
 15 19  1  0  0  0  0
 16 18  1  0  0  0  0
 17 19  1  0  0  0  0
 17 16  2  0  0  0  0
 18 20  2  0  0  0  0
 18 22  1  0  0  0  0
 19 21  2  0  0  0  0
 21 20  1  0  0  0  0
 22 23  1  0  0  0  0
 23 24  1  0  0  0  0
 24 25  1  0  0  0  0
M  END
>  <MODEL>
1

>  <REMARK>
 VINA RESULT:      -6.9      0.000      0.000
  Name = 
  10 active torsions:
  status: ('A' for Active; 'I' for Inactive)
    1  A    between atoms: C_1  and  C_10
    2  A    between atoms: C_1  and  C_21
    3  A    between atoms: C_2  and  C_24
    4  A    between atoms: C_6  and  C_11
    5  A    between atoms: C_6  and  C_20
    6  A    between atoms: C_7  and  C_21
    7  A    between atoms: N_13  and  C_24
    8  A    between atoms: N_13  and  C_25
    9  A    between atoms: C_17  and  N_22
   10  A    between atoms: N_22  and  C_24
                            x       y       z     vdW  Elec       q    Type
                         _______ _______ _______ _____ _____    ______ ____

>  <TORSDO>
F 10

$$$$
=
 OpenBabel11052410143D

 25 26  0  0  1  0  0  0  0  0999 V2000
  162.0340  208.6420  150.9600 C   0  0  1  0  0  3  0  0  0  0  0  0
  162.0780  209.3250  149.6290 C   0  0  0  0  0  0  0  0  0  0  0  0
  162.0750  208.6300  148.5780 O   0  0  0  0  0  0  0  0  0  0  0  0
  162.2480  211.3700  148.3460 O   0  0  0  0  0  1  0  0  0  0  0  0
  162.1680  210.7480  149.5450 N   0  0  0  0  0  2  0  0  0  0  0  0
  162.0980  209.6030  152.0660 N   0  0  0  0  0  2  0  0  0  0  0  0
  160.9100  209.7610  154.2440 C   0  0  1  0  0  3  0  0  0  0  0  0
  159.6960  210.5600  154.6270 C   0  0  0  0  0  2  0  0  0  0  0  0
  160.1450  210.8920  152.3120 O   0  0  0  0  0  0  0  0  0  0  0  0
  159.2040  211.1550  153.3200 C   0  0  0  0  0  2  0  0  0  0  0  0
  160.7980  209.7250  152.7280 C   0  0  1  0  0  3  0  0  0  0  0  0
  162.1630  210.4960  154.7200 C   0  0  0  0  0  2  0  0  0  0  0  0
  162.2930  209.0760  156.6370 O   0  0  0  0  0  1  0  0  0  0  0  0
  162.3050  210.4110  156.2310 C   0  0  0  0  0  2  0  0  0  0  0  0
  160.8690  207.7680  151.0750 N   0  0  0  0  0  2  0  0  0  0  0  0
  160.8150  204.3370  149.7160 N   0  0  0  0  0  0  0  0  0  0  0  0
  160.7480  205.6930  149.7910 C   0  0  0  0  0  3  0  0  0  0  0  0
  161.0830  203.5750  150.8120 C   0  0  0  0  0  0  0  0  0  0  0  0
  160.9490  206.3410  151.0120 C   0  0  0  0  0  0  0  0  0  0  0  0
  161.2870  204.1820  152.0530 C   0  0  0  0  0  3  0  0  0  0  0  0
  161.2210  205.5720  152.1500 C   0  0  0  0  0  3  0  0  0  0  0  0
  161.1210  202.0910  150.6940 C   0  0  0  0  0  2  0  0  0  0  0  0
  160.2750  201.6450  149.5170 C   0  0  0  0  0  2  0  0  0  0  0  0
  161.1580  200.9840  148.4810 C   0  0  0  0  0  2  0  0  0  0  0  0
  160.8850  201.5930  147.1230 C   0  0  0  0  0  1  0  0  0  0  0  0
  1  2  1  6  0  0  0
  1 15  1  0  0  0  0
  1  6  1  0  0  0  0
  3  2  2  0  0  0  0
  4  5  1  0  0  0  0
  5  2  1  0  0  0  0
  7  8  1  0  0  0  0
  7 12  1  6  0  0  0
  9 11  1  0  0  0  0
  9 10  1  0  0  0  0
 10  8  1  0  0  0  0
 11  6  1  6  0  0  0
 11  7  1  0  0  0  0
 12 14  1  0  0  0  0
 14 13  1  0  0  0  0
 16 17  2  0  0  0  0
 16 18  1  0  0  0  0
 17 19  1  0  0  0  0
 18 20  2  0  0  0  0
 19 15  1  0  0  0  0
 19 21  2  0  0  0  0
 20 21  1  0  0  0  0
 22 18  1  0  0  0  0
 23 22  1  0  0  0  0
 24 23  1  0  0  0  0
 25 24  1  0  0  0  0
M  END
>  <MODEL>
2

>  <REMARK>
 VINA RESULT:      -6.8      3.162      7.932
  Name = 
  10 active torsions:
  status: ('A' for Active; 'I' for Inactive)
    1  A    between atoms: C_1  and  C_10
    2  A    between atoms: C_1  and  C_21
    3  A    between atoms: C_2  and  C_24
    4  A    between atoms: C_6  and  C_11
    5  A    between atoms: C_6  and  C_20
    6  A    between atoms: C_7  and  C_21
    7  A    between atoms: N_13  and  C_24
    8  A    between atoms: N_13  and  C_25
    9  A    between atoms: C_17  and  N_22
   10  A    between atoms: N_22  and  C_24
                            x       y       z     vdW  Elec       q    Type
                         _______ _______ _______ _____ _____    ______ ____

>  <TORSDO>
F 10

$$$$
=
 OpenBabel11052410143D

 25 26  0  0  1  0  0  0  0  0999 V2000
  161.5360  203.1330  148.7830 C   0  0  1  0  0  3  0  0  0  0  0  0
  161.0150  201.7960  148.3530 C   0  0  0  0  0  0  0  0  0  0  0  0
  159.9270  201.3760  148.8290 O   0  0  0  0  0  0  0  0  0  0  0  0
  161.3160  199.7580  147.0840 O   0  0  0  0  0  1  0  0  0  0  0  0
  161.7610  200.9830  147.4470 N   0  0  0  0  0  2  0  0  0  0  0  0
  162.1180  203.8750  147.6600 N   0  0  0  0  0  2  0  0  0  0  0  0
  160.9750  205.8920  146.7630 C   0  0  1  0  0  3  0  0  0  0  0  0
  160.4420  206.1670  145.3860 C   0  0  0  0  0  2  0  0  0  0  0  0
  161.3120  203.9520  145.4510 O   0  0  0  0  0  0  0  0  0  0  0  0
  160.5880  204.8480  144.6490 C   0  0  0  0  0  2  0  0  0  0  0  0
  161.0740  204.3740  146.7650 C   0  0  1  0  0  3  0  0  0  0  0  0
  162.3380  206.5660  146.9150 C   0  0  0  0  0  2  0  0  0  0  0  0
  161.6140  208.4480  148.1960 O   0  0  0  0  0  1  0  0  0  0  0  0
  162.4320  207.3190  148.2320 C   0  0  0  0  0  2  0  0  0  0  0  0
  160.5070  203.9130  149.4670 N   0  0  0  0  0  2  0  0  0  0  0  0
  161.1320  204.6940  153.0190 N   0  0  0  0  0  0  0  0  0  0  0  0
  160.9020  203.9940  151.8760 C   0  0  0  0  0  3  0  0  0  0  0  0
  161.2300  206.0510  153.0160 C   0  0  0  0  0  0  0  0  0  0  0  0
  160.7540  204.6640  150.6590 C   0  0  0  0  0  0  0  0  0  0  0  0
  161.0840  206.7610  151.8220 C   0  0  0  0  0  3  0  0  0  0  0  0
  160.8470  206.0610  150.6390 C   0  0  0  0  0  3  0  0  0  0  0  0
  161.4540  206.7830  154.2940 C   0  0  0  0  0  2  0  0  0  0  0  0
  160.7850  208.1420  154.2360 C   0  0  0  0  0  2  0  0  0  0  0  0
  160.2670  208.5090  155.6100 C   0  0  0  0  0  2  0  0  0  0  0  0
  159.8470  207.2540  156.3420 C   0  0  0  0  0  1  0  0  0  0  0  0
  1  6  1  6  0  0  0
  1 15  1  0  0  0  0
  2  1  1  0  0  0  0
  2  3  2  0  0  0  0
  4  5  1  0  0  0  0
  5  2  1  0  0  0  0
  7 11  1  0  0  0  0
  7 12  1  6  0  0  0
  8  7  1  0  0  0  0
  9 11  1  0  0  0  0
 10  8  1  0  0  0  0
 10  9  1  0  0  0  0
 11  6  1  1  0  0  0
 12 14  1  0  0  0  0
 13 14  1  0  0  0  0
 15 19  1  0  0  0  0
 17 16  2  0  0  0  0
 18 16  1  0  0  0  0
 18 22  1  0  0  0  0
 19 17  1  0  0  0  0
 20 18  2  0  0  0  0
 21 19  2  0  0  0  0
 21 20  1  0  0  0  0
 23 22  1  0  0  0  0
 23 24  1  0  0  0  0
 24 25  1  0  0  0  0
M  END
>  <MODEL>
3

>  <REMARK>
 VINA RESULT:      -6.5      2.169      4.503
  Name = 
  10 active torsions:
  status: ('A' for Active; 'I' for Inactive)
    1  A    between atoms: C_1  and  C_10
    2  A    between atoms: C_1  and  C_21
    3  A    between atoms: C_2  and  C_24
    4  A    between atoms: C_6  and  C_11
    5  A    between atoms: C_6  and  C_20
    6  A    between atoms: C_7  and  C_21
    7  A    between atoms: N_13  and  C_24
    8  A    between atoms: N_13  and  C_25
    9  A    between atoms: C_17  and  N_22
   10  A    between atoms: N_22  and  C_24
                            x       y       z     vdW  Elec       q    Type
                         _______ _______ _______ _____ _____    ______ ____

>  <TORSDO>
F 10

$$$$
=
 OpenBabel11052410143D

 25 26  0  0  1  0  0  0  0  0999 V2000
  161.5020  208.2980  151.1210 C   0  0  1  0  0  3  0  0  0  0  0  0
  162.1010  209.5400  150.5370 C   0  0  0  0  0  0  0  0  0  0  0  0
  162.6960  210.3530  151.2940 O   0  0  0  0  0  0  0  0  0  0  0  0
  162.4680  210.9660  148.6170 O   0  0  0  0  0  1  0  0  0  0  0  0
  161.9630  209.8270  149.1460 N   0  0  0  0  0  2  0  0  0  0  0  0
  160.5820  208.6050  152.2220 N   0  0  0  0  0  2  0  0  0  0  0  0
  161.2080  209.4690  154.4670 C   0  0  1  0  0  3  0  0  0  0  0  0
  161.1700  208.7920  155.8080 C   0  0  0  0  0  2  0  0  0  0  0  0
  160.4940  207.2380  154.1350 O   0  0  0  0  0  0  0  0  0  0  0  0
  160.8200  207.3480  155.4960 C   0  0  0  0  0  2  0  0  0  0  0  0
  161.1890  208.2840  153.5150 C   0  0  1  0  0  3  0  0  0  0  0  0
  159.9710  210.3560  154.3200 C   0  0  0  0  0  2  0  0  0  0  0  0
  159.3890  212.4110  155.3910 O   0  0  0  0  0  1  0  0  0  0  0  0
  160.3190  211.8200  154.5350 C   0  0  0  0  0  2  0  0  0  0  0  0
  160.8590  207.4810  150.0960 N   0  0  0  0  0  2  0  0  0  0  0  0
  160.8170  203.9890  151.2880 N   0  0  0  0  0  0  0  0  0  0  0  0
  160.7640  205.3470  151.2820 C   0  0  0  0  0  3  0  0  0  0  0  0
  161.0050  203.2770  150.1430 C   0  0  0  0  0  0  0  0  0  0  0  0
  160.9110  206.0510  150.0840 C   0  0  0  0  0  0  0  0  0  0  0  0
  161.1610  203.9420  148.9240 C   0  0  0  0  0  3  0  0  0  0  0  0
  161.1100  205.3350  148.8970 C   0  0  0  0  0  3  0  0  0  0  0  0
  161.0850  201.7910  150.1960 C   0  0  0  0  0  2  0  0  0  0  0  0
  160.3140  201.1910  149.0370 C   0  0  0  0  0  2  0  0  0  0  0  0
  161.2800  200.5300  148.0760 C   0  0  0  0  0  2  0  0  0  0  0  0
  161.0610  201.0800  146.6840 C   0  0  0  0  0  1  0  0  0  0  0  0
  1 15  1  6  0  0  0
  1  6  1  0  0  0  0
  2  1  1  0  0  0  0
  2  3  2  0  0  0  0
  4  5  1  0  0  0  0
  5  2  1  0  0  0  0
  7 12  1  6  0  0  0
  7  8  1  0  0  0  0
  9 10  1  0  0  0  0
 10  8  1  0  0  0  0
 11  6  1  6  0  0  0
 11  9  1  0  0  0  0
 11  7  1  0  0  0  0
 12 14  1  0  0  0  0
 14 13  1  0  0  0  0
 17 16  1  0  0  0  0
 18 22  1  0  0  0  0
 18 16  2  0  0  0  0
 19 15  1  0  0  0  0
 19 17  2  0  0  0  0
 20 18  1  0  0  0  0
 21 20  2  0  0  0  0
 21 19  1  0  0  0  0
 23 22  1  0  0  0  0
 24 23  1  0  0  0  0
 25 24  1  0  0  0  0
M  END
>  <MODEL>
4

>  <REMARK>
 VINA RESULT:      -6.2      3.507      7.961
  Name = 
  10 active torsions:
  status: ('A' for Active; 'I' for Inactive)
    1  A    between atoms: C_1  and  C_10
    2  A    between atoms: C_1  and  C_21
    3  A    between atoms: C_2  and  C_24
    4  A    between atoms: C_6  and  C_11
    5  A    between atoms: C_6  and  C_20
    6  A    between atoms: C_7  and  C_21
    7  A    between atoms: N_13  and  C_24
    8  A    between atoms: N_13  and  C_25
    9  A    between atoms: C_17  and  N_22
   10  A    between atoms: N_22  and  C_24
                            x       y       z     vdW  Elec       q    Type
                         _______ _______ _______ _____ _____    ______ ____

>  <TORSDO>
F 10

$$$$
=
 OpenBabel11052410143D

 25 26  0  0  1  0  0  0  0  0999 V2000
  161.2940  206.5580  149.9270 C   0  0  1  0  0  3  0  0  0  0  0  0
  161.4600  207.6510  148.9170 C   0  0  0  0  0  0  0  0  0  0  0  0
  161.2270  207.4090  147.7030 O   0  0  0  0  0  0  0  0  0  0  0  0
  162.1120  209.9230  148.4000 O   0  0  0  0  0  1  0  0  0  0  0  0
  161.9220  208.9420  149.3130 N   0  0  0  0  0  2  0  0  0  0  0  0
  161.5690  205.2380  149.3500 N   0  0  0  0  0  2  0  0  0  0  0  0
  160.4620  203.0160  149.2370 C   0  0  1  0  0  3  0  0  0  0  0  0
  160.4840  201.8750  150.2140 C   0  0  0  0  0  2  0  0  0  0  0  0
  161.7300  203.6920  151.1160 O   0  0  0  0  0  0  0  0  0  0  0  0
  161.2090  202.4250  151.4280 C   0  0  0  0  0  2  0  0  0  0  0  0
  160.8920  204.1850  150.1080 C   0  0  1  0  0  3  0  0  0  0  0  0
  161.4560  202.7290  148.1110 C   0  0  0  0  0  2  0  0  0  0  0  0
  160.8660  202.2200  145.8540 O   0  0  0  0  0  1  0  0  0  0  0  0
  160.9040  201.6930  147.1450 C   0  0  0  0  0  2  0  0  0  0  0  0
  162.1040  206.8030  151.1180 N   0  0  0  0  0  2  0  0  0  0  0  0
  160.8380  209.0260  153.7790 N   0  0  0  0  0  0  0  0  0  0  0  0
  161.3540  208.5990  152.5960 C   0  0  0  0  0  3  0  0  0  0  0  0
  160.4970  208.1510  154.7650 C   0  0  0  0  0  0  0  0  0  0  0  0
  161.5540  207.2350  152.3660 C   0  0  0  0  0  0  0  0  0  0  0  0
  160.6850  206.7800  154.5780 C   0  0  0  0  0  3  0  0  0  0  0  0
  161.2130  206.3220  153.3720 C   0  0  0  0  0  3  0  0  0  0  0  0
  159.9610  208.6610  156.0570 C   0  0  0  0  0  2  0  0  0  0  0  0
  160.4710  210.0660  156.3100 C   0  0  0  0  0  2  0  0  0  0  0  0
  159.3290  211.0510  156.1710 C   0  0  0  0  0  2  0  0  0  0  0  0
  159.8760  212.4020  155.7670 C   0  0  0  0  0  1  0  0  0  0  0  0
  1  2  1  6  0  0  0
  1 15  1  0  0  0  0
  2  5  1  0  0  0  0
  3  2  2  0  0  0  0
  4  5  1  0  0  0  0
  6  1  1  0  0  0  0
  7 12  1  6  0  0  0
  7 11  1  0  0  0  0
  7  8  1  0  0  0  0
  8 10  1  0  0  0  0
  9 10  1  0  0  0  0
 11  6  1  6  0  0  0
 11  9  1  0  0  0  0
 13 14  1  0  0  0  0
 14 12  1  0  0  0  0
 15 19  1  0  0  0  0
 16 18  1  0  0  0  0
 17 16  2  0  0  0  0
 18 22  1  0  0  0  0
 19 17  1  0  0  0  0
 19 21  2  0  0  0  0
 20 18  2  0  0  0  0
 21 20  1  0  0  0  0
 22 23  1  0  0  0  0
 24 23  1  0  0  0  0
 25 24  1  0  0  0  0
M  END
>  <MODEL>
5

>  <REMARK>
 VINA RESULT:      -6.2      2.094      3.278
  Name = 
  10 active torsions:
  status: ('A' for Active; 'I' for Inactive)
    1  A    between atoms: C_1  and  C_10
    2  A    between atoms: C_1  and  C_21
    3  A    between atoms: C_2  and  C_24
    4  A    between atoms: C_6  and  C_11
    5  A    between atoms: C_6  and  C_20
    6  A    between atoms: C_7  and  C_21
    7  A    between atoms: N_13  and  C_24
    8  A    between atoms: N_13  and  C_25
    9  A    between atoms: C_17  and  N_22
   10  A    between atoms: N_22  and  C_24
                            x       y       z     vdW  Elec       q    Type
                         _______ _______ _______ _____ _____    ______ ____

>  <TORSDO>
F 10

$$$$
=
 OpenBabel11052410143D

 25 26  0  0  1  0  0  0  0  0999 V2000
  160.8520  208.9790  153.4960 C   0  0  1  0  0  3  0  0  0  0  0  0
  160.9210  208.4910  154.9100 C   0  0  0  0  0  0  0  0  0  0  0  0
  161.7060  209.0540  155.7190 O   0  0  0  0  0  0  0  0  0  0  0  0
  160.2280  206.9010  156.5960 O   0  0  0  0  0  1  0  0  0  0  0  0
  160.1420  207.3720  155.3310 N   0  0  0  0  0  2  0  0  0  0  0  0
  160.9260  210.4420  153.4210 N   0  0  0  0  0  2  0  0  0  0  0  0
  158.7200  211.4870  153.8910 C   0  0  1  0  0  3  0  0  0  0  0  0
  157.9890  212.5720  153.1520 C   0  0  0  0  0  2  0  0  0  0  0  0
  160.0100  212.0740  151.9960 O   0  0  0  0  0  0  0  0  0  0  0  0
  158.8160  212.8060  151.9010 C   0  0  0  0  0  2  0  0  0  0  0  0
  159.7040  210.9990  152.8390 C   0  0  1  0  0  3  0  0  0  0  0  0
  159.4190  212.0950  155.1070 C   0  0  0  0  0  2  0  0  0  0  0  0
  157.5940  211.4330  156.4980 O   0  0  0  0  0  1  0  0  0  0  0  0
  158.9840  211.4040  156.3890 C   0  0  0  0  0  2  0  0  0  0  0  0
  161.8710  208.3460  152.6610 N   0  0  0  0  0  2  0  0  0  0  0  0
  161.0300  206.3170  149.6960 N   0  0  0  0  0  0  0  0  0  0  0  0
  161.2840  207.3900  150.4910 C   0  0  0  0  0  3  0  0  0  0  0  0
  161.0940  205.0440  150.1730 C   0  0  0  0  0  0  0  0  0  0  0  0
  161.6130  207.2060  151.8360 C   0  0  0  0  0  0  0  0  0  0  0  0
  161.4160  204.8160  151.5140 C   0  0  0  0  0  3  0  0  0  0  0  0
  161.6790  205.9040  152.3460 C   0  0  0  0  0  3  0  0  0  0  0  0
  160.7820  203.8970  149.2770 C   0  0  0  0  0  2  0  0  0  0  0  0
  160.7790  202.6060  150.0710 C   0  0  0  0  0  2  0  0  0  0  0  0
  160.1830  201.4970  149.2310 C   0  0  0  0  0  2  0  0  0  0  0  0
  161.2850  200.7940  148.4690 C   0  0  0  0  0  1  0  0  0  0  0  0
  1 15  1  6  0  0  0
  1  2  1  0  0  0  0
  2  5  1  0  0  0  0
  2  3  2  0  0  0  0
  5  4  1  0  0  0  0
  6  1  1  0  0  0  0
  7 12  1  1  0  0  0
  8  7  1  0  0  0  0
  9 11  1  0  0  0  0
 10  9  1  0  0  0  0
 10  8  1  0  0  0  0
 11  6  1  1  0  0  0
 11  7  1  0  0  0  0
 12 14  1  0  0  0  0
 14 13  1  0  0  0  0
 16 18  2  0  0  0  0
 16 17  1  0  0  0  0
 17 19  2  0  0  0  0
 18 20  1  0  0  0  0
 19 21  1  0  0  0  0
 19 15  1  0  0  0  0
 20 21  2  0  0  0  0
 22 23  1  0  0  0  0
 22 18  1  0  0  0  0
 24 23  1  0  0  0  0
 25 24  1  0  0  0  0
M  END
>  <MODEL>
6

>  <REMARK>
 VINA RESULT:      -6.1      4.415      9.155
  Name = 
  10 active torsions:
  status: ('A' for Active; 'I' for Inactive)
    1  A    between atoms: C_1  and  C_10
    2  A    between atoms: C_1  and  C_21
    3  A    between atoms: C_2  and  C_24
    4  A    between atoms: C_6  and  C_11
    5  A    between atoms: C_6  and  C_20
    6  A    between atoms: C_7  and  C_21
    7  A    between atoms: N_13  and  C_24
    8  A    between atoms: N_13  and  C_25
    9  A    between atoms: C_17  and  N_22
   10  A    between atoms: N_22  and  C_24
                            x       y       z     vdW  Elec       q    Type
                         _______ _______ _______ _____ _____    ______ ____

>  <TORSDO>
F 10

$$$$
=
 OpenBabel11052410143D

 25 26  0  0  1  0  0  0  0  0999 V2000
  161.6020  202.8920  148.1650 C   0  0  1  0  0  3  0  0  0  0  0  0
  161.1360  201.7080  147.3750 C   0  0  0  0  0  0  0  0  0  0  0  0
  161.1950  200.5600  147.8900 O   0  0  0  0  0  0  0  0  0  0  0  0
  160.2860  200.7980  145.3010 O   0  0  0  0  0  1  0  0  0  0  0  0
  160.6720  201.8680  146.0340 N   0  0  0  0  0  2  0  0  0  0  0  0
  162.2450  203.8960  147.3110 N   0  0  0  0  0  2  0  0  0  0  0  0
  160.8550  205.8060  146.5390 C   0  0  1  0  0  3  0  0  0  0  0  0
  160.5700  206.2920  145.1450 C   0  0  0  0  0  2  0  0  0  0  0  0
  161.9240  204.3370  145.0230 O   0  0  0  0  0  0  0  0  0  0  0  0
  161.1850  205.2400  144.2410 C   0  0  0  0  0  2  0  0  0  0  0  0
  161.3200  204.3810  146.2860 C   0  0  1  0  0  3  0  0  0  0  0  0
  161.9490  206.6770  147.1570 C   0  0  0  0  0  2  0  0  0  0  0  0
  162.3650  208.5220  148.6160 O   0  0  0  0  0  1  0  0  0  0  0  0
  161.3620  207.6780  148.1390 C   0  0  0  0  0  2  0  0  0  0  0  0
  160.5140  203.4720  148.9500 N   0  0  0  0  0  2  0  0  0  0  0  0
  160.8430  206.1570  151.4600 N   0  0  0  0  0  0  0  0  0  0  0  0
  160.6490  205.5200  150.2750 C   0  0  0  0  0  3  0  0  0  0  0  0
  161.1000  205.4690  152.6060 C   0  0  0  0  0  0  0  0  0  0  0  0
  160.7160  204.1270  150.2060 C   0  0  0  0  0  0  0  0  0  0  0  0
  161.1800  204.0740  152.5810 C   0  0  0  0  0  3  0  0  0  0  0  0
  160.9840  203.4030  151.3740 C   0  0  0  0  0  3  0  0  0  0  0  0
  161.3350  206.2050  153.8780 C   0  0  0  0  0  2  0  0  0  0  0  0
  160.9160  207.6540  153.7220 C   0  0  0  0  0  2  0  0  0  0  0  0
  161.0350  208.3610  155.0550 C   0  0  0  0  0  2  0  0  0  0  0  0
  160.1970  207.6380  156.0860 C   0  0  0  0  0  1  0  0  0  0  0  0
  1  6  1  6  0  0  0
  1 15  1  0  0  0  0
  2  3  2  0  0  0  0
  2  1  1  0  0  0  0
  4  5  1  0  0  0  0
  5  2  1  0  0  0  0
  7 12  1  6  0  0  0
  8  7  1  0  0  0  0
  9 11  1  0  0  0  0
 10  9  1  0  0  0  0
 10  8  1  0  0  0  0
 11  7  1  0  0  0  0
 11  6  1  1  0  0  0
 12 14  1  0  0  0  0
 14 13  1  0  0  0  0
 15 19  1  0  0  0  0
 16 18  1  0  0  0  0
 17 16  2  0  0  0  0
 18 22  1  0  0  0  0
 19 17  1  0  0  0  0
 19 21  2  0  0  0  0
 20 18  2  0  0  0  0
 21 20  1  0  0  0  0
 23 22  1  0  0  0  0
 23 24  1  0  0  0  0
 24 25  1  0  0  0  0
M  END
>  <MODEL>
7

>  <REMARK>
 VINA RESULT:      -6.1      2.083      4.474
  Name = 
  10 active torsions:
  status: ('A' for Active; 'I' for Inactive)
    1  A    between atoms: C_1  and  C_10
    2  A    between atoms: C_1  and  C_21
    3  A    between atoms: C_2  and  C_24
    4  A    between atoms: C_6  and  C_11
    5  A    between atoms: C_6  and  C_20
    6  A    between atoms: C_7  and  C_21
    7  A    between atoms: N_13  and  C_24
    8  A    between atoms: N_13  and  C_25
    9  A    between atoms: C_17  and  N_22
   10  A    between atoms: N_22  and  C_24
                            x       y       z     vdW  Elec       q    Type
                         _______ _______ _______ _____ _____    ______ ____

>  <TORSDO>
F 10

$$$$
=
 OpenBabel11052410143D

 25 26  0  0  1  0  0  0  0  0999 V2000
  160.7450  209.2230  155.4150 C   0  0  1  0  0  3  0  0  0  0  0  0
  161.9980  209.6010  156.1410 C   0  0  0  0  0  0  0  0  0  0  0  0
  162.3350  208.9550  157.1680 O   0  0  0  0  0  0  0  0  0  0  0  0
  163.8950  211.0840  156.3790 O   0  0  0  0  0  1  0  0  0  0  0  0
  162.7830  210.7110  155.7050 N   0  0  0  0  0  2  0  0  0  0  0  0
  159.6300  210.1140  155.7520 N   0  0  0  0  0  2  0  0  0  0  0  0
  157.7640  211.1440  154.4740 C   0  0  1  0  0  3  0  0  0  0  0  0
  157.6820  212.4820  153.7950 C   0  0  0  0  0  2  0  0  0  0  0  0
  159.8590  212.2170  154.7210 O   0  0  0  0  0  0  0  0  0  0  0  0
  159.0850  213.0490  153.8960 C   0  0  0  0  0  2  0  0  0  0  0  0
  159.2660  210.9530  154.6090 C   0  0  1  0  0  3  0  0  0  0  0  0
  157.0610  211.2280  155.8290 C   0  0  0  0  0  2  0  0  0  0  0  0
  155.2240  210.1490  154.7500 O   0  0  0  0  0  1  0  0  0  0  0  0
  155.5520  211.1460  155.6680 C   0  0  0  0  0  2  0  0  0  0  0  0
  160.9620  209.1570  153.9710 N   0  0  0  0  0  2  0  0  0  0  0  0
  161.1130  206.7910  151.1430 N   0  0  0  0  0  0  0  0  0  0  0  0
  161.0380  207.9510  151.8480 C   0  0  0  0  0  3  0  0  0  0  0  0
  161.2040  205.5840  151.7660 C   0  0  0  0  0  0  0  0  0  0  0  0
  161.0470  207.9280  153.2450 C   0  0  0  0  0  0  0  0  0  0  0  0
  161.2120  205.5150  153.1610 C   0  0  0  0  0  3  0  0  0  0  0  0
  161.1350  206.6940  153.9010 C   0  0  0  0  0  3  0  0  0  0  0  0
  161.2560  204.3340  150.9580 C   0  0  0  0  0  2  0  0  0  0  0  0
  160.8570  204.6270  149.5250 C   0  0  0  0  0  2  0  0  0  0  0  0
  161.2500  203.4630  148.6420 C   0  0  0  0  0  2  0  0  0  0  0  0
  160.6050  202.1960  149.1610 C   0  0  0  0  0  1  0  0  0  0  0  0
  1 15  1  6  0  0  0
  1  6  1  0  0  0  0
  1  2  1  0  0  0  0
  2  3  2  0  0  0  0
  5  2  1  0  0  0  0
  5  4  1  0  0  0  0
  7 11  1  0  0  0  0
  7 12  1  1  0  0  0
  8 10  1  0  0  0  0
  8  7  1  0  0  0  0
 10  9  1  0  0  0  0
 11  9  1  0  0  0  0
 11  6  1  1  0  0  0
 13 14  1  0  0  0  0
 14 12  1  0  0  0  0
 16 18  2  0  0  0  0
 16 17  1  0  0  0  0
 17 19  2  0  0  0  0
 18 20  1  0  0  0  0
 19 21  1  0  0  0  0
 19 15  1  0  0  0  0
 20 21  2  0  0  0  0
 22 18  1  0  0  0  0
 23 22  1  0  0  0  0
 24 25  1  0  0  0  0
 24 23  1  0  0  0  0
M  END
>  <MODEL>
8

>  <REMARK>
 VINA RESULT:      -6.1      5.335      9.540
  Name = 
  10 active torsions:
  status: ('A' for Active; 'I' for Inactive)
    1  A    between atoms: C_1  and  C_10
    2  A    between atoms: C_1  and  C_21
    3  A    between atoms: C_2  and  C_24
    4  A    between atoms: C_6  and  C_11
    5  A    between atoms: C_6  and  C_20
    6  A    between atoms: C_7  and  C_21
    7  A    between atoms: N_13  and  C_24
    8  A    between atoms: N_13  and  C_25
    9  A    between atoms: C_17  and  N_22
   10  A    between atoms: N_22  and  C_24
                            x       y       z     vdW  Elec       q    Type
                         _______ _______ _______ _____ _____    ______ ____

>  <TORSDO>
F 10

$$$$
=
 OpenBabel11052410143D

 25 26  0  0  1  0  0  0  0  0999 V2000
  160.9340  207.1100  149.1990 C   0  0  1  0  0  3  0  0  0  0  0  0
  161.8980  208.1420  148.7010 C   0  0  0  0  0  0  0  0  0  0  0  0
  163.0310  207.7790  148.2870 O   0  0  0  0  0  0  0  0  0  0  0  0
  162.4400  210.4690  148.3220 O   0  0  0  0  0  1  0  0  0  0  0  0
  161.5600  209.5280  148.7340 N   0  0  0  0  0  2  0  0  0  0  0  0
  160.4250  206.2710  148.1090 N   0  0  0  0  0  2  0  0  0  0  0  0
  162.0430  204.6380  147.1650 C   0  0  1  0  0  3  0  0  0  0  0  0
  162.4670  204.4120  145.7410 C   0  0  0  0  0  2  0  0  0  0  0  0
  160.9420  206.2380  145.8140 O   0  0  0  0  0  0  0  0  0  0  0  0
  161.8150  205.5400  144.9650 C   0  0  0  0  0  2  0  0  0  0  0  0
  161.4600  206.0400  147.1000 C   0  0  1  0  0  3  0  0  0  0  0  0
  161.0000  203.5880  147.5480 C   0  0  0  0  0  2  0  0  0  0  0  0
  160.1960  202.2580  149.3620 O   0  0  0  0  0  1  0  0  0  0  0  0
  161.2890  203.0060  148.9220 C   0  0  0  0  0  2  0  0  0  0  0  0
  161.5180  206.3050  150.2700 N   0  0  0  0  0  2  0  0  0  0  0  0
  161.0990  205.7290  153.8910 N   0  0  0  0  0  0  0  0  0  0  0  0
  161.3180  205.5020  152.5680 C   0  0  0  0  0  3  0  0  0  0  0  0
  160.8560  206.9800  154.3680 C   0  0  0  0  0  0  0  0  0  0  0  0
  161.2910  206.5620  151.6590 C   0  0  0  0  0  0  0  0  0  0  0  0
  160.8160  208.0680  153.4920 C   0  0  0  0  0  3  0  0  0  0  0  0
  161.0380  207.8550  152.1320 C   0  0  0  0  0  3  0  0  0  0  0  0
  160.5930  207.1830  155.8200 C   0  0  0  0  0  2  0  0  0  0  0  0
  159.9810  208.5520  156.0480 C   0  0  0  0  0  2  0  0  0  0  0  0
  160.6530  209.2150  157.2310 C   0  0  0  0  0  2  0  0  0  0  0  0
  162.1550  209.1420  157.0630 C   0  0  0  0  0  1  0  0  0  0  0  0
  1  6  1  6  0  0  0
  1 15  1  0  0  0  0
  2  5  1  0  0  0  0
  2  1  1  0  0  0  0
  3  2  2  0  0  0  0
  4  5  1  0  0  0  0
  7 12  1  6  0  0  0
  8  7  1  0  0  0  0
  9 11  1  0  0  0  0
 10  8  1  0  0  0  0
 10  9  1  0  0  0  0
 11  7  1  0  0  0  0
 11  6  1  1  0  0  0
 12 14  1  0  0  0  0
 14 13  1  0  0  0  0
 15 19  1  0  0  0  0
 16 18  1  0  0  0  0
 17 16  2  0  0  0  0
 18 22  1  0  0  0  0
 19 21  2  0  0  0  0
 19 17  1  0  0  0  0
 20 18  2  0  0  0  0
 21 20  1  0  0  0  0
 22 23  1  0  0  0  0
 23 24  1  0  0  0  0
 25 24  1  0  0  0  0
M  END
>  <MODEL>
9

>  <REMARK>
 VINA RESULT:      -6.0      2.390      4.082
  Name = 
  10 active torsions:
  status: ('A' for Active; 'I' for Inactive)
    1  A    between atoms: C_1  and  C_10
    2  A    between atoms: C_1  and  C_21
    3  A    between atoms: C_2  and  C_24
    4  A    between atoms: C_6  and  C_11
    5  A    between atoms: C_6  and  C_20
    6  A    between atoms: C_7  and  C_21
    7  A    between atoms: N_13  and  C_24
    8  A    between atoms: N_13  and  C_25
    9  A    between atoms: C_17  and  N_22
   10  A    between atoms: N_22  and  C_24
                            x       y       z     vdW  Elec       q    Type
                         _______ _______ _______ _____ _____    ______ ____

>  <TORSDO>
F 10

$$$$
