=
 OpenBabel11052411493D

 40 42  0  0  1  0  0  0  0  0999 V2000
  161.9810  209.7050  157.2600 C   0  0  0  0  0  2  0  0  0  0  0  0
  160.6060  206.7400  153.1420 C   0  0  0  0  0  2  0  0  0  0  0  0
  162.4290  211.1260  156.9890 C   0  0  0  0  0  2  0  0  0  0  0  0
  162.1890  207.4890  151.3390 C   0  0  0  0  0  2  0  0  0  0  0  0
  161.8050  209.5720  154.6770 C   0  0  0  0  0  0  0  0  0  0  0  0
  161.2050  209.1340  153.5450 C   0  0  0  0  0  0  0  0  0  0  0  0
  161.5410  209.6890  152.2120 C   0  0  0  0  0  0  0  0  0  0  0  0
  161.5930  207.6610  156.1100 O   0  0  0  0  0  1  0  0  0  0  0  0
  160.9080  206.7200  151.6470 C   0  0  1  0  0  3  0  0  0  0  0  0
  161.3540  209.0350  156.0320 C   0  0  1  0  0  3  0  0  0  0  0  0
  161.9380  208.9230  151.2360 N   0  0  0  0  0  0  0  0  0  0  0  0
  163.4830  211.0690  155.9040 C   0  0  0  0  0  2  0  0  0  0  0  0
  160.1090  208.1070  153.5900 C   0  0  0  0  0  2  0  0  0  0  0  0
  162.8520  210.6660  154.5780 C   0  0  0  0  0  2  0  0  0  0  0  0
  161.3790  211.0950  151.9910 N   0  0  0  0  0  2  0  0  0  0  0  0
  160.7520  204.9240  149.8240 C   0  0  0  0  0  0  0  0  0  0  0  0
  160.3970  205.7660  148.9540 O   0  0  0  0  0  0  0  0  0  0  0  0
  161.0150  205.3450  151.1690 N   0  0  0  0  0  2  0  0  0  0  0  0
  161.0700  202.5290  150.4470 C   0  0  0  0  0  3  0  0  0  0  0  0
  160.9900  201.7650  147.7490 C   0  0  0  0  0  0  0  0  0  0  0  0
  160.8930  203.5040  149.4550 C   0  0  0  0  0  0  0  0  0  0  0  0
  160.8530  203.1130  148.1100 C   0  0  0  0  0  3  0  0  0  0  0  0
  161.1660  200.8030  148.7540 C   0  0  0  0  0  3  0  0  0  0  0  0
  161.2050  201.1830  150.0980 C   0  0  0  0  0  3  0  0  0  0  0  0
  160.9500  201.3660  146.3320 C   0  0  0  0  0  0  0  0  0  0  0  0
  160.6710  202.2120  145.4400 O   0  0  0  0  0  0  0  0  0  0  0  0
  161.2240  200.0200  145.9530 N   0  0  0  0  0  1  0  0  0  0  0  0
  161.6170  211.7210  150.6990 C   0  0  0  0  0  2  0  0  0  0  0  0
  160.3670  212.2410  150.1700 N   0  0  0  0  0  2  0  0  0  0  0  0
  160.3350  213.6620  150.4710 C   0  0  2  0  0  3  0  0  0  0  0  0
  158.8920  214.0830  150.7160 C   0  0  0  0  0  2  0  0  0  0  0  0
  158.6640  214.3460  152.1280 N   0  0  0  0  0  2  0  0  0  0  0  0
  157.5150  213.6340  152.5020 N   0  0  0  0  0  2  0  0  0  0  0  0
  157.9700  212.5860  153.8010 S   0  0  0  0  0  0  0  0  0  0  0  0
  159.3930  213.1960  154.5680 N   0  0  0  0  0  1  0  0  0  0  0  0
  158.2400  211.2060  153.2690 O   0  0  0  0  0  0  0  0  0  0  0  0
  156.8530  212.5240  154.8040 O   0  0  0  0  0  0  0  0  0  0  0  0
  160.9320  214.4340  149.3020 C   0  0  0  0  0  2  0  0  0  0  0  0
  161.5470  214.3020  147.1880 C   0  0  0  0  0  1  0  0  0  0  0  0
  160.6130  213.8060  148.0980 O   0  0  0  0  0  0  0  0  0  0  0  0
  2 13  1  0  0  0  0
  3  1  1  0  0  0  0
  4  9  1  0  0  0  0
  5 10  1  0  0  0  0
  6 13  1  0  0  0  0
  6  5  2  0  0  0  0
  7  6  1  0  0  0  0
  9 18  1  1  0  0  0
  9  2  1  0  0  0  0
 10  8  1  6  0  0  0
 10  1  1  0  0  0  0
 11  4  1  0  0  0  0
 11  7  2  0  0  0  0
 12  3  1  0  0  0  0
 14  5  1  0  0  0  0
 14 12  1  0  0  0  0
 15  7  1  0  0  0  0
 16 18  1  0  0  0  0
 17 16  2  0  0  0  0
 20 22  2  0  0  0  0
 20 23  1  0  0  0  0
 21 16  1  0  0  0  0
 21 19  2  0  0  0  0
 22 21  1  0  0  0  0
 23 24  2  0  0  0  0
 24 19  1  0  0  0  0
 25 20  1  0  0  0  0
 26 25  2  0  0  0  0
 27 25  1  0  0  0  0
 28 15  1  0  0  0  0
 29 30  1  0  0  0  0
 29 28  1  0  0  0  0
 30 38  1  6  0  0  0
 30 31  1  0  0  0  0
 31 32  1  0  0  0  0
 32 33  1  0  0  0  0
 33 34  1  0  0  0  0
 34 35  1  0  0  0  0
 34 37  2  0  0  0  0
 36 34  2  0  0  0  0
 39 40  1  0  0  0  0
 40 38  1  0  0  0  0
M  END
>  <MODEL>
1

>  <REMARK>
 VINA RESULT:      -6.0      0.000      0.000
  Name = 
  12 active torsions:
  status: ('A' for Active; 'I' for Inactive)
    1  A    between atoms: C_1  and  C_12
    2  A    between atoms: C_2  and  N_9
    3  A    between atoms: C_2  and  C_27
    4  A    between atoms: C_2  and  C_30
    5  A    between atoms: S_4  and  N_40
    6  A    between atoms: C_6  and  C_11
    7  A    between atoms: N_9  and  C_19
    8  A    between atoms: N_16  and  C_27
    9  A    between atoms: N_16  and  N_40
   10  A    between atoms: C_19  and  N_38
   11  A    between atoms: O_26  and  C_30
   12  A    between atoms: C_28  and  N_39
                            x       y       z     vdW  Elec       q    Type
                         _______ _______ _______ _____ _____    ______ ____

>  <TORSDO>
F 12

$$$$
=
 OpenBabel11052411493D

 40 42  0  0  1  0  0  0  0  0999 V2000
  161.8310  208.5280  156.9420 C   0  0  0  0  0  2  0  0  0  0  0  0
  160.9960  207.0790  151.9570 C   0  0  0  0  0  2  0  0  0  0  0  0
  161.8080  210.0090  157.2610 C   0  0  0  0  0  2  0  0  0  0  0  0
  162.0980  208.9100  150.6330 C   0  0  0  0  0  2  0  0  0  0  0  0
  161.4460  209.3380  154.5090 C   0  0  0  0  0  0  0  0  0  0  0  0
  160.8940  209.1990  153.2810 C   0  0  0  0  0  0  0  0  0  0  0  0
  160.9160  210.2930  152.2810 C   0  0  0  0  0  0  0  0  0  0  0  0
  161.9550  207.0640  155.0740 O   0  0  0  0  0  1  0  0  0  0  0  0
  161.1410  207.7240  150.5820 C   0  0  1  0  0  3  0  0  0  0  0  0
  161.3130  208.2150  155.5330 C   0  0  1  0  0  3  0  0  0  0  0  0
  161.4240  210.1200  151.0930 N   0  0  0  0  0  0  0  0  0  0  0  0
  162.7180  210.6990  156.2680 C   0  0  0  0  0  2  0  0  0  0  0  0
  160.1630  207.9450  152.8920 C   0  0  0  0  0  2  0  0  0  0  0  0
  162.1060  210.6550  154.8740 C   0  0  0  0  0  2  0  0  0  0  0  0
  160.3230  211.5510  152.6230 N   0  0  0  0  0  2  0  0  0  0  0  0
  160.8290  206.2620  148.4990 C   0  0  0  0  0  0  0  0  0  0  0  0
  159.6570  206.6900  148.3130 O   0  0  0  0  0  0  0  0  0  0  0  0
  161.6030  206.7410  149.6080 N   0  0  0  0  0  2  0  0  0  0  0  0
  162.2900  205.6630  146.5680 C   0  0  0  0  0  3  0  0  0  0  0  0
  161.6010  202.9560  146.8220 C   0  0  0  0  0  0  0  0  0  0  0  0
  161.4010  205.2650  147.5770 C   0  0  0  0  0  0  0  0  0  0  0  0
  161.0630  203.9110  147.6970 C   0  0  0  0  0  3  0  0  0  0  0  0
  162.4890  203.3710  145.8190 C   0  0  0  0  0  3  0  0  0  0  0  0
  162.8320  204.7190  145.6930 C   0  0  0  0  0  3  0  0  0  0  0  0
  161.2360  201.5350  146.9560 C   0  0  0  0  0  0  0  0  0  0  0  0
  160.9100  200.8630  145.9410 O   0  0  0  0  0  0  0  0  0  0  0  0
  161.2450  200.9050  148.2340 N   0  0  0  0  0  1  0  0  0  0  0  0
  160.2350  212.6610  151.6870 C   0  0  0  0  0  2  0  0  0  0  0  0
  159.6300  213.8080  152.3440 N   0  0  0  0  0  2  0  0  0  0  0  0
  158.4770  214.1950  151.5490 C   0  0  2  0  0  3  0  0  0  0  0  0
  157.2170  213.6560  152.2140 C   0  0  0  0  0  2  0  0  0  0  0  0
  157.4270  213.4660  153.6410 N   0  0  0  0  0  2  0  0  0  0  0  0
  156.2100  213.0310  154.1850 N   0  0  0  0  0  2  0  0  0  0  0  0
  156.5680  211.6880  155.2140 S   0  0  0  0  0  0  0  0  0  0  0  0
  156.4050  212.1640  156.8680 N   0  0  0  0  0  1  0  0  0  0  0  0
  157.9720  211.2160  154.9640 O   0  0  0  0  0  0  0  0  0  0  0  0
  155.6060  210.5700  154.9230 O   0  0  0  0  0  0  0  0  0  0  0  0
  158.6270  213.6310  150.1420 C   0  0  0  0  0  2  0  0  0  0  0  0
  157.4570  213.0050  148.3810 C   0  0  0  0  0  1  0  0  0  0  0  0
  157.5330  213.9980  149.3590 O   0  0  0  0  0  0  0  0  0  0  0  0
  1  3  1  0  0  0  0
  2 13  1  0  0  0  0
  4 11  1  0  0  0  0
  5 14  1  0  0  0  0
  5 10  1  0  0  0  0
  6  5  2  0  0  0  0
  7 15  1  0  0  0  0
  7  6  1  0  0  0  0
  9 18  1  6  0  0  0
  9  4  1  0  0  0  0
  9  2  1  0  0  0  0
 10  8  1  6  0  0  0
 10  1  1  0  0  0  0
 11  7  2  0  0  0  0
 12  3  1  0  0  0  0
 13  6  1  0  0  0  0
 14 12  1  0  0  0  0
 16 18  1  0  0  0  0
 17 16  2  0  0  0  0
 19 21  1  0  0  0  0
 20 25  1  0  0  0  0
 20 22  1  0  0  0  0
 21 22  2  0  0  0  0
 21 16  1  0  0  0  0
 23 20  2  0  0  0  0
 24 23  1  0  0  0  0
 24 19  2  0  0  0  0
 25 27  1  0  0  0  0
 26 25  2  0  0  0  0
 28 29  1  0  0  0  0
 28 15  1  0  0  0  0
 30 38  1  6  0  0  0
 30 31  1  0  0  0  0
 30 29  1  0  0  0  0
 31 32  1  0  0  0  0
 32 33  1  0  0  0  0
 33 34  1  0  0  0  0
 34 35  1  0  0  0  0
 36 34  2  0  0  0  0
 37 34  2  0  0  0  0
 39 40  1  0  0  0  0
 40 38  1  0  0  0  0
M  END
>  <MODEL>
2

>  <REMARK>
 VINA RESULT:      -5.9      1.849      2.360
  Name = 
  12 active torsions:
  status: ('A' for Active; 'I' for Inactive)
    1  A    between atoms: C_1  and  C_12
    2  A    between atoms: C_2  and  N_9
    3  A    between atoms: C_2  and  C_27
    4  A    between atoms: C_2  and  C_30
    5  A    between atoms: S_4  and  N_40
    6  A    between atoms: C_6  and  C_11
    7  A    between atoms: N_9  and  C_19
    8  A    between atoms: N_16  and  C_27
    9  A    between atoms: N_16  and  N_40
   10  A    between atoms: C_19  and  N_38
   11  A    between atoms: O_26  and  C_30
   12  A    between atoms: C_28  and  N_39
                            x       y       z     vdW  Elec       q    Type
                         _______ _______ _______ _____ _____    ______ ____

>  <TORSDO>
F 12

$$$$
=
 OpenBabel11052411493D

 40 42  0  0  1  0  0  0  0  0999 V2000
  160.2270  213.8650  149.2130 C   0  0  0  0  0  2  0  0  0  0  0  0
  162.3270  209.0650  148.7790 C   0  0  0  0  0  2  0  0  0  0  0  0
  159.9230  214.3810  150.6050 C   0  0  0  0  0  2  0  0  0  0  0  0
  161.2220  207.7830  150.6380 C   0  0  0  0  0  2  0  0  0  0  0  0
  160.9640  211.7250  150.4770 C   0  0  0  0  0  0  0  0  0  0  0  0
  161.7760  210.6530  150.6320 C   0  0  0  0  0  0  0  0  0  0  0  0
  161.7720  209.8350  151.8670 C   0  0  0  0  0  0  0  0  0  0  0  0
  160.7560  211.8380  148.0910 O   0  0  0  0  0  1  0  0  0  0  0  0
  162.3620  207.7950  149.6250 C   0  0  1  0  0  3  0  0  0  0  0  0
  161.0750  212.5880  149.2240 C   0  0  1  0  0  3  0  0  0  0  0  0
  161.5620  208.5500  151.8330 N   0  0  0  0  0  0  0  0  0  0  0  0
  159.1340  213.3060  151.3210 C   0  0  0  0  0  2  0  0  0  0  0  0
  162.7810  210.2780  149.5790 C   0  0  0  0  0  2  0  0  0  0  0  0
  160.0210  212.1020  151.6050 C   0  0  0  0  0  2  0  0  0  0  0  0
  162.0500  210.4760  153.1180 N   0  0  0  0  0  2  0  0  0  0  0  0
  161.0840  206.0720  148.2210 C   0  0  0  0  0  0  0  0  0  0  0  0
  159.9750  206.6190  148.4690 O   0  0  0  0  0  0  0  0  0  0  0  0
  162.2940  206.6150  148.7700 N   0  0  0  0  0  2  0  0  0  0  0  0
  161.1600  204.9960  145.9710 C   0  0  0  0  0  3  0  0  0  0  0  0
  161.2100  202.4460  147.1380 C   0  0  0  0  0  0  0  0  0  0  0  0
  161.1370  204.8720  147.3680 C   0  0  0  0  0  0  0  0  0  0  0  0
  161.1630  203.5940  147.9420 C   0  0  0  0  0  3  0  0  0  0  0  0
  161.2330  202.5890  145.7430 C   0  0  0  0  0  3  0  0  0  0  0  0
  161.2080  203.8600  145.1620 C   0  0  0  0  0  3  0  0  0  0  0  0
  161.2350  201.1080  147.7530 C   0  0  0  0  0  0  0  0  0  0  0  0
  161.3380  200.0780  147.0330 O   0  0  0  0  0  0  0  0  0  0  0  0
  161.1400  200.9610  149.1670 N   0  0  0  0  0  1  0  0  0  0  0  0
  162.1350  209.7470  154.3740 C   0  0  0  0  0  2  0  0  0  0  0  0
  161.7200  210.6080  155.4690 N   0  0  0  0  0  2  0  0  0  0  0  0
  160.6380  209.9280  156.1590 C   0  0  2  0  0  3  0  0  0  0  0  0
  159.7200  210.9700  156.7860 C   0  0  0  0  0  2  0  0  0  0  0  0
  158.3400  210.7530  156.3810 N   0  0  0  0  0  2  0  0  0  0  0  0
  158.1760  211.3580  155.1270 N   0  0  0  0  0  2  0  0  0  0  0  0
  156.6070  212.0860  155.1180 S   0  0  0  0  0  0  0  0  0  0  0  0
  155.3960  210.8530  155.1340 N   0  0  0  0  0  1  0  0  0  0  0  0
  156.4450  212.9320  153.8870 O   0  0  0  0  0  0  0  0  0  0  0  0
  156.4530  212.9490  156.3390 O   0  0  0  0  0  0  0  0  0  0  0  0
  161.2220  209.0120  157.2250 C   0  0  0  0  0  2  0  0  0  0  0  0
  160.0620  207.1360  157.2600 C   0  0  0  0  0  1  0  0  0  0  0  0
  161.2430  207.6940  156.7680 O   0  0  0  0  0  0  0  0  0  0  0  0
  1 10  1  0  0  0  0
  1  3  1  0  0  0  0
  2 13  1  0  0  0  0
  2  9  1  0  0  0  0
  3 12  1  0  0  0  0
  4 11  1  0  0  0  0
  5  6  2  0  0  0  0
  5 14  1  0  0  0  0
  6  7  1  0  0  0  0
  7 15  1  0  0  0  0
  9 18  1  6  0  0  0
  9  4  1  0  0  0  0
 10  8  1  6  0  0  0
 10  5  1  0  0  0  0
 11  7  2  0  0  0  0
 12 14  1  0  0  0  0
 13  6  1  0  0  0  0
 15 28  1  0  0  0  0
 16 17  2  0  0  0  0
 16 18  1  0  0  0  0
 19 21  1  0  0  0  0
 20 25  1  0  0  0  0
 20 22  1  0  0  0  0
 21 22  2  0  0  0  0
 21 16  1  0  0  0  0
 23 20  2  0  0  0  0
 24 23  1  0  0  0  0
 24 19  2  0  0  0  0
 25 27  1  0  0  0  0
 26 25  2  0  0  0  0
 28 29  1  0  0  0  0
 29 30  1  0  0  0  0
 30 31  1  1  0  0  0
 30 38  1  0  0  0  0
 32 31  1  0  0  0  0
 33 32  1  0  0  0  0
 34 33  1  0  0  0  0
 34 35  1  0  0  0  0
 34 37  2  0  0  0  0
 36 34  2  0  0  0  0
 40 38  1  0  0  0  0
 40 39  1  0  0  0  0
M  END
>  <MODEL>
3

>  <REMARK>
 VINA RESULT:      -5.5      2.041      5.349
  Name = 
  12 active torsions:
  status: ('A' for Active; 'I' for Inactive)
    1  A    between atoms: C_1  and  C_12
    2  A    between atoms: C_2  and  N_9
    3  A    between atoms: C_2  and  C_27
    4  A    between atoms: C_2  and  C_30
    5  A    between atoms: S_4  and  N_40
    6  A    between atoms: C_6  and  C_11
    7  A    between atoms: N_9  and  C_19
    8  A    between atoms: N_16  and  C_27
    9  A    between atoms: N_16  and  N_40
   10  A    between atoms: C_19  and  N_38
   11  A    between atoms: O_26  and  C_30
   12  A    between atoms: C_28  and  N_39
                            x       y       z     vdW  Elec       q    Type
                         _______ _______ _______ _____ _____    ______ ____

>  <TORSDO>
F 12

$$$$
=
 OpenBabel11052411493D

 40 42  0  0  1  0  0  0  0  0999 V2000
  162.2000  208.9310  157.1200 C   0  0  0  0  0  2  0  0  0  0  0  0
  160.7250  207.0680  152.4300 C   0  0  0  0  0  2  0  0  0  0  0  0
  162.3820  210.4290  157.2610 C   0  0  0  0  0  2  0  0  0  0  0  0
  161.9000  208.5900  150.8110 C   0  0  0  0  0  2  0  0  0  0  0  0
  161.6800  209.5150  154.6480 C   0  0  0  0  0  0  0  0  0  0  0  0
  161.0000  209.3150  153.4950 C   0  0  0  0  0  0  0  0  0  0  0  0
  161.0530  210.2820  152.3730 C   0  0  0  0  0  0  0  0  0  0  0  0
  161.9710  207.2690  155.4370 O   0  0  0  0  0  1  0  0  0  0  0  0
  160.8100  207.5360  150.9810 C   0  0  1  0  0  3  0  0  0  0  0  0
  161.5160  208.5360  155.8070 C   0  0  1  0  0  3  0  0  0  0  0  0
  161.4200  209.9180  151.1770 N   0  0  0  0  0  0  0  0  0  0  0  0
  163.2660  210.8860  156.1210 C   0  0  0  0  0  2  0  0  0  0  0  0
  160.0920  208.1300  153.3200 C   0  0  0  0  0  2  0  0  0  0  0  0
  162.5220  210.7680  154.7970 C   0  0  0  0  0  2  0  0  0  0  0  0
  160.6470  211.6350  152.6100 N   0  0  0  0  0  2  0  0  0  0  0  0
  161.2560  206.5000  148.6790 C   0  0  0  0  0  0  0  0  0  0  0  0
  161.2190  207.6250  148.1100 O   0  0  0  0  0  0  0  0  0  0  0  0
  161.0580  206.4020  150.0960 N   0  0  0  0  0  2  0  0  0  0  0  0
  162.1010  205.3710  146.6200 C   0  0  0  0  0  3  0  0  0  0  0  0
  161.3590  202.8620  147.6320 C   0  0  0  0  0  0  0  0  0  0  0  0
  161.5000  205.2830  147.8840 C   0  0  0  0  0  0  0  0  0  0  0  0
  161.1330  204.0250  148.3820 C   0  0  0  0  0  3  0  0  0  0  0  0
  161.9620  202.9690  146.3700 C   0  0  0  0  0  3  0  0  0  0  0  0
  162.3320  204.2180  145.8660 C   0  0  0  0  0  3  0  0  0  0  0  0
  160.9660  201.5460  148.1640 C   0  0  0  0  0  0  0  0  0  0  0  0
  161.5140  200.4960  147.7330 O   0  0  0  0  0  0  0  0  0  0  0  0
  159.9620  201.4450  149.1700 N   0  0  0  0  0  1  0  0  0  0  0  0
  160.5990  212.6390  151.5580 C   0  0  0  0  0  2  0  0  0  0  0  0
  160.8660  212.0140  150.2730 N   0  0  0  0  0  2  0  0  0  0  0  0
  160.4400  212.9500  149.2480 C   0  0  2  0  0  3  0  0  0  0  0  0
  161.6720  213.5900  148.6210 C   0  0  0  0  0  2  0  0  0  0  0  0
  161.6940  213.3680  147.1830 N   0  0  0  0  0  2  0  0  0  0  0  0
  160.3610  213.3460  146.7470 N   0  0  0  0  0  2  0  0  0  0  0  0
  160.3960  213.2050  145.0230 S   0  0  0  0  0  0  0  0  0  0  0  0
  162.0330  213.0660  144.4860 N   0  0  0  0  0  1  0  0  0  0  0  0
  159.7650  214.4190  144.4010 O   0  0  0  0  0  0  0  0  0  0  0  0
  159.6320  211.9780  144.6100 O   0  0  0  0  0  0  0  0  0  0  0  0
  159.5450  214.0090  149.8780 C   0  0  0  0  0  2  0  0  0  0  0  0
  157.3830  213.9850  150.3170 C   0  0  0  0  0  1  0  0  0  0  0  0
  158.2940  214.0100  149.2600 O   0  0  0  0  0  0  0  0  0  0  0  0
  1  3  1  0  0  0  0
  2 13  1  0  0  0  0
  4  9  1  0  0  0  0
  4 11  1  0  0  0  0
  5 14  1  0  0  0  0
  5 10  1  0  0  0  0
  6  5  2  0  0  0  0
  7 15  1  0  0  0  0
  7  6  1  0  0  0  0
  9 18  1  6  0  0  0
  9  2  1  0  0  0  0
 10  8  1  6  0  0  0
 10  1  1  0  0  0  0
 11  7  2  0  0  0  0
 12  3  1  0  0  0  0
 13  6  1  0  0  0  0
 14 12  1  0  0  0  0
 16 18  1  0  0  0  0
 17 16  2  0  0  0  0
 19 21  1  0  0  0  0
 20 25  1  0  0  0  0
 20 22  1  0  0  0  0
 21 22  2  0  0  0  0
 21 16  1  0  0  0  0
 23 20  2  0  0  0  0
 24 23  1  0  0  0  0
 24 19  2  0  0  0  0
 25 27  1  0  0  0  0
 26 25  2  0  0  0  0
 28 15  1  0  0  0  0
 29 28  1  0  0  0  0
 30 31  1  1  0  0  0
 30 38  1  0  0  0  0
 30 29  1  0  0  0  0
 32 31  1  0  0  0  0
 33 32  1  0  0  0  0
 34 33  1  0  0  0  0
 35 34  1  0  0  0  0
 36 34  2  0  0  0  0
 37 34  2  0  0  0  0
 40 38  1  0  0  0  0
 40 39  1  0  0  0  0
M  END
>  <MODEL>
4

>  <REMARK>
 VINA RESULT:      -5.1      2.560      4.009
  Name = 
  12 active torsions:
  status: ('A' for Active; 'I' for Inactive)
    1  A    between atoms: C_1  and  C_12
    2  A    between atoms: C_2  and  N_9
    3  A    between atoms: C_2  and  C_27
    4  A    between atoms: C_2  and  C_30
    5  A    between atoms: S_4  and  N_40
    6  A    between atoms: C_6  and  C_11
    7  A    between atoms: N_9  and  C_19
    8  A    between atoms: N_16  and  C_27
    9  A    between atoms: N_16  and  N_40
   10  A    between atoms: C_19  and  N_38
   11  A    between atoms: O_26  and  C_30
   12  A    between atoms: C_28  and  N_39
                            x       y       z     vdW  Elec       q    Type
                         _______ _______ _______ _____ _____    ______ ____

>  <TORSDO>
F 12

$$$$
=
 OpenBabel11052411493D

 40 42  0  0  1  0  0  0  0  0999 V2000
  160.8060  200.3390  146.5400 C   0  0  0  0  0  2  0  0  0  0  0  0
  161.5910  205.0480  148.7420 C   0  0  0  0  0  2  0  0  0  0  0  0
  160.6300  200.2820  145.0360 C   0  0  0  0  0  2  0  0  0  0  0  0
  160.1710  206.5810  147.3450 C   0  0  0  0  0  2  0  0  0  0  0  0
  160.9470  202.8960  146.1400 C   0  0  0  0  0  0  0  0  0  0  0  0
  161.4510  204.1200  146.4230 C   0  0  0  0  0  0  0  0  0  0  0  0
  161.2220  205.2890  145.5420 C   0  0  0  0  0  0  0  0  0  0  0  0
  160.8020  201.9120  148.3210 O   0  0  0  0  0  1  0  0  0  0  0  0
  161.2860  206.4990  148.3820 C   0  0  1  0  0  3  0  0  0  0  0  0
  161.2930  201.7070  147.0300 C   0  0  1  0  0  3  0  0  0  0  0  0
  160.6850  206.3880  145.9930 N   0  0  0  0  0  0  0  0  0  0  0  0
  159.5820  201.3080  144.6650 C   0  0  0  0  0  2  0  0  0  0  0  0
  162.3360  204.3410  147.6180 C   0  0  0  0  0  2  0  0  0  0  0  0
  160.1230  202.7150  144.8790 C   0  0  0  0  0  2  0  0  0  0  0  0
  161.6430  205.2140  144.1750 N   0  0  0  0  0  2  0  0  0  0  0  0
  161.8390  207.6310  150.6150 C   0  0  0  0  0  0  0  0  0  0  0  0
  163.0560  207.3110  150.5330 O   0  0  0  0  0  0  0  0  0  0  0  0
  160.9230  207.2520  149.5780 N   0  0  0  0  0  2  0  0  0  0  0  0
  160.9680  209.7330  151.6390 C   0  0  0  0  0  3  0  0  0  0  0  0
  160.8290  208.5070  154.1580 C   0  0  0  0  0  0  0  0  0  0  0  0
  161.3570  208.3930  151.7810 C   0  0  0  0  0  0  0  0  0  0  0  0
  161.2830  207.7890  153.0430 C   0  0  0  0  0  3  0  0  0  0  0  0
  160.4430  209.8460  153.9980 C   0  0  0  0  0  3  0  0  0  0  0  0
  160.5130  210.4570  152.7430 C   0  0  0  0  0  3  0  0  0  0  0  0
  160.7580  207.8620  155.4800 C   0  0  0  0  0  0  0  0  0  0  0  0
  161.6440  208.0890  156.3480 O   0  0  0  0  0  0  0  0  0  0  0  0
  159.6900  206.9720  155.7930 N   0  0  0  0  0  1  0  0  0  0  0  0
  161.5220  206.3310  143.2510 C   0  0  0  0  0  2  0  0  0  0  0  0
  161.6070  205.8470  141.8830 N   0  0  0  0  0  2  0  0  0  0  0  0
  162.3390  206.8440  141.1230 C   0  0  2  0  0  3  0  0  0  0  0  0
  161.3930  207.9810  140.7590 C   0  0  0  0  0  2  0  0  0  0  0  0
  162.1330  209.1220  140.2430 N   0  0  0  0  0  2  0  0  0  0  0  0
  161.2040  210.1460  140.0080 N   0  0  0  0  0  2  0  0  0  0  0  0
  162.0670  211.6430  140.1030 S   0  0  0  0  0  0  0  0  0  0  0  0
  161.1400  212.8950  139.3550 N   0  0  0  0  0  1  0  0  0  0  0  0
  163.3900  211.5120  139.4040 O   0  0  0  0  0  0  0  0  0  0  0  0
  162.2980  211.9910  141.5470 O   0  0  0  0  0  0  0  0  0  0  0  0
  162.9110  206.1960  139.8680 C   0  0  0  0  0  2  0  0  0  0  0  0
  162.6990  206.5350  137.6990 C   0  0  0  0  0  1  0  0  0  0  0  0
  161.9650  206.2160  138.8430 O   0  0  0  0  0  0  0  0  0  0  0  0
  1 10  1  0  0  0  0
  3  1  1  0  0  0  0
  4  9  1  0  0  0  0
  5  6  2  0  0  0  0
  5 10  1  0  0  0  0
  6 13  1  0  0  0  0
  7 11  2  0  0  0  0
  7  6  1  0  0  0  0
  9  2  1  0  0  0  0
  9 18  1  1  0  0  0
 10  8  1  1  0  0  0
 11  4  1  0  0  0  0
 12 14  1  0  0  0  0
 12  3  1  0  0  0  0
 13  2  1  0  0  0  0
 14  5  1  0  0  0  0
 15  7  1  0  0  0  0
 16 21  1  0  0  0  0
 17 16  2  0  0  0  0
 18 16  1  0  0  0  0
 19 21  2  0  0  0  0
 19 24  1  0  0  0  0
 20 25  1  0  0  0  0
 21 22  1  0  0  0  0
 22 20  2  0  0  0  0
 23 20  1  0  0  0  0
 24 23  2  0  0  0  0
 25 27  1  0  0  0  0
 25 26  2  0  0  0  0
 28 15  1  0  0  0  0
 29 28  1  0  0  0  0
 30 38  1  6  0  0  0
 30 29  1  0  0  0  0
 31 30  1  0  0  0  0
 32 31  1  0  0  0  0
 33 34  1  0  0  0  0
 33 32  1  0  0  0  0
 34 37  2  0  0  0  0
 35 34  1  0  0  0  0
 36 34  2  0  0  0  0
 39 40  1  0  0  0  0
 40 38  1  0  0  0  0
M  END
>  <MODEL>
5

>  <REMARK>
 VINA RESULT:      -5.0      5.718     10.761
  Name = 
  12 active torsions:
  status: ('A' for Active; 'I' for Inactive)
    1  A    between atoms: C_1  and  C_12
    2  A    between atoms: C_2  and  N_9
    3  A    between atoms: C_2  and  C_27
    4  A    between atoms: C_2  and  C_30
    5  A    between atoms: S_4  and  N_40
    6  A    between atoms: C_6  and  C_11
    7  A    between atoms: N_9  and  C_19
    8  A    between atoms: N_16  and  C_27
    9  A    between atoms: N_16  and  N_40
   10  A    between atoms: C_19  and  N_38
   11  A    between atoms: O_26  and  C_30
   12  A    between atoms: C_28  and  N_39
                            x       y       z     vdW  Elec       q    Type
                         _______ _______ _______ _____ _____    ______ ____

>  <TORSDO>
F 12

$$$$
=
 OpenBabel11052411493D

 40 42  0  0  1  0  0  0  0  0999 V2000
  161.1000  201.7920  151.4970 C   0  0  0  0  0  2  0  0  0  0  0  0
  162.0930  206.8580  152.4940 C   0  0  0  0  0  2  0  0  0  0  0  0
  160.9700  201.3690  150.0480 C   0  0  0  0  0  2  0  0  0  0  0  0
  160.8120  208.0600  150.6970 C   0  0  0  0  0  2  0  0  0  0  0  0
  161.4060  204.1570  150.4810 C   0  0  0  0  0  0  0  0  0  0  0  0
  161.9730  205.3870  150.4750 C   0  0  0  0  0  0  0  0  0  0  0  0
  161.8410  206.3070  149.3210 C   0  0  0  0  0  0  0  0  0  0  0  0
  161.1330  203.7600  152.8300 O   0  0  0  0  0  1  0  0  0  0  0  0
  161.8870  208.1860  151.7720 C   0  0  1  0  0  3  0  0  0  0  0  0
  161.6520  203.2140  151.6540 C   0  0  1  0  0  3  0  0  0  0  0  0
  161.3570  207.5090  149.4600 N   0  0  0  0  0  0  0  0  0  0  0  0
  159.9960  202.3200  149.3860 C   0  0  0  0  0  2  0  0  0  0  0  0
  162.8310  205.8560  151.6160 C   0  0  0  0  0  2  0  0  0  0  0  0
  160.6130  203.7080  149.2690 C   0  0  0  0  0  2  0  0  0  0  0  0
  162.3000  205.8710  148.0360 N   0  0  0  0  0  2  0  0  0  0  0  0
  160.7790  209.0190  153.9280 C   0  0  0  0  0  0  0  0  0  0  0  0
  160.3720  207.8620  154.2250 O   0  0  0  0  0  0  0  0  0  0  0  0
  161.5310  209.2310  152.7250 N   0  0  0  0  0  2  0  0  0  0  0  0
  161.4910  210.7310  155.5980 C   0  0  0  0  0  3  0  0  0  0  0  0
  158.8800  211.7460  155.7440 C   0  0  0  0  0  0  0  0  0  0  0  0
  160.4780  210.1540  154.8190 C   0  0  0  0  0  0  0  0  0  0  0  0
  159.1770  210.6690  154.8970 C   0  0  0  0  0  3  0  0  0  0  0  0
  159.9060  212.3110  156.5160 C   0  0  0  0  0  3  0  0  0  0  0  0
  161.2060  211.8060  156.4430 C   0  0  0  0  0  3  0  0  0  0  0  0
  157.5080  212.2760  155.8210 C   0  0  0  0  0  0  0  0  0  0  0  0
  157.1880  213.3100  155.1750 O   0  0  0  0  0  0  0  0  0  0  0  0
  156.5280  211.6280  156.6270 N   0  0  0  0  0  1  0  0  0  0  0  0
  162.2760  206.7260  146.8590 C   0  0  0  0  0  2  0  0  0  0  0  0
  161.2660  206.2500  145.9290 N   0  0  0  0  0  2  0  0  0  0  0  0
  161.9350  205.3720  144.9860 C   0  0  2  0  0  3  0  0  0  0  0  0
  161.2080  205.4360  143.6490 C   0  0  0  0  0  2  0  0  0  0  0  0
  161.9570  206.2340  142.6920 N   0  0  0  0  0  2  0  0  0  0  0  0
  161.5620  205.8240  141.4110 N   0  0  0  0  0  2  0  0  0  0  0  0
  162.2450  206.9490  140.2870 S   0  0  0  0  0  0  0  0  0  0  0  0
  161.2460  208.3570  140.1970 N   0  0  0  0  0  1  0  0  0  0  0  0
  162.3410  206.3150  138.9280 O   0  0  0  0  0  0  0  0  0  0  0  0
  163.6180  207.3430  140.7520 O   0  0  0  0  0  0  0  0  0  0  0  0
  161.9300  203.9510  145.5350 C   0  0  0  0  0  2  0  0  0  0  0  0
  160.8300  202.0500  145.7380 C   0  0  0  0  0  1  0  0  0  0  0  0
  160.8650  203.2300  144.9940 O   0  0  0  0  0  0  0  0  0  0  0  0
  1 10  1  0  0  0  0
  3  1  1  0  0  0  0
  4  9  1  0  0  0  0
  5 10  1  0  0  0  0
  6  5  2  0  0  0  0
  6 13  1  0  0  0  0
  7 11  2  0  0  0  0
  7  6  1  0  0  0  0
  9  2  1  0  0  0  0
  9 18  1  1  0  0  0
 10  8  1  1  0  0  0
 11  4  1  0  0  0  0
 12  3  1  0  0  0  0
 13  2  1  0  0  0  0
 14 12  1  0  0  0  0
 14  5  1  0  0  0  0
 15  7  1  0  0  0  0
 16 17  2  0  0  0  0
 16 21  1  0  0  0  0
 18 16  1  0  0  0  0
 19 24  1  0  0  0  0
 20 25  1  0  0  0  0
 20 23  1  0  0  0  0
 21 22  1  0  0  0  0
 21 19  2  0  0  0  0
 22 20  2  0  0  0  0
 24 23  2  0  0  0  0
 25 27  1  0  0  0  0
 26 25  2  0  0  0  0
 28 15  1  0  0  0  0
 29 28  1  0  0  0  0
 30 31  1  6  0  0  0
 30 38  1  0  0  0  0
 30 29  1  0  0  0  0
 32 31  1  0  0  0  0
 33 32  1  0  0  0  0
 34 37  2  0  0  0  0
 34 33  1  0  0  0  0
 35 34  1  0  0  0  0
 36 34  2  0  0  0  0
 40 38  1  0  0  0  0
 40 39  1  0  0  0  0
M  END
>  <MODEL>
6

>  <REMARK>
 VINA RESULT:      -4.9      4.459     10.449
  Name = 
  12 active torsions:
  status: ('A' for Active; 'I' for Inactive)
    1  A    between atoms: C_1  and  C_12
    2  A    between atoms: C_2  and  N_9
    3  A    between atoms: C_2  and  C_27
    4  A    between atoms: C_2  and  C_30
    5  A    between atoms: S_4  and  N_40
    6  A    between atoms: C_6  and  C_11
    7  A    between atoms: N_9  and  C_19
    8  A    between atoms: N_16  and  C_27
    9  A    between atoms: N_16  and  N_40
   10  A    between atoms: C_19  and  N_38
   11  A    between atoms: O_26  and  C_30
   12  A    between atoms: C_28  and  N_39
                            x       y       z     vdW  Elec       q    Type
                         _______ _______ _______ _____ _____    ______ ____

>  <TORSDO>
F 12

$$$$
=
 OpenBabel11052411493D

 40 42  0  0  1  0  0  0  0  0999 V2000
  160.8170  200.3100  146.5310 C   0  0  0  0  0  2  0  0  0  0  0  0
  161.5820  205.0150  148.7490 C   0  0  0  0  0  2  0  0  0  0  0  0
  160.6510  200.2560  145.0260 C   0  0  0  0  0  2  0  0  0  0  0  0
  160.1690  206.5490  147.3460 C   0  0  0  0  0  2  0  0  0  0  0  0
  160.9570  202.8680  146.1370 C   0  0  0  0  0  0  0  0  0  0  0  0
  161.4580  204.0920  146.4270 C   0  0  0  0  0  0  0  0  0  0  0  0
  161.2320  205.2630  145.5470 C   0  0  0  0  0  0  0  0  0  0  0  0
  160.8000  201.8790  148.3160 O   0  0  0  0  0  1  0  0  0  0  0  0
  161.2770  206.4660  148.3900 C   0  0  1  0  0  3  0  0  0  0  0  0
  161.2990  201.6770  147.0270 C   0  0  1  0  0  3  0  0  0  0  0  0
  160.6910  206.3600  145.9970 N   0  0  0  0  0  0  0  0  0  0  0  0
  159.6030  201.2820  144.6500 C   0  0  0  0  0  2  0  0  0  0  0  0
  162.3350  204.3120  147.6280 C   0  0  0  0  0  2  0  0  0  0  0  0
  160.1410  202.6890  144.8710 C   0  0  0  0  0  2  0  0  0  0  0  0
  161.6620  205.1910  144.1820 N   0  0  0  0  0  2  0  0  0  0  0  0
  161.7630  207.4310  150.7150 C   0  0  0  0  0  0  0  0  0  0  0  0
  162.9320  206.9570  150.7230 O   0  0  0  0  0  0  0  0  0  0  0  0
  160.9060  207.2160  149.5860 N   0  0  0  0  0  2  0  0  0  0  0  0
  161.2100  207.6180  153.1410 C   0  0  0  0  0  3  0  0  0  0  0  0
  160.4170  210.2880  152.8050 C   0  0  0  0  0  0  0  0  0  0  0  0
  161.2790  208.2080  151.8710 C   0  0  0  0  0  0  0  0  0  0  0  0
  160.8820  209.5420  151.7120 C   0  0  0  0  0  3  0  0  0  0  0  0
  160.3550  209.6830  154.0680 C   0  0  0  0  0  3  0  0  0  0  0  0
  160.7500  208.3530  154.2360 C   0  0  0  0  0  3  0  0  0  0  0  0
  159.9990  211.6890  152.6260 C   0  0  0  0  0  0  0  0  0  0  0  0
  160.1710  212.2680  151.5200 O   0  0  0  0  0  0  0  0  0  0  0  0
  159.3970  212.4050  153.7000 N   0  0  0  0  0  1  0  0  0  0  0  0
  161.5450  206.3110  143.2600 C   0  0  0  0  0  2  0  0  0  0  0  0
  161.6230  205.8270  141.8910 N   0  0  0  0  0  2  0  0  0  0  0  0
  162.3220  206.8410  141.1210 C   0  0  2  0  0  3  0  0  0  0  0  0
  161.3400  207.9460  140.7530 C   0  0  0  0  0  2  0  0  0  0  0  0
  162.0250  209.0470  140.0950 N   0  0  0  0  0  2  0  0  0  0  0  0
  161.2090  210.1800  140.2250 N   0  0  0  0  0  2  0  0  0  0  0  0
  160.8860  210.7570  138.6260 S   0  0  0  0  0  0  0  0  0  0  0  0
  161.2400  212.4460  138.5360 N   0  0  0  0  0  1  0  0  0  0  0  0
  159.4410  210.5280  138.2860 O   0  0  0  0  0  0  0  0  0  0  0  0
  161.7530  210.0160  137.6470 O   0  0  0  0  0  0  0  0  0  0  0  0
  162.9080  206.2020  139.8690 C   0  0  0  0  0  2  0  0  0  0  0  0
  162.6970  206.5070  137.6950 C   0  0  0  0  0  1  0  0  0  0  0  0
  161.9640  206.2010  138.8420 O   0  0  0  0  0  0  0  0  0  0  0  0
  1 10  1  0  0  0  0
  3  1  1  0  0  0  0
  4  9  1  0  0  0  0
  5  6  2  0  0  0  0
  5 10  1  0  0  0  0
  6 13  1  0  0  0  0
  7 11  2  0  0  0  0
  7  6  1  0  0  0  0
  9  2  1  0  0  0  0
  9 18  1  1  0  0  0
 10  8  1  1  0  0  0
 11  4  1  0  0  0  0
 12 14  1  0  0  0  0
 12  3  1  0  0  0  0
 13  2  1  0  0  0  0
 14  5  1  0  0  0  0
 15  7  1  0  0  0  0
 16 17  2  0  0  0  0
 16 21  1  0  0  0  0
 18 16  1  0  0  0  0
 19 24  1  0  0  0  0
 20 23  1  0  0  0  0
 21 19  2  0  0  0  0
 22 21  1  0  0  0  0
 22 20  2  0  0  0  0
 23 24  2  0  0  0  0
 25 20  1  0  0  0  0
 25 27  1  0  0  0  0
 26 25  2  0  0  0  0
 28 15  1  0  0  0  0
 29 28  1  0  0  0  0
 30 38  1  6  0  0  0
 30 29  1  0  0  0  0
 31 30  1  0  0  0  0
 32 33  1  0  0  0  0
 32 31  1  0  0  0  0
 34 33  1  0  0  0  0
 35 34  1  0  0  0  0
 36 34  2  0  0  0  0
 37 34  2  0  0  0  0
 39 40  1  0  0  0  0
 40 38  1  0  0  0  0
M  END
>  <MODEL>
7

>  <REMARK>
 VINA RESULT:      -4.8      5.997     11.033
  Name = 
  12 active torsions:
  status: ('A' for Active; 'I' for Inactive)
    1  A    between atoms: C_1  and  C_12
    2  A    between atoms: C_2  and  N_9
    3  A    between atoms: C_2  and  C_27
    4  A    between atoms: C_2  and  C_30
    5  A    between atoms: S_4  and  N_40
    6  A    between atoms: C_6  and  C_11
    7  A    between atoms: N_9  and  C_19
    8  A    between atoms: N_16  and  C_27
    9  A    between atoms: N_16  and  N_40
   10  A    between atoms: C_19  and  N_38
   11  A    between atoms: O_26  and  C_30
   12  A    between atoms: C_28  and  N_39
                            x       y       z     vdW  Elec       q    Type
                         _______ _______ _______ _____ _____    ______ ____

>  <TORSDO>
F 12

$$$$
=
 OpenBabel11052411493D

 40 42  0  0  1  0  0  0  0  0999 V2000
  155.3640  213.7210  154.9760 C   0  0  0  0  0  2  0  0  0  0  0  0
  158.9640  214.2400  151.1800 C   0  0  0  0  0  2  0  0  0  0  0  0
  155.6940  212.8120  156.1430 C   0  0  0  0  0  2  0  0  0  0  0  0
  159.9960  211.9520  151.0470 C   0  0  0  0  0  2  0  0  0  0  0  0
  157.6730  212.9420  154.0890 C   0  0  0  0  0  0  0  0  0  0  0  0
  158.8370  213.1710  153.4380 C   0  0  0  0  0  0  0  0  0  0  0  0
  159.9670  212.2130  153.4870 C   0  0  0  0  0  0  0  0  0  0  0  0
  156.1240  214.2210  152.7800 O   0  0  0  0  0  1  0  0  0  0  0  0
  160.1340  213.4170  150.6480 C   0  0  1  0  0  3  0  0  0  0  0  0
  156.5770  214.0040  154.0830 C   0  0  1  0  0  3  0  0  0  0  0  0
  160.4890  211.7180  152.4010 N   0  0  0  0  0  0  0  0  0  0  0  0
  156.1660  211.4940  155.5700 C   0  0  0  0  0  2  0  0  0  0  0  0
  159.0710  214.4500  152.6840 C   0  0  0  0  0  2  0  0  0  0  0  0
  157.5210  211.6670  154.8970 C   0  0  0  0  0  2  0  0  0  0  0  0
  160.5190  211.8650  154.7620 N   0  0  0  0  0  2  0  0  0  0  0  0
  161.2590  212.9660  148.3900 C   0  0  0  0  0  0  0  0  0  0  0  0
  162.1830  212.2960  148.9270 O   0  0  0  0  0  0  0  0  0  0  0  0
  160.2230  213.5420  149.1970 N   0  0  0  0  0  2  0  0  0  0  0  0
  162.4470  213.1630  146.2040 C   0  0  0  0  0  3  0  0  0  0  0  0
  160.0140  213.5230  144.8580 C   0  0  0  0  0  0  0  0  0  0  0  0
  161.2470  213.1580  146.9280 C   0  0  0  0  0  0  0  0  0  0  0  0
  160.0350  213.3370  146.2470 C   0  0  0  0  0  3  0  0  0  0  0  0
  161.2240  213.5250  144.1490 C   0  0  0  0  0  3  0  0  0  0  0  0
  162.4360  213.3460  144.8200 C   0  0  0  0  0  3  0  0  0  0  0  0
  158.7340  213.7130  144.1530 C   0  0  0  0  0  0  0  0  0  0  0  0
  157.6500  213.7360  144.7950 O   0  0  0  0  0  0  0  0  0  0  0  0
  158.7080  213.8730  142.7370 N   0  0  0  0  0  1  0  0  0  0  0  0
  161.6710  210.9880  154.9090 C   0  0  0  0  0  2  0  0  0  0  0  0
  161.4150  210.0170  155.9600 N   0  0  0  0  0  2  0  0  0  0  0  0
  161.5730  208.6990  155.3700 C   0  0  2  0  0  3  0  0  0  0  0  0
  160.4600  208.4760  154.3540 C   0  0  0  0  0  2  0  0  0  0  0  0
  160.8920  207.5620  153.3080 N   0  0  0  0  0  2  0  0  0  0  0  0
  160.5400  208.1400  152.0800 N   0  0  0  0  0  2  0  0  0  0  0  0
  161.6200  207.4970  150.8910 S   0  0  0  0  0  0  0  0  0  0  0  0
  160.8180  206.2620  149.9860 N   0  0  0  0  0  1  0  0  0  0  0  0
  162.8310  206.9180  151.5650 O   0  0  0  0  0  0  0  0  0  0  0  0
  162.0440  208.5980  149.9600 O   0  0  0  0  0  0  0  0  0  0  0  0
  161.5170  207.6480  156.4700 C   0  0  0  0  0  2  0  0  0  0  0  0
  159.4330  206.9710  156.7210 C   0  0  0  0  0  1  0  0  0  0  0  0
  160.3830  207.8390  157.2600 O   0  0  0  0  0  0  0  0  0  0  0  0
  1  3  1  0  0  0  0
  2 13  1  0  0  0  0
  4 11  1  0  0  0  0
  5 14  1  0  0  0  0
  6  7  1  0  0  0  0
  6  5  2  0  0  0  0
  7 15  1  0  0  0  0
  9 18  1  6  0  0  0
  9  4  1  0  0  0  0
  9  2  1  0  0  0  0
 10  8  1  6  0  0  0
 10  5  1  0  0  0  0
 10  1  1  0  0  0  0
 11  7  2  0  0  0  0
 12  3  1  0  0  0  0
 13  6  1  0  0  0  0
 14 12  1  0  0  0  0
 15 28  1  0  0  0  0
 16 17  2  0  0  0  0
 16 18  1  0  0  0  0
 19 21  1  0  0  0  0
 20 22  1  0  0  0  0
 21 16  1  0  0  0  0
 22 21  2  0  0  0  0
 23 24  1  0  0  0  0
 23 20  2  0  0  0  0
 24 19  2  0  0  0  0
 25 26  2  0  0  0  0
 25 20  1  0  0  0  0
 27 25  1  0  0  0  0
 28 29  1  0  0  0  0
 30 31  1  6  0  0  0
 30 29  1  0  0  0  0
 30 38  1  0  0  0  0
 32 31  1  0  0  0  0
 33 32  1  0  0  0  0
 34 36  2  0  0  0  0
 34 33  1  0  0  0  0
 35 34  1  0  0  0  0
 37 34  2  0  0  0  0
 38 40  1  0  0  0  0
 39 40  1  0  0  0  0
M  END
>  <MODEL>
8

>  <REMARK>
 VINA RESULT:      -4.8      4.674      8.628
  Name = 
  12 active torsions:
  status: ('A' for Active; 'I' for Inactive)
    1  A    between atoms: C_1  and  C_12
    2  A    between atoms: C_2  and  N_9
    3  A    between atoms: C_2  and  C_27
    4  A    between atoms: C_2  and  C_30
    5  A    between atoms: S_4  and  N_40
    6  A    between atoms: C_6  and  C_11
    7  A    between atoms: N_9  and  C_19
    8  A    between atoms: N_16  and  C_27
    9  A    between atoms: N_16  and  N_40
   10  A    between atoms: C_19  and  N_38
   11  A    between atoms: O_26  and  C_30
   12  A    between atoms: C_28  and  N_39
                            x       y       z     vdW  Elec       q    Type
                         _______ _______ _______ _____ _____    ______ ____

>  <TORSDO>
F 12

$$$$
=
 OpenBabel11052411493D

 40 42  0  0  1  0  0  0  0  0999 V2000
  161.0380  213.7050  148.0660 C   0  0  0  0  0  2  0  0  0  0  0  0
  162.0010  208.5380  148.2180 C   0  0  0  0  0  2  0  0  0  0  0  0
  160.9860  214.4530  149.3820 C   0  0  0  0  0  2  0  0  0  0  0  0
  160.8260  207.7950  150.3120 C   0  0  0  0  0  2  0  0  0  0  0  0
  161.4120  211.6370  149.5840 C   0  0  0  0  0  0  0  0  0  0  0  0
  161.9840  210.4380  149.8450 C   0  0  0  0  0  0  0  0  0  0  0  0
  161.9200  209.8110  151.1860 C   0  0  0  0  0  0  0  0  0  0  0  0
  161.0080  211.4810  147.2260 O   0  0  0  0  0  1  0  0  0  0  0  0
  161.8410  207.4160  149.2380 C   0  0  1  0  0  3  0  0  0  0  0  0
  161.5880  212.2810  148.2130 C   0  0  1  0  0  3  0  0  0  0  0  0
  161.4350  208.6140  151.3560 N   0  0  0  0  0  0  0  0  0  0  0  0
  160.0550  213.6890  150.2990 C   0  0  0  0  0  2  0  0  0  0  0  0
  162.7800  209.7110  148.7980 C   0  0  0  0  0  2  0  0  0  0  0  0
  160.6840  212.3620  150.7010 C   0  0  0  0  0  2  0  0  0  0  0  0
  162.4470  210.5290  152.3080 N   0  0  0  0  0  2  0  0  0  0  0  0
  161.9740  205.7100  147.3300 C   0  0  0  0  0  0  0  0  0  0  0  0
  162.8580  206.3780  146.7270 O   0  0  0  0  0  0  0  0  0  0  0  0
  161.4380  206.1800  148.5740 N   0  0  0  0  0  2  0  0  0  0  0  0
  160.9290  204.4190  145.4670 C   0  0  0  0  0  3  0  0  0  0  0  0
  161.1260  202.0400  146.9390 C   0  0  0  0  0  0  0  0  0  0  0  0
  161.4900  204.4430  146.7520 C   0  0  0  0  0  0  0  0  0  0  0  0
  161.5860  203.2490  147.4790 C   0  0  0  0  0  3  0  0  0  0  0  0
  160.5680  202.0350  145.6530 C   0  0  0  0  0  3  0  0  0  0  0  0
  160.4700  203.2200  144.9190 C   0  0  0  0  0  3  0  0  0  0  0  0
  161.2280  200.7920  147.7140 C   0  0  0  0  0  0  0  0  0  0  0  0
  160.7580  200.7270  148.8820 O   0  0  0  0  0  0  0  0  0  0  0  0
  161.8610  199.6440  147.1550 N   0  0  0  0  0  1  0  0  0  0  0  0
  162.4920  209.9710  153.6500 C   0  0  0  0  0  2  0  0  0  0  0  0
  161.3000  209.1720  153.8880 N   0  0  0  0  0  2  0  0  0  0  0  0
  161.4480  208.5670  155.2000 C   0  0  2  0  0  3  0  0  0  0  0  0
  161.0410  207.1020  155.1170 C   0  0  0  0  0  2  0  0  0  0  0  0
  161.1510  206.6120  153.7520 N   0  0  0  0  0  2  0  0  0  0  0  0
  160.9950  205.2200  153.7960 N   0  0  0  0  0  2  0  0  0  0  0  0
  161.2410  204.6310  152.1880 S   0  0  0  0  0  0  0  0  0  0  0  0
  161.2280  202.9030  152.1940 N   0  0  0  0  0  1  0  0  0  0  0  0
  162.5610  205.1210  151.6640 O   0  0  0  0  0  0  0  0  0  0  0  0
  160.1350  205.1330  151.3020 O   0  0  0  0  0  0  0  0  0  0  0  0
  160.5720  209.3140  156.1970 C   0  0  0  0  0  2  0  0  0  0  0  0
  159.0900  210.6120  155.2040 C   0  0  0  0  0  1  0  0  0  0  0  0
  159.2500  209.3390  155.7510 O   0  0  0  0  0  0  0  0  0  0  0  0
  1 10  1  0  0  0  0
  1  3  1  0  0  0  0
  2 13  1  0  0  0  0
  2  9  1  0  0  0  0
  3 12  1  0  0  0  0
  4 11  1  0  0  0  0
  5  6  2  0  0  0  0
  5 14  1  0  0  0  0
  6  7  1  0  0  0  0
  7 11  2  0  0  0  0
  7 15  1  0  0  0  0
  9 18  1  6  0  0  0
  9  4  1  0  0  0  0
 10  8  1  6  0  0  0
 10  5  1  0  0  0  0
 12 14  1  0  0  0  0
 13  6  1  0  0  0  0
 15 28  1  0  0  0  0
 16 18  1  0  0  0  0
 17 16  2  0  0  0  0
 19 21  1  0  0  0  0
 20 22  1  0  0  0  0
 20 25  1  0  0  0  0
 21 16  1  0  0  0  0
 21 22  2  0  0  0  0
 23 20  2  0  0  0  0
 24 19  2  0  0  0  0
 24 23  1  0  0  0  0
 25 26  2  0  0  0  0
 27 25  1  0  0  0  0
 28 29  1  0  0  0  0
 29 30  1  0  0  0  0
 30 31  1  6  0  0  0
 30 38  1  0  0  0  0
 32 33  1  0  0  0  0
 32 31  1  0  0  0  0
 34 35  1  0  0  0  0
 34 33  1  0  0  0  0
 36 34  2  0  0  0  0
 37 34  2  0  0  0  0
 39 40  1  0  0  0  0
 40 38  1  0  0  0  0
M  END
>  <MODEL>
9

>  <REMARK>
 VINA RESULT:      -4.3      2.828      6.200
  Name = 
  12 active torsions:
  status: ('A' for Active; 'I' for Inactive)
    1  A    between atoms: C_1  and  C_12
    2  A    between atoms: C_2  and  N_9
    3  A    between atoms: C_2  and  C_27
    4  A    between atoms: C_2  and  C_30
    5  A    between atoms: S_4  and  N_40
    6  A    between atoms: C_6  and  C_11
    7  A    between atoms: N_9  and  C_19
    8  A    between atoms: N_16  and  C_27
    9  A    between atoms: N_16  and  N_40
   10  A    between atoms: C_19  and  N_38
   11  A    between atoms: O_26  and  C_30
   12  A    between atoms: C_28  and  N_39
                            x       y       z     vdW  Elec       q    Type
                         _______ _______ _______ _____ _____    ______ ____

>  <TORSDO>
F 12

$$$$
