=
 OpenBabel11052409503D

 26 27  0  0  1  0  0  0  0  0999 V2000
  161.4740  205.4840  152.4590 C   0  0  0  0  0  0  0  0  0  0  0  0
  161.7800  207.6550  151.4730 N   0  0  0  0  0  0  0  0  0  0  0  0
  161.1950  204.1240  152.2980 C   0  0  0  0  0  3  0  0  0  0  0  0
  161.2320  205.7990  150.0490 C   0  0  0  0  0  0  0  0  0  0  0  0
  161.2640  206.6640  148.9470 C   0  0  0  0  0  3  0  0  0  0  0  0
  160.9320  203.6010  151.0310 C   0  0  0  0  0  3  0  0  0  0  0  0
  161.4990  206.3290  151.3350 C   0  0  0  0  0  0  0  0  0  0  0  0
  160.9420  204.4280  149.8990 C   0  0  0  0  0  0  0  0  0  0  0  0
  161.5550  208.0160  149.1230 C   0  0  0  0  0  3  0  0  0  0  0  0
  161.8120  208.4990  150.4070 C   0  0  0  0  0  0  0  0  0  0  0  0
  162.1230  209.9370  150.6100 C   0  0  0  0  0  1  0  0  0  0  0  0
  160.4550  202.4610  148.6480 O   0  0  0  0  0  1  0  0  0  0  0  0
  160.6680  203.8370  148.5450 C   0  0  2  0  0  3  0  0  0  0  0  0
  161.8210  204.1200  147.5970 C   0  0  0  0  0  2  0  0  0  0  0  0
  161.4480  203.8000  146.2890 O   0  0  0  0  0  0  0  0  0  0  0  0
  160.0590  206.1720  145.8830 O   0  0  0  0  0  1  0  0  0  0  0  0
  162.6740  206.0690  145.7770 O   0  0  0  0  0  1  0  0  0  0  0  0
  161.4280  205.2760  145.4530 P   0  0  0  0  0  0  0  0  0  0  0  0
  161.3860  204.9660  143.7910 O   0  0  0  0  0  0  0  0  0  0  0  0
  161.7680  206.0040  153.8280 C   0  0  0  0  0  2  0  0  0  0  0  0
  160.6320  206.8330  154.3160 C   0  0  0  0  0  3  0  0  0  0  0  0
  160.8180  207.6930  155.3050 C   0  0  0  0  0  3  0  0  0  0  0  0
  159.7280  208.4870  155.7740 N   0  0  0  0  0  2  0  0  0  0  0  0
  159.6460  209.9020  155.5750 C   0  0  0  0  0  0  0  0  0  0  0  0
  159.3340  210.7280  156.5670 C   0  0  0  0  0  2  0  0  0  0  0  0
  159.9160  210.4620  154.2250 C   0  0  0  0  0  1  0  0  0  0  0  0
  1 20  1  0  0  0  0
  3  1  1  0  0  0  0
  4  7  1  0  0  0  0
  5  9  2  0  0  0  0
  5  4  1  0  0  0  0
  6  3  2  0  0  0  0
  7  2  1  0  0  0  0
  7  1  2  0  0  0  0
  8  4  2  0  0  0  0
  8  6  1  0  0  0  0
  9 10  1  0  0  0  0
 10 11  1  0  0  0  0
 10  2  2  0  0  0  0
 13 12  1  1  0  0  0
 13  8  1  0  0  0  0
 14 13  1  0  0  0  0
 15 14  1  0  0  0  0
 18 17  1  0  0  0  0
 18 16  1  0  0  0  0
 18 15  1  0  0  0  0
 19 18  2  0  0  0  0
 20 21  1  0  0  0  0
 21 22  2  0  0  0  0
 22 23  1  0  0  0  0
 24 23  1  0  0  0  0
 24 25  2  0  0  0  0
 26 24  1  0  0  0  0
M  END
>  <MODEL>
1

>  <REMARK>
 VINA RESULT:      -8.0      0.000      0.000
  Name = 
  8 active torsions:
  status: ('A' for Active; 'I' for Inactive)
    1  A    between atoms: C_1  and  C_13
    2  A    between atoms: N_4  and  C_7
    3  A    between atoms: N_4  and  C_17
    4  A    between atoms: C_8  and  C_13
    5  A    between atoms: O_9  and  C_11
    6  A    between atoms: O_9  and  P_23
    7  A    between atoms: C_11  and  C_20
    8  A    between atoms: C_19  and  C_20
                            x       y       z     vdW  Elec       q    Type
                         _______ _______ _______ _____ _____    ______ ____

>  <TORSDO>
F 8

$$$$
=
 OpenBabel11052409503D

 26 27  0  0  1  0  0  0  0  0999 V2000
  161.3120  206.5230  148.7300 C   0  0  0  0  0  0  0  0  0  0  0  0
  161.7980  208.8760  148.6770 N   0  0  0  0  0  0  0  0  0  0  0  0
  161.1150  205.3570  149.4750 C   0  0  0  0  0  3  0  0  0  0  0  0
  161.7260  207.7510  150.7990 C   0  0  0  0  0  0  0  0  0  0  0  0
  162.0280  208.9670  151.4290 C   0  0  0  0  0  3  0  0  0  0  0  0
  161.2260  205.3780  150.8650 C   0  0  0  0  0  3  0  0  0  0  0  0
  161.6140  207.7280  149.3880 C   0  0  0  0  0  0  0  0  0  0  0  0
  161.5350  206.5680  151.5400 C   0  0  0  0  0  0  0  0  0  0  0  0
  162.2100  210.1240  150.6720 C   0  0  0  0  0  3  0  0  0  0  0  0
  162.0910  210.0580  149.2830 C   0  0  0  0  0  0  0  0  0  0  0  0
  162.2830  211.2820  148.4640 C   0  0  0  0  0  1  0  0  0  0  0  0
  161.2960  205.3120  153.5490 O   0  0  0  0  0  1  0  0  0  0  0  0
  161.6360  206.5660  153.0390 C   0  0  2  0  0  3  0  0  0  0  0  0
  160.7360  207.6360  153.6340 C   0  0  0  0  0  2  0  0  0  0  0  0
  161.1880  207.9780  154.9110 O   0  0  0  0  0  0  0  0  0  0  0  0
  162.1780  210.5520  155.2420 O   0  0  0  0  0  1  0  0  0  0  0  0
  159.9580  210.0860  153.9340 O   0  0  0  0  0  0  0  0  0  0  0  0
  160.7780  209.6120  155.1130 P   0  0  0  0  0  0  0  0  0  0  0  0
  159.8660  209.7800  156.5260 O   0  0  0  0  0  1  0  0  0  0  0  0
  161.1680  206.4640  147.2440 C   0  0  0  0  0  2  0  0  0  0  0  0
  161.5860  205.1270  146.7410 C   0  0  0  0  0  3  0  0  0  0  0  0
  160.8730  204.5190  145.8060 C   0  0  0  0  0  3  0  0  0  0  0  0
  161.2740  203.2370  145.3250 N   0  0  0  0  0  2  0  0  0  0  0  0
  160.7160  202.0090  145.8030 C   0  0  0  0  0  0  0  0  0  0  0  0
  159.9930  201.2190  145.0170 C   0  0  0  0  0  2  0  0  0  0  0  0
  160.9510  201.6060  147.2150 C   0  0  0  0  0  1  0  0  0  0  0  0
  1  7  2  0  0  0  0
  1  3  1  0  0  0  0
  2 10  2  0  0  0  0
  2  7  1  0  0  0  0
  3  6  2  0  0  0  0
  4  5  1  0  0  0  0
  4  8  2  0  0  0  0
  6  8  1  0  0  0  0
  7  4  1  0  0  0  0
  8 13  1  0  0  0  0
  9  5  2  0  0  0  0
 10  9  1  0  0  0  0
 11 10  1  0  0  0  0
 13 12  1  1  0  0  0
 13 14  1  0  0  0  0
 14 15  1  0  0  0  0
 15 18  1  0  0  0  0
 17 18  2  0  0  0  0
 18 16  1  0  0  0  0
 18 19  1  0  0  0  0
 20  1  1  0  0  0  0
 21 20  1  0  0  0  0
 22 21  2  0  0  0  0
 23 24  1  0  0  0  0
 23 22  1  0  0  0  0
 24 26  1  0  0  0  0
 25 24  2  0  0  0  0
M  END
>  <MODEL>
2

>  <REMARK>
 VINA RESULT:      -7.9      4.984      7.956
  Name = 
  8 active torsions:
  status: ('A' for Active; 'I' for Inactive)
    1  A    between atoms: C_1  and  C_13
    2  A    between atoms: N_4  and  C_7
    3  A    between atoms: N_4  and  C_17
    4  A    between atoms: C_8  and  C_13
    5  A    between atoms: O_9  and  C_11
    6  A    between atoms: O_9  and  P_23
    7  A    between atoms: C_11  and  C_20
    8  A    between atoms: C_19  and  C_20
                            x       y       z     vdW  Elec       q    Type
                         _______ _______ _______ _____ _____    ______ ____

>  <TORSDO>
F 8

$$$$
=
 OpenBabel11052409503D

 26 27  0  0  1  0  0  0  0  0999 V2000
  161.3600  205.1930  151.7590 C   0  0  0  0  0  0  0  0  0  0  0  0
  161.5810  205.5520  149.3920 N   0  0  0  0  0  0  0  0  0  0  0  0
  161.2280  205.7250  153.0440 C   0  0  0  0  0  3  0  0  0  0  0  0
  161.4390  207.4580  150.8490 C   0  0  0  0  0  0  0  0  0  0  0  0
  161.5410  208.2940  149.7290 C   0  0  0  0  0  3  0  0  0  0  0  0
  161.2050  207.1070  153.2390 C   0  0  0  0  0  3  0  0  0  0  0  0
  161.4620  206.0560  150.6530 C   0  0  0  0  0  0  0  0  0  0  0  0
  161.3150  207.9850  152.1510 C   0  0  0  0  0  0  0  0  0  0  0  0
  161.6620  207.7460  148.4530 C   0  0  0  0  0  3  0  0  0  0  0  0
  161.6800  206.3590  148.3020 C   0  0  0  0  0  0  0  0  0  0  0  0
  161.8080  205.7620  146.9480 C   0  0  0  0  0  1  0  0  0  0  0  0
  162.5360  210.0290  152.1750 O   0  0  0  0  0  1  0  0  0  0  0  0
  161.2750  209.4680  152.3860 C   0  0  2  0  0  3  0  0  0  0  0  0
  160.7960  209.7700  153.7960 C   0  0  0  0  0  2  0  0  0  0  0  0
  161.4050  210.9380  154.2630 O   0  0  0  0  0  0  0  0  0  0  0  0
  161.6870  208.9310  156.1620 O   0  0  0  0  0  1  0  0  0  0  0  0
  163.4340  210.8690  155.9350 O   0  0  0  0  0  0  0  0  0  0  0  0
  161.9560  210.5660  155.8240 P   0  0  0  0  0  0  0  0  0  0  0  0
  161.1120  211.5090  156.9440 O   0  0  0  0  0  1  0  0  0  0  0  0
  161.3630  203.7080  151.5890 C   0  0  0  0  0  2  0  0  0  0  0  0
  160.7760  203.3430  150.2710 C   0  0  0  0  0  3  0  0  0  0  0  0
  160.6120  202.0690  149.9500 C   0  0  0  0  0  3  0  0  0  0  0  0
  160.0500  201.7190  148.6860 N   0  0  0  0  0  2  0  0  0  0  0  0
  160.8390  201.3290  147.5570 C   0  0  0  0  0  0  0  0  0  0  0  0
  161.5960  200.2380  147.5790 C   0  0  0  0  0  2  0  0  0  0  0  0
  160.8110  202.1650  146.3280 C   0  0  0  0  0  1  0  0  0  0  0  0
  1  3  1  0  0  0  0
  2  7  1  0  0  0  0
  3  6  2  0  0  0  0
  4  8  2  0  0  0  0
  5  4  1  0  0  0  0
  7  4  1  0  0  0  0
  7  1  2  0  0  0  0
  8 13  1  0  0  0  0
  8  6  1  0  0  0  0
  9  5  2  0  0  0  0
 10  9  1  0  0  0  0
 10  2  2  0  0  0  0
 11 10  1  0  0  0  0
 13 12  1  1  0  0  0
 13 14  1  0  0  0  0
 14 15  1  0  0  0  0
 15 18  1  0  0  0  0
 18 17  2  0  0  0  0
 18 16  1  0  0  0  0
 18 19  1  0  0  0  0
 20  1  1  0  0  0  0
 21 20  1  0  0  0  0
 22 21  2  0  0  0  0
 23 22  1  0  0  0  0
 24 25  2  0  0  0  0
 24 23  1  0  0  0  0
 26 24  1  0  0  0  0
M  END
>  <MODEL>
3

>  <REMARK>
 VINA RESULT:      -7.8      5.447      7.989
  Name = 
  8 active torsions:
  status: ('A' for Active; 'I' for Inactive)
    1  A    between atoms: C_1  and  C_13
    2  A    between atoms: N_4  and  C_7
    3  A    between atoms: N_4  and  C_17
    4  A    between atoms: C_8  and  C_13
    5  A    between atoms: O_9  and  C_11
    6  A    between atoms: O_9  and  P_23
    7  A    between atoms: C_11  and  C_20
    8  A    between atoms: C_19  and  C_20
                            x       y       z     vdW  Elec       q    Type
                         _______ _______ _______ _____ _____    ______ ____

>  <TORSDO>
F 8

$$$$
=
 OpenBabel11052409503D

 26 27  0  0  1  0  0  0  0  0999 V2000
  161.3370  206.4620  152.9260 C   0  0  0  0  0  0  0  0  0  0  0  0
  161.9460  206.9570  150.6540 N   0  0  0  0  0  0  0  0  0  0  0  0
  160.9360  206.9180  154.1850 C   0  0  0  0  0  3  0  0  0  0  0  0
  161.3950  208.7710  152.1310 C   0  0  0  0  0  0  0  0  0  0  0  0
  161.6280  209.6680  151.0800 C   0  0  0  0  0  3  0  0  0  0  0  0
  160.7690  208.2820  154.4230 C   0  0  0  0  0  3  0  0  0  0  0  0
  161.5640  207.3860  151.8900 C   0  0  0  0  0  0  0  0  0  0  0  0
  161.0000  209.2200  153.4070 C   0  0  0  0  0  0  0  0  0  0  0  0
  162.0170  209.1960  149.8270 C   0  0  0  0  0  3  0  0  0  0  0  0
  162.1730  207.8230  149.6310 C   0  0  0  0  0  0  0  0  0  0  0  0
  162.5870  207.3070  148.3010 C   0  0  0  0  0  1  0  0  0  0  0  0
  161.5360  211.0700  154.8080 O   0  0  0  0  0  1  0  0  0  0  0  0
  160.8000  210.6830  153.6860 C   0  0  2  0  0  3  0  0  0  0  0  0
  159.3260  210.9880  153.8950 C   0  0  0  0  0  2  0  0  0  0  0  0
  158.7160  211.2400  152.6640 O   0  0  0  0  0  0  0  0  0  0  0  0
  159.0140  213.6890  153.9390 O   0  0  0  0  0  1  0  0  0  0  0  0
  159.9780  213.2560  151.5430 O   0  0  0  0  0  0  0  0  0  0  0  0
  158.8130  212.9190  152.4470 P   0  0  0  0  0  0  0  0  0  0  0  0
  157.3820  213.4650  151.7310 O   0  0  0  0  0  1  0  0  0  0  0  0
  161.4890  204.9930  152.7040 C   0  0  0  0  0  2  0  0  0  0  0  0
  160.8090  204.5920  151.4420 C   0  0  0  0  0  3  0  0  0  0  0  0
  160.9180  203.3500  150.9980 C   0  0  0  0  0  3  0  0  0  0  0  0
  160.2660  202.9670  149.7870 N   0  0  0  0  0  2  0  0  0  0  0  0
  160.9710  202.5310  148.6200 C   0  0  0  0  0  0  0  0  0  0  0  0
  161.4700  203.3950  147.7440 C   0  0  0  0  0  2  0  0  0  0  0  0
  161.1490  201.0740  148.3810 C   0  0  0  0  0  1  0  0  0  0  0  0
  1  3  1  0  0  0  0
  2  7  1  0  0  0  0
  3  6  2  0  0  0  0
  4  8  2  0  0  0  0
  5  4  1  0  0  0  0
  7  4  1  0  0  0  0
  7  1  2  0  0  0  0
  8 13  1  0  0  0  0
  8  6  1  0  0  0  0
  9  5  2  0  0  0  0
 10  9  1  0  0  0  0
 10  2  2  0  0  0  0
 11 10  1  0  0  0  0
 13 14  1  0  0  0  0
 13 12  1  1  0  0  0
 15 14  1  0  0  0  0
 17 18  2  0  0  0  0
 18 15  1  0  0  0  0
 18 16  1  0  0  0  0
 19 18  1  0  0  0  0
 20  1  1  0  0  0  0
 21 20  1  0  0  0  0
 22 21  2  0  0  0  0
 23 22  1  0  0  0  0
 24 23  1  0  0  0  0
 25 24  2  0  0  0  0
 26 24  1  0  0  0  0
M  END
>  <MODEL>
4

>  <REMARK>
 VINA RESULT:      -7.7      5.065      7.529
  Name = 
  8 active torsions:
  status: ('A' for Active; 'I' for Inactive)
    1  A    between atoms: C_1  and  C_13
    2  A    between atoms: N_4  and  C_7
    3  A    between atoms: N_4  and  C_17
    4  A    between atoms: C_8  and  C_13
    5  A    between atoms: O_9  and  C_11
    6  A    between atoms: O_9  and  P_23
    7  A    between atoms: C_11  and  C_20
    8  A    between atoms: C_19  and  C_20
                            x       y       z     vdW  Elec       q    Type
                         _______ _______ _______ _____ _____    ______ ____

>  <TORSDO>
F 8

$$$$
=
 OpenBabel11052409503D

 26 27  0  0  1  0  0  0  0  0999 V2000
  161.2780  205.6210  151.7400 C   0  0  0  0  0  0  0  0  0  0  0  0
  161.0000  203.3290  151.0720 N   0  0  0  0  0  0  0  0  0  0  0  0
  161.4500  206.9610  151.3810 C   0  0  0  0  0  3  0  0  0  0  0  0
  161.2610  205.0100  149.3760 C   0  0  0  0  0  0  0  0  0  0  0  0
  161.1580  204.0100  148.4000 C   0  0  0  0  0  3  0  0  0  0  0  0
  161.5320  207.3290  150.0380 C   0  0  0  0  0  3  0  0  0  0  0  0
  161.1780  204.6390  150.7390 C   0  0  0  0  0  0  0  0  0  0  0  0
  161.4440  206.3630  149.0250 C   0  0  0  0  0  0  0  0  0  0  0  0
  160.9760  202.6790  148.7750 C   0  0  0  0  0  3  0  0  0  0  0  0
  160.8990  202.3550  150.1300 C   0  0  0  0  0  0  0  0  0  0  0  0
  160.7050  200.9410  150.5430 C   0  0  0  0  0  1  0  0  0  0  0  0
  161.4890  208.1790  147.4850 O   0  0  0  0  0  1  0  0  0  0  0  0
  161.5230  206.7870  147.5860 C   0  0  2  0  0  3  0  0  0  0  0  0
  160.3850  206.1750  146.7870 C   0  0  0  0  0  2  0  0  0  0  0  0
  160.4850  206.5610  145.4480 O   0  0  0  0  0  0  0  0  0  0  0  0
  162.7590  204.9660  145.4240 O   0  0  0  0  0  1  0  0  0  0  0  0
  160.4170  204.0390  144.7070 O   0  0  0  0  0  1  0  0  0  0  0  0
  161.2790  205.2810  144.6680 P   0  0  0  0  0  0  0  0  0  0  0  0
  161.5610  205.7090  143.0560 O   0  0  0  0  0  0  0  0  0  0  0  0
  161.1770  205.2690  153.1880 C   0  0  0  0  0  2  0  0  0  0  0  0
  161.4050  206.4770  154.0270 C   0  0  0  0  0  3  0  0  0  0  0  0
  160.4260  206.9530  154.7810 C   0  0  0  0  0  3  0  0  0  0  0  0
  160.6450  208.1120  155.5850 N   0  0  0  0  0  2  0  0  0  0  0  0
  161.0630  209.3720  155.0480 C   0  0  0  0  0  0  0  0  0  0  0  0
  162.0300  210.0840  155.6160 C   0  0  0  0  0  2  0  0  0  0  0  0
  160.4000  209.8960  153.8260 C   0  0  0  0  0  1  0  0  0  0  0  0
  1 20  1  0  0  0  0
  3  1  1  0  0  0  0
  4  7  1  0  0  0  0
  5  9  2  0  0  0  0
  5  4  1  0  0  0  0
  6  3  2  0  0  0  0
  7  2  1  0  0  0  0
  7  1  2  0  0  0  0
  8  4  2  0  0  0  0
  8  6  1  0  0  0  0
  9 10  1  0  0  0  0
 10 11  1  0  0  0  0
 10  2  2  0  0  0  0
 13 12  1  1  0  0  0
 13  8  1  0  0  0  0
 14 13  1  0  0  0  0
 15 14  1  0  0  0  0
 18 17  1  0  0  0  0
 18 16  1  0  0  0  0
 18 15  1  0  0  0  0
 19 18  2  0  0  0  0
 20 21  1  0  0  0  0
 21 22  2  0  0  0  0
 22 23  1  0  0  0  0
 24 23  1  0  0  0  0
 24 25  2  0  0  0  0
 26 24  1  0  0  0  0
M  END
>  <MODEL>
5

>  <REMARK>
 VINA RESULT:      -7.6      1.695      3.453
  Name = 
  8 active torsions:
  status: ('A' for Active; 'I' for Inactive)
    1  A    between atoms: C_1  and  C_13
    2  A    between atoms: N_4  and  C_7
    3  A    between atoms: N_4  and  C_17
    4  A    between atoms: C_8  and  C_13
    5  A    between atoms: O_9  and  C_11
    6  A    between atoms: O_9  and  P_23
    7  A    between atoms: C_11  and  C_20
    8  A    between atoms: C_19  and  C_20
                            x       y       z     vdW  Elec       q    Type
                         _______ _______ _______ _____ _____    ______ ____

>  <TORSDO>
F 8

$$$$
=
 OpenBabel11052409503D

 26 27  0  0  1  0  0  0  0  0999 V2000
  161.2330  206.7010  152.5360 C   0  0  0  0  0  0  0  0  0  0  0  0
  160.9760  204.5500  151.4930 N   0  0  0  0  0  0  0  0  0  0  0  0
  161.4420  208.0770  152.4080 C   0  0  0  0  0  3  0  0  0  0  0  0
  161.3660  206.4750  150.1080 C   0  0  0  0  0  0  0  0  0  0  0  0
  161.3170  205.6450  148.9800 C   0  0  0  0  0  3  0  0  0  0  0  0
  161.6170  208.6520  151.1490 C   0  0  0  0  0  3  0  0  0  0  0  0
  161.1890  205.8920  151.3860 C   0  0  0  0  0  0  0  0  0  0  0  0
  161.5860  207.8620  149.9910 C   0  0  0  0  0  0  0  0  0  0  0  0
  161.0960  204.2750  149.1240 C   0  0  0  0  0  3  0  0  0  0  0  0
  160.9270  203.7410  150.4020 C   0  0  0  0  0  0  0  0  0  0  0  0
  160.6920  202.2840  150.5700 C   0  0  0  0  0  1  0  0  0  0  0  0
  162.8230  207.9160  147.9570 O   0  0  0  0  0  1  0  0  0  0  0  0
  161.7630  208.5080  148.6460 C   0  0  2  0  0  3  0  0  0  0  0  0
  162.0060  210.0000  148.8000 C   0  0  0  0  0  2  0  0  0  0  0  0
  161.3050  210.6980  147.8130 O   0  0  0  0  0  0  0  0  0  0  0  0
  163.4690  212.4160  148.1020 O   0  0  0  0  0  1  0  0  0  0  0  0
  161.3170  213.1180  146.7850 O   0  0  0  0  0  0  0  0  0  0  0  0
  161.7850  212.3160  147.9790 P   0  0  0  0  0  0  0  0  0  0  0  0
  161.0890  212.9550  149.3810 O   0  0  0  0  0  1  0  0  0  0  0  0
  161.0330  206.1240  153.9000 C   0  0  0  0  0  2  0  0  0  0  0  0
  161.0240  207.2090  154.9190 C   0  0  0  0  0  3  0  0  0  0  0  0
  160.0290  207.2920  155.7870 C   0  0  0  0  0  3  0  0  0  0  0  0
  160.0200  208.3330  156.7640 N   0  0  0  0  0  2  0  0  0  0  0  0
  160.1510  209.7200  156.4340 C   0  0  0  0  0  0  0  0  0  0  0  0
  159.1940  210.3750  155.7870 C   0  0  0  0  0  2  0  0  0  0  0  0
  161.3870  210.4460  156.8260 C   0  0  0  0  0  1  0  0  0  0  0  0
  1 20  1  0  0  0  0
  3  1  1  0  0  0  0
  4  7  1  0  0  0  0
  5  9  2  0  0  0  0
  5  4  1  0  0  0  0
  6  3  2  0  0  0  0
  7  2  1  0  0  0  0
  7  1  2  0  0  0  0
  8  4  2  0  0  0  0
  8  6  1  0  0  0  0
  9 10  1  0  0  0  0
 10 11  1  0  0  0  0
 10  2  2  0  0  0  0
 13 12  1  1  0  0  0
 13 14  1  0  0  0  0
 13  8  1  0  0  0  0
 15 18  1  0  0  0  0
 15 14  1  0  0  0  0
 17 18  2  0  0  0  0
 18 16  1  0  0  0  0
 18 19  1  0  0  0  0
 20 21  1  0  0  0  0
 21 22  2  0  0  0  0
 22 23  1  0  0  0  0
 24 23  1  0  0  0  0
 24 26  1  0  0  0  0
 25 24  2  0  0  0  0
M  END
>  <MODEL>
6

>  <REMARK>
 VINA RESULT:      -7.6      3.289      4.739
  Name = 
  8 active torsions:
  status: ('A' for Active; 'I' for Inactive)
    1  A    between atoms: C_1  and  C_13
    2  A    between atoms: N_4  and  C_7
    3  A    between atoms: N_4  and  C_17
    4  A    between atoms: C_8  and  C_13
    5  A    between atoms: O_9  and  C_11
    6  A    between atoms: O_9  and  P_23
    7  A    between atoms: C_11  and  C_20
    8  A    between atoms: C_19  and  C_20
                            x       y       z     vdW  Elec       q    Type
                         _______ _______ _______ _____ _____    ______ ____

>  <TORSDO>
F 8

$$$$
=
 OpenBabel11052409503D

 26 27  0  0  1  0  0  0  0  0999 V2000
  161.7580  208.6730  150.8030 C   0  0  0  0  0  0  0  0  0  0  0  0
  161.3640  208.8960  153.1640 N   0  0  0  0  0  0  0  0  0  0  0  0
  161.8090  207.8570  149.6690 C   0  0  0  0  0  3  0  0  0  0  0  0
  161.1610  206.7260  152.1520 C   0  0  0  0  0  0  0  0  0  0  0  0
  160.8350  206.1950  153.4070 C   0  0  0  0  0  3  0  0  0  0  0  0
  161.5450  206.4910  149.7680 C   0  0  0  0  0  3  0  0  0  0  0  0
  161.4290  208.1130  152.0510 C   0  0  0  0  0  0  0  0  0  0  0  0
  161.2250  205.9110  151.0040 C   0  0  0  0  0  0  0  0  0  0  0  0
  160.7770  207.0250  154.5270 C   0  0  0  0  0  3  0  0  0  0  0  0
  161.0480  208.3860  154.3840 C   0  0  0  0  0  0  0  0  0  0  0  0
  160.9910  209.2810  155.5690 C   0  0  0  0  0  1  0  0  0  0  0  0
  162.0480  203.7450  151.5520 O   0  0  0  0  0  1  0  0  0  0  0  0
  160.9330  204.4400  151.0800 C   0  0  2  0  0  3  0  0  0  0  0  0
  160.5210  203.9070  149.7190 C   0  0  0  0  0  2  0  0  0  0  0  0
  161.5540  203.1390  149.1780 O   0  0  0  0  0  0  0  0  0  0  0  0
  161.7200  200.4000  148.7440 O   0  0  0  0  0  1  0  0  0  0  0  0
  159.4190  201.6080  149.0730 O   0  0  0  0  0  1  0  0  0  0  0  0
  160.7970  201.7920  148.4770 P   0  0  0  0  0  0  0  0  0  0  0  0
  160.6490  202.0480  146.8130 O   0  0  0  0  0  0  0  0  0  0  0  0
  162.0290  210.1350  150.6550 C   0  0  0  0  0  2  0  0  0  0  0  0
  162.0030  210.5170  149.2170 C   0  0  0  0  0  3  0  0  0  0  0  0
  161.9750  211.7950  148.8730 C   0  0  0  0  0  3  0  0  0  0  0  0
  161.9500  212.1620  147.4940 N   0  0  0  0  0  0  0  0  0  0  0  0
  162.3730  213.4420  147.0140 C   0  0  0  0  0  0  0  0  0  0  0  0
  162.6530  214.4400  147.8450 C   0  0  0  0  0  1  0  0  0  0  0  0
  162.5030  213.6620  145.5500 C   0  0  0  0  0  1  0  0  0  0  0  0
  1  7  1  0  0  0  0
  2 10  1  0  0  0  0
  3  6  1  0  0  0  0
  3  1  2  0  0  0  0
  4  5  2  0  0  0  0
  5  9  1  0  0  0  0
  6  8  2  0  0  0  0
  7  4  1  0  0  0  0
  7  2  2  0  0  0  0
  8 13  1  0  0  0  0
  8  4  1  0  0  0  0
 10  9  2  0  0  0  0
 10 11  1  0  0  0  0
 13 12  1  6  0  0  0
 14 13  1  0  0  0  0
 15 14  1  0  0  0  0
 18 16  1  0  0  0  0
 18 17  1  0  0  0  0
 18 15  1  0  0  0  0
 19 18  2  0  0  0  0
 20  1  1  0  0  0  0
 21 20  1  0  0  0  0
 22 21  2  0  0  0  0
 23 22  1  0  0  0  0
 24 23  2  0  0  0  0
 24 25  1  0  0  0  0
 26 24  1  0  0  0  0
M  END
>  <MODEL>
7

>  <REMARK>
 VINA RESULT:      -7.6      2.786      5.605
  Name = 
  8 active torsions:
  status: ('A' for Active; 'I' for Inactive)
    1  A    between atoms: C_1  and  C_13
    2  A    between atoms: N_4  and  C_7
    3  A    between atoms: N_4  and  C_17
    4  A    between atoms: C_8  and  C_13
    5  A    between atoms: O_9  and  C_11
    6  A    between atoms: O_9  and  P_23
    7  A    between atoms: C_11  and  C_20
    8  A    between atoms: C_19  and  C_20
                            x       y       z     vdW  Elec       q    Type
                         _______ _______ _______ _____ _____    ______ ____

>  <TORSDO>
F 8

$$$$
=
 OpenBabel11052409503D

 26 27  0  0  1  0  0  0  0  0999 V2000
  161.2330  207.3390  150.2130 C   0  0  0  0  0  0  0  0  0  0  0  0
  161.0320  204.9490  150.0600 N   0  0  0  0  0  0  0  0  0  0  0  0
  161.3370  208.4840  151.0080 C   0  0  0  0  0  3  0  0  0  0  0  0
  161.1120  205.9720  152.2330 C   0  0  0  0  0  0  0  0  0  0  0  0
  161.0040  204.7000  152.8120 C   0  0  0  0  0  3  0  0  0  0  0  0
  161.3250  208.3830  152.3990 C   0  0  0  0  0  3  0  0  0  0  0  0
  161.1240  206.0760  150.8210 C   0  0  0  0  0  0  0  0  0  0  0  0
  161.2090  207.1340  153.0250 C   0  0  0  0  0  0  0  0  0  0  0  0
  160.9120  203.5670  152.0040 C   0  0  0  0  0  3  0  0  0  0  0  0
  160.9270  203.7130  150.6160 C   0  0  0  0  0  0  0  0  0  0  0  0
  160.8290  202.5140  149.7440 C   0  0  0  0  0  1  0  0  0  0  0  0
  159.9310  206.7640  155.0000 O   0  0  0  0  0  1  0  0  0  0  0  0
  161.2120  207.0510  154.5250 C   0  0  2  0  0  3  0  0  0  0  0  0
  161.7160  208.3510  155.1290 C   0  0  0  0  0  2  0  0  0  0  0  0
  160.6380  209.1050  155.5990 O   0  0  0  0  0  0  0  0  0  0  0  0
  160.7140  211.5260  154.2390 O   0  0  0  0  0  0  0  0  0  0  0  0
  160.6320  211.4150  156.8540 O   0  0  0  0  0  1  0  0  0  0  0  0
  161.1920  210.7080  155.6400 P   0  0  0  0  0  0  0  0  0  0  0  0
  162.8800  210.7040  155.7300 O   0  0  0  0  0  1  0  0  0  0  0  0
  161.2660  207.4860  148.7270 C   0  0  0  0  0  2  0  0  0  0  0  0
  161.5390  206.1700  148.0880 C   0  0  0  0  0  3  0  0  0  0  0  0
  162.2870  206.1060  146.9980 C   0  0  0  0  0  3  0  0  0  0  0  0
  162.5480  204.8440  146.3850 N   0  0  0  0  0  2  0  0  0  0  0  0
  161.5480  204.0820  145.6990 C   0  0  0  0  0  0  0  0  0  0  0  0
  161.2090  202.8610  146.0950 C   0  0  0  0  0  2  0  0  0  0  0  0
  160.8720  204.6720  144.5140 C   0  0  0  0  0  1  0  0  0  0  0  0
  1  7  2  0  0  0  0
  1  3  1  0  0  0  0
  2 10  2  0  0  0  0
  2  7  1  0  0  0  0
  3  6  2  0  0  0  0
  4  5  1  0  0  0  0
  4  8  2  0  0  0  0
  6  8  1  0  0  0  0
  7  4  1  0  0  0  0
  8 13  1  0  0  0  0
  9  5  2  0  0  0  0
 10  9  1  0  0  0  0
 11 10  1  0  0  0  0
 13 12  1  1  0  0  0
 13 14  1  0  0  0  0
 14 15  1  0  0  0  0
 15 18  1  0  0  0  0
 16 18  2  0  0  0  0
 18 19  1  0  0  0  0
 18 17  1  0  0  0  0
 20  1  1  0  0  0  0
 21 20  1  0  0  0  0
 22 21  2  0  0  0  0
 23 22  1  0  0  0  0
 24 25  2  0  0  0  0
 24 23  1  0  0  0  0
 26 24  1  0  0  0  0
M  END
>  <MODEL>
8

>  <REMARK>
 VINA RESULT:      -7.4      5.322      8.243
  Name = 
  8 active torsions:
  status: ('A' for Active; 'I' for Inactive)
    1  A    between atoms: C_1  and  C_13
    2  A    between atoms: N_4  and  C_7
    3  A    between atoms: N_4  and  C_17
    4  A    between atoms: C_8  and  C_13
    5  A    between atoms: O_9  and  C_11
    6  A    between atoms: O_9  and  P_23
    7  A    between atoms: C_11  and  C_20
    8  A    between atoms: C_19  and  C_20
                            x       y       z     vdW  Elec       q    Type
                         _______ _______ _______ _____ _____    ______ ____

>  <TORSDO>
F 8

$$$$
=
 OpenBabel11052409503D

 26 27  0  0  1  0  0  0  0  0999 V2000
  161.0170  206.3660  149.0880 C   0  0  0  0  0  0  0  0  0  0  0  0
  160.8390  204.0130  149.5480 N   0  0  0  0  0  0  0  0  0  0  0  0
  161.2060  207.6680  149.5600 C   0  0  0  0  0  3  0  0  0  0  0  0
  161.1910  205.5320  151.3770 C   0  0  0  0  0  0  0  0  0  0  0  0
  161.1830  204.4400  152.2560 C   0  0  0  0  0  3  0  0  0  0  0  0
  161.3820  207.9070  150.9230 C   0  0  0  0  0  3  0  0  0  0  0  0
  161.0120  205.2900  149.9930 C   0  0  0  0  0  0  0  0  0  0  0  0
  161.3710  206.8490  151.8430 C   0  0  0  0  0  0  0  0  0  0  0  0
  161.0040  203.1460  151.7670 C   0  0  0  0  0  3  0  0  0  0  0  0
  160.8310  202.9510  150.3960 C   0  0  0  0  0  0  0  0  0  0  0  0
  160.6380  201.5780  149.8630 C   0  0  0  0  0  1  0  0  0  0  0  0
  160.6760  206.3960  154.0750 O   0  0  0  0  0  1  0  0  0  0  0  0
  161.5760  207.1340  153.3040 C   0  0  2  0  0  3  0  0  0  0  0  0
  161.4140  208.6180  153.5850 C   0  0  0  0  0  2  0  0  0  0  0  0
  160.9940  208.8070  154.9040 O   0  0  0  0  0  0  0  0  0  0  0  0
  158.9610  210.6180  155.4530 O   0  0  0  0  0  1  0  0  0  0  0  0
  161.4600  211.1280  156.0490 O   0  0  0  0  0  1  0  0  0  0  0  0
  160.5860  210.4500  155.0170 P   0  0  0  0  0  0  0  0  0  0  0  0
  160.8350  211.1830  153.5140 O   0  0  0  0  0  0  0  0  0  0  0  0
  160.8490  206.1470  147.6190 C   0  0  0  0  0  2  0  0  0  0  0  0
  161.3880  204.8130  147.2360 C   0  0  0  0  0  3  0  0  0  0  0  0
  161.0930  204.2970  146.0530 C   0  0  0  0  0  3  0  0  0  0  0  0
  161.6100  203.0180  145.6850 N   0  0  0  0  0  2  0  0  0  0  0  0
  160.8110  201.8300  145.6490 C   0  0  0  0  0  0  0  0  0  0  0  0
  159.7280  201.7420  144.8860 C   0  0  0  0  0  2  0  0  0  0  0  0
  161.2040  200.6650  146.4840 C   0  0  0  0  0  1  0  0  0  0  0  0
  1  3  2  0  0  0  0
  1  7  1  0  0  0  0
  2  7  2  0  0  0  0
  2 10  1  0  0  0  0
  3  6  1  0  0  0  0
  4  8  1  0  0  0  0
  4  5  2  0  0  0  0
  6  8  2  0  0  0  0
  7  4  1  0  0  0  0
  8 13  1  0  0  0  0
  9  5  1  0  0  0  0
 10  9  2  0  0  0  0
 11 10  1  0  0  0  0
 13 14  1  0  0  0  0
 13 12  1  1  0  0  0
 14 15  1  0  0  0  0
 15 18  1  0  0  0  0
 18 16  1  0  0  0  0
 18 17  1  0  0  0  0
 19 18  2  0  0  0  0
 20  1  1  0  0  0  0
 21 20  1  0  0  0  0
 22 21  2  0  0  0  0
 23 22  1  0  0  0  0
 24 23  1  0  0  0  0
 24 26  1  0  0  0  0
 25 24  2  0  0  0  0
M  END
>  <MODEL>
9

>  <REMARK>
 VINA RESULT:      -7.2      5.210      8.399
  Name = 
  8 active torsions:
  status: ('A' for Active; 'I' for Inactive)
    1  A    between atoms: C_1  and  C_13
    2  A    between atoms: N_4  and  C_7
    3  A    between atoms: N_4  and  C_17
    4  A    between atoms: C_8  and  C_13
    5  A    between atoms: O_9  and  C_11
    6  A    between atoms: O_9  and  P_23
    7  A    between atoms: C_11  and  C_20
    8  A    between atoms: C_19  and  C_20
                            x       y       z     vdW  Elec       q    Type
                         _______ _______ _______ _____ _____    ______ ____

>  <TORSDO>
F 8

$$$$
