=
 OpenBabel11042420503D

 41 46  0  0  1  0  0  0  0  0999 V2000
  160.9650  208.0990  154.6070 O   0  0  0  0  0  0  0  0  0  0  0  0
  160.0490  208.7490  156.7750 N   0  0  0  0  0  1  0  0  0  0  0  0
  161.0280  208.1970  153.2060 C   0  0  0  0  0  0  0  0  0  0  0  0
  160.5520  205.1330  149.4210 C   0  0  0  0  0  3  0  0  0  0  0  0
  161.0190  205.4570  150.7010 C   0  0  0  0  0  0  0  0  0  0  0  0
  159.6080  210.0260  154.8120 C   0  0  0  0  0  3  0  0  0  0  0  0
  160.2320  206.1220  148.5050 C   0  0  0  0  0  3  0  0  0  0  0  0
  161.1590  206.8310  151.0830 C   0  0  0  0  0  0  0  0  0  0  0  0
  159.7990  210.2960  153.3770 C   0  0  0  0  0  0  0  0  0  0  0  0
  161.0270  209.9540  151.3320 C   0  0  0  0  0  3  0  0  0  0  0  0
  161.3190  209.2540  150.2430 C   0  0  0  0  0  0  0  0  0  0  0  0
  162.0520  206.0090  153.2940 C   0  0  0  0  0  0  0  0  0  0  0  0
  160.1990  208.9790  155.3790 C   0  0  0  0  0  0  0  0  0  0  0  0
  161.5030  207.1330  152.5140 C   0  0  0  0  0  0  0  0  0  0  0  0
  160.4450  207.4510  148.8340 C   0  0  0  0  0  3  0  0  0  0  0  0
  161.5060  204.6510  153.0630 C   0  0  0  0  0  2  0  0  0  0  0  0
  159.1840  211.8310  152.7670 Cl  0  0  0  0  0  0  0  0  0  0  0  0
  160.4990  209.4460  152.5970 C   0  0  0  0  0  0  0  0  0  0  0  0
  162.9260  206.1930  154.1850 O   0  0  0  0  0  0  0  0  0  0  0  0
  160.9480  207.8270  150.0880 C   0  0  0  0  0  0  0  0  0  0  0  0
  161.5380  204.3240  151.5810 C   0  0  1  0  0  3  0  0  0  0  0  0
  161.2670  211.1110  148.5270 N   0  0  0  0  0  2  0  0  0  0  0  0
  161.9450  209.9890  149.1130 C   0  0  0  0  0  0  0  0  0  0  0  0
  163.0520  209.6010  148.6470 O   0  0  0  0  0  0  0  0  0  0  0  0
  161.4050  213.3500  145.5150 C   0  0  0  0  0  3  0  0  0  0  0  0
  163.6400  213.0260  146.3860 C   0  0  0  0  0  3  0  0  0  0  0  0
  163.1270  212.2100  147.3990 C   0  0  0  0  0  3  0  0  0  0  0  0
  162.7790  213.6030  145.4480 C   0  0  0  0  0  0  0  0  0  0  0  0
  161.7520  211.9610  147.4790 C   0  0  0  0  0  0  0  0  0  0  0  0
  160.8940  212.5340  146.5290 C   0  0  0  0  0  3  0  0  0  0  0  0
  163.3260  214.4520  144.3560 C   0  0  0  0  0  2  0  0  0  0  0  0
  162.5450  214.3080  143.2100 O   0  0  0  0  0  0  0  0  0  0  0  0
  163.4660  214.2450  142.1640 C   0  0  0  0  0  1  0  0  0  0  0  0
  160.8090  203.0040  151.3670 C   0  0  0  0  0  2  0  0  0  0  0  0
  161.7890  201.9360  150.9130 C   0  0  0  0  0  2  0  0  0  0  0  0
  161.8620  201.9000  149.3980 C   0  0  0  0  0  2  0  0  0  0  0  0
  160.4530  202.2820  147.4000 C   0  0  2  0  0  3  0  0  0  0  0  0
  160.5160  201.8730  148.8320 N   0  0  0  0  0  0  0  0  0  0  0  0
  160.5410  200.8720  147.7550 C   0  0  0  0  0  2  0  0  0  0  0  0
  161.4960  203.6970  145.6390 C   0  0  0  0  0  1  0  0  0  0  0  0
  161.7740  202.7580  146.7950 C   0  0  0  0  0  2  0  0  0  0  0  0
  1 13  1  0  0  0  0
  3  1  1  0  0  0  0
  4  5  1  0  0  0  0
  5  8  2  0  0  0  0
  5 21  1  0  0  0  0
  6 13  2  0  0  0  0
  7 15  1  0  0  0  0
  7  4  2  0  0  0  0
  8 14  1  0  0  0  0
  9  6  1  0  0  0  0
 10 18  1  0  0  0  0
 11 10  2  0  0  0  0
 12 19  2  0  0  0  0
 13  2  1  0  0  0  0
 14  3  2  0  0  0  0
 14 12  1  0  0  0  0
 15 20  2  0  0  0  0
 16 12  1  0  0  0  0
 17  9  1  0  0  0  0
 18  3  1  0  0  0  0
 18  9  2  0  0  0  0
 20 11  1  0  0  0  0
 20  8  1  0  0  0  0
 21 34  1  1  0  0  0
 21 16  1  0  0  0  0
 22 23  1  0  0  0  0
 23 11  1  0  0  0  0
 24 23  2  0  0  0  0
 25 30  1  0  0  0  0
 26 27  2  0  0  0  0
 27 29  1  0  0  0  0
 28 25  2  0  0  0  0
 28 26  1  0  0  0  0
 29 22  1  0  0  0  0
 30 29  2  0  0  0  0
 31 28  1  0  0  0  0
 32 31  1  0  0  0  0
 33 32  1  0  0  0  0
 35 34  1  0  0  0  0
 36 35  1  0  0  0  0
 37 41  1  6  0  0  0
 37 39  1  0  0  0  0
 37 38  1  0  0  0  0
 38 36  1  0  0  0  0
 39 38  1  0  0  0  0
 40 41  1  0  0  0  0
M  END
>  <MODEL>
1

>  <REMARK>
 VINA RESULT:      -3.5      0.000      0.000
  Name = 
  9 active torsions:
  status: ('A' for Active; 'I' for Inactive)
    1  A    between atoms: C_5  and  C_23
    2  A    between atoms: C_5  and  C_37
    3  A    between atoms: N_7  and  C_30
    4  A    between atoms: C_11  and  C_38
    5  A    between atoms: C_17  and  C_34
    6  A    between atoms: O_18  and  C_39
    7  A    between atoms: N_21  and  C_23
    8  A    between atoms: C_28  and  C_39
    9  A    between atoms: C_37  and  C_40
                            x       y       z     vdW  Elec       q    Type
                         _______ _______ _______ _____ _____    ______ ____

>  <TORSDO>
F 9

$$$$
=
 OpenBabel11042420503D

 41 46  0  0  1  0  0  0  0  0999 V2000
  159.9580  212.1650  153.8440 O   0  0  0  0  0  0  0  0  0  0  0  0
  158.3920  213.2550  155.3680 N   0  0  0  0  0  1  0  0  0  0  0  0
  160.3700  211.7730  152.5580 C   0  0  0  0  0  0  0  0  0  0  0  0
  161.5200  207.5650  150.3420 C   0  0  0  0  0  3  0  0  0  0  0  0
  161.5580  208.4400  151.4350 C   0  0  0  0  0  0  0  0  0  0  0  0
  158.2480  213.5710  153.0100 C   0  0  0  0  0  3  0  0  0  0  0  0
  161.2680  208.0300  149.0620 C   0  0  0  0  0  3  0  0  0  0  0  0
  161.3220  209.8390  151.2370 C   0  0  0  0  0  0  0  0  0  0  0  0
  158.7560  213.3560  151.6450 C   0  0  0  0  0  0  0  0  0  0  0  0
  160.5250  212.6730  150.1570 C   0  0  0  0  0  3  0  0  0  0  0  0
  161.2250  211.7460  149.5160 C   0  0  0  0  0  0  0  0  0  0  0  0
  161.7390  210.1450  153.7060 C   0  0  0  0  0  0  0  0  0  0  0  0
  158.8600  213.0070  154.0470 C   0  0  0  0  0  0  0  0  0  0  0  0
  161.2090  210.7140  152.4530 C   0  0  0  0  0  0  0  0  0  0  0  0
  161.1230  209.3920  148.8470 C   0  0  0  0  0  3  0  0  0  0  0  0
  161.5480  208.6980  153.9640 C   0  0  0  0  0  2  0  0  0  0  0  0
  158.0390  214.3330  150.3660 Cl  0  0  0  0  0  0  0  0  0  0  0  0
  159.7890  212.5200  151.4120 C   0  0  0  0  0  0  0  0  0  0  0  0
  162.2930  210.8720  154.5750 O   0  0  0  0  0  0  0  0  0  0  0  0
  161.1930  210.3140  149.9020 C   0  0  0  0  0  0  0  0  0  0  0  0
  162.0350  207.8900  152.7750 C   0  0  1  0  0  3  0  0  0  0  0  0
  161.2670  212.4180  147.0800 N   0  0  0  0  0  2  0  0  0  0  0  0
  161.9720  212.1760  148.3070 C   0  0  0  0  0  0  0  0  0  0  0  0
  163.2290  212.2910  148.3520 O   0  0  0  0  0  0  0  0  0  0  0  0
  161.6100  213.5550  143.5160 C   0  0  0  0  0  3  0  0  0  0  0  0
  163.7780  213.5950  144.5900 C   0  0  0  0  0  3  0  0  0  0  0  0
  163.1990  213.1400  145.7790 C   0  0  0  0  0  3  0  0  0  0  0  0
  162.9830  213.8100  143.4610 C   0  0  0  0  0  0  0  0  0  0  0  0
  161.8230  212.8920  145.8450 C   0  0  0  0  0  0  0  0  0  0  0  0
  161.0310  213.1000  144.7050 C   0  0  0  0  0  3  0  0  0  0  0  0
  163.6030  214.2720  142.1890 C   0  0  0  0  0  2  0  0  0  0  0  0
  163.1110  213.5170  141.1240 O   0  0  0  0  0  0  0  0  0  0  0  0
  162.9060  214.4460  140.1030 C   0  0  0  0  0  1  0  0  0  0  0  0
  161.6600  206.4310  153.0040 C   0  0  0  0  0  2  0  0  0  0  0  0
  162.5500  205.5280  152.1670 C   0  0  0  0  0  2  0  0  0  0  0  0
  161.7300  204.8260  151.1000 C   0  0  0  0  0  2  0  0  0  0  0  0
  160.5400  202.6870  150.7330 C   0  0  2  0  0  3  0  0  0  0  0  0
  160.9470  203.7470  151.6980 N   0  0  0  0  0  0  0  0  0  0  0  0
  161.7430  202.5210  151.5380 C   0  0  0  0  0  2  0  0  0  0  0  0
  160.8160  201.6620  148.4830 C   0  0  0  0  0  1  0  0  0  0  0  0
  160.9140  202.9510  149.2730 C   0  0  0  0  0  2  0  0  0  0  0  0
  1 13  1  0  0  0  0
  3  1  1  0  0  0  0
  4  5  1  0  0  0  0
  5 21  1  0  0  0  0
  6 13  2  0  0  0  0
  7  4  2  0  0  0  0
  8  5  2  0  0  0  0
  8 14  1  0  0  0  0
  9  6  1  0  0  0  0
 10 18  1  0  0  0  0
 11 20  1  0  0  0  0
 11 10  2  0  0  0  0
 12 16  1  0  0  0  0
 12 19  2  0  0  0  0
 13  2  1  0  0  0  0
 14  3  2  0  0  0  0
 14 12  1  0  0  0  0
 15  7  1  0  0  0  0
 15 20  2  0  0  0  0
 17  9  1  0  0  0  0
 18  9  2  0  0  0  0
 18  3  1  0  0  0  0
 20  8  1  0  0  0  0
 21 34  1  1  0  0  0
 21 16  1  0  0  0  0
 22 23  1  0  0  0  0
 23 24  2  0  0  0  0
 23 11  1  0  0  0  0
 25 30  1  0  0  0  0
 26 27  2  0  0  0  0
 27 29  1  0  0  0  0
 28 25  2  0  0  0  0
 28 26  1  0  0  0  0
 29 22  1  0  0  0  0
 30 29  2  0  0  0  0
 31 28  1  0  0  0  0
 32 31  1  0  0  0  0
 33 32  1  0  0  0  0
 35 34  1  0  0  0  0
 36 38  1  0  0  0  0
 36 35  1  0  0  0  0
 37 41  1  6  0  0  0
 37 39  1  0  0  0  0
 37 38  1  0  0  0  0
 39 38  1  0  0  0  0
 40 41  1  0  0  0  0
M  END
>  <MODEL>
2

>  <REMARK>
 VINA RESULT:      -3.5      2.141      3.243
  Name = 
  9 active torsions:
  status: ('A' for Active; 'I' for Inactive)
    1  A    between atoms: C_5  and  C_23
    2  A    between atoms: C_5  and  C_37
    3  A    between atoms: N_7  and  C_30
    4  A    between atoms: C_11  and  C_38
    5  A    between atoms: C_17  and  C_34
    6  A    between atoms: O_18  and  C_39
    7  A    between atoms: N_21  and  C_23
    8  A    between atoms: C_28  and  C_39
    9  A    between atoms: C_37  and  C_40
                            x       y       z     vdW  Elec       q    Type
                         _______ _______ _______ _____ _____    ______ ____

>  <TORSDO>
F 9

$$$$
=
 OpenBabel11042420503D

 41 46  0  0  1  0  0  0  0  0999 V2000
  158.9170  211.8700  155.6400 O   0  0  0  0  0  0  0  0  0  0  0  0
  157.1460  212.3320  157.2560 N   0  0  0  0  0  1  0  0  0  0  0  0
  159.3930  211.7370  154.3230 C   0  0  0  0  0  0  0  0  0  0  0  0
  161.5970  208.2480  151.6950 C   0  0  0  0  0  3  0  0  0  0  0  0
  161.4190  208.9860  152.8720 C   0  0  0  0  0  0  0  0  0  0  0  0
  156.8720  212.8320  154.9430 C   0  0  0  0  0  3  0  0  0  0  0  0
  161.2010  208.7530  150.4670 C   0  0  0  0  0  3  0  0  0  0  0  0
  160.8070  210.2800  152.8170 C   0  0  0  0  0  0  0  0  0  0  0  0
  157.3890  212.9030  153.5660 C   0  0  0  0  0  0  0  0  0  0  0  0
  159.2450  212.8820  152.0290 C   0  0  0  0  0  3  0  0  0  0  0  0
  160.1580  212.2510  151.3010 C   0  0  0  0  0  0  0  0  0  0  0  0
  161.1770  210.4370  155.3080 C   0  0  0  0  0  0  0  0  0  0  0  0
  157.6360  212.3540  155.9210 C   0  0  0  0  0  0  0  0  0  0  0  0
  160.4850  210.9630  154.1160 C   0  0  0  0  0  0  0  0  0  0  0  0
  160.6860  210.0380  150.3920 C   0  0  0  0  0  3  0  0  0  0  0  0
  161.3930  208.9750  155.4140 C   0  0  0  0  0  2  0  0  0  0  0  0
  156.4060  213.7710  152.3890 Cl  0  0  0  0  0  0  0  0  0  0  0  0
  158.6060  212.4090  153.2560 C   0  0  0  0  0  0  0  0  0  0  0  0
  161.5300  211.1960  156.2500 O   0  0  0  0  0  0  0  0  0  0  0  0
  160.5250  210.8340  151.5370 C   0  0  0  0  0  0  0  0  0  0  0  0
  162.0560  208.4540  154.1510 C   0  0  1  0  0  3  0  0  0  0  0  0
  161.0580  212.2840  148.9390 N   0  0  0  0  0  2  0  0  0  0  0  0
  160.7340  212.9880  150.1480 C   0  0  0  0  0  0  0  0  0  0  0  0
  160.9720  214.2250  150.2470 O   0  0  0  0  0  0  0  0  0  0  0  0
  161.2700  214.1240  145.6710 C   0  0  0  0  0  3  0  0  0  0  0  0
  163.4260  213.1590  146.1970 C   0  0  0  0  0  3  0  0  0  0  0  0
  162.9020  212.6320  147.3820 C   0  0  0  0  0  3  0  0  0  0  0  0
  162.6130  213.9120  145.3450 C   0  0  0  0  0  0  0  0  0  0  0  0
  161.5610  212.8490  147.7200 C   0  0  0  0  0  0  0  0  0  0  0  0
  160.7470  213.5960  146.8550 C   0  0  0  0  0  3  0  0  0  0  0  0
  163.1640  214.4530  144.0730 C   0  0  0  0  0  2  0  0  0  0  0  0
  163.2290  213.4380  143.1180 O   0  0  0  0  0  0  0  0  0  0  0  0
  163.2320  214.1080  141.8950 C   0  0  0  0  0  1  0  0  0  0  0  0
  162.0970  206.9330  154.2260 C   0  0  0  0  0  2  0  0  0  0  0  0
  161.0490  206.3400  153.3000 C   0  0  0  0  0  2  0  0  0  0  0  0
  161.6740  205.2810  152.4100 C   0  0  0  0  0  2  0  0  0  0  0  0
  160.5280  204.2050  150.4980 C   0  0  2  0  0  3  0  0  0  0  0  0
  160.6570  204.3250  151.9780 N   0  0  0  0  0  0  0  0  0  0  0  0
  161.3680  203.2710  151.2370 C   0  0  0  0  0  2  0  0  0  0  0  0
  160.7740  205.3840  148.3210 C   0  0  0  0  0  1  0  0  0  0  0  0
  161.3970  205.1660  149.6840 C   0  0  0  0  0  2  0  0  0  0  0  0
  1 13  1  0  0  0  0
  3  1  1  0  0  0  0
  4  5  1  0  0  0  0
  5 21  1  0  0  0  0
  6 13  2  0  0  0  0
  7  4  2  0  0  0  0
  8  5  2  0  0  0  0
  8 14  1  0  0  0  0
  9  6  1  0  0  0  0
 10 18  1  0  0  0  0
 11 20  1  0  0  0  0
 11 10  2  0  0  0  0
 12 16  1  0  0  0  0
 12 19  2  0  0  0  0
 13  2  1  0  0  0  0
 14  3  2  0  0  0  0
 14 12  1  0  0  0  0
 15  7  1  0  0  0  0
 15 20  2  0  0  0  0
 17  9  1  0  0  0  0
 18  9  2  0  0  0  0
 18  3  1  0  0  0  0
 20  8  1  0  0  0  0
 21 34  1  6  0  0  0
 21 16  1  0  0  0  0
 22 23  1  0  0  0  0
 23 24  2  0  0  0  0
 23 11  1  0  0  0  0
 25 30  1  0  0  0  0
 26 27  2  0  0  0  0
 27 29  1  0  0  0  0
 28 25  2  0  0  0  0
 28 26  1  0  0  0  0
 29 22  1  0  0  0  0
 30 29  2  0  0  0  0
 31 28  1  0  0  0  0
 32 31  1  0  0  0  0
 33 32  1  0  0  0  0
 35 34  1  0  0  0  0
 36 35  1  0  0  0  0
 37 41  1  6  0  0  0
 37 39  1  0  0  0  0
 37 38  1  0  0  0  0
 38 36  1  0  0  0  0
 39 38  1  0  0  0  0
 40 41  1  0  0  0  0
M  END
>  <MODEL>
3

>  <REMARK>
 VINA RESULT:      -2.2      2.276      3.645
  Name = 
  9 active torsions:
  status: ('A' for Active; 'I' for Inactive)
    1  A    between atoms: C_5  and  C_23
    2  A    between atoms: C_5  and  C_37
    3  A    between atoms: N_7  and  C_30
    4  A    between atoms: C_11  and  C_38
    5  A    between atoms: C_17  and  C_34
    6  A    between atoms: O_18  and  C_39
    7  A    between atoms: N_21  and  C_23
    8  A    between atoms: C_28  and  C_39
    9  A    between atoms: C_37  and  C_40
                            x       y       z     vdW  Elec       q    Type
                         _______ _______ _______ _____ _____    ______ ____

>  <TORSDO>
F 9

$$$$
