=
 OpenBabel11052409503D

 26 29  0  0  1  0  0  0  0  0999 V2000
  161.7170  209.1030  151.9670 C   0  0  1  0  0  3  0  0  0  0  0  0
  161.2850  205.1110  150.5820 C   0  0  0  0  0  0  0  0  0  0  0  0
  160.8020  202.6550  150.5140 C   0  0  0  0  0  3  0  0  0  0  0  0
  161.4650  206.2960  151.2540 N   0  0  0  0  0  0  0  0  0  0  0  0
  161.4040  204.4770  148.0930 C   0  0  0  0  0  0  0  0  0  0  0  0
  161.4540  206.6150  153.0090 S   0  0  0  0  0  0  0  0  0  0  0  0
  161.9680  207.2820  147.8800 C   0  0  0  0  0  3  0  0  0  0  0  0
  160.9660  203.8710  151.1770 C   0  0  0  0  0  0  0  0  0  0  0  0
  161.4700  205.3420  149.2780 C   0  0  0  0  0  0  0  0  0  0  0  0
  161.1430  203.1200  148.0990 C   0  0  0  0  0  3  0  0  0  0  0  0
  160.7560  203.7510  152.6450 C   0  0  0  0  0  1  0  0  0  0  0  0
  161.9060  206.4690  146.7430 C   0  0  0  0  0  3  0  0  0  0  0  0
  161.7380  207.2400  150.3200 C   0  0  0  0  0  0  0  0  0  0  0  0
  160.7530  208.2810  152.8170 C   0  0  0  0  0  2  0  0  0  0  0  0
  161.6320  205.0940  146.8550 C   0  0  0  0  0  3  0  0  0  0  0  0
  160.8750  202.2760  149.1680 C   0  0  0  0  0  0  0  0  0  0  0  0
  161.7650  206.7120  149.0910 N   0  0  0  0  0  0  0  0  0  0  0  0
  161.8460  208.5490  150.5770 C   0  0  0  0  0  3  0  0  0  0  0  0
  161.3450  210.4820  151.9400 O   0  0  0  0  0  0  0  0  0  0  0  0
  159.9670  212.0800  155.0810 C   0  0  0  0  0  1  0  0  0  0  0  0
  160.8660  211.4670  154.1180 N   0  0  0  0  0  2  0  0  0  0  0  0
  160.4260  211.0660  152.8210 C   0  0  0  0  0  0  0  0  0  0  0  0
  159.2230  211.2390  152.4770 O   0  0  0  0  0  0  0  0  0  0  0  0
  160.6590  200.9340  148.8290 O   0  0  0  0  0  0  0  0  0  0  0  0
  161.1790  200.3430  147.7050 C   0  0  0  0  0  0  0  0  0  0  0  0
  161.6170  199.8440  146.7570 N   0  0  0  0  0  0  0  0  0  0  0  0
  1 19  1  6  0  0  0
  1 14  1  0  0  0  0
  2  8  1  0  0  0  0
  2  4  1  0  0  0  0
  3  8  2  0  0  0  0
  4  6  1  0  0  0  0
  5 10  1  0  0  0  0
  5  9  1  0  0  0  0
  7 17  1  0  0  0  0
  8 11  1  0  0  0  0
  9  2  2  0  0  0  0
 10 16  2  0  0  0  0
 12 15  1  0  0  0  0
 12  7  2  0  0  0  0
 13 18  2  0  0  0  0
 13  4  1  0  0  0  0
 14  6  1  0  0  0  0
 15  5  2  0  0  0  0
 16  3  1  0  0  0  0
 17  9  1  0  0  0  0
 17 13  1  0  0  0  0
 18  1  1  0  0  0  0
 19 22  1  0  0  0  0
 21 20  1  0  0  0  0
 22 21  1  0  0  0  0
 23 22  2  0  0  0  0
 24 16  1  0  0  0  0
 25 24  1  0  0  0  0
 26 25  3  0  0  0  0
M  END
>  <MODEL>
1

>  <REMARK>
 VINA RESULT:      -9.0      0.000      0.000
  Name = 
  4 active torsions:
  status: ('A' for Active; 'I' for Inactive)
    1  A    between atoms: C_1  and  O_10
    2  A    between atoms: C_7  and  O_23
    3  A    between atoms: O_10  and  C_21
    4  A    between atoms: C_22  and  O_23
                            x       y       z     vdW  Elec       q    Type
                         _______ _______ _______ _____ _____    ______ ____

>  <TORSDO>
F 4

$$$$
=
 OpenBabel11052409503D

 26 29  0  0  1  0  0  0  0  0999 V2000
  161.6830  208.8950  151.2520 C   0  0  1  0  0  3  0  0  0  0  0  0
  161.3470  205.3540  148.9310 C   0  0  0  0  0  0  0  0  0  0  0  0
  161.3810  203.7640  146.9970 C   0  0  0  0  0  3  0  0  0  0  0  0
  161.4050  206.6190  149.4660 N   0  0  0  0  0  0  0  0  0  0  0  0
  161.0290  203.0260  149.9760 C   0  0  0  0  0  0  0  0  0  0  0  0
  161.5350  208.1930  148.6380 S   0  0  0  0  0  0  0  0  0  0  0  0
  160.9680  204.6140  152.3640 C   0  0  0  0  0  3  0  0  0  0  0  0
  161.4600  205.0380  147.5590 C   0  0  0  0  0  0  0  0  0  0  0  0
  161.1600  204.4890  149.9330 C   0  0  0  0  0  0  0  0  0  0  0  0
  161.0440  202.1840  148.8810 C   0  0  0  0  0  3  0  0  0  0  0  0
  161.6970  206.0960  146.5400 C   0  0  0  0  0  1  0  0  0  0  0  0
  160.8430  203.2220  152.4190 C   0  0  0  0  0  3  0  0  0  0  0  0
  161.2720  206.4840  150.8080 C   0  0  0  0  0  0  0  0  0  0  0  0
  162.5150  208.9430  149.9730 C   0  0  0  0  0  2  0  0  0  0  0  0
  160.8710  202.4490  151.2440 C   0  0  0  0  0  3  0  0  0  0  0  0
  161.1940  202.4850  147.5350 C   0  0  0  0  0  0  0  0  0  0  0  0
  161.1080  205.2010  151.1520 N   0  0  0  0  0  0  0  0  0  0  0  0
  161.4090  207.4840  151.6860 C   0  0  0  0  0  3  0  0  0  0  0  0
  162.2950  209.6480  152.3000 O   0  0  0  0  0  0  0  0  0  0  0  0
  159.7080  212.0070  153.7360 C   0  0  0  0  0  1  0  0  0  0  0  0
  160.4880  211.2030  152.8110 N   0  0  0  0  0  2  0  0  0  0  0  0
  161.5850  210.4010  153.2450 C   0  0  0  0  0  0  0  0  0  0  0  0
  161.9070  210.3730  154.4650 O   0  0  0  0  0  0  0  0  0  0  0  0
  161.1550  201.3850  146.6690 O   0  0  0  0  0  0  0  0  0  0  0  0
  160.3550  201.3240  145.5560 C   0  0  0  0  0  0  0  0  0  0  0  0
  159.6800  201.2730  144.6170 N   0  0  0  0  0  0  0  0  0  0  0  0
  1 18  1  0  0  0  0
  1 19  1  1  0  0  0
  2  4  1  0  0  0  0
  2  9  2  0  0  0  0
  3 16  1  0  0  0  0
  3  8  2  0  0  0  0
  4 13  1  0  0  0  0
  5 15  2  0  0  0  0
  6  4  1  0  0  0  0
  6 14  1  0  0  0  0
  7 12  2  0  0  0  0
  8  2  1  0  0  0  0
  9  5  1  0  0  0  0
  9 17  1  0  0  0  0
 10  5  1  0  0  0  0
 11  8  1  0  0  0  0
 13 17  1  0  0  0  0
 13 18  2  0  0  0  0
 14  1  1  0  0  0  0
 15 12  1  0  0  0  0
 16 10  2  0  0  0  0
 17  7  1  0  0  0  0
 19 22  1  0  0  0  0
 21 22  1  0  0  0  0
 21 20  1  0  0  0  0
 22 23  2  0  0  0  0
 24 16  1  0  0  0  0
 25 24  1  0  0  0  0
 26 25  3  0  0  0  0
M  END
>  <MODEL>
2

>  <REMARK>
 VINA RESULT:      -8.9      1.715      3.247
  Name = 
  4 active torsions:
  status: ('A' for Active; 'I' for Inactive)
    1  A    between atoms: C_1  and  O_10
    2  A    between atoms: C_7  and  O_23
    3  A    between atoms: O_10  and  C_21
    4  A    between atoms: C_22  and  O_23
                            x       y       z     vdW  Elec       q    Type
                         _______ _______ _______ _____ _____    ______ ____

>  <TORSDO>
F 4

$$$$
=
 OpenBabel11052409503D

 26 29  0  0  1  0  0  0  0  0999 V2000
  161.0700  207.6210  153.7950 C   0  0  1  0  0  3  0  0  0  0  0  0
  161.3170  206.0900  149.8410 C   0  0  0  0  0  0  0  0  0  0  0  0
  161.6660  205.9360  147.3670 C   0  0  0  0  0  3  0  0  0  0  0  0
  161.1860  206.8040  151.0080 N   0  0  0  0  0  0  0  0  0  0  0  0
  161.2270  203.5750  149.3100 C   0  0  0  0  0  0  0  0  0  0  0  0
  161.1690  208.5700  151.2580 S   0  0  0  0  0  0  0  0  0  0  0  0
  160.8230  203.4610  152.1490 C   0  0  0  0  0  3  0  0  0  0  0  0
  161.5520  206.6430  148.5630 C   0  0  0  0  0  0  0  0  0  0  0  0
  161.1780  204.7920  150.1320 C   0  0  0  0  0  0  0  0  0  0  0  0
  161.4130  203.5350  147.9420 C   0  0  0  0  0  3  0  0  0  0  0  0
  161.7180  208.1100  148.3750 C   0  0  0  0  0  1  0  0  0  0  0  0
  160.8700  202.2950  151.3780 C   0  0  0  0  0  3  0  0  0  0  0  0
  160.9880  205.9030  152.0000 C   0  0  0  0  0  0  0  0  0  0  0  0
  161.9650  208.4610  152.8890 C   0  0  0  0  0  2  0  0  0  0  0  0
  161.0650  202.3580  149.9860 C   0  0  0  0  0  3  0  0  0  0  0  0
  161.6070  204.5740  147.0440 C   0  0  0  0  0  0  0  0  0  0  0  0
  160.9640  204.6530  151.5220 N   0  0  0  0  0  0  0  0  0  0  0  0
  160.9460  206.2080  153.3020 C   0  0  0  0  0  3  0  0  0  0  0  0
  161.5170  207.6580  155.1510 O   0  0  0  0  0  0  0  0  0  0  0  0
  159.7560  210.4740  156.9640 C   0  0  0  0  0  1  0  0  0  0  0  0
  160.0300  209.3470  156.0880 N   0  0  0  0  0  2  0  0  0  0  0  0
  161.3210  208.7420  156.0150 C   0  0  0  0  0  0  0  0  0  0  0  0
  162.2690  209.1820  156.7230 O   0  0  0  0  0  0  0  0  0  0  0  0
  161.7580  204.1880  145.7060 O   0  0  0  0  0  0  0  0  0  0  0  0
  161.4790  205.0100  144.6440 C   0  0  0  0  0  0  0  0  0  0  0  0
  161.2430  205.7030  143.7470 N   0  0  0  0  0  0  0  0  0  0  0  0
  1 19  1  1  0  0  0
  2  9  2  0  0  0  0
  2  4  1  0  0  0  0
  3  8  2  0  0  0  0
  4  6  1  0  0  0  0
  4 13  1  0  0  0  0
  5 15  2  0  0  0  0
  5  9  1  0  0  0  0
  6 14  1  0  0  0  0
  8  2  1  0  0  0  0
  9 17  1  0  0  0  0
 10  5  1  0  0  0  0
 11  8  1  0  0  0  0
 12  7  2  0  0  0  0
 13 18  2  0  0  0  0
 14  1  1  0  0  0  0
 15 12  1  0  0  0  0
 16  3  1  0  0  0  0
 16 10  2  0  0  0  0
 17 13  1  0  0  0  0
 17  7  1  0  0  0  0
 18  1  1  0  0  0  0
 19 22  1  0  0  0  0
 21 20  1  0  0  0  0
 22 21  1  0  0  0  0
 22 23  2  0  0  0  0
 24 16  1  0  0  0  0
 25 24  1  0  0  0  0
 26 25  3  0  0  0  0
M  END
>  <MODEL>
3

>  <REMARK>
 VINA RESULT:      -8.8      2.559      3.942
  Name = 
  4 active torsions:
  status: ('A' for Active; 'I' for Inactive)
    1  A    between atoms: C_1  and  O_10
    2  A    between atoms: C_7  and  O_23
    3  A    between atoms: O_10  and  C_21
    4  A    between atoms: C_22  and  O_23
                            x       y       z     vdW  Elec       q    Type
                         _______ _______ _______ _____ _____    ______ ____

>  <TORSDO>
F 4

$$$$
=
 OpenBabel11052409503D

 26 29  0  0  1  0  0  0  0  0999 V2000
  161.3080  208.7680  154.4590 C   0  0  1  0  0  3  0  0  0  0  0  0
  161.2820  205.9150  151.3130 C   0  0  0  0  0  0  0  0  0  0  0  0
  161.0030  203.7750  150.0430 C   0  0  0  0  0  3  0  0  0  0  0  0
  161.3250  206.6390  152.4800 N   0  0  0  0  0  0  0  0  0  0  0  0
  161.5990  206.5580  148.8430 C   0  0  0  0  0  0  0  0  0  0  0  0
  161.1850  206.0760  154.1660 S   0  0  0  0  0  0  0  0  0  0  0  0
  161.9470  209.1430  150.0400 C   0  0  0  0  0  3  0  0  0  0  0  0
  161.0290  204.5290  151.2160 C   0  0  0  0  0  0  0  0  0  0  0  0
  161.5250  206.7510  150.2980 C   0  0  0  0  0  0  0  0  0  0  0  0
  161.4480  205.3550  148.1810 C   0  0  0  0  0  3  0  0  0  0  0  0
  160.7430  203.7100  152.4250 C   0  0  0  0  0  1  0  0  0  0  0  0
  162.0180  208.9730  148.6530 C   0  0  0  0  0  3  0  0  0  0  0  0
  161.5770  207.9250  152.1360 C   0  0  0  0  0  0  0  0  0  0  0  0
  160.3650  207.5990  154.7260 C   0  0  0  0  0  2  0  0  0  0  0  0
  161.8490  207.7020  148.0730 C   0  0  0  0  0  3  0  0  0  0  0  0
  161.1860  204.0920  148.6920 C   0  0  0  0  0  0  0  0  0  0  0  0
  161.7190  208.0530  150.8110 N   0  0  0  0  0  0  0  0  0  0  0  0
  161.5640  208.9540  152.9910 C   0  0  0  0  0  3  0  0  0  0  0  0
  160.8290  209.9730  155.0560 O   0  0  0  0  0  0  0  0  0  0  0  0
  158.2880  212.0230  153.1430 C   0  0  0  0  0  1  0  0  0  0  0  0
  159.5200  211.3650  153.5420 N   0  0  0  0  0  2  0  0  0  0  0  0
  159.6100  210.5810  154.7320 C   0  0  0  0  0  0  0  0  0  0  0  0
  158.6000  210.4410  155.4760 O   0  0  0  0  0  0  0  0  0  0  0  0
  161.0990  203.0690  147.7380 O   0  0  0  0  0  0  0  0  0  0  0  0
  161.1650  201.7340  148.0500 C   0  0  0  0  0  0  0  0  0  0  0  0
  161.2200  200.6080  148.3130 N   0  0  0  0  0  0  0  0  0  0  0  0
  1 14  1  0  0  0  0
  1 19  1  6  0  0  0
  2  4  1  0  0  0  0
  3  8  2  0  0  0  0
  4  6  1  0  0  0  0
  5  9  1  0  0  0  0
  6 14  1  0  0  0  0
  7 17  1  0  0  0  0
  8  2  1  0  0  0  0
  8 11  1  0  0  0  0
  9 17  1  0  0  0  0
  9  2  2  0  0  0  0
 10 16  2  0  0  0  0
 10  5  1  0  0  0  0
 12  7  2  0  0  0  0
 13  4  1  0  0  0  0
 13 18  2  0  0  0  0
 15 12  1  0  0  0  0
 15  5  2  0  0  0  0
 16  3  1  0  0  0  0
 17 13  1  0  0  0  0
 18  1  1  0  0  0  0
 20 21  1  0  0  0  0
 21 22  1  0  0  0  0
 22 19  1  0  0  0  0
 22 23  2  0  0  0  0
 24 25  1  0  0  0  0
 24 16  1  0  0  0  0
 25 26  3  0  0  0  0
M  END
>  <MODEL>
4

>  <REMARK>
 VINA RESULT:      -8.4      1.621      2.145
  Name = 
  4 active torsions:
  status: ('A' for Active; 'I' for Inactive)
    1  A    between atoms: C_1  and  O_10
    2  A    between atoms: C_7  and  O_23
    3  A    between atoms: O_10  and  C_21
    4  A    between atoms: C_22  and  O_23
                            x       y       z     vdW  Elec       q    Type
                         _______ _______ _______ _____ _____    ______ ____

>  <TORSDO>
F 4

$$$$
=
 OpenBabel11052409503D

 26 29  0  0  1  0  0  0  0  0999 V2000
  161.3250  204.0420  145.9640 C   0  0  1  0  0  3  0  0  0  0  0  0
  161.5110  206.2920  149.5620 C   0  0  0  0  0  0  0  0  0  0  0  0
  161.6310  208.2130  151.1640 C   0  0  0  0  0  3  0  0  0  0  0  0
  161.5730  205.7590  148.2970 N   0  0  0  0  0  0  0  0  0  0  0  0
  161.1090  205.2530  151.8800 C   0  0  0  0  0  0  0  0  0  0  0  0
  161.9540  206.5590  146.7490 S   0  0  0  0  0  0  0  0  0  0  0  0
  160.9060  202.8850  150.2730 C   0  0  0  0  0  3  0  0  0  0  0  0
  161.6690  207.6580  149.8850 C   0  0  0  0  0  0  0  0  0  0  0  0
  161.2800  205.2940  150.4210 C   0  0  0  0  0  0  0  0  0  0  0  0
  161.1930  206.3380  152.7310 C   0  0  0  0  0  3  0  0  0  0  0  0
  161.8940  208.6800  148.8270 C   0  0  0  0  0  1  0  0  0  0  0  0
  160.7400  202.8330  151.6610 C   0  0  0  0  0  3  0  0  0  0  0  0
  161.3530  204.4270  148.4200 C   0  0  0  0  0  0  0  0  0  0  0  0
  160.8490  205.4810  145.7890 C   0  0  0  0  0  2  0  0  0  0  0  0
  160.8440  203.9970  152.4430 C   0  0  0  0  0  3  0  0  0  0  0  0
  161.4310  207.6740  152.4410 C   0  0  0  0  0  0  0  0  0  0  0  0
  161.1770  204.0820  149.7010 N   0  0  0  0  0  0  0  0  0  0  0  0
  161.2080  203.5860  147.3900 C   0  0  0  0  0  3  0  0  0  0  0  0
  160.6400  203.1540  145.0800 O   0  0  0  0  0  0  0  0  0  0  0  0
  161.2060  199.7300  146.5890 C   0  0  0  0  0  1  0  0  0  0  0  0
  161.2950  201.1530  146.3100 N   0  0  0  0  0  2  0  0  0  0  0  0
  160.5060  201.7770  145.2970 C   0  0  0  0  0  0  0  0  0  0  0  0
  159.6990  201.0910  144.6100 O   0  0  0  0  0  0  0  0  0  0  0  0
  161.4610  208.5300  153.5490 O   0  0  0  0  0  0  0  0  0  0  0  0
  160.8300  208.2540  154.7360 C   0  0  0  0  0  0  0  0  0  0  0  0
  160.2980  208.0210  155.7380 N   0  0  0  0  0  0  0  0  0  0  0  0
  1 19  1  6  0  0  0
  1 18  1  0  0  0  0
  2  8  1  0  0  0  0
  2  9  2  0  0  0  0
  3 16  1  0  0  0  0
  4 13  1  0  0  0  0
  4  2  1  0  0  0  0
  5 15  2  0  0  0  0
  5 10  1  0  0  0  0
  6  4  1  0  0  0  0
  7 12  2  0  0  0  0
  8  3  2  0  0  0  0
  9  5  1  0  0  0  0
 11  8  1  0  0  0  0
 12 15  1  0  0  0  0
 13 17  1  0  0  0  0
 14  1  1  0  0  0  0
 14  6  1  0  0  0  0
 16 10  2  0  0  0  0
 16 24  1  0  0  0  0
 17  7  1  0  0  0  0
 17  9  1  0  0  0  0
 18 13  2  0  0  0  0
 19 22  1  0  0  0  0
 21 20  1  0  0  0  0
 22 21  1  0  0  0  0
 23 22  2  0  0  0  0
 24 25  1  0  0  0  0
 25 26  3  0  0  0  0
M  END
>  <MODEL>
5

>  <REMARK>
 VINA RESULT:      -8.3      2.393      7.953
  Name = 
  4 active torsions:
  status: ('A' for Active; 'I' for Inactive)
    1  A    between atoms: C_1  and  O_10
    2  A    between atoms: C_7  and  O_23
    3  A    between atoms: O_10  and  C_21
    4  A    between atoms: C_22  and  O_23
                            x       y       z     vdW  Elec       q    Type
                         _______ _______ _______ _____ _____    ______ ____

>  <TORSDO>
F 4

$$$$
=
 OpenBabel11052409503D

 26 29  0  0  1  0  0  0  0  0999 V2000
  161.0380  204.1050  149.0470 C   0  0  1  0  0  3  0  0  0  0  0  0
  161.1920  207.2820  151.8620 C   0  0  0  0  0  0  0  0  0  0  0  0
  161.2390  208.5470  154.0220 C   0  0  0  0  0  3  0  0  0  0  0  0
  161.0150  206.1320  151.1300 N   0  0  0  0  0  0  0  0  0  0  0  0
  161.7660  209.7010  151.2060 C   0  0  0  0  0  0  0  0  0  0  0  0
  160.5200  204.5090  151.6770 S   0  0  0  0  0  0  0  0  0  0  0  0
  161.7940  208.4990  148.6000 C   0  0  0  0  0  3  0  0  0  0  0  0
  161.0850  207.3860  153.2660 C   0  0  0  0  0  0  0  0  0  0  0  0
  161.4760  208.2740  151.0120 C   0  0  0  0  0  0  0  0  0  0  0  0
  161.7720  210.3650  152.4180 C   0  0  0  0  0  3  0  0  0  0  0  0
  160.7910  206.1940  154.1080 C   0  0  0  0  0  1  0  0  0  0  0  0
  162.0740  209.8590  148.7720 C   0  0  0  0  0  3  0  0  0  0  0  0
  161.2210  206.4570  149.8310 C   0  0  0  0  0  0  0  0  0  0  0  0
  161.5230  203.6560  150.4230 C   0  0  0  0  0  2  0  0  0  0  0  0
  162.0560  210.4430  150.0520 C   0  0  0  0  0  3  0  0  0  0  0  0
  161.5340  209.8760  153.6940 C   0  0  0  0  0  0  0  0  0  0  0  0
  161.4970  207.7600  149.6960 N   0  0  0  0  0  0  0  0  0  0  0  0
  161.2660  205.5730  148.8280 C   0  0  0  0  0  3  0  0  0  0  0  0
  161.6320  203.3300  148.0060 O   0  0  0  0  0  0  0  0  0  0  0  0
  160.1530  201.3270  145.1560 C   0  0  0  0  0  1  0  0  0  0  0  0
  160.8160  202.3720  145.9170 N   0  0  0  0  0  2  0  0  0  0  0  0
  160.9820  202.2870  147.3330 C   0  0  0  0  0  0  0  0  0  0  0  0
  160.5480  201.2830  147.9630 O   0  0  0  0  0  0  0  0  0  0  0  0
  161.6120  210.8260  154.7210 O   0  0  0  0  0  0  0  0  0  0  0  0
  162.4840  210.7320  155.7760 C   0  0  0  0  0  0  0  0  0  0  0  0
  163.2190  210.6540  156.6660 N   0  0  0  0  0  0  0  0  0  0  0  0
  1 19  1  6  0  0  0
  1 14  1  0  0  0  0
  2  8  1  0  0  0  0
  4  6  1  0  0  0  0
  4  2  1  0  0  0  0
  5 10  1  0  0  0  0
  7 12  2  0  0  0  0
  7 17  1  0  0  0  0
  8  3  2  0  0  0  0
  8 11  1  0  0  0  0
  9  5  1  0  0  0  0
  9  2  2  0  0  0  0
 10 16  2  0  0  0  0
 12 15  1  0  0  0  0
 13  4  1  0  0  0  0
 14  6  1  0  0  0  0
 15  5  2  0  0  0  0
 16  3  1  0  0  0  0
 16 24  1  0  0  0  0
 17 13  1  0  0  0  0
 17  9  1  0  0  0  0
 18  1  1  0  0  0  0
 18 13  2  0  0  0  0
 20 21  1  0  0  0  0
 21 22  1  0  0  0  0
 22 23  2  0  0  0  0
 22 19  1  0  0  0  0
 24 25  1  0  0  0  0
 25 26  3  0  0  0  0
M  END
>  <MODEL>
6

>  <REMARK>
 VINA RESULT:      -8.2      1.921      7.853
  Name = 
  4 active torsions:
  status: ('A' for Active; 'I' for Inactive)
    1  A    between atoms: C_1  and  O_10
    2  A    between atoms: C_7  and  O_23
    3  A    between atoms: O_10  and  C_21
    4  A    between atoms: C_22  and  O_23
                            x       y       z     vdW  Elec       q    Type
                         _______ _______ _______ _____ _____    ______ ____

>  <TORSDO>
F 4

$$$$
=
 OpenBabel11052409503D

 26 29  0  0  1  0  0  0  0  0999 V2000
  160.8100  201.8950  149.6650 C   0  0  1  0  0  3  0  0  0  0  0  0
  161.2830  205.8580  151.1180 C   0  0  0  0  0  0  0  0  0  0  0  0
  161.5740  207.8070  152.6630 C   0  0  0  0  0  3  0  0  0  0  0  0
  161.0240  204.5310  150.8710 N   0  0  0  0  0  0  0  0  0  0  0  0
  161.7860  207.8570  149.5820 C   0  0  0  0  0  0  0  0  0  0  0  0
  160.5900  203.2310  152.0120 S   0  0  0  0  0  0  0  0  0  0  0  0
  161.5200  205.8050  147.5940 C   0  0  0  0  0  3  0  0  0  0  0  0
  161.3340  206.4600  152.3950 C   0  0  0  0  0  0  0  0  0  0  0  0
  161.4730  206.4690  149.9440 C   0  0  0  0  0  0  0  0  0  0  0  0
  161.9290  208.9080  150.4670 C   0  0  0  0  0  3  0  0  0  0  0  0
  161.1330  205.6600  153.6340 C   0  0  0  0  0  1  0  0  0  0  0  0
  161.8200  207.1240  147.2360 C   0  0  0  0  0  3  0  0  0  0  0  0
  161.0850  204.3630  149.5280 C   0  0  0  0  0  0  0  0  0  0  0  0
  161.4440  201.9470  151.0510 C   0  0  0  0  0  2  0  0  0  0  0  0
  161.9460  208.1260  148.2150 C   0  0  0  0  0  3  0  0  0  0  0  0
  161.8340  208.9180  151.8510 C   0  0  0  0  0  0  0  0  0  0  0  0
  161.3460  205.5180  148.9060 N   0  0  0  0  0  0  0  0  0  0  0  0
  161.0150  203.1780  148.9100 C   0  0  0  0  0  3  0  0  0  0  0  0
  161.2820  200.7750  148.9150 O   0  0  0  0  0  0  0  0  0  0  0  0
  160.3240  201.6090  145.3510 C   0  0  0  0  0  1  0  0  0  0  0  0
  160.4960  201.6790  146.7920 N   0  0  0  0  0  2  0  0  0  0  0  0
  161.1490  200.6440  147.5270 C   0  0  0  0  0  0  0  0  0  0  0  0
  161.5980  199.6280  146.9290 O   0  0  0  0  0  0  0  0  0  0  0  0
  162.0270  210.1670  152.4540 O   0  0  0  0  0  0  0  0  0  0  0  0
  161.4630  210.5260  153.6520 C   0  0  0  0  0  0  0  0  0  0  0  0
  160.9880  210.8290  154.6640 N   0  0  0  0  0  0  0  0  0  0  0  0
  1 19  1  6  0  0  0
  1 14  1  0  0  0  0
  2  8  1  0  0  0  0
  4  2  1  0  0  0  0
  4  6  1  0  0  0  0
  5  9  1  0  0  0  0
  5 10  1  0  0  0  0
  7 17  1  0  0  0  0
  8  3  2  0  0  0  0
  8 11  1  0  0  0  0
  9  2  2  0  0  0  0
 10 16  2  0  0  0  0
 12  7  2  0  0  0  0
 12 15  1  0  0  0  0
 13  4  1  0  0  0  0
 14  6  1  0  0  0  0
 15  5  2  0  0  0  0
 16 24  1  0  0  0  0
 16  3  1  0  0  0  0
 17 13  1  0  0  0  0
 17  9  1  0  0  0  0
 18 13  2  0  0  0  0
 18  1  1  0  0  0  0
 20 21  1  0  0  0  0
 21 22  1  0  0  0  0
 22 19  1  0  0  0  0
 23 22  2  0  0  0  0
 24 25  1  0  0  0  0
 25 26  3  0  0  0  0
M  END
>  <MODEL>
7

>  <REMARK>
 VINA RESULT:      -8.2      1.531      7.641
  Name = 
  4 active torsions:
  status: ('A' for Active; 'I' for Inactive)
    1  A    between atoms: C_1  and  O_10
    2  A    between atoms: C_7  and  O_23
    3  A    between atoms: O_10  and  C_21
    4  A    between atoms: C_22  and  O_23
                            x       y       z     vdW  Elec       q    Type
                         _______ _______ _______ _____ _____    ______ ____

>  <TORSDO>
F 4

$$$$
=
 OpenBabel11052409503D

 26 29  0  0  1  0  0  0  0  0999 V2000
  161.0710  204.3480  148.5740 C   0  0  1  0  0  3  0  0  0  0  0  0
  161.2100  207.1910  151.7270 C   0  0  0  0  0  0  0  0  0  0  0  0
  161.2540  208.2060  154.0150 C   0  0  0  0  0  3  0  0  0  0  0  0
  161.0390  206.1290  150.8710 N   0  0  0  0  0  0  0  0  0  0  0  0
  161.7670  209.6720  151.3450 C   0  0  0  0  0  0  0  0  0  0  0  0
  160.5570  204.4510  151.2330 S   0  0  0  0  0  0  0  0  0  0  0  0
  161.7970  208.7700  148.6210 C   0  0  0  0  0  3  0  0  0  0  0  0
  161.1060  207.1360  153.1340 C   0  0  0  0  0  0  0  0  0  0  0  0
  161.4860  208.2740  150.9930 C   0  0  0  0  0  0  0  0  0  0  0  0
  161.7710  210.1950  152.6240 C   0  0  0  0  0  3  0  0  0  0  0  0
  160.8220  205.8550  153.8370 C   0  0  0  0  0  1  0  0  0  0  0  0
  162.0680  210.1040  148.9440 C   0  0  0  0  0  3  0  0  0  0  0  0
  161.2410  206.5990  149.6160 C   0  0  0  0  0  0  0  0  0  0  0  0
  161.5620  203.7520  149.8900 C   0  0  0  0  0  2  0  0  0  0  0  0
  162.0490  210.5410  150.2810 C   0  0  0  0  0  3  0  0  0  0  0  0
  161.5400  209.5650  153.8380 C   0  0  0  0  0  0  0  0  0  0  0  0
  161.5080  207.9100  149.6270 N   0  0  0  0  0  0  0  0  0  0  0  0
  161.2890  205.8330  148.5200 C   0  0  0  0  0  3  0  0  0  0  0  0
  161.6680  203.6990  147.4510 O   0  0  0  0  0  0  0  0  0  0  0  0
  161.3630  205.3620  144.0660 C   0  0  0  0  0  1  0  0  0  0  0  0
  161.0430  204.6830  145.3100 N   0  0  0  0  0  2  0  0  0  0  0  0
  162.0450  204.3540  146.2720 C   0  0  0  0  0  0  0  0  0  0  0  0
  163.2530  204.6520  146.0570 O   0  0  0  0  0  0  0  0  0  0  0  0
  161.6130  210.3950  154.9640 O   0  0  0  0  0  0  0  0  0  0  0  0
  162.1890  210.0140  156.1500 C   0  0  0  0  0  0  0  0  0  0  0  0
  162.6750  209.6930  157.1510 N   0  0  0  0  0  0  0  0  0  0  0  0
  1 19  1  6  0  0  0
  1 14  1  0  0  0  0
  2  8  1  0  0  0  0
  4  6  1  0  0  0  0
  4  2  1  0  0  0  0
  5 10  1  0  0  0  0
  7 12  2  0  0  0  0
  7 17  1  0  0  0  0
  8 11  1  0  0  0  0
  8  3  2  0  0  0  0
  9  5  1  0  0  0  0
  9  2  2  0  0  0  0
 10 16  2  0  0  0  0
 12 15  1  0  0  0  0
 13 17  1  0  0  0  0
 13  4  1  0  0  0  0
 14  6  1  0  0  0  0
 15  5  2  0  0  0  0
 16  3  1  0  0  0  0
 16 24  1  0  0  0  0
 17  9  1  0  0  0  0
 18  1  1  0  0  0  0
 18 13  2  0  0  0  0
 20 21  1  0  0  0  0
 21 22  1  0  0  0  0
 22 19  1  0  0  0  0
 23 22  2  0  0  0  0
 24 25  1  0  0  0  0
 25 26  3  0  0  0  0
M  END
>  <MODEL>
8

>  <REMARK>
 VINA RESULT:      -8.1      2.373      7.507
  Name = 
  4 active torsions:
  status: ('A' for Active; 'I' for Inactive)
    1  A    between atoms: C_1  and  O_10
    2  A    between atoms: C_7  and  O_23
    3  A    between atoms: O_10  and  C_21
    4  A    between atoms: C_22  and  O_23
                            x       y       z     vdW  Elec       q    Type
                         _______ _______ _______ _____ _____    ______ ____

>  <TORSDO>
F 4

$$$$
=
 OpenBabel11052409503D

 26 29  0  0  1  0  0  0  0  0999 V2000
  162.0040  211.0280  149.8320 C   0  0  1  0  0  3  0  0  0  0  0  0
  161.5340  206.8950  150.6890 C   0  0  0  0  0  0  0  0  0  0  0  0
  161.1280  204.7510  151.9160 C   0  0  0  0  0  3  0  0  0  0  0  0
  161.7570  208.2510  150.6520 N   0  0  0  0  0  0  0  0  0  0  0  0
  161.3550  205.1010  148.8550 C   0  0  0  0  0  0  0  0  0  0  0  0
  161.9590  209.4010  151.9990 S   0  0  0  0  0  0  0  0  0  0  0  0
  161.7940  207.4050  147.2030 C   0  0  0  0  0  3  0  0  0  0  0  0
  161.3340  206.1280  151.8580 C   0  0  0  0  0  0  0  0  0  0  0  0
  161.5430  206.4390  149.4320 C   0  0  0  0  0  0  0  0  0  0  0  0
  161.1430  203.9380  149.5710 C   0  0  0  0  0  3  0  0  0  0  0  0
  161.3170  206.7630  153.2040 C   0  0  0  0  0  1  0  0  0  0  0  0
  161.6150  206.1370  146.6410 C   0  0  0  0  0  3  0  0  0  0  0  0
  161.8780  208.5930  149.3460 C   0  0  0  0  0  0  0  0  0  0  0  0
  161.1840  210.7730  151.0930 C   0  0  0  0  0  2  0  0  0  0  0  0
  161.4030  205.0100  147.4570 C   0  0  0  0  0  3  0  0  0  0  0  0
  161.0420  203.7490  150.9410 C   0  0  0  0  0  0  0  0  0  0  0  0
  161.7660  207.5220  148.5520 N   0  0  0  0  0  0  0  0  0  0  0  0
  161.9730  209.8510  148.9000 C   0  0  0  0  0  3  0  0  0  0  0  0
  161.5850  212.2220  149.1690 O   0  0  0  0  0  0  0  0  0  0  0  0
  161.7780  213.3320  145.5560 C   0  0  0  0  0  1  0  0  0  0  0  0
  161.2790  212.8530  146.8340 N   0  0  0  0  0  2  0  0  0  0  0  0
  162.1320  212.6870  147.9660 C   0  0  0  0  0  0  0  0  0  0  0  0
  163.3620  212.9590  147.8780 O   0  0  0  0  0  0  0  0  0  0  0  0
  160.8300  202.4250  151.3470 O   0  0  0  0  0  0  0  0  0  0  0  0
  160.8300  201.3580  150.4840 C   0  0  0  0  0  0  0  0  0  0  0  0
  160.8300  200.4590  149.7550 N   0  0  0  0  0  0  0  0  0  0  0  0
  1 19  1  6  0  0  0
  1 14  1  0  0  0  0
  2  8  1  0  0  0  0
  4  2  1  0  0  0  0
  4  6  1  0  0  0  0
  5  9  1  0  0  0  0
  5 10  1  0  0  0  0
  7 17  1  0  0  0  0
  8  3  2  0  0  0  0
  8 11  1  0  0  0  0
  9  2  2  0  0  0  0
 10 16  2  0  0  0  0
 12  7  2  0  0  0  0
 12 15  1  0  0  0  0
 13  4  1  0  0  0  0
 14  6  1  0  0  0  0
 15  5  2  0  0  0  0
 16 24  1  0  0  0  0
 16  3  1  0  0  0  0
 17 13  1  0  0  0  0
 17  9  1  0  0  0  0
 18 13  2  0  0  0  0
 18  1  1  0  0  0  0
 20 21  1  0  0  0  0
 21 22  1  0  0  0  0
 22 19  1  0  0  0  0
 23 22  2  0  0  0  0
 25 24  1  0  0  0  0
 26 25  3  0  0  0  0
M  END
>  <MODEL>
9

>  <REMARK>
 VINA RESULT:      -8.0      2.838      3.591
  Name = 
  4 active torsions:
  status: ('A' for Active; 'I' for Inactive)
    1  A    between atoms: C_1  and  O_10
    2  A    between atoms: C_7  and  O_23
    3  A    between atoms: O_10  and  C_21
    4  A    between atoms: C_22  and  O_23
                            x       y       z     vdW  Elec       q    Type
                         _______ _______ _______ _____ _____    ______ ____

>  <TORSDO>
F 4

$$$$
