=
 OpenBabel11052411073D

 34 38  0  0  1  0  0  0  0  0999 V2000
  161.4390  209.9860  151.8810 C   0  0  0  0  0  3  0  0  0  0  0  0
  160.9980  207.9430  153.7540 C   0  0  0  0  0  0  0  0  0  0  0  0
  159.9940  209.5550  155.2760 C   0  0  0  0  0  0  0  0  0  0  0  0
  161.6210  207.6440  152.5210 C   0  0  0  0  0  0  0  0  0  0  0  0
  159.7870  208.5540  156.1750 N   0  0  0  0  0  0  0  0  0  0  0  0
  161.8320  208.6780  151.5820 C   0  0  0  0  0  0  0  0  0  0  0  0
  160.6060  209.2720  154.0430 C   0  0  0  0  0  0  0  0  0  0  0  0
  160.1520  207.2710  155.9190 C   0  0  0  0  0  3  0  0  0  0  0  0
  160.8310  210.2830  153.1000 C   0  0  0  0  0  3  0  0  0  0  0  0
  160.7630  206.9430  154.7080 C   0  0  0  0  0  3  0  0  0  0  0  0
  159.5950  210.8830  155.6080 N   0  0  0  0  0  1  0  0  0  0  0  0
  162.0430  206.2370  152.2070 C   0  0  0  0  0  2  0  0  0  0  0  0
  160.8610  205.4340  151.6940 C   0  0  0  0  0  2  0  0  0  0  0  0
  161.3570  204.2340  150.9090 C   0  0  0  0  0  2  0  0  0  0  0  0
  161.7520  203.5440  148.5870 C   0  0  2  0  0  3  0  0  0  0  0  0
  160.5410  202.9840  149.0440 O   0  0  0  0  0  0  0  0  0  0  0  0
  160.8340  204.2860  149.4860 C   0  0  1  0  0  3  0  0  0  0  0  0
  161.3910  204.9160  144.5110 C   0  0  0  0  0  3  0  0  0  0  0  0
  161.6030  204.0170  147.1650 C   0  0  0  0  0  0  0  0  0  0  0  0
  160.7690  201.8050  146.4470 N   0  0  0  0  0  1  0  0  0  0  0  0
  162.4880  206.1710  147.7610 F   0  0  0  0  0  0  0  0  0  0  0  0
  161.0190  203.6100  144.8380 C   0  0  0  0  0  3  0  0  0  0  0  0
  161.1330  203.1520  146.1530 C   0  0  0  0  0  0  0  0  0  0  0  0
  161.9970  205.3240  146.8200 C   0  0  0  0  0  0  0  0  0  0  0  0
  161.8840  205.7690  145.5010 C   0  0  0  0  0  3  0  0  0  0  0  0
  162.4860  208.4150  150.2610 C   0  0  0  0  0  2  0  0  0  0  0  0
  162.1560  210.7360  149.3220 N   0  0  0  0  0  2  0  0  0  0  0  0
  161.7050  211.7300  148.3900 C   0  0  0  0  0  0  0  0  0  0  0  0
  161.3070  208.8360  148.2380 O   0  0  0  0  0  0  0  0  0  0  0  0
  161.1550  211.3850  147.2710 N   0  0  0  0  0  2  0  0  0  0  0  0
  161.9400  209.3250  149.2120 C   0  0  0  0  0  0  0  0  0  0  0  0
  161.1070  214.0340  147.7800 C   0  0  0  0  0  2  0  0  0  0  0  0
  160.8440  213.8890  149.2600 C   0  0  0  0  0  2  0  0  0  0  0  0
  162.0240  213.1710  148.6290 C   0  0  0  0  0  3  0  0  0  0  0  0
  1  9  1  0  0  0  0
  2  7  1  0  0  0  0
  2 10  1  0  0  0  0
  3 11  1  0  0  0  0
  3  5  2  0  0  0  0
  4  2  2  0  0  0  0
  6  1  2  0  0  0  0
  6  4  1  0  0  0  0
  7  3  1  0  0  0  0
  8  5  1  0  0  0  0
  9  7  2  0  0  0  0
 10  8  2  0  0  0  0
 12  4  1  0  0  0  0
 13 12  1  0  0  0  0
 14 13  1  0  0  0  0
 15 19  1  6  0  0  0
 15 16  1  0  0  0  0
 15 17  1  0  0  0  0
 16 17  1  0  0  0  0
 17 14  1  1  0  0  0
 18 22  2  0  0  0  0
 18 25  1  0  0  0  0
 22 23  1  0  0  0  0
 23 20  1  0  0  0  0
 23 19  2  0  0  0  0
 24 19  1  0  0  0  0
 24 21  1  0  0  0  0
 25 24  2  0  0  0  0
 26  6  1  0  0  0  0
 28 34  1  0  0  0  0
 28 27  1  0  0  0  0
 29 31  2  0  0  0  0
 30 28  2  0  0  0  0
 31 27  1  0  0  0  0
 31 26  1  0  0  0  0
 32 34  1  0  0  0  0
 32 33  1  0  0  0  0
 34 33  1  0  0  0  0
M  END
>  <MODEL>
1

>  <REMARK>
 VINA RESULT:      -8.9      0.000      0.000
  Name = 
  8 active torsions:
  status: ('A' for Active; 'I' for Inactive)
    1  A    between atoms: C_1  and  C_8
    2  A    between atoms: C_9  and  C_11
    3  A    between atoms: C_9  and  C_14
    4  A    between atoms: C_11  and  C_26
    5  A    between atoms: C_16  and  C_17
    6  A    between atoms: C_17  and  C_28
    7  A    between atoms: C_20  and  C_26
    8  A    between atoms: C_21  and  C_33
                            x       y       z     vdW  Elec       q    Type
                         _______ _______ _______ _____ _____    ______ ____

>  <TORSDO>
F 8

$$$$
=
 OpenBabel11052411073D

 34 38  0  0  1  0  0  0  0  0999 V2000
  161.5520  210.9930  150.9380 C   0  0  0  0  0  3  0  0  0  0  0  0
  161.6160  208.2600  151.5760 C   0  0  0  0  0  0  0  0  0  0  0  0
  160.8020  208.7630  153.8130 C   0  0  0  0  0  0  0  0  0  0  0  0
  162.0170  208.6920  150.2910 C   0  0  0  0  0  0  0  0  0  0  0  0
  160.8390  207.4360  154.1090 N   0  0  0  0  0  0  0  0  0  0  0  0
  161.9750  210.0690  149.9780 C   0  0  0  0  0  0  0  0  0  0  0  0
  161.1910  209.2080  152.5380 C   0  0  0  0  0  0  0  0  0  0  0  0
  161.2410  206.5080  153.2000 C   0  0  0  0  0  3  0  0  0  0  0  0
  161.1630  210.5680  152.2080 C   0  0  0  0  0  3  0  0  0  0  0  0
  161.6360  206.9020  151.9220 C   0  0  0  0  0  3  0  0  0  0  0  0
  160.3780  209.6880  154.8120 N   0  0  0  0  0  1  0  0  0  0  0  0
  162.4730  207.6950  149.2640 C   0  0  0  0  0  2  0  0  0  0  0  0
  161.3800  207.4580  148.2380 C   0  0  0  0  0  2  0  0  0  0  0  0
  161.9330  206.6580  147.0730 C   0  0  0  0  0  2  0  0  0  0  0  0
  160.9190  204.4460  147.3970 C   0  0  2  0  0  3  0  0  0  0  0  0
  161.9260  204.3630  146.4110 O   0  0  0  0  0  0  0  0  0  0  0  0
  162.1800  205.2210  147.4950 C   0  0  1  0  0  3  0  0  0  0  0  0
  160.9950  201.0000  149.9930 C   0  0  0  0  0  3  0  0  0  0  0  0
  160.9660  203.2370  148.2920 C   0  0  0  0  0  0  0  0  0  0  0  0
  160.9860  201.7140  146.3470 N   0  0  0  0  0  1  0  0  0  0  0  0
  160.8610  204.6420  150.2390 F   0  0  0  0  0  0  0  0  0  0  0  0
  161.0170  200.8240  148.6090 C   0  0  0  0  0  3  0  0  0  0  0  0
  160.9900  201.9310  147.7560 C   0  0  0  0  0  0  0  0  0  0  0  0
  160.9220  203.4020  149.6900 C   0  0  0  0  0  0  0  0  0  0  0  0
  160.9430  202.2880  150.5320 C   0  0  0  0  0  3  0  0  0  0  0  0
  162.3880  210.5790  148.6310 C   0  0  0  0  0  2  0  0  0  0  0  0
  160.5190  211.7750  147.4250 N   0  0  0  0  0  2  0  0  0  0  0  0
  159.7090  212.8900  147.0230 C   0  0  0  0  0  0  0  0  0  0  0  0
  162.0360  212.9260  148.7950 O   0  0  0  0  0  0  0  0  0  0  0  0
  159.8860  214.0590  147.5490 N   0  0  0  0  0  2  0  0  0  0  0  0
  161.6540  211.8340  148.2960 C   0  0  0  0  0  0  0  0  0  0  0  0
  158.4320  213.8320  145.1480 C   0  0  0  0  0  2  0  0  0  0  0  0
  158.9910  212.5090  144.6790 C   0  0  0  0  0  2  0  0  0  0  0  0
  158.5390  212.6700  146.1200 C   0  0  0  0  0  3  0  0  0  0  0  0
  1  9  1  0  0  0  0
  2 10  1  0  0  0  0
  2  7  1  0  0  0  0
  3  5  2  0  0  0  0
  3 11  1  0  0  0  0
  4  2  2  0  0  0  0
  6  4  1  0  0  0  0
  6  1  2  0  0  0  0
  7  3  1  0  0  0  0
  8  5  1  0  0  0  0
  9  7  2  0  0  0  0
 10  8  2  0  0  0  0
 12  4  1  0  0  0  0
 13 12  1  0  0  0  0
 14 13  1  0  0  0  0
 15 17  1  0  0  0  0
 15 19  1  1  0  0  0
 16 15  1  0  0  0  0
 16 17  1  0  0  0  0
 17 14  1  6  0  0  0
 18 25  1  0  0  0  0
 19 24  1  0  0  0  0
 20 23  1  0  0  0  0
 22 18  2  0  0  0  0
 23 19  2  0  0  0  0
 23 22  1  0  0  0  0
 24 21  1  0  0  0  0
 24 25  2  0  0  0  0
 26  6  1  0  0  0  0
 27 31  1  0  0  0  0
 28 27  1  0  0  0  0
 28 30  2  0  0  0  0
 31 26  1  0  0  0  0
 31 29  2  0  0  0  0
 32 34  1  0  0  0  0
 33 32  1  0  0  0  0
 33 34  1  0  0  0  0
 34 28  1  0  0  0  0
M  END
>  <MODEL>
2

>  <REMARK>
 VINA RESULT:      -8.6      2.097      3.306
  Name = 
  8 active torsions:
  status: ('A' for Active; 'I' for Inactive)
    1  A    between atoms: C_1  and  C_8
    2  A    between atoms: C_9  and  C_11
    3  A    between atoms: C_9  and  C_14
    4  A    between atoms: C_11  and  C_26
    5  A    between atoms: C_16  and  C_17
    6  A    between atoms: C_17  and  C_28
    7  A    between atoms: C_20  and  C_26
    8  A    between atoms: C_21  and  C_33
                            x       y       z     vdW  Elec       q    Type
                         _______ _______ _______ _____ _____    ______ ____

>  <TORSDO>
F 8

$$$$
=
 OpenBabel11052411073D

 34 38  0  0  1  0  0  0  0  0999 V2000
  161.5370  210.1000  152.0060 C   0  0  0  0  0  3  0  0  0  0  0  0
  160.9300  208.0360  153.8080 C   0  0  0  0  0  0  0  0  0  0  0  0
  159.9660  209.6600  155.3430 C   0  0  0  0  0  0  0  0  0  0  0  0
  161.5750  207.7360  152.5870 C   0  0  0  0  0  0  0  0  0  0  0  0
  159.6780  208.6490  156.2080 N   0  0  0  0  0  0  0  0  0  0  0  0
  161.8690  208.7820  151.6840 C   0  0  0  0  0  0  0  0  0  0  0  0
  160.6000  209.3760  154.1210 C   0  0  0  0  0  0  0  0  0  0  0  0
  159.9820  207.3540  155.9270 C   0  0  0  0  0  3  0  0  0  0  0  0
  160.9070  210.3970  153.2140 C   0  0  0  0  0  3  0  0  0  0  0  0
  160.6130  207.0260  154.7270 C   0  0  0  0  0  3  0  0  0  0  0  0
  159.6270  210.9980  155.6990 N   0  0  0  0  0  1  0  0  0  0  0  0
  161.9320  206.3170  152.2470 C   0  0  0  0  0  2  0  0  0  0  0  0
  160.8350  205.6830  151.4110 C   0  0  0  0  0  2  0  0  0  0  0  0
  160.9710  204.1720  151.4440 C   0  0  0  0  0  2  0  0  0  0  0  0
  161.6230  202.9280  149.4310 C   0  0  2  0  0  3  0  0  0  0  0  0
  160.6730  202.1810  150.1590 O   0  0  0  0  0  0  0  0  0  0  0  0
  160.4880  203.5740  150.1360 C   0  0  1  0  0  3  0  0  0  0  0  0
  160.7600  202.6110  145.2150 C   0  0  0  0  0  3  0  0  0  0  0  0
  161.3440  202.8260  147.9550 C   0  0  0  0  0  0  0  0  0  0  0  0
  161.7940  205.2340  147.6350 N   0  0  0  0  0  1  0  0  0  0  0  0
  160.8030  200.4960  148.1930 F   0  0  0  0  0  0  0  0  0  0  0  0
  161.1470  203.8400  145.7520 C   0  0  0  0  0  3  0  0  0  0  0  0
  161.4270  203.9580  147.1150 C   0  0  0  0  0  0  0  0  0  0  0  0
  160.9300  201.5970  147.4080 C   0  0  0  0  0  0  0  0  0  0  0  0
  160.6470  201.4930  146.0440 C   0  0  0  0  0  3  0  0  0  0  0  0
  162.5500  208.5180  150.3750 C   0  0  0  0  0  2  0  0  0  0  0  0
  162.1140  210.8080  149.4060 N   0  0  0  0  0  2  0  0  0  0  0  0
  161.6340  211.7680  148.4520 C   0  0  0  0  0  0  0  0  0  0  0  0
  161.4110  208.8540  148.3140 O   0  0  0  0  0  0  0  0  0  0  0  0
  161.1400  211.3830  147.3200 N   0  0  0  0  0  2  0  0  0  0  0  0
  161.9840  209.3860  149.3030 C   0  0  0  0  0  0  0  0  0  0  0  0
  160.7540  214.0190  148.0170 C   0  0  0  0  0  2  0  0  0  0  0  0
  160.7350  213.8220  149.5140 C   0  0  0  0  0  2  0  0  0  0  0  0
  161.8610  213.2260  148.6880 C   0  0  0  0  0  3  0  0  0  0  0  0
  1  9  1  0  0  0  0
  2  7  1  0  0  0  0
  2 10  1  0  0  0  0
  3 11  1  0  0  0  0
  3  5  2  0  0  0  0
  4  2  2  0  0  0  0
  6  1  2  0  0  0  0
  6  4  1  0  0  0  0
  7  3  1  0  0  0  0
  8  5  1  0  0  0  0
  9  7  2  0  0  0  0
 10  8  2  0  0  0  0
 12  4  1  0  0  0  0
 13 14  1  0  0  0  0
 13 12  1  0  0  0  0
 15 19  1  6  0  0  0
 15 17  1  0  0  0  0
 15 16  1  0  0  0  0
 17 16  1  0  0  0  0
 17 14  1  1  0  0  0
 18 22  2  0  0  0  0
 18 25  1  0  0  0  0
 22 23  1  0  0  0  0
 23 20  1  0  0  0  0
 23 19  2  0  0  0  0
 24 19  1  0  0  0  0
 24 21  1  0  0  0  0
 25 24  2  0  0  0  0
 26  6  1  0  0  0  0
 28 34  1  0  0  0  0
 28 27  1  0  0  0  0
 29 31  2  0  0  0  0
 30 28  2  0  0  0  0
 31 27  1  0  0  0  0
 31 26  1  0  0  0  0
 32 34  1  0  0  0  0
 32 33  1  0  0  0  0
 34 33  1  0  0  0  0
M  END
>  <MODEL>
3

>  <REMARK>
 VINA RESULT:      -8.6      1.390      1.725
  Name = 
  8 active torsions:
  status: ('A' for Active; 'I' for Inactive)
    1  A    between atoms: C_1  and  C_8
    2  A    between atoms: C_9  and  C_11
    3  A    between atoms: C_9  and  C_14
    4  A    between atoms: C_11  and  C_26
    5  A    between atoms: C_16  and  C_17
    6  A    between atoms: C_17  and  C_28
    7  A    between atoms: C_20  and  C_26
    8  A    between atoms: C_21  and  C_33
                            x       y       z     vdW  Elec       q    Type
                         _______ _______ _______ _____ _____    ______ ____

>  <TORSDO>
F 8

$$$$
=
 OpenBabel11052411073D

 34 38  0  0  1  0  0  0  0  0999 V2000
  161.4100  206.7590  147.6310 C   0  0  0  0  0  3  0  0  0  0  0  0
  161.0170  204.2980  148.9220 C   0  0  0  0  0  0  0  0  0  0  0  0
  161.2680  203.1420  146.7950 C   0  0  0  0  0  0  0  0  0  0  0  0
  160.9820  205.4980  149.6690 C   0  0  0  0  0  0  0  0  0  0  0  0
  161.0760  201.9560  147.4350 N   0  0  0  0  0  0  0  0  0  0  0  0
  161.1870  206.7300  149.0110 C   0  0  0  0  0  0  0  0  0  0  0  0
  161.2430  204.3430  147.5260 C   0  0  0  0  0  0  0  0  0  0  0  0
  160.8610  201.8890  148.7750 C   0  0  0  0  0  3  0  0  0  0  0  0
  161.4370  205.5770  146.8930 C   0  0  0  0  0  3  0  0  0  0  0  0
  160.8260  203.0540  149.5400 C   0  0  0  0  0  3  0  0  0  0  0  0
  161.4820  203.1470  145.3860 N   0  0  0  0  0  1  0  0  0  0  0  0
  160.7400  205.4610  151.1510 C   0  0  0  0  0  2  0  0  0  0  0  0
  162.0370  205.6990  151.9030 C   0  0  0  0  0  2  0  0  0  0  0  0
  161.7360  206.2410  153.2880 C   0  0  0  0  0  2  0  0  0  0  0  0
  161.4810  208.5610  154.0460 C   0  0  2  0  0  3  0  0  0  0  0  0
  161.6750  208.5410  152.6480 O   0  0  0  0  0  0  0  0  0  0  0  0
  160.8980  207.5020  153.1870 C   0  0  1  0  0  3  0  0  0  0  0  0
  158.4570  211.4770  155.0350 C   0  0  0  0  0  3  0  0  0  0  0  0
  160.4380  209.5850  154.4110 C   0  0  0  0  0  0  0  0  0  0  0  0
  160.0220  208.4840  156.5830 N   0  0  0  0  0  1  0  0  0  0  0  0
  160.7170  210.6660  152.2830 F   0  0  0  0  0  0  0  0  0  0  0  0
  158.7710  210.4680  155.9470 C   0  0  0  0  0  3  0  0  0  0  0  0
  159.7450  209.5160  155.6390 C   0  0  0  0  0  0  0  0  0  0  0  0
  160.0970  210.5920  153.4880 C   0  0  0  0  0  0  0  0  0  0  0  0
  159.1170  211.5350  153.8050 C   0  0  0  0  0  3  0  0  0  0  0  0
  161.1610  208.0300  149.7560 C   0  0  0  0  0  2  0  0  0  0  0  0
  161.5350  210.4390  149.0980 N   0  0  0  0  0  2  0  0  0  0  0  0
  162.1920  211.5470  148.4650 C   0  0  0  0  0  0  0  0  0  0  0  0
  162.9680  208.7280  148.3750 O   0  0  0  0  0  0  0  0  0  0  0  0
  163.3270  211.3870  147.8660 N   0  0  0  0  0  2  0  0  0  0  0  0
  161.9460  209.0690  149.0290 C   0  0  0  0  0  0  0  0  0  0  0  0
  161.8710  213.7200  147.3650 C   0  0  0  0  0  2  0  0  0  0  0  0
  160.4970  213.1870  147.6950 C   0  0  0  0  0  2  0  0  0  0  0  0
  161.6540  212.9300  148.6430 C   0  0  0  0  0  3  0  0  0  0  0  0
  1  6  1  0  0  0  0
  2 10  1  0  0  0  0
  2  4  1  0  0  0  0
  3  5  2  0  0  0  0
  3  7  1  0  0  0  0
  4 12  1  0  0  0  0
  5  8  1  0  0  0  0
  6  4  2  0  0  0  0
  6 26  1  0  0  0  0
  7  2  2  0  0  0  0
  8 10  2  0  0  0  0
  9  7  1  0  0  0  0
  9  1  2  0  0  0  0
 11  3  1  0  0  0  0
 12 13  1  0  0  0  0
 13 14  1  0  0  0  0
 15 19  1  6  0  0  0
 16 17  1  0  0  0  0
 16 15  1  0  0  0  0
 17 14  1  1  0  0  0
 17 15  1  0  0  0  0
 18 22  1  0  0  0  0
 19 23  1  0  0  0  0
 21 24  1  0  0  0  0
 23 22  2  0  0  0  0
 23 20  1  0  0  0  0
 24 25  1  0  0  0  0
 24 19  2  0  0  0  0
 25 18  2  0  0  0  0
 28 34  1  0  0  0  0
 28 27  1  0  0  0  0
 29 31  2  0  0  0  0
 30 28  2  0  0  0  0
 31 27  1  0  0  0  0
 31 26  1  0  0  0  0
 32 33  1  0  0  0  0
 32 34  1  0  0  0  0
 33 34  1  0  0  0  0
M  END
>  <MODEL>
4

>  <REMARK>
 VINA RESULT:      -7.9      2.044      7.337
  Name = 
  8 active torsions:
  status: ('A' for Active; 'I' for Inactive)
    1  A    between atoms: C_1  and  C_8
    2  A    between atoms: C_9  and  C_11
    3  A    between atoms: C_9  and  C_14
    4  A    between atoms: C_11  and  C_26
    5  A    between atoms: C_16  and  C_17
    6  A    between atoms: C_17  and  C_28
    7  A    between atoms: C_20  and  C_26
    8  A    between atoms: C_21  and  C_33
                            x       y       z     vdW  Elec       q    Type
                         _______ _______ _______ _____ _____    ______ ____

>  <TORSDO>
F 8

$$$$
=
 OpenBabel11052411073D

 34 38  0  0  1  0  0  0  0  0999 V2000
  161.6260  209.8740  153.0630 C   0  0  0  0  0  3  0  0  0  0  0  0
  161.4320  208.2340  150.7930 C   0  0  0  0  0  0  0  0  0  0  0  0
  162.0120  210.1270  149.3770 C   0  0  0  0  0  0  0  0  0  0  0  0
  161.1820  207.6930  152.0750 C   0  0  0  0  0  0  0  0  0  0  0  0
  161.9140  209.3200  148.2850 N   0  0  0  0  0  0  0  0  0  0  0  0
  161.2890  208.5250  153.2110 C   0  0  0  0  0  0  0  0  0  0  0  0
  161.7730  209.6020  150.6580 C   0  0  0  0  0  0  0  0  0  0  0  0
  161.5920  208.0040  148.3900 C   0  0  0  0  0  3  0  0  0  0  0  0
  161.8660  210.4090  151.7980 C   0  0  0  0  0  3  0  0  0  0  0  0
  161.3450  207.4400  149.6410 C   0  0  0  0  0  3  0  0  0  0  0  0
  162.3470  211.5020  149.2000 N   0  0  0  0  0  1  0  0  0  0  0  0
  160.8170  206.2450  152.2270 C   0  0  0  0  0  2  0  0  0  0  0  0
  162.0400  205.3690  152.0240 C   0  0  0  0  0  2  0  0  0  0  0  0
  161.6080  203.9600  151.6590 C   0  0  0  0  0  2  0  0  0  0  0  0
  161.4290  202.7130  149.5530 C   0  0  2  0  0  3  0  0  0  0  0  0
  160.1510  202.8320  150.1390 O   0  0  0  0  0  0  0  0  0  0  0  0
  161.0040  203.9410  150.2670 C   0  0  1  0  0  3  0  0  0  0  0  0
  161.2330  203.2790  145.2790 C   0  0  0  0  0  3  0  0  0  0  0  0
  161.3370  202.9040  148.0620 C   0  0  0  0  0  0  0  0  0  0  0  0
  160.5410  200.5870  147.7450 N   0  0  0  0  0  1  0  0  0  0  0  0
  162.1900  205.1420  148.2710 F   0  0  0  0  0  0  0  0  0  0  0  0
  160.8520  202.0550  145.8330 C   0  0  0  0  0  3  0  0  0  0  0  0
  160.9130  201.8570  147.2150 C   0  0  0  0  0  0  0  0  0  0  0  0
  161.7420  204.1260  147.4900 C   0  0  0  0  0  0  0  0  0  0  0  0
  161.6820  204.3100  146.1070 C   0  0  0  0  0  3  0  0  0  0  0  0
  161.0340  208.0020  154.5920 C   0  0  0  0  0  2  0  0  0  0  0  0
  159.5380  209.8920  155.3430 N   0  0  0  0  0  2  0  0  0  0  0  0
  159.1050  210.9850  156.1670 C   0  0  0  0  0  0  0  0  0  0  0  0
  161.5170  209.3600  156.4840 O   0  0  0  0  0  0  0  0  0  0  0  0
  159.7320  211.2750  157.2610 N   0  0  0  0  0  2  0  0  0  0  0  0
  160.7290  209.1200  155.5300 C   0  0  0  0  0  0  0  0  0  0  0  0
  158.0320  213.1860  155.9750 C   0  0  0  0  0  2  0  0  0  0  0  0
  157.9640  212.5440  154.6100 C   0  0  0  0  0  2  0  0  0  0  0  0
  157.8230  211.6870  155.8560 C   0  0  0  0  0  3  0  0  0  0  0  0
  1  6  1  0  0  0  0
  2  4  1  0  0  0  0
  3  7  2  0  0  0  0
  4 12  1  0  0  0  0
  4  6  2  0  0  0  0
  5  8  2  0  0  0  0
  5  3  1  0  0  0  0
  6 26  1  0  0  0  0
  7  2  1  0  0  0  0
  7  9  1  0  0  0  0
  8 10  1  0  0  0  0
  9  1  2  0  0  0  0
 10  2  2  0  0  0  0
 11  3  1  0  0  0  0
 13 12  1  0  0  0  0
 14 13  1  0  0  0  0
 15 19  1  6  0  0  0
 15 16  1  0  0  0  0
 15 17  1  0  0  0  0
 16 17  1  0  0  0  0
 17 14  1  1  0  0  0
 18 22  2  0  0  0  0
 18 25  1  0  0  0  0
 22 23  1  0  0  0  0
 23 20  1  0  0  0  0
 23 19  2  0  0  0  0
 24 19  1  0  0  0  0
 24 21  1  0  0  0  0
 25 24  2  0  0  0  0
 26 31  1  0  0  0  0
 27 31  1  0  0  0  0
 27 28  1  0  0  0  0
 28 30  2  0  0  0  0
 31 29  2  0  0  0  0
 33 34  1  0  0  0  0
 33 32  1  0  0  0  0
 34 32  1  0  0  0  0
 34 28  1  0  0  0  0
M  END
>  <MODEL>
5

>  <REMARK>
 VINA RESULT:      -7.9      2.102      4.945
  Name = 
  8 active torsions:
  status: ('A' for Active; 'I' for Inactive)
    1  A    between atoms: C_1  and  C_8
    2  A    between atoms: C_9  and  C_11
    3  A    between atoms: C_9  and  C_14
    4  A    between atoms: C_11  and  C_26
    5  A    between atoms: C_16  and  C_17
    6  A    between atoms: C_17  and  C_28
    7  A    between atoms: C_20  and  C_26
    8  A    between atoms: C_21  and  C_33
                            x       y       z     vdW  Elec       q    Type
                         _______ _______ _______ _____ _____    ______ ____

>  <TORSDO>
F 8

$$$$
=
 OpenBabel11052411073D

 34 38  0  0  1  0  0  0  0  0999 V2000
  161.6350  206.4750  152.2760 C   0  0  0  0  0  3  0  0  0  0  0  0
  161.3240  209.0670  153.3050 C   0  0  0  0  0  0  0  0  0  0  0  0
  160.1830  208.1570  155.2520 C   0  0  0  0  0  0  0  0  0  0  0  0
  161.9700  208.8770  152.0620 C   0  0  0  0  0  0  0  0  0  0  0  0
  160.0390  209.4200  155.7390 N   0  0  0  0  0  0  0  0  0  0  0  0
  162.1280  207.5670  151.5560 C   0  0  0  0  0  0  0  0  0  0  0  0
  160.8300  207.9510  154.0210 C   0  0  0  0  0  0  0  0  0  0  0  0
  160.5080  210.5060  155.0700 C   0  0  0  0  0  3  0  0  0  0  0  0
  160.9910  206.6630  153.4980 C   0  0  0  0  0  3  0  0  0  0  0  0
  161.1560  210.3500  153.8450 C   0  0  0  0  0  3  0  0  0  0  0  0
  159.6620  207.0590  155.9980 N   0  0  0  0  0  1  0  0  0  0  0  0
  162.4950  210.0550  151.2930 C   0  0  0  0  0  2  0  0  0  0  0  0
  161.4850  210.4970  150.2490 C   0  0  0  0  0  2  0  0  0  0  0  0
  161.9560  211.7800  149.5890 C   0  0  0  0  0  2  0  0  0  0  0  0
  161.6670  213.0060  147.4830 C   0  0  2  0  0  3  0  0  0  0  0  0
  162.9170  212.3530  147.4790 O   0  0  0  0  0  0  0  0  0  0  0  0
  161.8520  211.6610  148.0800 C   0  0  1  0  0  3  0  0  0  0  0  0
  159.8610  212.6540  143.5790 C   0  0  0  0  0  3  0  0  0  0  0  0
  161.0220  212.9020  146.1260 C   0  0  0  0  0  0  0  0  0  0  0  0
  158.7910  212.5790  147.1360 N   0  0  0  0  0  1  0  0  0  0  0  0
  163.1660  213.1210  145.0620 F   0  0  0  0  0  0  0  0  0  0  0  0
  159.0620  212.5780  144.7210 C   0  0  0  0  0  3  0  0  0  0  0  0
  159.6330  212.6880  145.9910 C   0  0  0  0  0  0  0  0  0  0  0  0
  161.8220  212.9540  144.9680 C   0  0  0  0  0  0  0  0  0  0  0  0
  161.2400  212.8370  143.7040 C   0  0  0  0  0  3  0  0  0  0  0  0
  162.8060  207.3110  150.2450 C   0  0  0  0  0  2  0  0  0  0  0  0
  162.2320  206.4610  147.9380 N   0  0  0  0  0  2  0  0  0  0  0  0
  161.3840  206.1260  146.8280 C   0  0  0  0  0  0  0  0  0  0  0  0
  160.5860  207.2850  149.3920 O   0  0  0  0  0  0  0  0  0  0  0  0
  160.0970  206.2030  146.9330 N   0  0  0  0  0  2  0  0  0  0  0  0
  161.8010  207.0300  149.1790 C   0  0  0  0  0  0  0  0  0  0  0  0
  163.2000  204.7030  145.9820 C   0  0  0  0  0  2  0  0  0  0  0  0
  161.9030  204.0030  145.6530 C   0  0  0  0  0  2  0  0  0  0  0  0
  161.9780  205.5180  145.5980 C   0  0  0  0  0  3  0  0  0  0  0  0
  1  9  1  0  0  0  0
  2 10  1  0  0  0  0
  2  7  1  0  0  0  0
  3  5  2  0  0  0  0
  3 11  1  0  0  0  0
  4  2  2  0  0  0  0
  6  4  1  0  0  0  0
  6  1  2  0  0  0  0
  7  3  1  0  0  0  0
  8  5  1  0  0  0  0
  9  7  2  0  0  0  0
 10  8  2  0  0  0  0
 12  4  1  0  0  0  0
 13 12  1  0  0  0  0
 14 13  1  0  0  0  0
 15 19  1  6  0  0  0
 15 17  1  0  0  0  0
 16 15  1  0  0  0  0
 16 17  1  0  0  0  0
 17 14  1  1  0  0  0
 18 25  2  0  0  0  0
 18 22  1  0  0  0  0
 22 23  2  0  0  0  0
 23 19  1  0  0  0  0
 23 20  1  0  0  0  0
 24 21  1  0  0  0  0
 24 19  2  0  0  0  0
 25 24  1  0  0  0  0
 26  6  1  0  0  0  0
 27 31  1  0  0  0  0
 28 30  2  0  0  0  0
 28 27  1  0  0  0  0
 31 29  2  0  0  0  0
 31 26  1  0  0  0  0
 33 32  1  0  0  0  0
 34 33  1  0  0  0  0
 34 32  1  0  0  0  0
 34 28  1  0  0  0  0
M  END
>  <MODEL>
6

>  <REMARK>
 VINA RESULT:      -7.8      2.583      6.419
  Name = 
  8 active torsions:
  status: ('A' for Active; 'I' for Inactive)
    1  A    between atoms: C_1  and  C_8
    2  A    between atoms: C_9  and  C_11
    3  A    between atoms: C_9  and  C_14
    4  A    between atoms: C_11  and  C_26
    5  A    between atoms: C_16  and  C_17
    6  A    between atoms: C_17  and  C_28
    7  A    between atoms: C_20  and  C_26
    8  A    between atoms: C_21  and  C_33
                            x       y       z     vdW  Elec       q    Type
                         _______ _______ _______ _____ _____    ______ ____

>  <TORSDO>
F 8

$$$$
=
 OpenBabel11052411073D

 34 38  0  0  1  0  0  0  0  0999 V2000
  160.2060  209.8410  152.8590 C   0  0  0  0  0  3  0  0  0  0  0  0
  161.3720  210.6660  150.4440 C   0  0  0  0  0  0  0  0  0  0  0  0
  160.4650  212.9010  150.7690 C   0  0  0  0  0  0  0  0  0  0  0  0
  161.5310  209.3310  150.8810 C   0  0  0  0  0  0  0  0  0  0  0  0
  161.0360  213.2870  149.5960 N   0  0  0  0  0  0  0  0  0  0  0  0
  160.9450  208.9280  152.1020 C   0  0  0  0  0  0  0  0  0  0  0  0
  160.6200  211.5790  151.2220 C   0  0  0  0  0  0  0  0  0  0  0  0
  161.7650  212.4290  148.8340 C   0  0  0  0  0  3  0  0  0  0  0  0
  160.0430  211.1550  152.4250 C   0  0  0  0  0  3  0  0  0  0  0  0
  161.9440  211.1070  149.2420 C   0  0  0  0  0  3  0  0  0  0  0  0
  159.7060  213.8470  151.5200 N   0  0  0  0  0  1  0  0  0  0  0  0
  162.3240  208.3540  150.0620 C   0  0  0  0  0  2  0  0  0  0  0  0
  161.4540  207.7470  148.9760 C   0  0  0  0  0  2  0  0  0  0  0  0
  162.3300  207.1470  147.8910 C   0  0  0  0  0  2  0  0  0  0  0  0
  161.2080  204.9690  147.7400 C   0  0  2  0  0  3  0  0  0  0  0  0
  162.3230  204.9860  146.8750 O   0  0  0  0  0  0  0  0  0  0  0  0
  162.4750  205.6510  148.1030 C   0  0  1  0  0  3  0  0  0  0  0  0
  160.8540  201.1650  149.7470 C   0  0  0  0  0  3  0  0  0  0  0  0
  161.1060  203.6350  148.4300 C   0  0  0  0  0  0  0  0  0  0  0  0
  161.2060  202.4350  146.2730 N   0  0  0  0  0  1  0  0  0  0  0  0
  160.9130  204.7240  150.5640 F   0  0  0  0  0  0  0  0  0  0  0  0
  160.9860  201.2050  148.3580 C   0  0  0  0  0  3  0  0  0  0  0  0
  161.0990  202.4300  147.6950 C   0  0  0  0  0  0  0  0  0  0  0  0
  160.9480  203.5840  149.8290 C   0  0  0  0  0  0  0  0  0  0  0  0
  160.8300  202.3540  150.4800 C   0  0  0  0  0  3  0  0  0  0  0  0
  161.0840  207.5260  152.6120 C   0  0  0  0  0  2  0  0  0  0  0  0
  161.6120  208.5050  154.8780 N   0  0  0  0  0  2  0  0  0  0  0  0
  161.5800  208.6120  156.3100 C   0  0  0  0  0  0  0  0  0  0  0  0
  160.2910  206.5800  154.6450 O   0  0  0  0  0  0  0  0  0  0  0  0
  160.8240  207.8320  157.0130 N   0  0  0  0  0  2  0  0  0  0  0  0
  160.9670  207.4920  154.0980 C   0  0  0  0  0  0  0  0  0  0  0  0
  162.8130  210.7030  155.9360 C   0  0  0  0  0  2  0  0  0  0  0  0
  161.5780  211.0570  156.7300 C   0  0  0  0  0  2  0  0  0  0  0  0
  162.2890  209.7400  156.9860 C   0  0  0  0  0  3  0  0  0  0  0  0
  2  4  2  0  0  0  0
  2  7  1  0  0  0  0
  3  7  1  0  0  0  0
  3 11  1  0  0  0  0
  4  6  1  0  0  0  0
  5  3  2  0  0  0  0
  6 26  1  0  0  0  0
  6  1  2  0  0  0  0
  7  9  2  0  0  0  0
  8 10  2  0  0  0  0
  8  5  1  0  0  0  0
  9  1  1  0  0  0  0
 10  2  1  0  0  0  0
 12  4  1  0  0  0  0
 13 12  1  0  0  0  0
 14 13  1  0  0  0  0
 15 17  1  0  0  0  0
 15 19  1  1  0  0  0
 16 15  1  0  0  0  0
 16 17  1  0  0  0  0
 17 14  1  6  0  0  0
 18 25  1  0  0  0  0
 19 24  1  0  0  0  0
 20 23  1  0  0  0  0
 22 18  2  0  0  0  0
 23 22  1  0  0  0  0
 23 19  2  0  0  0  0
 24 25  2  0  0  0  0
 24 21  1  0  0  0  0
 26 31  1  0  0  0  0
 27 28  1  0  0  0  0
 28 34  1  0  0  0  0
 28 30  2  0  0  0  0
 31 29  2  0  0  0  0
 31 27  1  0  0  0  0
 32 33  1  0  0  0  0
 32 34  1  0  0  0  0
 33 34  1  0  0  0  0
M  END
>  <MODEL>
7

>  <REMARK>
 VINA RESULT:      -7.8      2.318      5.457
  Name = 
  8 active torsions:
  status: ('A' for Active; 'I' for Inactive)
    1  A    between atoms: C_1  and  C_8
    2  A    between atoms: C_9  and  C_11
    3  A    between atoms: C_9  and  C_14
    4  A    between atoms: C_11  and  C_26
    5  A    between atoms: C_16  and  C_17
    6  A    between atoms: C_17  and  C_28
    7  A    between atoms: C_20  and  C_26
    8  A    between atoms: C_21  and  C_33
                            x       y       z     vdW  Elec       q    Type
                         _______ _______ _______ _____ _____    ______ ____

>  <TORSDO>
F 8

$$$$
=
 OpenBabel11052411073D

 34 38  0  0  1  0  0  0  0  0999 V2000
  161.1400  206.7960  150.7380 C   0  0  0  0  0  3  0  0  0  0  0  0
  161.6520  209.1610  152.1580 C   0  0  0  0  0  0  0  0  0  0  0  0
  160.9990  208.0610  154.2280 C   0  0  0  0  0  0  0  0  0  0  0  0
  161.8460  209.1250  150.7590 C   0  0  0  0  0  0  0  0  0  0  0  0
  161.2510  209.2140  154.9040 N   0  0  0  0  0  0  0  0  0  0  0  0
  161.5920  207.9280  150.0540 C   0  0  0  0  0  0  0  0  0  0  0  0
  161.1940  208.0070  152.8370 C   0  0  0  0  0  0  0  0  0  0  0  0
  161.6950  210.3340  154.2740 C   0  0  0  0  0  3  0  0  0  0  0  0
  160.9420  206.8330  152.1180 C   0  0  0  0  0  3  0  0  0  0  0  0
  161.9020  210.3280  152.8940 C   0  0  0  0  0  3  0  0  0  0  0  0
  160.5280  206.9210  154.9450 N   0  0  0  0  0  1  0  0  0  0  0  0
  162.3300  210.3460  150.0290 C   0  0  0  0  0  2  0  0  0  0  0  0
  161.1840  211.3170  149.8080 C   0  0  0  0  0  2  0  0  0  0  0  0
  161.6670  212.5050  148.9970 C   0  0  0  0  0  2  0  0  0  0  0  0
  161.8910  213.3120  146.6900 C   0  0  2  0  0  3  0  0  0  0  0  0
  163.0760  212.6490  147.0730 O   0  0  0  0  0  0  0  0  0  0  0  0
  161.8710  212.1020  147.5480 C   0  0  1  0  0  3  0  0  0  0  0  0
  160.9230  212.2600  142.6180 C   0  0  0  0  0  3  0  0  0  0  0  0
  161.5360  212.9630  145.2690 C   0  0  0  0  0  0  0  0  0  0  0  0
  159.1860  212.5270  145.8910 N   0  0  0  0  0  1  0  0  0  0  0  0
  163.8210  213.2790  144.5930 F   0  0  0  0  0  0  0  0  0  0  0  0
  159.9250  212.2440  143.5930 C   0  0  0  0  0  3  0  0  0  0  0  0
  160.2240  212.5800  144.9160 C   0  0  0  0  0  0  0  0  0  0  0  0
  162.5410  212.9530  144.2820 C   0  0  0  0  0  0  0  0  0  0  0  0
  162.2300  212.6090  142.9640 C   0  0  0  0  0  3  0  0  0  0  0  0
  161.7820  207.8360  148.5710 C   0  0  0  0  0  2  0  0  0  0  0  0
  161.1880  205.3970  148.8420 N   0  0  0  0  0  2  0  0  0  0  0  0
  161.2060  203.9930  148.5410 C   0  0  0  0  0  0  0  0  0  0  0  0
  162.6610  206.1280  147.1680 O   0  0  0  0  0  0  0  0  0  0  0  0
  161.8160  203.5510  147.4890 N   0  0  0  0  0  2  0  0  0  0  0  0
  161.9170  206.4130  148.1450 C   0  0  0  0  0  0  0  0  0  0  0  0
  160.8930  201.6360  149.1570 C   0  0  0  0  0  2  0  0  0  0  0  0
  161.2070  202.3850  150.4310 C   0  0  0  0  0  2  0  0  0  0  0  0
  160.3750  203.0500  149.3490 C   0  0  0  0  0  3  0  0  0  0  0  0
  1  9  1  0  0  0  0
  2  7  1  0  0  0  0
  2 10  1  0  0  0  0
  3  5  2  0  0  0  0
  3 11  1  0  0  0  0
  4  2  2  0  0  0  0
  6  1  2  0  0  0  0
  6  4  1  0  0  0  0
  7  3  1  0  0  0  0
  8  5  1  0  0  0  0
  9  7  2  0  0  0  0
 10  8  2  0  0  0  0
 12  4  1  0  0  0  0
 13 12  1  0  0  0  0
 14 13  1  0  0  0  0
 15 19  1  6  0  0  0
 15 16  1  0  0  0  0
 15 17  1  0  0  0  0
 16 17  1  0  0  0  0
 17 14  1  1  0  0  0
 18 25  2  0  0  0  0
 18 22  1  0  0  0  0
 22 23  2  0  0  0  0
 23 19  1  0  0  0  0
 23 20  1  0  0  0  0
 24 21  1  0  0  0  0
 24 19  2  0  0  0  0
 25 24  1  0  0  0  0
 26  6  1  0  0  0  0
 28 27  1  0  0  0  0
 28 34  1  0  0  0  0
 29 31  2  0  0  0  0
 30 28  2  0  0  0  0
 31 26  1  0  0  0  0
 31 27  1  0  0  0  0
 32 34  1  0  0  0  0
 32 33  1  0  0  0  0
 34 33  1  0  0  0  0
M  END
>  <MODEL>
8

>  <REMARK>
 VINA RESULT:      -7.7      2.867      7.021
  Name = 
  8 active torsions:
  status: ('A' for Active; 'I' for Inactive)
    1  A    between atoms: C_1  and  C_8
    2  A    between atoms: C_9  and  C_11
    3  A    between atoms: C_9  and  C_14
    4  A    between atoms: C_11  and  C_26
    5  A    between atoms: C_16  and  C_17
    6  A    between atoms: C_17  and  C_28
    7  A    between atoms: C_20  and  C_26
    8  A    between atoms: C_21  and  C_33
                            x       y       z     vdW  Elec       q    Type
                         _______ _______ _______ _____ _____    ______ ____

>  <TORSDO>
F 8

$$$$
=
 OpenBabel11052411073D

 34 38  0  0  1  0  0  0  0  0999 V2000
  160.4000  212.6470  150.3570 C   0  0  0  0  0  3  0  0  0  0  0  0
  160.4950  210.9850  152.6160 C   0  0  0  0  0  0  0  0  0  0  0  0
  158.8850  212.4230  153.7410 C   0  0  0  0  0  0  0  0  0  0  0  0
  161.2870  210.6810  151.4860 C   0  0  0  0  0  0  0  0  0  0  0  0
  158.9410  211.6080  154.8300 N   0  0  0  0  0  0  0  0  0  0  0  0
  161.2270  211.5200  150.3510 C   0  0  0  0  0  0  0  0  0  0  0  0
  159.6620  212.1300  152.6070 C   0  0  0  0  0  0  0  0  0  0  0  0
  159.7310  210.5020  154.8600 C   0  0  0  0  0  3  0  0  0  0  0  0
  159.6240  212.9510  151.4740 C   0  0  0  0  0  3  0  0  0  0  0  0
  160.5200  210.1720  153.7580 C   0  0  0  0  0  3  0  0  0  0  0  0
  158.0430  213.5730  153.7740 N   0  0  0  0  0  1  0  0  0  0  0  0
  162.1760  209.4700  151.4870 C   0  0  0  0  0  2  0  0  0  0  0  0
  161.3460  208.2070  151.3450 C   0  0  0  0  0  2  0  0  0  0  0  0
  161.2340  207.8270  149.8800 C   0  0  0  0  0  2  0  0  0  0  0  0
  160.8160  205.6880  148.7520 C   0  0  2  0  0  3  0  0  0  0  0  0
  162.0450  206.2200  148.3100 O   0  0  0  0  0  0  0  0  0  0  0  0
  161.7330  206.4090  149.6670 C   0  0  1  0  0  3  0  0  0  0  0  0
  161.0860  201.4200  149.3310 C   0  0  0  0  0  3  0  0  0  0  0  0
  160.9330  204.1990  148.9460 C   0  0  0  0  0  0  0  0  0  0  0  0
  161.4840  203.8640  146.5610 N   0  0  0  0  0  1  0  0  0  0  0  0
  160.3170  204.4250  151.2580 F   0  0  0  0  0  0  0  0  0  0  0  0
  161.3350  201.9640  148.0700 C   0  0  0  0  0  3  0  0  0  0  0  0
  161.2490  203.3440  147.8680 C   0  0  0  0  0  0  0  0  0  0  0  0
  160.6600  203.6370  150.2080 C   0  0  0  0  0  0  0  0  0  0  0  0
  160.7440  202.2550  150.3970 C   0  0  0  0  0  3  0  0  0  0  0  0
  162.0460  211.2430  149.1270 C   0  0  0  0  0  2  0  0  0  0  0  0
  160.8440  212.2330  147.1400 N   0  0  0  0  0  2  0  0  0  0  0  0
  160.5550  213.2040  146.1220 C   0  0  0  0  0  0  0  0  0  0  0  0
  162.6430  213.3350  148.1660 O   0  0  0  0  0  0  0  0  0  0  0  0
  161.1600  214.3470  146.1090 N   0  0  0  0  0  2  0  0  0  0  0  0
  161.8790  212.3330  148.1240 C   0  0  0  0  0  0  0  0  0  0  0  0
  159.7730  213.5720  143.8230 C   0  0  0  0  0  2  0  0  0  0  0  0
  159.8620  212.0780  144.0230 C   0  0  0  0  0  2  0  0  0  0  0  0
  159.4260  212.9690  145.1720 C   0  0  0  0  0  3  0  0  0  0  0  0
  1  9  1  0  0  0  0
  2 10  1  0  0  0  0
  3 11  1  0  0  0  0
  3  5  2  0  0  0  0
  4 12  1  0  0  0  0
  4  2  2  0  0  0  0
  5  8  1  0  0  0  0
  6  1  2  0  0  0  0
  6  4  1  0  0  0  0
  7  2  1  0  0  0  0
  7  3  1  0  0  0  0
  9  7  2  0  0  0  0
 10  8  2  0  0  0  0
 13 12  1  0  0  0  0
 14 13  1  0  0  0  0
 15 19  1  1  0  0  0
 15 17  1  0  0  0  0
 16 15  1  0  0  0  0
 16 17  1  0  0  0  0
 17 14  1  6  0  0  0
 18 25  1  0  0  0  0
 19 24  1  0  0  0  0
 20 23  1  0  0  0  0
 22 18  2  0  0  0  0
 23 22  1  0  0  0  0
 23 19  2  0  0  0  0
 24 25  2  0  0  0  0
 24 21  1  0  0  0  0
 26  6  1  0  0  0  0
 27 31  1  0  0  0  0
 28 27  1  0  0  0  0
 30 28  2  0  0  0  0
 31 29  2  0  0  0  0
 31 26  1  0  0  0  0
 32 33  1  0  0  0  0
 32 34  1  0  0  0  0
 33 34  1  0  0  0  0
 34 28  1  0  0  0  0
M  END
>  <MODEL>
9

>  <REMARK>
 VINA RESULT:      -7.7      2.363      3.647
  Name = 
  8 active torsions:
  status: ('A' for Active; 'I' for Inactive)
    1  A    between atoms: C_1  and  C_8
    2  A    between atoms: C_9  and  C_11
    3  A    between atoms: C_9  and  C_14
    4  A    between atoms: C_11  and  C_26
    5  A    between atoms: C_16  and  C_17
    6  A    between atoms: C_17  and  C_28
    7  A    between atoms: C_20  and  C_26
    8  A    between atoms: C_21  and  C_33
                            x       y       z     vdW  Elec       q    Type
                         _______ _______ _______ _____ _____    ______ ____

>  <TORSDO>
F 8

$$$$
