=
 OpenBabel11042420473D

 27 30  0  0  1  0  0  0  0  0999 V2000
  161.0950  203.0350  150.2770 C   0  0  1  0  0  3  0  0  0  0  0  0
  162.3820  204.3140  152.0260 C   0  0  0  0  0  2  0  0  0  0  0  0
  160.5600  209.8360  153.6480 C   0  0  0  0  0  3  0  0  0  0  0  0
  161.3460  208.8660  153.0100 C   0  0  0  0  0  0  0  0  0  0  0  0
  161.5410  207.9790  149.0420 C   0  0  0  0  0  0  0  0  0  0  0  0
  159.9080  207.6300  154.6290 S   0  0  0  0  0  0  0  0  0  0  0  0
  161.3470  206.1560  150.6650 C   0  0  0  0  0  0  0  0  0  0  0  0
  160.6980  207.2940  148.1710 C   0  0  0  0  0  3  0  0  0  0  0  0
  159.6790  209.3040  154.5910 C   0  0  0  0  0  3  0  0  0  0  0  0
  161.4870  205.5360  152.0440 C   0  0  2  0  0  3  0  0  0  0  0  0
  161.8780  206.4490  153.1040 N   0  0  0  0  0  2  0  0  0  0  0  0
  160.1440  204.0980  149.9650 N   0  0  0  0  0  2  0  0  0  0  0  0
  161.8890  207.4210  150.2880 C   0  0  0  0  0  0  0  0  0  0  0  0
  160.5640  205.4460  149.7250 C   0  0  0  0  0  0  0  0  0  0  0  0
  162.9390  210.2870  151.9900 O   0  0  0  0  0  0  0  0  0  0  0  0
  161.5320  203.0880  151.7380 C   0  0  0  0  0  2  0  0  0  0  0  0
  161.0830  207.5830  153.4400 C   0  0  0  0  0  0  0  0  0  0  0  0
  162.8190  208.1330  151.1170 N   0  0  0  0  0  2  0  0  0  0  0  0
  160.2210  206.0310  148.5060 C   0  0  0  0  0  3  0  0  0  0  0  0
  162.3880  209.1550  152.0190 C   0  0  0  0  0  0  0  0  0  0  0  0
  162.0650  209.3090  148.6180 C   0  0  0  0  0  1  0  0  0  0  0  0
  160.4480  201.6940  149.9840 C   0  0  0  0  0  2  0  0  0  0  0  0
  160.8150  201.2230  148.5890 C   0  0  0  0  0  2  0  0  0  0  0  0
  161.5210  203.6190  145.6360 C   0  0  0  0  0  1  0  0  0  0  0  0
  160.4230  201.5170  145.7900 O   0  0  0  0  0  0  0  0  0  0  0  0
  161.0350  202.4370  146.3940 C   0  0  0  0  0  0  0  0  0  0  0  0
  161.2670  202.3550  147.8000 N   0  0  0  0  0  2  0  0  0  0  0  0
  1 22  1  1  0  0  0
  1 16  1  0  0  0  0
  3  9  2  0  0  0  0
  4 17  2  0  0  0  0
  4  3  1  0  0  0  0
  5 13  1  0  0  0  0
  7 10  1  0  0  0  0
  8 19  1  0  0  0  0
  8  5  2  0  0  0  0
  9  6  1  0  0  0  0
 10  2  1  6  0  0  0
 10 11  1  0  0  0  0
 11 17  1  0  0  0  0
 12  1  1  0  0  0  0
 13  7  2  0  0  0  0
 13 18  1  0  0  0  0
 14 12  1  0  0  0  0
 14  7  1  0  0  0  0
 15 20  2  0  0  0  0
 16  2  1  0  0  0  0
 17  6  1  0  0  0  0
 18 20  1  0  0  0  0
 19 14  2  0  0  0  0
 20  4  1  0  0  0  0
 21  5  1  0  0  0  0
 23 22  1  0  0  0  0
 24 26  1  0  0  0  0
 25 26  2  0  0  0  0
 26 27  1  0  0  0  0
 27 23  1  0  0  0  0
M  END
>  <MODEL>
1

>  <REMARK>
 VINA RESULT:      -7.1      0.000      0.000
  Name = 
  3 active torsions:
  status: ('A' for Active; 'I' for Inactive)
    1  A    between atoms: C_1  and  C_22
    2  A    between atoms: C_2  and  N_8
    3  A    between atoms: C_2  and  C_22
                            x       y       z     vdW  Elec       q    Type
                         _______ _______ _______ _____ _____    ______ ____

>  <TORSDO>
F 3

$$$$
=
 OpenBabel11042420473D

 27 30  0  0  1  0  0  0  0  0999 V2000
  162.1060  207.4870  149.3780 C   0  0  1  0  0  3  0  0  0  0  0  0
  163.0870  206.0120  147.5840 C   0  0  0  0  0  2  0  0  0  0  0  0
  159.7230  201.6470  145.1210 C   0  0  0  0  0  3  0  0  0  0  0  0
  160.7070  202.2190  145.9390 C   0  0  0  0  0  0  0  0  0  0  0  0
  160.7150  202.6030  149.9920 C   0  0  0  0  0  0  0  0  0  0  0  0
  159.9720  204.0250  144.3860 S   0  0  0  0  0  0  0  0  0  0  0  0
  161.3390  204.5240  148.6090 C   0  0  0  0  0  0  0  0  0  0  0  0
  160.0540  203.4530  150.8750 C   0  0  0  0  0  3  0  0  0  0  0  0
  159.1900  202.5390  144.1880 C   0  0  0  0  0  3  0  0  0  0  0  0
  161.8430  205.1850  147.3380 C   0  0  2  0  0  3  0  0  0  0  0  0
  162.0280  204.2970  146.2030 N   0  0  0  0  0  2  0  0  0  0  0  0
  160.8230  206.7960  149.4720 N   0  0  0  0  0  2  0  0  0  0  0  0
  161.3760  203.1210  148.8600 C   0  0  0  0  0  0  0  0  0  0  0  0
  160.7340  205.3700  149.5680 C   0  0  0  0  0  0  0  0  0  0  0  0
  161.5980  200.2430  146.8890 O   0  0  0  0  0  0  0  0  0  0  0  0
  162.6700  207.4240  147.9610 C   0  0  0  0  0  2  0  0  0  0  0  0
  160.9440  203.5480  145.6600 C   0  0  0  0  0  0  0  0  0  0  0  0
  162.1050  202.2110  148.0230 N   0  0  0  0  0  2  0  0  0  0  0  0
  160.0720  204.8280  150.6690 C   0  0  0  0  0  3  0  0  0  0  0  0
  161.4660  201.4940  146.9640 C   0  0  0  0  0  0  0  0  0  0  0  0
  160.7070  201.1400  150.2800 C   0  0  0  0  0  1  0  0  0  0  0  0
  161.9170  208.9360  149.7900 C   0  0  0  0  0  2  0  0  0  0  0  0
  162.2590  209.1160  151.2570 C   0  0  0  0  0  2  0  0  0  0  0  0
  160.8790  206.6350  153.8830 C   0  0  0  0  0  1  0  0  0  0  0  0
  160.7410  208.9970  153.6570 O   0  0  0  0  0  0  0  0  0  0  0  0
  161.1720  207.9130  153.1830 C   0  0  0  0  0  0  0  0  0  0  0  0
  161.9410  207.8980  151.9810 N   0  0  0  0  0  2  0  0  0  0  0  0
  1 12  1  0  0  0  0
  1 22  1  6  0  0  0
  2 16  1  0  0  0  0
  3  4  1  0  0  0  0
  4 20  1  0  0  0  0
  5 21  1  0  0  0  0
  5  8  1  0  0  0  0
  6 17  1  0  0  0  0
  7 13  1  0  0  0  0
  7 14  2  0  0  0  0
  9  6  1  0  0  0  0
  9  3  2  0  0  0  0
 10  2  1  1  0  0  0
 10  7  1  0  0  0  0
 11 10  1  0  0  0  0
 12 14  1  0  0  0  0
 13  5  2  0  0  0  0
 14 19  1  0  0  0  0
 15 20  2  0  0  0  0
 16  1  1  0  0  0  0
 17  4  2  0  0  0  0
 17 11  1  0  0  0  0
 18 13  1  0  0  0  0
 19  8  2  0  0  0  0
 20 18  1  0  0  0  0
 22 23  1  0  0  0  0
 23 27  1  0  0  0  0
 26 25  2  0  0  0  0
 26 24  1  0  0  0  0
 27 26  1  0  0  0  0
M  END
>  <MODEL>
2

>  <REMARK>
 VINA RESULT:      -6.1      2.661      7.720
  Name = 
  3 active torsions:
  status: ('A' for Active; 'I' for Inactive)
    1  A    between atoms: C_1  and  C_22
    2  A    between atoms: C_2  and  N_8
    3  A    between atoms: C_2  and  C_22
                            x       y       z     vdW  Elec       q    Type
                         _______ _______ _______ _____ _____    ______ ____

>  <TORSDO>
F 3

$$$$
=
 OpenBabel11042420473D

 27 30  0  0  1  0  0  0  0  0999 V2000
  161.2370  211.2420  149.8640 C   0  0  1  0  0  3  0  0  0  0  0  0
  159.9880  211.3430  152.0510 C   0  0  0  0  0  2  0  0  0  0  0  0
  162.3320  208.7380  156.9660 C   0  0  0  0  0  3  0  0  0  0  0  0
  161.4840  208.8910  155.8590 C   0  0  0  0  0  0  0  0  0  0  0  0
  161.4740  206.7910  152.3730 C   0  0  0  0  0  0  0  0  0  0  0  0
  162.6430  211.0800  156.1460 S   0  0  0  0  0  0  0  0  0  0  0  0
  161.3310  209.2330  152.2950 C   0  0  0  0  0  0  0  0  0  0  0  0
  162.2910  206.8020  151.2450 C   0  0  0  0  0  3  0  0  0  0  0  0
  163.0730  209.8840  157.2600 C   0  0  0  0  0  3  0  0  0  0  0  0
  161.0180  210.6010  152.8760 C   0  0  2  0  0  3  0  0  0  0  0  0
  160.6630  210.6160  154.2840 N   0  0  0  0  0  2  0  0  0  0  0  0
  162.3280  210.3960  150.3390 N   0  0  0  0  0  2  0  0  0  0  0  0
  160.9730  207.9950  152.9050 C   0  0  0  0  0  0  0  0  0  0  0  0
  162.0900  209.2080  151.1020 C   0  0  0  0  0  0  0  0  0  0  0  0
  160.1500  206.9570  156.1400 O   0  0  0  0  0  0  0  0  0  0  0  0
  160.7040  212.1420  150.9750 C   0  0  0  0  0  2  0  0  0  0  0  0
  161.5610  210.1410  155.2840 C   0  0  0  0  0  0  0  0  0  0  0  0
  160.0760  207.9220  154.0230 N   0  0  0  0  0  2  0  0  0  0  0  0
  162.5880  208.0020  150.6080 C   0  0  0  0  0  3  0  0  0  0  0  0
  160.5590  207.8650  155.3680 C   0  0  0  0  0  0  0  0  0  0  0  0
  161.1450  205.4750  152.9920 C   0  0  0  0  0  1  0  0  0  0  0  0
  161.7390  212.0920  148.7110 C   0  0  0  0  0  2  0  0  0  0  0  0
  160.8490  213.3050  148.5230 C   0  0  0  0  0  2  0  0  0  0  0  0
  157.6000  212.7860  146.4900 C   0  0  0  0  0  1  0  0  0  0  0  0
  158.0190  213.2520  148.7820 O   0  0  0  0  0  0  0  0  0  0  0  0
  158.5050  213.0460  147.6390 C   0  0  0  0  0  0  0  0  0  0  0  0
  159.9180  213.0580  147.4350 N   0  0  0  0  0  2  0  0  0  0  0  0
  1 22  1  6  0  0  0
  1 12  1  0  0  0  0
  1 16  1  0  0  0  0
  3  9  2  0  0  0  0
  4  3  1  0  0  0  0
  5 13  1  0  0  0  0
  5 21  1  0  0  0  0
  6  9  1  0  0  0  0
  7 10  1  0  0  0  0
  7 13  2  0  0  0  0
  8  5  2  0  0  0  0
 10  2  1  6  0  0  0
 10 11  1  0  0  0  0
 11 17  1  0  0  0  0
 12 14  1  0  0  0  0
 13 18  1  0  0  0  0
 14  7  1  0  0  0  0
 16  2  1  0  0  0  0
 17  4  2  0  0  0  0
 17  6  1  0  0  0  0
 18 20  1  0  0  0  0
 19 14  2  0  0  0  0
 19  8  1  0  0  0  0
 20  4  1  0  0  0  0
 20 15  2  0  0  0  0
 23 22  1  0  0  0  0
 24 26  1  0  0  0  0
 26 25  2  0  0  0  0
 27 26  1  0  0  0  0
 27 23  1  0  0  0  0
M  END
>  <MODEL>
3

>  <REMARK>
 VINA RESULT:      -5.9      4.434      6.936
  Name = 
  3 active torsions:
  status: ('A' for Active; 'I' for Inactive)
    1  A    between atoms: C_1  and  C_22
    2  A    between atoms: C_2  and  N_8
    3  A    between atoms: C_2  and  C_22
                            x       y       z     vdW  Elec       q    Type
                         _______ _______ _______ _____ _____    ______ ____

>  <TORSDO>
F 3

$$$$
=
 OpenBabel11042420473D

 27 30  0  0  1  0  0  0  0  0999 V2000
  162.1350  207.5050  149.4260 C   0  0  1  0  0  3  0  0  0  0  0  0
  163.0960  206.0390  147.6150 C   0  0  0  0  0  2  0  0  0  0  0  0
  159.6980  201.7020  145.1490 C   0  0  0  0  0  3  0  0  0  0  0  0
  160.6900  202.2650  145.9640 C   0  0  0  0  0  0  0  0  0  0  0  0
  160.7310  202.6220  150.0180 C   0  0  0  0  0  0  0  0  0  0  0  0
  159.9490  204.0830  144.4280 S   0  0  0  0  0  0  0  0  0  0  0  0
  161.3510  204.5500  148.6440 C   0  0  0  0  0  0  0  0  0  0  0  0
  160.0800  203.4690  150.9120 C   0  0  0  0  0  3  0  0  0  0  0  0
  159.1610  202.6020  144.2260 C   0  0  0  0  0  3  0  0  0  0  0  0
  161.8480  205.2180  147.3720 C   0  0  2  0  0  3  0  0  0  0  0  0
  162.0200  204.3370  146.2300 N   0  0  0  0  0  2  0  0  0  0  0  0
  160.8510  206.8180  149.5260 N   0  0  0  0  0  2  0  0  0  0  0  0
  161.3850  203.1450  148.8850 C   0  0  0  0  0  0  0  0  0  0  0  0
  160.7570  205.3920  149.6130 C   0  0  0  0  0  0  0  0  0  0  0  0
  161.5810  200.2800  146.8940 O   0  0  0  0  0  0  0  0  0  0  0  0
  162.6880  207.4500  148.0050 C   0  0  0  0  0  2  0  0  0  0  0  0
  160.9290  203.5940  145.6920 C   0  0  0  0  0  0  0  0  0  0  0  0
  162.1040  202.2390  148.0360 N   0  0  0  0  0  2  0  0  0  0  0  0
  160.1020  204.8450  150.7160 C   0  0  0  0  0  3  0  0  0  0  0  0
  161.4540  201.5300  146.9770 C   0  0  0  0  0  0  0  0  0  0  0  0
  160.7200  201.1580  150.2980 C   0  0  0  0  0  1  0  0  0  0  0  0
  161.9550  208.9520  149.8490 C   0  0  0  0  0  2  0  0  0  0  0  0
  161.9560  209.8620  148.6360 C   0  0  0  0  0  2  0  0  0  0  0  0
  161.4410  213.6930  148.7620 C   0  0  0  0  0  1  0  0  0  0  0  0
  160.9030  212.0390  147.1420 O   0  0  0  0  0  0  0  0  0  0  0  0
  161.4110  212.2920  148.2670 C   0  0  0  0  0  0  0  0  0  0  0  0
  161.9580  211.2480  149.0710 N   0  0  0  0  0  2  0  0  0  0  0  0
  1 12  1  0  0  0  0
  1 22  1  6  0  0  0
  2 16  1  0  0  0  0
  3  4  1  0  0  0  0
  4 20  1  0  0  0  0
  5 21  1  0  0  0  0
  5  8  1  0  0  0  0
  6 17  1  0  0  0  0
  7 13  1  0  0  0  0
  7 14  2  0  0  0  0
  9  6  1  0  0  0  0
  9  3  2  0  0  0  0
 10  2  1  1  0  0  0
 10  7  1  0  0  0  0
 11 10  1  0  0  0  0
 12 14  1  0  0  0  0
 13  5  2  0  0  0  0
 14 19  1  0  0  0  0
 15 20  2  0  0  0  0
 16  1  1  0  0  0  0
 17  4  2  0  0  0  0
 17 11  1  0  0  0  0
 18 13  1  0  0  0  0
 19  8  2  0  0  0  0
 20 18  1  0  0  0  0
 23 27  1  0  0  0  0
 23 22  1  0  0  0  0
 25 26  2  0  0  0  0
 26 24  1  0  0  0  0
 26 27  1  0  0  0  0
M  END
>  <MODEL>
4

>  <REMARK>
 VINA RESULT:      -5.8      3.258      7.912
  Name = 
  3 active torsions:
  status: ('A' for Active; 'I' for Inactive)
    1  A    between atoms: C_1  and  C_22
    2  A    between atoms: C_2  and  N_8
    3  A    between atoms: C_2  and  C_22
                            x       y       z     vdW  Elec       q    Type
                         _______ _______ _______ _____ _____    ______ ____

>  <TORSDO>
F 3

$$$$
=
 OpenBabel11042420473D

 27 30  0  0  1  0  0  0  0  0999 V2000
  161.8650  208.1010  150.0980 C   0  0  1  0  0  3  0  0  0  0  0  0
  161.2130  210.1420  151.4250 C   0  0  0  0  0  2  0  0  0  0  0  0
  162.7140  210.5300  157.2580 C   0  0  0  0  0  3  0  0  0  0  0  0
  161.8880  210.3320  156.1430 C   0  0  0  0  0  0  0  0  0  0  0  0
  160.2580  206.8560  154.7910 C   0  0  0  0  0  0  0  0  0  0  0  0
  164.0130  211.2920  155.2620 S   0  0  0  0  0  0  0  0  0  0  0  0
  161.3420  208.3650  153.1980 C   0  0  0  0  0  0  0  0  0  0  0  0
  160.7720  205.7600  154.1040 C   0  0  0  0  0  3  0  0  0  0  0  0
  163.9650  211.0600  156.9350 C   0  0  0  0  0  3  0  0  0  0  0  0
  161.8550  209.7160  152.7280 C   0  0  2  0  0  3  0  0  0  0  0  0
  161.7910  210.7840  153.7110 N   0  0  0  0  0  2  0  0  0  0  0  0
  162.4490  207.3620  151.2130 N   0  0  0  0  0  2  0  0  0  0  0  0
  160.5200  208.1670  154.3460 C   0  0  0  0  0  0  0  0  0  0  0  0
  161.7790  207.2330  152.4720 C   0  0  0  0  0  0  0  0  0  0  0  0
  159.8340  209.9700  157.2600 O   0  0  0  0  0  0  0  0  0  0  0  0
  162.0440  209.6060  150.2710 C   0  0  0  0  0  2  0  0  0  0  0  0
  162.4820  210.6940  154.9540 C   0  0  0  0  0  0  0  0  0  0  0  0
  159.9040  209.2590  155.0450 N   0  0  0  0  0  2  0  0  0  0  0  0
  161.5190  205.9470  152.9470 C   0  0  0  0  0  3  0  0  0  0  0  0
  160.5080  209.8400  156.2040 C   0  0  0  0  0  0  0  0  0  0  0  0
  159.4220  206.6030  156.0000 C   0  0  0  0  0  1  0  0  0  0  0  0
  162.5280  207.6510  148.8080 C   0  0  0  0  0  2  0  0  0  0  0  0
  161.5760  206.7940  147.9950 C   0  0  0  0  0  2  0  0  0  0  0  0
  160.8340  203.2460  149.3440 C   0  0  0  0  0  1  0  0  0  0  0  0
  162.0000  204.0410  147.4320 O   0  0  0  0  0  0  0  0  0  0  0  0
  161.3490  204.3320  148.4690 C   0  0  0  0  0  0  0  0  0  0  0  0
  161.0970  205.6940  148.8140 N   0  0  0  0  0  2  0  0  0  0  0  0
  1 22  1  6  0  0  0
  1 16  1  0  0  0  0
  1 12  1  0  0  0  0
  4 20  1  0  0  0  0
  4  3  1  0  0  0  0
  5 21  1  0  0  0  0
  6  9  1  0  0  0  0
  7 13  2  0  0  0  0
  8  5  2  0  0  0  0
  9  3  2  0  0  0  0
 10  2  1  6  0  0  0
 10  7  1  0  0  0  0
 10 11  1  0  0  0  0
 11 17  1  0  0  0  0
 12 14  1  0  0  0  0
 13  5  1  0  0  0  0
 13 18  1  0  0  0  0
 14 19  2  0  0  0  0
 14  7  1  0  0  0  0
 16  2  1  0  0  0  0
 17  6  1  0  0  0  0
 17  4  2  0  0  0  0
 18 20  1  0  0  0  0
 19  8  1  0  0  0  0
 20 15  2  0  0  0  0
 23 22  1  0  0  0  0
 23 27  1  0  0  0  0
 25 26  2  0  0  0  0
 26 27  1  0  0  0  0
 26 24  1  0  0  0  0
M  END
>  <MODEL>
5

>  <REMARK>
 VINA RESULT:      -5.7      2.786      4.994
  Name = 
  3 active torsions:
  status: ('A' for Active; 'I' for Inactive)
    1  A    between atoms: C_1  and  C_22
    2  A    between atoms: C_2  and  N_8
    3  A    between atoms: C_2  and  C_22
                            x       y       z     vdW  Elec       q    Type
                         _______ _______ _______ _____ _____    ______ ____

>  <TORSDO>
F 3

$$$$
=
 OpenBabel11042420473D

 27 30  0  0  1  0  0  0  0  0999 V2000
  159.3790  212.8950  150.8860 C   0  0  1  0  0  3  0  0  0  0  0  0
  158.5070  211.7280  152.9430 C   0  0  0  0  0  2  0  0  0  0  0  0
  162.3270  208.7590  156.5520 C   0  0  0  0  0  3  0  0  0  0  0  0
  161.3360  208.9320  155.5760 C   0  0  0  0  0  0  0  0  0  0  0  0
  161.6180  208.3450  151.5570 C   0  0  0  0  0  0  0  0  0  0  0  0
  161.6200  211.1550  156.6670 S   0  0  0  0  0  0  0  0  0  0  0  0
  160.5620  210.3890  152.3940 C   0  0  0  0  0  0  0  0  0  0  0  0
  162.2010  209.0710  150.5220 C   0  0  0  0  0  3  0  0  0  0  0  0
  162.6190  209.9280  157.2590 C   0  0  0  0  0  3  0  0  0  0  0  0
  159.8450  211.2250  153.4410 C   0  0  2  0  0  3  0  0  0  0  0  0
  159.7140  210.6100  154.7500 N   0  0  0  0  0  2  0  0  0  0  0  0
  160.7620  212.4490  151.0210 N   0  0  0  0  0  2  0  0  0  0  0  0
  160.7830  208.9840  152.4960 C   0  0  0  0  0  0  0  0  0  0  0  0
  161.0970  211.0820  151.2840 C   0  0  0  0  0  0  0  0  0  0  0  0
  160.8770  206.6590  155.1040 O   0  0  0  0  0  0  0  0  0  0  0  0
  158.7110  213.0640  152.2480 C   0  0  0  0  0  2  0  0  0  0  0  0
  160.8570  210.2220  155.5080 C   0  0  0  0  0  0  0  0  0  0  0  0
  160.1470  208.1780  153.4990 N   0  0  0  0  0  2  0  0  0  0  0  0
  161.9340  210.4270  150.3810 C   0  0  0  0  0  3  0  0  0  0  0  0
  160.8030  207.8590  154.7300 C   0  0  0  0  0  0  0  0  0  0  0  0
  161.8960  206.8820  151.6390 C   0  0  0  0  0  1  0  0  0  0  0  0
  159.3570  214.2150  150.1380 C   0  0  0  0  0  2  0  0  0  0  0  0
  159.2930  213.9740  148.6420 C   0  0  0  0  0  2  0  0  0  0  0  0
  162.2500  213.0770  146.3160 C   0  0  0  0  0  1  0  0  0  0  0  0
  159.9540  213.5380  145.9120 O   0  0  0  0  0  0  0  0  0  0  0  0
  160.8770  213.4260  146.7620 C   0  0  0  0  0  0  0  0  0  0  0  0
  160.6160  213.6310  148.1500 N   0  0  0  0  0  2  0  0  0  0  0  0
  1 22  1  1  0  0  0
  1 12  1  0  0  0  0
  1 16  1  0  0  0  0
  3  9  2  0  0  0  0
  4  3  1  0  0  0  0
  5 21  1  0  0  0  0
  5 13  1  0  0  0  0
  6  9  1  0  0  0  0
  7 13  2  0  0  0  0
  7 10  1  0  0  0  0
  8  5  2  0  0  0  0
 10  2  1  6  0  0  0
 10 11  1  0  0  0  0
 11 17  1  0  0  0  0
 12 14  1  0  0  0  0
 13 18  1  0  0  0  0
 14  7  1  0  0  0  0
 16  2  1  0  0  0  0
 17  4  2  0  0  0  0
 17  6  1  0  0  0  0
 18 20  1  0  0  0  0
 19  8  1  0  0  0  0
 19 14  2  0  0  0  0
 20 15  2  0  0  0  0
 20  4  1  0  0  0  0
 23 22  1  0  0  0  0
 24 26  1  0  0  0  0
 25 26  2  0  0  0  0
 26 27  1  0  0  0  0
 27 23  1  0  0  0  0
M  END
>  <MODEL>
6

>  <REMARK>
 VINA RESULT:      -4.9      4.463      7.352
  Name = 
  3 active torsions:
  status: ('A' for Active; 'I' for Inactive)
    1  A    between atoms: C_1  and  C_22
    2  A    between atoms: C_2  and  N_8
    3  A    between atoms: C_2  and  C_22
                            x       y       z     vdW  Elec       q    Type
                         _______ _______ _______ _____ _____    ______ ____

>  <TORSDO>
F 3

$$$$
=
 OpenBabel11042420473D

 27 30  0  0  1  0  0  0  0  0999 V2000
  158.4620  213.6920  151.2130 C   0  0  1  0  0  3  0  0  0  0  0  0
  160.7280  212.6500  151.5780 C   0  0  0  0  0  2  0  0  0  0  0  0
  161.1580  207.3100  154.3590 C   0  0  0  0  0  3  0  0  0  0  0  0
  161.2290  208.7020  154.2080 C   0  0  0  0  0  0  0  0  0  0  0  0
  158.8200  211.5470  155.8420 C   0  0  0  0  0  0  0  0  0  0  0  0
  160.9100  207.7780  151.9150 S   0  0  0  0  0  0  0  0  0  0  0  0
  159.3780  211.6780  153.4630 C   0  0  0  0  0  0  0  0  0  0  0  0
  157.5270  211.9830  155.5630 C   0  0  0  0  0  3  0  0  0  0  0  0
  160.9680  206.6300  153.1540 C   0  0  0  0  0  3  0  0  0  0  0  0
  160.2330  211.3830  152.2420 C   0  0  2  0  0  3  0  0  0  0  0  0
  161.3250  210.4490  152.4560 N   0  0  0  0  0  2  0  0  0  0  0  0
  157.6980  212.6730  151.9260 N   0  0  0  0  0  2  0  0  0  0  0  0
  159.7640  211.4010  154.8070 C   0  0  0  0  0  0  0  0  0  0  0  0
  158.0860  212.2010  153.2210 C   0  0  0  0  0  0  0  0  0  0  0  0
  162.0630  209.2680  156.3490 O   0  0  0  0  0  0  0  0  0  0  0  0
  159.7020  213.0980  150.5500 C   0  0  0  0  0  2  0  0  0  0  0  0
  161.0890  209.1160  152.9020 C   0  0  0  0  0  0  0  0  0  0  0  0
  161.1030  211.0210  155.1570 N   0  0  0  0  0  2  0  0  0  0  0  0
  157.1660  212.3180  154.2630 C   0  0  0  0  0  3  0  0  0  0  0  0
  161.4780  209.6480  155.3010 C   0  0  0  0  0  0  0  0  0  0  0  0
  159.1730  211.2460  157.2590 C   0  0  0  0  0  1  0  0  0  0  0  0
  157.5730  214.3270  150.1590 C   0  0  0  0  0  2  0  0  0  0  0  0
  156.8660  213.2570  149.3490 C   0  0  0  0  0  2  0  0  0  0  0  0
  157.2150  213.8890  145.5490 C   0  0  0  0  0  1  0  0  0  0  0  0
  158.4650  212.5890  147.0970 O   0  0  0  0  0  0  0  0  0  0  0  0
  157.4890  213.3630  146.9110 C   0  0  0  0  0  0  0  0  0  0  0  0
  156.6440  213.7410  147.9980 N   0  0  0  0  0  2  0  0  0  0  0  0
  1 22  1  6  0  0  0
  1 12  1  0  0  0  0
  4  3  1  0  0  0  0
  4 20  1  0  0  0  0
  5 21  1  0  0  0  0
  6 17  1  0  0  0  0
  6  9  1  0  0  0  0
  7 13  1  0  0  0  0
  8  5  1  0  0  0  0
  9  3  2  0  0  0  0
 10  2  1  1  0  0  0
 10 11  1  0  0  0  0
 10  7  1  0  0  0  0
 11 17  1  0  0  0  0
 12 14  1  0  0  0  0
 13 18  1  0  0  0  0
 13  5  2  0  0  0  0
 14  7  2  0  0  0  0
 14 19  1  0  0  0  0
 16  1  1  0  0  0  0
 16  2  1  0  0  0  0
 17  4  2  0  0  0  0
 18 20  1  0  0  0  0
 19  8  2  0  0  0  0
 20 15  2  0  0  0  0
 23 22  1  0  0  0  0
 24 26  1  0  0  0  0
 26 25  2  0  0  0  0
 26 27  1  0  0  0  0
 27 23  1  0  0  0  0
M  END
>  <MODEL>
7

>  <REMARK>
 VINA RESULT:      -4.9      5.095      8.297
  Name = 
  3 active torsions:
  status: ('A' for Active; 'I' for Inactive)
    1  A    between atoms: C_1  and  C_22
    2  A    between atoms: C_2  and  N_8
    3  A    between atoms: C_2  and  C_22
                            x       y       z     vdW  Elec       q    Type
                         _______ _______ _______ _____ _____    ______ ____

>  <TORSDO>
F 3

$$$$
=
 OpenBabel11042420473D

 27 30  0  0  1  0  0  0  0  0999 V2000
  160.6490  212.9940  144.0520 C   0  0  1  0  0  3  0  0  0  0  0  0
  162.0140  213.6370  146.0710 C   0  0  0  0  0  2  0  0  0  0  0  0
  160.7600  211.1860  151.4430 C   0  0  0  0  0  3  0  0  0  0  0  0
  160.7930  212.1670  150.4420 C   0  0  0  0  0  0  0  0  0  0  0  0
  157.7100  213.5900  148.1960 C   0  0  0  0  0  0  0  0  0  0  0  0
  162.3310  210.3590  149.6810 S   0  0  0  0  0  0  0  0  0  0  0  0
  159.8110  212.9890  147.0940 C   0  0  0  0  0  0  0  0  0  0  0  0
  156.9970  213.0790  147.1150 C   0  0  0  0  0  3  0  0  0  0  0  0
  161.5700  210.0830  151.1650 C   0  0  0  0  0  3  0  0  0  0  0  0
  161.3080  212.7300  147.0560 C   0  0  2  0  0  3  0  0  0  0  0  0
  161.9780  212.7440  148.3450 N   0  0  0  0  0  2  0  0  0  0  0  0
  159.7020  212.1400  144.7620 N   0  0  0  0  0  2  0  0  0  0  0  0
  159.1190  213.5670  148.1990 C   0  0  0  0  0  0  0  0  0  0  0  0
  159.0640  212.5570  145.9740 C   0  0  0  0  0  0  0  0  0  0  0  0
  159.7470  213.9350  151.6170 O   0  0  0  0  0  0  0  0  0  0  0  0
  162.0260  212.9660  144.7080 C   0  0  0  0  0  2  0  0  0  0  0  0
  161.6120  211.8390  149.3840 C   0  0  0  0  0  0  0  0  0  0  0  0
  159.8070  214.1730  149.3030 N   0  0  0  0  0  2  0  0  0  0  0  0
  157.6690  212.5750  146.0070 C   0  0  0  0  0  3  0  0  0  0  0  0
  160.0800  213.4470  150.5040 C   0  0  0  0  0  0  0  0  0  0  0  0
  156.9440  214.1630  149.3400 C   0  0  0  0  0  1  0  0  0  0  0  0
  160.7560  212.5220  142.6130 C   0  0  0  0  0  2  0  0  0  0  0  0
  162.1980  212.1980  142.2700 C   0  0  0  0  0  2  0  0  0  0  0  0
  162.3640  211.2570  138.5220 C   0  0  0  0  0  1  0  0  0  0  0  0
  161.8060  210.0270  140.4770 O   0  0  0  0  0  0  0  0  0  0  0  0
  162.1630  211.1320  139.9890 C   0  0  0  0  0  0  0  0  0  0  0  0
  162.3780  212.2650  140.8300 N   0  0  0  0  0  2  0  0  0  0  0  0
  1 22  1  6  0  0  0
  1 16  1  0  0  0  0
  1 12  1  0  0  0  0
  4 20  1  0  0  0  0
  4  3  1  0  0  0  0
  5 13  1  0  0  0  0
  5 21  1  0  0  0  0
  6  9  1  0  0  0  0
  7 13  2  0  0  0  0
  8  5  2  0  0  0  0
  9  3  2  0  0  0  0
 10  2  1  6  0  0  0
 10  7  1  0  0  0  0
 10 11  1  0  0  0  0
 11 17  1  0  0  0  0
 12 14  1  0  0  0  0
 13 18  1  0  0  0  0
 14 19  2  0  0  0  0
 14  7  1  0  0  0  0
 16  2  1  0  0  0  0
 17  6  1  0  0  0  0
 17  4  2  0  0  0  0
 18 20  1  0  0  0  0
 19  8  1  0  0  0  0
 20 15  2  0  0  0  0
 23 22  1  0  0  0  0
 24 26  1  0  0  0  0
 26 25  2  0  0  0  0
 26 27  1  0  0  0  0
 27 23  1  0  0  0  0
M  END
>  <MODEL>
8

>  <REMARK>
 VINA RESULT:      -4.7      6.414      8.697
  Name = 
  3 active torsions:
  status: ('A' for Active; 'I' for Inactive)
    1  A    between atoms: C_1  and  C_22
    2  A    between atoms: C_2  and  N_8
    3  A    between atoms: C_2  and  C_22
                            x       y       z     vdW  Elec       q    Type
                         _______ _______ _______ _____ _____    ______ ____

>  <TORSDO>
F 3

$$$$
