=
 OpenBabel11052410483D

 37 41  0  0  1  0  0  0  0  0999 V2000
  160.9640  202.8100  152.3530 C   0  0  0  0  0  2  0  0  0  0  0  0
  160.9020  210.7870  156.6730 O   0  0  0  0  0  0  0  0  0  0  0  0
  160.8660  210.6660  155.4190 C   0  0  0  0  0  0  0  0  0  0  0  0
  160.8570  205.0710  148.5590 C   0  0  0  0  0  0  0  0  0  0  0  0
  161.9790  202.1880  150.2020 C   0  0  0  0  0  3  0  0  0  0  0  0
  160.8090  208.7900  152.0990 S   0  0  0  0  0  0  0  0  0  0  0  0
  162.0540  202.1920  151.5340 C   0  0  0  0  0  3  0  0  0  0  0  0
  160.8870  209.4540  154.7240 C   0  0  0  0  0  0  0  0  0  0  0  0
  160.9740  205.0230  153.4210 C   0  0  0  0  0  3  0  0  0  0  0  0
  160.8610  207.1140  152.2390 C   0  0  0  0  0  0  0  0  0  0  0  0
  160.9340  206.4200  153.4610 C   0  0  0  0  0  0  0  0  0  0  0  0
  160.9960  208.1430  156.5900 O   0  0  0  0  0  0  0  0  0  0  0  0
  160.7860  211.1830  153.3730 C   0  0  0  0  0  0  0  0  0  0  0  0
  160.9650  206.9690  154.7060 N   0  0  0  0  0  2  0  0  0  0  0  0
  160.7990  211.7290  154.5980 N   0  0  0  0  0  0  0  0  0  0  0  0
  160.8300  206.4030  151.0380 C   0  0  0  0  0  3  0  0  0  0  0  0
  160.7380  202.2970  148.0770 C   0  0  0  0  0  1  0  0  0  0  0  0
  160.8090  202.8140  149.5090 C   0  0  2  0  0  3  0  0  0  0  0  0
  160.8710  205.8130  147.4870 C   0  0  0  0  0  3  0  0  0  0  0  0
  160.9480  204.3040  152.2250 C   0  0  0  0  0  0  0  0  0  0  0  0
  160.8310  209.8020  153.4450 C   0  0  0  0  0  0  0  0  0  0  0  0
  160.9500  208.1790  155.3310 C   0  0  0  0  0  0  0  0  0  0  0  0
  160.8450  204.3270  149.6440 C   0  0  0  0  0  0  0  0  0  0  0  0
  160.8660  205.0000  150.9890 C   0  0  0  0  0  0  0  0  0  0  0  0
  162.1180  206.5180  147.0900 C   0  0  0  0  0  2  0  0  0  0  0  0
  162.5150  207.4910  148.1810 C   0  0  0  0  0  2  0  0  0  0  0  0
  162.1220  209.6000  148.6930 C   0  0  0  0  0  1  0  0  0  0  0  0
  161.4790  208.3990  148.3960 O   0  0  0  0  0  0  0  0  0  0  0  0
  160.6730  211.9910  152.1250 C   0  0  0  0  0  2  0  0  0  0  0  0
  159.7010  213.0520  152.3150 N   0  0  0  0  0  2  0  0  0  0  0  0
  158.4380  212.4490  152.3030 N   0  0  0  0  0  2  0  0  0  0  0  0
  157.5110  213.4080  152.8770 C   0  0  0  0  0  2  0  0  0  0  0  0
  156.8680  212.8220  154.1190 C   0  0  2  0  0  3  0  0  0  0  0  0
  157.0960  211.1500  155.6680 N   0  0  0  0  0  2  0  0  0  0  0  0
  157.6670  212.2390  156.4430 C   0  0  0  0  0  2  0  0  0  0  0  0
  157.3510  213.7910  155.5660 S   0  0  0  0  0  0  0  0  0  0  0  0
  157.3210  211.4550  154.3170 N   0  0  0  0  0  2  0  0  0  0  0  0
  3  2  2  0  0  0  0
  4 23  2  0  0  0  0
  5  7  2  0  0  0  0
  6 10  1  0  0  0  0
  6 21  1  0  0  0  0
  7  1  1  0  0  0  0
  8 22  1  0  0  0  0
  8  3  1  0  0  0  0
  9 11  1  0  0  0  0
 10 11  2  0  0  0  0
 11 14  1  0  0  0  0
 13 21  1  0  0  0  0
 13 15  2  0  0  0  0
 14 22  1  0  0  0  0
 15  3  1  0  0  0  0
 16 10  1  0  0  0  0
 18 17  1  6  0  0  0
 18 23  1  0  0  0  0
 18  5  1  0  0  0  0
 19  4  2  0  0  0  0
 20  1  1  0  0  0  0
 20  9  2  0  0  0  0
 21  8  2  0  0  0  0
 22 12  2  0  0  0  0
 23 24  1  0  0  0  0
 24 16  2  0  0  0  0
 24 20  1  0  0  0  0
 25 19  1  0  0  0  0
 25 26  1  0  0  0  0
 26 28  1  0  0  0  0
 28 27  1  0  0  0  0
 29 30  1  0  0  0  0
 29 13  1  0  0  0  0
 31 30  1  0  0  0  0
 31 32  1  0  0  0  0
 33 32  1  6  0  0  0
 33 37  1  0  0  0  0
 33 36  1  0  0  0  0
 34 35  1  0  0  0  0
 36 35  1  0  0  0  0
 37 34  1  0  0  0  0
M  END
>  <MODEL>
1

>  <REMARK>
 VINA RESULT:      -8.2      0.000      0.000
  Name = 
  8 active torsions:
  status: ('A' for Active; 'I' for Inactive)
    1  A    between atoms: C_5  and  C_30
    2  A    between atoms: C_8  and  C_16
    3  A    between atoms: C_8  and  C_29
    4  A    between atoms: N_11  and  C_30
    5  A    between atoms: N_11  and  N_34
    6  A    between atoms: C_16  and  O_33
    7  A    between atoms: C_20  and  C_22
    8  A    between atoms: C_20  and  N_34
                            x       y       z     vdW  Elec       q    Type
                         _______ _______ _______ _____ _____    ______ ____

>  <TORSDO>
F 8

$$$$
=
 OpenBabel11052410483D

 37 41  0  0  1  0  0  0  0  0999 V2000
  160.9160  202.5970  152.1470 C   0  0  0  0  0  2  0  0  0  0  0  0
  160.9670  210.4750  156.6450 O   0  0  0  0  0  0  0  0  0  0  0  0
  160.9390  210.3830  155.3890 C   0  0  0  0  0  0  0  0  0  0  0  0
  160.8810  204.9440  148.4040 C   0  0  0  0  0  0  0  0  0  0  0  0
  161.9360  202.0040  149.9910 C   0  0  0  0  0  3  0  0  0  0  0  0
  160.8740  208.5830  152.0270 S   0  0  0  0  0  0  0  0  0  0  0  0
  162.0010  201.9770  151.3230 C   0  0  0  0  0  3  0  0  0  0  0  0
  160.9430  209.1860  154.6670 C   0  0  0  0  0  0  0  0  0  0  0  0
  160.9580  204.7850  153.2650 C   0  0  0  0  0  3  0  0  0  0  0  0
  160.8940  206.9040  152.1290 C   0  0  0  0  0  0  0  0  0  0  0  0
  160.9440  206.1810  153.3360 C   0  0  0  0  0  0  0  0  0  0  0  0
  161.0130  207.8330  156.5040 O   0  0  0  0  0  0  0  0  0  0  0  0
  160.8850  210.9470  153.3550 C   0  0  0  0  0  0  0  0  0  0  0  0
  160.9750  206.7020  154.5930 N   0  0  0  0  0  2  0  0  0  0  0  0
  160.8980  211.4650  154.5920 N   0  0  0  0  0  0  0  0  0  0  0  0
  160.8590  206.2200  150.9120 C   0  0  0  0  0  3  0  0  0  0  0  0
  160.7150  202.1840  147.8590 C   0  0  0  0  0  1  0  0  0  0  0  0
  160.7840  202.6680  149.3030 C   0  0  2  0  0  3  0  0  0  0  0  0
  160.9180  205.7090  147.3490 C   0  0  0  0  0  3  0  0  0  0  0  0
  160.9290  204.0930  152.0520 C   0  0  0  0  0  0  0  0  0  0  0  0
  160.9040  209.5640  153.3950 C   0  0  0  0  0  0  0  0  0  0  0  0
  160.9770  207.8980  155.2460 C   0  0  0  0  0  0  0  0  0  0  0  0
  160.8460  204.1760  149.4720 C   0  0  0  0  0  0  0  0  0  0  0  0
  160.8690  204.8180  150.8320 C   0  0  0  0  0  0  0  0  0  0  0  0
  162.1810  206.3990  146.9780 C   0  0  0  0  0  2  0  0  0  0  0  0
  162.5620  207.3750  148.0720 C   0  0  0  0  0  2  0  0  0  0  0  0
  162.1230  209.4500  148.6780 C   0  0  0  0  0  1  0  0  0  0  0  0
  161.5060  208.2580  148.2980 O   0  0  0  0  0  0  0  0  0  0  0  0
  160.7970  211.7840  152.1240 C   0  0  0  0  0  2  0  0  0  0  0  0
  159.7040  212.7320  152.2540 N   0  0  0  0  0  2  0  0  0  0  0  0
  159.9370  213.7460  151.3180 N   0  0  0  0  0  2  0  0  0  0  0  0
  159.0350  213.5030  150.2060 C   0  0  0  0  0  2  0  0  0  0  0  0
  159.7620  213.7330  148.8950 C   0  0  2  0  0  3  0  0  0  0  0  0
  161.3940  212.8640  147.5440 N   0  0  0  0  0  2  0  0  0  0  0  0
  160.2340  212.3400  146.8420 C   0  0  0  0  0  2  0  0  0  0  0  0
  158.7520  213.1200  147.5270 S   0  0  0  0  0  0  0  0  0  0  0  0
  161.0210  213.0070  148.8890 N   0  0  0  0  0  2  0  0  0  0  0  0
  3  2  2  0  0  0  0
  4 23  2  0  0  0  0
  5  7  2  0  0  0  0
  6 10  1  0  0  0  0
  6 21  1  0  0  0  0
  7  1  1  0  0  0  0
  8 22  1  0  0  0  0
  8  3  1  0  0  0  0
  9 11  1  0  0  0  0
 10 11  2  0  0  0  0
 11 14  1  0  0  0  0
 13 21  1  0  0  0  0
 13 15  2  0  0  0  0
 14 22  1  0  0  0  0
 15  3  1  0  0  0  0
 16 10  1  0  0  0  0
 18 17  1  6  0  0  0
 18 23  1  0  0  0  0
 18  5  1  0  0  0  0
 19  4  2  0  0  0  0
 20  1  1  0  0  0  0
 20  9  2  0  0  0  0
 21  8  2  0  0  0  0
 22 12  2  0  0  0  0
 23 24  1  0  0  0  0
 24 16  2  0  0  0  0
 24 20  1  0  0  0  0
 25 19  1  0  0  0  0
 25 26  1  0  0  0  0
 26 28  1  0  0  0  0
 28 27  1  0  0  0  0
 29 30  1  0  0  0  0
 29 13  1  0  0  0  0
 31 30  1  0  0  0  0
 32 31  1  0  0  0  0
 33 32  1  1  0  0  0
 34 37  1  0  0  0  0
 35 36  1  0  0  0  0
 35 34  1  0  0  0  0
 36 33  1  0  0  0  0
 37 33  1  0  0  0  0
M  END
>  <MODEL>
2

>  <REMARK>
 VINA RESULT:      -8.2      1.860      3.083
  Name = 
  8 active torsions:
  status: ('A' for Active; 'I' for Inactive)
    1  A    between atoms: C_5  and  C_30
    2  A    between atoms: C_8  and  C_16
    3  A    between atoms: C_8  and  C_29
    4  A    between atoms: N_11  and  C_30
    5  A    between atoms: N_11  and  N_34
    6  A    between atoms: C_16  and  O_33
    7  A    between atoms: C_20  and  C_22
    8  A    between atoms: C_20  and  N_34
                            x       y       z     vdW  Elec       q    Type
                         _______ _______ _______ _____ _____    ______ ____

>  <TORSDO>
F 8

$$$$
=
 OpenBabel11052410483D

 37 41  0  0  1  0  0  0  0  0999 V2000
  161.0090  202.7620  152.3410 C   0  0  0  0  0  2  0  0  0  0  0  0
  161.0130  210.8250  156.5000 O   0  0  0  0  0  0  0  0  0  0  0  0
  160.9500  210.6780  155.2500 C   0  0  0  0  0  0  0  0  0  0  0  0
  160.8110  204.9460  148.5060 C   0  0  0  0  0  0  0  0  0  0  0  0
  161.9790  202.1000  150.1820 C   0  0  0  0  0  3  0  0  0  0  0  0
  160.8270  208.7350  151.9700 S   0  0  0  0  0  0  0  0  0  0  0  0
  162.0830  202.1310  151.5120 C   0  0  0  0  0  3  0  0  0  0  0  0
  160.9600  209.4520  154.5800 C   0  0  0  0  0  0  0  0  0  0  0  0
  161.0340  204.9970  153.3640 C   0  0  0  0  0  3  0  0  0  0  0  0
  160.8890  207.0630  152.1430 C   0  0  0  0  0  0  0  0  0  0  0  0
  160.9900  206.3940  153.3770 C   0  0  0  0  0  0  0  0  0  0  0  0
  161.1140  208.1800  156.4690 O   0  0  0  0  0  0  0  0  0  0  0  0
  160.8240  211.1540  153.1970 C   0  0  0  0  0  0  0  0  0  0  0  0
  161.0460  206.9680  154.6090 N   0  0  0  0  0  2  0  0  0  0  0  0
  160.8620  211.7240  154.4100 N   0  0  0  0  0  0  0  0  0  0  0  0
  160.8330  206.3270  150.9570 C   0  0  0  0  0  3  0  0  0  0  0  0
  160.6910  202.1620  148.0820 C   0  0  0  0  0  1  0  0  0  0  0  0
  160.7920  202.7080  149.5020 C   0  0  2  0  0  3  0  0  0  0  0  0
  160.8000  205.6660  147.4190 C   0  0  0  0  0  3  0  0  0  0  0  0
  160.9850  204.2530  152.1830 C   0  0  0  0  0  0  0  0  0  0  0  0
  160.8750  209.7740  153.2950 C   0  0  0  0  0  0  0  0  0  0  0  0
  161.0410  208.1900  155.2110 C   0  0  0  0  0  0  0  0  0  0  0  0
  160.8250  204.2240  149.6050 C   0  0  0  0  0  0  0  0  0  0  0  0
  160.8730  204.9240  150.9360 C   0  0  0  0  0  0  0  0  0  0  0  0
  162.0350  206.3660  146.9810 C   0  0  0  0  0  2  0  0  0  0  0  0
  162.5240  205.7620  145.6810 C   0  0  0  0  0  2  0  0  0  0  0  0
  161.3050  205.4060  143.8780 C   0  0  0  0  0  1  0  0  0  0  0  0
  161.5430  204.9170  145.1610 O   0  0  0  0  0  0  0  0  0  0  0  0
  160.6810  211.9350  151.9350 C   0  0  0  0  0  2  0  0  0  0  0  0
  159.7490  213.0300  152.1410 N   0  0  0  0  0  2  0  0  0  0  0  0
  158.4700  212.4650  152.1950 N   0  0  0  0  0  2  0  0  0  0  0  0
  157.6120  213.4370  152.8510 C   0  0  0  0  0  2  0  0  0  0  0  0
  156.9560  212.8080  154.0650 C   0  0  2  0  0  3  0  0  0  0  0  0
  157.1640  211.0790  155.5520 N   0  0  0  0  0  2  0  0  0  0  0  0
  157.7340  212.1350  156.3710 C   0  0  0  0  0  2  0  0  0  0  0  0
  157.4320  213.7200  155.5510 S   0  0  0  0  0  0  0  0  0  0  0  0
  157.4020  211.4320  154.2150 N   0  0  0  0  0  2  0  0  0  0  0  0
  3  2  2  0  0  0  0
  4 23  2  0  0  0  0
  5  7  2  0  0  0  0
  6 10  1  0  0  0  0
  6 21  1  0  0  0  0
  7  1  1  0  0  0  0
  8 22  1  0  0  0  0
  8  3  1  0  0  0  0
  9 11  1  0  0  0  0
 10 11  2  0  0  0  0
 11 14  1  0  0  0  0
 13 21  1  0  0  0  0
 13 15  2  0  0  0  0
 14 22  1  0  0  0  0
 15  3  1  0  0  0  0
 16 10  1  0  0  0  0
 18 17  1  6  0  0  0
 18 23  1  0  0  0  0
 18  5  1  0  0  0  0
 19  4  2  0  0  0  0
 20  1  1  0  0  0  0
 20  9  2  0  0  0  0
 21  8  2  0  0  0  0
 22 12  2  0  0  0  0
 23 24  1  0  0  0  0
 24 16  2  0  0  0  0
 24 20  1  0  0  0  0
 25 19  1  0  0  0  0
 26 25  1  0  0  0  0
 27 28  1  0  0  0  0
 28 26  1  0  0  0  0
 29 30  1  0  0  0  0
 29 13  1  0  0  0  0
 30 31  1  0  0  0  0
 31 32  1  0  0  0  0
 33 32  1  6  0  0  0
 33 37  1  0  0  0  0
 33 36  1  0  0  0  0
 34 35  1  0  0  0  0
 36 35  1  0  0  0  0
 37 34  1  0  0  0  0
M  END
>  <MODEL>
3

>  <REMARK>
 VINA RESULT:      -8.0      1.035      1.414
  Name = 
  8 active torsions:
  status: ('A' for Active; 'I' for Inactive)
    1  A    between atoms: C_5  and  C_30
    2  A    between atoms: C_8  and  C_16
    3  A    between atoms: C_8  and  C_29
    4  A    between atoms: N_11  and  C_30
    5  A    between atoms: N_11  and  N_34
    6  A    between atoms: C_16  and  O_33
    7  A    between atoms: C_20  and  C_22
    8  A    between atoms: C_20  and  N_34
                            x       y       z     vdW  Elec       q    Type
                         _______ _______ _______ _____ _____    ______ ____

>  <TORSDO>
F 8

$$$$
=
 OpenBabel11052410483D

 37 41  0  0  1  0  0  0  0  0999 V2000
  160.5570  201.5520  150.5780 C   0  0  0  0  0  2  0  0  0  0  0  0
  161.6290  209.9860  153.7440 O   0  0  0  0  0  0  0  0  0  0  0  0
  161.6550  209.6850  152.5200 C   0  0  0  0  0  0  0  0  0  0  0  0
  161.1030  203.2030  146.5160 C   0  0  0  0  0  0  0  0  0  0  0  0
  161.5840  200.4540  148.6330 C   0  0  0  0  0  3  0  0  0  0  0  0
  161.4840  207.3670  149.4960 S   0  0  0  0  0  0  0  0  0  0  0  0
  161.5710  200.6450  149.9540 C   0  0  0  0  0  3  0  0  0  0  0  0
  161.5050  208.3960  152.0020 C   0  0  0  0  0  0  0  0  0  0  0  0
  160.8890  203.8680  151.3290 C   0  0  0  0  0  3  0  0  0  0  0  0
  161.2280  205.7460  149.8670 C   0  0  0  0  0  0  0  0  0  0  0  0
  161.0960  205.2420  151.1740 C   0  0  0  0  0  0  0  0  0  0  0  0
  161.2570  207.3810  154.0320 O   0  0  0  0  0  0  0  0  0  0  0  0
  161.8030  209.8950  150.4240 C   0  0  0  0  0  0  0  0  0  0  0  0
  161.1420  205.9590  152.3300 N   0  0  0  0  0  2  0  0  0  0  0  0
  161.8320  210.6090  151.5590 N   0  0  0  0  0  0  0  0  0  0  0  0
  161.1500  204.8780  148.7770 C   0  0  0  0  0  3  0  0  0  0  0  0
  160.5250  200.4470  146.4090 C   0  0  0  0  0  1  0  0  0  0  0  0
  160.5930  201.1540  147.7580 C   0  0  2  0  0  3  0  0  0  0  0  0
  161.3200  203.7630  145.3580 C   0  0  0  0  0  3  0  0  0  0  0  0
  160.8150  202.9910  150.2450 C   0  0  0  0  0  0  0  0  0  0  0  0
  161.5970  208.5520  150.6870 C   0  0  0  0  0  0  0  0  0  0  0  0
  161.3010  207.2350  152.7810 C   0  0  0  0  0  0  0  0  0  0  0  0
  160.8880  202.6430  147.6870 C   0  0  0  0  0  0  0  0  0  0  0  0
  160.9390  203.4970  148.9240 C   0  0  0  0  0  0  0  0  0  0  0  0
  162.6950  204.1820  144.9850 C   0  0  0  0  0  2  0  0  0  0  0  0
  162.7750  205.6950  144.9720 C   0  0  0  0  0  2  0  0  0  0  0  0
  160.7870  206.5310  145.4330 C   0  0  0  0  0  1  0  0  0  0  0  0
  162.0120  206.2110  146.0180 O   0  0  0  0  0  0  0  0  0  0  0  0
  161.9170  210.5130  149.0720 C   0  0  0  0  0  2  0  0  0  0  0  0
  161.9460  211.9590  149.1960 N   0  0  0  0  0  2  0  0  0  0  0  0
  162.7250  212.4380  148.1360 N   0  0  0  0  0  2  0  0  0  0  0  0
  162.3780  213.8380  147.9620 C   0  0  0  0  0  2  0  0  0  0  0  0
  161.9240  214.0830  146.5360 C   0  0  2  0  0  3  0  0  0  0  0  0
  161.9050  213.1430  144.4480 N   0  0  0  0  0  2  0  0  0  0  0  0
  160.5510  212.7990  144.8500 C   0  0  0  0  0  2  0  0  0  0  0  0
  160.1690  213.6830  146.3830 S   0  0  0  0  0  0  0  0  0  0  0  0
  162.6660  213.2280  145.6240 N   0  0  0  0  0  2  0  0  0  0  0  0
  3  2  2  0  0  0  0
  4 23  2  0  0  0  0
  5  7  2  0  0  0  0
  6 10  1  0  0  0  0
  6 21  1  0  0  0  0
  7  1  1  0  0  0  0
  8  3  1  0  0  0  0
  8 22  1  0  0  0  0
 10 11  2  0  0  0  0
 11  9  1  0  0  0  0
 11 14  1  0  0  0  0
 13 21  1  0  0  0  0
 13 15  2  0  0  0  0
 14 22  1  0  0  0  0
 15  3  1  0  0  0  0
 16 24  2  0  0  0  0
 16 10  1  0  0  0  0
 18 17  1  6  0  0  0
 18  5  1  0  0  0  0
 19  4  2  0  0  0  0
 20  1  1  0  0  0  0
 20  9  2  0  0  0  0
 21  8  2  0  0  0  0
 22 12  2  0  0  0  0
 23 18  1  0  0  0  0
 23 24  1  0  0  0  0
 24 20  1  0  0  0  0
 25 19  1  0  0  0  0
 26 25  1  0  0  0  0
 26 28  1  0  0  0  0
 27 28  1  0  0  0  0
 29 30  1  0  0  0  0
 29 13  1  0  0  0  0
 31 30  1  0  0  0  0
 32 31  1  0  0  0  0
 33 32  1  1  0  0  0
 34 35  1  0  0  0  0
 34 37  1  0  0  0  0
 35 36  1  0  0  0  0
 36 33  1  0  0  0  0
 37 33  1  0  0  0  0
M  END
>  <MODEL>
4

>  <REMARK>
 VINA RESULT:      -7.5      3.355      5.019
  Name = 
  8 active torsions:
  status: ('A' for Active; 'I' for Inactive)
    1  A    between atoms: C_5  and  C_30
    2  A    between atoms: C_8  and  C_16
    3  A    between atoms: C_8  and  C_29
    4  A    between atoms: N_11  and  C_30
    5  A    between atoms: N_11  and  N_34
    6  A    between atoms: C_16  and  O_33
    7  A    between atoms: C_20  and  C_22
    8  A    between atoms: C_20  and  N_34
                            x       y       z     vdW  Elec       q    Type
                         _______ _______ _______ _____ _____    ______ ____

>  <TORSDO>
F 8

$$$$
=
 OpenBabel11052410483D

 37 41  0  0  1  0  0  0  0  0999 V2000
  160.6540  201.4650  150.5070 C   0  0  0  0  0  2  0  0  0  0  0  0
  161.1820  209.0540  155.4500 O   0  0  0  0  0  0  0  0  0  0  0  0
  161.1770  209.0350  154.1900 C   0  0  0  0  0  0  0  0  0  0  0  0
  160.8790  204.0130  146.9050 C   0  0  0  0  0  0  0  0  0  0  0  0
  161.6770  200.9190  148.3400 C   0  0  0  0  0  3  0  0  0  0  0  0
  161.0570  207.4350  150.7300 S   0  0  0  0  0  0  0  0  0  0  0  0
  161.7090  200.8120  149.6700 C   0  0  0  0  0  3  0  0  0  0  0  0
  161.1090  207.8830  153.4010 C   0  0  0  0  0  0  0  0  0  0  0  0
  160.8320  203.5790  151.7490 C   0  0  0  0  0  3  0  0  0  0  0  0
  160.9500  205.7560  150.7360 C   0  0  0  0  0  0  0  0  0  0  0  0
  160.9190  204.9660  151.9000 C   0  0  0  0  0  0  0  0  0  0  0  0
  161.0350  206.4280  155.1580 O   0  0  0  0  0  0  0  0  0  0  0  0
  161.2120  209.7140  152.1910 C   0  0  0  0  0  0  0  0  0  0  0  0
  160.9590  205.4110  153.1850 N   0  0  0  0  0  2  0  0  0  0  0  0
  161.2340  210.1600  153.4550 N   0  0  0  0  0  0  0  0  0  0  0  0
  160.8930  205.1460  149.4810 C   0  0  0  0  0  3  0  0  0  0  0  0
  160.5230  201.3080  146.2000 C   0  0  0  0  0  1  0  0  0  0  0  0
  160.5940  201.7040  147.6700 C   0  0  2  0  0  3  0  0  0  0  0  0
  160.9970  204.8310  145.8970 C   0  0  0  0  0  3  0  0  0  0  0  0
  160.7790  202.9600  150.4990 C   0  0  0  0  0  0  0  0  0  0  0  0
  161.1270  208.3330  152.1520 C   0  0  0  0  0  0  0  0  0  0  0  0
  161.0340  206.5660  153.9050 C   0  0  0  0  0  0  0  0  0  0  0  0
  160.7640  203.1920  147.9260 C   0  0  0  0  0  0  0  0  0  0  0  0
  160.8020  203.7540  149.3210 C   0  0  0  0  0  0  0  0  0  0  0  0
  162.3160  205.4440  145.5900 C   0  0  0  0  0  2  0  0  0  0  0  0
  162.8530  206.1300  146.8290 C   0  0  0  0  0  2  0  0  0  0  0  0
  162.7060  207.8770  148.1670 C   0  0  0  0  0  1  0  0  0  0  0  0
  162.0030  207.1760  147.1890 O   0  0  0  0  0  0  0  0  0  0  0  0
  161.2140  210.6230  151.0080 C   0  0  0  0  0  2  0  0  0  0  0  0
  162.4980  210.5470  150.3350 N   0  0  0  0  0  2  0  0  0  0  0  0
  162.3310  211.1450  149.0810 N   0  0  0  0  0  2  0  0  0  0  0  0
  161.3590  212.2120  149.2530 C   0  0  0  0  0  2  0  0  0  0  0  0
  161.4210  213.1590  148.0700 C   0  0  2  0  0  3  0  0  0  0  0  0
  162.3330  213.4060  145.9840 N   0  0  0  0  0  2  0  0  0  0  0  0
  161.0100  212.9510  145.5870 C   0  0  0  0  0  2  0  0  0  0  0  0
  159.9440  212.9510  147.0500 S   0  0  0  0  0  0  0  0  0  0  0  0
  162.5840  212.8590  147.2510 N   0  0  0  0  0  2  0  0  0  0  0  0
  3  2  2  0  0  0  0
  4 23  2  0  0  0  0
  5  7  2  0  0  0  0
  6 10  1  0  0  0  0
  6 21  1  0  0  0  0
  7  1  1  0  0  0  0
  8 22  1  0  0  0  0
  8  3  1  0  0  0  0
  9 11  1  0  0  0  0
 10 11  2  0  0  0  0
 11 14  1  0  0  0  0
 13 15  2  0  0  0  0
 14 22  1  0  0  0  0
 15  3  1  0  0  0  0
 16 10  1  0  0  0  0
 18 17  1  6  0  0  0
 18 23  1  0  0  0  0
 18  5  1  0  0  0  0
 19  4  2  0  0  0  0
 20  1  1  0  0  0  0
 20  9  2  0  0  0  0
 21 13  1  0  0  0  0
 21  8  2  0  0  0  0
 22 12  2  0  0  0  0
 23 24  1  0  0  0  0
 24 16  2  0  0  0  0
 24 20  1  0  0  0  0
 25 19  1  0  0  0  0
 25 26  1  0  0  0  0
 26 28  1  0  0  0  0
 28 27  1  0  0  0  0
 29 13  1  0  0  0  0
 30 29  1  0  0  0  0
 31 32  1  0  0  0  0
 31 30  1  0  0  0  0
 33 32  1  1  0  0  0
 34 37  1  0  0  0  0
 35 34  1  0  0  0  0
 35 36  1  0  0  0  0
 36 33  1  0  0  0  0
 37 33  1  0  0  0  0
M  END
>  <MODEL>
5

>  <REMARK>
 VINA RESULT:      -7.4      2.801      4.260
  Name = 
  8 active torsions:
  status: ('A' for Active; 'I' for Inactive)
    1  A    between atoms: C_5  and  C_30
    2  A    between atoms: C_8  and  C_16
    3  A    between atoms: C_8  and  C_29
    4  A    between atoms: N_11  and  C_30
    5  A    between atoms: N_11  and  N_34
    6  A    between atoms: C_16  and  O_33
    7  A    between atoms: C_20  and  C_22
    8  A    between atoms: C_20  and  N_34
                            x       y       z     vdW  Elec       q    Type
                         _______ _______ _______ _____ _____    ______ ____

>  <TORSDO>
F 8

$$$$
=
 OpenBabel11052410483D

 37 41  0  0  1  0  0  0  0  0999 V2000
  161.0430  208.1400  156.6800 C   0  0  0  0  0  2  0  0  0  0  0  0
  161.1780  202.1210  149.8930 O   0  0  0  0  0  0  0  0  0  0  0  0
  161.0750  203.3660  149.7270 C   0  0  0  0  0  0  0  0  0  0  0  0
  160.5880  211.2990  153.6250 C   0  0  0  0  0  0  0  0  0  0  0  0
  159.8210  210.2630  156.8820 C   0  0  0  0  0  3  0  0  0  0  0  0
  160.8470  207.0190  150.8010 S   0  0  0  0  0  0  0  0  0  0  0  0
  159.9000  208.9650  157.1830 C   0  0  0  0  0  3  0  0  0  0  0  0
  161.0390  204.3170  150.7510 C   0  0  0  0  0  0  0  0  0  0  0  0
  161.0390  206.5940  154.7690 C   0  0  0  0  0  3  0  0  0  0  0  0
  160.9010  207.2660  152.4650 C   0  0  0  0  0  0  0  0  0  0  0  0
  161.0080  206.2360  153.4180 C   0  0  0  0  0  0  0  0  0  0  0  0
  161.2180  202.8030  152.4500 O   0  0  0  0  0  0  0  0  0  0  0  0
  160.8890  205.2340  148.7600 C   0  0  0  0  0  0  0  0  0  0  0  0
  161.0930  204.9020  153.1660 N   0  0  0  0  0  2  0  0  0  0  0  0
  160.9890  203.9210  148.5050 N   0  0  0  0  0  0  0  0  0  0  0  0
  160.8310  208.5950  152.8840 C   0  0  0  0  0  3  0  0  0  0  0  0
  160.7990  212.4190  156.2030 C   0  0  0  0  0  1  0  0  0  0  0  0
  160.8670  210.9060  156.0260 C   0  0  2  0  0  3  0  0  0  0  0  0
  160.4090  212.1640  152.6650 C   0  0  0  0  0  3  0  0  0  0  0  0
  160.9640  207.9200  155.1980 C   0  0  0  0  0  0  0  0  0  0  0  0
  160.9270  205.4800  150.1220 C   0  0  0  0  0  0  0  0  0  0  0  0
  161.1150  204.0180  152.1290 C   0  0  0  0  0  0  0  0  0  0  0  0
  160.7660  210.4230  154.5890 C   0  0  0  0  0  0  0  0  0  0  0  0
  160.8650  208.9630  154.2390 C   0  0  0  0  0  0  0  0  0  0  0  0
  159.0890  212.2590  151.9900 C   0  0  0  0  0  2  0  0  0  0  0  0
  158.0170  212.5530  153.0190 C   0  0  0  0  0  2  0  0  0  0  0  0
  158.0450  214.3870  154.2440 C   0  0  0  0  0  1  0  0  0  0  0  0
  157.6940  213.9090  152.9820 O   0  0  0  0  0  0  0  0  0  0  0  0
  160.8130  206.2670  147.6870 C   0  0  0  0  0  2  0  0  0  0  0  0
  162.1540  206.6450  147.2760 N   0  0  0  0  0  2  0  0  0  0  0  0
  162.3090  206.2040  145.9570 N   0  0  0  0  0  2  0  0  0  0  0  0
  162.8510  204.8580  146.0290 C   0  0  0  0  0  2  0  0  0  0  0  0
  162.1120  203.9540  145.0610 C   0  0  2  0  0  3  0  0  0  0  0  0
  160.4560  202.3750  144.9510 N   0  0  0  0  0  2  0  0  0  0  0  0
  159.6850  203.5260  144.5100 C   0  0  0  0  0  2  0  0  0  0  0  0
  160.8270  204.8980  144.2120 S   0  0  0  0  0  0  0  0  0  0  0  0
  161.4730  202.8670  145.7840 N   0  0  0  0  0  2  0  0  0  0  0  0
  1  7  1  0  0  0  0
  3  2  2  0  0  0  0
  3  8  1  0  0  0  0
  4 23  2  0  0  0  0
  5  7  2  0  0  0  0
  6 10  1  0  0  0  0
  8 22  1  0  0  0  0
  9 20  1  0  0  0  0
 10 16  2  0  0  0  0
 10 11  1  0  0  0  0
 11  9  2  0  0  0  0
 13 21  1  0  0  0  0
 14 11  1  0  0  0  0
 15 13  2  0  0  0  0
 15  3  1  0  0  0  0
 16 24  1  0  0  0  0
 18 17  1  6  0  0  0
 18  5  1  0  0  0  0
 19  4  2  0  0  0  0
 20  1  1  0  0  0  0
 21  8  2  0  0  0  0
 21  6  1  0  0  0  0
 22 12  2  0  0  0  0
 22 14  1  0  0  0  0
 23 18  1  0  0  0  0
 24 23  1  0  0  0  0
 24 20  2  0  0  0  0
 25 19  1  0  0  0  0
 25 26  1  0  0  0  0
 28 26  1  0  0  0  0
 28 27  1  0  0  0  0
 29 13  1  0  0  0  0
 30 29  1  0  0  0  0
 31 32  1  0  0  0  0
 31 30  1  0  0  0  0
 33 37  1  0  0  0  0
 33 32  1  1  0  0  0
 34 37  1  0  0  0  0
 35 34  1  0  0  0  0
 36 35  1  0  0  0  0
 36 33  1  0  0  0  0
M  END
>  <MODEL>
6

>  <REMARK>
 VINA RESULT:      -7.3      4.243      8.899
  Name = 
  8 active torsions:
  status: ('A' for Active; 'I' for Inactive)
    1  A    between atoms: C_5  and  C_30
    2  A    between atoms: C_8  and  C_16
    3  A    between atoms: C_8  and  C_29
    4  A    between atoms: N_11  and  C_30
    5  A    between atoms: N_11  and  N_34
    6  A    between atoms: C_16  and  O_33
    7  A    between atoms: C_20  and  C_22
    8  A    between atoms: C_20  and  N_34
                            x       y       z     vdW  Elec       q    Type
                         _______ _______ _______ _____ _____    ______ ____

>  <TORSDO>
F 8

$$$$
=
 OpenBabel11052410483D

 37 41  0  0  1  0  0  0  0  0999 V2000
  161.2100  204.4250  144.7910 C   0  0  0  0  0  2  0  0  0  0  0  0
  162.0150  211.2640  150.6970 O   0  0  0  0  0  0  0  0  0  0  0  0
  161.9460  210.0510  151.0310 C   0  0  0  0  0  0  0  0  0  0  0  0
  161.1320  201.6850  148.2550 C   0  0  0  0  0  0  0  0  0  0  0  0
  159.9990  202.2960  144.9970 C   0  0  0  0  0  3  0  0  0  0  0  0
  161.6460  206.2920  150.4630 S   0  0  0  0  0  0  0  0  0  0  0  0
  160.0290  203.5450  144.5260 C   0  0  0  0  0  3  0  0  0  0  0  0
  161.8100  208.9770  150.1470 C   0  0  0  0  0  0  0  0  0  0  0  0
  161.3960  206.2030  146.4770 C   0  0  0  0  0  3  0  0  0  0  0  0
  161.5210  205.8330  148.8490 C   0  0  0  0  0  0  0  0  0  0  0  0
  161.5100  206.7320  147.7660 C   0  0  0  0  0  0  0  0  0  0  0  0
  161.7820  210.2600  148.2590 O   0  0  0  0  0  0  0  0  0  0  0  0
  161.8900  208.3230  152.2420 C   0  0  0  0  0  0  0  0  0  0  0  0
  161.6050  208.0870  147.8350 N   0  0  0  0  0  2  0  0  0  0  0  0
  162.0020  209.6580  152.3150 N   0  0  0  0  0  0  0  0  0  0  0  0
  161.4220  204.4610  148.6130 C   0  0  0  0  0  3  0  0  0  0  0  0
  161.0720  200.2430  145.8340 C   0  0  0  0  0  1  0  0  0  0  0  0
  161.1400  201.7660  145.8070 C   0  0  2  0  0  3  0  0  0  0  0  0
  161.0700  200.9510  149.3310 C   0  0  0  0  0  3  0  0  0  0  0  0
  161.2910  204.8330  146.2320 C   0  0  0  0  0  0  0  0  0  0  0  0
  161.7820  207.9050  150.9280 C   0  0  0  0  0  0  0  0  0  0  0  0
  161.7300  209.0970  148.7410 C   0  0  0  0  0  0  0  0  0  0  0  0
  161.1920  202.4300  147.1730 C   0  0  0  0  0  0  0  0  0  0  0  0
  161.3110  203.9220  147.3210 C   0  0  0  0  0  0  0  0  0  0  0  0
  159.8330  200.9460  150.1540 C   0  0  0  0  0  2  0  0  0  0  0  0
  159.7610  202.2240  150.9640 C   0  0  0  0  0  2  0  0  0  0  0  0
  160.8420  203.6190  152.2850 C   0  0  0  0  0  1  0  0  0  0  0  0
  160.8800  202.3170  151.7900 O   0  0  0  0  0  0  0  0  0  0  0  0
  161.9460  207.4360  153.4400 C   0  0  0  0  0  2  0  0  0  0  0  0
  160.6070  207.2440  153.9690 N   0  0  0  0  0  2  0  0  0  0  0  0
  160.7460  207.0160  155.3430 N   0  0  0  0  0  2  0  0  0  0  0  0
  159.8660  207.9570  156.0140 C   0  0  0  0  0  2  0  0  0  0  0  0
  160.6890  209.0240  156.7090 C   0  0  2  0  0  3  0  0  0  0  0  0
  162.8450  209.6930  157.0980 N   0  0  0  0  0  2  0  0  0  0  0  0
  162.5310  210.6030  156.0090 C   0  0  0  0  0  2  0  0  0  0  0  0
  160.7550  210.5060  155.6770 S   0  0  0  0  0  0  0  0  0  0  0  0
  162.0490  208.5520  156.9110 N   0  0  0  0  0  2  0  0  0  0  0  0
  1 20  1  0  0  0  0
  2  3  2  0  0  0  0
  3 15  1  0  0  0  0
  4 19  2  0  0  0  0
  5 18  1  0  0  0  0
  6 21  1  0  0  0  0
  7  1  1  0  0  0  0
  7  5  2  0  0  0  0
  8 21  2  0  0  0  0
  8  3  1  0  0  0  0
  9 11  1  0  0  0  0
 10  6  1  0  0  0  0
 11 14  1  0  0  0  0
 11 10  2  0  0  0  0
 12 22  2  0  0  0  0
 13 15  2  0  0  0  0
 13 29  1  0  0  0  0
 14 22  1  0  0  0  0
 16 10  1  0  0  0  0
 18 17  1  1  0  0  0
 18 23  1  0  0  0  0
 19 25  1  0  0  0  0
 20  9  2  0  0  0  0
 20 24  1  0  0  0  0
 21 13  1  0  0  0  0
 22  8  1  0  0  0  0
 23 24  1  0  0  0  0
 23  4  2  0  0  0  0
 24 16  2  0  0  0  0
 25 26  1  0  0  0  0
 26 28  1  0  0  0  0
 28 27  1  0  0  0  0
 29 30  1  0  0  0  0
 30 31  1  0  0  0  0
 31 32  1  0  0  0  0
 33 32  1  6  0  0  0
 33 37  1  0  0  0  0
 35 34  1  0  0  0  0
 36 35  1  0  0  0  0
 36 33  1  0  0  0  0
 37 34  1  0  0  0  0
M  END
>  <MODEL>
7

>  <REMARK>
 VINA RESULT:      -7.2      3.193      5.610
  Name = 
  8 active torsions:
  status: ('A' for Active; 'I' for Inactive)
    1  A    between atoms: C_5  and  C_30
    2  A    between atoms: C_8  and  C_16
    3  A    between atoms: C_8  and  C_29
    4  A    between atoms: N_11  and  C_30
    5  A    between atoms: N_11  and  N_34
    6  A    between atoms: C_16  and  O_33
    7  A    between atoms: C_20  and  C_22
    8  A    between atoms: C_20  and  N_34
                            x       y       z     vdW  Elec       q    Type
                         _______ _______ _______ _____ _____    ______ ____

>  <TORSDO>
F 8

$$$$
=
 OpenBabel11052410483D

 37 41  0  0  1  0  0  0  0  0999 V2000
  160.8070  201.7730  151.2260 C   0  0  0  0  0  2  0  0  0  0  0  0
  161.2740  209.3250  156.2300 O   0  0  0  0  0  0  0  0  0  0  0  0
  161.2550  209.3170  154.9700 C   0  0  0  0  0  0  0  0  0  0  0  0
  160.9550  204.3560  147.6440 C   0  0  0  0  0  0  0  0  0  0  0  0
  161.8150  201.2610  149.0430 C   0  0  0  0  0  3  0  0  0  0  0  0
  161.1220  207.7460  151.4970 S   0  0  0  0  0  0  0  0  0  0  0  0
  161.8630  201.1440  150.3710 C   0  0  0  0  0  3  0  0  0  0  0  0
  161.1960  208.1710  154.1720 C   0  0  0  0  0  0  0  0  0  0  0  0
  160.9660  203.8780  152.4840 C   0  0  0  0  0  3  0  0  0  0  0  0
  161.0410  206.0650  151.4890 C   0  0  0  0  0  0  0  0  0  0  0  0
  161.0340  205.2650  152.6470 C   0  0  0  0  0  0  0  0  0  0  0  0
  161.1640  206.7000  155.9160 O   0  0  0  0  0  0  0  0  0  0  0  0
  161.2580  210.0140  152.9770 C   0  0  0  0  0  0  0  0  0  0  0  0
  161.0810  205.6990  153.9350 N   0  0  0  0  0  2  0  0  0  0  0  0
  161.2880  210.4490  154.2450 N   0  0  0  0  0  0  0  0  0  0  0  0
  160.9790  205.4650  150.2300 C   0  0  0  0  0  3  0  0  0  0  0  0
  160.6320  201.6520  146.9180 C   0  0  0  0  0  1  0  0  0  0  0  0
  160.7130  202.0360  148.3910 C   0  0  2  0  0  3  0  0  0  0  0  0
  161.0500  205.1840  146.6420 C   0  0  0  0  0  3  0  0  0  0  0  0
  160.9100  203.2690  151.2290 C   0  0  0  0  0  0  0  0  0  0  0  0
  161.1940  208.6320  152.9270 C   0  0  0  0  0  0  0  0  0  0  0  0
  161.1470  206.8480  154.6650 C   0  0  0  0  0  0  0  0  0  0  0  0
  160.8630  203.5240  148.6590 C   0  0  0  0  0  0  0  0  0  0  0  0
  160.9080  204.0740  150.0590 C   0  0  0  0  0  0  0  0  0  0  0  0
  162.3560  205.8190  146.3270 C   0  0  0  0  0  2  0  0  0  0  0  0
  162.6290  205.7000  144.8420 C   0  0  0  0  0  2  0  0  0  0  0  0
  161.6650  205.7280  142.8580 C   0  0  0  0  0  1  0  0  0  0  0  0
  161.4580  205.3340  144.1790 O   0  0  0  0  0  0  0  0  0  0  0  0
  161.2340  210.9330  151.8030 C   0  0  0  0  0  2  0  0  0  0  0  0
  159.9030  211.4930  151.6470 N   0  0  0  0  0  2  0  0  0  0  0  0
  159.8480  212.6310  152.4590 N   0  0  0  0  0  2  0  0  0  0  0  0
  158.4480  212.8490  152.7780 C   0  0  0  0  0  2  0  0  0  0  0  0
  158.1230  212.2230  154.1200 C   0  0  2  0  0  3  0  0  0  0  0  0
  158.2610  212.5850  156.3770 N   0  0  0  0  0  2  0  0  0  0  0  0
  156.8700  212.9620  156.1840 C   0  0  0  0  0  2  0  0  0  0  0  0
  156.3780  212.4920  154.5080 S   0  0  0  0  0  0  0  0  0  0  0  0
  158.9200  212.8420  155.1650 N   0  0  0  0  0  2  0  0  0  0  0  0
  1 20  1  0  0  0  0
  3  2  2  0  0  0  0
  4 23  2  0  0  0  0
  5  7  2  0  0  0  0
  6 21  1  0  0  0  0
  7  1  1  0  0  0  0
  8 22  1  0  0  0  0
  8  3  1  0  0  0  0
  9 11  1  0  0  0  0
 10  6  1  0  0  0  0
 10 11  2  0  0  0  0
 11 14  1  0  0  0  0
 13 15  2  0  0  0  0
 14 22  1  0  0  0  0
 15  3  1  0  0  0  0
 16 10  1  0  0  0  0
 18 17  1  6  0  0  0
 18 23  1  0  0  0  0
 18  5  1  0  0  0  0
 19  4  2  0  0  0  0
 20  9  2  0  0  0  0
 21 13  1  0  0  0  0
 21  8  2  0  0  0  0
 22 12  2  0  0  0  0
 23 24  1  0  0  0  0
 24 16  2  0  0  0  0
 24 20  1  0  0  0  0
 25 19  1  0  0  0  0
 26 25  1  0  0  0  0
 27 28  1  0  0  0  0
 28 26  1  0  0  0  0
 29 13  1  0  0  0  0
 30 29  1  0  0  0  0
 30 31  1  0  0  0  0
 31 32  1  0  0  0  0
 33 32  1  6  0  0  0
 33 36  1  0  0  0  0
 33 37  1  0  0  0  0
 35 34  1  0  0  0  0
 36 35  1  0  0  0  0
 37 34  1  0  0  0  0
M  END
>  <MODEL>
8

>  <REMARK>
 VINA RESULT:      -6.5      1.684      2.096
  Name = 
  8 active torsions:
  status: ('A' for Active; 'I' for Inactive)
    1  A    between atoms: C_5  and  C_30
    2  A    between atoms: C_8  and  C_16
    3  A    between atoms: C_8  and  C_29
    4  A    between atoms: N_11  and  C_30
    5  A    between atoms: N_11  and  N_34
    6  A    between atoms: C_16  and  O_33
    7  A    between atoms: C_20  and  C_22
    8  A    between atoms: C_20  and  N_34
                            x       y       z     vdW  Elec       q    Type
                         _______ _______ _______ _____ _____    ______ ____

>  <TORSDO>
F 8

$$$$
=
 OpenBabel11052410483D

 37 41  0  0  1  0  0  0  0  0999 V2000
  161.0990  206.4830  153.8390 C   0  0  0  0  0  2  0  0  0  0  0  0
  160.9380  201.3060  146.3910 O   0  0  0  0  0  0  0  0  0  0  0  0
  161.1950  202.5390  146.3850 C   0  0  0  0  0  0  0  0  0  0  0  0
  162.0640  209.9050  151.2170 C   0  0  0  0  0  0  0  0  0  0  0  0
  160.4560  208.8360  154.1400 C   0  0  0  0  0  3  0  0  0  0  0  0
  161.7270  205.9970  147.9050 S   0  0  0  0  0  0  0  0  0  0  0  0
  160.1370  207.5460  154.2670 C   0  0  0  0  0  3  0  0  0  0  0  0
  161.2160  203.3650  147.5120 C   0  0  0  0  0  0  0  0  0  0  0  0
  161.0520  205.1790  151.7570 C   0  0  0  0  0  3  0  0  0  0  0  0
  161.5300  206.0670  149.5740 C   0  0  0  0  0  0  0  0  0  0  0  0
  161.1850  204.9670  150.3810 C   0  0  0  0  0  0  0  0  0  0  0  0
  160.6720  201.7160  148.9920 O   0  0  0  0  0  0  0  0  0  0  0  0
  161.6870  204.4640  145.6690 C   0  0  0  0  0  0  0  0  0  0  0  0
  160.9650  203.6910  149.9630 N   0  0  0  0  0  2  0  0  0  0  0  0
  161.4880  203.2040  145.2530 N   0  0  0  0  0  0  0  0  0  0  0  0
  161.7310  207.3200  150.1580 C   0  0  0  0  0  3  0  0  0  0  0  0
  162.0700  210.6830  153.9260 C   0  0  0  0  0  1  0  0  0  0  0  0
  161.7750  209.2350  153.5560 C   0  0  2  0  0  3  0  0  0  0  0  0
  162.3010  210.8680  150.3700 C   0  0  0  0  0  3  0  0  0  0  0  0
  161.2460  206.4290  152.3480 C   0  0  0  0  0  0  0  0  0  0  0  0
  161.5310  204.5650  147.0400 C   0  0  0  0  0  0  0  0  0  0  0  0
  160.9510  202.9340  148.8310 C   0  0  0  0  0  0  0  0  0  0  0  0
  161.8230  208.9300  152.0670 C   0  0  0  0  0  0  0  0  0  0  0  0
  161.6040  207.5400  151.5390 C   0  0  0  0  0  0  0  0  0  0  0  0
  161.2010  211.3900  149.5170 C   0  0  0  0  0  2  0  0  0  0  0  0
  161.7110  212.5560  148.6960 C   0  0  0  0  0  2  0  0  0  0  0  0
  160.4920  212.2040  146.8930 C   0  0  0  0  0  1  0  0  0  0  0  0
  161.8060  212.1790  147.3580 O   0  0  0  0  0  0  0  0  0  0  0  0
  162.0860  205.5690  144.7500 C   0  0  0  0  0  2  0  0  0  0  0  0
  161.1790  205.6150  143.6170 N   0  0  0  0  0  2  0  0  0  0  0  0
  161.9740  205.7460  142.4720 N   0  0  0  0  0  2  0  0  0  0  0  0
  161.5290  206.9490  141.7900 C   0  0  0  0  0  2  0  0  0  0  0  0
  162.3210  207.1380  140.5110 C   0  0  2  0  0  3  0  0  0  0  0  0
  162.5370  206.3510  138.3720 N   0  0  0  0  0  2  0  0  0  0  0  0
  161.7390  207.5310  138.0860 C   0  0  0  0  0  2  0  0  0  0  0  0
  161.6530  208.5390  139.5860 S   0  0  0  0  0  0  0  0  0  0  0  0
  162.2140  205.9520  139.6780 N   0  0  0  0  0  2  0  0  0  0  0  0
  1  7  1  0  0  0  0
  3  2  2  0  0  0  0
  3  8  1  0  0  0  0
  4 23  2  0  0  0  0
  5  7  2  0  0  0  0
  6 10  1  0  0  0  0
  8 22  1  0  0  0  0
  9 20  1  0  0  0  0
 10 16  2  0  0  0  0
 10 11  1  0  0  0  0
 11  9  2  0  0  0  0
 13 21  1  0  0  0  0
 14 11  1  0  0  0  0
 15 13  2  0  0  0  0
 15  3  1  0  0  0  0
 16 24  1  0  0  0  0
 18 17  1  6  0  0  0
 18  5  1  0  0  0  0
 19  4  2  0  0  0  0
 20  1  1  0  0  0  0
 21  8  2  0  0  0  0
 21  6  1  0  0  0  0
 22 12  2  0  0  0  0
 22 14  1  0  0  0  0
 23 18  1  0  0  0  0
 24 23  1  0  0  0  0
 24 20  2  0  0  0  0
 25 19  1  0  0  0  0
 26 25  1  0  0  0  0
 27 28  1  0  0  0  0
 28 26  1  0  0  0  0
 29 13  1  0  0  0  0
 30 29  1  0  0  0  0
 31 30  1  0  0  0  0
 32 31  1  0  0  0  0
 33 32  1  1  0  0  0
 34 37  1  0  0  0  0
 35 34  1  0  0  0  0
 35 36  1  0  0  0  0
 36 33  1  0  0  0  0
 37 33  1  0  0  0  0
M  END
>  <MODEL>
9

>  <REMARK>
 VINA RESULT:      -6.4      6.165      9.873
  Name = 
  8 active torsions:
  status: ('A' for Active; 'I' for Inactive)
    1  A    between atoms: C_5  and  C_30
    2  A    between atoms: C_8  and  C_16
    3  A    between atoms: C_8  and  C_29
    4  A    between atoms: N_11  and  C_30
    5  A    between atoms: N_11  and  N_34
    6  A    between atoms: C_16  and  O_33
    7  A    between atoms: C_20  and  C_22
    8  A    between atoms: C_20  and  N_34
                            x       y       z     vdW  Elec       q    Type
                         _______ _______ _______ _____ _____    ______ ____

>  <TORSDO>
F 8

$$$$
