=
 OpenBabel11042422383D

 33 38  0  0  1  0  0  0  0  0999 V2000
  161.2170  206.2950  150.7770 C   0  0  0  0  0  0  0  0  0  0  0  0
  161.7450  207.7210  148.8720 C   0  0  0  0  0  3  0  0  0  0  0  0
  160.8650  203.9110  150.4540 C   0  0  0  0  0  0  0  0  0  0  0  0
  161.6400  205.4470  147.0730 C   0  0  0  0  0  3  0  0  0  0  0  0
  161.2160  202.0270  146.0770 O   0  0  0  0  0  0  0  0  0  0  0  0
  160.5800  202.6850  150.9620 N   0  0  0  0  0  0  0  0  0  0  0  0
  160.9240  205.0220  151.2930 C   0  0  0  0  0  3  0  0  0  0  0  0
  161.3970  205.3240  148.5320 C   0  0  0  0  0  0  0  0  0  0  0  0
  160.5190  201.5920  150.1550 C   0  0  0  0  0  3  0  0  0  0  0  0
  161.2760  203.0470  146.8150 C   0  0  0  0  0  0  0  0  0  0  0  0
  161.4560  206.4480  149.3830 C   0  0  0  0  0  0  0  0  0  0  0  0
  161.1000  204.0610  149.0760 C   0  0  0  0  0  0  0  0  0  0  0  0
  161.5640  208.6800  151.0830 C   0  0  0  0  0  3  0  0  0  0  0  0
  161.2780  207.4190  151.6280 C   0  0  0  0  0  0  0  0  0  0  0  0
  161.7970  208.8300  149.7170 C   0  0  0  0  0  3  0  0  0  0  0  0
  161.5880  204.3910  146.2520 C   0  0  0  0  0  0  0  0  0  0  0  0
  160.7440  201.7130  148.8190 N   0  0  0  0  0  0  0  0  0  0  0  0
  161.0330  202.9200  148.2640 C   0  0  0  0  0  0  0  0  0  0  0  0
  161.1150  205.4470  144.0660 C   0  0  0  0  0  2  0  0  0  0  0  0
  161.8480  204.6390  144.8220 C   0  0  0  0  0  3  0  0  0  0  0  0
  161.8630  206.2060  153.7590 C   0  0  0  0  0  1  0  0  0  0  0  0
  161.0080  207.2860  153.1050 C   0  0  1  0  0  3  0  0  0  0  0  0
  159.7980  210.1480  154.7330 N   0  0  0  0  0  0  0  0  0  0  0  0
  159.8670  209.3430  153.6420 O   0  0  0  0  0  0  0  0  0  0  0  0
  161.2830  208.4880  155.3380 C   0  0  0  0  0  2  0  0  0  0  0  0
  160.5080  209.6470  155.8900 C   0  0  0  0  0  2  0  0  0  0  0  0
  161.0630  208.6300  153.8350 C   0  0  1  0  0  3  0  0  0  0  0  0
  159.3370  213.7880  155.4970 C   0  0  0  0  0  3  0  0  0  0  0  0
  158.6490  214.2140  154.3580 C   0  0  0  0  0  3  0  0  0  0  0  0
  158.7240  211.9630  153.4710 C   0  0  0  0  0  3  0  0  0  0  0  0
  158.3430  213.3020  153.3450 C   0  0  0  0  0  3  0  0  0  0  0  0
  159.4180  211.5260  154.6090 C   0  0  0  0  0  0  0  0  0  0  0  0
  159.7180  212.4490  155.6230 C   0  0  0  0  0  3  0  0  0  0  0  0
  1  7  1  0  0  0  0
  1 14  2  0  0  0  0
  2 11  2  0  0  0  0
  2 15  1  0  0  0  0
  3  6  1  0  0  0  0
  3  7  2  0  0  0  0
  4  8  1  0  0  0  0
  5 10  2  0  0  0  0
  8 12  2  0  0  0  0
  8 11  1  0  0  0  0
  9  6  2  0  0  0  0
 10 18  1  0  0  0  0
 11  1  1  0  0  0  0
 12  3  1  0  0  0  0
 13 14  1  0  0  0  0
 14 22  1  0  0  0  0
 15 13  2  0  0  0  0
 16 10  1  0  0  0  0
 16  4  2  0  0  0  0
 17  9  1  0  0  0  0
 18 17  2  0  0  0  0
 18 12  1  0  0  0  0
 19 20  2  0  0  0  0
 20 16  1  0  0  0  0
 22 21  1  1  0  0  0
 23 26  1  0  0  0  0
 24 27  1  0  0  0  0
 24 23  1  0  0  0  0
 25 26  1  0  0  0  0
 27 22  1  6  0  0  0
 27 25  1  0  0  0  0
 28 33  1  0  0  0  0
 29 28  2  0  0  0  0
 30 32  1  0  0  0  0
 31 30  2  0  0  0  0
 31 29  1  0  0  0  0
 32 23  1  0  0  0  0
 32 33  2  0  0  0  0
M  END
>  <MODEL>
1

>  <REMARK>
 VINA RESULT:     -10.6      0.000      0.000
  Name = 
  4 active torsions:
  status: ('A' for Active; 'I' for Inactive)
    1  A    between atoms: N_2  and  C_19
    2  A    between atoms: C_23  and  C_33
    3  A    between atoms: C_25  and  C_33
    4  A    between atoms: C_27  and  C_28
                            x       y       z     vdW  Elec       q    Type
                         _______ _______ _______ _____ _____    ______ ____

>  <TORSDO>
F 4

$$$$
=
 OpenBabel11042422383D

 33 38  0  0  1  0  0  0  0  0999 V2000
  161.4550  207.6630  150.8440 C   0  0  0  0  0  0  0  0  0  0  0  0
  161.8440  208.2970  148.5230 C   0  0  0  0  0  3  0  0  0  0  0  0
  161.0910  205.3300  151.4250 C   0  0  0  0  0  0  0  0  0  0  0  0
  161.6240  205.5320  147.6740 C   0  0  0  0  0  3  0  0  0  0  0  0
  161.1450  201.9920  148.0080 O   0  0  0  0  0  0  0  0  0  0  0  0
  160.8470  204.3750  152.3580 N   0  0  0  0  0  0  0  0  0  0  0  0
  161.2030  206.6670  151.8010 C   0  0  0  0  0  3  0  0  0  0  0  0
  161.4820  205.9470  149.0920 C   0  0  0  0  0  0  0  0  0  0  0  0
  160.7350  203.0660  152.0050 C   0  0  0  0  0  3  0  0  0  0  0  0
  161.2520  203.2070  148.3220 C   0  0  0  0  0  0  0  0  0  0  0  0
  161.5960  207.2990  149.4760 C   0  0  0  0  0  0  0  0  0  0  0  0
  161.2290  204.9690  150.0730 C   0  0  0  0  0  0  0  0  0  0  0  0
  161.8130  209.9900  150.2470 C   0  0  0  0  0  3  0  0  0  0  0  0
  161.5700  209.0160  151.2270 C   0  0  0  0  0  0  0  0  0  0  0  0
  161.9500  209.6340  148.9060 C   0  0  0  0  0  3  0  0  0  0  0  0
  161.5180  204.2520  147.2940 C   0  0  0  0  0  0  0  0  0  0  0  0
  160.8650  202.6940  150.7030 N   0  0  0  0  0  0  0  0  0  0  0  0
  161.1100  203.6150  149.7330 C   0  0  0  0  0  0  0  0  0  0  0  0
  160.9500  204.5310  144.9040 C   0  0  0  0  0  2  0  0  0  0  0  0
  161.6780  203.9640  145.8570 C   0  0  0  0  0  3  0  0  0  0  0  0
  162.6540  210.0940  153.2320 C   0  0  0  0  0  1  0  0  0  0  0  0
  161.4040  209.4280  152.6670 C   0  0  1  0  0  3  0  0  0  0  0  0
  159.1070  211.4450  154.3900 N   0  0  0  0  0  0  0  0  0  0  0  0
  159.8290  210.3010  154.2730 O   0  0  0  0  0  0  0  0  0  0  0  0
  160.2180  211.6690  152.3800 C   0  0  0  0  0  2  0  0  0  0  0  0
  159.3780  212.4270  153.3630 C   0  0  0  0  0  2  0  0  0  0  0  0
  160.1260  210.2380  152.9010 C   0  0  1  0  0  3  0  0  0  0  0  0
  155.5550  211.0250  155.5090 C   0  0  0  0  0  3  0  0  0  0  0  0
  155.6070  211.6040  156.7800 C   0  0  0  0  0  3  0  0  0  0  0  0
  157.9610  212.0720  156.4710 C   0  0  0  0  0  3  0  0  0  0  0  0
  156.8090  212.1270  157.2610 C   0  0  0  0  0  3  0  0  0  0  0  0
  157.9210  211.4900  155.1960 C   0  0  0  0  0  0  0  0  0  0  0  0
  156.7080  210.9690  154.7200 C   0  0  0  0  0  3  0  0  0  0  0  0
  1 14  1  0  0  0  0
  1  7  1  0  0  0  0
  2 15  2  0  0  0  0
  2 11  1  0  0  0  0
  3  7  2  0  0  0  0
  3  6  1  0  0  0  0
  4  8  1  0  0  0  0
  5 10  2  0  0  0  0
  8 11  1  0  0  0  0
  8 12  2  0  0  0  0
  9  6  2  0  0  0  0
 10 18  1  0  0  0  0
 11  1  2  0  0  0  0
 12  3  1  0  0  0  0
 13 14  2  0  0  0  0
 14 22  1  0  0  0  0
 15 13  1  0  0  0  0
 16  4  2  0  0  0  0
 16 10  1  0  0  0  0
 17  9  1  0  0  0  0
 18 12  1  0  0  0  0
 18 17  2  0  0  0  0
 19 20  2  0  0  0  0
 20 16  1  0  0  0  0
 22 21  1  6  0  0  0
 23 32  1  0  0  0  0
 24 23  1  0  0  0  0
 25 27  1  0  0  0  0
 25 26  1  0  0  0  0
 26 23  1  0  0  0  0
 27 22  1  1  0  0  0
 27 24  1  0  0  0  0
 28 29  1  0  0  0  0
 29 31  2  0  0  0  0
 30 31  1  0  0  0  0
 32 30  2  0  0  0  0
 33 32  1  0  0  0  0
 33 28  2  0  0  0  0
M  END
>  <MODEL>
2

>  <REMARK>
 VINA RESULT:     -10.5      1.743      2.450
  Name = 
  4 active torsions:
  status: ('A' for Active; 'I' for Inactive)
    1  A    between atoms: N_2  and  C_19
    2  A    between atoms: C_23  and  C_33
    3  A    between atoms: C_25  and  C_33
    4  A    between atoms: C_27  and  C_28
                            x       y       z     vdW  Elec       q    Type
                         _______ _______ _______ _____ _____    ______ ____

>  <TORSDO>
F 4

$$$$
=
 OpenBabel11042422383D

 33 38  0  0  1  0  0  0  0  0999 V2000
  161.3250  207.1410  151.5480 C   0  0  0  0  0  0  0  0  0  0  0  0
  161.0470  205.0870  152.8300 C   0  0  0  0  0  3  0  0  0  0  0  0
  161.4320  207.0570  149.1200 C   0  0  0  0  0  0  0  0  0  0  0  0
  160.9910  203.5110  150.3940 C   0  0  0  0  0  3  0  0  0  0  0  0
  161.0890  202.8570  146.8680 O   0  0  0  0  0  0  0  0  0  0  0  0
  161.5570  207.6900  147.9260 N   0  0  0  0  0  0  0  0  0  0  0  0
  161.4530  207.7860  150.3070 C   0  0  0  0  0  3  0  0  0  0  0  0
  161.1490  204.9870  150.3880 C   0  0  0  0  0  0  0  0  0  0  0  0
  161.5380  206.9910  146.7590 C   0  0  0  0  0  3  0  0  0  0  0  0
  161.1050  203.4940  147.9560 C   0  0  0  0  0  0  0  0  0  0  0  0
  161.1720  205.7280  151.5890 C   0  0  0  0  0  0  0  0  0  0  0  0
  161.2800  205.6600  149.1590 C   0  0  0  0  0  0  0  0  0  0  0  0
  161.2250  207.2080  153.9740 C   0  0  0  0  0  3  0  0  0  0  0  0
  161.3460  207.8810  152.7490 C   0  0  0  0  0  0  0  0  0  0  0  0
  161.0750  205.8230  154.0150 C   0  0  0  0  0  3  0  0  0  0  0  0
  160.9680  202.7940  149.2640 C   0  0  0  0  0  0  0  0  0  0  0  0
  161.3920  205.6390  146.7730 N   0  0  0  0  0  0  0  0  0  0  0  0
  161.2630  204.9600  147.9450 C   0  0  0  0  0  0  0  0  0  0  0  0
  161.4630  200.4480  148.6630 C   0  0  0  0  0  2  0  0  0  0  0  0
  160.8050  201.3350  149.3980 C   0  0  0  0  0  3  0  0  0  0  0  0
  162.3330  209.8530  151.5270 C   0  0  0  0  0  1  0  0  0  0  0  0
  161.5280  209.3770  152.7320 C   0  0  1  0  0  3  0  0  0  0  0  0
  159.2000  211.5250  154.2390 N   0  0  0  0  0  0  0  0  0  0  0  0
  160.0000  210.4290  154.2740 O   0  0  0  0  0  0  0  0  0  0  0  0
  160.1520  211.4410  152.1380 C   0  0  0  0  0  2  0  0  0  0  0  0
  159.3220  212.3140  153.0320 C   0  0  0  0  0  2  0  0  0  0  0  0
  160.2090  210.1310  152.9170 C   0  0  1  0  0  3  0  0  0  0  0  0
  155.6960  211.3640  155.5590 C   0  0  0  0  0  3  0  0  0  0  0  0
  155.8700  211.8960  156.8390 C   0  0  0  0  0  3  0  0  0  0  0  0
  158.2330  212.1780  156.4020 C   0  0  0  0  0  3  0  0  0  0  0  0
  157.1370  212.3030  157.2610 C   0  0  0  0  0  3  0  0  0  0  0  0
  158.0710  211.6420  155.1160 C   0  0  0  0  0  0  0  0  0  0  0  0
  156.7920  211.2390  154.7000 C   0  0  0  0  0  3  0  0  0  0  0  0
  1 11  1  0  0  0  0
  1 14  2  0  0  0  0
  2 15  1  0  0  0  0
  3 12  1  0  0  0  0
  3  7  2  0  0  0  0
  5 10  2  0  0  0  0
  6  3  1  0  0  0  0
  7  1  1  0  0  0  0
  8  4  1  0  0  0  0
  8 11  1  0  0  0  0
  9 17  1  0  0  0  0
  9  6  2  0  0  0  0
 10 16  1  0  0  0  0
 11  2  2  0  0  0  0
 12  8  2  0  0  0  0
 13 15  2  0  0  0  0
 14 13  1  0  0  0  0
 16 20  1  0  0  0  0
 16  4  2  0  0  0  0
 17 18  2  0  0  0  0
 18 10  1  0  0  0  0
 18 12  1  0  0  0  0
 19 20  2  0  0  0  0
 22 21  1  6  0  0  0
 22 14  1  0  0  0  0
 23 24  1  0  0  0  0
 23 32  1  0  0  0  0
 25 27  1  0  0  0  0
 25 26  1  0  0  0  0
 26 23  1  0  0  0  0
 27 22  1  1  0  0  0
 27 24  1  0  0  0  0
 28 29  1  0  0  0  0
 29 31  2  0  0  0  0
 30 31  1  0  0  0  0
 32 30  2  0  0  0  0
 33 32  1  0  0  0  0
 33 28  2  0  0  0  0
M  END
>  <MODEL>
3

>  <REMARK>
 VINA RESULT:     -10.3      2.077      3.708
  Name = 
  4 active torsions:
  status: ('A' for Active; 'I' for Inactive)
    1  A    between atoms: N_2  and  C_19
    2  A    between atoms: C_23  and  C_33
    3  A    between atoms: C_25  and  C_33
    4  A    between atoms: C_27  and  C_28
                            x       y       z     vdW  Elec       q    Type
                         _______ _______ _______ _____ _____    ______ ____

>  <TORSDO>
F 4

$$$$
=
 OpenBabel11042422383D

 33 38  0  0  1  0  0  0  0  0999 V2000
  161.2150  207.4880  151.2250 C   0  0  0  0  0  0  0  0  0  0  0  0
  161.9540  208.7450  149.2720 C   0  0  0  0  0  3  0  0  0  0  0  0
  160.8400  205.0910  151.0600 C   0  0  0  0  0  0  0  0  0  0  0  0
  161.9680  206.3340  147.6580 C   0  0  0  0  0  3  0  0  0  0  0  0
  161.5610  202.8510  146.9030 O   0  0  0  0  0  0  0  0  0  0  0  0
  160.4800  203.9150  151.6350 N   0  0  0  0  0  0  0  0  0  0  0  0
  160.8450  206.2660  151.8100 C   0  0  0  0  0  3  0  0  0  0  0  0
  161.5840  206.3340  149.0920 C   0  0  0  0  0  0  0  0  0  0  0  0
  160.4700  202.7610  150.9150 C   0  0  0  0  0  3  0  0  0  0  0  0
  161.5740  203.9270  147.5580 C   0  0  0  0  0  0  0  0  0  0  0  0
  161.5890  207.5230  149.8530 C   0  0  0  0  0  0  0  0  0  0  0  0
  161.2080  205.1240  149.7040 C   0  0  0  0  0  0  0  0  0  0  0  0
  161.5870  209.8840  151.3710 C   0  0  0  0  0  3  0  0  0  0  0  0
  161.2210  208.6770  151.9850 C   0  0  0  0  0  0  0  0  0  0  0  0
  161.9520  209.9180  150.0260 C   0  0  0  0  0  3  0  0  0  0  0  0
  161.9690  205.2160  146.9230 C   0  0  0  0  0  0  0  0  0  0  0  0
  160.8230  202.7690  149.6020 N   0  0  0  0  0  0  0  0  0  0  0  0
  161.1920  203.9220  148.9830 C   0  0  0  0  0  0  0  0  0  0  0  0
  161.5700  205.7940  144.5520 C   0  0  0  0  0  2  0  0  0  0  0  0
  162.3690  205.3410  145.5100 C   0  0  0  0  0  3  0  0  0  0  0  0
  161.7350  207.8200  154.3000 C   0  0  0  0  0  1  0  0  0  0  0  0
  160.8090  208.6680  153.4350 C   0  0  1  0  0  3  0  0  0  0  0  0
  159.5560  211.1570  155.5660 N   0  0  0  0  0  0  0  0  0  0  0  0
  159.3650  210.1410  154.6860 O   0  0  0  0  0  0  0  0  0  0  0  0
  161.6870  210.5340  154.9360 C   0  0  0  0  0  2  0  0  0  0  0  0
  160.9410  211.3920  155.9140 C   0  0  0  0  0  2  0  0  0  0  0  0
  160.5830  210.0780  153.9880 C   0  0  1  0  0  3  0  0  0  0  0  0
  157.8610  214.4530  156.1230 C   0  0  0  0  0  3  0  0  0  0  0  0
  156.5280  214.0500  156.2440 C   0  0  0  0  0  3  0  0  0  0  0  0
  157.1960  211.7460  155.9150 C   0  0  0  0  0  3  0  0  0  0  0  0
  156.1960  212.6970  156.1410 C   0  0  0  0  0  3  0  0  0  0  0  0
  158.5360  212.1410  155.7890 C   0  0  0  0  0  0  0  0  0  0  0  0
  158.8610  213.5030  155.8980 C   0  0  0  0  0  3  0  0  0  0  0  0
  1  7  1  0  0  0  0
  1 14  2  0  0  0  0
  2 11  2  0  0  0  0
  2 15  1  0  0  0  0
  3  6  1  0  0  0  0
  3  7  2  0  0  0  0
  4  8  1  0  0  0  0
  5 10  2  0  0  0  0
  8 12  2  0  0  0  0
  8 11  1  0  0  0  0
  9  6  2  0  0  0  0
 10 18  1  0  0  0  0
 11  1  1  0  0  0  0
 12  3  1  0  0  0  0
 13 14  1  0  0  0  0
 14 22  1  0  0  0  0
 15 13  2  0  0  0  0
 16 10  1  0  0  0  0
 16  4  2  0  0  0  0
 17  9  1  0  0  0  0
 18 17  2  0  0  0  0
 18 12  1  0  0  0  0
 19 20  2  0  0  0  0
 20 16  1  0  0  0  0
 22 21  1  1  0  0  0
 23 32  1  0  0  0  0
 23 26  1  0  0  0  0
 24 23  1  0  0  0  0
 25 26  1  0  0  0  0
 27 22  1  1  0  0  0
 27 24  1  0  0  0  0
 27 25  1  0  0  0  0
 28 29  1  0  0  0  0
 30 31  1  0  0  0  0
 31 29  2  0  0  0  0
 32 33  1  0  0  0  0
 32 30  2  0  0  0  0
 33 28  2  0  0  0  0
M  END
>  <MODEL>
4

>  <REMARK>
 VINA RESULT:      -9.6      1.395      1.607
  Name = 
  4 active torsions:
  status: ('A' for Active; 'I' for Inactive)
    1  A    between atoms: N_2  and  C_19
    2  A    between atoms: C_23  and  C_33
    3  A    between atoms: C_25  and  C_33
    4  A    between atoms: C_27  and  C_28
                            x       y       z     vdW  Elec       q    Type
                         _______ _______ _______ _____ _____    ______ ____

>  <TORSDO>
F 4

$$$$
=
 OpenBabel11042422383D

 33 38  0  0  1  0  0  0  0  0999 V2000
  161.5710  207.3700  151.3170 C   0  0  0  0  0  0  0  0  0  0  0  0
  160.8660  205.5810  152.8150 C   0  0  0  0  0  3  0  0  0  0  0  0
  161.9170  206.9150  148.9540 C   0  0  0  0  0  0  0  0  0  0  0  0
  160.8370  203.6840  150.6210 C   0  0  0  0  0  3  0  0  0  0  0  0
  161.2070  202.5090  147.2520 O   0  0  0  0  0  0  0  0  0  0  0  0
  162.2570  207.3440  147.7120 N   0  0  0  0  0  0  0  0  0  0  0  0
  161.9200  207.8030  150.0290 C   0  0  0  0  0  3  0  0  0  0  0  0
  161.2070  205.1090  150.4400 C   0  0  0  0  0  0  0  0  0  0  0  0
  162.2580  206.4880  146.6540 C   0  0  0  0  0  3  0  0  0  0  0  0
  161.2010  203.2910  148.2390 C   0  0  0  0  0  0  0  0  0  0  0  0
  161.2110  206.0100  151.5260 C   0  0  0  0  0  0  0  0  0  0  0  0
  161.5620  205.5710  149.1590 C   0  0  0  0  0  0  0  0  0  0  0  0
  161.2280  207.8070  153.6830 C   0  0  0  0  0  3  0  0  0  0  0  0
  161.5730  208.2710  152.4040 C   0  0  0  0  0  0  0  0  0  0  0  0
  160.8760  206.4740  153.8870 C   0  0  0  0  0  3  0  0  0  0  0  0
  160.8280  202.8160  149.6010 C   0  0  0  0  0  0  0  0  0  0  0  0
  161.9180  205.1830  146.8290 N   0  0  0  0  0  0  0  0  0  0  0  0
  161.5700  204.7070  148.0540 C   0  0  0  0  0  0  0  0  0  0  0  0
  159.2110  200.9530  149.7630 C   0  0  0  0  0  2  0  0  0  0  0  0
  160.4430  201.4260  149.9050 C   0  0  0  0  0  3  0  0  0  0  0  0
  161.9560  210.1310  150.7460 C   0  0  0  0  0  1  0  0  0  0  0  0
  161.9710  209.7120  152.2120 C   0  0  1  0  0  3  0  0  0  0  0  0
  159.3540  210.8190  154.2700 N   0  0  0  0  0  0  0  0  0  0  0  0
  159.8170  210.3720  153.0740 O   0  0  0  0  0  0  0  0  0  0  0  0
  161.6290  210.5880  154.5830 C   0  0  0  0  0  2  0  0  0  0  0  0
  160.3500  210.8490  155.3200 C   0  0  0  0  0  2  0  0  0  0  0  0
  161.1910  210.6620  153.1240 C   0  0  1  0  0  3  0  0  0  0  0  0
  155.9490  211.9420  155.3590 C   0  0  0  0  0  3  0  0  0  0  0  0
  155.7370  213.0220  154.4990 C   0  0  0  0  0  3  0  0  0  0  0  0
  157.9080  212.6480  153.4960 C   0  0  0  0  0  3  0  0  0  0  0  0
  156.7160  213.3760  153.5670 C   0  0  0  0  0  3  0  0  0  0  0  0
  158.1310  211.5640  154.3570 C   0  0  0  0  0  0  0  0  0  0  0  0
  157.1400  211.2150  155.2870 C   0  0  0  0  0  3  0  0  0  0  0  0
  1 11  1  0  0  0  0
  1 14  2  0  0  0  0
  2 15  1  0  0  0  0
  3 12  1  0  0  0  0
  3  7  2  0  0  0  0
  5 10  2  0  0  0  0
  6  3  1  0  0  0  0
  7  1  1  0  0  0  0
  8  4  1  0  0  0  0
  8 11  1  0  0  0  0
  9 17  1  0  0  0  0
  9  6  2  0  0  0  0
 10 16  1  0  0  0  0
 11  2  2  0  0  0  0
 12  8  2  0  0  0  0
 13 15  2  0  0  0  0
 14 13  1  0  0  0  0
 16 20  1  0  0  0  0
 16  4  2  0  0  0  0
 17 18  2  0  0  0  0
 18 10  1  0  0  0  0
 18 12  1  0  0  0  0
 19 20  2  0  0  0  0
 22 21  1  6  0  0  0
 22 14  1  0  0  0  0
 23 32  1  0  0  0  0
 23 26  1  0  0  0  0
 24 27  1  0  0  0  0
 24 23  1  0  0  0  0
 25 26  1  0  0  0  0
 27 22  1  6  0  0  0
 27 25  1  0  0  0  0
 29 28  2  0  0  0  0
 30 31  2  0  0  0  0
 30 32  1  0  0  0  0
 31 29  1  0  0  0  0
 32 33  2  0  0  0  0
 33 28  1  0  0  0  0
M  END
>  <MODEL>
5

>  <REMARK>
 VINA RESULT:      -9.3      1.886      3.471
  Name = 
  4 active torsions:
  status: ('A' for Active; 'I' for Inactive)
    1  A    between atoms: N_2  and  C_19
    2  A    between atoms: C_23  and  C_33
    3  A    between atoms: C_25  and  C_33
    4  A    between atoms: C_27  and  C_28
                            x       y       z     vdW  Elec       q    Type
                         _______ _______ _______ _____ _____    ______ ____

>  <TORSDO>
F 4

$$$$
=
 OpenBabel11042422383D

 33 38  0  0  1  0  0  0  0  0999 V2000
  161.4440  208.3360  151.3510 C   0  0  0  0  0  0  0  0  0  0  0  0
  161.8590  209.1350  149.0860 C   0  0  0  0  0  3  0  0  0  0  0  0
  161.1060  205.9640  151.7640 C   0  0  0  0  0  0  0  0  0  0  0  0
  161.6930  206.4320  148.0460 C   0  0  0  0  0  3  0  0  0  0  0  0
  161.2620  202.8720  148.1260 O   0  0  0  0  0  0  0  0  0  0  0  0
  160.8620  204.9430  152.6250 N   0  0  0  0  0  0  0  0  0  0  0  0
  161.1930  207.2730  152.2340 C   0  0  0  0  0  3  0  0  0  0  0  0
  161.5240  206.7460  149.4860 C   0  0  0  0  0  0  0  0  0  0  0  0
  160.7750  203.6610  152.1800 C   0  0  0  0  0  3  0  0  0  0  0  0
  161.3460  204.0640  148.5250 C   0  0  0  0  0  0  0  0  0  0  0  0
  161.6120  208.0700  149.9640 C   0  0  0  0  0  0  0  0  0  0  0  0
  161.2710  205.7000  150.3930 C   0  0  0  0  0  0  0  0  0  0  0  0
  161.7770  210.7040  150.9220 C   0  0  0  0  0  3  0  0  0  0  0  0
  161.5340  209.6620  151.8280 C   0  0  0  0  0  0  0  0  0  0  0  0
  161.9400  210.4440  149.5620 C   0  0  0  0  0  3  0  0  0  0  0  0
  161.6130  205.1810  147.5760 C   0  0  0  0  0  0  0  0  0  0  0  0
  160.9310  203.3820  150.8580 N   0  0  0  0  0  0  0  0  0  0  0  0
  161.1770  204.3700  149.9580 C   0  0  0  0  0  0  0  0  0  0  0  0
  162.4510  203.9710  145.5890 C   0  0  0  0  0  2  0  0  0  0  0  0
  161.7990  204.9950  146.1250 C   0  0  0  0  0  3  0  0  0  0  0  0
  162.6420  209.9020  154.0800 C   0  0  0  0  0  1  0  0  0  0  0  0
  161.3390  209.9700  153.2910 C   0  0  1  0  0  3  0  0  0  0  0  0
  158.5940  212.0180  154.0550 N   0  0  0  0  0  0  0  0  0  0  0  0
  159.1870  211.0610  153.2950 O   0  0  0  0  0  0  0  0  0  0  0  0
  160.7230  211.8280  154.9270 C   0  0  0  0  0  2  0  0  0  0  0  0
  159.3870  212.4590  155.1820 C   0  0  0  0  0  2  0  0  0  0  0  0
  160.5590  211.2680  153.5170 C   0  0  1  0  0  3  0  0  0  0  0  0
  156.5480  214.2760  151.8730 C   0  0  0  0  0  3  0  0  0  0  0  0
  155.3420  214.3030  152.5760 C   0  0  0  0  0  3  0  0  0  0  0  0
  156.2810  212.8250  154.2460 C   0  0  0  0  0  3  0  0  0  0  0  0
  155.2080  213.5780  153.7620 C   0  0  0  0  0  3  0  0  0  0  0  0
  157.4960  212.7880  153.5460 C   0  0  0  0  0  0  0  0  0  0  0  0
  157.6220  213.5230  152.3560 C   0  0  0  0  0  3  0  0  0  0  0  0
  1 14  1  0  0  0  0
  1  7  1  0  0  0  0
  2 15  2  0  0  0  0
  2 11  1  0  0  0  0
  3  7  2  0  0  0  0
  3  6  1  0  0  0  0
  4  8  1  0  0  0  0
  5 10  2  0  0  0  0
  8 11  1  0  0  0  0
  8 12  2  0  0  0  0
  9  6  2  0  0  0  0
 10 18  1  0  0  0  0
 11  1  2  0  0  0  0
 12  3  1  0  0  0  0
 13 14  2  0  0  0  0
 14 22  1  0  0  0  0
 15 13  1  0  0  0  0
 16  4  2  0  0  0  0
 16 10  1  0  0  0  0
 17  9  1  0  0  0  0
 18 12  1  0  0  0  0
 18 17  2  0  0  0  0
 19 20  2  0  0  0  0
 20 16  1  0  0  0  0
 22 21  1  1  0  0  0
 23 26  1  0  0  0  0
 24 27  1  0  0  0  0
 24 23  1  0  0  0  0
 25 26  1  0  0  0  0
 27 22  1  1  0  0  0
 27 25  1  0  0  0  0
 28 33  2  0  0  0  0
 28 29  1  0  0  0  0
 29 31  2  0  0  0  0
 31 30  1  0  0  0  0
 32 23  1  0  0  0  0
 32 30  2  0  0  0  0
 33 32  1  0  0  0  0
M  END
>  <MODEL>
6

>  <REMARK>
 VINA RESULT:      -9.2      1.628      2.612
  Name = 
  4 active torsions:
  status: ('A' for Active; 'I' for Inactive)
    1  A    between atoms: N_2  and  C_19
    2  A    between atoms: C_23  and  C_33
    3  A    between atoms: C_25  and  C_33
    4  A    between atoms: C_27  and  C_28
                            x       y       z     vdW  Elec       q    Type
                         _______ _______ _______ _____ _____    ______ ____

>  <TORSDO>
F 4

$$$$
=
 OpenBabel11042422383D

 33 38  0  0  1  0  0  0  0  0999 V2000
  161.3160  208.6030  153.5200 C   0  0  0  0  0  0  0  0  0  0  0  0
  160.7600  206.2390  153.7210 C   0  0  0  0  0  3  0  0  0  0  0  0
  161.8230  209.5540  151.3400 C   0  0  0  0  0  0  0  0  0  0  0  0
  161.0580  205.8700  150.8590 C   0  0  0  0  0  3  0  0  0  0  0  0
  161.7210  206.7790  147.4530 O   0  0  0  0  0  0  0  0  0  0  0  0
  162.1670  210.6200  150.5730 N   0  0  0  0  0  0  0  0  0  0  0  0
  161.6710  209.7000  152.7180 C   0  0  0  0  0  3  0  0  0  0  0  0
  161.2640  207.1820  151.5220 C   0  0  0  0  0  0  0  0  0  0  0  0
  162.3190  210.4930  149.2280 C   0  0  0  0  0  3  0  0  0  0  0  0
  161.5770  206.8840  148.7000 C   0  0  0  0  0  0  0  0  0  0  0  0
  161.1110  207.3320  152.9160 C   0  0  0  0  0  0  0  0  0  0  0  0
  161.6210  208.2980  150.7420 C   0  0  0  0  0  0  0  0  0  0  0  0
  160.8150  207.6370  155.6920 C   0  0  0  0  0  3  0  0  0  0  0  0
  161.1610  208.7520  154.9150 C   0  0  0  0  0  0  0  0  0  0  0  0
  160.6140  206.3900  155.1000 C   0  0  0  0  0  3  0  0  0  0  0  0
  161.2000  205.7110  149.5380 C   0  0  0  0  0  0  0  0  0  0  0  0
  162.1280  209.2870  148.6280 N   0  0  0  0  0  0  0  0  0  0  0  0
  161.7830  208.1900  149.3540 C   0  0  0  0  0  0  0  0  0  0  0  0
  160.8310  203.2750  149.7460 C   0  0  0  0  0  2  0  0  0  0  0  0
  160.9690  204.3600  148.9950 C   0  0  0  0  0  3  0  0  0  0  0  0
  162.7250  210.7110  155.1810 C   0  0  0  0  0  1  0  0  0  0  0  0
  161.3930  210.0850  155.5790 C   0  0  1  0  0  3  0  0  0  0  0  0
  158.5160  211.4700  154.1260 N   0  0  0  0  0  0  0  0  0  0  0  0
  159.8300  211.1310  154.0690 O   0  0  0  0  0  0  0  0  0  0  0  0
  158.9760  210.5970  156.2130 C   0  0  0  0  0  2  0  0  0  0  0  0
  157.8460  211.0550  155.3400 C   0  0  0  0  0  2  0  0  0  0  0  0
  160.2040  211.0350  155.4200 C   0  0  1  0  0  3  0  0  0  0  0  0
  156.3350  214.2170  152.8060 C   0  0  0  0  0  3  0  0  0  0  0  0
  156.9290  214.4530  151.5630 C   0  0  0  0  0  3  0  0  0  0  0  0
  158.5640  212.7280  152.0160 C   0  0  0  0  0  3  0  0  0  0  0  0
  158.0430  213.7090  151.1680 C   0  0  0  0  0  3  0  0  0  0  0  0
  157.9780  212.4850  153.2670 C   0  0  0  0  0  0  0  0  0  0  0  0
  156.8570  213.2360  153.6540 C   0  0  0  0  0  3  0  0  0  0  0  0
  1 14  2  0  0  0  0
  2 15  1  0  0  0  0
  3  7  2  0  0  0  0
  4  8  1  0  0  0  0
  5 10  2  0  0  0  0
  6  3  1  0  0  0  0
  7  1  1  0  0  0  0
  8 11  1  0  0  0  0
  9  6  2  0  0  0  0
 10 18  1  0  0  0  0
 10 16  1  0  0  0  0
 11  1  1  0  0  0  0
 11  2  2  0  0  0  0
 12  3  1  0  0  0  0
 12  8  2  0  0  0  0
 14 22  1  0  0  0  0
 14 13  1  0  0  0  0
 15 13  2  0  0  0  0
 16  4  2  0  0  0  0
 17  9  1  0  0  0  0
 17 18  2  0  0  0  0
 18 12  1  0  0  0  0
 20 16  1  0  0  0  0
 20 19  2  0  0  0  0
 22 21  1  6  0  0  0
 23 26  1  0  0  0  0
 24 23  1  0  0  0  0
 24 27  1  0  0  0  0
 26 25  1  0  0  0  0
 27 22  1  6  0  0  0
 27 25  1  0  0  0  0
 28 33  1  0  0  0  0
 29 28  2  0  0  0  0
 30 32  1  0  0  0  0
 31 29  1  0  0  0  0
 31 30  2  0  0  0  0
 32 33  2  0  0  0  0
 32 23  1  0  0  0  0
M  END
>  <MODEL>
7

>  <REMARK>
 VINA RESULT:      -8.8      2.673      4.624
  Name = 
  4 active torsions:
  status: ('A' for Active; 'I' for Inactive)
    1  A    between atoms: N_2  and  C_19
    2  A    between atoms: C_23  and  C_33
    3  A    between atoms: C_25  and  C_33
    4  A    between atoms: C_27  and  C_28
                            x       y       z     vdW  Elec       q    Type
                         _______ _______ _______ _____ _____    ______ ____

>  <TORSDO>
F 4

$$$$
=
 OpenBabel11042422383D

 33 38  0  0  1  0  0  0  0  0999 V2000
  161.1000  208.5500  153.4070 C   0  0  0  0  0  0  0  0  0  0  0  0
  160.6140  206.1730  153.6410 C   0  0  0  0  0  3  0  0  0  0  0  0
  161.6390  209.4740  151.2240 C   0  0  0  0  0  0  0  0  0  0  0  0
  161.0060  205.7580  150.7970 C   0  0  0  0  0  3  0  0  0  0  0  0
  161.7370  206.6220  147.3930 O   0  0  0  0  0  0  0  0  0  0  0  0
  161.9700  210.5350  150.4460 N   0  0  0  0  0  0  0  0  0  0  0  0
  161.4420  209.6410  152.5940 C   0  0  0  0  0  3  0  0  0  0  0  0
  161.1510  207.0880  151.4380 C   0  0  0  0  0  0  0  0  0  0  0  0
  162.1650  210.3870  149.1080 C   0  0  0  0  0  3  0  0  0  0  0  0
  161.5540  206.7470  148.6330 C   0  0  0  0  0  0  0  0  0  0  0  0
  160.9530  207.2610  152.8250 C   0  0  0  0  0  0  0  0  0  0  0  0
  161.4940  208.2000  150.6470 C   0  0  0  0  0  0  0  0  0  0  0  0
  160.5670  207.6100  155.5840 C   0  0  0  0  0  3  0  0  0  0  0  0
  160.9000  208.7210  154.7940 C   0  0  0  0  0  0  0  0  0  0  0  0
  160.4230  206.3460  155.0120 C   0  0  0  0  0  3  0  0  0  0  0  0
  161.1910  205.5780  149.4840 C   0  0  0  0  0  0  0  0  0  0  0  0
  162.0300  209.1640  148.5280 N   0  0  0  0  0  0  0  0  0  0  0  0
  161.6990  208.0710  149.2660 C   0  0  0  0  0  0  0  0  0  0  0  0
  160.9790  203.1270  149.7270 C   0  0  0  0  0  2  0  0  0  0  0  0
  161.0190  204.2100  148.9620 C   0  0  0  0  0  3  0  0  0  0  0  0
  162.4360  210.6870  155.1520 C   0  0  0  0  0  1  0  0  0  0  0  0
  161.0700  210.0730  155.4380 C   0  0  1  0  0  3  0  0  0  0  0  0
  158.5960  212.4800  156.0620 N   0  0  0  0  0  0  0  0  0  0  0  0
  159.1610  211.2690  156.3010 O   0  0  0  0  0  0  0  0  0  0  0  0
  160.3520  212.3610  154.5690 C   0  0  0  0  0  2  0  0  0  0  0  0
  159.3270  213.3050  155.1240 C   0  0  0  0  0  2  0  0  0  0  0  0
  159.9040  211.0170  155.1350 C   0  0  1  0  0  3  0  0  0  0  0  0
  155.3090  214.2280  156.4970 C   0  0  0  0  0  3  0  0  0  0  0  0
  154.5320  213.2000  157.0380 C   0  0  0  0  0  3  0  0  0  0  0  0
  156.4320  211.7050  156.9310 C   0  0  0  0  0  3  0  0  0  0  0  0
  155.0930  211.9400  157.2550 C   0  0  0  0  0  3  0  0  0  0  0  0
  157.2200  212.7290  156.3840 C   0  0  0  0  0  0  0  0  0  0  0  0
  156.6480  213.9930  156.1720 C   0  0  0  0  0  3  0  0  0  0  0  0
  1 14  2  0  0  0  0
  2 15  1  0  0  0  0
  3  7  2  0  0  0  0
  4  8  1  0  0  0  0
  5 10  2  0  0  0  0
  6  3  1  0  0  0  0
  7  1  1  0  0  0  0
  8 11  1  0  0  0  0
  9  6  2  0  0  0  0
 10 18  1  0  0  0  0
 10 16  1  0  0  0  0
 11  1  1  0  0  0  0
 11  2  2  0  0  0  0
 12  3  1  0  0  0  0
 12  8  2  0  0  0  0
 14 22  1  0  0  0  0
 14 13  1  0  0  0  0
 15 13  2  0  0  0  0
 16  4  2  0  0  0  0
 17  9  1  0  0  0  0
 17 18  2  0  0  0  0
 18 12  1  0  0  0  0
 20 16  1  0  0  0  0
 20 19  2  0  0  0  0
 22 21  1  6  0  0  0
 23 24  1  0  0  0  0
 23 32  1  0  0  0  0
 25 26  1  0  0  0  0
 25 27  1  0  0  0  0
 26 23  1  0  0  0  0
 27 22  1  1  0  0  0
 27 24  1  0  0  0  0
 28 29  1  0  0  0  0
 29 31  2  0  0  0  0
 30 31  1  0  0  0  0
 32 30  2  0  0  0  0
 33 32  1  0  0  0  0
 33 28  2  0  0  0  0
M  END
>  <MODEL>
8

>  <REMARK>
 VINA RESULT:      -8.7      2.668      4.817
  Name = 
  4 active torsions:
  status: ('A' for Active; 'I' for Inactive)
    1  A    between atoms: N_2  and  C_19
    2  A    between atoms: C_23  and  C_33
    3  A    between atoms: C_25  and  C_33
    4  A    between atoms: C_27  and  C_28
                            x       y       z     vdW  Elec       q    Type
                         _______ _______ _______ _____ _____    ______ ____

>  <TORSDO>
F 4

$$$$
=
 OpenBabel11042422383D

 33 38  0  0  1  0  0  0  0  0999 V2000
  161.3730  207.1030  150.8180 C   0  0  0  0  0  0  0  0  0  0  0  0
  161.2440  205.3520  152.5090 C   0  0  0  0  0  3  0  0  0  0  0  0
  161.1790  209.4380  151.4670 C   0  0  0  0  0  0  0  0  0  0  0  0
  160.8890  207.3270  154.6040 C   0  0  0  0  0  3  0  0  0  0  0  0
  160.5490  210.5870  156.0610 O   0  0  0  0  0  0  0  0  0  0  0  0
  161.1560  210.7540  151.1310 N   0  0  0  0  0  0  0  0  0  0  0  0
  161.3490  208.4660  150.4830 C   0  0  0  0  0  3  0  0  0  0  0  0
  161.0500  207.6960  153.1760 C   0  0  0  0  0  0  0  0  0  0  0  0
  160.9910  211.7130  152.0810 C   0  0  0  0  0  3  0  0  0  0  0  0
  160.7010  209.6890  155.1900 C   0  0  0  0  0  0  0  0  0  0  0  0
  161.2220  206.7140  152.1780 C   0  0  0  0  0  0  0  0  0  0  0  0
  161.0290  209.0550  152.8110 C   0  0  0  0  0  0  0  0  0  0  0  0
  161.5580  204.7650  150.1860 C   0  0  0  0  0  3  0  0  0  0  0  0
  161.5470  206.1190  149.8210 C   0  0  0  0  0  0  0  0  0  0  0  0
  161.4100  204.3830  151.5190 C   0  0  0  0  0  3  0  0  0  0  0  0
  160.7250  208.2460  155.5630 C   0  0  0  0  0  0  0  0  0  0  0  0
  160.8450  211.3660  153.3880 N   0  0  0  0  0  0  0  0  0  0  0  0
  160.8610  210.0620  153.7720 C   0  0  0  0  0  0  0  0  0  0  0  0
  160.1320  206.5450  157.2570 C   0  0  0  0  0  2  0  0  0  0  0  0
  160.5760  207.7570  156.9450 C   0  0  0  0  0  3  0  0  0  0  0  0
  162.6260  207.6920  148.1720 C   0  0  0  0  0  1  0  0  0  0  0  0
  161.6880  206.5060  148.3710 C   0  0  1  0  0  3  0  0  0  0  0  0
  161.1020  203.7810  146.2410 N   0  0  0  0  0  0  0  0  0  0  0  0
  160.9420  204.4130  147.4320 O   0  0  0  0  0  0  0  0  0  0  0  0
  162.3530  205.7100  146.0410 C   0  0  0  0  0  2  0  0  0  0  0  0
  161.8260  204.5490  145.2520 C   0  0  0  0  0  2  0  0  0  0  0  0
  162.0220  205.3100  147.4760 C   0  0  1  0  0  3  0  0  0  0  0  0
  160.1050  200.4120  144.9370 C   0  0  0  0  0  3  0  0  0  0  0  0
  160.6010  199.5800  145.9440 C   0  0  0  0  0  3  0  0  0  0  0  0
  161.4260  201.5160  147.1380 C   0  0  0  0  0  3  0  0  0  0  0  0
  161.2610  200.1310  147.0440 C   0  0  0  0  0  3  0  0  0  0  0  0
  160.9340  202.3600  146.1320 C   0  0  0  0  0  0  0  0  0  0  0  0
  160.2700  201.7970  145.0310 C   0  0  0  0  0  3  0  0  0  0  0  0
  1 11  1  0  0  0  0
  3 12  1  0  0  0  0
  4 16  2  0  0  0  0
  6  3  2  0  0  0  0
  6  9  1  0  0  0  0
  7  1  2  0  0  0  0
  7  3  1  0  0  0  0
  8  4  1  0  0  0  0
  9 17  2  0  0  0  0
 10 16  1  0  0  0  0
 10  5  2  0  0  0  0
 11  2  1  0  0  0  0
 11  8  2  0  0  0  0
 12  8  1  0  0  0  0
 12 18  2  0  0  0  0
 13 15  1  0  0  0  0
 14 13  2  0  0  0  0
 14  1  1  0  0  0  0
 15  2  2  0  0  0  0
 16 20  1  0  0  0  0
 17 18  1  0  0  0  0
 18 10  1  0  0  0  0
 20 19  2  0  0  0  0
 22 21  1  1  0  0  0
 22 14  1  0  0  0  0
 23 24  1  0  0  0  0
 24 27  1  0  0  0  0
 25 27  1  0  0  0  0
 26 25  1  0  0  0  0
 26 23  1  0  0  0  0
 27 22  1  1  0  0  0
 28 33  2  0  0  0  0
 28 29  1  0  0  0  0
 29 31  2  0  0  0  0
 31 30  1  0  0  0  0
 32 23  1  0  0  0  0
 32 30  2  0  0  0  0
 33 32  1  0  0  0  0
M  END
>  <MODEL>
9

>  <REMARK>
 VINA RESULT:      -8.6      2.173      9.851
  Name = 
  4 active torsions:
  status: ('A' for Active; 'I' for Inactive)
    1  A    between atoms: N_2  and  C_19
    2  A    between atoms: C_23  and  C_33
    3  A    between atoms: C_25  and  C_33
    4  A    between atoms: C_27  and  C_28
                            x       y       z     vdW  Elec       q    Type
                         _______ _______ _______ _____ _____    ______ ____

>  <TORSDO>
F 4

$$$$
