=
 OpenBabel11042421183D

 39 46  0  0  1  0  0  0  0  0999 V2000
  161.6530  211.9680  149.8270 C   0  0  1  0  0  3  0  0  0  0  0  0
  162.0360  212.6720  148.6110 C   0  0  2  0  0  3  0  0  0  0  0  0
  160.8420  213.0250  147.8570 C   0  0  2  0  0  0  0  0  0  0  0  0
  160.8570  211.7580  148.6050 N   0  0  2  0  0  0  0  0  0  0  0  0
  160.9090  212.8410  146.3670 C   0  0  0  0  0  0  0  0  0  0  0  0
  162.8350  213.6420  143.4020 N   0  0  0  0  0  0  0  0  0  0  0  0
  160.5450  211.9010  141.2210 C   0  0  0  0  0  1  0  0  0  0  0  0
  161.9420  213.2030  144.3020 C   0  0  0  0  0  0  0  0  0  0  0  0
  161.9390  213.3870  145.6440 N   0  0  0  0  0  0  0  0  0  0  0  0
  162.4540  213.2340  142.1940 N   0  0  0  0  0  0  0  0  0  0  0  0
  160.9700  212.5060  143.6730 C   0  0  0  0  0  0  0  0  0  0  0  0
  159.8820  212.1220  145.6950 C   0  0  0  0  0  3  0  0  0  0  0  0
  164.0260  214.4300  143.6650 C   0  0  0  0  0  1  0  0  0  0  0  0
  161.2990  212.5300  142.3370 C   0  0  0  0  0  0  0  0  0  0  0  0
  159.9260  211.9570  144.3370 N   0  0  0  0  0  0  0  0  0  0  0  0
  159.8920  214.0520  148.4680 C   0  0  0  0  0  2  0  0  0  0  0  0
  156.4310  213.0780  149.1570 O   0  0  0  0  0  0  0  0  0  0  0  0
  158.0920  213.5450  150.7910 C   0  0  0  0  0  1  0  0  0  0  0  0
  157.6270  213.4040  149.3820 C   0  0  0  0  0  0  0  0  0  0  0  0
  158.5130  213.6250  148.2860 N   0  0  0  0  0  2  0  0  0  0  0  0
  162.5110  210.8560  150.0290 O   0  0  0  0  0  0  0  0  0  0  0  0
  161.5610  208.7970  155.0750 C   0  0  0  0  0  1  0  0  0  0  0  0
  160.6990  209.0300  153.8510 C   0  0  1  0  0  3  0  0  0  0  0  0
  161.0990  207.9300  151.7900 C   0  0  0  0  0  0  0  0  0  0  0  0
  161.6860  207.2230  149.5070 C   0  0  0  0  0  3  0  0  0  0  0  0
  161.5610  209.2570  151.4730 C   0  0  0  0  0  0  0  0  0  0  0  0
  162.0600  209.5490  150.2650 C   0  0  0  0  0  0  0  0  0  0  0  0
  161.4150  210.3890  152.8400 S   0  0  0  0  0  0  0  0  0  0  0  0
  160.6520  207.7810  153.0240 C   0  0  0  0  0  3  0  0  0  0  0  0
  162.6080  208.7180  147.9530 O   0  0  0  0  0  1  0  0  0  0  0  0
  161.1590  206.8910  150.8040 N   0  0  0  0  0  0  0  0  0  0  0  0
  162.1180  208.4640  149.2290 C   0  0  0  0  0  0  0  0  0  0  0  0
  161.6500  202.9610  150.7800 C   0  0  1  0  0  3  0  0  0  0  0  0
  160.3830  203.2410  149.9950 C   0  0  0  0  0  2  0  0  0  0  0  0
  161.5680  204.8600  151.9560 O   0  0  0  0  0  0  0  0  0  0  0  0
  160.6690  205.5450  151.0800 C   0  0  2  0  0  3  0  0  0  0  0  0
  160.3850  204.7740  149.7400 C   0  0  0  0  0  2  0  0  0  0  0  0
  161.0360  203.5700  152.0160 C   0  0  2  0  0  3  0  0  0  0  0  0
  161.8820  202.4870  152.0960 O   0  0  0  0  0  0  0  0  0  0  0  0
  1 21  1  6  0  0  0
  2  1  1  0  0  0  0
  3 16  1  0  0  0  0
  3  4  1  0  0  0  0
  3  2  1  0  0  0  0
  4  2  1  0  0  0  0
  4  1  1  0  0  0  0
  5  3  1  0  0  0  0
  6 13  1  0  0  0  0
  6  8  1  0  0  0  0
  7 14  1  0  0  0  0
  8  9  1  0  0  0  0
  9  5  2  0  0  0  0
 10 14  2  0  0  0  0
 10  6  1  0  0  0  0
 11  8  2  0  0  0  0
 11 15  1  0  0  0  0
 12  5  1  0  0  0  0
 14 11  1  0  0  0  0
 15 12  2  0  0  0  0
 17 19  2  0  0  0  0
 19 18  1  0  0  0  0
 20 16  1  0  0  0  0
 20 19  1  0  0  0  0
 21 27  1  0  0  0  0
 23 22  1  0  0  0  0
 24 29  2  0  0  0  0
 25 31  1  0  0  0  0
 26 24  1  0  0  0  0
 26 28  1  0  0  0  0
 27 26  2  0  0  0  0
 28 23  1  0  0  0  0
 29 23  1  0  0  0  0
 30 32  1  0  0  0  0
 31 36  1  0  0  0  0
 31 24  1  0  0  0  0
 32 25  2  0  0  0  0
 32 27  1  0  0  0  0
 33 38  1  0  0  0  0
 33 39  1  0  0  0  0
 34 33  1  0  0  0  0
 35 38  1  0  0  0  0
 36 35  1  0  0  0  0
 37 34  1  0  0  0  0
 37 36  1  0  0  0  0
 38 39  1  0  0  0  0
M  END
>  <MODEL>
1

>  <REMARK>
 VINA RESULT:      -7.3      0.000      0.000
  Name = 
  6 active torsions:
  status: ('A' for Active; 'I' for Inactive)
    1  A    between atoms: C_1  and  C_15
    2  A    between atoms: C_5  and  O_32
    3  A    between atoms: C_15  and  C_22
    4  A    between atoms: C_21  and  O_32
    5  A    between atoms: C_22  and  N_36
    6  A    between atoms: C_23  and  N_38
                            x       y       z     vdW  Elec       q    Type
                         _______ _______ _______ _____ _____    ______ ____

>  <TORSDO>
F 6

$$$$
=
 OpenBabel11042421183D

 39 46  0  0  1  0  0  0  0  0999 V2000
  162.2060  208.7780  150.6010 C   0  0  1  0  0  3  0  0  0  0  0  0
  162.6740  207.4370  150.2820 C   0  0  2  0  0  3  0  0  0  0  0  0
  161.8270  206.8590  149.2480 C   0  0  2  0  0  0  0  0  0  0  0  0
  161.2150  207.7460  150.2510 N   0  0  2  0  0  0  0  0  0  0  0  0
  161.4500  205.4150  149.4170 C   0  0  0  0  0  0  0  0  0  0  0  0
  160.9570  202.2900  147.6460 N   0  0  0  0  0  0  0  0  0  0  0  0
  160.0040  200.5260  150.6470 C   0  0  0  0  0  1  0  0  0  0  0  0
  161.0590  203.2830  148.5430 C   0  0  0  0  0  0  0  0  0  0  0  0
  161.4210  204.5710  148.3350 N   0  0  0  0  0  0  0  0  0  0  0  0
  160.5720  201.1850  148.2780 N   0  0  0  0  0  0  0  0  0  0  0  0
  160.7340  202.8190  149.7700 C   0  0  0  0  0  0  0  0  0  0  0  0
  161.0920  204.9220  150.7020 C   0  0  0  0  0  3  0  0  0  0  0  0
  161.2160  202.3720  146.2190 C   0  0  0  0  0  1  0  0  0  0  0  0
  160.4250  201.4890  149.5960 C   0  0  0  0  0  0  0  0  0  0  0  0
  160.7360  203.6100  150.8680 N   0  0  0  0  0  0  0  0  0  0  0  0
  161.8690  207.4900  147.8590 C   0  0  0  0  0  2  0  0  0  0  0  0
  159.8370  205.8640  145.2830 O   0  0  0  0  0  0  0  0  0  0  0  0
  162.2110  205.8970  145.3600 C   0  0  0  0  0  1  0  0  0  0  0  0
  160.8670  206.2570  145.8930 C   0  0  0  0  0  0  0  0  0  0  0  0
  160.7270  207.0440  147.0750 N   0  0  0  0  0  2  0  0  0  0  0  0
  162.2140  208.9680  152.0070 O   0  0  0  0  0  0  0  0  0  0  0  0
  159.3400  207.0610  156.3330 C   0  0  0  0  0  1  0  0  0  0  0  0
  160.3150  208.2030  156.1340 C   0  0  1  0  0  3  0  0  0  0  0  0
  159.8720  210.0120  154.6690 C   0  0  0  0  0  0  0  0  0  0  0  0
  159.7400  211.6710  152.8570 C   0  0  0  0  0  3  0  0  0  0  0  0
  160.8630  209.2950  153.9080 C   0  0  0  0  0  0  0  0  0  0  0  0
  161.2600  209.7240  152.7030 C   0  0  0  0  0  0  0  0  0  0  0  0
  161.4370  207.8210  154.7270 S   0  0  0  0  0  0  0  0  0  0  0  0
  159.5620  209.4610  155.8290 C   0  0  0  0  0  3  0  0  0  0  0  0
  161.0510  211.4900  150.9200 O   0  0  0  0  0  1  0  0  0  0  0  0
  159.2940  211.2150  154.1460 N   0  0  0  0  0  0  0  0  0  0  0  0
  160.6610  210.9880  152.1570 C   0  0  0  0  0  0  0  0  0  0  0  0
  156.7260  214.2170  154.4290 C   0  0  1  0  0  3  0  0  0  0  0  0
  157.7120  214.3850  155.5700 C   0  0  0  0  0  2  0  0  0  0  0  0
  157.0650  212.0180  154.2080 O   0  0  0  0  0  0  0  0  0  0  0  0
  158.3130  211.9840  154.9040 C   0  0  2  0  0  3  0  0  0  0  0  0
  158.8790  213.4080  155.2540 C   0  0  0  0  0  2  0  0  0  0  0  0
  156.2900  212.8840  154.9830 C   0  0  2  0  0  3  0  0  0  0  0  0
  155.3950  213.7310  154.3710 O   0  0  0  0  0  0  0  0  0  0  0  0
  1 21  1  1  0  0  0
  2  1  1  0  0  0  0
  3  5  1  0  0  0  0
  3  4  1  0  0  0  0
  3  2  1  0  0  0  0
  4  2  1  0  0  0  0
  4  1  1  0  0  0  0
  5 12  1  0  0  0  0
  6 10  1  0  0  0  0
  6  8  1  0  0  0  0
  8 11  2  0  0  0  0
  9  8  1  0  0  0  0
  9  5  2  0  0  0  0
 10 14  2  0  0  0  0
 11 15  1  0  0  0  0
 12 15  2  0  0  0  0
 13  6  1  0  0  0  0
 14 11  1  0  0  0  0
 14  7  1  0  0  0  0
 16  3  1  0  0  0  0
 17 19  2  0  0  0  0
 18 19  1  0  0  0  0
 19 20  1  0  0  0  0
 20 16  1  0  0  0  0
 21 27  1  0  0  0  0
 23 22  1  0  0  0  0
 24 29  2  0  0  0  0
 25 31  1  0  0  0  0
 26 24  1  0  0  0  0
 26 28  1  0  0  0  0
 27 26  2  0  0  0  0
 28 23  1  0  0  0  0
 29 23  1  0  0  0  0
 30 32  1  0  0  0  0
 31 24  1  0  0  0  0
 31 36  1  0  0  0  0
 32 27  1  0  0  0  0
 32 25  2  0  0  0  0
 33 38  1  0  0  0  0
 33 34  1  0  0  0  0
 35 36  1  0  0  0  0
 35 38  1  0  0  0  0
 36 37  1  0  0  0  0
 37 34  1  0  0  0  0
 39 33  1  0  0  0  0
 39 38  1  0  0  0  0
M  END
>  <MODEL>
2

>  <REMARK>
 VINA RESULT:      -7.2      4.610      8.735
  Name = 
  6 active torsions:
  status: ('A' for Active; 'I' for Inactive)
    1  A    between atoms: C_1  and  C_15
    2  A    between atoms: C_5  and  O_32
    3  A    between atoms: C_15  and  C_22
    4  A    between atoms: C_21  and  O_32
    5  A    between atoms: C_22  and  N_36
    6  A    between atoms: C_23  and  N_38
                            x       y       z     vdW  Elec       q    Type
                         _______ _______ _______ _____ _____    ______ ____

>  <TORSDO>
F 6

$$$$
=
 OpenBabel11042421183D

 39 46  0  0  1  0  0  0  0  0999 V2000
  161.6750  206.3780  152.4150 C   0  0  1  0  0  3  0  0  0  0  0  0
  160.8350  206.3510  151.2250 C   0  0  2  0  0  3  0  0  0  0  0  0
  160.9500  205.0520  150.5780 C   0  0  2  0  0  0  0  0  0  0  0  0
  162.1360  205.6220  151.2380 N   0  0  2  0  0  0  0  0  0  0  0  0
  161.0410  205.0540  149.0780 C   0  0  0  0  0  0  0  0  0  0  0  0
  161.1550  202.9200  146.1500 N   0  0  0  0  0  0  0  0  0  0  0  0
  161.4420  205.7230  143.8920 C   0  0  0  0  0  1  0  0  0  0  0  0
  161.1360  203.9330  147.0300 C   0  0  0  0  0  0  0  0  0  0  0  0
  161.0360  203.8730  148.3790 N   0  0  0  0  0  0  0  0  0  0  0  0
  161.2650  203.4270  144.9230 N   0  0  0  0  0  0  0  0  0  0  0  0
  161.2360  205.1080  146.3700 C   0  0  0  0  0  0  0  0  0  0  0  0
  161.1620  206.2850  148.3780 C   0  0  0  0  0  3  0  0  0  0  0  0
  161.0720  201.5010  146.4480 C   0  0  0  0  0  1  0  0  0  0  0  0
  161.3190  204.7810  145.0370 C   0  0  0  0  0  0  0  0  0  0  0  0
  161.2570  206.3000  147.0120 N   0  0  0  0  0  0  0  0  0  0  0  0
  160.3980  203.8360  151.3180 C   0  0  0  0  0  2  0  0  0  0  0  0
  161.5270  200.6030  150.0240 O   0  0  0  0  0  0  0  0  0  0  0  0
  159.3540  201.5250  149.7480 C   0  0  0  0  0  1  0  0  0  0  0  0
  160.7510  201.5650  150.2670 C   0  0  0  0  0  0  0  0  0  0  0  0
  161.2200  202.6690  151.0400 N   0  0  0  0  0  2  0  0  0  0  0  0
  162.3690  207.6130  152.4840 O   0  0  0  0  0  0  0  0  0  0  0  0
  158.8930  209.8890  156.1380 C   0  0  0  0  0  1  0  0  0  0  0  0
  160.2350  210.2940  155.5650 C   0  0  1  0  0  3  0  0  0  0  0  0
  160.5490  210.7360  153.2580 C   0  0  0  0  0  0  0  0  0  0  0  0
  161.1000  210.7610  150.8600 C   0  0  0  0  0  3  0  0  0  0  0  0
  161.2060  209.4590  153.3720 C   0  0  0  0  0  0  0  0  0  0  0  0
  161.7620  208.8660  152.3070 C   0  0  0  0  0  0  0  0  0  0  0  0
  161.1550  208.7950  155.0240 S   0  0  0  0  0  0  0  0  0  0  0  0
  160.0270  211.1910  154.3830 C   0  0  0  0  0  3  0  0  0  0  0  0
  162.2830  209.0060  149.8480 O   0  0  0  0  0  1  0  0  0  0  0  0
  160.4870  211.4040  151.9900 N   0  0  0  0  0  0  0  0  0  0  0  0
  161.7040  209.5670  150.9810 C   0  0  0  0  0  0  0  0  0  0  0  0
  157.8500  213.8010  150.2620 C   0  0  1  0  0  3  0  0  0  0  0  0
  159.2070  214.4530  150.0810 C   0  0  0  0  0  2  0  0  0  0  0  0
  158.4480  212.6120  152.0580 O   0  0  0  0  0  0  0  0  0  0  0  0
  159.8590  212.7130  151.8460 C   0  0  2  0  0  3  0  0  0  0  0  0
  160.2440  213.3610  150.4680 C   0  0  0  0  0  2  0  0  0  0  0  0
  157.9880  213.8970  151.7610 C   0  0  2  0  0  3  0  0  0  0  0  0
  156.7690  214.0580  151.1430 O   0  0  0  0  0  0  0  0  0  0  0  0
  1 21  1  6  0  0  0
  2  4  1  0  0  0  0
  2  1  1  0  0  0  0
  3  2  1  0  0  0  0
  3  4  1  0  0  0  0
  3 16  1  0  0  0  0
  4  1  1  0  0  0  0
  5  3  1  0  0  0  0
  6 13  1  0  0  0  0
  6  8  1  0  0  0  0
  7 14  1  0  0  0  0
  8  9  2  0  0  0  0
  9  5  1  0  0  0  0
 10 14  2  0  0  0  0
 10  6  1  0  0  0  0
 11 15  2  0  0  0  0
 11  8  1  0  0  0  0
 12  5  2  0  0  0  0
 14 11  1  0  0  0  0
 15 12  1  0  0  0  0
 17 19  2  0  0  0  0
 18 19  1  0  0  0  0
 19 20  1  0  0  0  0
 20 16  1  0  0  0  0
 23 22  1  0  0  0  0
 24 26  1  0  0  0  0
 24 29  2  0  0  0  0
 25 32  2  0  0  0  0
 25 31  1  0  0  0  0
 26 28  1  0  0  0  0
 27 21  1  0  0  0  0
 27 26  2  0  0  0  0
 28 23  1  0  0  0  0
 29 23  1  0  0  0  0
 30 32  1  0  0  0  0
 31 24  1  0  0  0  0
 32 27  1  0  0  0  0
 33 39  1  0  0  0  0
 33 38  1  0  0  0  0
 34 33  1  0  0  0  0
 34 37  1  0  0  0  0
 36 31  1  0  0  0  0
 36 35  1  0  0  0  0
 37 36  1  0  0  0  0
 38 35  1  0  0  0  0
 39 38  1  0  0  0  0
M  END
>  <MODEL>
3

>  <REMARK>
 VINA RESULT:      -6.8      4.032      8.343
  Name = 
  6 active torsions:
  status: ('A' for Active; 'I' for Inactive)
    1  A    between atoms: C_1  and  C_15
    2  A    between atoms: C_5  and  O_32
    3  A    between atoms: C_15  and  C_22
    4  A    between atoms: C_21  and  O_32
    5  A    between atoms: C_22  and  N_36
    6  A    between atoms: C_23  and  N_38
                            x       y       z     vdW  Elec       q    Type
                         _______ _______ _______ _____ _____    ______ ____

>  <TORSDO>
F 6

$$$$
=
 OpenBabel11042421183D

 39 46  0  0  1  0  0  0  0  0999 V2000
  161.1430  209.1930  153.4280 C   0  0  1  0  0  3  0  0  0  0  0  0
  161.2680  210.5440  152.9000 C   0  0  2  0  0  3  0  0  0  0  0  0
  159.9420  211.1170  152.7140 C   0  0  2  0  0  0  0  0  0  0  0  0
  160.1310  209.6770  152.4740 N   0  0  2  0  0  0  0  0  0  0  0  0
  159.7240  211.9090  151.4560 C   0  0  0  0  0  0  0  0  0  0  0  0
  157.3080  213.9110  149.6390 N   0  0  0  0  0  0  0  0  0  0  0  0
  159.5630  214.4530  146.8720 C   0  0  0  0  0  1  0  0  0  0  0  0
  158.3780  213.2270  150.0720 C   0  0  0  0  0  0  0  0  0  0  0  0
  158.5260  212.5400  151.2290 N   0  0  0  0  0  0  0  0  0  0  0  0
  157.5930  214.4350  148.4490 N   0  0  0  0  0  0  0  0  0  0  0  0
  159.3670  213.3050  149.1530 C   0  0  0  0  0  0  0  0  0  0  0  0
  160.7530  211.9840  150.4770 C   0  0  0  0  0  3  0  0  0  0  0  0
  156.0390  214.0740  150.3260 C   0  0  0  0  0  1  0  0  0  0  0  0
  158.8630  214.0700  148.1270 C   0  0  0  0  0  0  0  0  0  0  0  0
  160.5630  212.6930  149.3220 N   0  0  0  0  0  0  0  0  0  0  0  0
  159.1060  211.3970  153.9590 C   0  0  0  0  0  2  0  0  0  0  0  0
  160.6240  213.3880  156.6300 O   0  0  0  0  0  0  0  0  0  0  0  0
  159.9230  211.1250  156.8160 C   0  0  0  0  0  1  0  0  0  0  0  0
  160.0980  212.3970  156.0580 C   0  0  0  0  0  0  0  0  0  0  0  0
  159.6750  212.5120  154.7000 N   0  0  0  0  0  2  0  0  0  0  0  0
  162.0490  208.3300  152.7580 O   0  0  0  0  0  0  0  0  0  0  0  0
  161.6870  202.8340  152.2410 C   0  0  0  0  0  1  0  0  0  0  0  0
  160.7220  203.9810  152.0190 C   0  0  1  0  0  3  0  0  0  0  0  0
  161.0980  205.6590  150.3880 C   0  0  0  0  0  0  0  0  0  0  0  0
  161.6000  207.6810  149.0800 C   0  0  0  0  0  3  0  0  0  0  0  0
  161.3860  206.3940  151.5930 C   0  0  0  0  0  0  0  0  0  0  0  0
  161.7650  207.6790  151.5490 C   0  0  0  0  0  0  0  0  0  0  0  0
  161.2100  205.4110  153.0670 S   0  0  0  0  0  0  0  0  0  0  0  0
  160.7580  204.3970  150.5800 C   0  0  0  0  0  3  0  0  0  0  0  0
  162.2400  209.6890  150.1110 O   0  0  0  0  0  1  0  0  0  0  0  0
  161.2060  206.2990  149.1100 N   0  0  0  0  0  0  0  0  0  0  0  0
  161.8710  208.3530  150.2120 C   0  0  0  0  0  0  0  0  0  0  0  0
  162.0880  205.2920  145.3820 C   0  0  1  0  0  3  0  0  0  0  0  0
  160.7180  205.9430  145.3390 C   0  0  0  0  0  2  0  0  0  0  0  0
  161.9460  204.6920  147.5310 O   0  0  0  0  0  0  0  0  0  0  0  0
  160.8890  205.5930  147.8720 C   0  0  2  0  0  3  0  0  0  0  0  0
  160.5360  206.6130  146.7300 C   0  0  0  0  0  2  0  0  0  0  0  0
  161.5580  204.2030  146.2820 C   0  0  2  0  0  3  0  0  0  0  0  0
  162.5130  203.9400  145.3260 O   0  0  0  0  0  0  0  0  0  0  0  0
  1 21  1  6  0  0  0
  2  1  1  0  0  0  0
  3  2  1  0  0  0  0
  3 16  1  0  0  0  0
  4  3  1  0  0  0  0
  4  2  1  0  0  0  0
  4  1  1  0  0  0  0
  5  3  1  0  0  0  0
  6  8  1  0  0  0  0
  6 13  1  0  0  0  0
  7 14  1  0  0  0  0
  8  9  2  0  0  0  0
  9  5  1  0  0  0  0
 10  6  1  0  0  0  0
 11 15  2  0  0  0  0
 11  8  1  0  0  0  0
 12  5  2  0  0  0  0
 14 10  2  0  0  0  0
 14 11  1  0  0  0  0
 15 12  1  0  0  0  0
 16 20  1  0  0  0  0
 19 17  2  0  0  0  0
 19 18  1  0  0  0  0
 20 19  1  0  0  0  0
 23 22  1  0  0  0  0
 23 28  1  0  0  0  0
 24 29  2  0  0  0  0
 24 26  1  0  0  0  0
 25 31  1  0  0  0  0
 25 32  2  0  0  0  0
 26 28  1  0  0  0  0
 27 26  2  0  0  0  0
 27 21  1  0  0  0  0
 29 23  1  0  0  0  0
 30 32  1  0  0  0  0
 31 24  1  0  0  0  0
 32 27  1  0  0  0  0
 33 38  1  0  0  0  0
 34 33  1  0  0  0  0
 34 37  1  0  0  0  0
 35 36  1  0  0  0  0
 36 31  1  0  0  0  0
 37 36  1  0  0  0  0
 38 35  1  0  0  0  0
 39 33  1  0  0  0  0
 39 38  1  0  0  0  0
M  END
>  <MODEL>
4

>  <REMARK>
 VINA RESULT:      -6.8      3.321      5.585
  Name = 
  6 active torsions:
  status: ('A' for Active; 'I' for Inactive)
    1  A    between atoms: C_1  and  C_15
    2  A    between atoms: C_5  and  O_32
    3  A    between atoms: C_15  and  C_22
    4  A    between atoms: C_21  and  O_32
    5  A    between atoms: C_22  and  N_36
    6  A    between atoms: C_23  and  N_38
                            x       y       z     vdW  Elec       q    Type
                         _______ _______ _______ _____ _____    ______ ____

>  <TORSDO>
F 6

$$$$
=
 OpenBabel11042421183D

 39 46  0  0  1  0  0  0  0  0999 V2000
  161.9110  209.6270  151.2840 C   0  0  1  0  0  3  0  0  0  0  0  0
  162.5050  208.4820  150.6080 C   0  0  2  0  0  3  0  0  0  0  0  0
  161.6750  208.1050  149.4720 C   0  0  2  0  0  0  0  0  0  0  0  0
  161.0210  208.6160  150.6870 N   0  0  2  0  0  0  0  0  0  0  0  0
  161.4640  206.6330  149.2530 C   0  0  0  0  0  0  0  0  0  0  0  0
  160.9090  203.4730  150.9390 N   0  0  0  0  0  0  0  0  0  0  0  0
  160.8460  201.6200  147.8420 C   0  0  0  0  0  1  0  0  0  0  0  0
  161.1050  204.4720  150.0650 C   0  0  0  0  0  0  0  0  0  0  0  0
  161.2740  205.7910  150.3190 N   0  0  0  0  0  0  0  0  0  0  0  0
  160.7900  202.3330  150.2610 N   0  0  0  0  0  0  0  0  0  0  0  0
  161.1160  203.9770  148.8080 C   0  0  0  0  0  0  0  0  0  0  0  0
  161.4910  206.1020  147.9340 C   0  0  0  0  0  3  0  0  0  0  0  0
  160.8320  203.5790  152.3860 C   0  0  0  0  0  1  0  0  0  0  0  0
  160.9180  202.6220  148.9380 C   0  0  0  0  0  0  0  0  0  0  0  0
  161.3110  204.7620  147.7220 N   0  0  0  0  0  0  0  0  0  0  0  0
  161.5820  209.0820  148.3030 C   0  0  0  0  0  2  0  0  0  0  0  0
  163.1480  212.3890  148.4210 O   0  0  0  0  0  0  0  0  0  0  0  0
  160.9160  211.9350  147.7430 C   0  0  0  0  0  1  0  0  0  0  0  0
  162.2630  211.5150  148.2250 C   0  0  0  0  0  0  0  0  0  0  0  0
  162.5670  210.1410  148.4590 N   0  0  0  0  0  2  0  0  0  0  0  0
  161.9670  209.4360  152.6890 O   0  0  0  0  0  0  0  0  0  0  0  0
  160.0800  206.9560  157.2600 C   0  0  0  0  0  1  0  0  0  0  0  0
  160.9030  208.2010  156.9980 C   0  0  1  0  0  3  0  0  0  0  0  0
  160.0540  210.0540  155.7900 C   0  0  0  0  0  0  0  0  0  0  0  0
  159.4600  211.8140  154.1760 C   0  0  0  0  0  3  0  0  0  0  0  0
  160.9520  209.4940  154.8130 C   0  0  0  0  0  0  0  0  0  0  0  0
  161.0900  210.0440  153.5990 C   0  0  0  0  0  0  0  0  0  0  0  0
  161.7860  208.0310  155.3930 S   0  0  0  0  0  0  0  0  0  0  0  0
  160.0030  209.3960  156.9340 C   0  0  0  0  0  3  0  0  0  0  0  0
  160.4180  211.8990  152.0360 O   0  0  0  0  0  1  0  0  0  0  0  0
  159.2910  211.2270  155.4780 N   0  0  0  0  0  0  0  0  0  0  0  0
  160.2980  211.2770  153.2730 C   0  0  0  0  0  0  0  0  0  0  0  0
  156.0980  213.4000  156.3570 C   0  0  1  0  0  3  0  0  0  0  0  0
  157.2740  214.0690  157.0410 C   0  0  0  0  0  2  0  0  0  0  0  0
  157.0570  211.3830  156.2570 O   0  0  0  0  0  0  0  0  0  0  0  0
  158.3970  211.8400  156.4550 C   0  0  2  0  0  3  0  0  0  0  0  0
  158.5400  213.4050  156.4280 C   0  0  0  0  0  2  0  0  0  0  0  0
  156.3210  212.1460  157.1660 C   0  0  2  0  0  3  0  0  0  0  0  0
  155.0540  212.5670  156.8340 O   0  0  0  0  0  0  0  0  0  0  0  0
  1 21  1  1  0  0  0
  2  4  1  0  0  0  0
  2  1  1  0  0  0  0
  3  2  1  0  0  0  0
  3  4  1  0  0  0  0
  4  1  1  0  0  0  0
  5  3  1  0  0  0  0
  5  9  1  0  0  0  0
  6 13  1  0  0  0  0
  7 14  1  0  0  0  0
  8  9  2  0  0  0  0
  8  6  1  0  0  0  0
 10  6  1  0  0  0  0
 11 14  1  0  0  0  0
 11  8  1  0  0  0  0
 12  5  2  0  0  0  0
 14 10  2  0  0  0  0
 15 12  1  0  0  0  0
 15 11  2  0  0  0  0
 16 20  1  0  0  0  0
 16  3  1  0  0  0  0
 18 19  1  0  0  0  0
 19 17  2  0  0  0  0
 19 20  1  0  0  0  0
 21 27  1  0  0  0  0
 23 22  1  0  0  0  0
 24 29  2  0  0  0  0
 25 31  1  0  0  0  0
 26 28  1  0  0  0  0
 26 24  1  0  0  0  0
 27 26  2  0  0  0  0
 28 23  1  0  0  0  0
 29 23  1  0  0  0  0
 30 32  1  0  0  0  0
 31 24  1  0  0  0  0
 31 36  1  0  0  0  0
 32 27  1  0  0  0  0
 32 25  2  0  0  0  0
 33 39  1  0  0  0  0
 33 34  1  0  0  0  0
 33 38  1  0  0  0  0
 35 36  1  0  0  0  0
 35 38  1  0  0  0  0
 37 36  1  0  0  0  0
 37 34  1  0  0  0  0
 39 38  1  0  0  0  0
M  END
>  <MODEL>
5

>  <REMARK>
 VINA RESULT:      -6.7      3.601      8.300
  Name = 
  6 active torsions:
  status: ('A' for Active; 'I' for Inactive)
    1  A    between atoms: C_1  and  C_15
    2  A    between atoms: C_5  and  O_32
    3  A    between atoms: C_15  and  C_22
    4  A    between atoms: C_21  and  O_32
    5  A    between atoms: C_22  and  N_36
    6  A    between atoms: C_23  and  N_38
                            x       y       z     vdW  Elec       q    Type
                         _______ _______ _______ _____ _____    ______ ____

>  <TORSDO>
F 6

$$$$
=
 OpenBabel11042421183D

 39 46  0  0  1  0  0  0  0  0999 V2000
  161.4440  207.2130  153.7070 C   0  0  1  0  0  3  0  0  0  0  0  0
  161.6740  208.6510  153.6760 C   0  0  2  0  0  3  0  0  0  0  0  0
  160.3960  209.3480  153.6990 C   0  0  2  0  0  0  0  0  0  0  0  0
  160.4910  208.0680  152.9780 N   0  0  2  0  0  0  0  0  0  0  0  0
  160.2630  210.5380  152.7900 C   0  0  0  0  0  0  0  0  0  0  0  0
  158.2200  213.4370  152.0420 N   0  0  0  0  0  0  0  0  0  0  0  0
  160.3230  214.4370  149.2840 C   0  0  0  0  0  1  0  0  0  0  0  0
  159.1420  212.4640  152.0860 C   0  0  0  0  0  0  0  0  0  0  0  0
  159.2210  211.4180  152.9420 N   0  0  0  0  0  0  0  0  0  0  0  0
  158.5230  214.2630  151.0430 N   0  0  0  0  0  0  0  0  0  0  0  0
  160.0510  212.6560  151.1040 C   0  0  0  0  0  0  0  0  0  0  0  0
  161.2060  210.7390  151.7450 C   0  0  0  0  0  3  0  0  0  0  0  0
  157.0740  213.5960  152.9210 C   0  0  0  0  0  1  0  0  0  0  0  0
  159.6530  213.7970  150.4470 C   0  0  0  0  0  0  0  0  0  0  0  0
  161.0900  211.8130  150.9040 N   0  0  0  0  0  0  0  0  0  0  0  0
  159.5500  209.2440  154.9640 C   0  0  0  0  0  2  0  0  0  0  0  0
  159.3710  212.0890  157.2610 O   0  0  0  0  0  0  0  0  0  0  0  0
  157.5700  211.2380  155.9660 C   0  0  0  0  0  1  0  0  0  0  0  0
  158.9910  211.2360  156.4170 C   0  0  0  0  0  0  0  0  0  0  0  0
  159.9270  210.2900  155.9030 N   0  0  0  0  0  2  0  0  0  0  0  0
  162.3050  206.5700  152.7810 O   0  0  0  0  0  0  0  0  0  0  0  0
  161.2660  201.4310  151.0130 C   0  0  0  0  0  1  0  0  0  0  0  0
  160.4520  202.7070  151.0870 C   0  0  1  0  0  3  0  0  0  0  0  0
  161.0390  204.6600  149.8810 C   0  0  0  0  0  0  0  0  0  0  0  0
  161.7940  206.8550  149.0650 C   0  0  0  0  0  3  0  0  0  0  0  0
  161.4110  205.0540  151.2150 C   0  0  0  0  0  0  0  0  0  0  0  0
  161.9470  206.2570  151.4610 C   0  0  0  0  0  0  0  0  0  0  0  0
  161.1090  203.7830  152.4260 S   0  0  0  0  0  0  0  0  0  0  0  0
  160.5440  203.4390  149.7840 C   0  0  0  0  0  3  0  0  0  0  0  0
  162.6740  208.4740  150.5160 O   0  0  0  0  0  1  0  0  0  0  0  0
  161.2300  205.5630  148.7830 N   0  0  0  0  0  0  0  0  0  0  0  0
  162.1410  207.2060  150.3140 C   0  0  0  0  0  0  0  0  0  0  0  0
  161.9130  205.5230  144.8820 C   0  0  1  0  0  3  0  0  0  0  0  0
  160.5720  206.2030  145.0770 C   0  0  0  0  0  2  0  0  0  0  0  0
  161.8360  204.3950  146.8110 O   0  0  0  0  0  0  0  0  0  0  0  0
  160.8330  205.2090  147.4240 C   0  0  2  0  0  3  0  0  0  0  0  0
  160.4760  206.4980  146.6000 C   0  0  0  0  0  2  0  0  0  0  0  0
  161.3770  204.2560  145.5000 C   0  0  2  0  0  3  0  0  0  0  0  0
  162.2790  204.2190  144.4610 O   0  0  0  0  0  0  0  0  0  0  0  0
  1 21  1  6  0  0  0
  2  3  1  0  0  0  0
  2  1  1  0  0  0  0
  3 16  1  0  0  0  0
  4  2  1  0  0  0  0
  4  3  1  0  0  0  0
  4  1  1  0  0  0  0
  5  9  1  0  0  0  0
  5  3  1  0  0  0  0
  6  8  1  0  0  0  0
  6 13  1  0  0  0  0
  7 14  1  0  0  0  0
  8  9  2  0  0  0  0
 10  6  1  0  0  0  0
 11  8  1  0  0  0  0
 12  5  2  0  0  0  0
 14 10  2  0  0  0  0
 14 11  1  0  0  0  0
 15 11  2  0  0  0  0
 15 12  1  0  0  0  0
 16 20  1  0  0  0  0
 18 19  1  0  0  0  0
 19 17  2  0  0  0  0
 20 19  1  0  0  0  0
 22 23  1  0  0  0  0
 23 28  1  0  0  0  0
 24 26  1  0  0  0  0
 25 32  2  0  0  0  0
 26 27  2  0  0  0  0
 26 28  1  0  0  0  0
 27 21  1  0  0  0  0
 29 24  2  0  0  0  0
 29 23  1  0  0  0  0
 31 25  1  0  0  0  0
 31 24  1  0  0  0  0
 32 30  1  0  0  0  0
 32 27  1  0  0  0  0
 33 34  1  0  0  0  0
 33 38  1  0  0  0  0
 34 37  1  0  0  0  0
 35 36  1  0  0  0  0
 36 31  1  0  0  0  0
 37 36  1  0  0  0  0
 38 35  1  0  0  0  0
 39 33  1  0  0  0  0
 39 38  1  0  0  0  0
M  END
>  <MODEL>
6

>  <REMARK>
 VINA RESULT:      -6.5      4.109      6.716
  Name = 
  6 active torsions:
  status: ('A' for Active; 'I' for Inactive)
    1  A    between atoms: C_1  and  C_15
    2  A    between atoms: C_5  and  O_32
    3  A    between atoms: C_15  and  C_22
    4  A    between atoms: C_21  and  O_32
    5  A    between atoms: C_22  and  N_36
    6  A    between atoms: C_23  and  N_38
                            x       y       z     vdW  Elec       q    Type
                         _______ _______ _______ _____ _____    ______ ____

>  <TORSDO>
F 6

$$$$
=
 OpenBabel11042421183D

 39 46  0  0  1  0  0  0  0  0999 V2000
  161.7640  207.7870  152.0780 C   0  0  1  0  0  3  0  0  0  0  0  0
  160.8890  207.2940  151.0230 C   0  0  2  0  0  3  0  0  0  0  0  0
  161.3430  205.9800  150.5890 C   0  0  2  0  0  0  0  0  0  0  0  0
  162.3460  206.9780  150.9920 N   0  0  2  0  0  0  0  0  0  0  0  0
  161.3210  205.7170  149.1100 C   0  0  0  0  0  0  0  0  0  0  0  0
  161.2090  203.1000  146.6040 N   0  0  0  0  0  0  0  0  0  0  0  0
  161.3390  205.4570  143.8720 C   0  0  0  0  0  1  0  0  0  0  0  0
  161.2590  204.2520  147.2900 C   0  0  0  0  0  0  0  0  0  0  0  0
  161.2600  204.4320  148.6320 N   0  0  0  0  0  0  0  0  0  0  0  0
  161.2290  203.3810  145.3030 N   0  0  0  0  0  0  0  0  0  0  0  0
  161.3150  205.2910  146.4280 C   0  0  0  0  0  0  0  0  0  0  0  0
  161.3960  206.8040  148.1960 C   0  0  0  0  0  3  0  0  0  0  0  0
  161.1420  201.7570  147.1530 C   0  0  0  0  0  1  0  0  0  0  0  0
  161.2970  204.7330  145.1710 C   0  0  0  0  0  0  0  0  0  0  0  0
  161.3890  206.5760  146.8460 N   0  0  0  0  0  0  0  0  0  0  0  0
  161.2350  204.8260  151.5820 C   0  0  0  0  0  2  0  0  0  0  0  0
  160.3280  201.4490  150.4980 O   0  0  0  0  0  0  0  0  0  0  0  0
  162.3410  202.0550  151.6050 C   0  0  0  0  0  1  0  0  0  0  0  0
  161.0160  202.3760  151.0010 C   0  0  0  0  0  0  0  0  0  0  0  0
  160.5200  203.7130  150.9760 N   0  0  0  0  0  2  0  0  0  0  0  0
  162.0580  209.1570  151.8550 O   0  0  0  0  0  0  0  0  0  0  0  0
  161.6410  213.8820  149.0080 C   0  0  0  0  0  1  0  0  0  0  0  0
  160.6690  212.7780  149.3690 C   0  0  1  0  0  3  0  0  0  0  0  0
  160.0920  212.2780  151.6120 C   0  0  0  0  0  0  0  0  0  0  0  0
  159.7820  211.3670  153.8770 C   0  0  0  0  0  3  0  0  0  0  0  0
  160.9430  211.1570  151.3040 C   0  0  0  0  0  0  0  0  0  0  0  0
  161.2060  210.2110  152.2160 C   0  0  0  0  0  0  0  0  0  0  0  0
  161.5880  211.2090  149.6440 S   0  0  0  0  0  0  0  0  0  0  0  0
  159.9390  213.1420  150.6250 C   0  0  0  0  0  3  0  0  0  0  0  0
  160.8050  209.3680  154.5540 O   0  0  0  0  0  1  0  0  0  0  0  0
  159.5010  212.3970  152.9130 N   0  0  0  0  0  0  0  0  0  0  0  0
  160.5820  210.3300  153.5760 C   0  0  0  0  0  0  0  0  0  0  0  0
  156.0360  213.7490  154.2740 C   0  0  1  0  0  3  0  0  0  0  0  0
  156.2130  214.3390  152.8880 C   0  0  0  0  0  2  0  0  0  0  0  0
  158.2200  213.4240  154.6230 O   0  0  0  0  0  0  0  0  0  0  0  0
  158.6080  213.5010  153.2490 C   0  0  2  0  0  3  0  0  0  0  0  0
  157.3940  213.5520  152.2530 C   0  0  0  0  0  2  0  0  0  0  0  0
  157.2830  214.4520  154.7480 C   0  0  2  0  0  3  0  0  0  0  0  0
  156.1970  214.2870  155.5760 O   0  0  0  0  0  0  0  0  0  0  0  0
  1 21  1  6  0  0  0
  2  1  1  0  0  0  0
  3  4  1  0  0  0  0
  3  2  1  0  0  0  0
  3 16  1  0  0  0  0
  4  2  1  0  0  0  0
  4  1  1  0  0  0  0
  5  3  1  0  0  0  0
  6 13  1  0  0  0  0
  6  8  1  0  0  0  0
  7 14  1  0  0  0  0
  8  9  2  0  0  0  0
  9  5  1  0  0  0  0
 10  6  1  0  0  0  0
 11 15  2  0  0  0  0
 11  8  1  0  0  0  0
 12  5  2  0  0  0  0
 14 10  2  0  0  0  0
 14 11  1  0  0  0  0
 15 12  1  0  0  0  0
 17 19  2  0  0  0  0
 19 18  1  0  0  0  0
 20 19  1  0  0  0  0
 20 16  1  0  0  0  0
 21 27  1  0  0  0  0
 22 23  1  0  0  0  0
 23 28  1  0  0  0  0
 23 29  1  0  0  0  0
 24 31  1  0  0  0  0
 26 24  1  0  0  0  0
 26 27  2  0  0  0  0
 27 32  1  0  0  0  0
 28 26  1  0  0  0  0
 29 24  2  0  0  0  0
 31 36  1  0  0  0  0
 31 25  1  0  0  0  0
 32 25  2  0  0  0  0
 32 30  1  0  0  0  0
 33 38  1  0  0  0  0
 33 39  1  0  0  0  0
 34 33  1  0  0  0  0
 35 38  1  0  0  0  0
 36 35  1  0  0  0  0
 37 34  1  0  0  0  0
 37 36  1  0  0  0  0
 38 39  1  0  0  0  0
M  END
>  <MODEL>
7

>  <REMARK>
 VINA RESULT:      -6.4      3.943      8.639
  Name = 
  6 active torsions:
  status: ('A' for Active; 'I' for Inactive)
    1  A    between atoms: C_1  and  C_15
    2  A    between atoms: C_5  and  O_32
    3  A    between atoms: C_15  and  C_22
    4  A    between atoms: C_21  and  O_32
    5  A    between atoms: C_22  and  N_36
    6  A    between atoms: C_23  and  N_38
                            x       y       z     vdW  Elec       q    Type
                         _______ _______ _______ _____ _____    ______ ____

>  <TORSDO>
F 6

$$$$
=
 OpenBabel11042421183D

 39 46  0  0  1  0  0  0  0  0999 V2000
  162.0100  208.4620  148.6150 C   0  0  1  0  0  3  0  0  0  0  0  0
  162.4930  207.1940  148.0870 C   0  0  2  0  0  3  0  0  0  0  0  0
  161.3750  206.4380  147.5400 C   0  0  2  0  0  0  0  0  0  0  0  0
  161.1500  207.2720  148.7320 N   0  0  2  0  0  0  0  0  0  0  0  0
  161.3550  204.9630  147.8300 C   0  0  0  0  0  0  0  0  0  0  0  0
  160.8010  202.4980  150.4290 N   0  0  0  0  0  0  0  0  0  0  0  0
  161.5130  199.7360  148.2160 C   0  0  0  0  0  1  0  0  0  0  0  0
  161.0610  203.1670  149.2950 C   0  0  0  0  0  0  0  0  0  0  0  0
  161.0490  204.5050  149.0860 N   0  0  0  0  0  0  0  0  0  0  0  0
  160.9260  201.1940  150.1900 N   0  0  0  0  0  0  0  0  0  0  0  0
  161.3610  202.2910  148.3110 C   0  0  0  0  0  0  0  0  0  0  0  0
  161.6850  204.0350  146.8040 C   0  0  0  0  0  3  0  0  0  0  0  0
  160.4390  203.0660  151.7160 C   0  0  0  0  0  1  0  0  0  0  0  0
  161.2750  201.0430  148.8840 C   0  0  0  0  0  0  0  0  0  0  0  0
  161.6820  202.6900  147.0580 N   0  0  0  0  0  0  0  0  0  0  0  0
  160.6800  206.9910  146.2990 C   0  0  0  0  0  2  0  0  0  0  0  0
  159.6770  204.3230  144.0030 O   0  0  0  0  0  0  0  0  0  0  0  0
  161.6630  205.6180  143.8400 C   0  0  0  0  0  1  0  0  0  0  0  0
  160.3720  205.2520  144.4910 C   0  0  0  0  0  0  0  0  0  0  0  0
  159.9090  205.9420  145.6510 N   0  0  0  0  0  2  0  0  0  0  0  0
  162.6230  208.7260  149.8660 O   0  0  0  0  0  0  0  0  0  0  0  0
  160.5730  205.5670  153.9190 C   0  0  0  0  0  1  0  0  0  0  0  0
  161.6090  206.6710  153.8630 C   0  0  1  0  0  3  0  0  0  0  0  0
  161.0690  208.8860  153.2160 C   0  0  0  0  0  0  0  0  0  0  0  0
  160.7360  211.0670  152.1270 C   0  0  0  0  0  3  0  0  0  0  0  0
  161.7750  208.4350  152.0440 C   0  0  0  0  0  0  0  0  0  0  0  0
  161.9430  209.2350  150.9830 C   0  0  0  0  0  0  0  0  0  0  0  0
  162.3380  206.7510  152.1760 S   0  0  0  0  0  0  0  0  0  0  0  0
  160.9600  207.9850  154.1760 C   0  0  0  0  0  3  0  0  0  0  0  0
  161.5550  211.5080  149.9730 O   0  0  0  0  0  1  0  0  0  0  0  0
  160.5360  210.2160  153.2680 N   0  0  0  0  0  0  0  0  0  0  0  0
  161.3920  210.6300  151.0390 C   0  0  0  0  0  0  0  0  0  0  0  0
  159.1320  213.2150  155.4420 C   0  0  1  0  0  3  0  0  0  0  0  0
  160.0690  212.4330  156.3430 C   0  0  0  0  0  2  0  0  0  0  0  0
  158.7110  211.5000  154.0700 O   0  0  0  0  0  0  0  0  0  0  0  0
  159.8440  210.7170  154.4520 C   0  0  2  0  0  3  0  0  0  0  0  0
  160.8460  211.4740  155.3970 C   0  0  0  0  0  2  0  0  0  0  0  0
  158.2460  212.0040  155.2870 C   0  0  2  0  0  3  0  0  0  0  0  0
  157.7180  213.2730  155.3430 O   0  0  0  0  0  0  0  0  0  0  0  0
  1  4  1  0  0  0  0
  1 21  1  1  0  0  0
  2  1  1  0  0  0  0
  2  4  1  0  0  0  0
  3  5  1  0  0  0  0
  3  2  1  0  0  0  0
  3  4  1  0  0  0  0
  5  9  1  0  0  0  0
  6 13  1  0  0  0  0
  7 14  1  0  0  0  0
  8  6  1  0  0  0  0
  9  8  2  0  0  0  0
 10  6  1  0  0  0  0
 11 14  1  0  0  0  0
 11  8  1  0  0  0  0
 12 15  1  0  0  0  0
 12  5  2  0  0  0  0
 14 10  2  0  0  0  0
 15 11  2  0  0  0  0
 16  3  1  0  0  0  0
 17 19  2  0  0  0  0
 18 19  1  0  0  0  0
 19 20  1  0  0  0  0
 20 16  1  0  0  0  0
 21 27  1  0  0  0  0
 23 22  1  0  0  0  0
 23 29  1  0  0  0  0
 24 31  1  0  0  0  0
 24 29  2  0  0  0  0
 25 31  1  0  0  0  0
 26 28  1  0  0  0  0
 26 24  1  0  0  0  0
 27 32  1  0  0  0  0
 27 26  2  0  0  0  0
 28 23  1  0  0  0  0
 30 32  1  0  0  0  0
 31 36  1  0  0  0  0
 32 25  2  0  0  0  0
 33 34  1  0  0  0  0
 35 36  1  0  0  0  0
 35 38  1  0  0  0  0
 36 37  1  0  0  0  0
 37 34  1  0  0  0  0
 38 39  1  0  0  0  0
 38 33  1  0  0  0  0
 39 33  1  0  0  0  0
M  END
>  <MODEL>
8

>  <REMARK>
 VINA RESULT:      -6.2      4.549      8.594
  Name = 
  6 active torsions:
  status: ('A' for Active; 'I' for Inactive)
    1  A    between atoms: C_1  and  C_15
    2  A    between atoms: C_5  and  O_32
    3  A    between atoms: C_15  and  C_22
    4  A    between atoms: C_21  and  O_32
    5  A    between atoms: C_22  and  N_36
    6  A    between atoms: C_23  and  N_38
                            x       y       z     vdW  Elec       q    Type
                         _______ _______ _______ _____ _____    ______ ____

>  <TORSDO>
F 6

$$$$
=
 OpenBabel11042421183D

 39 46  0  0  1  0  0  0  0  0999 V2000
  161.5230  207.0360  152.1090 C   0  0  1  0  0  3  0  0  0  0  0  0
  160.6950  206.9230  150.9170 C   0  0  2  0  0  3  0  0  0  0  0  0
  160.7470  205.5560  150.4160 C   0  0  2  0  0  0  0  0  0  0  0  0
  161.9550  206.1320  151.0290 N   0  0  2  0  0  0  0  0  0  0  0  0
  160.8530  205.3890  148.9270 C   0  0  0  0  0  0  0  0  0  0  0  0
  161.1990  202.9450  146.2720 N   0  0  0  0  0  0  0  0  0  0  0  0
  161.2450  205.4750  143.6980 C   0  0  0  0  0  1  0  0  0  0  0  0
  161.0750  204.0480  147.0260 C   0  0  0  0  0  0  0  0  0  0  0  0
  160.9670  204.1390  148.3730 N   0  0  0  0  0  0  0  0  0  0  0  0
  161.2730  203.3110  144.9940 N   0  0  0  0  0  0  0  0  0  0  0  0
  161.0720  205.1410  146.2310 C   0  0  0  0  0  0  0  0  0  0  0  0
  160.8660  206.5350  148.0850 C   0  0  0  0  0  3  0  0  0  0  0  0
  161.2470  201.5690  146.7370 C   0  0  0  0  0  1  0  0  0  0  0  0
  161.1990  204.6680  144.9460 C   0  0  0  0  0  0  0  0  0  0  0  0
  160.9730  206.3970  146.7270 N   0  0  0  0  0  0  0  0  0  0  0  0
  160.1230  204.4590  151.2750 C   0  0  0  0  0  2  0  0  0  0  0  0
  162.4250  201.7080  152.0070 O   0  0  0  0  0  0  0  0  0  0  0  0
  160.7010  201.6750  150.3730 C   0  0  0  0  0  1  0  0  0  0  0  0
  161.4800  202.3350  151.4590 C   0  0  0  0  0  0  0  0  0  0  0  0
  161.1670  203.6570  151.8940 N   0  0  0  0  0  2  0  0  0  0  0  0
  162.2810  208.2330  152.0550 O   0  0  0  0  0  0  0  0  0  0  0  0
  158.4300  211.9590  153.4340 C   0  0  0  0  0  1  0  0  0  0  0  0
  159.9190  212.0300  153.1650 C   0  0  1  0  0  3  0  0  0  0  0  0
  160.8560  211.4940  151.0550 C   0  0  0  0  0  0  0  0  0  0  0  0
  161.9740  210.5260  149.0880 C   0  0  0  0  0  3  0  0  0  0  0  0
  161.2490  210.3380  151.8190 C   0  0  0  0  0  0  0  0  0  0  0  0
  161.9470  209.3390  151.2590 C   0  0  0  0  0  0  0  0  0  0  0  0
  160.6890  210.3950  153.5080 S   0  0  0  0  0  0  0  0  0  0  0  0
  160.1540  212.3880  151.7290 C   0  0  0  0  0  3  0  0  0  0  0  0
  163.0690  208.4540  149.1870 O   0  0  0  0  0  1  0  0  0  0  0  0
  161.2140  211.5990  149.6710 N   0  0  0  0  0  0  0  0  0  0  0  0
  162.3290  209.4520  149.8120 C   0  0  0  0  0  0  0  0  0  0  0  0
  160.8790  213.4350  146.1770 C   0  0  1  0  0  3  0  0  0  0  0  0
  161.7680  214.3110  147.0390 C   0  0  0  0  0  2  0  0  0  0  0  0
  159.8720  212.4290  147.9010 O   0  0  0  0  0  0  0  0  0  0  0  0
  160.8600  212.7720  148.8770 C   0  0  2  0  0  3  0  0  0  0  0  0
  162.1480  213.4330  148.2650 C   0  0  0  0  0  2  0  0  0  0  0  0
  159.7420  213.6020  147.1540 C   0  0  2  0  0  3  0  0  0  0  0  0
  159.5150  213.5250  145.7990 O   0  0  0  0  0  0  0  0  0  0  0  0
  1 21  1  6  0  0  0
  2  4  1  0  0  0  0
  2  1  1  0  0  0  0
  3  2  1  0  0  0  0
  3  4  1  0  0  0  0
  3 16  1  0  0  0  0
  4  1  1  0  0  0  0
  5  3  1  0  0  0  0
  6 13  1  0  0  0  0
  6  8  1  0  0  0  0
  7 14  1  0  0  0  0
  8  9  2  0  0  0  0
  9  5  1  0  0  0  0
 10  6  1  0  0  0  0
 11 15  2  0  0  0  0
 11  8  1  0  0  0  0
 12  5  2  0  0  0  0
 14 10  2  0  0  0  0
 14 11  1  0  0  0  0
 15 12  1  0  0  0  0
 16 20  1  0  0  0  0
 18 19  1  0  0  0  0
 19 20  1  0  0  0  0
 19 17  2  0  0  0  0
 23 22  1  0  0  0  0
 23 28  1  0  0  0  0
 24 29  2  0  0  0  0
 24 26  1  0  0  0  0
 25 31  1  0  0  0  0
 25 32  2  0  0  0  0
 26 28  1  0  0  0  0
 27 26  2  0  0  0  0
 27 21  1  0  0  0  0
 29 23  1  0  0  0  0
 30 32  1  0  0  0  0
 31 24  1  0  0  0  0
 32 27  1  0  0  0  0
 33 34  1  0  0  0  0
 33 38  1  0  0  0  0
 34 37  1  0  0  0  0
 35 36  1  0  0  0  0
 36 31  1  0  0  0  0
 37 36  1  0  0  0  0
 38 35  1  0  0  0  0
 39 33  1  0  0  0  0
 39 38  1  0  0  0  0
M  END
>  <MODEL>
9

>  <REMARK>
 VINA RESULT:      -6.1      2.940      8.263
  Name = 
  6 active torsions:
  status: ('A' for Active; 'I' for Inactive)
    1  A    between atoms: C_1  and  C_15
    2  A    between atoms: C_5  and  O_32
    3  A    between atoms: C_15  and  C_22
    4  A    between atoms: C_21  and  O_32
    5  A    between atoms: C_22  and  N_36
    6  A    between atoms: C_23  and  N_38
                            x       y       z     vdW  Elec       q    Type
                         _______ _______ _______ _____ _____    ______ ____

>  <TORSDO>
F 6

$$$$
