=
 OpenBabel11052409343D

 44 47  0  0  1  0  0  0  0  0999 V2000
  160.4440  209.7720  155.0020 O   0  0  0  0  0  1  0  0  0  0  0  0
  160.9850  209.3690  153.8260 N   0  0  0  0  0  0  0  0  0  0  0  0
  159.8290  211.6420  152.0190 C   0  0  1  0  0  3  0  0  0  0  0  0
  161.7060  207.1800  154.8370 C   0  0  0  0  0  1  0  0  0  0  0  0
  160.9970  206.6050  147.7460 C   0  0  0  0  0  0  0  0  0  0  0  0
  159.8340  212.8910  151.1450 C   0  0  0  0  0  2  0  0  0  0  0  0
  161.0840  207.3680  152.4580 C   0  0  0  0  0  0  0  0  0  0  0  0
  160.5190  208.0920  151.2670 C   0  0  0  0  0  2  0  0  0  0  0  0
  161.2580  207.9720  153.6460 C   0  0  0  0  0  0  0  0  0  0  0  0
  161.6800  210.0270  148.7540 C   0  0  0  0  0  0  0  0  0  0  0  0
  160.8120  207.7060  148.7470 C   0  0  2  0  0  3  0  0  0  0  0  0
  162.0630  208.5850  148.7800 C   0  0  0  0  0  2  0  0  0  0  0  0
  161.8960  212.2820  149.8360 C   0  0  2  0  0  3  0  0  0  0  0  0
  160.9060  210.4500  147.8500 O   0  0  0  0  0  0  0  0  0  0  0  0
  161.0210  211.6810  152.9690 C   0  0  0  0  0  2  0  0  0  0  0  0
  160.6030  206.7580  146.6010 O   0  0  0  0  0  0  0  0  0  0  0  0
  161.2790  205.9250  150.4620 C   0  0  0  0  0  0  0  0  0  0  0  0
  161.7310  210.3380  153.0270 C   0  0  0  0  0  2  0  0  0  0  0  0
  160.4330  207.1050  150.1080 C   0  0  1  0  0  3  0  0  0  0  0  0
  161.4900  205.6340  152.2040 S   0  0  0  0  0  0  0  0  0  0  0  0
  161.6890  205.3190  148.1430 C   0  0  2  0  0  3  0  0  0  0  0  0
  162.1710  210.8780  149.7510 O   0  0  0  0  0  0  0  0  0  0  0  0
  160.4050  212.6040  149.7650 C   0  0  0  0  0  2  0  0  0  0  0  0
  161.8350  205.1640  149.5840 N   0  0  0  0  0  0  0  0  0  0  0  0
  158.5020  211.5280  152.7750 C   0  0  0  0  0  2  0  0  0  0  0  0
  158.3190  212.6450  153.8010 C   0  0  0  0  0  2  0  0  0  0  0  0
  157.5690  212.1440  154.9910 C   0  0  0  0  0  3  0  0  0  0  0  0
  157.2380  210.9690  155.0750 O   0  0  0  0  0  0  0  0  0  0  0  0
  163.0570  205.2220  147.4870 C   0  0  0  0  0  2  0  0  0  0  0  0
  162.9190  205.1380  145.9790 C   0  0  0  0  0  2  0  0  0  0  0  0
  162.0890  202.4230  146.4360 S   0  0  0  0  0  0  0  0  0  0  0  0
  162.0270  203.9980  145.6070 C   0  0  1  0  0  3  0  0  0  0  0  0
  160.4570  201.9980  145.7100 C   0  0  1  0  0  3  0  0  0  0  0  0
  158.9130  203.2890  144.4070 O   0  0  0  0  0  1  0  0  0  0  0  0
  160.2510  202.9070  144.4890 C   0  0  1  0  0  3  0  0  0  0  0  0
  161.0880  204.1190  144.6860 C   0  0  0  0  0  2  0  0  0  0  0  0
  160.3630  200.5490  145.4190 N   0  0  0  0  0  0  0  0  0  0  0  0
  159.7200  200.1610  144.1660 C   0  0  0  0  0  1  0  0  0  0  0  0
  161.1190  199.5270  146.1150 C   0  0  0  0  0  0  0  0  0  0  0  0
  161.6510  199.7530  147.2340 O   0  0  0  0  0  0  0  0  0  0  0  0
  161.2730  198.1590  145.5380 C   0  0  0  0  0  1  0  0  0  0  0  0
  162.7520  213.1210  148.8860 C   0  0  0  0  0  2  0  0  0  0  0  0
  162.3460  213.3740  146.4550 C   0  0  0  0  0  1  0  0  0  0  0  0
  161.9350  213.8530  147.8350 C   0  0  0  0  0  2  0  0  0  0  0  0
  2  1  1  0  0  0  0
  3 25  1  1  0  0  0
  3 15  1  0  0  0  0
  5 21  1  0  0  0  0
  5 11  1  0  0  0  0
  6  3  1  0  0  0  0
  7  9  2  0  0  0  0
  8  7  1  0  0  0  0
  9  2  1  0  0  0  0
  9  4  1  0  0  0  0
 10 12  1  0  0  0  0
 10 22  1  0  0  0  0
 11 12  1  1  0  0  0
 11 19  1  0  0  0  0
 13 42  1  6  0  0  0
 14 10  2  0  0  0  0
 15 18  1  0  0  0  0
 16  5  2  0  0  0  0
 17 20  1  0  0  0  0
 18  2  1  0  0  0  0
 19 17  1  0  0  0  0
 19  8  1  1  0  0  0
 20  7  1  0  0  0  0
 21 29  1  6  0  0  0
 21 24  1  0  0  0  0
 22 13  1  0  0  0  0
 23 13  1  0  0  0  0
 23  6  1  0  0  0  0
 24 17  2  0  0  0  0
 25 26  1  0  0  0  0
 26 27  1  0  0  0  0
 27 28  2  0  0  0  0
 30 29  1  0  0  0  0
 32 30  1  1  0  0  0
 32 31  1  0  0  0  0
 33 37  1  6  0  0  0
 33 31  1  0  0  0  0
 35 34  1  1  0  0  0
 35 36  1  0  0  0  0
 35 33  1  0  0  0  0
 36 32  1  0  0  0  0
 37 39  1  0  0  0  0
 38 37  1  0  0  0  0
 39 40  2  0  0  0  0
 41 39  1  0  0  0  0
 43 44  1  0  0  0  0
 44 42  1  0  0  0  0
M  END
>  <MODEL>
1

>  <REMARK>
 VINA RESULT:      -1.8      0.000      0.000
  Name = 
  9 active torsions:
  status: ('A' for Active; 'I' for Inactive)
    1  A    between atoms: N_2  and  C_27
    2  A    between atoms: C_5  and  C_11
    3  A    between atoms: C_10  and  C_17
    4  A    between atoms: C_10  and  C_24
    5  A    between atoms: C_11  and  C_13
    6  A    between atoms: C_13  and  C_14
    7  A    between atoms: C_23  and  C_38
    8  A    between atoms: C_24  and  C_39
    9  A    between atoms: C_34  and  C_38
                            x       y       z     vdW  Elec       q    Type
                         _______ _______ _______ _____ _____    ______ ____

>  <TORSDO>
F 9

$$$$
=
 OpenBabel11052409343D

 44 47  0  0  1  0  0  0  0  0999 V2000
  159.3680  214.4500  152.0200 O   0  0  0  0  0  1  0  0  0  0  0  0
  159.3450  213.1180  152.2710 N   0  0  0  0  0  0  0  0  0  0  0  0
  158.4340  213.2590  155.2580 C   0  0  1  0  0  3  0  0  0  0  0  0
  160.4970  212.6240  150.0900 C   0  0  0  0  0  1  0  0  0  0  0  0
  161.5690  207.3470  154.7920 C   0  0  0  0  0  0  0  0  0  0  0  0
  157.5110  213.1060  156.4610 C   0  0  0  0  0  2  0  0  0  0  0  0
  160.8220  211.2040  152.0780 C   0  0  0  0  0  0  0  0  0  0  0  0
  160.6760  210.8790  153.5390 C   0  0  0  0  0  2  0  0  0  0  0  0
  160.2230  212.2690  151.5190 C   0  0  0  0  0  0  0  0  0  0  0  0
  158.5170  209.1820  155.5050 C   0  0  0  0  0  0  0  0  0  0  0  0
  160.8360  208.6560  154.8100 C   0  0  2  0  0  3  0  0  0  0  0  0
  159.3510  208.4150  154.5350 C   0  0  0  0  0  2  0  0  0  0  0  0
  156.6480  210.8250  155.8360 C   0  0  2  0  0  3  0  0  0  0  0  0
  158.7280  209.0560  156.7440 O   0  0  0  0  0  0  0  0  0  0  0  0
  157.6000  213.4000  153.9900 C   0  0  0  0  0  2  0  0  0  0  0  0
  161.7410  206.7370  155.8350 O   0  0  0  0  0  0  0  0  0  0  0  0
  161.8300  208.9920  152.5240 C   0  0  0  0  0  0  0  0  0  0  0  0
  158.1440  212.5360  152.8650 C   0  0  0  0  0  2  0  0  0  0  0  0
  161.5050  209.6330  153.8340 C   0  0  1  0  0  3  0  0  0  0  0  0
  161.8680  210.0920  151.1270 S   0  0  0  0  0  0  0  0  0  0  0  0
  162.0750  206.7720  153.4860 C   0  0  2  0  0  3  0  0  0  0  0  0
  157.5290  210.0450  155.0180 O   0  0  0  0  0  0  0  0  0  0  0  0
  157.3860  211.6520  156.8880 C   0  0  0  0  0  2  0  0  0  0  0  0
  162.0610  207.7320  152.3900 N   0  0  0  0  0  0  0  0  0  0  0  0
  159.3730  214.4530  155.4570 C   0  0  0  0  0  2  0  0  0  0  0  0
  160.4180  214.1970  156.5410 C   0  0  0  0  0  2  0  0  0  0  0  0
  160.3730  212.7720  156.9850 C   0  0  0  0  0  3  0  0  0  0  0  0
  161.3500  212.0460  156.8660 O   0  0  0  0  0  0  0  0  0  0  0  0
  161.2660  205.5480  153.0910 C   0  0  0  0  0  2  0  0  0  0  0  0
  160.5320  205.7940  151.7870 C   0  0  0  0  0  2  0  0  0  0  0  0
  160.8410  204.7650  149.1200 S   0  0  0  0  0  0  0  0  0  0  0  0
  160.6730  204.6100  150.8860 C   0  0  1  0  0  3  0  0  0  0  0  0
  161.4300  203.0280  149.0420 C   0  0  1  0  0  3  0  0  0  0  0  0
  161.9420  201.4450  150.7700 O   0  0  0  0  0  1  0  0  0  0  0  0
  160.9600  202.3300  150.3280 C   0  0  1  0  0  3  0  0  0  0  0  0
  160.7560  203.3800  151.3600 C   0  0  0  0  0  2  0  0  0  0  0  0
  160.9900  202.3700  147.7910 N   0  0  0  0  0  0  0  0  0  0  0  0
  159.9200  201.3820  147.8980 C   0  0  0  0  0  1  0  0  0  0  0  0
  161.3150  202.8470  146.4620 C   0  0  0  0  0  0  0  0  0  0  0  0
  162.2670  203.6490  146.2670 O   0  0  0  0  0  0  0  0  0  0  0  0
  160.5450  202.3840  145.2700 C   0  0  0  0  0  1  0  0  0  0  0  0
  155.4770  210.0190  156.3990 C   0  0  0  0  0  2  0  0  0  0  0  0
  153.1280  210.1740  157.1710 C   0  0  0  0  0  1  0  0  0  0  0  0
  154.4760  210.8730  157.1590 C   0  0  0  0  0  2  0  0  0  0  0  0
  1  2  1  0  0  0  0
  2 18  1  0  0  0  0
  3 25  1  1  0  0  0
  3  6  1  0  0  0  0
  4  9  1  0  0  0  0
  5 11  1  0  0  0  0
  5 16  2  0  0  0  0
  6 23  1  0  0  0  0
  7  8  1  0  0  0  0
  9  7  2  0  0  0  0
  9  2  1  0  0  0  0
 10 14  2  0  0  0  0
 11 12  1  6  0  0  0
 12 10  1  0  0  0  0
 13 42  1  1  0  0  0
 13 23  1  0  0  0  0
 15  3  1  0  0  0  0
 17 19  1  0  0  0  0
 18 15  1  0  0  0  0
 19  8  1  6  0  0  0
 19 11  1  0  0  0  0
 20  7  1  0  0  0  0
 20 17  1  0  0  0  0
 21 29  1  6  0  0  0
 21  5  1  0  0  0  0
 22 10  1  0  0  0  0
 22 13  1  0  0  0  0
 24 17  2  0  0  0  0
 24 21  1  0  0  0  0
 25 26  1  0  0  0  0
 26 27  1  0  0  0  0
 28 27  2  0  0  0  0
 30 29  1  0  0  0  0
 31 32  1  0  0  0  0
 32 36  1  0  0  0  0
 32 30  1  1  0  0  0
 33 37  1  6  0  0  0
 33 31  1  0  0  0  0
 33 35  1  0  0  0  0
 35 34  1  1  0  0  0
 35 36  1  0  0  0  0
 37 38  1  0  0  0  0
 39 37  1  0  0  0  0
 40 39  2  0  0  0  0
 41 39  1  0  0  0  0
 42 44  1  0  0  0  0
 44 43  1  0  0  0  0
M  END
>  <MODEL>
2

>  <REMARK>
 VINA RESULT:      -1.4      2.767      6.316
  Name = 
  9 active torsions:
  status: ('A' for Active; 'I' for Inactive)
    1  A    between atoms: N_2  and  C_27
    2  A    between atoms: C_5  and  C_11
    3  A    between atoms: C_10  and  C_17
    4  A    between atoms: C_10  and  C_24
    5  A    between atoms: C_11  and  C_13
    6  A    between atoms: C_13  and  C_14
    7  A    between atoms: C_23  and  C_38
    8  A    between atoms: C_24  and  C_39
    9  A    between atoms: C_34  and  C_38
                            x       y       z     vdW  Elec       q    Type
                         _______ _______ _______ _____ _____    ______ ____

>  <TORSDO>
F 9

$$$$
=
 OpenBabel11052409343D

 44 47  0  0  1  0  0  0  0  0999 V2000
  162.2890  208.1770  146.9340 O   0  0  0  0  0  1  0  0  0  0  0  0
  162.3790  208.0060  148.2760 N   0  0  0  0  0  0  0  0  0  0  0  0
  160.7590  205.3400  148.4780 C   0  0  1  0  0  3  0  0  0  0  0  0
  163.3200  210.3210  148.5710 C   0  0  0  0  0  1  0  0  0  0  0  0
  160.2050  208.0480  154.5910 C   0  0  0  0  0  0  0  0  0  0  0  0
  160.5110  203.8530  148.6980 C   0  0  0  0  0  2  0  0  0  0  0  0
  161.9290  209.2560  150.3050 C   0  0  0  0  0  0  0  0  0  0  0  0
  161.0180  208.1800  150.8270 C   0  0  0  0  0  2  0  0  0  0  0  0
  162.5220  209.1700  149.1020 C   0  0  0  0  0  0  0  0  0  0  0  0
  161.3180  205.2760  152.5250 C   0  0  0  0  0  0  0  0  0  0  0  0
  160.4150  207.4760  153.2200 C   0  0  2  0  0  3  0  0  0  0  0  0
  161.6330  206.5510  153.2320 C   0  0  0  0  0  2  0  0  0  0  0  0
  161.9750  203.6430  150.7350 C   0  0  2  0  0  3  0  0  0  0  0  0
  160.2980  204.6120  152.8630 O   0  0  0  0  0  0  0  0  0  0  0  0
  162.2050  205.5570  148.0460 C   0  0  0  0  0  2  0  0  0  0  0  0
  159.4480  207.4900  155.3680 O   0  0  0  0  0  0  0  0  0  0  0  0
  161.3750  209.7340  152.6650 C   0  0  0  0  0  0  0  0  0  0  0  0
  162.8410  206.7190  148.7900 C   0  0  0  0  0  2  0  0  0  0  0  0
  160.5030  208.6150  152.1960 C   0  0  1  0  0  3  0  0  0  0  0  0
  162.1590  210.6810  151.3790 S   0  0  0  0  0  0  0  0  0  0  0  0
  160.9430  209.2980  155.0180 C   0  0  2  0  0  3  0  0  0  0  0  0
  162.1520  204.8520  151.4840 O   0  0  0  0  0  0  0  0  0  0  0  0
  160.5630  203.4890  150.1740 C   0  0  0  0  0  2  0  0  0  0  0  0
  161.5670  210.0070  153.9090 N   0  0  0  0  0  0  0  0  0  0  0  0
  159.7690  205.8990  147.4530 C   0  0  0  0  0  2  0  0  0  0  0  0
  160.4470  206.2920  146.1420 C   0  0  0  0  0  2  0  0  0  0  0  0
  160.3080  205.2010  145.1330 C   0  0  0  0  0  3  0  0  0  0  0  0
  161.2740  204.5290  144.7980 O   0  0  0  0  0  0  0  0  0  0  0  0
  161.9980  208.9680  156.0600 C   0  0  0  0  0  2  0  0  0  0  0  0
  161.8660  209.8850  157.2600 C   0  0  0  0  0  2  0  0  0  0  0  0
  159.1090  210.7010  157.2210 S   0  0  0  0  0  0  0  0  0  0  0  0
  160.8560  210.9520  156.9840 C   0  0  1  0  0  3  0  0  0  0  0  0
  158.8580  212.5180  157.1560 C   0  0  1  0  0  3  0  0  0  0  0  0
  160.4200  214.3360  157.0470 O   0  0  0  0  0  1  0  0  0  0  0  0
  160.0820  213.1220  156.4500 C   0  0  1  0  0  3  0  0  0  0  0  0
  161.2120  212.1700  156.6170 C   0  0  0  0  0  2  0  0  0  0  0  0
  157.5600  212.8560  156.5290 N   0  0  0  0  0  0  0  0  0  0  0  0
  156.7290  213.8460  157.2090 C   0  0  0  0  0  1  0  0  0  0  0  0
  157.2030  212.5220  155.1640 C   0  0  0  0  0  0  0  0  0  0  0  0
  157.8220  211.6330  154.5240 O   0  0  0  0  0  0  0  0  0  0  0  0
  156.0680  213.2070  154.4790 C   0  0  0  0  0  1  0  0  0  0  0  0
  162.4850  202.4020  151.4670 C   0  0  0  0  0  2  0  0  0  0  0  0
  161.4780  200.8000  149.8670 C   0  0  0  0  0  1  0  0  0  0  0  0
  161.5590  201.2050  151.3280 C   0  0  0  0  0  2  0  0  0  0  0  0
  1  2  1  0  0  0  0
  2 18  1  0  0  0  0
  2  9  1  0  0  0  0
  3 25  1  6  0  0  0
  3  6  1  0  0  0  0
  4  9  1  0  0  0  0
  5 21  1  0  0  0  0
  5 16  2  0  0  0  0
  6 23  1  0  0  0  0
  7  8  1  0  0  0  0
  7 20  1  0  0  0  0
  9  7  2  0  0  0  0
 10 14  2  0  0  0  0
 10 12  1  0  0  0  0
 11 12  1  1  0  0  0
 11  5  1  0  0  0  0
 13 42  1  1  0  0  0
 13 22  1  0  0  0  0
 15  3  1  0  0  0  0
 15 18  1  0  0  0  0
 17 24  2  0  0  0  0
 19  8  1  6  0  0  0
 19 17  1  0  0  0  0
 19 11  1  0  0  0  0
 20 17  1  0  0  0  0
 21 29  1  1  0  0  0
 22 10  1  0  0  0  0
 23 13  1  0  0  0  0
 24 21  1  0  0  0  0
 26 25  1  0  0  0  0
 27 26  1  0  0  0  0
 28 27  2  0  0  0  0
 29 30  1  0  0  0  0
 32 31  1  0  0  0  0
 32 30  1  1  0  0  0
 33 37  1  6  0  0  0
 33 31  1  0  0  0  0
 35 36  1  0  0  0  0
 35 34  1  1  0  0  0
 35 33  1  0  0  0  0
 36 32  1  0  0  0  0
 37 38  1  0  0  0  0
 39 37  1  0  0  0  0
 40 39  2  0  0  0  0
 41 39  1  0  0  0  0
 43 44  1  0  0  0  0
 44 42  1  0  0  0  0
M  END
>  <MODEL>
3

>  <REMARK>
 VINA RESULT:      -0.2      3.320     10.715
  Name = 
  9 active torsions:
  status: ('A' for Active; 'I' for Inactive)
    1  A    between atoms: N_2  and  C_27
    2  A    between atoms: C_5  and  C_11
    3  A    between atoms: C_10  and  C_17
    4  A    between atoms: C_10  and  C_24
    5  A    between atoms: C_11  and  C_13
    6  A    between atoms: C_13  and  C_14
    7  A    between atoms: C_23  and  C_38
    8  A    between atoms: C_24  and  C_39
    9  A    between atoms: C_34  and  C_38
                            x       y       z     vdW  Elec       q    Type
                         _______ _______ _______ _____ _____    ______ ____

>  <TORSDO>
F 9

$$$$
=
 OpenBabel11052409343D

 44 47  0  0  1  0  0  0  0  0999 V2000
  160.4410  200.8710  150.6290 O   0  0  0  0  0  1  0  0  0  0  0  0
  160.3240  202.2210  150.5790 N   0  0  0  0  0  0  0  0  0  0  0  0
  161.6900  202.6670  147.8030 C   0  0  1  0  0  3  0  0  0  0  0  0
  159.5970  202.3100  152.9850 C   0  0  0  0  0  1  0  0  0  0  0  0
  162.4390  208.5450  150.9480 C   0  0  0  0  0  0  0  0  0  0  0  0
  161.7990  203.0120  146.3230 C   0  0  0  0  0  2  0  0  0  0  0  0
  160.8700  204.1480  151.9470 C   0  0  0  0  0  0  0  0  0  0  0  0
  161.6740  204.7710  150.8390 C   0  0  0  0  0  2  0  0  0  0  0  0
  160.2820  202.9460  151.8150 C   0  0  0  0  0  0  0  0  0  0  0  0
  161.0930  206.6960  148.1260 C   0  0  0  0  0  0  0  0  0  0  0  0
  162.1890  207.2230  150.2850 C   0  0  2  0  0  3  0  0  0  0  0  0
  160.8910  207.2910  149.4790 C   0  0  0  0  0  2  0  0  0  0  0  0
  160.3040  205.0350  146.4170 C   0  0  2  0  0  3  0  0  0  0  0  0
  162.0450  207.1030  147.4030 O   0  0  0  0  0  0  0  0  0  0  0  0
  160.2750  202.1950  148.1130 C   0  0  0  0  0  2  0  0  0  0  0  0
  163.1340  209.3780  150.3890 O   0  0  0  0  0  0  0  0  0  0  0  0
  161.4450  206.4690  152.5670 C   0  0  0  0  0  0  0  0  0  0  0  0
  159.7410  202.8310  149.3860 C   0  0  0  0  0  2  0  0  0  0  0  0
  162.2150  206.1070  151.3380 C   0  0  1  0  0  3  0  0  0  0  0  0
  160.7620  205.0980  153.4700 S   0  0  0  0  0  0  0  0  0  0  0  0
  161.8150  208.8570  152.2910 C   0  0  2  0  0  3  0  0  0  0  0  0
  160.2330  205.6800  147.6950 O   0  0  0  0  0  0  0  0  0  0  0  0
  161.7010  204.5120  146.0890 C   0  0  0  0  0  2  0  0  0  0  0  0
  161.2680  207.6840  152.9590 N   0  0  0  0  0  0  0  0  0  0  0  0
  162.7370  201.6160  148.1820 C   0  0  0  0  0  2  0  0  0  0  0  0
  162.1240  200.2310  148.3850 C   0  0  0  0  0  2  0  0  0  0  0  0
  161.4030  199.7930  147.1540 C   0  0  0  0  0  3  0  0  0  0  0  0
  162.0070  199.2840  146.2200 O   0  0  0  0  0  0  0  0  0  0  0  0
  160.7250  209.9050  152.1450 C   0  0  0  0  0  2  0  0  0  0  0  0
  161.0840  211.1580  152.9200 C   0  0  0  0  0  2  0  0  0  0  0  0
  158.5600  211.7930  154.1420 S   0  0  0  0  0  0  0  0  0  0  0  0
  160.2560  211.2510  154.1610 C   0  0  1  0  0  3  0  0  0  0  0  0
  158.3400  211.1000  155.8280 C   0  0  1  0  0  3  0  0  0  0  0  0
  159.8010  209.7990  157.2150 O   0  0  0  0  0  1  0  0  0  0  0  0
  159.7370  210.9630  156.4510 C   0  0  1  0  0  3  0  0  0  0  0  0
  160.7170  210.8640  155.3370 C   0  0  0  0  0  2  0  0  0  0  0  0
  157.3920  211.9160  156.6210 N   0  0  0  0  0  0  0  0  0  0  0  0
  157.9200  213.1180  157.2610 C   0  0  0  0  0  1  0  0  0  0  0  0
  155.9500  211.7860  156.5530 C   0  0  0  0  0  0  0  0  0  0  0  0
  155.4070  210.7540  156.0800 O   0  0  0  0  0  0  0  0  0  0  0  0
  155.0570  212.8660  157.0680 C   0  0  0  0  0  1  0  0  0  0  0  0
  159.6770  205.8580  145.2920 C   0  0  0  0  0  2  0  0  0  0  0  0
  161.3260  205.6210  143.4570 C   0  0  0  0  0  1  0  0  0  0  0  0
  160.7030  206.5920  144.4450 C   0  0  0  0  0  2  0  0  0  0  0  0
  2  1  1  0  0  0  0
  2  9  1  0  0  0  0
  3 15  1  0  0  0  0
  3 25  1  6  0  0  0
  5 21  1  0  0  0  0
  6  3  1  0  0  0  0
  7 20  1  0  0  0  0
  8  7  1  0  0  0  0
  9  7  2  0  0  0  0
  9  4  1  0  0  0  0
 10 12  1  0  0  0  0
 11 12  1  1  0  0  0
 11  5  1  0  0  0  0
 11 19  1  0  0  0  0
 13 42  1  6  0  0  0
 13 22  1  0  0  0  0
 14 10  2  0  0  0  0
 15 18  1  0  0  0  0
 16  5  2  0  0  0  0
 17 24  2  0  0  0  0
 17 20  1  0  0  0  0
 18  2  1  0  0  0  0
 19  8  1  6  0  0  0
 19 17  1  0  0  0  0
 21 29  1  6  0  0  0
 21 24  1  0  0  0  0
 22 10  1  0  0  0  0
 23  6  1  0  0  0  0
 23 13  1  0  0  0  0
 25 26  1  0  0  0  0
 27 26  1  0  0  0  0
 28 27  2  0  0  0  0
 29 30  1  0  0  0  0
 31 32  1  0  0  0  0
 31 33  1  0  0  0  0
 32 30  1  6  0  0  0
 32 36  1  0  0  0  0
 33 35  1  0  0  0  0
 33 37  1  1  0  0  0
 35 34  1  1  0  0  0
 36 35  1  0  0  0  0
 37 38  1  0  0  0  0
 39 37  1  0  0  0  0
 39 41  1  0  0  0  0
 40 39  2  0  0  0  0
 43 44  1  0  0  0  0
 44 42  1  0  0  0  0
M  END
>  <MODEL>
4

>  <REMARK>
 VINA RESULT:       0.9      2.897     10.334
  Name = 
  9 active torsions:
  status: ('A' for Active; 'I' for Inactive)
    1  A    between atoms: N_2  and  C_27
    2  A    between atoms: C_5  and  C_11
    3  A    between atoms: C_10  and  C_17
    4  A    between atoms: C_10  and  C_24
    5  A    between atoms: C_11  and  C_13
    6  A    between atoms: C_13  and  C_14
    7  A    between atoms: C_23  and  C_38
    8  A    between atoms: C_24  and  C_39
    9  A    between atoms: C_34  and  C_38
                            x       y       z     vdW  Elec       q    Type
                         _______ _______ _______ _____ _____    ______ ____

>  <TORSDO>
F 9

$$$$
