=
 OpenBabel11042420383D

 45 49  0  0  1  0  0  0  0  0999 V2000
  161.8580  206.6320  150.8030 C   0  0  0  0  0  0  0  0  0  0  0  0
  162.1280  207.7350  149.7740 C   0  0  0  0  0  2  0  0  0  0  0  0
  160.4110  210.8890  154.3570 O   0  0  0  0  0  0  0  0  0  0  0  0
  161.1560  210.4500  152.2630 O   0  0  0  0  0  0  0  0  0  0  0  0
  161.9150  209.1480  150.2670 C   0  0  0  0  0  0  0  0  0  0  0  0
  161.4350  209.3400  151.6310 C   0  0  0  0  0  0  0  0  0  0  0  0
  162.1290  210.1640  149.4780 C   0  0  0  0  0  0  0  0  0  0  0  0
  161.4240  206.9070  152.0470 C   0  0  0  0  0  3  0  0  0  0  0  0
  161.2040  208.2930  152.4590 C   0  0  0  0  0  0  0  0  0  0  0  0
  160.7620  210.0740  153.4640 C   0  0  0  0  0  0  0  0  0  0  0  0
  162.3380  211.1840  148.6950 C   0  0  0  0  0  3  0  0  0  0  0  0
  160.7700  208.7320  153.6550 N   0  0  0  0  0  2  0  0  0  0  0  0
  161.2100  211.7690  147.9210 C   0  0  0  0  0  2  0  0  0  0  0  0
  161.4590  213.2470  147.6610 C   0  0  2  0  0  3  0  0  0  0  0  0
  159.7040  213.7280  148.9240 C   0  0  0  0  0  1  0  0  0  0  0  0
  161.0660  213.9950  148.7740 O   0  0  0  0  0  0  0  0  0  0  0  0
  160.6940  213.6710  146.5010 N   0  0  0  0  0  2  0  0  0  0  0  0
  160.4140  212.4800  145.7170 C   0  0  0  0  0  2  0  0  0  0  0  0
  163.5100  214.3620  142.6780 O   0  0  0  0  0  0  0  0  0  0  0  0
  162.4350  213.7160  142.7780 C   0  0  0  0  0  0  0  0  0  0  0  0
  161.7070  213.2960  141.5200 C   0  0  2  0  0  3  0  0  0  0  0  0
  159.9160  213.0510  141.7890 S   0  0  0  0  0  0  0  0  0  0  0  0
  160.1600  211.9550  143.2190 C   0  0  0  0  0  2  0  0  0  0  0  0
  161.9180  213.4190  144.0830 N   0  0  0  0  0  0  0  0  0  0  0  0
  160.8770  212.6760  144.3160 C   0  0  0  0  0  0  0  0  0  0  0  0
  163.2400  212.6140  139.7580 C   0  0  0  0  0  1  0  0  0  0  0  0
  162.3070  212.1680  140.7890 N   0  0  0  0  0  0  0  0  0  0  0  0
  161.2380  211.4290  140.1310 C   0  0  0  0  0  2  0  0  0  0  0  0
  161.3850  209.3970  138.6940 C   0  0  0  0  0  1  0  0  0  0  0  0
  161.5640  209.9450  140.0980 C   0  0  0  0  0  2  0  0  0  0  0  0
  162.0530  205.2490  150.4710 N   0  0  0  0  0  2  0  0  0  0  0  0
  161.7260  203.1510  151.8280 C   0  0  0  0  0  2  0  0  0  0  0  0
  161.2040  204.0880  150.7640 C   0  0  0  0  0  0  0  0  0  0  0  0
  160.5180  204.0470  152.1100 C   0  0  0  0  0  2  0  0  0  0  0  0
  160.4850  203.4140  149.5980 C   0  0  2  0  0  3  0  0  0  0  0  0
  159.9590  202.1940  150.0310 O   0  0  0  0  0  1  0  0  0  0  0  0
  160.9140  202.5180  145.4900 C   0  0  0  0  0  2  0  0  0  0  0  0
  161.2940  201.7530  147.8650 C   0  0  0  0  0  2  0  0  0  0  0  0
  161.6650  203.7770  145.9500 C   0  0  2  0  0  3  0  0  0  0  0  0
  161.4160  203.1930  148.4010 C   0  0  1  0  0  3  0  0  0  0  0  0
  161.1790  204.2570  147.3150 C   0  0  0  0  0  2  0  0  0  0  0  0
  160.3720  201.6750  146.6500 C   0  0  0  0  0  2  0  0  0  0  0  0
  161.4990  205.1010  144.7340 S   0  0  0  0  0  3  0  0  0  0  0  0
  162.6040  206.0840  145.0980 O   0  0  0  0  0  1  0  0  0  0  0  0
  160.0790  205.9120  145.2060 O   0  0  0  0  0  1  0  0  0  0  0  0
  1  8  2  0  0  0  0
  2  5  1  0  0  0  0
  2  1  1  0  0  0  0
  4 10  1  0  0  0  0
  5  6  1  0  0  0  0
  6  4  1  0  0  0  0
  6  9  2  0  0  0  0
  7  5  2  0  0  0  0
  8  9  1  0  0  0  0
  9 12  1  0  0  0  0
 10 12  1  0  0  0  0
 10  3  2  0  0  0  0
 11  7  2  0  0  0  0
 13 11  1  0  0  0  0
 14 13  1  1  0  0  0
 14 16  1  0  0  0  0
 16 15  1  0  0  0  0
 17 14  1  0  0  0  0
 18 17  1  0  0  0  0
 19 20  2  0  0  0  0
 20 24  1  0  0  0  0
 21 27  1  1  0  0  0
 21 22  1  0  0  0  0
 21 20  1  0  0  0  0
 22 23  1  0  0  0  0
 23 25  1  0  0  0  0
 24 25  2  0  0  0  0
 25 18  1  0  0  0  0
 26 27  1  0  0  0  0
 28 27  1  0  0  0  0
 29 30  1  0  0  0  0
 30 28  1  0  0  0  0
 31 33  1  0  0  0  0
 31  1  1  0  0  0  0
 32 34  1  0  0  0  0
 33 32  1  0  0  0  0
 33 34  1  0  0  0  0
 35 36  1  1  0  0  0
 35 33  1  0  0  0  0
 37 39  1  0  0  0  0
 37 42  1  0  0  0  0
 38 40  1  0  0  0  0
 39 43  1  6  0  0  0
 39 41  1  0  0  0  0
 40 35  1  1  0  0  0
 41 40  1  0  0  0  0
 42 38  1  0  0  0  0
 43 44  1  0  0  0  0
 43 45  1  0  0  0  0
M  END
>  <MODEL>
1

>  <REMARK>
 VINA RESULT:      -8.1      0.000      0.000
  Name = 
  14 active torsions:
  status: ('A' for Active; 'I' for Inactive)
    1  A    between atoms: C_3  and  N_32
    2  A    between atoms: C_5  and  N_31
    3  A    between atoms: C_6  and  C_24
    4  A    between atoms: C_6  and  N_31
    5  A    between atoms: S_12  and  C_14
    6  A    between atoms: C_15  and  C_25
    7  A    between atoms: C_15  and  C_28
    8  A    between atoms: N_18  and  C_29
    9  A    between atoms: N_18  and  C_39
   10  A    between atoms: C_23  and  C_29
   11  A    between atoms: C_23  and  C_38
   12  A    between atoms: C_25  and  N_32
   13  A    between atoms: C_29  and  O_36
   14  A    between atoms: C_39  and  C_43
                            x       y       z     vdW  Elec       q    Type
                         _______ _______ _______ _____ _____    ______ ____

>  <TORSDO>
F 14

$$$$
=
 OpenBabel11042420383D

 45 49  0  0  1  0  0  0  0  0999 V2000
  161.0600  207.1350  148.5970 C   0  0  0  0  0  0  0  0  0  0  0  0
  161.4170  208.4890  147.9730 C   0  0  0  0  0  2  0  0  0  0  0  0
  162.1090  209.6620  153.6340 O   0  0  0  0  0  0  0  0  0  0  0  0
  162.0980  210.0160  151.3950 O   0  0  0  0  0  0  0  0  0  0  0  0
  161.8310  209.5650  148.9500 C   0  0  0  0  0  0  0  0  0  0  0  0
  161.8110  209.2510  150.3750 C   0  0  0  0  0  0  0  0  0  0  0  0
  162.1690  210.7500  148.5250 C   0  0  0  0  0  0  0  0  0  0  0  0
  161.0790  206.9370  149.9280 C   0  0  0  0  0  3  0  0  0  0  0  0
  161.4580  208.0250  150.8290 C   0  0  0  0  0  0  0  0  0  0  0  0
  161.9210  209.2540  152.4580 C   0  0  0  0  0  0  0  0  0  0  0  0
  162.5050  211.9380  148.1090 C   0  0  0  0  0  3  0  0  0  0  0  0
  161.5200  207.9910  152.1730 N   0  0  0  0  0  2  0  0  0  0  0  0
  161.4860  213.0200  148.0500 C   0  0  0  0  0  2  0  0  0  0  0  0
  161.7110  213.8920  146.8240 C   0  0  2  0  0  3  0  0  0  0  0  0
  159.6720  213.1750  146.3410 C   0  0  0  0  0  1  0  0  0  0  0  0
  160.4810  214.3120  146.3110 O   0  0  0  0  0  0  0  0  0  0  0  0
  162.4220  213.1300  145.8110 N   0  0  0  0  0  2  0  0  0  0  0  0
  162.9330  214.0830  144.8400 C   0  0  0  0  0  2  0  0  0  0  0  0
  163.8420  214.3010  140.2050 O   0  0  0  0  0  0  0  0  0  0  0  0
  163.1120  213.7730  141.0830 C   0  0  0  0  0  0  0  0  0  0  0  0
  162.0410  212.7900  140.6600 C   0  0  2  0  0  3  0  0  0  0  0  0
  160.6650  212.6860  141.8570 S   0  0  0  0  0  0  0  0  0  0  0  0
  161.7640  212.4170  143.2790 C   0  0  0  0  0  2  0  0  0  0  0  0
  163.3010  214.1350  142.4580 N   0  0  0  0  0  0  0  0  0  0  0  0
  162.6820  213.5850  143.4600 C   0  0  0  0  0  0  0  0  0  0  0  0
  163.0420  211.4350  138.9030 C   0  0  0  0  0  1  0  0  0  0  0  0
  162.5260  211.4560  140.2690 N   0  0  0  0  0  0  0  0  0  0  0  0
  161.4060  210.5260  140.3350 C   0  0  0  0  0  2  0  0  0  0  0  0
  160.3510  208.8860  138.7820 C   0  0  0  0  0  1  0  0  0  0  0  0
  160.8040  210.3250  138.9540 C   0  0  0  0  0  2  0  0  0  0  0  0
  160.6810  206.0200  147.7770 N   0  0  0  0  0  2  0  0  0  0  0  0
  161.1180  205.7870  145.3060 C   0  0  0  0  0  2  0  0  0  0  0  0
  161.4330  205.3420  146.7150 C   0  0  0  0  0  0  0  0  0  0  0  0
  162.4550  206.1550  145.9550 C   0  0  0  0  0  2  0  0  0  0  0  0
  161.7170  203.8510  146.8790 C   0  0  2  0  0  3  0  0  0  0  0  0
  161.6310  203.2300  145.6300 O   0  0  0  0  0  1  0  0  0  0  0  0
  161.0530  200.9160  149.8480 C   0  0  0  0  0  2  0  0  0  0  0  0
  160.5270  201.7050  147.5090 C   0  0  0  0  0  2  0  0  0  0  0  0
  160.6210  202.3360  150.2460 C   0  0  2  0  0  3  0  0  0  0  0  0
  160.7490  203.1880  147.8650 C   0  0  1  0  0  3  0  0  0  0  0  0
  161.2180  203.3900  149.3170 C   0  0  0  0  0  2  0  0  0  0  0  0
  161.3940  200.7790  148.3600 C   0  0  0  0  0  2  0  0  0  0  0  0
  161.0790  202.6890  151.9560 S   0  0  0  0  0  3  0  0  0  0  0  0
  161.5340  204.1420  151.9300 O   0  0  0  0  0  1  0  0  0  0  0  0
  162.5300  201.8250  152.1750 O   0  0  0  0  0  1  0  0  0  0  0  0
  1  8  2  0  0  0  0
  2  1  1  0  0  0  0
  2  5  1  0  0  0  0
  4 10  1  0  0  0  0
  5  6  1  0  0  0  0
  6  9  2  0  0  0  0
  6  4  1  0  0  0  0
  7  5  2  0  0  0  0
  8  9  1  0  0  0  0
  9 12  1  0  0  0  0
 10  3  2  0  0  0  0
 11  7  2  0  0  0  0
 12 10  1  0  0  0  0
 13 11  1  0  0  0  0
 14 13  1  1  0  0  0
 16 15  1  0  0  0  0
 16 14  1  0  0  0  0
 17 14  1  0  0  0  0
 18 17  1  0  0  0  0
 19 20  2  0  0  0  0
 20 24  1  0  0  0  0
 21 27  1  1  0  0  0
 21 20  1  0  0  0  0
 21 22  1  0  0  0  0
 22 23  1  0  0  0  0
 23 25  1  0  0  0  0
 24 25  2  0  0  0  0
 25 18  1  0  0  0  0
 26 27  1  0  0  0  0
 27 28  1  0  0  0  0
 29 30  1  0  0  0  0
 30 28  1  0  0  0  0
 31  1  1  0  0  0  0
 32 34  1  0  0  0  0
 32 33  1  0  0  0  0
 33 35  1  0  0  0  0
 33 31  1  0  0  0  0
 34 33  1  0  0  0  0
 35 36  1  6  0  0  0
 37 39  1  0  0  0  0
 38 40  1  0  0  0  0
 38 42  1  0  0  0  0
 39 43  1  1  0  0  0
 40 35  1  6  0  0  0
 40 41  1  0  0  0  0
 41 39  1  0  0  0  0
 42 37  1  0  0  0  0
 43 45  1  0  0  0  0
 44 43  1  0  0  0  0
M  END
>  <MODEL>
2

>  <REMARK>
 VINA RESULT:      -7.9      2.024      3.295
  Name = 
  14 active torsions:
  status: ('A' for Active; 'I' for Inactive)
    1  A    between atoms: C_3  and  N_32
    2  A    between atoms: C_5  and  N_31
    3  A    between atoms: C_6  and  C_24
    4  A    between atoms: C_6  and  N_31
    5  A    between atoms: S_12  and  C_14
    6  A    between atoms: C_15  and  C_25
    7  A    between atoms: C_15  and  C_28
    8  A    between atoms: N_18  and  C_29
    9  A    between atoms: N_18  and  C_39
   10  A    between atoms: C_23  and  C_29
   11  A    between atoms: C_23  and  C_38
   12  A    between atoms: C_25  and  N_32
   13  A    between atoms: C_29  and  O_36
   14  A    between atoms: C_39  and  C_43
                            x       y       z     vdW  Elec       q    Type
                         _______ _______ _______ _____ _____    ______ ____

>  <TORSDO>
F 14

$$$$
=
 OpenBabel11042420383D

 45 49  0  0  1  0  0  0  0  0999 V2000
  161.5460  209.7330  152.0820 C   0  0  0  0  0  0  0  0  0  0  0  0
  161.9300  210.3680  150.7410 C   0  0  0  0  0  2  0  0  0  0  0  0
  157.7920  214.0370  152.5620 O   0  0  0  0  0  0  0  0  0  0  0  0
  159.4030  213.1780  151.2200 O   0  0  0  0  0  0  0  0  0  0  0  0
  161.1970  211.6440  150.3940 C   0  0  0  0  0  0  0  0  0  0  0  0
  160.1750  212.1270  151.3160 C   0  0  0  0  0  0  0  0  0  0  0  0
  161.4560  212.2740  149.2830 C   0  0  0  0  0  0  0  0  0  0  0  0
  160.5940  210.2590  152.8740 C   0  0  0  0  0  3  0  0  0  0  0  0
  159.8940  211.4790  152.4720 C   0  0  0  0  0  0  0  0  0  0  0  0
  158.6620  213.1620  152.3110 C   0  0  0  0  0  0  0  0  0  0  0  0
  161.7060  212.9090  148.1730 C   0  0  0  0  0  3  0  0  0  0  0  0
  158.9200  212.1220  153.1420 N   0  0  0  0  0  2  0  0  0  0  0  0
  160.8820  212.6440  146.9630 C   0  0  0  0  0  2  0  0  0  0  0  0
  159.9040  213.7860  146.7300 C   0  0  2  0  0  3  0  0  0  0  0  0
  158.1230  213.5360  148.0210 C   0  0  0  0  0  1  0  0  0  0  0  0
  158.5960  213.2950  146.7310 O   0  0  0  0  0  0  0  0  0  0  0  0
  160.1850  214.4090  145.4480 N   0  0  0  0  0  2  0  0  0  0  0  0
  159.3300  213.7640  144.4640 C   0  0  0  0  0  2  0  0  0  0  0  0
  163.3280  214.2220  141.9810 O   0  0  0  0  0  0  0  0  0  0  0  0
  162.1090  213.9190  141.9150 C   0  0  0  0  0  0  0  0  0  0  0  0
  161.5190  213.5190  140.5790 C   0  0  2  0  0  3  0  0  0  0  0  0
  159.7190  213.8190  140.4840 S   0  0  0  0  0  0  0  0  0  0  0  0
  159.3700  212.9400  142.0360 C   0  0  0  0  0  2  0  0  0  0  0  0
  161.3080  213.9850  143.1020 N   0  0  0  0  0  0  0  0  0  0  0  0
  160.0680  213.6010  143.1820 C   0  0  0  0  0  0  0  0  0  0  0  0
  163.1910  212.1310  139.4840 C   0  0  0  0  0  1  0  0  0  0  0  0
  161.8730  212.1690  140.1100 N   0  0  0  0  0  0  0  0  0  0  0  0
  160.8940  211.7620  139.1110 C   0  0  0  0  0  2  0  0  0  0  0  0
  158.8940  210.2760  139.0420 C   0  0  0  0  0  1  0  0  0  0  0  0
  160.3570  210.3760  139.4300 C   0  0  0  0  0  2  0  0  0  0  0  0
  162.1910  208.5360  152.5440 N   0  0  0  0  0  2  0  0  0  0  0  0
  161.8320  206.2820  153.6100 C   0  0  0  0  0  2  0  0  0  0  0  0
  161.7990  207.1330  152.3630 C   0  0  0  0  0  0  0  0  0  0  0  0
  160.4960  206.6880  152.9840 C   0  0  0  0  0  2  0  0  0  0  0  0
  162.2340  206.4290  151.0810 C   0  0  2  0  0  3  0  0  0  0  0  0
  162.7150  207.3810  150.1780 O   0  0  0  0  0  1  0  0  0  0  0  0
  160.9770  203.5990  148.2030 C   0  0  0  0  0  2  0  0  0  0  0  0
  160.9120  206.0050  148.9620 C   0  0  0  0  0  2  0  0  0  0  0  0
  160.5020  203.3070  149.6350 C   0  0  2  0  0  3  0  0  0  0  0  0
  161.0870  205.6320  150.4470 C   0  0  1  0  0  3  0  0  0  0  0  0
  161.2800  204.1210  150.6660 C   0  0  0  0  0  2  0  0  0  0  0  0
  161.5890  204.9950  148.0380 C   0  0  0  0  0  2  0  0  0  0  0  0
  160.6380  201.5460  150.0090 S   0  0  0  0  0  3  0  0  0  0  0  0
  161.6100  201.4850  151.1800 O   0  0  0  0  0  1  0  0  0  0  0  0
  161.5450  200.9240  148.7100 O   0  0  0  0  0  1  0  0  0  0  0  0
  1 31  1  0  0  0  0
  1  8  2  0  0  0  0
  2  1  1  0  0  0  0
  4  6  1  0  0  0  0
  4 10  1  0  0  0  0
  5  2  1  0  0  0  0
  5  6  1  0  0  0  0
  6  9  2  0  0  0  0
  7  5  2  0  0  0  0
  9  8  1  0  0  0  0
  9 12  1  0  0  0  0
 10  3  2  0  0  0  0
 10 12  1  0  0  0  0
 11  7  2  0  0  0  0
 13 11  1  0  0  0  0
 14 16  1  0  0  0  0
 14 13  1  6  0  0  0
 16 15  1  0  0  0  0
 17 14  1  0  0  0  0
 18 17  1  0  0  0  0
 20 19  2  0  0  0  0
 20 24  1  0  0  0  0
 21 27  1  1  0  0  0
 21 20  1  0  0  0  0
 22 21  1  0  0  0  0
 22 23  1  0  0  0  0
 23 25  1  0  0  0  0
 24 25  2  0  0  0  0
 25 18  1  0  0  0  0
 26 27  1  0  0  0  0
 28 30  1  0  0  0  0
 28 27  1  0  0  0  0
 29 30  1  0  0  0  0
 33 31  1  0  0  0  0
 33 34  1  0  0  0  0
 33 32  1  0  0  0  0
 34 32  1  0  0  0  0
 35 36  1  6  0  0  0
 35 33  1  0  0  0  0
 37 39  1  0  0  0  0
 38 40  1  0  0  0  0
 39 43  1  1  0  0  0
 39 41  1  0  0  0  0
 40 41  1  0  0  0  0
 40 35  1  6  0  0  0
 42 37  1  0  0  0  0
 42 38  1  0  0  0  0
 43 44  1  0  0  0  0
 45 43  1  0  0  0  0
M  END
>  <MODEL>
3

>  <REMARK>
 VINA RESULT:      -6.4      2.278      3.319
  Name = 
  14 active torsions:
  status: ('A' for Active; 'I' for Inactive)
    1  A    between atoms: C_3  and  N_32
    2  A    between atoms: C_5  and  N_31
    3  A    between atoms: C_6  and  C_24
    4  A    between atoms: C_6  and  N_31
    5  A    between atoms: S_12  and  C_14
    6  A    between atoms: C_15  and  C_25
    7  A    between atoms: C_15  and  C_28
    8  A    between atoms: N_18  and  C_29
    9  A    between atoms: N_18  and  C_39
   10  A    between atoms: C_23  and  C_29
   11  A    between atoms: C_23  and  C_38
   12  A    between atoms: C_25  and  N_32
   13  A    between atoms: C_29  and  O_36
   14  A    between atoms: C_39  and  C_43
                            x       y       z     vdW  Elec       q    Type
                         _______ _______ _______ _____ _____    ______ ____

>  <TORSDO>
F 14

$$$$
=
 OpenBabel11042420383D

 45 49  0  0  1  0  0  0  0  0999 V2000
  161.8680  207.7070  151.8950 C   0  0  0  0  0  0  0  0  0  0  0  0
  161.9450  209.1000  151.2600 C   0  0  0  0  0  2  0  0  0  0  0  0
  161.3270  205.7590  146.5320 O   0  0  0  0  0  0  0  0  0  0  0  0
  161.5530  207.6500  147.7600 O   0  0  0  0  0  0  0  0  0  0  0  0
  161.8060  209.1350  149.7560 C   0  0  0  0  0  0  0  0  0  0  0  0
  161.6630  207.8700  149.0430 C   0  0  0  0  0  0  0  0  0  0  0  0
  161.8440  210.2700  149.1140 C   0  0  0  0  0  0  0  0  0  0  0  0
  161.7240  206.5920  151.1540 C   0  0  0  0  0  3  0  0  0  0  0  0
  161.6270  206.6850  149.6980 C   0  0  0  0  0  0  0  0  0  0  0  0
  161.4500  206.3400  147.6420 C   0  0  0  0  0  0  0  0  0  0  0  0
  161.8830  211.3990  148.4660 C   0  0  0  0  0  3  0  0  0  0  0  0
  161.4880  205.6730  148.8210 N   0  0  0  0  0  2  0  0  0  0  0  0
  163.1700  211.8880  147.9030 C   0  0  0  0  0  2  0  0  0  0  0  0
  162.9650  213.2180  147.1930 C   0  0  2  0  0  3  0  0  0  0  0  0
  161.1550  214.4520  147.5150 C   0  0  0  0  0  1  0  0  0  0  0  0
  162.3950  214.1400  148.0740 O   0  0  0  0  0  0  0  0  0  0  0  0
  162.0810  213.0280  146.0550 N   0  0  0  0  0  2  0  0  0  0  0  0
  162.8560  213.3160  144.8600 C   0  0  0  0  0  2  0  0  0  0  0  0
  162.3370  213.5740  140.1670 O   0  0  0  0  0  0  0  0  0  0  0  0
  161.7580  213.2980  141.2490 C   0  0  0  0  0  0  0  0  0  0  0  0
  160.3100  212.8580  141.2200 C   0  0  2  0  0  3  0  0  0  0  0  0
  159.4370  213.1970  142.7890 S   0  0  0  0  0  0  0  0  0  0  0  0
  160.7080  212.3910  143.8080 C   0  0  0  0  0  2  0  0  0  0  0  0
  162.4790  213.4320  142.4810 N   0  0  0  0  0  0  0  0  0  0  0  0
  162.0240  213.0830  143.6480 C   0  0  0  0  0  0  0  0  0  0  0  0
  161.3070  210.6970  140.7100 C   0  0  0  0  0  1  0  0  0  0  0  0
  160.0760  211.4820  140.7520 N   0  0  0  0  0  0  0  0  0  0  0  0
  159.5410  211.5430  139.3980 C   0  0  0  0  0  2  0  0  0  0  0  0
  157.1050  212.0550  139.5340 C   0  0  0  0  0  1  0  0  0  0  0  0
  158.4880  212.6340  139.2950 C   0  0  0  0  0  2  0  0  0  0  0  0
  161.9540  207.5380  153.3180 N   0  0  0  0  0  2  0  0  0  0  0  0
  160.0120  207.7960  154.9020 C   0  0  0  0  0  2  0  0  0  0  0  0
  161.3330  208.3210  154.3930 C   0  0  0  0  0  0  0  0  0  0  0  0
  161.2710  207.6950  155.7660 C   0  0  0  0  0  2  0  0  0  0  0  0
  161.4490  209.8420  154.3280 C   0  0  2  0  0  3  0  0  0  0  0  0
  162.1240  210.2960  155.4640 O   0  0  0  0  0  1  0  0  0  0  0  0
  159.1290  213.3550  154.7060 C   0  0  0  0  0  2  0  0  0  0  0  0
  159.6150  211.0440  155.5960 C   0  0  0  0  0  2  0  0  0  0  0  0
  158.9670  212.6240  153.3630 C   0  0  2  0  0  3  0  0  0  0  0  0
  160.0770  210.5180  154.2230 C   0  0  1  0  0  3  0  0  0  0  0  0
  160.0820  211.6070  153.1360 C   0  0  0  0  0  2  0  0  0  0  0  0
  159.8910  212.5380  155.7550 C   0  0  0  0  0  2  0  0  0  0  0  0
  158.9160  213.8010  151.9950 S   0  0  0  0  0  3  0  0  0  0  0  0
  157.5930  213.5100  151.2990 O   0  0  0  0  0  1  0  0  0  0  0  0
  160.0770  213.2060  150.9030 O   0  0  0  0  0  1  0  0  0  0  0  0
  1 31  1  0  0  0  0
  2  1  1  0  0  0  0
  3 10  2  0  0  0  0
  4  6  1  0  0  0  0
  5  2  1  0  0  0  0
  6  9  2  0  0  0  0
  6  5  1  0  0  0  0
  7  5  2  0  0  0  0
  8  1  2  0  0  0  0
  9  8  1  0  0  0  0
 10  4  1  0  0  0  0
 10 12  1  0  0  0  0
 11  7  2  0  0  0  0
 12  9  1  0  0  0  0
 13 11  1  0  0  0  0
 14 13  1  1  0  0  0
 14 16  1  0  0  0  0
 15 16  1  0  0  0  0
 17 14  1  0  0  0  0
 18 17  1  0  0  0  0
 19 20  2  0  0  0  0
 20 24  1  0  0  0  0
 21 27  1  1  0  0  0
 21 20  1  0  0  0  0
 21 22  1  0  0  0  0
 22 23  1  0  0  0  0
 24 25  2  0  0  0  0
 25 23  1  0  0  0  0
 25 18  1  0  0  0  0
 26 27  1  0  0  0  0
 28 27  1  0  0  0  0
 30 28  1  0  0  0  0
 30 29  1  0  0  0  0
 31 33  1  0  0  0  0
 32 34  1  0  0  0  0
 33 32  1  0  0  0  0
 33 34  1  0  0  0  0
 35 33  1  0  0  0  0
 35 36  1  1  0  0  0
 37 42  1  0  0  0  0
 38 42  1  0  0  0  0
 39 43  1  6  0  0  0
 39 37  1  0  0  0  0
 40 35  1  1  0  0  0
 40 38  1  0  0  0  0
 41 39  1  0  0  0  0
 41 40  1  0  0  0  0
 44 43  1  0  0  0  0
 45 43  1  0  0  0  0
M  END
>  <MODEL>
4

>  <REMARK>
 VINA RESULT:      -6.4      2.628      6.349
  Name = 
  14 active torsions:
  status: ('A' for Active; 'I' for Inactive)
    1  A    between atoms: C_3  and  N_32
    2  A    between atoms: C_5  and  N_31
    3  A    between atoms: C_6  and  C_24
    4  A    between atoms: C_6  and  N_31
    5  A    between atoms: S_12  and  C_14
    6  A    between atoms: C_15  and  C_25
    7  A    between atoms: C_15  and  C_28
    8  A    between atoms: N_18  and  C_29
    9  A    between atoms: N_18  and  C_39
   10  A    between atoms: C_23  and  C_29
   11  A    between atoms: C_23  and  C_38
   12  A    between atoms: C_25  and  N_32
   13  A    between atoms: C_29  and  O_36
   14  A    between atoms: C_39  and  C_43
                            x       y       z     vdW  Elec       q    Type
                         _______ _______ _______ _____ _____    ______ ____

>  <TORSDO>
F 14

$$$$
=
 OpenBabel11042420383D

 45 49  0  0  1  0  0  0  0  0999 V2000
  161.9420  210.2650  149.4890 C   0  0  0  0  0  0  0  0  0  0  0  0
  162.0590  209.6140  150.8720 C   0  0  0  0  0  2  0  0  0  0  0  0
  161.2280  204.9330  147.5100 O   0  0  0  0  0  0  0  0  0  0  0  0
  161.5930  206.1320  149.3980 O   0  0  0  0  0  0  0  0  0  0  0  0
  161.9680  208.1050  150.8880 C   0  0  0  0  0  0  0  0  0  0  0  0
  161.7320  207.4120  149.6270 C   0  0  0  0  0  0  0  0  0  0  0  0
  162.0680  207.4490  152.0100 C   0  0  0  0  0  0  0  0  0  0  0  0
  161.7340  209.5390  148.3750 C   0  0  0  0  0  3  0  0  0  0  0  0
  161.6220  208.0830  148.4550 C   0  0  0  0  0  0  0  0  0  0  0  0
  161.4010  206.0330  148.0960 C   0  0  0  0  0  0  0  0  0  0  0  0
  162.1650  206.7850  153.1270 C   0  0  0  0  0  3  0  0  0  0  0  0
  161.4090  207.2220  147.4430 N   0  0  0  0  0  2  0  0  0  0  0  0
  160.9360  206.4130  153.8790 C   0  0  0  0  0  2  0  0  0  0  0  0
  160.7960  207.2780  155.1230 C   0  0  2  0  0  3  0  0  0  0  0  0
  160.2160  207.3640  157.2580 C   0  0  0  0  0  1  0  0  0  0  0  0
  160.1120  206.5710  156.1150 O   0  0  0  0  0  0  0  0  0  0  0  0
  160.0570  208.4850  154.7940 N   0  0  0  0  0  2  0  0  0  0  0  0
  160.9920  209.5940  154.8780 C   0  0  0  0  0  2  0  0  0  0  0  0
  158.9840  213.2640  152.6720 O   0  0  0  0  0  0  0  0  0  0  0  0
  159.2930  212.7860  153.7940 C   0  0  0  0  0  0  0  0  0  0  0  0
  158.9690  213.5720  155.0460 C   0  0  2  0  0  3  0  0  0  0  0  0
  160.0650  213.1550  156.4470 S   0  0  0  0  0  0  0  0  0  0  0  0
  159.7860  211.3660  156.2870 C   0  0  0  0  0  2  0  0  0  0  0  0
  159.9680  211.5210  153.8520 N   0  0  0  0  0  0  0  0  0  0  0  0
  160.2460  210.8810  154.9490 C   0  0  0  0  0  0  0  0  0  0  0  0
  157.3820  213.3730  156.8810 C   0  0  0  0  0  1  0  0  0  0  0  0
  157.5510  213.5700  155.4440 N   0  0  0  0  0  0  0  0  0  0  0  0
  156.8860  212.4670  154.7630 C   0  0  0  0  0  2  0  0  0  0  0  0
  155.3910  210.4940  155.0510 C   0  0  0  0  0  1  0  0  0  0  0  0
  156.1840  211.5710  155.7690 C   0  0  0  0  0  2  0  0  0  0  0  0
  162.0430  211.6880  149.3310 N   0  0  0  0  0  2  0  0  0  0  0  0
  163.5160  213.3120  148.0880 C   0  0  0  0  0  2  0  0  0  0  0  0
  162.2540  212.4820  148.1150 C   0  0  0  0  0  0  0  0  0  0  0  0
  163.3850  212.0710  147.2010 C   0  0  0  0  0  2  0  0  0  0  0  0
  161.0340  213.1280  147.4620 C   0  0  2  0  0  3  0  0  0  0  0  0
  159.9810  213.1450  148.3800 O   0  0  0  0  0  1  0  0  0  0  0  0
  158.9790  213.2220  143.7690 C   0  0  0  0  0  2  0  0  0  0  0  0
  159.0760  212.2690  146.1040 C   0  0  0  0  0  2  0  0  0  0  0  0
  160.4280  212.7170  143.6810 C   0  0  2  0  0  3  0  0  0  0  0  0
  160.6100  212.3940  146.1850 C   0  0  1  0  0  3  0  0  0  0  0  0
  161.2230  213.0570  144.9390 C   0  0  0  0  0  2  0  0  0  0  0  0
  158.4640  213.3440  145.2080 C   0  0  0  0  0  2  0  0  0  0  0  0
  161.2550  213.3950  142.2260 S   0  0  0  0  0  3  0  0  0  0  0  0
  160.1800  213.3910  141.1480 O   0  0  0  0  0  1  0  0  0  0  0  0
  162.3070  212.1490  141.7390 O   0  0  0  0  0  1  0  0  0  0  0  0
  1  2  1  0  0  0  0
  2  5  1  0  0  0  0
  3 10  2  0  0  0  0
  4  6  1  0  0  0  0
  5  7  2  0  0  0  0
  6  5  1  0  0  0  0
  7 11  2  0  0  0  0
  8  9  1  0  0  0  0
  8  1  2  0  0  0  0
  9  6  2  0  0  0  0
 10  4  1  0  0  0  0
 11 13  1  0  0  0  0
 12 10  1  0  0  0  0
 12  9  1  0  0  0  0
 14 13  1  6  0  0  0
 14 16  1  0  0  0  0
 16 15  1  0  0  0  0
 17 18  1  0  0  0  0
 17 14  1  0  0  0  0
 18 25  1  0  0  0  0
 19 20  2  0  0  0  0
 20 24  1  0  0  0  0
 20 21  1  0  0  0  0
 21 27  1  1  0  0  0
 21 22  1  0  0  0  0
 23 22  1  0  0  0  0
 24 25  2  0  0  0  0
 25 23  1  0  0  0  0
 27 26  1  0  0  0  0
 28 27  1  0  0  0  0
 28 30  1  0  0  0  0
 29 30  1  0  0  0  0
 31  1  1  0  0  0  0
 32 33  1  0  0  0  0
 33 31  1  0  0  0  0
 34 32  1  0  0  0  0
 34 33  1  0  0  0  0
 35 33  1  0  0  0  0
 35 36  1  1  0  0  0
 37 42  1  0  0  0  0
 38 40  1  0  0  0  0
 39 43  1  6  0  0  0
 39 37  1  0  0  0  0
 39 41  1  0  0  0  0
 40 35  1  1  0  0  0
 41 40  1  0  0  0  0
 42 38  1  0  0  0  0
 44 43  1  0  0  0  0
 45 43  1  0  0  0  0
M  END
>  <MODEL>
5

>  <REMARK>
 VINA RESULT:      -6.0      3.625     10.243
  Name = 
  14 active torsions:
  status: ('A' for Active; 'I' for Inactive)
    1  A    between atoms: C_3  and  N_32
    2  A    between atoms: C_5  and  N_31
    3  A    between atoms: C_6  and  C_24
    4  A    between atoms: C_6  and  N_31
    5  A    between atoms: S_12  and  C_14
    6  A    between atoms: C_15  and  C_25
    7  A    between atoms: C_15  and  C_28
    8  A    between atoms: N_18  and  C_29
    9  A    between atoms: N_18  and  C_39
   10  A    between atoms: C_23  and  C_29
   11  A    between atoms: C_23  and  C_38
   12  A    between atoms: C_25  and  N_32
   13  A    between atoms: C_29  and  O_36
   14  A    between atoms: C_39  and  C_43
                            x       y       z     vdW  Elec       q    Type
                         _______ _______ _______ _____ _____    ______ ____

>  <TORSDO>
F 14

$$$$
=
 OpenBabel11042420383D

 45 49  0  0  1  0  0  0  0  0999 V2000
  161.1680  207.3440  148.3200 C   0  0  0  0  0  0  0  0  0  0  0  0
  161.1390  208.7460  147.6990 C   0  0  0  0  0  2  0  0  0  0  0  0
  162.9290  209.9630  153.1040 O   0  0  0  0  0  0  0  0  0  0  0  0
  162.3380  210.3320  150.9480 O   0  0  0  0  0  0  0  0  0  0  0  0
  161.5860  209.8670  148.6090 C   0  0  0  0  0  0  0  0  0  0  0  0
  161.9510  209.5400  149.9830 C   0  0  0  0  0  0  0  0  0  0  0  0
  161.6130  211.0980  148.1780 C   0  0  0  0  0  0  0  0  0  0  0  0
  161.5300  207.1390  149.6000 C   0  0  0  0  0  3  0  0  0  0  0  0
  161.9220  208.2670  150.4440 C   0  0  0  0  0  0  0  0  0  0  0  0
  162.5420  209.5400  151.9840 C   0  0  0  0  0  0  0  0  0  0  0  0
  161.6410  212.3300  147.7570 C   0  0  0  0  0  3  0  0  0  0  0  0
  162.3010  208.2300  151.7350 N   0  0  0  0  0  2  0  0  0  0  0  0
  160.4710  213.2200  147.9870 C   0  0  0  0  0  2  0  0  0  0  0  0
  159.7880  213.5470  146.6670 C   0  0  2  0  0  3  0  0  0  0  0  0
  157.6910  213.1550  147.2590 C   0  0  0  0  0  1  0  0  0  0  0  0
  158.7230  212.6670  146.4570 O   0  0  0  0  0  0  0  0  0  0  0  0
  160.7450  213.4150  145.5810 N   0  0  0  0  0  2  0  0  0  0  0  0
  160.0460  213.7590  144.3540 C   0  0  0  0  0  2  0  0  0  0  0  0
  161.2500  210.6760  140.9770 O   0  0  0  0  0  0  0  0  0  0  0  0
  161.5360  211.7800  141.5050 C   0  0  0  0  0  0  0  0  0  0  0  0
  162.7100  212.5720  140.9720 C   0  0  2  0  0  3  0  0  0  0  0  0
  163.4270  213.7000  142.2180 S   0  0  0  0  0  0  0  0  0  0  0  0
  161.8240  214.4470  142.6380 C   0  0  0  0  0  2  0  0  0  0  0  0
  160.7560  212.2460  142.6150 N   0  0  0  0  0  0  0  0  0  0  0  0
  160.8890  213.4110  143.1770 C   0  0  0  0  0  0  0  0  0  0  0  0
  161.1590  212.9690  139.1380 C   0  0  0  0  0  1  0  0  0  0  0  0
  162.4820  213.2540  139.6870 N   0  0  0  0  0  0  0  0  0  0  0  0
  163.4720  212.7740  138.7320 C   0  0  0  0  0  2  0  0  0  0  0  0
  165.7500  213.7850  138.7700 C   0  0  0  0  0  1  0  0  0  0  0  0
  164.3340  213.9240  138.2400 C   0  0  0  0  0  2  0  0  0  0  0  0
  160.7980  206.1890  147.5520 N   0  0  0  0  0  2  0  0  0  0  0  0
  161.4060  205.8130  145.1360 C   0  0  0  0  0  2  0  0  0  0  0  0
  161.5860  205.4180  146.5840 C   0  0  0  0  0  0  0  0  0  0  0  0
  162.7100  206.1340  145.8710 C   0  0  0  0  0  2  0  0  0  0  0  0
  161.7650  203.9230  146.8340 C   0  0  2  0  0  3  0  0  0  0  0  0
  161.5760  203.2340  145.6340 O   0  0  0  0  0  1  0  0  0  0  0  0
  161.1550  201.6090  150.3190 C   0  0  0  0  0  2  0  0  0  0  0  0
  160.6960  201.8630  147.8500 C   0  0  0  0  0  2  0  0  0  0  0  0
  160.6060  203.0420  150.4000 C   0  0  2  0  0  3  0  0  0  0  0  0
  160.7960  203.4000  147.9010 C   0  0  1  0  0  3  0  0  0  0  0  0
  161.1750  203.9290  149.2960 C   0  0  0  0  0  2  0  0  0  0  0  0
  161.5800  201.2000  148.9040 C   0  0  0  0  0  2  0  0  0  0  0  0
  160.9510  203.7690  152.0160 S   0  0  0  0  0  3  0  0  0  0  0  0
  160.7720  205.2660  151.8000 O   0  0  0  0  0  1  0  0  0  0  0  0
  162.6360  203.5940  152.1890 O   0  0  0  0  0  1  0  0  0  0  0  0
  1  8  2  0  0  0  0
  2  1  1  0  0  0  0
  2  5  1  0  0  0  0
  4 10  1  0  0  0  0
  5  6  1  0  0  0  0
  6  9  2  0  0  0  0
  6  4  1  0  0  0  0
  7  5  2  0  0  0  0
  8  9  1  0  0  0  0
  9 12  1  0  0  0  0
 10  3  2  0  0  0  0
 11 13  1  0  0  0  0
 11  7  2  0  0  0  0
 12 10  1  0  0  0  0
 14 13  1  1  0  0  0
 16 14  1  0  0  0  0
 16 15  1  0  0  0  0
 17 14  1  0  0  0  0
 18 17  1  0  0  0  0
 19 20  2  0  0  0  0
 20 24  1  0  0  0  0
 21 27  1  6  0  0  0
 21 20  1  0  0  0  0
 21 22  1  0  0  0  0
 22 23  1  0  0  0  0
 23 25  1  0  0  0  0
 24 25  2  0  0  0  0
 25 18  1  0  0  0  0
 26 27  1  0  0  0  0
 28 27  1  0  0  0  0
 30 28  1  0  0  0  0
 30 29  1  0  0  0  0
 31  1  1  0  0  0  0
 32 34  1  0  0  0  0
 32 33  1  0  0  0  0
 33 35  1  0  0  0  0
 33 31  1  0  0  0  0
 34 33  1  0  0  0  0
 35 36  1  6  0  0  0
 37 39  1  0  0  0  0
 38 40  1  0  0  0  0
 38 42  1  0  0  0  0
 39 43  1  1  0  0  0
 40 35  1  6  0  0  0
 40 41  1  0  0  0  0
 41 39  1  0  0  0  0
 42 37  1  0  0  0  0
 43 45  1  0  0  0  0
 44 43  1  0  0  0  0
M  END
>  <MODEL>
6

>  <REMARK>
 VINA RESULT:      -5.2      2.340      3.699
  Name = 
  14 active torsions:
  status: ('A' for Active; 'I' for Inactive)
    1  A    between atoms: C_3  and  N_32
    2  A    between atoms: C_5  and  N_31
    3  A    between atoms: C_6  and  C_24
    4  A    between atoms: C_6  and  N_31
    5  A    between atoms: S_12  and  C_14
    6  A    between atoms: C_15  and  C_25
    7  A    between atoms: C_15  and  C_28
    8  A    between atoms: N_18  and  C_29
    9  A    between atoms: N_18  and  C_39
   10  A    between atoms: C_23  and  C_29
   11  A    between atoms: C_23  and  C_38
   12  A    between atoms: C_25  and  N_32
   13  A    between atoms: C_29  and  O_36
   14  A    between atoms: C_39  and  C_43
                            x       y       z     vdW  Elec       q    Type
                         _______ _______ _______ _____ _____    ______ ____

>  <TORSDO>
F 14

$$$$
=
 OpenBabel11042420383D

 45 49  0  0  1  0  0  0  0  0999 V2000
  157.3420  213.1440  153.6860 C   0  0  0  0  0  0  0  0  0  0  0  0
  158.5560  213.2810  152.7610 C   0  0  0  0  0  2  0  0  0  0  0  0
  154.2100  214.4530  149.0670 O   0  0  0  0  0  0  0  0  0  0  0  0
  156.3370  214.1610  149.7920 O   0  0  0  0  0  0  0  0  0  0  0  0
  158.2450  213.6800  151.3370 C   0  0  0  0  0  0  0  0  0  0  0  0
  156.8470  213.8490  150.9550 C   0  0  0  0  0  0  0  0  0  0  0  0
  159.2050  213.8390  150.4690 C   0  0  0  0  0  0  0  0  0  0  0  0
  156.0840  213.3290  153.2440 C   0  0  0  0  0  3  0  0  0  0  0  0
  155.8400  213.6830  151.8460 C   0  0  0  0  0  0  0  0  0  0  0  0
  155.0320  214.1840  149.9820 C   0  0  0  0  0  0  0  0  0  0  0  0
  160.1580  213.9970  149.5950 C   0  0  0  0  0  3  0  0  0  0  0  0
  154.6520  213.8930  151.2510 N   0  0  0  0  0  2  0  0  0  0  0  0
  160.5500  212.8660  148.7110 C   0  0  0  0  0  2  0  0  0  0  0  0
  161.9760  212.4300  149.0130 C   0  0  2  0  0  3  0  0  0  0  0  0
  162.7150  212.4810  146.9260 C   0  0  0  0  0  1  0  0  0  0  0  0
  162.8640  213.1010  148.1680 O   0  0  0  0  0  0  0  0  0  0  0  0
  162.1000  210.9980  148.8030 N   0  0  0  0  0  2  0  0  0  0  0  0
  161.8100  210.3540  150.0740 C   0  0  0  0  0  2  0  0  0  0  0  0
  162.6720  206.0890  151.9240 O   0  0  0  0  0  0  0  0  0  0  0  0
  162.3830  206.7090  150.8690 C   0  0  0  0  0  0  0  0  0  0  0  0
  162.2080  205.9330  149.5810 C   0  0  2  0  0  3  0  0  0  0  0  0
  162.5170  206.9510  148.0960 S   0  0  0  0  0  0  0  0  0  0  0  0
  161.3950  208.2790  148.6250 C   0  0  0  0  0  2  0  0  0  0  0  0
  162.2530  208.1370  150.9120 N   0  0  0  0  0  0  0  0  0  0  0  0
  161.8600  208.8750  149.9160 C   0  0  0  0  0  0  0  0  0  0  0  0
  160.2640  205.0500  150.7490 C   0  0  0  0  0  1  0  0  0  0  0  0
  160.9530  205.1710  149.4680 N   0  0  0  0  0  0  0  0  0  0  0  0
  161.2760  203.8270  149.0080 C   0  0  0  0  0  2  0  0  0  0  0  0
  160.0140  201.7030  149.3460 C   0  0  0  0  0  1  0  0  0  0  0  0
  160.8190  202.7950  150.0270 C   0  0  0  0  0  2  0  0  0  0  0  0
  157.5030  212.8010  155.0710 N   0  0  0  0  0  2  0  0  0  0  0  0
  159.2950  214.4520  155.7100 C   0  0  0  0  0  2  0  0  0  0  0  0
  158.5810  213.1540  156.0020 C   0  0  0  0  0  0  0  0  0  0  0  0
  158.3560  214.3380  156.9130 C   0  0  0  0  0  2  0  0  0  0  0  0
  159.4660  212.0280  156.5330 C   0  0  2  0  0  3  0  0  0  0  0  0
  160.6150  212.5820  157.1020 O   0  0  0  0  0  1  0  0  0  0  0  0
  162.0760  208.9950  155.1730 C   0  0  0  0  0  2  0  0  0  0  0  0
  161.2400  211.3550  154.8560 C   0  0  0  0  0  2  0  0  0  0  0  0
  160.5840  208.6320  155.1010 C   0  0  2  0  0  3  0  0  0  0  0  0
  159.8480  211.0320  155.4330 C   0  0  1  0  0  3  0  0  0  0  0  0
  159.7310  209.5830  155.9370 C   0  0  0  0  0  2  0  0  0  0  0  0
  162.3290  210.4770  155.4700 C   0  0  0  0  0  2  0  0  0  0  0  0
  160.3130  206.9290  155.6330 S   0  0  0  0  0  3  0  0  0  0  0  0
  158.7980  206.8030  155.7300 O   0  0  0  0  0  1  0  0  0  0  0  0
  160.8150  206.9250  157.2590 O   0  0  0  0  0  1  0  0  0  0  0  0
  1 31  1  0  0  0  0
  2  1  1  0  0  0  0
  3 10  2  0  0  0  0
  4 10  1  0  0  0  0
  4  6  1  0  0  0  0
  5  2  1  0  0  0  0
  6  5  1  0  0  0  0
  6  9  2  0  0  0  0
  7  5  2  0  0  0  0
  8  1  2  0  0  0  0
  9  8  1  0  0  0  0
 10 12  1  0  0  0  0
 11  7  2  0  0  0  0
 12  9  1  0  0  0  0
 13 11  1  0  0  0  0
 14 13  1  6  0  0  0
 15 16  1  0  0  0  0
 16 14  1  0  0  0  0
 17 14  1  0  0  0  0
 17 18  1  0  0  0  0
 20 24  1  0  0  0  0
 20 19  2  0  0  0  0
 21 27  1  6  0  0  0
 21 20  1  0  0  0  0
 22 23  1  0  0  0  0
 22 21  1  0  0  0  0
 23 25  1  0  0  0  0
 25 18  1  0  0  0  0
 25 24  2  0  0  0  0
 27 26  1  0  0  0  0
 28 27  1  0  0  0  0
 28 30  1  0  0  0  0
 29 30  1  0  0  0  0
 31 33  1  0  0  0  0
 32 33  1  0  0  0  0
 32 34  1  0  0  0  0
 33 35  1  0  0  0  0
 33 34  1  0  0  0  0
 35 36  1  6  0  0  0
 37 42  1  0  0  0  0
 38 40  1  0  0  0  0
 38 42  1  0  0  0  0
 39 37  1  0  0  0  0
 39 43  1  1  0  0  0
 39 41  1  0  0  0  0
 40 41  1  0  0  0  0
 40 35  1  1  0  0  0
 43 44  1  0  0  0  0
 43 45  1  0  0  0  0
M  END
>  <MODEL>
7

>  <REMARK>
 VINA RESULT:      -5.1      4.238      9.473
  Name = 
  14 active torsions:
  status: ('A' for Active; 'I' for Inactive)
    1  A    between atoms: C_3  and  N_32
    2  A    between atoms: C_5  and  N_31
    3  A    between atoms: C_6  and  C_24
    4  A    between atoms: C_6  and  N_31
    5  A    between atoms: S_12  and  C_14
    6  A    between atoms: C_15  and  C_25
    7  A    between atoms: C_15  and  C_28
    8  A    between atoms: N_18  and  C_29
    9  A    between atoms: N_18  and  C_39
   10  A    between atoms: C_23  and  C_29
   11  A    between atoms: C_23  and  C_38
   12  A    between atoms: C_25  and  N_32
   13  A    between atoms: C_29  and  O_36
   14  A    between atoms: C_39  and  C_43
                            x       y       z     vdW  Elec       q    Type
                         _______ _______ _______ _____ _____    ______ ____

>  <TORSDO>
F 14

$$$$
