=
 OpenBabel11052409563D

 29 34  0  0  1  0  0  0  0  0999 V2000
  160.9930  205.6750  149.7180 C   0  0  1  0  0  3  0  0  0  0  0  0
  160.4730  206.9110  154.2490 C   0  0  0  0  0  2  0  0  0  0  0  0
  162.8250  206.4270  151.0940 O   0  0  0  0  0  0  0  0  0  0  0  0
  160.6780  208.7170  155.9440 C   0  0  0  0  0  3  0  0  0  0  0  0
  162.6250  208.0500  148.5440 C   0  0  0  0  0  2  0  0  0  0  0  0
  157.3300  212.4130  152.5520 N   0  0  0  0  0  0  0  0  0  0  0  0
  157.6190  211.2210  153.1520 C   0  0  0  0  0  3  0  0  0  0  0  0
  161.0340  209.7990  153.6120 C   0  0  1  0  0  0  0  0  0  0  0  0
  160.4680  206.0720  146.2780 C   0  0  0  0  0  1  0  0  0  0  0  0
  158.3080  213.2190  152.0370 C   0  0  0  0  0  0  0  0  0  0  0  0
  157.9580  214.4520  151.4200 N   0  0  0  0  0  1  0  0  0  0  0  0
  160.6970  207.4140  155.6330 C   0  0  0  0  0  3  0  0  0  0  0  0
  162.1990  206.9110  147.6130 C   0  0  0  0  0  2  0  0  0  0  0  0
  159.6570  212.8350  152.1120 C   0  0  0  0  0  3  0  0  0  0  0  0
  161.5890  206.8130  150.5620 C   0  0  1  0  0  3  0  0  0  0  0  0
  160.3000  204.7930  150.5430 O   0  0  0  0  0  1  0  0  0  0  0  0
  161.7680  208.1520  149.8120 C   0  0  1  0  0  3  0  0  0  0  0  0
  161.1750  211.0540  152.9340 O   0  0  0  0  0  0  0  0  0  0  0  0
  159.9360  211.6180  152.7270 C   0  0  0  0  0  0  0  0  0  0  0  0
  162.7470  208.9190  151.9920 N   0  0  0  0  0  2  0  0  0  0  0  0
  158.9510  210.8270  153.2390 C   0  0  0  0  0  0  0  0  0  0  0  0
  160.4330  209.8920  155.0180 C   0  0  1  0  0  3  0  0  0  0  0  0
  162.6170  205.9490  152.7480 S   0  0  0  0  0  0  0  0  0  0  0  0
  160.0670  206.1630  148.5870 C   0  0  0  0  0  2  0  0  0  0  0  0
  159.5190  209.5780  153.8240 C   0  0  2  0  0  3  0  0  0  0  0  0
  161.8160  208.6200  153.0340 C   0  0  0  0  0  0  0  0  0  0  0  0
  162.2600  209.3300  150.6770 C   0  0  0  0  0  2  0  0  0  0  0  0
  160.7420  206.8550  147.4700 N   0  0  0  0  0  0  0  0  0  0  0  0
  161.5970  207.3240  153.3600 C   0  0  0  0  0  0  0  0  0  0  0  0
  1 16  1  1  0  0  0
  1 15  1  0  0  0  0
  2 12  1  0  0  0  0
  3 23  1  0  0  0  0
  6  7  1  0  0  0  0
  7 21  2  0  0  0  0
  8 18  1  6  0  0  0
  8 25  1  0  0  0  0
  8 22  1  0  0  0  0
  9 28  1  0  0  0  0
 10 14  1  0  0  0  0
 10  6  2  0  0  0  0
 11 10  1  0  0  0  0
 12  4  2  0  0  0  0
 13  5  1  0  0  0  0
 14 19  2  0  0  0  0
 15  3  1  6  0  0  0
 17  5  1  6  0  0  0
 17 15  1  0  0  0  0
 17 27  1  0  0  0  0
 19 18  1  0  0  0  0
 19 21  1  0  0  0  0
 20 26  1  0  0  0  0
 22  4  1  1  0  0  0
 23 29  1  0  0  0  0
 24  1  1  0  0  0  0
 25 21  1  6  0  0  0
 25 22  1  0  0  0  0
 26 29  2  0  0  0  0
 26  8  1  0  0  0  0
 27 20  1  0  0  0  0
 28 13  1  0  0  0  0
 28 24  1  0  0  0  0
 29  2  1  0  0  0  0
M  END
>  <MODEL>
1

>  <REMARK>
 VINA RESULT:      -5.0      0.000      0.000
  Name = 
  0 active torsions:
  status: ('A' for Active; 'I' for Inactive)
                            x       y       z     vdW  Elec       q    Type
                         _______ _______ _______ _____ _____    ______ ____

>  <TORSDO>
F 0

$$$$
=
 OpenBabel11052409563D

 29 34  0  0  1  0  0  0  0  0999 V2000
  160.9760  205.9260  150.8160 C   0  0  1  0  0  3  0  0  0  0  0  0
  160.1840  207.0920  155.3260 C   0  0  0  0  0  2  0  0  0  0  0  0
  162.6890  206.8090  152.2660 O   0  0  0  0  0  0  0  0  0  0  0  0
  160.1810  208.8990  157.0330 C   0  0  0  0  0  3  0  0  0  0  0  0
  162.4630  208.4260  149.7140 C   0  0  0  0  0  2  0  0  0  0  0  0
  156.6910  212.3420  153.5210 N   0  0  0  0  0  0  0  0  0  0  0  0
  157.0480  211.1730  154.1290 C   0  0  0  0  0  3  0  0  0  0  0  0
  160.5430  210.0180  154.7190 C   0  0  1  0  0  0  0  0  0  0  0  0
  160.5570  206.2990  147.3600 C   0  0  0  0  0  1  0  0  0  0  0  0
  157.6220  213.2250  153.0470 C   0  0  0  0  0  0  0  0  0  0  0  0
  157.2020  214.4300  152.4190 N   0  0  0  0  0  1  0  0  0  0  0  0
  160.3140  207.6030  156.7190 C   0  0  0  0  0  3  0  0  0  0  0  0
  162.1630  207.2640  148.7640 C   0  0  0  0  0  2  0  0  0  0  0  0
  158.9930  212.9460  153.1750 C   0  0  0  0  0  3  0  0  0  0  0  0
  161.4480  207.1010  151.6870 C   0  0  1  0  0  3  0  0  0  0  0  0
  160.3220  204.9870  151.6110 O   0  0  0  0  0  1  0  0  0  0  0  0
  161.5510  208.4550  150.9470 C   0  0  1  0  0  3  0  0  0  0  0  0
  160.6120  211.2840  154.0510 O   0  0  0  0  0  0  0  0  0  0  0  0
  159.3420  211.7510  153.7970 C   0  0  0  0  0  0  0  0  0  0  0  0
  162.3810  209.2830  153.1660 N   0  0  0  0  0  2  0  0  0  0  0  0
  158.4020  210.8830  154.2680 C   0  0  0  0  0  0  0  0  0  0  0  0
  159.8820  210.0560  156.1010 C   0  0  1  0  0  3  0  0  0  0  0  0
  162.4530  206.3070  153.9080 S   0  0  0  0  0  0  0  0  0  0  0  0
  160.0600  206.3460  149.6510 C   0  0  0  0  0  2  0  0  0  0  0  0
  159.0430  209.6790  154.8710 C   0  0  2  0  0  3  0  0  0  0  0  0
  161.4360  208.9070  154.1700 C   0  0  0  0  0  0  0  0  0  0  0  0
  161.9160  209.6620  151.8340 C   0  0  0  0  0  2  0  0  0  0  0  0
  160.7220  207.0950  148.5630 N   0  0  0  0  0  0  0  0  0  0  0  0
  161.3070  207.5950  154.4840 C   0  0  0  0  0  0  0  0  0  0  0  0
  1 16  1  1  0  0  0
  1 15  1  0  0  0  0
  2 12  1  0  0  0  0
  3 23  1  0  0  0  0
  6  7  1  0  0  0  0
  7 21  2  0  0  0  0
  8 18  1  6  0  0  0
  8 25  1  0  0  0  0
  8 22  1  0  0  0  0
  9 28  1  0  0  0  0
 10 14  1  0  0  0  0
 10  6  2  0  0  0  0
 11 10  1  0  0  0  0
 12  4  2  0  0  0  0
 13  5  1  0  0  0  0
 14 19  2  0  0  0  0
 15  3  1  6  0  0  0
 17  5  1  6  0  0  0
 17 15  1  0  0  0  0
 17 27  1  0  0  0  0
 19 18  1  0  0  0  0
 19 21  1  0  0  0  0
 20 26  1  0  0  0  0
 22  4  1  1  0  0  0
 23 29  1  0  0  0  0
 24  1  1  0  0  0  0
 25 21  1  6  0  0  0
 25 22  1  0  0  0  0
 26 29  2  0  0  0  0
 26  8  1  0  0  0  0
 27 20  1  0  0  0  0
 28 13  1  0  0  0  0
 28 24  1  0  0  0  0
 29  2  1  0  0  0  0
M  END
>  <MODEL>
2

>  <REMARK>
 VINA RESULT:      -3.7      1.126      1.193
  Name = 
  0 active torsions:
  status: ('A' for Active; 'I' for Inactive)
                            x       y       z     vdW  Elec       q    Type
                         _______ _______ _______ _____ _____    ______ ____

>  <TORSDO>
F 0

$$$$
=
 OpenBabel11052409563D

 29 34  0  0  1  0  0  0  0  0999 V2000
  161.1620  207.3270  150.4970 C   0  0  1  0  0  3  0  0  0  0  0  0
  159.6340  211.0320  153.0000 C   0  0  0  0  0  2  0  0  0  0  0  0
  162.6180  209.0980  151.2450 O   0  0  0  0  0  0  0  0  0  0  0  0
  159.3710  213.5010  153.1030 C   0  0  0  0  0  3  0  0  0  0  0  0
  162.8540  208.6660  148.2560 C   0  0  0  0  0  2  0  0  0  0  0  0
  156.5840  213.5210  147.7550 N   0  0  0  0  0  0  0  0  0  0  0  0
  156.8140  213.0580  149.0180 C   0  0  0  0  0  3  0  0  0  0  0  0
  160.1390  212.9020  150.6960 C   0  0  1  0  0  0  0  0  0  0  0  0
  161.3410  205.3500  147.6110 C   0  0  0  0  0  1  0  0  0  0  0  0
  157.5960  213.9790  146.9570 C   0  0  0  0  0  0  0  0  0  0  0  0
  157.3080  214.4520  145.6460 N   0  0  0  0  0  1  0  0  0  0  0  0
  159.5350  212.3270  153.7280 C   0  0  0  0  0  3  0  0  0  0  0  0
  162.7020  207.1430  148.2590 C   0  0  0  0  0  2  0  0  0  0  0  0
  158.9210  213.9850  147.4240 C   0  0  0  0  0  3  0  0  0  0  0  0
  161.4980  208.8260  150.4500 C   0  0  1  0  0  3  0  0  0  0  0  0
  160.3670  207.0600  151.6090 O   0  0  0  0  0  1  0  0  0  0  0  0
  161.7470  209.3900  149.0320 C   0  0  1  0  0  3  0  0  0  0  0  0
  160.3400  213.4420  149.3850 O   0  0  0  0  0  0  0  0  0  0  0  0
  159.1400  213.5090  148.7140 C   0  0  0  0  0  0  0  0  0  0  0  0
  162.2020  211.5260  150.2690 N   0  0  0  0  0  2  0  0  0  0  0  0
  158.1200  213.0600  149.4990 C   0  0  0  0  0  0  0  0  0  0  0  0
  159.2540  213.7530  151.6130 C   0  0  1  0  0  3  0  0  0  0  0  0
  162.0990  209.7480  152.7660 S   0  0  0  0  0  0  0  0  0  0  0  0
  160.4640  206.8080  149.2250 C   0  0  0  0  0  2  0  0  0  0  0  0
  158.6290  212.5950  150.8210 C   0  0  2  0  0  3  0  0  0  0  0  0
  161.0940  211.7920  151.1320 C   0  0  0  0  0  0  0  0  0  0  0  0
  161.9750  210.9140  148.9620 C   0  0  0  0  0  2  0  0  0  0  0  0
  161.3130  206.7440  148.0170 N   0  0  0  0  0  0  0  0  0  0  0  0
  160.8920  210.9840  152.2000 C   0  0  0  0  0  0  0  0  0  0  0  0
  1 16  1  1  0  0  0
  2 12  1  0  0  0  0
  3 23  1  0  0  0  0
  4 12  2  0  0  0  0
  5 13  1  0  0  0  0
  6  7  1  0  0  0  0
  7 21  2  0  0  0  0
  8 18  1  6  0  0  0
  8 25  1  0  0  0  0
  8 26  1  0  0  0  0
  8 22  1  0  0  0  0
  9 28  1  0  0  0  0
 10 14  1  0  0  0  0
 10  6  2  0  0  0  0
 11 10  1  0  0  0  0
 14 19  2  0  0  0  0
 15  1  1  0  0  0  0
 15  3  1  1  0  0  0
 17  5  1  1  0  0  0
 17 15  1  0  0  0  0
 19 18  1  0  0  0  0
 19 21  1  0  0  0  0
 20 26  1  0  0  0  0
 22  4  1  1  0  0  0
 24  1  1  0  0  0  0
 25 21  1  6  0  0  0
 25 22  1  0  0  0  0
 26 29  2  0  0  0  0
 27 17  1  0  0  0  0
 27 20  1  0  0  0  0
 28 13  1  0  0  0  0
 28 24  1  0  0  0  0
 29 23  1  0  0  0  0
 29  2  1  0  0  0  0
M  END
>  <MODEL>
3

>  <REMARK>
 VINA RESULT:      -3.3      2.727      3.827
  Name = 
  0 active torsions:
  status: ('A' for Active; 'I' for Inactive)
                            x       y       z     vdW  Elec       q    Type
                         _______ _______ _______ _____ _____    ______ ____

>  <TORSDO>
F 0

$$$$
