=
 OpenBabel11042420263D

 31 35  0  0  1  0  0  0  0  0999 V2000
  161.9240  208.7460  150.8360 C   0  0  0  0  0  0  0  0  0  0  0  0
  161.3980  205.9810  150.8580 C   0  0  0  0  0  0  0  0  0  0  0  0
  161.4610  206.7160  149.6660 C   0  0  0  0  0  0  0  0  0  0  0  0
  162.1940  210.1440  150.8300 N   0  0  0  0  0  1  0  0  0  0  0  0
  161.7160  208.0460  149.6550 C   0  0  0  0  0  0  0  0  0  0  0  0
  161.6130  206.7100  152.0600 C   0  0  0  0  0  0  0  0  0  0  0  0
  161.5140  207.3910  147.6580 C   0  0  0  0  0  3  0  0  0  0  0  0
  161.3340  206.2710  148.4070 N   0  0  0  0  0  0  0  0  0  0  0  0
  161.7530  208.5060  148.3970 N   0  0  0  0  0  0  0  0  0  0  0  0
  161.8650  208.0580  152.0120 N   0  0  0  0  0  2  0  0  0  0  0  0
  161.1980  202.8040  147.5380 C   0  0  0  0  0  0  0  0  0  0  0  0
  161.1310  204.5260  150.8430 C   0  0  0  0  0  0  0  0  0  0  0  0
  160.7370  201.3610  149.4170 N   0  0  0  0  0  0  0  0  0  0  0  0
  161.1210  203.6850  149.7550 C   0  0  0  0  0  0  0  0  0  0  0  0
  161.3880  202.9740  146.0750 C   0  0  0  0  0  1  0  0  0  0  0  0
  160.8410  202.4390  150.2350 C   0  0  0  0  0  0  0  0  0  0  0  0
  160.9160  201.5280  148.0720 C   0  0  0  0  0  3  0  0  0  0  0  0
  160.8520  203.7210  151.9490 C   0  0  0  0  0  3  0  0  0  0  0  0
  160.6700  202.4310  151.5670 N   0  0  0  0  0  0  0  0  0  0  0  0
  161.3000  203.9140  148.3940 C   0  0  0  0  0  2  0  0  0  0  0  0
  161.5260  205.9250  153.6710 S   0  0  0  0  0  0  0  0  0  0  0  0
  160.5520  207.2950  154.3810 C   0  0  0  0  0  2  0  0  0  0  0  0
  160.0570  207.2110  156.7300 O   0  0  0  0  0  1  0  0  0  0  0  0
  160.9990  207.6460  155.7960 C   0  0  2  0  0  3  0  0  0  0  0  0
  161.2340  209.1440  155.9360 C   0  0  0  0  0  2  0  0  0  0  0  0
  161.2440  210.9400  154.4420 C   0  0  0  0  0  2  0  0  0  0  0  0
  160.4030  209.8780  154.9950 N   0  0  0  0  0  0  0  0  0  0  0  0
  160.4800  211.7060  153.4600 N   0  0  0  0  0  2  0  0  0  0  0  0
  159.3260  212.3000  154.1300 C   0  0  0  0  0  2  0  0  0  0  0  0
  158.5070  211.2140  154.8200 C   0  0  0  0  0  2  0  0  0  0  0  0
  159.3760  210.4870  155.7440 N   0  0  0  0  0  2  0  0  0  0  0  0
  1 10  1  0  0  0  0
  2  6  2  0  0  0  0
  3  2  1  0  0  0  0
  4  1  1  0  0  0  0
  5  3  1  0  0  0  0
  5  1  2  0  0  0  0
  6 21  1  0  0  0  0
  7  9  2  0  0  0  0
  7  8  1  0  0  0  0
  8  3  2  0  0  0  0
  9  5  1  0  0  0  0
 10  6  1  0  0  0  0
 11 17  2  0  0  0  0
 11 20  1  0  0  0  0
 12  2  1  0  0  0  0
 12 18  1  0  0  0  0
 13 16  2  0  0  0  0
 14 16  1  0  0  0  0
 14 12  2  0  0  0  0
 15 11  1  0  0  0  0
 16 19  1  0  0  0  0
 17 13  1  0  0  0  0
 19 18  2  0  0  0  0
 20 14  1  0  0  0  0
 21 22  1  0  0  0  0
 22 24  1  0  0  0  0
 24 25  1  0  0  0  0
 24 23  1  1  0  0  0
 26 27  1  0  0  0  0
 27 31  1  0  0  0  0
 27 25  1  0  0  0  0
 28 29  1  0  0  0  0
 28 26  1  0  0  0  0
 29 30  1  0  0  0  0
 30 31  1  0  0  0  0
M  END
>  <MODEL>
1

>  <REMARK>
 VINA RESULT:      -9.4      0.000      0.000
  Name = 
  6 active torsions:
  status: ('A' for Active; 'I' for Inactive)
    1  A    between atoms: C_3  and  N_9
    2  A    between atoms: C_3  and  C_19
    3  A    between atoms: C_4  and  C_5
    4  A    between atoms: C_8  and  C_19
    5  A    between atoms: C_8  and  S_31
    6  A    between atoms: C_21  and  S_31
                            x       y       z     vdW  Elec       q    Type
                         _______ _______ _______ _____ _____    ______ ____

>  <TORSDO>
F 6

$$$$
=
 OpenBabel11042420263D

 31 35  0  0  1  0  0  0  0  0999 V2000
  161.3830  208.2120  152.2720 C   0  0  0  0  0  0  0  0  0  0  0  0
  161.6410  206.7330  149.8910 C   0  0  0  0  0  0  0  0  0  0  0  0
  161.4890  206.1120  151.1380 C   0  0  0  0  0  0  0  0  0  0  0  0
  161.2490  208.9650  153.4720 N   0  0  0  0  0  1  0  0  0  0  0  0
  161.3630  206.8240  152.2840 C   0  0  2  0  0  3  0  0  0  0  0  0
  161.6590  208.1550  149.8920 C   0  0  0  0  0  0  0  0  0  0  0  0
  161.2320  204.7710  152.7580 C   0  0  0  0  0  3  0  0  0  0  0  0
  161.4030  204.8010  151.4100 N   0  0  0  0  0  0  0  0  0  0  0  0
  161.2020  206.0030  153.3310 N   0  0  0  0  0  0  0  0  0  0  0  0
  161.5330  208.8430  151.0720 N   0  0  0  0  0  0  0  0  0  0  0  0
  160.6260  202.3860  148.7800 C   0  0  0  0  0  0  0  0  0  0  0  0
  161.7630  205.9340  148.6520 C   0  0  0  0  0  0  0  0  0  0  0  0
  161.4630  203.1000  146.6310 N   0  0  0  0  0  0  0  0  0  0  0  0
  161.3960  204.6230  148.4580 C   0  0  0  0  0  0  0  0  0  0  0  0
  160.0520  201.3170  149.6350 C   0  0  0  0  0  1  0  0  0  0  0  0
  161.6870  204.3300  147.1580 C   0  0  0  0  0  0  0  0  0  0  0  0
  160.9320  202.1230  147.4270 C   0  0  0  0  0  3  0  0  0  0  0  0
  162.2670  206.3730  147.4270 C   0  0  0  0  0  3  0  0  0  0  0  0
  162.2210  205.3760  146.5060 N   0  0  0  0  0  0  0  0  0  0  0  0
  160.8650  203.6630  149.3150 C   0  0  0  0  0  2  0  0  0  0  0  0
  161.8870  209.0990  148.3840 S   0  0  0  0  0  0  0  0  0  0  0  0
  162.0010  210.6800  149.2890 C   0  0  0  0  0  2  0  0  0  0  0  0
  163.2920  212.4400  148.2870 O   0  0  0  0  0  1  0  0  0  0  0  0
  162.0140  211.8810  148.3500 C   0  0  2  0  0  3  0  0  0  0  0  0
  160.9970  212.9270  148.7890 C   0  0  0  0  0  2  0  0  0  0  0  0
  158.7810  213.3910  148.2130 C   0  0  0  0  0  2  0  0  0  0  0  0
  160.1390  213.2970  147.6750 N   0  0  0  0  0  0  0  0  0  0  0  0
  157.8610  213.7900  147.1510 N   0  0  0  0  0  2  0  0  0  0  0  0
  157.8970  212.7770  146.0990 C   0  0  0  0  0  2  0  0  0  0  0  0
  159.3310  212.5770  145.6170 C   0  0  0  0  0  2  0  0  0  0  0  0
  160.1670  212.2240  146.7620 N   0  0  0  0  0  2  0  0  0  0  0  0
  1  5  1  0  0  0  0
  1  4  1  0  0  0  0
  2  6  2  0  0  0  0
  2  3  1  0  0  0  0
  3  8  2  0  0  0  0
  5  3  1  6  0  0  0
  5  9  1  0  0  0  0
  6 10  1  0  0  0  0
  7  9  2  0  0  0  0
  8  7  1  0  0  0  0
 10  1  2  0  0  0  0
 11 20  1  0  0  0  0
 11 15  1  0  0  0  0
 12  2  1  0  0  0  0
 13 16  2  0  0  0  0
 13 17  1  0  0  0  0
 14 12  2  0  0  0  0
 14 20  1  0  0  0  0
 16 14  1  0  0  0  0
 17 11  2  0  0  0  0
 18 12  1  0  0  0  0
 19 16  1  0  0  0  0
 19 18  2  0  0  0  0
 21 22  1  0  0  0  0
 21  6  1  0  0  0  0
 24 23  1  1  0  0  0
 24 25  1  0  0  0  0
 24 22  1  0  0  0  0
 27 26  1  0  0  0  0
 27 25  1  0  0  0  0
 28 26  1  0  0  0  0
 29 28  1  0  0  0  0
 30 29  1  0  0  0  0
 30 31  1  0  0  0  0
 31 27  1  0  0  0  0
M  END
>  <MODEL>
2

>  <REMARK>
 VINA RESULT:      -9.1      3.790      5.571
  Name = 
  6 active torsions:
  status: ('A' for Active; 'I' for Inactive)
    1  A    between atoms: C_3  and  N_9
    2  A    between atoms: C_3  and  C_19
    3  A    between atoms: C_4  and  C_5
    4  A    between atoms: C_8  and  C_19
    5  A    between atoms: C_8  and  S_31
    6  A    between atoms: C_21  and  S_31
                            x       y       z     vdW  Elec       q    Type
                         _______ _______ _______ _____ _____    ______ ____

>  <TORSDO>
F 6

$$$$
=
 OpenBabel11042420263D

 31 35  0  0  1  0  0  0  0  0999 V2000
  161.8320  208.1570  149.0900 C   0  0  0  0  0  0  0  0  0  0  0  0
  161.5830  209.4560  151.5750 C   0  0  0  0  0  0  0  0  0  0  0  0
  161.8370  210.1610  150.3910 C   0  0  0  0  0  0  0  0  0  0  0  0
  161.9530  207.4950  147.8360 N   0  0  0  0  0  1  0  0  0  0  0  0
  161.9550  209.5360  149.1940 C   0  0  0  0  0  0  0  0  0  0  0  0
  161.4590  208.0440  151.4540 C   0  0  0  0  0  0  0  0  0  0  0  0
  162.1640  211.6130  148.8830 C   0  0  0  0  0  3  0  0  0  0  0  0
  161.9600  211.4860  150.2200 N   0  0  0  0  0  0  0  0  0  0  0  0
  162.1670  210.4290  148.2170 N   0  0  0  0  0  0  0  0  0  0  0  0
  161.5880  207.4450  150.2270 N   0  0  0  0  0  2  0  0  0  0  0  0
  158.6020  212.5480  153.2220 C   0  0  0  0  0  0  0  0  0  0  0  0
  161.4450  210.1630  152.8670 C   0  0  0  0  0  0  0  0  0  0  0  0
  159.9930  212.3380  155.1840 N   0  0  0  0  0  0  0  0  0  0  0  0
  160.4740  211.0660  153.2310 C   0  0  0  0  0  0  0  0  0  0  0  0
  157.4320  213.1640  152.5460 C   0  0  0  0  0  1  0  0  0  0  0  0
  160.7530  211.4350  154.5140 C   0  0  0  0  0  0  0  0  0  0  0  0
  158.9170  212.8980  154.5530 C   0  0  0  0  0  3  0  0  0  0  0  0
  162.2770  210.0300  153.9800 C   0  0  0  0  0  3  0  0  0  0  0  0
  161.8470  210.8220  154.9950 N   0  0  0  0  0  0  0  0  0  0  0  0
  159.3980  211.6130  152.5380 C   0  0  0  0  0  2  0  0  0  0  0  0
  161.1740  206.9950  152.8810 S   0  0  0  0  0  0  0  0  0  0  0  0
  162.0270  205.5750  152.1160 C   0  0  0  0  0  2  0  0  0  0  0  0
  161.8540  203.1800  152.1220 O   0  0  0  0  0  1  0  0  0  0  0  0
  161.1180  204.3590  151.9860 C   0  0  2  0  0  3  0  0  0  0  0  0
  160.3760  204.3720  150.6570 C   0  0  0  0  0  2  0  0  0  0  0  0
  161.0790  204.2680  148.4310 C   0  0  0  0  0  2  0  0  0  0  0  0
  161.0530  203.5230  149.6900 N   0  0  0  0  0  0  0  0  0  0  0  0
  161.7750  203.4840  147.4130 N   0  0  0  0  0  2  0  0  0  0  0  0
  161.0530  202.2290  147.2190 C   0  0  0  0  0  2  0  0  0  0  0  0
  160.9070  201.5000  148.5510 C   0  0  0  0  0  2  0  0  0  0  0  0
  160.2400  202.3870  149.5020 N   0  0  0  0  0  2  0  0  0  0  0  0
  1  5  2  0  0  0  0
  1 10  1  0  0  0  0
  2 12  1  0  0  0  0
  3  2  1  0  0  0  0
  4  1  1  0  0  0  0
  5  3  1  0  0  0  0
  6  2  2  0  0  0  0
  6 21  1  0  0  0  0
  7  8  1  0  0  0  0
  8  3  2  0  0  0  0
  9  7  2  0  0  0  0
  9  5  1  0  0  0  0
 10  6  1  0  0  0  0
 11 17  2  0  0  0  0
 12 14  2  0  0  0  0
 12 18  1  0  0  0  0
 14 16  1  0  0  0  0
 15 11  1  0  0  0  0
 16 19  1  0  0  0  0
 16 13  2  0  0  0  0
 17 13  1  0  0  0  0
 18 19  2  0  0  0  0
 20 11  1  0  0  0  0
 20 14  1  0  0  0  0
 22 21  1  0  0  0  0
 24 22  1  0  0  0  0
 24 23  1  6  0  0  0
 25 24  1  0  0  0  0
 26 27  1  0  0  0  0
 27 25  1  0  0  0  0
 28 26  1  0  0  0  0
 29 28  1  0  0  0  0
 29 30  1  0  0  0  0
 30 31  1  0  0  0  0
 31 27  1  0  0  0  0
M  END
>  <MODEL>
3

>  <REMARK>
 VINA RESULT:      -9.0      1.958      7.882
  Name = 
  6 active torsions:
  status: ('A' for Active; 'I' for Inactive)
    1  A    between atoms: C_3  and  N_9
    2  A    between atoms: C_3  and  C_19
    3  A    between atoms: C_4  and  C_5
    4  A    between atoms: C_8  and  C_19
    5  A    between atoms: C_8  and  S_31
    6  A    between atoms: C_21  and  S_31
                            x       y       z     vdW  Elec       q    Type
                         _______ _______ _______ _____ _____    ______ ____

>  <TORSDO>
F 6

$$$$
=
 OpenBabel11042420263D

 31 35  0  0  1  0  0  0  0  0999 V2000
  161.7180  206.5860  148.0260 C   0  0  0  0  0  0  0  0  0  0  0  0
  161.4550  207.1620  150.7690 C   0  0  0  0  0  0  0  0  0  0  0  0
  161.1570  205.8980  150.2440 C   0  0  0  0  0  0  0  0  0  0  0  0
  161.8570  206.2990  146.6390 N   0  0  0  0  0  1  0  0  0  0  0  0
  161.2860  205.6190  148.9240 C   0  0  0  0  0  0  0  0  0  0  0  0
  161.8980  208.1430  149.8380 C   0  0  0  0  0  0  0  0  0  0  0  0
  160.6530  203.8660  149.9140 C   0  0  0  0  0  3  0  0  0  0  0  0
  160.7620  204.7960  150.9000 N   0  0  0  0  0  2  0  0  0  0  0  0
  160.9700  204.3400  148.6810 N   0  0  0  0  0  0  0  0  0  0  0  0
  162.0120  207.8270  148.5080 N   0  0  0  0  0  0  0  0  0  0  0  0
  159.7340  210.6630  153.2060 C   0  0  0  0  0  0  0  0  0  0  0  0
  161.3200  207.4380  152.2150 C   0  0  0  0  0  0  0  0  0  0  0  0
  160.4000  209.2580  155.0520 N   0  0  0  0  0  0  0  0  0  0  0  0
  160.7570  208.5420  152.8120 C   0  0  0  0  0  0  0  0  0  0  0  0
  159.1250  211.9260  152.7180 C   0  0  0  0  0  1  0  0  0  0  0  0
  160.8500  208.3430  154.1570 C   0  0  0  0  0  0  0  0  0  0  0  0
  159.8400  210.4160  154.5930 C   0  0  0  0  0  3  0  0  0  0  0  0
  161.7300  206.6090  153.2610 C   0  0  0  0  0  3  0  0  0  0  0  0
  161.4400  207.1740  154.4610 N   0  0  0  0  0  0  0  0  0  0  0  0
  160.2070  209.7080  152.2890 C   0  0  0  0  0  2  0  0  0  0  0  0
  162.2800  209.8210  150.3440 S   0  0  0  0  0  0  0  0  0  0  0  0
  161.9030  210.4970  148.6910 C   0  0  0  0  0  2  0  0  0  0  0  0
  161.0830  212.5760  149.5700 O   0  0  0  0  0  1  0  0  0  0  0  0
  161.9830  212.0190  148.6590 C   0  0  2  0  0  3  0  0  0  0  0  0
  161.7160  212.5490  147.2560 C   0  0  0  0  0  2  0  0  0  0  0  0
  159.9560  212.2390  145.7510 C   0  0  0  0  0  2  0  0  0  0  0  0
  160.2940  212.7850  147.0660 N   0  0  0  0  0  0  0  0  0  0  0  0
  158.5270  212.4140  145.5020 N   0  0  0  0  0  2  0  0  0  0  0  0
  158.2230  213.8430  145.5260 C   0  0  0  0  0  2  0  0  0  0  0  0
  158.6870  214.4520  146.8460 C   0  0  0  0  0  2  0  0  0  0  0  0
  160.1140  214.1810  147.0120 N   0  0  0  0  0  2  0  0  0  0  0  0
  1 10  2  0  0  0  0
  1  5  1  0  0  0  0
  2 12  1  0  0  0  0
  3  2  1  0  0  0  0
  3  8  1  0  0  0  0
  4  1  1  0  0  0  0
  5  3  2  0  0  0  0
  6 21  1  0  0  0  0
  6  2  2  0  0  0  0
  7  8  1  0  0  0  0
  9  5  1  0  0  0  0
  9  7  2  0  0  0  0
 10  6  1  0  0  0  0
 11 17  2  0  0  0  0
 12 14  2  0  0  0  0
 12 18  1  0  0  0  0
 14 16  1  0  0  0  0
 15 11  1  0  0  0  0
 16 19  1  0  0  0  0
 16 13  2  0  0  0  0
 17 13  1  0  0  0  0
 18 19  2  0  0  0  0
 20 14  1  0  0  0  0
 20 11  1  0  0  0  0
 22 21  1  0  0  0  0
 24 22  1  0  0  0  0
 24 23  1  1  0  0  0
 25 24  1  0  0  0  0
 26 27  1  0  0  0  0
 27 25  1  0  0  0  0
 28 29  1  0  0  0  0
 28 26  1  0  0  0  0
 29 30  1  0  0  0  0
 30 31  1  0  0  0  0
 31 27  1  0  0  0  0
M  END
>  <MODEL>
4

>  <REMARK>
 VINA RESULT:      -8.9      3.768      6.996
  Name = 
  6 active torsions:
  status: ('A' for Active; 'I' for Inactive)
    1  A    between atoms: C_3  and  N_9
    2  A    between atoms: C_3  and  C_19
    3  A    between atoms: C_4  and  C_5
    4  A    between atoms: C_8  and  C_19
    5  A    between atoms: C_8  and  S_31
    6  A    between atoms: C_21  and  S_31
                            x       y       z     vdW  Elec       q    Type
                         _______ _______ _______ _____ _____    ______ ____

>  <TORSDO>
F 6

$$$$
=
 OpenBabel11042420263D

 31 35  0  0  1  0  0  0  0  0999 V2000
  161.7820  207.3720  148.6520 C   0  0  0  0  0  0  0  0  0  0  0  0
  161.3810  207.7650  151.4100 C   0  0  0  0  0  0  0  0  0  0  0  0
  161.7650  208.8100  150.5600 C   0  0  0  0  0  0  0  0  0  0  0  0
  161.9800  207.1690  147.2570 N   0  0  0  0  0  1  0  0  0  0  0  0
  161.9570  208.6220  149.2320 C   0  0  0  0  0  0  0  0  0  0  0  0
  161.2050  206.4900  150.8040 C   0  0  0  0  0  0  0  0  0  0  0  0
  162.2820  210.6620  149.6680 C   0  0  0  0  0  3  0  0  0  0  0  0
  161.9600  210.1020  150.8640 N   0  0  0  0  0  0  0  0  0  0  0  0
  162.2890  209.7760  148.6370 N   0  0  0  0  0  0  0  0  0  0  0  0
  161.4120  206.3350  149.4560 N   0  0  0  0  0  2  0  0  0  0  0  0
  159.1780  210.9990  153.8280 C   0  0  0  0  0  0  0  0  0  0  0  0
  161.1650  207.9990  152.8550 C   0  0  0  0  0  0  0  0  0  0  0  0
  159.9410  209.6500  155.6800 N   0  0  0  0  0  0  0  0  0  0  0  0
  160.4560  209.0190  153.4440 C   0  0  0  0  0  0  0  0  0  0  0  0
  158.4430  212.1900  153.3350 C   0  0  0  0  0  1  0  0  0  0  0  0
  160.5250  208.8100  154.7900 C   0  0  0  0  0  0  0  0  0  0  0  0
  159.2640  210.7440  155.2150 C   0  0  0  0  0  3  0  0  0  0  0  0
  161.6330  207.2060  153.9040 C   0  0  0  0  0  3  0  0  0  0  0  0
  161.2380  207.7130  155.1000 N   0  0  0  0  0  0  0  0  0  0  0  0
  159.7910  210.1220  152.9170 C   0  0  0  0  0  2  0  0  0  0  0  0
  160.7540  205.0420  151.7610 S   0  0  0  0  0  0  0  0  0  0  0  0
  160.4570  204.0390  150.2660 C   0  0  0  0  0  2  0  0  0  0  0  0
  161.5720  202.4100  151.6340 O   0  0  0  0  0  1  0  0  0  0  0  0
  160.8040  202.5700  150.4790 C   0  0  2  0  0  3  0  0  0  0  0  0
  161.5360  202.0030  149.2700 C   0  0  0  0  0  2  0  0  0  0  0  0
  160.8310  201.3900  147.1290 C   0  0  0  0  0  2  0  0  0  0  0  0
  160.9650  202.5270  148.0400 N   0  0  0  0  0  0  0  0  0  0  0  0
  160.2330  201.8380  145.8730 N   0  0  0  0  0  2  0  0  0  0  0  0
  161.1100  202.8410  145.2720 C   0  0  0  0  0  2  0  0  0  0  0  0
  161.3620  203.9740  146.2620 C   0  0  0  0  0  2  0  0  0  0  0  0
  161.9170  203.4090  147.4910 N   0  0  0  0  0  2  0  0  0  0  0  0
  1  5  2  0  0  0  0
  1 10  1  0  0  0  0
  2 12  1  0  0  0  0
  3  8  2  0  0  0  0
  3  2  1  0  0  0  0
  4  1  1  0  0  0  0
  5  3  1  0  0  0  0
  6  2  2  0  0  0  0
  6 21  1  0  0  0  0
  7  8  1  0  0  0  0
  9  5  1  0  0  0  0
  9  7  2  0  0  0  0
 10  6  1  0  0  0  0
 11 17  2  0  0  0  0
 12 14  2  0  0  0  0
 12 18  1  0  0  0  0
 14 16  1  0  0  0  0
 15 11  1  0  0  0  0
 16 19  1  0  0  0  0
 16 13  2  0  0  0  0
 17 13  1  0  0  0  0
 18 19  2  0  0  0  0
 20 14  1  0  0  0  0
 20 11  1  0  0  0  0
 22 24  1  0  0  0  0
 22 21  1  0  0  0  0
 24 23  1  1  0  0  0
 25 24  1  0  0  0  0
 26 27  1  0  0  0  0
 27 25  1  0  0  0  0
 28 26  1  0  0  0  0
 29 28  1  0  0  0  0
 29 30  1  0  0  0  0
 30 31  1  0  0  0  0
 31 27  1  0  0  0  0
M  END
>  <MODEL>
5

>  <REMARK>
 VINA RESULT:      -8.7      2.019      7.821
  Name = 
  6 active torsions:
  status: ('A' for Active; 'I' for Inactive)
    1  A    between atoms: C_3  and  N_9
    2  A    between atoms: C_3  and  C_19
    3  A    between atoms: C_4  and  C_5
    4  A    between atoms: C_8  and  C_19
    5  A    between atoms: C_8  and  S_31
    6  A    between atoms: C_21  and  S_31
                            x       y       z     vdW  Elec       q    Type
                         _______ _______ _______ _____ _____    ______ ____

>  <TORSDO>
F 6

$$$$
=
 OpenBabel11042420263D

 31 35  0  0  1  0  0  0  0  0999 V2000
  162.2600  208.7000  149.3910 C   0  0  0  0  0  0  0  0  0  0  0  0
  160.9630  209.8710  151.5980 C   0  0  0  0  0  0  0  0  0  0  0  0
  161.3660  210.6250  150.4870 C   0  0  0  0  0  0  0  0  0  0  0  0
  162.9120  208.1020  148.2760 N   0  0  0  0  0  1  0  0  0  0  0  0
  161.9880  210.0610  149.4240 C   0  0  0  0  0  0  0  0  0  0  0  0
  161.2470  208.4780  151.5510 C   0  0  0  0  0  0  0  0  0  0  0  0
  161.7380  212.1200  149.0330 C   0  0  0  0  0  3  0  0  0  0  0  0
  161.1880  211.9350  150.2620 N   0  0  0  0  0  0  0  0  0  0  0  0
  162.2420  210.9830  148.4850 N   0  0  0  0  0  0  0  0  0  0  0  0
  161.8830  207.9420  150.4600 N   0  0  0  0  0  2  0  0  0  0  0  0
  162.2130  210.9310  155.8950 C   0  0  0  0  0  0  0  0  0  0  0  0
  160.2730  210.5070  152.7410 C   0  0  0  0  0  0  0  0  0  0  0  0
  159.9520  211.7710  155.9820 N   0  0  0  0  0  0  0  0  0  0  0  0
  160.7880  210.7820  153.9860 C   0  0  0  0  0  0  0  0  0  0  0  0
  163.5170  210.7020  156.5690 C   0  0  0  0  0  1  0  0  0  0  0  0
  159.7870  211.3800  154.6940 C   0  0  0  0  0  0  0  0  0  0  0  0
  161.1560  211.5560  156.5930 C   0  0  0  0  0  3  0  0  0  0  0  0
  158.9560  210.9690  152.7640 C   0  0  0  0  0  3  0  0  0  0  0  0
  158.6590  211.5060  153.9750 N   0  0  0  0  0  0  0  0  0  0  0  0
  162.0290  210.5280  154.5620 C   0  0  0  0  0  2  0  0  0  0  0  0
  160.8340  207.3830  152.9110 S   0  0  0  0  0  0  0  0  0  0  0  0
  161.9570  206.0750  152.3120 C   0  0  0  0  0  2  0  0  0  0  0  0
  162.1080  203.6970  152.0120 O   0  0  0  0  0  1  0  0  0  0  0  0
  161.2200  204.7740  152.0150 C   0  0  2  0  0  3  0  0  0  0  0  0
  160.4810  204.8580  150.6860 C   0  0  0  0  0  2  0  0  0  0  0  0
  161.2070  204.9920  148.4700 C   0  0  0  0  0  2  0  0  0  0  0  0
  161.2090  204.1350  149.6560 N   0  0  0  0  0  0  0  0  0  0  0  0
  161.9510  204.3390  147.3940 N   0  0  0  0  0  2  0  0  0  0  0  0
  161.2950  203.0720  147.0780 C   0  0  0  0  0  2  0  0  0  0  0  0
  161.1760  202.2190  148.3370 C   0  0  0  0  0  2  0  0  0  0  0  0
  160.4560  202.9820  149.3550 N   0  0  0  0  0  2  0  0  0  0  0  0
  1  5  2  0  0  0  0
  1 10  1  0  0  0  0
  2 12  1  0  0  0  0
  3  2  1  0  0  0  0
  4  1  1  0  0  0  0
  5  3  1  0  0  0  0
  6  2  2  0  0  0  0
  6 21  1  0  0  0  0
  7  8  1  0  0  0  0
  8  3  2  0  0  0  0
  9  7  2  0  0  0  0
  9  5  1  0  0  0  0
 10  6  1  0  0  0  0
 11 15  1  0  0  0  0
 11 17  2  0  0  0  0
 12 18  1  0  0  0  0
 12 14  2  0  0  0  0
 13 17  1  0  0  0  0
 14 20  1  0  0  0  0
 14 16  1  0  0  0  0
 16 13  2  0  0  0  0
 18 19  2  0  0  0  0
 19 16  1  0  0  0  0
 20 11  1  0  0  0  0
 22 21  1  0  0  0  0
 24 23  1  6  0  0  0
 24 22  1  0  0  0  0
 25 24  1  0  0  0  0
 26 27  1  0  0  0  0
 27 25  1  0  0  0  0
 28 26  1  0  0  0  0
 29 28  1  0  0  0  0
 29 30  1  0  0  0  0
 30 31  1  0  0  0  0
 31 27  1  0  0  0  0
M  END
>  <MODEL>
6

>  <REMARK>
 VINA RESULT:      -8.7      2.081      7.852
  Name = 
  6 active torsions:
  status: ('A' for Active; 'I' for Inactive)
    1  A    between atoms: C_3  and  N_9
    2  A    between atoms: C_3  and  C_19
    3  A    between atoms: C_4  and  C_5
    4  A    between atoms: C_8  and  C_19
    5  A    between atoms: C_8  and  S_31
    6  A    between atoms: C_21  and  S_31
                            x       y       z     vdW  Elec       q    Type
                         _______ _______ _______ _____ _____    ______ ____

>  <TORSDO>
F 6

$$$$
=
 OpenBabel11042420263D

 31 35  0  0  1  0  0  0  0  0999 V2000
  161.2420  206.0340  152.4420 C   0  0  0  0  0  0  0  0  0  0  0  0
  161.2350  205.6400  149.6540 C   0  0  0  0  0  0  0  0  0  0  0  0
  161.0670  204.5790  150.5540 C   0  0  0  0  0  0  0  0  0  0  0  0
  161.2430  206.2380  153.8500 N   0  0  0  0  0  1  0  0  0  0  0  0
  161.0680  204.7690  151.8960 C   0  0  2  0  0  3  0  0  0  0  0  0
  161.4120  206.9310  150.2260 C   0  0  0  0  0  0  0  0  0  0  0  0
  160.7290  202.7200  151.5140 C   0  0  0  0  0  3  0  0  0  0  0  0
  160.8460  203.2840  150.2830 N   0  0  0  0  0  0  0  0  0  0  0  0
  160.8600  203.6080  152.5340 N   0  0  0  0  0  0  0  0  0  0  0  0
  161.4120  207.0850  151.5890 N   0  0  0  0  0  0  0  0  0  0  0  0
  161.1750  201.8730  147.0150 C   0  0  0  0  0  0  0  0  0  0  0  0
  161.2160  205.4100  148.1930 C   0  0  0  0  0  0  0  0  0  0  0  0
  161.1430  203.5240  145.2530 N   0  0  0  0  0  0  0  0  0  0  0  0
  161.1810  204.2040  147.5330 C   0  0  0  0  0  0  0  0  0  0  0  0
  161.1800  200.4470  147.4280 C   0  0  0  0  0  1  0  0  0  0  0  0
  161.1620  204.4940  146.2010 C   0  0  0  0  0  0  0  0  0  0  0  0
  161.1470  202.2140  145.6440 C   0  0  0  0  0  3  0  0  0  0  0  0
  161.2130  206.3880  147.1980 C   0  0  0  0  0  3  0  0  0  0  0  0
  161.1830  205.8170  145.9660 N   0  0  0  0  0  0  0  0  0  0  0  0
  161.1970  202.8880  147.9870 C   0  0  0  0  0  2  0  0  0  0  0  0
  161.6800  208.3850  149.2120 S   0  0  0  0  0  0  0  0  0  0  0  0
  162.0310  209.4370  150.6610 C   0  0  0  0  0  2  0  0  0  0  0  0
  160.9850  211.5970  150.7500 O   0  0  0  0  0  1  0  0  0  0  0  0
  162.1140  210.9140  150.2940 C   0  0  2  0  0  3  0  0  0  0  0  0
  162.2740  211.0940  148.7910 C   0  0  0  0  0  2  0  0  0  0  0  0
  160.8780  212.1810  147.2650 C   0  0  0  0  0  2  0  0  0  0  0  0
  161.7950  212.4050  148.3840 N   0  0  0  0  0  0  0  0  0  0  0  0
  160.3300  213.4600  146.8190 N   0  0  0  0  0  2  0  0  0  0  0  0
  161.4330  214.3090  146.3790 C   0  0  0  0  0  2  0  0  0  0  0  0
  162.4630  214.4480  147.4950 C   0  0  0  0  0  2  0  0  0  0  0  0
  162.9090  213.1140  147.8910 N   0  0  0  0  0  2  0  0  0  0  0  0
  1  4  1  0  0  0  0
  2  6  2  0  0  0  0
  2  3  1  0  0  0  0
  5  3  1  6  0  0  0
  5  1  1  0  0  0  0
  5  9  1  0  0  0  0
  6 10  1  0  0  0  0
  7  9  2  0  0  0  0
  8  3  2  0  0  0  0
  8  7  1  0  0  0  0
 10  1  2  0  0  0  0
 11 15  1  0  0  0  0
 11 20  1  0  0  0  0
 12  2  1  0  0  0  0
 13 17  1  0  0  0  0
 13 16  2  0  0  0  0
 14 20  1  0  0  0  0
 14 12  2  0  0  0  0
 16 14  1  0  0  0  0
 17 11  2  0  0  0  0
 18 12  1  0  0  0  0
 19 16  1  0  0  0  0
 19 18  2  0  0  0  0
 21  6  1  0  0  0  0
 21 22  1  0  0  0  0
 24 22  1  0  0  0  0
 24 23  1  6  0  0  0
 25 24  1  0  0  0  0
 26 27  1  0  0  0  0
 27 25  1  0  0  0  0
 28 26  1  0  0  0  0
 29 28  1  0  0  0  0
 29 30  1  0  0  0  0
 30 31  1  0  0  0  0
 31 27  1  0  0  0  0
M  END
>  <MODEL>
7

>  <REMARK>
 VINA RESULT:      -8.5      3.236      5.339
  Name = 
  6 active torsions:
  status: ('A' for Active; 'I' for Inactive)
    1  A    between atoms: C_3  and  N_9
    2  A    between atoms: C_3  and  C_19
    3  A    between atoms: C_4  and  C_5
    4  A    between atoms: C_8  and  C_19
    5  A    between atoms: C_8  and  S_31
    6  A    between atoms: C_21  and  S_31
                            x       y       z     vdW  Elec       q    Type
                         _______ _______ _______ _____ _____    ______ ____

>  <TORSDO>
F 6

$$$$
=
 OpenBabel11042420263D

 31 35  0  0  1  0  0  0  0  0999 V2000
  160.7010  207.6940  155.9510 C   0  0  0  0  0  0  0  0  0  0  0  0
  161.0740  209.2240  153.6180 C   0  0  0  0  0  0  0  0  0  0  0  0
  161.0720  209.8040  154.8930 C   0  0  0  0  0  0  0  0  0  0  0  0
  160.5160  206.9160  157.1280 N   0  0  0  0  0  1  0  0  0  0  0  0
  160.8950  209.0680  156.0170 C   0  0  2  0  0  3  0  0  0  0  0  0
  160.8750  207.8160  153.5650 C   0  0  0  0  0  0  0  0  0  0  0  0
  161.1950  211.0800  156.5810 C   0  0  0  0  0  3  0  0  0  0  0  0
  161.2720  211.0890  155.2240 N   0  0  0  0  0  0  0  0  0  0  0  0
  160.9640  209.8480  157.1050 N   0  0  0  0  0  0  0  0  0  0  0  0
  160.6950  207.1030  154.7220 N   0  0  0  0  0  0  0  0  0  0  0  0
  158.9020  212.8520  151.8070 C   0  0  0  0  0  0  0  0  0  0  0  0
  161.2830  210.0470  152.4070 C   0  0  0  0  0  0  0  0  0  0  0  0
  160.6350  212.6270  150.1420 N   0  0  0  0  0  0  0  0  0  0  0  0
  160.5500  211.1350  151.9930 C   0  0  0  0  0  0  0  0  0  0  0  0
  157.7010  213.5650  152.3120 C   0  0  0  0  0  1  0  0  0  0  0  0
  161.1240  211.5680  150.8350 C   0  0  0  0  0  0  0  0  0  0  0  0
  159.5300  213.2780  150.6160 C   0  0  0  0  0  3  0  0  0  0  0  0
  162.2890  209.8820  151.4530 C   0  0  0  0  0  3  0  0  0  0  0  0
  162.1850  210.8230  150.4800 N   0  0  0  0  0  0  0  0  0  0  0  0
  159.4170  211.7520  152.5140 C   0  0  0  0  0  2  0  0  0  0  0  0
  160.8110  206.9290  152.0070 S   0  0  0  0  0  0  0  0  0  0  0  0
  161.4320  205.3870  152.7610 C   0  0  0  0  0  2  0  0  0  0  0  0
  162.0760  203.2600  151.8520 O   0  0  0  0  0  1  0  0  0  0  0  0
  161.0090  204.1510  151.9760 C   0  0  2  0  0  3  0  0  0  0  0  0
  160.4740  204.5350  150.6020 C   0  0  0  0  0  2  0  0  0  0  0  0
  161.2280  204.6790  148.3960 C   0  0  0  0  0  2  0  0  0  0  0  0
  161.1740  203.7980  149.5630 N   0  0  0  0  0  0  0  0  0  0  0  0
  161.9480  204.0120  147.3130 N   0  0  0  0  0  2  0  0  0  0  0  0
  161.2320  202.7880  146.9630 C   0  0  0  0  0  2  0  0  0  0  0  0
  161.0560  201.9150  148.2020 C   0  0  0  0  0  2  0  0  0  0  0  0
  160.3670  202.6920  149.2300 N   0  0  0  0  0  2  0  0  0  0  0  0
  1  5  1  0  0  0  0
  1  4  1  0  0  0  0
  2  3  1  0  0  0  0
  3  8  2  0  0  0  0
  5  3  1  1  0  0  0
  5  9  1  0  0  0  0
  6  2  2  0  0  0  0
  6 10  1  0  0  0  0
  7  9  2  0  0  0  0
  8  7  1  0  0  0  0
 10  1  2  0  0  0  0
 11 15  1  0  0  0  0
 11 20  1  0  0  0  0
 12  2  1  0  0  0  0
 13 17  1  0  0  0  0
 13 16  2  0  0  0  0
 14 12  2  0  0  0  0
 14 20  1  0  0  0  0
 16 14  1  0  0  0  0
 17 11  2  0  0  0  0
 18 12  1  0  0  0  0
 19 16  1  0  0  0  0
 19 18  2  0  0  0  0
 21 22  1  0  0  0  0
 21  6  1  0  0  0  0
 24 23  1  6  0  0  0
 24 22  1  0  0  0  0
 25 24  1  0  0  0  0
 26 27  1  0  0  0  0
 27 25  1  0  0  0  0
 28 26  1  0  0  0  0
 29 28  1  0  0  0  0
 29 30  1  0  0  0  0
 30 31  1  0  0  0  0
 31 27  1  0  0  0  0
M  END
>  <MODEL>
8

>  <REMARK>
 VINA RESULT:      -8.4      2.316      8.291
  Name = 
  6 active torsions:
  status: ('A' for Active; 'I' for Inactive)
    1  A    between atoms: C_3  and  N_9
    2  A    between atoms: C_3  and  C_19
    3  A    between atoms: C_4  and  C_5
    4  A    between atoms: C_8  and  C_19
    5  A    between atoms: C_8  and  S_31
    6  A    between atoms: C_21  and  S_31
                            x       y       z     vdW  Elec       q    Type
                         _______ _______ _______ _____ _____    ______ ____

>  <TORSDO>
F 6

$$$$
=
 OpenBabel11042420263D

 31 35  0  0  1  0  0  0  0  0999 V2000
  161.3860  211.4710  149.8980 C   0  0  0  0  0  0  0  0  0  0  0  0
  161.1890  209.7330  152.1040 C   0  0  0  0  0  0  0  0  0  0  0  0
  160.6500  211.0260  152.1270 C   0  0  0  0  0  0  0  0  0  0  0  0
  161.4840  212.3440  148.7790 N   0  0  0  0  0  1  0  0  0  0  0  0
  160.7420  211.8620  151.0650 C   0  0  0  0  0  0  0  0  0  0  0  0
  161.8450  209.3440  150.9020 C   0  0  0  0  0  0  0  0  0  0  0  0
  159.6560  212.8400  152.5880 C   0  0  0  0  0  3  0  0  0  0  0  0
  159.9570  211.6210  153.1090 N   0  0  0  0  0  2  0  0  0  0  0  0
  160.1250  213.0220  151.3260 N   0  0  0  0  0  0  0  0  0  0  0  0
  161.9230  210.2180  149.8480 N   0  0  0  0  0  0  0  0  0  0  0  0
  162.4170  210.0490  156.5250 C   0  0  0  0  0  0  0  0  0  0  0  0
  161.0630  208.8340  153.2710 C   0  0  0  0  0  0  0  0  0  0  0  0
  161.4070  207.8580  156.6090 N   0  0  0  0  0  0  0  0  0  0  0  0
  161.4690  209.0730  154.5640 C   0  0  0  0  0  0  0  0  0  0  0  0
  163.1100  211.1630  157.2210 C   0  0  0  0  0  1  0  0  0  0  0  0
  161.1320  207.9650  155.2840 C   0  0  0  0  0  0  0  0  0  0  0  0
  162.0440  208.8900  157.2400 C   0  0  0  0  0  3  0  0  0  0  0  0
  160.4860  207.5630  153.2840 C   0  0  0  0  0  3  0  0  0  0  0  0
  160.5340  207.0280  154.5300 N   0  0  0  0  0  0  0  0  0  0  0  0
  162.1290  210.1470  155.1530 C   0  0  0  0  0  2  0  0  0  0  0  0
  162.6230  207.7370  150.7270 S   0  0  0  0  0  0  0  0  0  0  0  0
  162.3370  207.7000  148.9250 C   0  0  0  0  0  2  0  0  0  0  0  0
  160.8720  206.6320  147.3510 O   0  0  0  0  0  1  0  0  0  0  0  0
  161.6690  206.4060  148.4750 C   0  0  2  0  0  3  0  0  0  0  0  0
  160.8410  205.8000  149.6010 C   0  0  0  0  0  2  0  0  0  0  0  0
  160.8620  203.5990  148.8190 C   0  0  0  0  0  2  0  0  0  0  0  0
  161.3140  204.4610  149.9120 N   0  0  0  0  0  0  0  0  0  0  0  0
  161.3280  202.2330  149.0490 N   0  0  0  0  0  2  0  0  0  0  0  0
  160.7630  201.7560  150.3090 C   0  0  0  0  0  2  0  0  0  0  0  0
  161.1200  202.7170  151.4390 C   0  0  0  0  0  2  0  0  0  0  0  0
  160.6470  204.0540  151.0850 N   0  0  0  0  0  2  0  0  0  0  0  0
  1  5  1  0  0  0  0
  2  3  1  0  0  0  0
  2 12  1  0  0  0  0
  3  8  1  0  0  0  0
  4  1  1  0  0  0  0
  5  9  1  0  0  0  0
  5  3  2  0  0  0  0
  6  2  2  0  0  0  0
  7  8  1  0  0  0  0
  9  7  2  0  0  0  0
 10  1  2  0  0  0  0
 10  6  1  0  0  0  0
 11 15  1  0  0  0  0
 11 17  2  0  0  0  0
 12 18  1  0  0  0  0
 12 14  2  0  0  0  0
 13 17  1  0  0  0  0
 14 20  1  0  0  0  0
 14 16  1  0  0  0  0
 16 13  2  0  0  0  0
 18 19  2  0  0  0  0
 19 16  1  0  0  0  0
 20 11  1  0  0  0  0
 21  6  1  0  0  0  0
 22 21  1  0  0  0  0
 24 23  1  6  0  0  0
 24 22  1  0  0  0  0
 24 25  1  0  0  0  0
 25 27  1  0  0  0  0
 26 28  1  0  0  0  0
 26 27  1  0  0  0  0
 27 31  1  0  0  0  0
 28 29  1  0  0  0  0
 29 30  1  0  0  0  0
 31 30  1  0  0  0  0
M  END
>  <MODEL>
9

>  <REMARK>
 VINA RESULT:      -8.4      2.582      7.705
  Name = 
  6 active torsions:
  status: ('A' for Active; 'I' for Inactive)
    1  A    between atoms: C_3  and  N_9
    2  A    between atoms: C_3  and  C_19
    3  A    between atoms: C_4  and  C_5
    4  A    between atoms: C_8  and  C_19
    5  A    between atoms: C_8  and  S_31
    6  A    between atoms: C_21  and  S_31
                            x       y       z     vdW  Elec       q    Type
                         _______ _______ _______ _____ _____    ______ ____

>  <TORSDO>
F 6

$$$$
