=
 OpenBabel11052410163D

 25 28  0  0  1  0  0  0  0  0999 V2000
  161.1410  202.0790  151.3910 C   0  0  0  0  0  3  0  0  0  0  0  0
  161.2760  203.8050  146.2480 C   0  0  0  0  0  0  0  0  0  0  0  0
  161.5890  203.3230  151.3450 C   0  0  0  0  0  3  0  0  0  0  0  0
  161.4270  203.8560  144.9150 N   0  0  0  0  0  0  0  0  0  0  0  0
  160.0930  201.6230  150.4630 C   0  0  0  0  0  2  0  0  0  0  0  0
  161.1220  205.9550  145.7630 N   0  0  0  0  0  2  0  0  0  0  0  0
  160.9790  204.1630  149.0300 C   0  0  0  0  0  0  0  0  0  0  0  0
  161.3320  205.1850  144.6690 C   0  0  0  0  0  0  0  0  0  0  0  0
  161.4350  205.7290  143.3590 N   0  0  0  0  0  1  0  0  0  0  0  0
  161.3070  201.3830  146.4340 N   0  0  0  0  0  1  0  0  0  0  0  0
  160.6830  206.7090  148.5160 C   0  0  0  0  0  1  0  0  0  0  0  0
  161.0890  205.0450  146.7530 C   0  0  0  0  0  0  0  0  0  0  0  0
  160.9690  202.8320  148.4310 C   0  0  0  0  0  0  0  0  0  0  0  0
  160.6060  201.7090  149.0750 C   0  0  0  0  0  2  0  0  0  0  0  0
  161.1600  204.3740  150.3850 C   0  0  2  0  0  3  0  0  0  0  0  0
  161.2170  202.6740  147.0420 C   0  0  0  0  0  0  0  0  0  0  0  0
  160.9150  205.2830  148.1160 C   0  0  0  0  0  0  0  0  0  0  0  0
  161.1620  205.7070  150.9170 N   0  0  0  0  0  2  0  0  0  0  0  0
  161.7200  206.4770  153.1850 C   0  0  0  0  0  2  0  0  0  0  0  0
  162.7060  207.5920  151.1570 C   0  0  0  0  0  2  0  0  0  0  0  0
  161.6460  208.6800  151.3300 C   0  0  0  0  0  2  0  0  0  0  0  0
  160.7180  207.6290  153.2410 C   0  0  0  0  0  2  0  0  0  0  0  0
  162.2200  206.2700  151.7510 C   0  0  0  0  0  3  0  0  0  0  0  0
  160.3290  209.8960  152.8280 C   0  0  0  0  0  1  0  0  0  0  0  0
  161.3390  208.8560  152.7470 N   0  0  0  0  0  0  0  0  0  0  0  0
  2 12  2  0  0  0  0
  2 16  1  0  0  0  0
  3  1  2  0  0  0  0
  4  2  1  0  0  0  0
  5  1  1  0  0  0  0
  6 12  1  0  0  0  0
  7 15  1  0  0  0  0
  8  4  2  0  0  0  0
  8  6  1  0  0  0  0
  9  8  1  0  0  0  0
 10 16  1  0  0  0  0
 12 17  1  0  0  0  0
 13  7  1  0  0  0  0
 13 14  1  0  0  0  0
 14  5  1  0  0  0  0
 15 18  1  6  0  0  0
 15  3  1  0  0  0  0
 16 13  2  0  0  0  0
 17 11  1  0  0  0  0
 17  7  2  0  0  0  0
 18 23  1  0  0  0  0
 19 22  1  0  0  0  0
 20 21  1  0  0  0  0
 20 23  1  0  0  0  0
 21 25  1  0  0  0  0
 23 19  1  0  0  0  0
 25 24  1  0  0  0  0
 25 22  1  0  0  0  0
M  END
>  <MODEL>
1

>  <REMARK>
 VINA RESULT:      -9.7      0.000      0.000
  Name = 
  2 active torsions:
  status: ('A' for Active; 'I' for Inactive)
    1  A    between atoms: C_18  and  N_21
    2  A    between atoms: N_21  and  C_23
                            x       y       z     vdW  Elec       q    Type
                         _______ _______ _______ _____ _____    ______ ____

>  <TORSDO>
F 2

$$$$
=
 OpenBabel11052410163D

 25 28  0  0  1  0  0  0  0  0999 V2000
  160.7810  202.2520  150.6680 C   0  0  0  0  0  3  0  0  0  0  0  0
  161.0870  207.4830  152.0790 C   0  0  0  0  0  0  0  0  0  0  0  0
  160.5290  203.0180  149.6190 C   0  0  0  0  0  3  0  0  0  0  0  0
  160.9920  208.6370  152.7590 N   0  0  0  0  0  0  0  0  0  0  0  0
  161.7800  202.6580  151.6710 C   0  0  0  0  0  2  0  0  0  0  0  0
  161.5820  209.0380  150.5890 N   0  0  0  0  0  2  0  0  0  0  0  0
  161.3380  205.3310  150.2740 C   0  0  0  0  0  0  0  0  0  0  0  0
  161.2950  209.5540  151.8080 C   0  0  0  0  0  0  0  0  0  0  0  0
  161.3210  210.9500  152.0730 N   0  0  0  0  0  1  0  0  0  0  0  0
  160.6830  206.0160  153.9710 N   0  0  0  0  0  1  0  0  0  0  0  0
  162.0350  207.1100  148.4880 C   0  0  0  0  0  1  0  0  0  0  0  0
  161.4420  207.7170  150.7940 C   0  0  0  0  0  0  0  0  0  0  0  0
  161.1680  205.1040  151.7050 C   0  0  0  0  0  0  0  0  0  0  0  0
  161.3340  203.9180  152.3140 C   0  0  0  0  0  2  0  0  0  0  0  0
  161.1450  204.3390  149.3290 C   0  0  2  0  0  3  0  0  0  0  0  0
  160.9460  206.2020  152.5790 C   0  0  0  0  0  0  0  0  0  0  0  0
  161.6030  206.6930  149.8620 C   0  0  0  0  0  0  0  0  0  0  0  0
  161.3270  204.6210  147.9330 N   0  0  0  0  0  2  0  0  0  0  0  0
  163.1950  204.7080  146.3360 C   0  0  0  0  0  2  0  0  0  0  0  0
  161.2560  203.1430  145.9820 C   0  0  0  0  0  2  0  0  0  0  0  0
  160.7040  204.1690  144.9930 C   0  0  0  0  0  2  0  0  0  0  0  0
  162.5300  205.6420  145.3260 C   0  0  0  0  0  2  0  0  0  0  0  0
  162.1450  203.8260  147.0220 C   0  0  0  0  0  3  0  0  0  0  0  0
  161.2020  205.8150  143.4120 C   0  0  0  0  0  1  0  0  0  0  0  0
  161.8040  204.8630  144.3270 N   0  0  0  0  0  0  0  0  0  0  0  0
  1  5  1  0  0  0  0
  2 16  1  0  0  0  0
  2  4  1  0  0  0  0
  3  1  2  0  0  0  0
  5 14  1  0  0  0  0
  6 12  1  0  0  0  0
  6  8  1  0  0  0  0
  7 13  1  0  0  0  0
  8  9  1  0  0  0  0
  8  4  2  0  0  0  0
 11 17  1  0  0  0  0
 12  2  2  0  0  0  0
 13 14  1  0  0  0  0
 13 16  2  0  0  0  0
 15 18  1  6  0  0  0
 15  3  1  0  0  0  0
 15  7  1  0  0  0  0
 16 10  1  0  0  0  0
 17  7  2  0  0  0  0
 17 12  1  0  0  0  0
 19 23  1  0  0  0  0
 20 23  1  0  0  0  0
 21 20  1  0  0  0  0
 22 19  1  0  0  0  0
 23 18  1  0  0  0  0
 24 25  1  0  0  0  0
 25 21  1  0  0  0  0
 25 22  1  0  0  0  0
M  END
>  <MODEL>
2

>  <REMARK>
 VINA RESULT:      -9.2      1.507      6.329
  Name = 
  2 active torsions:
  status: ('A' for Active; 'I' for Inactive)
    1  A    between atoms: C_18  and  N_21
    2  A    between atoms: N_21  and  C_23
                            x       y       z     vdW  Elec       q    Type
                         _______ _______ _______ _____ _____    ______ ____

>  <TORSDO>
F 2

$$$$
=
 OpenBabel11052410163D

 25 28  0  0  1  0  0  0  0  0999 V2000
  160.4600  203.8200  151.7040 C   0  0  0  0  0  3  0  0  0  0  0  0
  161.5820  209.0110  150.5890 C   0  0  0  0  0  0  0  0  0  0  0  0
  160.2080  204.0730  150.4300 C   0  0  0  0  0  3  0  0  0  0  0  0
  161.7050  210.3450  150.6770 N   0  0  0  0  0  0  0  0  0  0  0  0
  161.5970  204.4620  152.3860 C   0  0  0  0  0  2  0  0  0  0  0  0
  162.1260  209.6460  148.5440 N   0  0  0  0  0  2  0  0  0  0  0  0
  161.3720  206.2730  149.9450 C   0  0  0  0  0  0  0  0  0  0  0  0
  162.0310  210.6850  149.4060 C   0  0  0  0  0  0  0  0  0  0  0  0
  162.2640  212.0310  149.0110 N   0  0  0  0  0  1  0  0  0  0  0  0
  161.1780  208.6180  152.9520 N   0  0  0  0  0  1  0  0  0  0  0  0
  162.1150  206.9430  147.5290 C   0  0  0  0  0  1  0  0  0  0  0  0
  161.8360  208.5930  149.3280 C   0  0  0  0  0  0  0  0  0  0  0  0
  161.3150  206.7340  151.3290 C   0  0  0  0  0  0  0  0  0  0  0  0
  161.3840  205.9290  152.4030 C   0  0  0  0  0  2  0  0  0  0  0  0
  160.9600  205.0120  149.5570 C   0  0  2  0  0  3  0  0  0  0  0  0
  161.3260  208.1240  151.6180 C   0  0  0  0  0  0  0  0  0  0  0  0
  161.7700  207.2510  148.9550 C   0  0  0  0  0  0  0  0  0  0  0  0
  161.0380  204.6150  148.1790 N   0  0  0  0  0  2  0  0  0  0  0  0
  162.2090  203.9460  146.1230 C   0  0  0  0  0  2  0  0  0  0  0  0
  161.6530  202.2600  147.9060 C   0  0  0  0  0  2  0  0  0  0  0  0
  160.4560  201.8550  147.0470 C   0  0  0  0  0  2  0  0  0  0  0  0
  160.9800  203.4420  145.3670 C   0  0  0  0  0  2  0  0  0  0  0  0
  162.0450  203.7120  147.6290 C   0  0  0  0  0  3  0  0  0  0  0  0
  159.6000  201.6200  144.8860 C   0  0  0  0  0  1  0  0  0  0  0  0
  160.7790  202.0200  145.6310 N   0  0  0  0  0  0  0  0  0  0  0  0
  1  5  1  0  0  0  0
  2  4  1  0  0  0  0
  2 16  1  0  0  0  0
  3  1  2  0  0  0  0
  5 14  1  0  0  0  0
  6 12  1  0  0  0  0
  6  8  1  0  0  0  0
  7 13  1  0  0  0  0
  8  4  2  0  0  0  0
  9  8  1  0  0  0  0
 11 17  1  0  0  0  0
 12  2  2  0  0  0  0
 13 16  2  0  0  0  0
 13 14  1  0  0  0  0
 15 18  1  6  0  0  0
 15  7  1  0  0  0  0
 15  3  1  0  0  0  0
 16 10  1  0  0  0  0
 17 12  1  0  0  0  0
 17  7  2  0  0  0  0
 19 23  1  0  0  0  0
 21 20  1  0  0  0  0
 22 25  1  0  0  0  0
 22 19  1  0  0  0  0
 23 20  1  0  0  0  0
 23 18  1  0  0  0  0
 24 25  1  0  0  0  0
 25 21  1  0  0  0  0
M  END
>  <MODEL>
3

>  <REMARK>
 VINA RESULT:      -8.6      2.030      6.413
  Name = 
  2 active torsions:
  status: ('A' for Active; 'I' for Inactive)
    1  A    between atoms: C_18  and  N_21
    2  A    between atoms: N_21  and  C_23
                            x       y       z     vdW  Elec       q    Type
                         _______ _______ _______ _____ _____    ______ ____

>  <TORSDO>
F 2

$$$$
=
 OpenBabel11052410163D

 25 28  0  0  1  0  0  0  0  0999 V2000
  161.2250  204.1150  152.4800 C   0  0  0  0  0  3  0  0  0  0  0  0
  161.3850  204.2800  147.0580 C   0  0  0  0  0  0  0  0  0  0  0  0
  161.7030  205.2810  152.0780 C   0  0  0  0  0  3  0  0  0  0  0  0
  161.5330  203.9410  145.7680 N   0  0  0  0  0  0  0  0  0  0  0  0
  160.1630  203.4360  151.7190 C   0  0  0  0  0  2  0  0  0  0  0  0
  161.2820  206.2020  145.9730 N   0  0  0  0  0  2  0  0  0  0  0  0
  161.1070  205.4320  149.6180 C   0  0  0  0  0  0  0  0  0  0  0  0
  161.4700  205.1440  145.1480 C   0  0  0  0  0  0  0  0  0  0  0  0
  161.5820  205.2850  143.7380 N   0  0  0  0  0  1  0  0  0  0  0  0
  161.3580  202.0150  147.9350 N   0  0  0  0  0  1  0  0  0  0  0  0
  160.8710  207.7280  148.3890 C   0  0  0  0  0  1  0  0  0  0  0  0
  161.2310  205.6180  147.1830 C   0  0  0  0  0  0  0  0  0  0  0  0
  161.0610  203.9860  149.4280 C   0  0  0  0  0  0  0  0  0  0  0  0
  160.6740  203.1050  150.3660 C   0  0  0  0  0  2  0  0  0  0  0  0
  161.2970  206.0200  150.8550 C   0  0  2  0  0  3  0  0  0  0  0  0
  161.3010  203.4280  148.1440 C   0  0  0  0  0  0  0  0  0  0  0  0
  161.0670  206.2420  148.4190 C   0  0  0  0  0  0  0  0  0  0  0  0
  161.3330  207.4500  150.9800 N   0  0  0  0  0  2  0  0  0  0  0  0
  161.1950  208.5180  153.1910 C   0  0  0  0  0  2  0  0  0  0  0  0
  162.6820  209.4520  151.3890 C   0  0  0  0  0  2  0  0  0  0  0  0
  161.5810  210.4770  151.1140 C   0  0  0  0  0  2  0  0  0  0  0  0
  160.1810  209.5970  152.8110 C   0  0  0  0  0  2  0  0  0  0  0  0
  162.0900  208.1790  151.9940 C   0  0  0  0  0  3  0  0  0  0  0  0
  159.8520  211.7660  152.0100 C   0  0  0  0  0  1  0  0  0  0  0  0
  160.8760  210.7970  152.3530 N   0  0  0  0  0  0  0  0  0  0  0  0
  2 12  2  0  0  0  0
  2 16  1  0  0  0  0
  3  1  2  0  0  0  0
  4  2  1  0  0  0  0
  5  1  1  0  0  0  0
  6 12  1  0  0  0  0
  7 15  1  0  0  0  0
  8  4  2  0  0  0  0
  8  6  1  0  0  0  0
  9  8  1  0  0  0  0
 10 16  1  0  0  0  0
 11 17  1  0  0  0  0
 12 17  1  0  0  0  0
 13  7  1  0  0  0  0
 13 14  1  0  0  0  0
 14  5  1  0  0  0  0
 15 18  1  6  0  0  0
 15  3  1  0  0  0  0
 16 13  2  0  0  0  0
 17  7  2  0  0  0  0
 18 23  1  0  0  0  0
 20 23  1  0  0  0  0
 21 20  1  0  0  0  0
 21 25  1  0  0  0  0
 22 19  1  0  0  0  0
 23 19  1  0  0  0  0
 24 25  1  0  0  0  0
 25 22  1  0  0  0  0
M  END
>  <MODEL>
4

>  <REMARK>
 VINA RESULT:      -8.6      1.218      1.623
  Name = 
  2 active torsions:
  status: ('A' for Active; 'I' for Inactive)
    1  A    between atoms: C_18  and  N_21
    2  A    between atoms: N_21  and  C_23
                            x       y       z     vdW  Elec       q    Type
                         _______ _______ _______ _____ _____    ______ ____

>  <TORSDO>
F 2

$$$$
=
 OpenBabel11052410163D

 25 28  0  0  1  0  0  0  0  0999 V2000
  161.3660  207.8380  148.6000 C   0  0  0  0  0  3  0  0  0  0  0  0
  161.1430  202.8840  146.3970 C   0  0  0  0  0  0  0  0  0  0  0  0
  160.7190  207.0150  149.4070 C   0  0  0  0  0  3  0  0  0  0  0  0
  161.0370  201.8740  145.5200 N   0  0  0  0  0  0  0  0  0  0  0  0
  162.5110  207.3650  147.8040 C   0  0  0  0  0  2  0  0  0  0  0  0
  160.9540  201.0820  147.6610 N   0  0  0  0  0  2  0  0  0  0  0  0
  161.2680  204.6870  148.5620 C   0  0  0  0  0  0  0  0  0  0  0  0
  160.9180  200.7990  146.3370 C   0  0  0  0  0  0  0  0  0  0  0  0
  160.7750  199.4740  145.8420 N   0  0  0  0  0  1  0  0  0  0  0  0
  161.5100  204.6350  144.7530 N   0  0  0  0  0  1  0  0  0  0  0  0
  161.1540  202.5880  150.1170 C   0  0  0  0  0  1  0  0  0  0  0  0
  161.1000  202.4190  147.6660 C   0  0  0  0  0  0  0  0  0  0  0  0
  161.5240  205.1260  147.1940 C   0  0  0  0  0  0  0  0  0  0  0  0
  162.0450  206.3190  146.8610 C   0  0  0  0  0  2  0  0  0  0  0  0
  161.0030  205.5680  149.5950 C   0  0  2  0  0  3  0  0  0  0  0  0
  161.3590  204.2200  146.1130 C   0  0  0  0  0  0  0  0  0  0  0  0
  161.1800  203.2590  148.7760 C   0  0  0  0  0  0  0  0  0  0  0  0
  160.7570  205.0770  150.9220 N   0  0  0  0  0  2  0  0  0  0  0  0
  161.0770  205.0570  153.3600 C   0  0  0  0  0  2  0  0  0  0  0  0
  162.7410  206.1790  151.8430 C   0  0  0  0  0  2  0  0  0  0  0  0
  162.0670  207.5030  152.2040 C   0  0  0  0  0  2  0  0  0  0  0  0
  160.5000  206.4450  153.6330 C   0  0  0  0  0  2  0  0  0  0  0  0
  161.7550  205.0190  151.9860 C   0  0  0  0  0  3  0  0  0  0  0  0
  160.9360  208.7310  153.8380 C   0  0  0  0  0  1  0  0  0  0  0  0
  161.5600  207.4480  153.5730 N   0  0  0  0  0  0  0  0  0  0  0  0
  1  3  2  0  0  0  0
  2 12  1  0  0  0  0
  3 15  1  0  0  0  0
  4  8  2  0  0  0  0
  4  2  1  0  0  0  0
  5  1  1  0  0  0  0
  6 12  1  0  0  0  0
  7 17  1  0  0  0  0
  7 15  1  0  0  0  0
  8  6  1  0  0  0  0
  9  8  1  0  0  0  0
 10 16  1  0  0  0  0
 12 17  2  0  0  0  0
 13  7  2  0  0  0  0
 14 13  1  0  0  0  0
 14  5  1  0  0  0  0
 15 18  1  6  0  0  0
 16  2  2  0  0  0  0
 16 13  1  0  0  0  0
 17 11  1  0  0  0  0
 18 23  1  0  0  0  0
 19 22  1  0  0  0  0
 20 23  1  0  0  0  0
 20 21  1  0  0  0  0
 21 25  1  0  0  0  0
 23 19  1  0  0  0  0
 25 22  1  0  0  0  0
 25 24  1  0  0  0  0
M  END
>  <MODEL>
5

>  <REMARK>
 VINA RESULT:      -8.1      1.271      3.517
  Name = 
  2 active torsions:
  status: ('A' for Active; 'I' for Inactive)
    1  A    between atoms: C_18  and  N_21
    2  A    between atoms: N_21  and  C_23
                            x       y       z     vdW  Elec       q    Type
                         _______ _______ _______ _____ _____    ______ ____

>  <TORSDO>
F 2

$$$$
=
 OpenBabel11052410163D

 25 28  0  0  1  0  0  0  0  0999 V2000
  161.2520  210.1820  151.0690 C   0  0  0  0  0  3  0  0  0  0  0  0
  160.9310  205.0100  149.4600 C   0  0  0  0  0  0  0  0  0  0  0  0
  160.7200  209.4440  152.0290 C   0  0  0  0  0  3  0  0  0  0  0  0
  160.7600  203.9060  148.7160 N   0  0  0  0  0  0  0  0  0  0  0  0
  162.3160  209.6410  150.2070 C   0  0  0  0  0  2  0  0  0  0  0  0
  160.9330  203.3580  150.9270 N   0  0  0  0  0  2  0  0  0  0  0  0
  161.2400  207.0460  151.3880 C   0  0  0  0  0  0  0  0  0  0  0  0
  160.7610  202.9280  149.6550 C   0  0  0  0  0  0  0  0  0  0  0  0
  160.6040  201.5530  149.3270 N   0  0  0  0  0  1  0  0  0  0  0  0
  161.0670  206.5710  147.6040 N   0  0  0  0  0  1  0  0  0  0  0  0
  161.3560  205.1320  153.1660 C   0  0  0  0  0  1  0  0  0  0  0  0
  161.0400  204.6890  150.7690 C   0  0  0  0  0  0  0  0  0  0  0  0
  161.3330  207.3330  149.9600 C   0  0  0  0  0  0  0  0  0  0  0  0
  161.7800  208.4900  149.4420 C   0  0  0  0  0  2  0  0  0  0  0  0
  161.0640  208.0320  152.3410 C   0  0  2  0  0  3  0  0  0  0  0  0
  161.0780  206.3090  149.0090 C   0  0  0  0  0  0  0  0  0  0  0  0
  161.2160  205.6490  151.7650 C   0  0  0  0  0  0  0  0  0  0  0  0
  160.9780  207.6890  153.7320 N   0  0  0  0  0  2  0  0  0  0  0  0
  160.3780  209.8580  154.7240 C   0  0  0  0  0  2  0  0  0  0  0  0
  160.3220  207.7460  156.0900 C   0  0  0  0  0  2  0  0  0  0  0  0
  161.6820  208.1610  156.6520 C   0  0  0  0  0  2  0  0  0  0  0  0
  161.7340  210.1500  155.3650 C   0  0  0  0  0  2  0  0  0  0  0  0
  160.1090  208.3490  154.7020 C   0  0  0  0  0  3  0  0  0  0  0  0
  163.0820  209.9290  157.2600 C   0  0  0  0  0  1  0  0  0  0  0  0
  161.7690  209.6170  156.7240 N   0  0  0  0  0  0  0  0  0  0  0  0
  1  3  2  0  0  0  0
  2 12  1  0  0  0  0
  3 15  1  0  0  0  0
  4  2  1  0  0  0  0
  4  8  2  0  0  0  0
  5  1  1  0  0  0  0
  7 17  1  0  0  0  0
  7 15  1  0  0  0  0
  8  6  1  0  0  0  0
  9  8  1  0  0  0  0
 10 16  1  0  0  0  0
 12  6  1  0  0  0  0
 12 17  2  0  0  0  0
 13  7  2  0  0  0  0
 14 13  1  0  0  0  0
 14  5  1  0  0  0  0
 15 18  1  1  0  0  0
 16  2  2  0  0  0  0
 16 13  1  0  0  0  0
 17 11  1  0  0  0  0
 18 23  1  0  0  0  0
 19 22  1  0  0  0  0
 20 21  1  0  0  0  0
 21 25  1  0  0  0  0
 22 25  1  0  0  0  0
 23 19  1  0  0  0  0
 23 20  1  0  0  0  0
 25 24  1  0  0  0  0
M  END
>  <MODEL>
6

>  <REMARK>
 VINA RESULT:      -7.9      2.287      5.210
  Name = 
  2 active torsions:
  status: ('A' for Active; 'I' for Inactive)
    1  A    between atoms: C_18  and  N_21
    2  A    between atoms: N_21  and  C_23
                            x       y       z     vdW  Elec       q    Type
                         _______ _______ _______ _____ _____    ______ ____

>  <TORSDO>
F 2

$$$$
=
 OpenBabel11052410163D

 25 28  0  0  1  0  0  0  0  0999 V2000
  161.2140  210.5490  151.3620 C   0  0  0  0  0  3  0  0  0  0  0  0
  161.0100  205.3600  149.7880 C   0  0  0  0  0  0  0  0  0  0  0  0
  160.6260  209.8170  152.2950 C   0  0  0  0  0  3  0  0  0  0  0  0
  160.8880  204.2470  149.0470 N   0  0  0  0  0  0  0  0  0  0  0  0
  162.3310  210.0030  150.5730 C   0  0  0  0  0  2  0  0  0  0  0  0
  160.9260  203.7220  151.2700 N   0  0  0  0  0  2  0  0  0  0  0  0
  161.1930  207.4150  151.7110 C   0  0  0  0  0  0  0  0  0  0  0  0
  160.8350  203.2790  149.9930 C   0  0  0  0  0  0  0  0  0  0  0  0
  160.7020  201.9000  149.6700 N   0  0  0  0  0  1  0  0  0  0  0  0
  161.2540  206.9030  147.9290 N   0  0  0  0  0  1  0  0  0  0  0  0
  161.2060  205.5190  153.5120 C   0  0  0  0  0  1  0  0  0  0  0  0
  161.0390  205.0520  151.1050 C   0  0  0  0  0  0  0  0  0  0  0  0
  161.3730  207.6890  150.2890 C   0  0  0  0  0  0  0  0  0  0  0  0
  161.8470  208.8420  149.7880 C   0  0  0  0  0  2  0  0  0  0  0  0
  160.9550  208.4100  152.6420 C   0  0  2  0  0  3  0  0  0  0  0  0
  161.1790  206.6550  149.3350 C   0  0  0  0  0  0  0  0  0  0  0  0
  161.1500  206.0220  152.1000 C   0  0  0  0  0  0  0  0  0  0  0  0
  160.7850  208.0810  154.0290 N   0  0  0  0  0  2  0  0  0  0  0  0
  161.1570  208.0340  156.4590 C   0  0  0  0  0  2  0  0  0  0  0  0
  161.9500  209.9700  155.0620 C   0  0  0  0  0  2  0  0  0  0  0  0
  160.7040  210.7230  155.5290 C   0  0  0  0  0  2  0  0  0  0  0  0
  159.9570  208.8990  156.8450 C   0  0  0  0  0  2  0  0  0  0  0  0
  161.7080  208.4610  155.0950 C   0  0  0  0  0  3  0  0  0  0  0  0
  159.1610  211.0570  157.2520 C   0  0  0  0  0  1  0  0  0  0  0  0
  160.3470  210.3060  156.8840 N   0  0  0  0  0  0  0  0  0  0  0  0
  1  3  2  0  0  0  0
  2 12  1  0  0  0  0
  3 15  1  0  0  0  0
  4  2  1  0  0  0  0
  4  8  2  0  0  0  0
  5  1  1  0  0  0  0
  7 17  1  0  0  0  0
  7 15  1  0  0  0  0
  8  6  1  0  0  0  0
  9  8  1  0  0  0  0
 10 16  1  0  0  0  0
 12  6  1  0  0  0  0
 12 17  2  0  0  0  0
 13  7  2  0  0  0  0
 14 13  1  0  0  0  0
 14  5  1  0  0  0  0
 15 18  1  6  0  0  0
 16  2  2  0  0  0  0
 16 13  1  0  0  0  0
 17 11  1  0  0  0  0
 18 23  1  0  0  0  0
 19 22  1  0  0  0  0
 20 23  1  0  0  0  0
 20 21  1  0  0  0  0
 21 25  1  0  0  0  0
 22 25  1  0  0  0  0
 23 19  1  0  0  0  0
 25 24  1  0  0  0  0
M  END
>  <MODEL>
7

>  <REMARK>
 VINA RESULT:      -7.6      2.454      5.398
  Name = 
  2 active torsions:
  status: ('A' for Active; 'I' for Inactive)
    1  A    between atoms: C_18  and  N_21
    2  A    between atoms: N_21  and  C_23
                            x       y       z     vdW  Elec       q    Type
                         _______ _______ _______ _____ _____    ______ ____

>  <TORSDO>
F 2

$$$$
=
 OpenBabel11052410163D

 25 28  0  0  1  0  0  0  0  0999 V2000
  161.9670  209.2930  149.1290 C   0  0  0  0  0  3  0  0  0  0  0  0
  161.0040  203.9530  149.1960 C   0  0  0  0  0  0  0  0  0  0  0  0
  161.4020  208.9510  150.2750 C   0  0  0  0  0  3  0  0  0  0  0  0
  160.6770  202.7030  148.8310 N   0  0  0  0  0  0  0  0  0  0  0  0
  162.9250  208.3920  148.4650 C   0  0  0  0  0  2  0  0  0  0  0  0
  160.8910  202.8400  151.1020 N   0  0  0  0  0  2  0  0  0  0  0  0
  161.6250  206.4280  150.3990 C   0  0  0  0  0  0  0  0  0  0  0  0
  160.6140  202.0650  150.0260 C   0  0  0  0  0  0  0  0  0  0  0  0
  160.2900  200.6850  150.1390 N   0  0  0  0  0  1  0  0  0  0  0  0
  161.2240  204.8460  146.9480 N   0  0  0  0  0  1  0  0  0  0  0  0
  161.6110  205.1480  152.6800 C   0  0  0  0  0  1  0  0  0  0  0  0
  161.1370  204.0360  150.5400 C   0  0  0  0  0  0  0  0  0  0  0  0
  161.6820  206.2520  148.9520 C   0  0  0  0  0  0  0  0  0  0  0  0
  162.2290  207.1340  148.0980 C   0  0  0  0  0  2  0  0  0  0  0  0
  161.6030  207.6710  151.0040 C   0  0  2  0  0  3  0  0  0  0  0  0
  161.2710  205.0250  148.3660 C   0  0  0  0  0  0  0  0  0  0  0  0
  161.4640  205.2260  151.1890 C   0  0  0  0  0  0  0  0  0  0  0  0
  161.5450  207.7820  152.4340 N   0  0  0  0  0  2  0  0  0  0  0  0
  160.5680  209.9190  153.1590 C   0  0  0  0  0  2  0  0  0  0  0  0
  160.4410  207.8730  154.6170 C   0  0  0  0  0  2  0  0  0  0  0  0
  161.6230  208.4470  155.3990 C   0  0  0  0  0  2  0  0  0  0  0  0
  161.7410  210.3740  154.0250 C   0  0  0  0  0  2  0  0  0  0  0  0
  160.4470  208.3910  153.1790 C   0  0  0  0  0  3  0  0  0  0  0  0
  162.7100  210.3730  156.1510 C   0  0  0  0  0  1  0  0  0  0  0  0
  161.5610  209.9070  155.3970 N   0  0  0  0  0  0  0  0  0  0  0  0
  1  3  2  0  0  0  0
  2 12  1  0  0  0  0
  3 15  1  0  0  0  0
  4  2  1  0  0  0  0
  4  8  2  0  0  0  0
  5  1  1  0  0  0  0
  7 15  1  0  0  0  0
  7 17  1  0  0  0  0
  8  9  1  0  0  0  0
  8  6  1  0  0  0  0
 10 16  1  0  0  0  0
 12  6  1  0  0  0  0
 12 17  2  0  0  0  0
 13  7  2  0  0  0  0
 14  5  1  0  0  0  0
 14 13  1  0  0  0  0
 15 18  1  1  0  0  0
 16 13  1  0  0  0  0
 16  2  2  0  0  0  0
 17 11  1  0  0  0  0
 18 23  1  0  0  0  0
 19 23  1  0  0  0  0
 19 22  1  0  0  0  0
 20 21  1  0  0  0  0
 22 25  1  0  0  0  0
 23 20  1  0  0  0  0
 25 21  1  0  0  0  0
 25 24  1  0  0  0  0
M  END
>  <MODEL>
8

>  <REMARK>
 VINA RESULT:      -7.6      1.997      4.698
  Name = 
  2 active torsions:
  status: ('A' for Active; 'I' for Inactive)
    1  A    between atoms: C_18  and  N_21
    2  A    between atoms: N_21  and  C_23
                            x       y       z     vdW  Elec       q    Type
                         _______ _______ _______ _____ _____    ______ ____

>  <TORSDO>
F 2

$$$$
=
 OpenBabel11052410163D

 25 28  0  0  1  0  0  0  0  0999 V2000
  161.9290  205.2350  145.5610 C   0  0  0  0  0  3  0  0  0  0  0  0
  161.4570  207.5650  150.4390 C   0  0  0  0  0  0  0  0  0  0  0  0
  162.2810  204.3790  146.5060 C   0  0  0  0  0  3  0  0  0  0  0  0
  161.4780  208.4560  151.4430 N   0  0  0  0  0  0  0  0  0  0  0  0
  160.8330  206.1930  145.7850 C   0  0  0  0  0  2  0  0  0  0  0  0
  161.1050  206.3520  152.2520 N   0  0  0  0  0  2  0  0  0  0  0  0
  161.3980  205.3730  148.6660 C   0  0  0  0  0  0  0  0  0  0  0  0
  161.2660  207.6690  152.5260 C   0  0  0  0  0  0  0  0  0  0  0  0
  161.2070  208.1880  153.8480 N   0  0  0  0  0  1  0  0  0  0  0  0
  161.6780  209.1790  148.6370 N   0  0  0  0  0  1  0  0  0  0  0  0
  160.8740  203.8930  150.7570 C   0  0  0  0  0  1  0  0  0  0  0  0
  161.2310  206.3190  150.9130 C   0  0  0  0  0  0  0  0  0  0  0  0
  161.4260  206.7460  148.1730 C   0  0  0  0  0  0  0  0  0  0  0  0
  161.2060  207.1020  146.8960 C   0  0  0  0  0  2  0  0  0  0  0  0
  161.6890  204.2830  147.8660 C   0  0  2  0  0  3  0  0  0  0  0  0
  161.5530  207.8270  149.0850 C   0  0  0  0  0  0  0  0  0  0  0  0
  161.1680  205.2000  150.0840 C   0  0  0  0  0  0  0  0  0  0  0  0
  161.6460  202.9540  148.4070 N   0  0  0  0  0  2  0  0  0  0  0  0
  160.8110  200.7010  148.9310 C   0  0  0  0  0  2  0  0  0  0  0  0
  159.7740  202.0750  147.0960 C   0  0  0  0  0  2  0  0  0  0  0  0
  160.6060  201.2540  146.1110 C   0  0  0  0  0  2  0  0  0  0  0  0
  161.5820  199.9600  147.8400 C   0  0  0  0  0  2  0  0  0  0  0  0
  160.4520  202.1160  148.4660 C   0  0  0  0  0  3  0  0  0  0  0  0
  161.5810  199.1850  145.6360 C   0  0  0  0  0  1  0  0  0  0  0  0
  160.7840  199.8950  146.6190 N   0  0  0  0  0  0  0  0  0  0  0  0
  1  5  1  0  0  0  0
  1  3  2  0  0  0  0
  2 12  1  0  0  0  0
  2  4  1  0  0  0  0
  3 15  1  0  0  0  0
  4  8  2  0  0  0  0
  5 14  1  0  0  0  0
  6  8  1  0  0  0  0
  7 17  1  0  0  0  0
  8  9  1  0  0  0  0
 10 16  1  0  0  0  0
 12  6  1  0  0  0  0
 13  7  2  0  0  0  0
 13 16  1  0  0  0  0
 14 13  1  0  0  0  0
 15 18  1  1  0  0  0
 15  7  1  0  0  0  0
 16  2  2  0  0  0  0
 17 11  1  0  0  0  0
 17 12  2  0  0  0  0
 18 23  1  0  0  0  0
 20 23  1  0  0  0  0
 21 25  1  0  0  0  0
 21 20  1  0  0  0  0
 22 19  1  0  0  0  0
 23 19  1  0  0  0  0
 24 25  1  0  0  0  0
 25 22  1  0  0  0  0
M  END
>  <MODEL>
9

>  <REMARK>
 VINA RESULT:      -7.0      2.039      7.034
  Name = 
  2 active torsions:
  status: ('A' for Active; 'I' for Inactive)
    1  A    between atoms: C_18  and  N_21
    2  A    between atoms: N_21  and  C_23
                            x       y       z     vdW  Elec       q    Type
                         _______ _______ _______ _____ _____    ______ ____

>  <TORSDO>
F 2

$$$$
