=
 OpenBabel11052409463D

 31 34  0  0  1  0  0  0  0  0999 V2000
  160.7020  205.6450  148.6190 C   0  0  1  0  0  3  0  0  0  0  0  0
  161.5610  204.6250  149.2130 N   0  0  0  0  0  2  0  0  0  0  0  0
  161.5220  203.0820  151.6220 N   0  0  0  0  0  1  0  0  0  0  0  0
  160.8220  203.4360  149.2740 N   0  0  0  0  0  2  0  0  0  0  0  0
  160.8650  202.6220  150.4460 C   0  0  0  0  0  0  0  0  0  0  0  0
  160.3480  201.4750  150.4290 O   0  0  0  0  0  0  0  0  0  0  0  0
  160.7170  206.8930  149.4830 C   0  0  0  0  0  2  0  0  0  0  0  0
  161.9720  206.9820  150.2160 N   0  0  0  0  0  2  0  0  0  0  0  0
  161.6880  207.3930  151.5900 C   0  0  1  0  0  0  0  0  0  0  0  0
  160.8770  206.4790  152.3790 C   0  0  0  0  0  2  0  0  0  0  0  0
  162.3430  206.5060  152.5600 N   0  0  0  0  0  2  0  0  0  0  0  0
  162.2470  209.7220  150.8400 C   0  0  0  0  0  1  0  0  0  0  0  0
  161.7650  208.8640  152.0010 C   0  0  1  0  0  3  0  0  0  0  0  0
  160.4910  209.3110  152.4550 O   0  0  0  0  0  0  0  0  0  0  0  0
  161.1210  211.4380  155.3620 N   0  0  0  0  0  0  0  0  0  0  0  0
  159.2250  211.1780  153.4120 C   0  0  0  0  0  3  0  0  0  0  0  0
  160.0410  212.2610  155.3460 C   0  0  0  0  0  0  0  0  0  0  0  0
  161.2770  210.4700  154.4230 C   0  0  0  0  0  3  0  0  0  0  0  0
  159.9050  213.2730  156.3330 N   0  0  0  0  0  1  0  0  0  0  0  0
  159.1050  212.1340  154.3690 N   0  0  0  0  0  0  0  0  0  0  0  0
  160.3230  210.3120  153.4190 C   0  0  0  0  0  0  0  0  0  0  0  0
  161.1360  205.9950  147.1920 C   0  0  0  0  0  2  0  0  0  0  0  0
  162.1900  203.9210  146.1170 C   0  0  2  0  0  3  0  0  0  0  0  0
  161.4390  205.4470  144.4750 C   0  0  0  0  0  2  0  0  0  0  0  0
  162.4080  205.2360  146.7520 C   0  0  1  0  0  3  0  0  0  0  0  0
  162.6070  205.0760  145.2850 N   0  0  1  0  0  0  0  0  0  0  0  0
  160.7500  203.5760  145.7440 C   0  0  1  0  0  3  0  0  0  0  0  0
  160.4990  204.2710  144.4370 C   0  0  0  0  0  2  0  0  0  0  0  0
  161.0600  201.1860  146.5610 N   0  0  0  0  0  1  0  0  0  0  0  0
  160.5390  202.1020  145.6000 C   0  0  0  0  0  0  0  0  0  0  0  0
  159.9560  201.6600  144.5770 O   0  0  0  0  0  0  0  0  0  0  0  0
  1 22  1  6  0  0  0
  1  2  1  0  0  0  0
  1  7  1  0  0  0  0
  2  4  1  0  0  0  0
  4  5  1  0  0  0  0
  5  3  1  0  0  0  0
  6  5  2  0  0  0  0
  7  8  1  0  0  0  0
  9  8  1  6  0  0  0
  9 13  1  0  0  0  0
  9 10  1  0  0  0  0
  9 11  1  0  0  0  0
 10 11  1  0  0  0  0
 13 12  1  6  0  0  0
 13 14  1  0  0  0  0
 14 21  1  0  0  0  0
 16 21  1  0  0  0  0
 16 20  2  0  0  0  0
 17 15  2  0  0  0  0
 17 19  1  0  0  0  0
 18 15  1  0  0  0  0
 20 17  1  0  0  0  0
 21 18  2  0  0  0  0
 23 25  1  0  0  0  0
 24 26  1  0  0  0  0
 25 22  1  0  0  0  0
 26 23  1  0  0  0  0
 26 25  1  0  0  0  0
 27 23  1  0  0  0  0
 28 24  1  0  0  0  0
 28 27  1  0  0  0  0
 30 27  1  0  0  0  0
 30 29  1  0  0  0  0
 31 30  2  0  0  0  0
M  END
>  <MODEL>
1

>  <REMARK>
 VINA RESULT:      -7.0      0.000      0.000
  Name = 
  11 active torsions:
  status: ('A' for Active; 'I' for Inactive)
    1  A    between atoms: N_3  and  N_9
    2  A    between atoms: N_3  and  C_14
    3  A    between atoms: N_5  and  C_12
    4  A    between atoms: N_5  and  C_19
    5  A    between atoms: C_7  and  C_25
    6  A    between atoms: C_12  and  C_29
    7  A    between atoms: C_14  and  C_19
    8  A    between atoms: C_14  and  C_30
    9  A    between atoms: O_16  and  C_29
   10  A    between atoms: O_16  and  C_31
   11  A    between atoms: C_21  and  C_30
                            x       y       z     vdW  Elec       q    Type
                         _______ _______ _______ _____ _____    ______ ____

>  <TORSDO>
F 11

$$$$
=
 OpenBabel11052409463D

 31 34  0  0  1  0  0  0  0  0999 V2000
  162.3210  208.6240  148.9900 C   0  0  1  0  0  3  0  0  0  0  0  0
  161.6700  209.7080  148.2590 N   0  0  0  0  0  2  0  0  0  0  0  0
  160.7900  212.1970  147.1560 N   0  0  0  0  0  1  0  0  0  0  0  0
  162.2760  210.9070  148.6580 N   0  0  0  0  0  2  0  0  0  0  0  0
  161.8960  212.1420  148.0510 C   0  0  0  0  0  0  0  0  0  0  0  0
  162.5640  213.1830  148.2810 O   0  0  0  0  0  0  0  0  0  0  0  0
  161.7060  208.4980  150.3710 C   0  0  0  0  0  2  0  0  0  0  0  0
  162.5310  207.6420  151.2130 N   0  0  0  0  0  2  0  0  0  0  0  0
  161.6750  206.9790  152.1940 C   0  0  1  0  0  0  0  0  0  0  0  0
  161.2550  205.6240  151.8690 C   0  0  0  0  0  2  0  0  0  0  0  0
  162.3620  205.8430  152.8220 N   0  0  0  0  0  2  0  0  0  0  0  0
  160.6760  207.0170  154.4960 C   0  0  0  0  0  1  0  0  0  0  0  0
  160.8560  207.7910  153.1980 C   0  0  1  0  0  3  0  0  0  0  0  0
  161.4910  209.0410  153.4480 O   0  0  0  0  0  0  0  0  0  0  0  0
  159.1610  211.8220  152.9940 N   0  0  0  0  0  0  0  0  0  0  0  0
  160.9980  210.9980  154.8400 C   0  0  0  0  0  3  0  0  0  0  0  0
  159.3850  212.5610  154.1100 C   0  0  0  0  0  0  0  0  0  0  0  0
  159.8440  210.6700  152.7670 C   0  0  0  0  0  3  0  0  0  0  0  0
  158.6510  213.7560  154.3310 N   0  0  0  0  0  1  0  0  0  0  0  0
  160.2940  212.1430  155.0300 N   0  0  0  0  0  0  0  0  0  0  0  0
  160.7910  210.2280  153.6900 C   0  0  0  0  0  0  0  0  0  0  0  0
  162.2090  207.2890  148.2470 C   0  0  0  0  0  2  0  0  0  0  0  0
  160.4490  205.8900  147.0160 C   0  0  2  0  0  3  0  0  0  0  0  0
  161.7990  204.5350  148.4070 C   0  0  0  0  0  2  0  0  0  0  0  0
  160.7540  206.7750  148.1590 C   0  0  1  0  0  3  0  0  0  0  0  0
  160.5550  205.3150  148.3800 N   0  0  1  0  0  0  0  0  0  0  0  0
  161.6430  205.3870  146.2070 C   0  0  1  0  0  3  0  0  0  0  0  0
  162.1920  204.2260  146.9860 C   0  0  0  0  0  2  0  0  0  0  0  0
  161.4430  205.8080  143.7050 N   0  0  0  0  0  1  0  0  0  0  0  0
  161.2510  204.9530  144.8300 C   0  0  0  0  0  0  0  0  0  0  0  0
  160.6770  203.8450  144.6740 O   0  0  0  0  0  0  0  0  0  0  0  0
  1 22  1  6  0  0  0
  1  7  1  0  0  0  0
  2  4  1  0  0  0  0
  2  1  1  0  0  0  0
  3  5  1  0  0  0  0
  5  6  2  0  0  0  0
  5  4  1  0  0  0  0
  7  8  1  0  0  0  0
  9  8  1  6  0  0  0
  9 11  1  0  0  0  0
  9 13  1  0  0  0  0
 10  9  1  0  0  0  0
 10 11  1  0  0  0  0
 13 14  1  0  0  0  0
 13 12  1  1  0  0  0
 14 21  1  0  0  0  0
 15 17  2  0  0  0  0
 16 20  2  0  0  0  0
 17 19  1  0  0  0  0
 17 20  1  0  0  0  0
 18 15  1  0  0  0  0
 18 21  2  0  0  0  0
 21 16  1  0  0  0  0
 23 25  1  0  0  0  0
 23 26  1  0  0  0  0
 25 22  1  0  0  0  0
 25 26  1  0  0  0  0
 26 24  1  0  0  0  0
 27 28  1  0  0  0  0
 27 23  1  0  0  0  0
 28 24  1  0  0  0  0
 29 30  1  0  0  0  0
 30 27  1  0  0  0  0
 31 30  2  0  0  0  0
M  END
>  <MODEL>
2

>  <REMARK>
 VINA RESULT:      -7.0      2.340      4.464
  Name = 
  11 active torsions:
  status: ('A' for Active; 'I' for Inactive)
    1  A    between atoms: N_3  and  N_9
    2  A    between atoms: N_3  and  C_14
    3  A    between atoms: N_5  and  C_12
    4  A    between atoms: N_5  and  C_19
    5  A    between atoms: C_7  and  C_25
    6  A    between atoms: C_12  and  C_29
    7  A    between atoms: C_14  and  C_19
    8  A    between atoms: C_14  and  C_30
    9  A    between atoms: O_16  and  C_29
   10  A    between atoms: O_16  and  C_31
   11  A    between atoms: C_21  and  C_30
                            x       y       z     vdW  Elec       q    Type
                         _______ _______ _______ _____ _____    ______ ____

>  <TORSDO>
F 11

$$$$
=
 OpenBabel11052409463D

 31 34  0  0  1  0  0  0  0  0999 V2000
  162.3620  209.8170  150.1780 C   0  0  1  0  0  3  0  0  0  0  0  0
  162.4060  210.3750  151.5270 N   0  0  0  0  0  2  0  0  0  0  0  0
  161.7410  210.5730  154.3030 N   0  0  0  0  0  1  0  0  0  0  0  0
  161.0850  210.6370  151.9170 N   0  0  0  0  0  2  0  0  0  0  0  0
  160.7330  210.6560  153.3000 C   0  0  0  0  0  0  0  0  0  0  0  0
  159.5230  210.7130  153.6360 O   0  0  0  0  0  0  0  0  0  0  0  0
  161.7090  208.4470  150.2130 C   0  0  0  0  0  2  0  0  0  0  0  0
  162.6310  207.4640  150.7640 N   0  0  0  0  0  2  0  0  0  0  0  0
  161.8750  206.5080  151.5720 C   0  0  1  0  0  0  0  0  0  0  0  0
  161.8790  206.7360  153.0090 C   0  0  0  0  0  2  0  0  0  0  0  0
  160.7100  207.1440  152.2020 N   0  0  0  0  0  2  0  0  0  0  0  0
  161.1040  204.1970  152.1710 C   0  0  0  0  0  1  0  0  0  0  0  0
  161.5580  205.1090  151.0410 C   0  0  1  0  0  3  0  0  0  0  0  0
  160.5580  205.1860  150.0300 O   0  0  0  0  0  0  0  0  0  0  0  0
  160.7790  206.1380  146.5070 N   0  0  0  0  0  0  0  0  0  0  0  0
  161.4500  204.0050  148.0760 C   0  0  0  0  0  3  0  0  0  0  0  0
  161.3620  205.0420  145.9560 C   0  0  0  0  0  0  0  0  0  0  0  0
  160.5110  206.1950  147.8370 C   0  0  0  0  0  3  0  0  0  0  0  0
  161.6420  205.0100  144.5640 N   0  0  0  0  0  1  0  0  0  0  0  0
  161.7010  203.9860  146.7420 N   0  0  0  0  0  0  0  0  0  0  0  0
  160.8390  205.1190  148.6610 C   0  0  0  0  0  0  0  0  0  0  0  0
  161.6040  210.7290  149.2090 C   0  0  0  0  0  2  0  0  0  0  0  0
  161.9630  212.4820  147.3730 C   0  0  2  0  0  3  0  0  0  0  0  0
  160.6720  213.3570  149.1500 C   0  0  0  0  0  2  0  0  0  0  0  0
  162.5140  211.7980  148.5610 C   0  0  1  0  0  3  0  0  0  0  0  0
  162.0490  213.2100  148.6630 N   0  0  1  0  0  0  0  0  0  0  0  0
  160.4840  212.2420  147.0740 C   0  0  1  0  0  3  0  0  0  0  0  0
  159.7380  213.1750  147.9830 C   0  0  0  0  0  2  0  0  0  0  0  0
  158.7980  212.4380  145.1790 N   0  0  0  0  0  1  0  0  0  0  0  0
  160.1430  212.5210  145.6440 C   0  0  0  0  0  0  0  0  0  0  0  0
  161.0680  212.7610  144.8270 O   0  0  0  0  0  0  0  0  0  0  0  0
  1 22  1  6  0  0  0
  1  7  1  0  0  0  0
  1  2  1  0  0  0  0
  2  4  1  0  0  0  0
  4  5  1  0  0  0  0
  5  6  2  0  0  0  0
  5  3  1  0  0  0  0
  7  8  1  0  0  0  0
  9  8  1  6  0  0  0
  9 11  1  0  0  0  0
  9 10  1  0  0  0  0
 11 10  1  0  0  0  0
 13  9  1  0  0  0  0
 13 12  1  1  0  0  0
 14 13  1  0  0  0  0
 15 18  1  0  0  0  0
 16 21  1  0  0  0  0
 17 15  2  0  0  0  0
 17 20  1  0  0  0  0
 18 21  2  0  0  0  0
 19 17  1  0  0  0  0
 20 16  2  0  0  0  0
 21 14  1  0  0  0  0
 23 25  1  0  0  0  0
 23 26  1  0  0  0  0
 25 26  1  0  0  0  0
 25 22  1  0  0  0  0
 26 24  1  0  0  0  0
 27 23  1  0  0  0  0
 27 28  1  0  0  0  0
 28 24  1  0  0  0  0
 29 30  1  0  0  0  0
 30 27  1  0  0  0  0
 31 30  2  0  0  0  0
M  END
>  <MODEL>
3

>  <REMARK>
 VINA RESULT:      -6.9      3.597      8.169
  Name = 
  11 active torsions:
  status: ('A' for Active; 'I' for Inactive)
    1  A    between atoms: N_3  and  N_9
    2  A    between atoms: N_3  and  C_14
    3  A    between atoms: N_5  and  C_12
    4  A    between atoms: N_5  and  C_19
    5  A    between atoms: C_7  and  C_25
    6  A    between atoms: C_12  and  C_29
    7  A    between atoms: C_14  and  C_19
    8  A    between atoms: C_14  and  C_30
    9  A    between atoms: O_16  and  C_29
   10  A    between atoms: O_16  and  C_31
   11  A    between atoms: C_21  and  C_30
                            x       y       z     vdW  Elec       q    Type
                         _______ _______ _______ _____ _____    ______ ____

>  <TORSDO>
F 11

$$$$
=
 OpenBabel11052409463D

 31 34  0  0  1  0  0  0  0  0999 V2000
  161.0780  209.3240  152.0420 C   0  0  1  0  0  3  0  0  0  0  0  0
  162.3310  209.6960  151.3930 N   0  0  0  0  0  2  0  0  0  0  0  0
  162.1980  209.2130  148.5760 N   0  0  0  0  0  1  0  0  0  0  0  0
  162.0530  210.7490  150.5110 N   0  0  0  0  0  2  0  0  0  0  0  0
  162.0660  210.5300  149.1010 C   0  0  0  0  0  0  0  0  0  0  0  0
  161.9930  211.5100  148.3150 O   0  0  0  0  0  0  0  0  0  0  0  0
  160.6690  207.9300  151.6040 C   0  0  0  0  0  2  0  0  0  0  0  0
  161.8440  207.1550  151.2290 N   0  0  0  0  0  2  0  0  0  0  0  0
  161.7570  205.8360  151.8520 C   0  0  1  0  0  0  0  0  0  0  0  0
  162.3340  205.7130  153.1820 C   0  0  0  0  0  2  0  0  0  0  0  0
  160.8710  205.8540  153.0240 N   0  0  0  0  0  2  0  0  0  0  0  0
  161.1860  203.3920  151.8750 C   0  0  0  0  0  1  0  0  0  0  0  0
  161.5720  204.5770  151.0020 C   0  0  1  0  0  3  0  0  0  0  0  0
  160.5820  204.8040  150.0040 O   0  0  0  0  0  0  0  0  0  0  0  0
  160.8470  206.2760  146.6670 N   0  0  0  0  0  0  0  0  0  0  0  0
  161.4870  203.9250  147.9020 C   0  0  0  0  0  3  0  0  0  0  0  0
  161.4280  205.2710  145.9620 C   0  0  0  0  0  0  0  0  0  0  0  0
  160.5650  206.1330  147.9880 C   0  0  0  0  0  3  0  0  0  0  0  0
  161.7230  205.4470  144.5850 N   0  0  0  0  0  1  0  0  0  0  0  0
  161.7530  204.1060  146.5840 N   0  0  0  0  0  0  0  0  0  0  0  0
  160.8770  204.9430  148.6430 C   0  0  0  0  0  0  0  0  0  0  0  0
  161.1890  209.3780  153.5690 C   0  0  0  0  0  2  0  0  0  0  0  0
  160.4270  211.6880  154.3770 C   0  0  2  0  0  3  0  0  0  0  0  0
  160.2960  210.0880  156.1140 C   0  0  0  0  0  2  0  0  0  0  0  0
  161.5600  210.7840  154.0920 C   0  0  1  0  0  3  0  0  0  0  0  0
  161.1850  211.0840  155.5010 N   0  0  1  0  0  0  0  0  0  0  0  0
  159.0350  211.0580  154.3650 C   0  0  1  0  0  3  0  0  0  0  0  0
  158.8810  210.4070  155.7100 C   0  0  0  0  0  2  0  0  0  0  0  0
  157.0040  212.3630  155.1710 N   0  0  0  0  0  1  0  0  0  0  0  0
  157.9570  212.0730  154.1500 C   0  0  0  0  0  0  0  0  0  0  0  0
  157.8470  212.6240  153.0250 O   0  0  0  0  0  0  0  0  0  0  0  0
  1  7  1  1  0  0  0
  1 22  1  0  0  0  0
  2  1  1  0  0  0  0
  3  5  1  0  0  0  0
  4  2  1  0  0  0  0
  5  4  1  0  0  0  0
  6  5  2  0  0  0  0
  8  7  1  0  0  0  0
  9  8  1  6  0  0  0
  9 11  1  0  0  0  0
  9 10  1  0  0  0  0
 11 10  1  0  0  0  0
 13  9  1  0  0  0  0
 13 12  1  1  0  0  0
 14 13  1  0  0  0  0
 15 18  1  0  0  0  0
 16 21  1  0  0  0  0
 17 20  1  0  0  0  0
 17 15  2  0  0  0  0
 18 21  2  0  0  0  0
 19 17  1  0  0  0  0
 20 16  2  0  0  0  0
 21 14  1  0  0  0  0
 22 25  1  0  0  0  0
 23 26  1  0  0  0  0
 25 23  1  0  0  0  0
 25 26  1  0  0  0  0
 26 24  1  0  0  0  0
 27 23  1  0  0  0  0
 27 28  1  0  0  0  0
 28 24  1  0  0  0  0
 30 27  1  0  0  0  0
 30 29  1  0  0  0  0
 31 30  2  0  0  0  0
M  END
>  <MODEL>
4

>  <REMARK>
 VINA RESULT:      -6.8      2.291      9.290
  Name = 
  11 active torsions:
  status: ('A' for Active; 'I' for Inactive)
    1  A    between atoms: N_3  and  N_9
    2  A    between atoms: N_3  and  C_14
    3  A    between atoms: N_5  and  C_12
    4  A    between atoms: N_5  and  C_19
    5  A    between atoms: C_7  and  C_25
    6  A    between atoms: C_12  and  C_29
    7  A    between atoms: C_14  and  C_19
    8  A    between atoms: C_14  and  C_30
    9  A    between atoms: O_16  and  C_29
   10  A    between atoms: O_16  and  C_31
   11  A    between atoms: C_21  and  C_30
                            x       y       z     vdW  Elec       q    Type
                         _______ _______ _______ _____ _____    ______ ____

>  <TORSDO>
F 11

$$$$
=
 OpenBabel11052409463D

 31 34  0  0  1  0  0  0  0  0999 V2000
  161.2070  209.6660  152.0070 C   0  0  1  0  0  3  0  0  0  0  0  0
  162.3070  209.8260  151.0610 N   0  0  0  0  0  2  0  0  0  0  0  0
  162.3360  209.2090  148.2670 N   0  0  0  0  0  1  0  0  0  0  0  0
  161.9180  210.7920  150.1230 N   0  0  0  0  0  2  0  0  0  0  0  0
  162.0090  210.5170  148.7250 C   0  0  0  0  0  0  0  0  0  0  0  0
  161.8310  211.4430  147.8920 O   0  0  0  0  0  0  0  0  0  0  0  0
  160.7880  208.2090  152.0630 C   0  0  0  0  0  2  0  0  0  0  0  0
  161.6600  207.4010  151.2220 N   0  0  0  0  0  2  0  0  0  0  0  0
  161.7070  206.0420  151.7580 C   0  0  1  0  0  0  0  0  0  0  0  0
  162.4940  205.8560  152.9680 C   0  0  0  0  0  2  0  0  0  0  0  0
  161.0210  205.9540  153.0540 N   0  0  0  0  0  2  0  0  0  0  0  0
  160.8630  203.6800  151.6840 C   0  0  0  0  0  1  0  0  0  0  0  0
  161.4200  204.8350  150.8640 C   0  0  1  0  0  3  0  0  0  0  0  0
  160.5070  205.1990  149.8330 O   0  0  0  0  0  0  0  0  0  0  0  0
  160.8180  206.2960  146.3580 N   0  0  0  0  0  0  0  0  0  0  0  0
  161.5110  204.1280  147.8700 C   0  0  0  0  0  3  0  0  0  0  0  0
  161.4600  205.2430  145.7880 C   0  0  0  0  0  0  0  0  0  0  0  0
  160.5010  206.2910  147.6790 C   0  0  0  0  0  3  0  0  0  0  0  0
  161.7900  205.2760  144.4080 N   0  0  0  0  0  1  0  0  0  0  0  0
  161.8100  204.1700  146.5460 N   0  0  0  0  0  0  0  0  0  0  0  0
  160.8380  205.1960  148.4730 C   0  0  0  0  0  0  0  0  0  0  0  0
  161.5870  210.1530  153.4090 C   0  0  0  0  0  2  0  0  0  0  0  0
  159.9310  209.6640  155.3030 C   0  0  2  0  0  3  0  0  0  0  0  0
  161.9550  210.5500  156.1450 C   0  0  0  0  0  2  0  0  0  0  0  0
  160.3610  210.5950  154.2400 C   0  0  1  0  0  3  0  0  0  0  0  0
  160.6180  210.9270  155.6690 N   0  0  1  0  0  0  0  0  0  0  0  0
  160.8800  208.5100  155.6230 C   0  0  1  0  0  3  0  0  0  0  0  0
  161.9250  209.0940  156.5290 C   0  0  0  0  0  2  0  0  0  0  0  0
  158.8510  207.0050  155.9340 N   0  0  0  0  0  1  0  0  0  0  0  0
  160.1810  207.3720  156.2970 C   0  0  0  0  0  0  0  0  0  0  0  0
  160.7500  206.7780  157.2480 O   0  0  0  0  0  0  0  0  0  0  0  0
  1  7  1  1  0  0  0
  1 22  1  0  0  0  0
  2  1  1  0  0  0  0
  3  5  1  0  0  0  0
  4  2  1  0  0  0  0
  5  4  1  0  0  0  0
  6  5  2  0  0  0  0
  8  7  1  0  0  0  0
  9  8  1  6  0  0  0
  9 10  1  0  0  0  0
  9 11  1  0  0  0  0
 10 11  1  0  0  0  0
 13 12  1  1  0  0  0
 13  9  1  0  0  0  0
 14 13  1  0  0  0  0
 15 18  1  0  0  0  0
 16 21  1  0  0  0  0
 17 15  2  0  0  0  0
 17 20  1  0  0  0  0
 18 21  2  0  0  0  0
 19 17  1  0  0  0  0
 20 16  2  0  0  0  0
 21 14  1  0  0  0  0
 22 25  1  0  0  0  0
 23 27  1  0  0  0  0
 23 26  1  0  0  0  0
 24 28  1  0  0  0  0
 25 23  1  0  0  0  0
 25 26  1  0  0  0  0
 26 24  1  0  0  0  0
 27 30  1  0  0  0  0
 27 28  1  0  0  0  0
 29 30  1  0  0  0  0
 30 31  2  0  0  0  0
M  END
>  <MODEL>
5

>  <REMARK>
 VINA RESULT:      -6.7      2.558      9.078
  Name = 
  11 active torsions:
  status: ('A' for Active; 'I' for Inactive)
    1  A    between atoms: N_3  and  N_9
    2  A    between atoms: N_3  and  C_14
    3  A    between atoms: N_5  and  C_12
    4  A    between atoms: N_5  and  C_19
    5  A    between atoms: C_7  and  C_25
    6  A    between atoms: C_12  and  C_29
    7  A    between atoms: C_14  and  C_19
    8  A    between atoms: C_14  and  C_30
    9  A    between atoms: O_16  and  C_29
   10  A    between atoms: O_16  and  C_31
   11  A    between atoms: C_21  and  C_30
                            x       y       z     vdW  Elec       q    Type
                         _______ _______ _______ _____ _____    ______ ____

>  <TORSDO>
F 11

$$$$
=
 OpenBabel11052409463D

 31 34  0  0  1  0  0  0  0  0999 V2000
  161.0200  208.9080  151.8560 C   0  0  1  0  0  3  0  0  0  0  0  0
  162.2100  209.5570  151.3130 N   0  0  0  0  0  2  0  0  0  0  0  0
  162.3320  209.1700  148.4800 N   0  0  0  0  0  1  0  0  0  0  0  0
  161.7770  210.5700  150.4460 N   0  0  0  0  0  2  0  0  0  0  0  0
  161.9120  210.4140  149.0330 C   0  0  0  0  0  0  0  0  0  0  0  0
  161.6910  211.3910  148.2730 O   0  0  0  0  0  0  0  0  0  0  0  0
  161.3410  207.4690  152.2160 C   0  0  0  0  0  2  0  0  0  0  0  0
  162.0680  206.8290  151.1280 N   0  0  0  0  0  2  0  0  0  0  0  0
  161.5220  205.4890  150.9200 C   0  0  1  0  0  0  0  0  0  0  0  0
  162.0500  204.4390  151.7780 C   0  0  0  0  0  2  0  0  0  0  0  0
  160.7360  205.0450  152.0790 N   0  0  0  0  0  2  0  0  0  0  0  0
  160.4560  206.3500  148.8170 C   0  0  0  0  0  1  0  0  0  0  0  0
  160.8670  205.1060  149.5920 C   0  0  1  0  0  3  0  0  0  0  0  0
  161.7610  204.3100  148.8190 O   0  0  0  0  0  0  0  0  0  0  0  0
  160.9980  202.9430  145.5150 N   0  0  0  0  0  0  0  0  0  0  0  0
  160.8540  202.1430  148.1230 C   0  0  0  0  0  3  0  0  0  0  0  0
  160.5180  201.7110  145.8250 C   0  0  0  0  0  0  0  0  0  0  0  0
  161.4060  203.8010  146.4860 C   0  0  0  0  0  3  0  0  0  0  0  0
  160.1070  200.8280  144.7920 N   0  0  0  0  0  1  0  0  0  0  0  0
  160.4550  201.3150  147.1240 N   0  0  0  0  0  0  0  0  0  0  0  0
  161.3390  203.4200  147.8250 C   0  0  0  0  0  0  0  0  0  0  0  0
  160.4810  209.6440  153.0870 C   0  0  0  0  0  2  0  0  0  0  0  0
  161.1610  211.0320  155.1320 C   0  0  2  0  0  3  0  0  0  0  0  0
  160.7160  208.7880  155.7310 C   0  0  0  0  0  2  0  0  0  0  0  0
  161.6030  210.2700  153.9460 C   0  0  1  0  0  3  0  0  0  0  0  0
  161.7880  209.6980  155.3090 N   0  0  1  0  0  0  0  0  0  0  0  0
  159.6860  210.9040  155.5110 C   0  0  1  0  0  3  0  0  0  0  0  0
  159.5810  209.6150  156.2740 C   0  0  0  0  0  2  0  0  0  0  0  0
  159.8510  213.3240  156.2800 N   0  0  0  0  0  1  0  0  0  0  0  0
  159.2170  212.0490  156.3530 C   0  0  0  0  0  0  0  0  0  0  0  0
  158.2980  211.8610  157.1900 O   0  0  0  0  0  0  0  0  0  0  0  0
  1  7  1  1  0  0  0
  1 22  1  0  0  0  0
  2  1  1  0  0  0  0
  3  5  1  0  0  0  0
  4  2  1  0  0  0  0
  5  4  1  0  0  0  0
  6  5  2  0  0  0  0
  8  7  1  0  0  0  0
  9  8  1  1  0  0  0
  9 10  1  0  0  0  0
  9 11  1  0  0  0  0
 10 11  1  0  0  0  0
 13 12  1  6  0  0  0
 13  9  1  0  0  0  0
 14 13  1  0  0  0  0
 15 17  2  0  0  0  0
 15 18  1  0  0  0  0
 17 20  1  0  0  0  0
 18 21  2  0  0  0  0
 19 17  1  0  0  0  0
 20 16  2  0  0  0  0
 21 16  1  0  0  0  0
 21 14  1  0  0  0  0
 22 25  1  0  0  0  0
 23 26  1  0  0  0  0
 23 27  1  0  0  0  0
 24 28  1  0  0  0  0
 25 23  1  0  0  0  0
 25 26  1  0  0  0  0
 26 24  1  0  0  0  0
 27 28  1  0  0  0  0
 27 30  1  0  0  0  0
 29 30  1  0  0  0  0
 30 31  2  0  0  0  0
M  END
>  <MODEL>
6

>  <REMARK>
 VINA RESULT:      -6.6      2.276     10.030
  Name = 
  11 active torsions:
  status: ('A' for Active; 'I' for Inactive)
    1  A    between atoms: N_3  and  N_9
    2  A    between atoms: N_3  and  C_14
    3  A    between atoms: N_5  and  C_12
    4  A    between atoms: N_5  and  C_19
    5  A    between atoms: C_7  and  C_25
    6  A    between atoms: C_12  and  C_29
    7  A    between atoms: C_14  and  C_19
    8  A    between atoms: C_14  and  C_30
    9  A    between atoms: O_16  and  C_29
   10  A    between atoms: O_16  and  C_31
   11  A    between atoms: C_21  and  C_30
                            x       y       z     vdW  Elec       q    Type
                         _______ _______ _______ _____ _____    ______ ____

>  <TORSDO>
F 11

$$$$
=
 OpenBabel11052409463D

 31 34  0  0  1  0  0  0  0  0999 V2000
  161.5650  210.0890  150.7670 C   0  0  1  0  0  3  0  0  0  0  0  0
  162.3340  211.0470  149.9790 N   0  0  0  0  0  2  0  0  0  0  0  0
  161.9540  213.4660  148.4990 N   0  0  0  0  0  1  0  0  0  0  0  0
  161.8470  210.9990  148.6650 N   0  0  0  0  0  2  0  0  0  0  0  0
  161.5790  212.2060  147.9520 C   0  0  0  0  0  0  0  0  0  0  0  0
  160.9770  212.1590  146.8480 O   0  0  0  0  0  0  0  0  0  0  0  0
  162.2290  208.7260  150.7060 C   0  0  0  0  0  2  0  0  0  0  0  0
  161.3310  207.7040  151.2260 N   0  0  0  0  0  2  0  0  0  0  0  0
  161.3530  206.5540  150.3240 C   0  0  1  0  0  0  0  0  0  0  0  0
  160.7510  206.7520  149.0140 C   0  0  0  0  0  2  0  0  0  0  0  0
  162.2210  206.7990  149.1650 N   0  0  0  0  0  2  0  0  0  0  0  0
  161.4180  205.1280  152.3880 C   0  0  0  0  0  1  0  0  0  0  0  0
  161.4980  205.1320  150.8690 C   0  0  1  0  0  3  0  0  0  0  0  0
  160.4890  204.2930  150.3150 O   0  0  0  0  0  0  0  0  0  0  0  0
  161.0990  200.8360  149.2900 N   0  0  0  0  0  0  0  0  0  0  0  0
  160.9750  203.3040  148.1250 C   0  0  0  0  0  3  0  0  0  0  0  0
  161.3120  200.9720  147.9560 C   0  0  0  0  0  0  0  0  0  0  0  0
  160.8310  201.9150  150.0710 C   0  0  0  0  0  3  0  0  0  0  0  0
  161.5810  199.8280  147.1590 N   0  0  0  0  0  1  0  0  0  0  0  0
  161.2410  202.2010  147.3800 N   0  0  0  0  0  0  0  0  0  0  0  0
  160.7660  203.1860  149.5030 C   0  0  0  0  0  0  0  0  0  0  0  0
  161.4240  210.5340  152.2260 C   0  0  0  0  0  2  0  0  0  0  0  0
  159.9470  209.5080  154.0520 C   0  0  2  0  0  3  0  0  0  0  0  0
  160.8310  211.5920  154.7370 C   0  0  0  0  0  2  0  0  0  0  0  0
  160.0090  210.2800  152.7940 C   0  0  1  0  0  3  0  0  0  0  0  0
  159.6790  210.9680  154.0740 N   0  0  1  0  0  0  0  0  0  0  0  0
  161.2730  209.2700  154.7710 C   0  0  1  0  0  3  0  0  0  0  0  0
  161.5450  210.5330  155.5360 C   0  0  0  0  0  2  0  0  0  0  0  0
  160.2660  207.0500  155.5020 N   0  0  0  0  0  1  0  0  0  0  0  0
  161.2110  208.1000  155.7010 C   0  0  0  0  0  0  0  0  0  0  0  0
  161.9550  208.0790  156.7150 O   0  0  0  0  0  0  0  0  0  0  0  0
  1  7  1  1  0  0  0
  1 22  1  0  0  0  0
  2  1  1  0  0  0  0
  4  2  1  0  0  0  0
  5  3  1  0  0  0  0
  5  4  1  0  0  0  0
  6  5  2  0  0  0  0
  7  8  1  0  0  0  0
  9 13  1  0  0  0  0
  9  8  1  1  0  0  0
 10 11  1  0  0  0  0
 10  9  1  0  0  0  0
 11  9  1  0  0  0  0
 13 12  1  1  0  0  0
 14 13  1  0  0  0  0
 15 18  1  0  0  0  0
 16 21  1  0  0  0  0
 17 15  2  0  0  0  0
 19 17  1  0  0  0  0
 20 17  1  0  0  0  0
 20 16  2  0  0  0  0
 21 18  2  0  0  0  0
 21 14  1  0  0  0  0
 22 25  1  0  0  0  0
 23 26  1  0  0  0  0
 23 27  1  0  0  0  0
 24 28  1  0  0  0  0
 25 23  1  0  0  0  0
 25 26  1  0  0  0  0
 26 24  1  0  0  0  0
 27 28  1  0  0  0  0
 27 30  1  0  0  0  0
 29 30  1  0  0  0  0
 30 31  2  0  0  0  0
M  END
>  <MODEL>
7

>  <REMARK>
 VINA RESULT:      -6.5      2.748      9.467
  Name = 
  11 active torsions:
  status: ('A' for Active; 'I' for Inactive)
    1  A    between atoms: N_3  and  N_9
    2  A    between atoms: N_3  and  C_14
    3  A    between atoms: N_5  and  C_12
    4  A    between atoms: N_5  and  C_19
    5  A    between atoms: C_7  and  C_25
    6  A    between atoms: C_12  and  C_29
    7  A    between atoms: C_14  and  C_19
    8  A    between atoms: C_14  and  C_30
    9  A    between atoms: O_16  and  C_29
   10  A    between atoms: O_16  and  C_31
   11  A    between atoms: C_21  and  C_30
                            x       y       z     vdW  Elec       q    Type
                         _______ _______ _______ _____ _____    ______ ____

>  <TORSDO>
F 11

$$$$
=
 OpenBabel11052409463D

 31 34  0  0  1  0  0  0  0  0999 V2000
  161.4910  210.2160  153.5540 C   0  0  1  0  0  3  0  0  0  0  0  0
  161.4340  209.9820  154.9940 N   0  0  0  0  0  2  0  0  0  0  0  0
  161.6090  207.9130  156.9630 N   0  0  0  0  0  1  0  0  0  0  0  0
  160.3320  209.1520  155.2420 N   0  0  0  0  0  2  0  0  0  0  0  0
  160.4400  208.0680  156.1640 C   0  0  0  0  0  0  0  0  0  0  0  0
  159.5120  207.2240  156.2480 O   0  0  0  0  0  0  0  0  0  0  0  0
  160.9520  209.0040  152.8170 C   0  0  0  0  0  2  0  0  0  0  0  0
  161.9570  207.9510  152.7770 N   0  0  0  0  0  2  0  0  0  0  0  0
  161.7240  207.1210  151.5970 C   0  0  1  0  0  0  0  0  0  0  0  0
  161.1170  207.7850  150.4530 C   0  0  0  0  0  2  0  0  0  0  0  0
  162.5730  207.5370  150.4730 N   0  0  0  0  0  2  0  0  0  0  0  0
  161.2640  205.1950  153.1380 C   0  0  0  0  0  1  0  0  0  0  0  0
  161.6190  205.5990  151.7150 C   0  0  1  0  0  3  0  0  0  0  0  0
  160.6470  205.1050  150.7990 O   0  0  0  0  0  0  0  0  0  0  0  0
  160.8130  201.5720  149.8710 N   0  0  0  0  0  0  0  0  0  0  0  0
  161.1940  204.0010  148.6800 C   0  0  0  0  0  3  0  0  0  0  0  0
  161.1800  201.6420  148.5650 C   0  0  0  0  0  0  0  0  0  0  0  0
  160.6380  202.6970  150.6100 C   0  0  0  0  0  3  0  0  0  0  0  0
  161.3470  200.4510  147.8100 N   0  0  0  0  0  1  0  0  0  0  0  0
  161.3600  202.8530  147.9750 N   0  0  0  0  0  0  0  0  0  0  0  0
  160.8300  203.9500  150.0300 C   0  0  0  0  0  0  0  0  0  0  0  0
  160.7010  211.4650  153.1490 C   0  0  0  0  0  2  0  0  0  0  0  0
  158.1460  211.4690  153.3510 C   0  0  2  0  0  3  0  0  0  0  0  0
  158.9520  213.5790  152.6520 C   0  0  0  0  0  2  0  0  0  0  0  0
  159.3260  211.1270  152.5300 C   0  0  1  0  0  3  0  0  0  0  0  0
  158.4690  212.2850  152.1540 N   0  0  1  0  0  0  0  0  0  0  0  0
  158.4020  212.3330  154.5840 C   0  0  1  0  0  3  0  0  0  0  0  0
  158.4820  213.7430  154.0730 C   0  0  0  0  0  2  0  0  0  0  0  0
  156.0260  212.7820  155.3760 N   0  0  0  0  0  1  0  0  0  0  0  0
  157.3120  212.2070  155.6000 C   0  0  0  0  0  0  0  0  0  0  0  0
  157.5570  211.6470  156.6990 O   0  0  0  0  0  0  0  0  0  0  0  0
  1  7  1  6  0  0  0
  1  2  1  0  0  0  0
  2  4  1  0  0  0  0
  4  5  1  0  0  0  0
  5  6  2  0  0  0  0
  5  3  1  0  0  0  0
  8  7  1  0  0  0  0
  9 13  1  0  0  0  0
  9  8  1  1  0  0  0
 10 11  1  0  0  0  0
 10  9  1  0  0  0  0
 11  9  1  0  0  0  0
 13 12  1  1  0  0  0
 14 13  1  0  0  0  0
 15 18  1  0  0  0  0
 16 21  1  0  0  0  0
 17 15  2  0  0  0  0
 19 17  1  0  0  0  0
 20 17  1  0  0  0  0
 20 16  2  0  0  0  0
 21 18  2  0  0  0  0
 21 14  1  0  0  0  0
 22  1  1  0  0  0  0
 23 27  1  0  0  0  0
 24 28  1  0  0  0  0
 25 22  1  0  0  0  0
 25 23  1  0  0  0  0
 26 25  1  0  0  0  0
 26 24  1  0  0  0  0
 26 23  1  0  0  0  0
 27 30  1  0  0  0  0
 28 27  1  0  0  0  0
 29 30  1  0  0  0  0
 30 31  2  0  0  0  0
M  END
>  <MODEL>
8

>  <REMARK>
 VINA RESULT:      -6.5      2.756      9.653
  Name = 
  11 active torsions:
  status: ('A' for Active; 'I' for Inactive)
    1  A    between atoms: N_3  and  N_9
    2  A    between atoms: N_3  and  C_14
    3  A    between atoms: N_5  and  C_12
    4  A    between atoms: N_5  and  C_19
    5  A    between atoms: C_7  and  C_25
    6  A    between atoms: C_12  and  C_29
    7  A    between atoms: C_14  and  C_19
    8  A    between atoms: C_14  and  C_30
    9  A    between atoms: O_16  and  C_29
   10  A    between atoms: O_16  and  C_31
   11  A    between atoms: C_21  and  C_30
                            x       y       z     vdW  Elec       q    Type
                         _______ _______ _______ _____ _____    ______ ____

>  <TORSDO>
F 11

$$$$
=
 OpenBabel11052409463D

 31 34  0  0  1  0  0  0  0  0999 V2000
  161.5380  204.9830  149.2800 C   0  0  1  0  0  3  0  0  0  0  0  0
  160.8840  205.4860  148.0760 N   0  0  0  0  0  2  0  0  0  0  0  0
  160.0930  206.2070  145.4220 N   0  0  0  0  0  1  0  0  0  0  0  0
  161.7040  205.1630  146.9850 N   0  0  0  0  0  2  0  0  0  0  0  0
  161.2760  205.4480  145.6540 C   0  0  0  0  0  0  0  0  0  0  0  0
  161.9290  204.9980  144.6780 O   0  0  0  0  0  0  0  0  0  0  0  0
  160.8410  205.5350  150.5090 C   0  0  0  0  0  2  0  0  0  0  0  0
  160.8620  206.9910  150.4900 N   0  0  0  0  0  2  0  0  0  0  0  0
  161.3170  207.4740  151.7910 C   0  0  1  0  0  0  0  0  0  0  0  0
  160.9370  206.6710  152.9440 C   0  0  0  0  0  2  0  0  0  0  0  0
  162.3020  206.5600  152.3870 N   0  0  0  0  0  2  0  0  0  0  0  0
  162.2820  209.5310  150.7270 C   0  0  0  0  0  1  0  0  0  0  0  0
  161.6880  208.9440  151.9980 C   0  0  1  0  0  3  0  0  0  0  0  0
  160.5390  209.6840  152.4000 O   0  0  0  0  0  0  0  0  0  0  0  0
  161.1870  210.8500  155.8040 N   0  0  0  0  0  0  0  0  0  0  0  0
  159.7420  211.6500  153.6280 C   0  0  0  0  0  3  0  0  0  0  0  0
  160.4400  211.9830  155.8600 C   0  0  0  0  0  0  0  0  0  0  0  0
  161.2250  210.0910  154.6790 C   0  0  0  0  0  3  0  0  0  0  0  0
  160.4240  212.7660  157.0440 N   0  0  0  0  0  1  0  0  0  0  0  0
  159.7290  212.3810  154.7710 N   0  0  0  0  0  0  0  0  0  0  0  0
  160.4940  210.4720  153.5550 C   0  0  0  0  0  0  0  0  0  0  0  0
  161.5440  203.4520  149.3280 C   0  0  0  0  0  2  0  0  0  0  0  0
  159.7870  202.0440  148.1030 C   0  0  2  0  0  3  0  0  0  0  0  0
  161.3200  200.6730  149.2700 C   0  0  0  0  0  2  0  0  0  0  0  0
  160.1220  202.8480  149.2960 C   0  0  1  0  0  3  0  0  0  0  0  0
  160.0320  201.3650  149.4000 N   0  0  1  0  0  0  0  0  0  0  0  0
  160.9460  201.6940  147.1720 C   0  0  1  0  0  3  0  0  0  0  0  0
  161.6240  200.5120  147.8040 C   0  0  0  0  0  2  0  0  0  0  0  0
  159.9340  202.3490  144.9300 N   0  0  0  0  0  1  0  0  0  0  0  0
  160.4800  201.3520  145.7920 C   0  0  0  0  0  0  0  0  0  0  0  0
  160.5040  200.1530  145.4140 O   0  0  0  0  0  0  0  0  0  0  0  0
  1 22  1  1  0  0  0
  1  7  1  0  0  0  0
  2  1  1  0  0  0  0
  3  5  1  0  0  0  0
  4  2  1  0  0  0  0
  5  4  1  0  0  0  0
  6  5  2  0  0  0  0
  8  7  1  0  0  0  0
  9  8  1  6  0  0  0
  9 13  1  0  0  0  0
  9 11  1  0  0  0  0
  9 10  1  0  0  0  0
 11 10  1  0  0  0  0
 13 12  1  6  0  0  0
 13 14  1  0  0  0  0
 14 21  1  0  0  0  0
 15 17  2  0  0  0  0
 16 20  2  0  0  0  0
 17 19  1  0  0  0  0
 18 15  1  0  0  0  0
 20 17  1  0  0  0  0
 21 16  1  0  0  0  0
 21 18  2  0  0  0  0
 23 25  1  0  0  0  0
 23 26  1  0  0  0  0
 24 26  1  0  0  0  0
 25 22  1  0  0  0  0
 25 26  1  0  0  0  0
 27 28  1  0  0  0  0
 27 23  1  0  0  0  0
 28 24  1  0  0  0  0
 29 30  1  0  0  0  0
 30 27  1  0  0  0  0
 31 30  2  0  0  0  0
M  END
>  <MODEL>
9

>  <REMARK>
 VINA RESULT:      -6.4      1.672      3.200
  Name = 
  11 active torsions:
  status: ('A' for Active; 'I' for Inactive)
    1  A    between atoms: N_3  and  N_9
    2  A    between atoms: N_3  and  C_14
    3  A    between atoms: N_5  and  C_12
    4  A    between atoms: N_5  and  C_19
    5  A    between atoms: C_7  and  C_25
    6  A    between atoms: C_12  and  C_29
    7  A    between atoms: C_14  and  C_19
    8  A    between atoms: C_14  and  C_30
    9  A    between atoms: O_16  and  C_29
   10  A    between atoms: O_16  and  C_31
   11  A    between atoms: C_21  and  C_30
                            x       y       z     vdW  Elec       q    Type
                         _______ _______ _______ _____ _____    ______ ____

>  <TORSDO>
F 11

$$$$
