=
 OpenBabel11042420063D

 58 63  0  0  1  0  0  0  0  0999 V2000
  161.9290  209.2540  152.9120 C   0  0  0  0  0  0  0  0  0  0  0  0
  162.1270  208.5560  151.6170 C   0  0  1  0  0  3  0  0  0  0  0  0
  162.7760  209.9920  153.3750 O   0  0  0  0  0  0  0  0  0  0  0  0
  161.7940  206.4140  152.9370 C   0  0  2  0  0  3  0  0  0  0  0  0
  160.5550  207.2910  153.0460 C   0  0  1  0  0  3  0  0  0  0  0  0
  160.9260  208.5800  153.7730 C   0  0  2  0  0  3  0  0  0  0  0  0
  161.3400  207.2490  151.7490 C   0  0  1  0  0  3  0  0  0  0  0  0
  161.5790  209.3620  150.4380 C   0  0  2  0  0  3  0  0  0  0  0  0
  161.9680  210.6850  148.5720 C   0  0  2  0  0  3  0  0  0  0  0  0
  161.1750  209.5540  148.2430 O   0  0  0  0  0  0  0  0  0  0  0  0
  161.4280  208.5980  149.1910 N   0  0  0  0  0  0  0  0  0  0  0  0
  161.8580  211.6810  150.7990 O   0  0  0  0  0  1  0  0  0  0  0  0
  162.3380  210.5910  150.0560 C   0  0  1  0  0  3  0  0  0  0  0  0
  161.2450  211.9680  148.1690 C   0  0  0  0  0  2  0  0  0  0  0  0
  161.0260  211.9820  146.7240 N   0  0  0  0  0  2  0  0  0  0  0  0
  161.3450  213.5990  146.1720 S   0  0  0  0  0  0  0  0  0  0  0  0
  162.3880  213.5790  145.0840 O   0  0  0  0  0  0  0  0  0  0  0  0
  161.8510  214.4290  147.3220 O   0  0  0  0  0  0  0  0  0  0  0  0
  159.8430  214.3400  145.5640 C   0  0  0  0  0  2  0  0  0  0  0  0
  158.9520  213.3130  144.9440 C   0  0  0  0  0  0  0  0  0  0  0  0
  157.8630  213.0270  145.5030 O   0  0  0  0  0  0  0  0  0  0  0  0
  159.2800  212.6690  143.7430 O   0  0  0  0  0  0  0  0  0  0  0  0
  159.0290  214.4530  142.1110 C   0  0  0  0  0  1  0  0  0  0  0  0
  159.8740  213.2880  142.5990 C   0  0  2  0  0  3  0  0  0  0  0  0
  160.1570  212.2700  141.5040 C   0  0  0  0  0  2  0  0  0  0  0  0
  159.4580  211.7330  139.2280 N   0  0  0  0  0  1  0  0  0  0  0  0
  159.7890  212.8190  140.1300 C   0  0  0  0  0  2  0  0  0  0  0  0
  162.6580  207.8980  148.7790 C   0  0  0  0  0  2  0  0  0  0  0  0
  162.3860  206.4570  148.3490 C   0  0  0  0  0  2  0  0  0  0  0  0
  162.4320  206.3760  146.9310 O   0  0  0  0  0  0  0  0  0  0  0  0
  161.3000  206.1280  146.1460 C   0  0  0  0  0  3  0  0  0  0  0  0
  161.4000  205.8350  144.9190 O   0  0  0  0  0  0  0  0  0  0  0  0
  161.4530  204.9490  152.6830 C   0  0  0  0  0  2  0  0  0  0  0  0
  161.3400  204.7490  151.1820 C   0  0  0  0  0  2  0  0  0  0  0  0
  160.2520  203.7390  150.8530 C   0  0  0  0  0  2  0  0  0  0  0  0
  161.4950  200.6500  148.1360 C   0  0  0  0  0  3  0  0  0  0  0  0
  161.1210  201.9040  147.6240 C   0  0  0  0  0  0  0  0  0  0  0  0
  161.4770  200.4080  149.5120 C   0  0  0  0  0  3  0  0  0  0  0  0
  160.7250  202.9100  148.5150 C   0  0  0  0  0  3  0  0  0  0  0  0
  160.7200  202.6810  149.8960 C   0  0  0  0  0  0  0  0  0  0  0  0
  161.0890  201.4220  150.3910 C   0  0  0  0  0  3  0  0  0  0  0  0
  161.1360  202.1840  146.2540 O   0  0  0  0  0  0  0  0  0  0  0  0
  159.7910  201.9020  145.2140 P   0  0  0  0  0  0  0  0  0  0  0  0
  158.3650  201.7920  146.1150 O   0  0  0  0  0  1  0  0  0  0  0  0
  159.9990  200.6190  144.4440 O   0  0  0  0  0  1  0  0  0  0  0  0
  159.6630  203.1920  144.1240 O   0  0  0  0  0  0  0  0  0  0  0  0
  159.6930  209.4330  153.9960 C   0  0  0  0  0  2  0  0  0  0  0  0
  158.0790  211.4630  155.3580 N   0  0  0  0  0  0  0  0  0  0  0  0
  157.0170  212.4290  155.5530 C   0  0  0  0  0  2  0  0  0  0  0  0
  156.8320  213.1730  154.2460 C   0  0  0  0  0  2  0  0  0  0  0  0
  159.3270  213.1470  154.0910 C   0  0  0  0  0  2  0  0  0  0  0  0
  159.1470  211.7660  154.6870 C   0  0  0  0  0  0  0  0  0  0  0  0
  160.1250  210.7630  154.4070 N   0  0  0  0  0  2  0  0  0  0  0  0
  158.0720  213.8980  153.8850 N   0  0  1  0  0  0  0  0  0  0  0  0
  157.9450  213.3780  151.4480 C   0  0  2  0  0  3  0  0  0  0  0  0
  158.1100  214.4530  152.5100 C   0  0  2  0  0  3  0  0  0  0  0  0
  159.3090  213.9980  151.6850 C   0  0  0  0  0  2  0  0  0  0  0  0
  157.3310  213.9990  150.2150 C   0  0  0  0  0  1  0  0  0  0  0  0
  1  3  2  0  0  0  0
  1  6  1  0  0  0  0
  2  7  1  0  0  0  0
  2  1  1  1  0  0  0
  4 33  1  6  0  0  0
  4  5  1  0  0  0  0
  5  6  1  0  0  0  0
  6 47  1  0  0  0  0
  7  4  1  0  0  0  0
  7  5  1  0  0  0  0
  8  2  1  0  0  0  0
  9 13  1  0  0  0  0
 10  9  1  0  0  0  0
 10 11  1  0  0  0  0
 11  8  1  0  0  0  0
 13  8  1  0  0  0  0
 13 12  1  0  0  0  0
 14  9  1  0  0  0  0
 15 14  1  0  0  0  0
 16 15  1  0  0  0  0
 16 18  2  0  0  0  0
 17 16  2  0  0  0  0
 19 16  1  0  0  0  0
 20 21  2  0  0  0  0
 20 19  1  0  0  0  0
 22 20  1  0  0  0  0
 23 24  1  0  0  0  0
 24 22  1  0  0  0  0
 25 24  1  0  0  0  0
 26 27  1  0  0  0  0
 27 25  1  0  0  0  0
 28 11  1  0  0  0  0
 29 28  1  0  0  0  0
 30 29  1  0  0  0  0
 31 30  1  0  0  0  0
 32 31  2  0  0  0  0
 34 33  1  0  0  0  0
 35 34  1  0  0  0  0
 36 38  1  0  0  0  0
 37 36  2  0  0  0  0
 37 39  1  0  0  0  0
 38 41  2  0  0  0  0
 39 40  2  0  0  0  0
 40 41  1  0  0  0  0
 40 35  1  0  0  0  0
 42 37  1  0  0  0  0
 43 44  1  0  0  0  0
 43 42  1  0  0  0  0
 45 43  1  0  0  0  0
 46 43  2  0  0  0  0
 47 53  1  0  0  0  0
 48 49  1  0  0  0  0
 50 49  1  0  0  0  0
 51 52  1  0  0  0  0
 52 48  2  0  0  0  0
 53 52  1  0  0  0  0
 54 51  1  0  0  0  0
 54 50  1  0  0  0  0
 55 57  1  0  0  0  0
 55 56  1  0  0  0  0
 56 54  1  0  0  0  0
 57 56  1  0  0  0  0
 58 55  1  0  0  0  0
M  END
>  <MODEL>
1

>  <REMARK>
 VINA RESULT:      -4.9      0.000      0.000
  Name = 
  23 active torsions:
  status: ('A' for Active; 'I' for Inactive)
    1  A    between atoms: C_2  and  C_9
    2  A    between atoms: C_4  and  C_51
    3  A    between atoms: P_5  and  O_49
    4  A    between atoms: N_10  and  S_11
    5  A    between atoms: N_10  and  C_51
    6  A    between atoms: S_11  and  C_15
    7  A    between atoms: C_12  and  O_49
    8  A    between atoms: C_15  and  C_22
    9  A    between atoms: C_16  and  N_30
   10  A    between atoms: C_16  and  C_32
   11  A    between atoms: C_18  and  C_29
   12  A    between atoms: C_18  and  C_48
   13  A    between atoms: C_20  and  O_38
   14  A    between atoms: C_22  and  O_35
   15  A    between atoms: C_24  and  C_42
   16  A    between atoms: C_24  and  C_54
   17  A    between atoms: C_31  and  N_47
   18  A    between atoms: C_32  and  O_38
   19  A    between atoms: C_33  and  C_54
   20  A    between atoms: O_35  and  C_48
   21  A    between atoms: C_42  and  C_55
   22  A    between atoms: N_46  and  C_53
   23  A    between atoms: C_52  and  C_53
                            x       y       z     vdW  Elec       q    Type
                         _______ _______ _______ _____ _____    ______ ____

>  <TORSDO>
F 23

$$$$
=
 OpenBabel11042420063D

 58 63  0  0  1  0  0  0  0  0999 V2000
  160.8820  209.3610  152.3670 C   0  0  0  0  0  0  0  0  0  0  0  0
  161.0160  208.6720  151.0590 C   0  0  1  0  0  3  0  0  0  0  0  0
  159.8300  209.3770  152.9750 O   0  0  0  0  0  0  0  0  0  0  0  0
  161.7180  210.9370  150.1520 C   0  0  2  0  0  3  0  0  0  0  0  0
  162.6770  210.4940  151.2470 C   0  0  1  0  0  3  0  0  0  0  0  0
  161.9150  210.4080  152.5660 C   0  0  2  0  0  3  0  0  0  0  0  0
  162.0840  209.4670  150.3010 C   0  0  1  0  0  3  0  0  0  0  0  0
  161.4790  207.2230  151.2150 C   0  0  2  0  0  3  0  0  0  0  0  0
  160.9580  204.9660  151.3630 C   0  0  2  0  0  3  0  0  0  0  0  0
  161.8860  205.2110  150.3170 O   0  0  0  0  0  0  0  0  0  0  0  0
  161.7380  206.5230  149.9480 N   0  0  0  0  0  0  0  0  0  0  0  0
  160.9170  206.3830  153.3510 O   0  0  0  0  0  1  0  0  0  0  0  0
  160.5820  206.3130  151.9910 C   0  0  1  0  0  3  0  0  0  0  0  0
  161.5270  203.9380  152.3380 C   0  0  0  0  0  2  0  0  0  0  0  0
  162.2900  202.9290  151.6080 N   0  0  0  0  0  2  0  0  0  0  0  0
  161.1660  202.0610  150.6050 S   0  0  0  0  0  0  0  0  0  0  0  0
  159.7570  202.2860  151.0900 O   0  0  0  0  0  0  0  0  0  0  0  0
  161.4770  200.5890  150.6640 O   0  0  0  0  0  0  0  0  0  0  0  0
  161.3220  202.6000  148.9140 C   0  0  0  0  0  2  0  0  0  0  0  0
  160.5450  201.7120  147.9950 C   0  0  0  0  0  0  0  0  0  0  0  0
  159.3600  201.4130  148.2860 O   0  0  0  0  0  0  0  0  0  0  0  0
  161.0900  201.2170  146.8020 O   0  0  0  0  0  0  0  0  0  0  0  0
  161.3100  199.0600  145.7030 C   0  0  0  0  0  1  0  0  0  0  0  0
  160.4520  200.2970  145.9110 C   0  0  2  0  0  3  0  0  0  0  0  0
  160.0670  200.9710  144.6040 C   0  0  0  0  0  2  0  0  0  0  0  0
  160.2280  203.4050  144.5310 N   0  0  0  0  0  1  0  0  0  0  0  0
  159.3530  202.2960  144.8530 C   0  0  0  0  0  2  0  0  0  0  0  0
  160.6070  206.5790  149.0040 C   0  0  0  0  0  2  0  0  0  0  0  0
  161.0450  206.9970  147.6020 C   0  0  0  0  0  2  0  0  0  0  0  0
  162.2980  206.3970  147.3050 O   0  0  0  0  0  0  0  0  0  0  0  0
  162.4600  205.4240  146.3110 C   0  0  0  0  0  3  0  0  0  0  0  0
  162.7230  205.7410  145.1150 O   0  0  0  0  0  0  0  0  0  0  0  0
  162.4400  211.5160  148.9410 C   0  0  0  0  0  2  0  0  0  0  0  0
  161.5500  212.5850  148.3330 C   0  0  0  0  0  2  0  0  0  0  0  0
  162.1970  213.1850  147.0940 C   0  0  0  0  0  2  0  0  0  0  0  0
  159.5880  213.0880  143.6790 C   0  0  0  0  0  3  0  0  0  0  0  0
  160.9610  213.3190  143.4870 C   0  0  0  0  0  0  0  0  0  0  0  0
  159.0740  212.8790  144.9610 C   0  0  0  0  0  3  0  0  0  0  0  0
  161.8080  213.3420  144.6030 C   0  0  0  0  0  3  0  0  0  0  0  0
  161.3030  213.1160  145.8890 C   0  0  0  0  0  0  0  0  0  0  0  0
  159.9300  212.8940  146.0650 C   0  0  0  0  0  3  0  0  0  0  0  0
  161.5120  213.5240  142.2180 O   0  0  0  0  0  0  0  0  0  0  0  0
  161.4240  212.3640  140.9470 P   0  0  0  0  0  0  0  0  0  0  0  0
  162.9290  212.2040  140.1930 O   0  0  0  0  0  1  0  0  0  0  0  0
  160.3950  212.7950  139.9290 O   0  0  0  0  0  0  0  0  0  0  0  0
  160.9690  210.8700  141.6010 O   0  0  0  0  0  1  0  0  0  0  0  0
  162.8620  210.0730  153.7010 C   0  0  0  0  0  2  0  0  0  0  0  0
  161.2580  209.5540  156.0960 N   0  0  0  0  0  0  0  0  0  0  0  0
  160.0810  209.2630  156.8910 C   0  0  0  0  0  2  0  0  0  0  0  0
  158.9270  210.0470  156.2990 C   0  0  0  0  0  2  0  0  0  0  0  0
  160.5750  211.9050  156.0150 C   0  0  0  0  0  2  0  0  0  0  0  0
  161.5050  210.7570  155.6780 C   0  0  0  0  0  0  0  0  0  0  0  0
  162.6050  210.9970  154.7990 N   0  0  0  0  0  2  0  0  0  0  0  0
  159.2000  211.5000  156.3700 N   0  0  1  0  0  0  0  0  0  0  0  0
  158.7340  213.8110  155.5540 C   0  0  2  0  0  3  0  0  0  0  0  0
  158.2720  212.3630  155.5990 C   0  0  2  0  0  3  0  0  0  0  0  0
  157.5620  213.4220  156.4350 C   0  0  0  0  0  2  0  0  0  0  0  0
  158.2070  214.4530  154.2910 C   0  0  0  0  0  1  0  0  0  0  0  0
  1  6  1  0  0  0  0
  1  3  2  0  0  0  0
  2  8  1  0  0  0  0
  2  1  1  1  0  0  0
  4 33  1  6  0  0  0
  4  7  1  0  0  0  0
  4  5  1  0  0  0  0
  5  6  1  0  0  0  0
  6 47  1  0  0  0  0
  7  2  1  0  0  0  0
  7  5  1  0  0  0  0
  8 13  1  0  0  0  0
  9 13  1  0  0  0  0
  9 14  1  0  0  0  0
 10  9  1  0  0  0  0
 11 10  1  0  0  0  0
 11  8  1  0  0  0  0
 13 12  1  0  0  0  0
 15 14  1  0  0  0  0
 16 18  2  0  0  0  0
 16 17  2  0  0  0  0
 16 15  1  0  0  0  0
 19 16  1  0  0  0  0
 20 21  2  0  0  0  0
 20 19  1  0  0  0  0
 22 20  1  0  0  0  0
 23 24  1  0  0  0  0
 24 22  1  0  0  0  0
 25 27  1  0  0  0  0
 25 24  1  0  0  0  0
 26 27  1  0  0  0  0
 28 11  1  0  0  0  0
 29 28  1  0  0  0  0
 30 29  1  0  0  0  0
 31 30  1  0  0  0  0
 32 31  2  0  0  0  0
 34 33  1  0  0  0  0
 35 34  1  0  0  0  0
 36 38  1  0  0  0  0
 37 36  2  0  0  0  0
 37 39  1  0  0  0  0
 38 41  2  0  0  0  0
 39 40  2  0  0  0  0
 40 41  1  0  0  0  0
 40 35  1  0  0  0  0
 42 37  1  0  0  0  0
 43 46  1  0  0  0  0
 43 42  1  0  0  0  0
 44 43  1  0  0  0  0
 45 43  2  0  0  0  0
 47 53  1  0  0  0  0
 48 49  1  0  0  0  0
 50 54  1  0  0  0  0
 50 49  1  0  0  0  0
 51 54  1  0  0  0  0
 52 51  1  0  0  0  0
 52 48  2  0  0  0  0
 53 52  1  0  0  0  0
 55 56  1  0  0  0  0
 55 57  1  0  0  0  0
 56 54  1  0  0  0  0
 56 57  1  0  0  0  0
 58 55  1  0  0  0  0
M  END
>  <MODEL>
2

>  <REMARK>
 VINA RESULT:      -4.4      3.470      8.630
  Name = 
  23 active torsions:
  status: ('A' for Active; 'I' for Inactive)
    1  A    between atoms: C_2  and  C_9
    2  A    between atoms: C_4  and  C_51
    3  A    between atoms: P_5  and  O_49
    4  A    between atoms: N_10  and  S_11
    5  A    between atoms: N_10  and  C_51
    6  A    between atoms: S_11  and  C_15
    7  A    between atoms: C_12  and  O_49
    8  A    between atoms: C_15  and  C_22
    9  A    between atoms: C_16  and  N_30
   10  A    between atoms: C_16  and  C_32
   11  A    between atoms: C_18  and  C_29
   12  A    between atoms: C_18  and  C_48
   13  A    between atoms: C_20  and  O_38
   14  A    between atoms: C_22  and  O_35
   15  A    between atoms: C_24  and  C_42
   16  A    between atoms: C_24  and  C_54
   17  A    between atoms: C_31  and  N_47
   18  A    between atoms: C_32  and  O_38
   19  A    between atoms: C_33  and  C_54
   20  A    between atoms: O_35  and  C_48
   21  A    between atoms: C_42  and  C_55
   22  A    between atoms: N_46  and  C_53
   23  A    between atoms: C_52  and  C_53
                            x       y       z     vdW  Elec       q    Type
                         _______ _______ _______ _____ _____    ______ ____

>  <TORSDO>
F 23

$$$$
=
 OpenBabel11042420063D

 58 63  0  0  1  0  0  0  0  0999 V2000
  160.6310  213.2480  150.0340 C   0  0  0  0  0  0  0  0  0  0  0  0
  160.8660  212.2070  151.0650 C   0  0  1  0  0  3  0  0  0  0  0  0
  161.5490  213.8570  149.5210 O   0  0  0  0  0  0  0  0  0  0  0  0
  159.3950  213.6300  152.5660 C   0  0  2  0  0  3  0  0  0  0  0  0
  158.6150  213.1920  151.3340 C   0  0  1  0  0  3  0  0  0  0  0  0
  159.2590  213.8100  150.0970 C   0  0  2  0  0  3  0  0  0  0  0  0
  159.6260  212.2520  151.9620 C   0  0  1  0  0  3  0  0  0  0  0  0
  161.0010  210.8110  150.4560 C   0  0  2  0  0  3  0  0  0  0  0  0
  162.3500  209.0380  149.8040 C   0  0  2  0  0  3  0  0  0  0  0  0
  161.3420  208.6110  150.7070 O   0  0  0  0  0  0  0  0  0  0  0  0
  160.9580  209.7100  151.4300 N   0  0  0  0  0  0  0  0  0  0  0  0
  161.9600  210.9200  148.2980 O   0  0  0  0  0  1  0  0  0  0  0  0
  162.2200  210.5550  149.6280 C   0  0  1  0  0  3  0  0  0  0  0  0
  162.2730  208.2320  148.5110 C   0  0  0  0  0  2  0  0  0  0  0  0
  162.4140  206.8070  148.8040 N   0  0  0  0  0  2  0  0  0  0  0  0
  161.3680  205.9510  147.7100 S   0  0  0  0  0  0  0  0  0  0  0  0
  160.3320  206.8880  147.1440 O   0  0  0  0  0  0  0  0  0  0  0  0
  160.6740  204.8390  148.4510 O   0  0  0  0  0  0  0  0  0  0  0  0
  162.3270  205.2330  146.3910 C   0  0  0  0  0  2  0  0  0  0  0  0
  161.4900  204.3170  145.5580 C   0  0  0  0  0  0  0  0  0  0  0  0
  160.6660  204.8050  144.7450 O   0  0  0  0  0  0  0  0  0  0  0  0
  161.6090  202.9220  145.6370 O   0  0  0  0  0  0  0  0  0  0  0  0
  160.4940  201.8810  147.5310 C   0  0  0  0  0  1  0  0  0  0  0  0
  160.5710  202.0150  146.0190 C   0  0  2  0  0  3  0  0  0  0  0  0
  160.7230  200.6740  145.3180 C   0  0  0  0  0  2  0  0  0  0  0  0
  161.6590  198.4280  145.5150 N   0  0  0  0  0  1  0  0  0  0  0  0
  161.3030  199.6210  146.2570 C   0  0  0  0  0  2  0  0  0  0  0  0
  161.9270  209.8610  152.5300 C   0  0  0  0  0  2  0  0  0  0  0  0
  162.1370  208.5580  153.2980 C   0  0  0  0  0  2  0  0  0  0  0  0
  160.8770  207.9460  153.5340 O   0  0  0  0  0  0  0  0  0  0  0  0
  160.7330  206.5810  153.8120 C   0  0  0  0  0  3  0  0  0  0  0  0
  161.7390  205.8330  153.9840 O   0  0  0  0  0  0  0  0  0  0  0  0
  158.5860  213.4880  153.8510 C   0  0  0  0  0  2  0  0  0  0  0  0
  159.1610  214.4510  154.8740 C   0  0  0  0  0  2  0  0  0  0  0  0
  160.0220  213.7120  155.8860 C   0  0  0  0  0  2  0  0  0  0  0  0
  159.2780  209.4820  156.0420 C   0  0  0  0  0  3  0  0  0  0  0  0
  158.2010  210.3600  155.8310 C   0  0  0  0  0  0  0  0  0  0  0  0
  160.5780  209.9710  156.1870 C   0  0  0  0  0  3  0  0  0  0  0  0
  158.4510  211.7380  155.7730 C   0  0  0  0  0  3  0  0  0  0  0  0
  159.7530  212.2350  155.9010 C   0  0  0  0  0  0  0  0  0  0  0  0
  160.8150  211.3460  156.1180 C   0  0  0  0  0  3  0  0  0  0  0  0
  156.8880  209.9060  155.6720 O   0  0  0  0  0  0  0  0  0  0  0  0
  155.5030  210.8680  156.0240 P   0  0  0  0  0  0  0  0  0  0  0  0
  155.1500  211.8880  154.7230 O   0  0  0  0  0  0  0  0  0  0  0  0
  155.7560  211.7000  157.2600 O   0  0  0  0  0  1  0  0  0  0  0  0
  154.1830  209.8450  156.3030 O   0  0  0  0  0  1  0  0  0  0  0  0
  158.4460  213.4830  148.8600 C   0  0  0  0  0  2  0  0  0  0  0  0
  157.7840  213.2860  146.0130 N   0  0  0  0  0  0  0  0  0  0  0  0
  157.7760  212.7490  144.6680 C   0  0  0  0  0  2  0  0  0  0  0  0
  159.1780  212.2580  144.3660 C   0  0  0  0  0  2  0  0  0  0  0  0
  159.9560  214.3180  145.5490 C   0  0  0  0  0  2  0  0  0  0  0  0
  158.7740  214.0060  146.4440 C   0  0  0  0  0  0  0  0  0  0  0  0
  158.8140  214.4240  147.8090 N   0  0  0  0  0  2  0  0  0  0  0  0
  160.1410  213.3820  144.4230 N   0  0  1  0  0  0  0  0  0  0  0  0
  162.4550  214.0870  143.8150 C   0  0  2  0  0  3  0  0  0  0  0  0
  161.5740  212.9960  144.4000 C   0  0  2  0  0  3  0  0  0  0  0  0
  162.1570  212.8430  143.0000 C   0  0  0  0  0  2  0  0  0  0  0  0
  163.8400  213.9670  144.4070 C   0  0  0  0  0  1  0  0  0  0  0  0
  1  6  1  0  0  0  0
  2  1  1  6  0  0  0
  2  7  1  0  0  0  0
  3  1  2  0  0  0  0
  4 33  1  1  0  0  0
  5  7  1  0  0  0  0
  5  4  1  0  0  0  0
  6  5  1  0  0  0  0
  7  4  1  0  0  0  0
  8  2  1  0  0  0  0
  8 11  1  0  0  0  0
  9 10  1  0  0  0  0
 10 11  1  0  0  0  0
 11 28  1  0  0  0  0
 12 13  1  0  0  0  0
 13  9  1  0  0  0  0
 13  8  1  0  0  0  0
 14 15  1  0  0  0  0
 14  9  1  0  0  0  0
 16 18  2  0  0  0  0
 16 15  1  0  0  0  0
 17 16  2  0  0  0  0
 19 16  1  0  0  0  0
 20 22  1  0  0  0  0
 20 19  1  0  0  0  0
 21 20  2  0  0  0  0
 22 24  1  0  0  0  0
 24 23  1  0  0  0  0
 25 24  1  0  0  0  0
 25 27  1  0  0  0  0
 26 27  1  0  0  0  0
 28 29  1  0  0  0  0
 29 30  1  0  0  0  0
 30 31  1  0  0  0  0
 31 32  2  0  0  0  0
 33 34  1  0  0  0  0
 34 35  1  0  0  0  0
 35 40  1  0  0  0  0
 36 38  1  0  0  0  0
 37 36  2  0  0  0  0
 39 37  1  0  0  0  0
 39 40  2  0  0  0  0
 40 41  1  0  0  0  0
 41 38  2  0  0  0  0
 42 37  1  0  0  0  0
 42 43  1  0  0  0  0
 43 46  1  0  0  0  0
 43 45  1  0  0  0  0
 44 43  2  0  0  0  0
 47  6  1  0  0  0  0
 48 52  2  0  0  0  0
 49 48  1  0  0  0  0
 50 54  1  0  0  0  0
 50 49  1  0  0  0  0
 51 52  1  0  0  0  0
 52 53  1  0  0  0  0
 53 47  1  0  0  0  0
 54 51  1  0  0  0  0
 55 56  1  0  0  0  0
 55 58  1  0  0  0  0
 56 54  1  0  0  0  0
 57 55  1  0  0  0  0
 57 56  1  0  0  0  0
M  END
>  <MODEL>
3

>  <REMARK>
 VINA RESULT:      -3.7      3.862      9.520
  Name = 
  23 active torsions:
  status: ('A' for Active; 'I' for Inactive)
    1  A    between atoms: C_2  and  C_9
    2  A    between atoms: C_4  and  C_51
    3  A    between atoms: P_5  and  O_49
    4  A    between atoms: N_10  and  S_11
    5  A    between atoms: N_10  and  C_51
    6  A    between atoms: S_11  and  C_15
    7  A    between atoms: C_12  and  O_49
    8  A    between atoms: C_15  and  C_22
    9  A    between atoms: C_16  and  N_30
   10  A    between atoms: C_16  and  C_32
   11  A    between atoms: C_18  and  C_29
   12  A    between atoms: C_18  and  C_48
   13  A    between atoms: C_20  and  O_38
   14  A    between atoms: C_22  and  O_35
   15  A    between atoms: C_24  and  C_42
   16  A    between atoms: C_24  and  C_54
   17  A    between atoms: C_31  and  N_47
   18  A    between atoms: C_32  and  O_38
   19  A    between atoms: C_33  and  C_54
   20  A    between atoms: O_35  and  C_48
   21  A    between atoms: C_42  and  C_55
   22  A    between atoms: N_46  and  C_53
   23  A    between atoms: C_52  and  C_53
                            x       y       z     vdW  Elec       q    Type
                         _______ _______ _______ _____ _____    ______ ____

>  <TORSDO>
F 23

$$$$
=
 OpenBabel11042420063D

 58 63  0  0  1  0  0  0  0  0999 V2000
  161.0380  207.7380  149.1390 C   0  0  0  0  0  0  0  0  0  0  0  0
  161.3450  208.5170  150.3640 C   0  0  1  0  0  3  0  0  0  0  0  0
  159.9450  207.7860  148.6090 O   0  0  0  0  0  0  0  0  0  0  0  0
  161.8790  206.2750  151.4270 C   0  0  2  0  0  3  0  0  0  0  0  0
  162.7900  206.5150  150.2310 C   0  0  1  0  0  3  0  0  0  0  0  0
  161.9390  206.5720  148.9660 C   0  0  2  0  0  3  0  0  0  0  0  0
  162.3820  207.6780  151.1160 C   0  0  1  0  0  3  0  0  0  0  0  0
  161.9400  209.8890  150.0420 C   0  0  2  0  0  3  0  0  0  0  0  0
  161.7650  211.9390  148.9700 C   0  0  2  0  0  3  0  0  0  0  0  0
  161.9860  212.1050  150.3620 O   0  0  0  0  0  0  0  0  0  0  0  0
  161.5580  210.9570  150.9760 N   0  0  0  0  0  0  0  0  0  0  0  0
  162.6490  209.9930  147.7900 O   0  0  0  0  0  1  0  0  0  0  0  0
  161.6600  210.4380  148.6800 C   0  0  1  0  0  3  0  0  0  0  0  0
  162.8420  212.6740  148.1760 C   0  0  0  0  0  2  0  0  0  0  0  0
  162.3560  213.9940  147.7800 N   0  0  0  0  0  2  0  0  0  0  0  0
  161.1270  213.7480  146.5750 S   0  0  0  0  0  0  0  0  0  0  0  0
  159.8320  214.3790  147.0190 O   0  0  0  0  0  0  0  0  0  0  0  0
  160.9120  212.2710  146.3760 O   0  0  0  0  0  0  0  0  0  0  0  0
  161.6490  214.4530  145.0240 C   0  0  0  0  0  2  0  0  0  0  0  0
  161.0480  213.7150  143.8710 C   0  0  0  0  0  0  0  0  0  0  0  0
  159.8060  213.5300  143.8400 O   0  0  0  0  0  0  0  0  0  0  0  0
  161.8260  213.2390  142.8060 O   0  0  0  0  0  0  0  0  0  0  0  0
  161.1010  211.4200  141.3640 C   0  0  0  0  0  1  0  0  0  0  0  0
  161.3430  212.9150  141.4990 C   0  0  2  0  0  3  0  0  0  0  0  0
  162.2640  213.4600  140.4180 C   0  0  0  0  0  2  0  0  0  0  0  0
  163.8960  212.7590  138.7440 N   0  0  0  0  0  1  0  0  0  0  0  0
  163.3420  212.4480  140.0480 C   0  0  0  0  0  2  0  0  0  0  0  0
  160.1010  211.0850  151.1580 C   0  0  0  0  0  2  0  0  0  0  0  0
  159.7230  212.3470  151.9310 C   0  0  0  0  0  2  0  0  0  0  0  0
  159.1970  213.3090  151.0280 O   0  0  0  0  0  0  0  0  0  0  0  0
  157.9140  213.2160  150.4770 C   0  0  0  0  0  3  0  0  0  0  0  0
  157.0670  214.1460  150.6160 O   0  0  0  0  0  0  0  0  0  0  0  0
  162.6320  205.7260  152.6340 C   0  0  0  0  0  2  0  0  0  0  0  0
  161.6510  205.6200  153.7880 C   0  0  0  0  0  2  0  0  0  0  0  0
  160.6530  206.7670  153.7550 C   0  0  0  0  0  2  0  0  0  0  0  0
  161.6380  209.7730  156.6650 C   0  0  0  0  0  3  0  0  0  0  0  0
  161.0400  210.1610  155.4540 C   0  0  0  0  0  0  0  0  0  0  0  0
  161.9000  208.4270  156.9300 C   0  0  0  0  0  3  0  0  0  0  0  0
  160.7140  209.1750  154.5120 C   0  0  0  0  0  3  0  0  0  0  0  0
  160.9570  207.8230  154.7780 C   0  0  0  0  0  0  0  0  0  0  0  0
  161.5610  207.4530  155.9880 C   0  0  0  0  0  3  0  0  0  0  0  0
  160.7560  211.4970  155.1570 O   0  0  0  0  0  0  0  0  0  0  0  0
  159.2600  212.2580  155.5470 P   0  0  0  0  0  0  0  0  0  0  0  0
  159.3130  213.8990  155.1460 O   0  0  0  0  0  1  0  0  0  0  0  0
  158.9790  212.1100  157.0240 O   0  0  0  0  0  1  0  0  0  0  0  0
  158.0210  211.5100  154.6670 O   0  0  0  0  0  0  0  0  0  0  0  0
  162.8220  206.7020  147.7420 C   0  0  0  0  0  2  0  0  0  0  0  0
  162.1870  205.1070  145.3680 N   0  0  0  0  0  0  0  0  0  0  0  0
  161.3840  204.3370  144.4400 C   0  0  0  0  0  2  0  0  0  0  0  0
  160.4400  203.4790  145.2580 C   0  0  0  0  0  2  0  0  0  0  0  0
  162.3860  203.1200  146.7860 C   0  0  0  0  0  2  0  0  0  0  0  0
  162.6550  204.5730  146.4540 C   0  0  0  0  0  0  0  0  0  0  0  0
  163.3430  205.3820  147.4100 N   0  0  0  0  0  2  0  0  0  0  0  0
  161.2050  202.5420  146.1130 N   0  0  1  0  0  0  0  0  0  0  0  0
  161.2360  201.5070  148.3820 C   0  0  2  0  0  3  0  0  0  0  0  0
  160.4140  201.8280  147.1450 C   0  0  2  0  0  3  0  0  0  0  0  0
  160.8760  200.4000  147.4100 C   0  0  0  0  0  2  0  0  0  0  0  0
  160.3120  201.4300  149.5760 C   0  0  0  0  0  1  0  0  0  0  0  0
  2  1  1  6  0  0  0
  2  7  1  0  0  0  0
  3  1  2  0  0  0  0
  4 33  1  1  0  0  0
  5  7  1  0  0  0  0
  5  4  1  0  0  0  0
  6  1  1  0  0  0  0
  6  5  1  0  0  0  0
  7  4  1  0  0  0  0
  8  2  1  0  0  0  0
  8 11  1  0  0  0  0
  9 10  1  0  0  0  0
 10 11  1  0  0  0  0
 11 28  1  0  0  0  0
 12 13  1  0  0  0  0
 13  9  1  0  0  0  0
 13  8  1  0  0  0  0
 14  9  1  0  0  0  0
 15 14  1  0  0  0  0
 16 17  2  0  0  0  0
 16 15  1  0  0  0  0
 18 16  2  0  0  0  0
 19 16  1  0  0  0  0
 20 19  1  0  0  0  0
 21 20  2  0  0  0  0
 22 20  1  0  0  0  0
 23 24  1  0  0  0  0
 24 22  1  0  0  0  0
 25 24  1  0  0  0  0
 26 27  1  0  0  0  0
 27 25  1  0  0  0  0
 28 29  1  0  0  0  0
 30 29  1  0  0  0  0
 31 32  2  0  0  0  0
 31 30  1  0  0  0  0
 33 34  1  0  0  0  0
 35 34  1  0  0  0  0
 35 40  1  0  0  0  0
 36 38  1  0  0  0  0
 37 36  2  0  0  0  0
 39 40  2  0  0  0  0
 39 37  1  0  0  0  0
 40 41  1  0  0  0  0
 41 38  2  0  0  0  0
 42 37  1  0  0  0  0
 42 43  1  0  0  0  0
 43 45  1  0  0  0  0
 44 43  1  0  0  0  0
 46 43  2  0  0  0  0
 47  6  1  0  0  0  0
 48 52  2  0  0  0  0
 49 50  1  0  0  0  0
 49 48  1  0  0  0  0
 50 54  1  0  0  0  0
 52 51  1  0  0  0  0
 52 53  1  0  0  0  0
 53 47  1  0  0  0  0
 54 51  1  0  0  0  0
 54 56  1  0  0  0  0
 55 58  1  0  0  0  0
 56 57  1  0  0  0  0
 56 55  1  0  0  0  0
 57 55  1  0  0  0  0
M  END
>  <MODEL>
4

>  <REMARK>
 VINA RESULT:      -2.7      3.485      8.540
  Name = 
  23 active torsions:
  status: ('A' for Active; 'I' for Inactive)
    1  A    between atoms: C_2  and  C_9
    2  A    between atoms: C_4  and  C_51
    3  A    between atoms: P_5  and  O_49
    4  A    between atoms: N_10  and  S_11
    5  A    between atoms: N_10  and  C_51
    6  A    between atoms: S_11  and  C_15
    7  A    between atoms: C_12  and  O_49
    8  A    between atoms: C_15  and  C_22
    9  A    between atoms: C_16  and  N_30
   10  A    between atoms: C_16  and  C_32
   11  A    between atoms: C_18  and  C_29
   12  A    between atoms: C_18  and  C_48
   13  A    between atoms: C_20  and  O_38
   14  A    between atoms: C_22  and  O_35
   15  A    between atoms: C_24  and  C_42
   16  A    between atoms: C_24  and  C_54
   17  A    between atoms: C_31  and  N_47
   18  A    between atoms: C_32  and  O_38
   19  A    between atoms: C_33  and  C_54
   20  A    between atoms: O_35  and  C_48
   21  A    between atoms: C_42  and  C_55
   22  A    between atoms: N_46  and  C_53
   23  A    between atoms: C_52  and  C_53
                            x       y       z     vdW  Elec       q    Type
                         _______ _______ _______ _____ _____    ______ ____

>  <TORSDO>
F 23

$$$$
=
 OpenBabel11042420063D

 58 63  0  0  1  0  0  0  0  0999 V2000
  162.5050  206.5920  152.4550 C   0  0  0  0  0  0  0  0  0  0  0  0
  162.5860  206.7390  150.9800 C   0  0  1  0  0  3  0  0  0  0  0  0
  163.5020  206.4930  153.1430 O   0  0  0  0  0  0  0  0  0  0  0  0
  161.1870  204.6230  150.8830 C   0  0  2  0  0  3  0  0  0  0  0  0
  160.4310  205.7150  151.6260 C   0  0  1  0  0  3  0  0  0  0  0  0
  161.1920  206.0630  152.9010 C   0  0  2  0  0  3  0  0  0  0  0  0
  161.3130  206.0760  150.4460 C   0  0  1  0  0  3  0  0  0  0  0  0
  162.6160  208.2040  150.5460 C   0  0  2  0  0  3  0  0  0  0  0  0
  161.5240  210.0400  149.6390 C   0  0  2  0  0  3  0  0  0  0  0  0
  162.0690  210.3460  150.9130 O   0  0  0  0  0  0  0  0  0  0  0  0
  162.2060  209.1600  151.5860 N   0  0  0  0  0  0  0  0  0  0  0  0
  162.5880  208.3870  148.1900 O   0  0  0  0  0  1  0  0  0  0  0  0
  161.8060  208.5630  149.3420 C   0  0  1  0  0  3  0  0  0  0  0  0
  162.0520  211.0190  148.5930 C   0  0  0  0  0  2  0  0  0  0  0  0
  160.9370  211.6150  147.8610 N   0  0  0  0  0  2  0  0  0  0  0  0
  160.9530  213.3200  148.2010 S   0  0  0  0  0  0  0  0  0  0  0  0
  161.7890  213.5970  149.4240 O   0  0  0  0  0  0  0  0  0  0  0  0
  159.5460  213.7930  148.4500 O   0  0  0  0  0  0  0  0  0  0  0  0
  161.6050  214.2110  146.8020 C   0  0  0  0  0  2  0  0  0  0  0  0
  162.0880  213.2700  145.7450 C   0  0  0  0  0  0  0  0  0  0  0  0
  163.2580  212.8160  145.8140 O   0  0  0  0  0  0  0  0  0  0  0  0
  161.2690  212.8570  144.6850 O   0  0  0  0  0  0  0  0  0  0  0  0
  159.2200  214.1350  144.9660 C   0  0  0  0  0  1  0  0  0  0  0  0
  160.3050  213.6690  144.0090 C   0  0  2  0  0  3  0  0  0  0  0  0
  159.7440  212.9590  142.7860 C   0  0  0  0  0  2  0  0  0  0  0  0
  162.0430  213.0410  141.9690 N   0  0  0  0  0  1  0  0  0  0  0  0
  160.6520  213.1430  141.5750 C   0  0  0  0  0  2  0  0  0  0  0  0
  160.8950  208.8510  152.1840 C   0  0  0  0  0  2  0  0  0  0  0  0
  159.9200  210.0220  152.0770 C   0  0  0  0  0  2  0  0  0  0  0  0
  159.9940  210.8020  153.2620 O   0  0  0  0  0  0  0  0  0  0  0  0
  160.0570  212.2010  153.2520 C   0  0  0  0  0  3  0  0  0  0  0  0
  159.6470  212.8720  152.2610 O   0  0  0  0  0  0  0  0  0  0  0  0
  160.3050  203.8740  149.8890 C   0  0  0  0  0  2  0  0  0  0  0  0
  160.0320  202.4920  150.4560 C   0  0  0  0  0  2  0  0  0  0  0  0
  160.8950  201.4460  149.7690 C   0  0  0  0  0  2  0  0  0  0  0  0
  160.8880  201.9800  145.5040 C   0  0  0  0  0  3  0  0  0  0  0  0
  161.6410  202.8570  146.3030 C   0  0  0  0  0  0  0  0  0  0  0  0
  160.1590  200.9380  146.0820 C   0  0  0  0  0  3  0  0  0  0  0  0
  161.6460  202.6730  147.6930 C   0  0  0  0  0  3  0  0  0  0  0  0
  160.9320  201.6210  148.2780 C   0  0  0  0  0  0  0  0  0  0  0  0
  160.1800  200.7590  147.4670 C   0  0  0  0  0  3  0  0  0  0  0  0
  162.3890  203.9050  145.7590 O   0  0  0  0  0  0  0  0  0  0  0  0
  161.6890  205.3660  145.1730 P   0  0  0  0  0  0  0  0  0  0  0  0
  161.4480  205.2710  143.5020 O   0  0  0  0  0  0  0  0  0  0  0  0
  162.5980  206.5320  145.4840 O   0  0  0  0  0  1  0  0  0  0  0  0
  160.1970  205.6030  145.9380 O   0  0  0  0  0  1  0  0  0  0  0  0
  160.4140  207.0710  153.7220 C   0  0  0  0  0  2  0  0  0  0  0  0
  159.7010  208.8520  155.9360 N   0  0  0  0  0  0  0  0  0  0  0  0
  159.6390  210.0730  156.7140 C   0  0  0  0  0  2  0  0  0  0  0  0
  161.0000  210.7350  156.6330 C   0  0  0  0  0  2  0  0  0  0  0  0
  161.9320  208.4260  156.8530 C   0  0  0  0  0  2  0  0  0  0  0  0
  160.7440  208.0810  155.9780 C   0  0  0  0  0  0  0  0  0  0  0  0
  160.8310  206.9470  155.1130 N   0  0  0  0  0  2  0  0  0  0  0  0
  162.0380  209.8530  157.2140 N   0  0  1  0  0  0  0  0  0  0  0  0
  163.5810  211.7770  156.8370 C   0  0  2  0  0  3  0  0  0  0  0  0
  163.4400  210.2690  156.9670 C   0  0  2  0  0  3  0  0  0  0  0  0
  163.6720  210.9030  155.6010 C   0  0  0  0  0  2  0  0  0  0  0  0
  164.9760  212.1760  157.2610 C   0  0  0  0  0  1  0  0  0  0  0  0
  1  6  1  0  0  0  0
  1  3  2  0  0  0  0
  2  1  1  1  0  0  0
  4 33  1  6  0  0  0
  4  5  1  0  0  0  0
  5  6  1  0  0  0  0
  6 47  1  0  0  0  0
  7  4  1  0  0  0  0
  7  2  1  0  0  0  0
  7  5  1  0  0  0  0
  8  2  1  0  0  0  0
  8 11  1  0  0  0  0
  9 10  1  0  0  0  0
 10 11  1  0  0  0  0
 11 28  1  0  0  0  0
 12 13  1  0  0  0  0
 13  9  1  0  0  0  0
 13  8  1  0  0  0  0
 14  9  1  0  0  0  0
 15 16  1  0  0  0  0
 15 14  1  0  0  0  0
 16 18  2  0  0  0  0
 16 17  2  0  0  0  0
 19 16  1  0  0  0  0
 20 21  2  0  0  0  0
 20 19  1  0  0  0  0
 22 20  1  0  0  0  0
 24 22  1  0  0  0  0
 24 23  1  0  0  0  0
 25 24  1  0  0  0  0
 27 26  1  0  0  0  0
 27 25  1  0  0  0  0
 29 28  1  0  0  0  0
 29 30  1  0  0  0  0
 31 30  1  0  0  0  0
 32 31  2  0  0  0  0
 33 34  1  0  0  0  0
 35 34  1  0  0  0  0
 36 38  2  0  0  0  0
 36 37  1  0  0  0  0
 37 39  2  0  0  0  0
 38 41  1  0  0  0  0
 39 40  1  0  0  0  0
 40 35  1  0  0  0  0
 41 40  2  0  0  0  0
 42 37  1  0  0  0  0
 43 45  1  0  0  0  0
 43 42  1  0  0  0  0
 43 46  1  0  0  0  0
 44 43  2  0  0  0  0
 47 53  1  0  0  0  0
 48 52  2  0  0  0  0
 48 49  1  0  0  0  0
 50 49  1  0  0  0  0
 50 54  1  0  0  0  0
 51 54  1  0  0  0  0
 52 51  1  0  0  0  0
 53 52  1  0  0  0  0
 55 56  1  0  0  0  0
 55 58  1  0  0  0  0
 56 54  1  0  0  0  0
 57 55  1  0  0  0  0
 57 56  1  0  0  0  0
M  END
>  <MODEL>
5

>  <REMARK>
 VINA RESULT:      -2.2      2.344      4.426
  Name = 
  23 active torsions:
  status: ('A' for Active; 'I' for Inactive)
    1  A    between atoms: C_2  and  C_9
    2  A    between atoms: C_4  and  C_51
    3  A    between atoms: P_5  and  O_49
    4  A    between atoms: N_10  and  S_11
    5  A    between atoms: N_10  and  C_51
    6  A    between atoms: S_11  and  C_15
    7  A    between atoms: C_12  and  O_49
    8  A    between atoms: C_15  and  C_22
    9  A    between atoms: C_16  and  N_30
   10  A    between atoms: C_16  and  C_32
   11  A    between atoms: C_18  and  C_29
   12  A    between atoms: C_18  and  C_48
   13  A    between atoms: C_20  and  O_38
   14  A    between atoms: C_22  and  O_35
   15  A    between atoms: C_24  and  C_42
   16  A    between atoms: C_24  and  C_54
   17  A    between atoms: C_31  and  N_47
   18  A    between atoms: C_32  and  O_38
   19  A    between atoms: C_33  and  C_54
   20  A    between atoms: O_35  and  C_48
   21  A    between atoms: C_42  and  C_55
   22  A    between atoms: N_46  and  C_53
   23  A    between atoms: C_52  and  C_53
                            x       y       z     vdW  Elec       q    Type
                         _______ _______ _______ _____ _____    ______ ____

>  <TORSDO>
F 23

$$$$
