=
 OpenBabel11052411013D

 37 40  0  0  1  0  0  0  0  0999 V2000
  160.8700  202.7150  150.5120 C   0  0  0  0  0  3  0  0  0  0  0  0
  161.1570  202.6380  146.7860 N   0  0  0  0  0  0  0  0  0  0  0  0
  161.2300  204.5600  148.9000 C   0  0  0  0  0  0  0  0  0  0  0  0
  160.9100  200.9300  148.3460 O   0  0  0  0  0  0  0  0  0  0  0  0
  161.1680  206.1450  152.0340 C   0  0  0  0  0  0  0  0  0  0  0  0
  161.3340  206.9270  149.9160 C   0  0  0  0  0  0  0  0  0  0  0  0
  160.9980  205.0770  151.2670 C   0  0  0  0  0  0  0  0  0  0  0  0
  161.4110  203.8780  146.4740 C   0  0  0  0  0  0  0  0  0  0  0  0
  160.8550  203.6490  151.7000 C   0  0  0  0  0  2  0  0  0  0  0  0
  161.0460  202.1640  148.1310 C   0  0  0  0  0  0  0  0  0  0  0  0
  161.0540  203.1260  149.2410 C   0  0  0  0  0  0  0  0  0  0  0  0
  161.6960  204.9260  147.5210 C   0  0  0  0  0  2  0  0  0  0  0  0
  161.3690  207.3300  151.1830 C   0  0  0  0  0  3  0  0  0  0  0  0
  161.1230  205.4710  149.8800 C   0  0  0  0  0  0  0  0  0  0  0  0
  161.4750  204.2660  145.1340 O   0  0  0  0  0  0  0  0  0  0  0  0
  160.9210  205.4880  144.6690 C   0  0  0  0  0  1  0  0  0  0  0  0
  161.1710  206.1300  153.5020 C   0  0  0  0  0  3  0  0  0  0  0  0
  160.7660  207.1810  154.2120 C   0  0  0  0  0  3  0  0  0  0  0  0
  160.7610  207.1890  155.6100 O   0  0  0  0  0  0  0  0  0  0  0  0
  161.5280  208.1070  156.3770 C   0  0  0  0  0  1  0  0  0  0  0  0
  161.3410  207.8490  148.8240 N   0  0  0  0  0  2  0  0  0  0  0  0
  162.2960  208.9370  148.6980 C   0  0  0  0  0  2  0  0  0  0  0  0
  161.6690  210.2380  149.1740 C   0  0  1  0  0  3  0  0  0  0  0  0
  162.2130  210.5980  150.5440 C   0  0  0  0  0  1  0  0  0  0  0  0
  161.9160  211.3480  148.1990 C   0  0  0  0  0  0  0  0  0  0  0  0
  163.2630  212.0010  148.1250 C   0  0  0  0  0  1  0  0  0  0  0  0
  160.9500  211.7150  147.4160 N   0  0  0  0  0  0  0  0  0  0  0  0
  160.2010  212.8810  145.3810 C   0  0  0  0  0  0  0  0  0  0  0  0
  159.2380  212.0810  145.2440 O   0  0  0  0  0  0  0  0  0  0  0  0
  161.1100  212.7380  146.4710 N   0  0  0  0  0  2  0  0  0  0  0  0
  160.4150  213.9620  144.3770 C   0  0  0  0  0  2  0  0  0  0  0  0
  160.2460  213.1450  140.6800 C   0  0  0  0  0  3  0  0  0  0  0  0
  161.8530  212.5500  142.8920 C   0  0  0  0  0  3  0  0  0  0  0  0
  162.1640  212.0150  141.6380 C   0  0  0  0  0  3  0  0  0  0  0  0
  160.7360  213.3800  143.0430 C   0  0  0  0  0  0  0  0  0  0  0  0
  159.9350  213.6800  141.9340 C   0  0  0  0  0  3  0  0  0  0  0  0
  161.3590  212.3110  140.5320 C   0  0  0  0  0  3  0  0  0  0  0  0
  1  9  1  0  0  0  0
  2 10  1  0  0  0  0
  3 11  1  0  0  0  0
  3 14  2  0  0  0  0
  5 17  1  0  0  0  0
  6 13  2  0  0  0  0
  7  9  1  0  0  0  0
  7  5  2  0  0  0  0
  8  2  2  0  0  0  0
  8 12  1  0  0  0  0
 10  4  2  0  0  0  0
 10 11  1  0  0  0  0
 11  1  2  0  0  0  0
 12  3  1  0  0  0  0
 13  5  1  0  0  0  0
 14  6  1  0  0  0  0
 14  7  1  0  0  0  0
 15  8  1  0  0  0  0
 16 15  1  0  0  0  0
 17 18  2  0  0  0  0
 18 19  1  0  0  0  0
 19 20  1  0  0  0  0
 21  6  1  0  0  0  0
 22 21  1  0  0  0  0
 22 23  1  0  0  0  0
 23 24  1  1  0  0  0
 25 23  1  0  0  0  0
 26 25  1  0  0  0  0
 27 25  2  0  0  0  0
 28 30  1  0  0  0  0
 29 28  2  0  0  0  0
 30 27  1  0  0  0  0
 31 28  1  0  0  0  0
 32 36  1  0  0  0  0
 33 35  1  0  0  0  0
 34 33  2  0  0  0  0
 35 31  1  0  0  0  0
 36 35  2  0  0  0  0
 37 32  2  0  0  0  0
 37 34  1  0  0  0  0
M  END
>  <MODEL>
1

>  <REMARK>
 VINA RESULT:      -9.5      0.000      0.000
  Name = 
  10 active torsions:
  status: ('A' for Active; 'I' for Inactive)
    1  A    between atoms: C_1  and  C_32
    2  A    between atoms: O_4  and  C_21
    3  A    between atoms: O_5  and  C_29
    4  A    between atoms: C_7  and  C_24
    5  A    between atoms: C_7  and  C_25
    6  A    between atoms: N_10  and  C_17
    7  A    between atoms: N_10  and  C_25
    8  A    between atoms: N_12  and  N_33
    9  A    between atoms: C_14  and  C_27
   10  A    between atoms: C_22  and  C_32
                            x       y       z     vdW  Elec       q    Type
                         _______ _______ _______ _____ _____    ______ ____

>  <TORSDO>
F 10

$$$$
=
 OpenBabel11052411013D

 37 40  0  0  1  0  0  0  0  0999 V2000
  160.9510  205.4130  151.0470 C   0  0  0  0  0  3  0  0  0  0  0  0
  161.5280  204.6080  147.4420 N   0  0  0  0  0  0  0  0  0  0  0  0
  161.6450  206.8790  149.1750 C   0  0  0  0  0  0  0  0  0  0  0  0
  160.9660  203.2570  149.2500 O   0  0  0  0  0  0  0  0  0  0  0  0
  161.5080  209.0250  151.9520 C   0  0  0  0  0  0  0  0  0  0  0  0
  161.9310  209.3740  149.7570 C   0  0  0  0  0  0  0  0  0  0  0  0
  161.2820  207.8520  151.3760 C   0  0  0  0  0  0  0  0  0  0  0  0
  161.9440  205.7380  146.9400 C   0  0  0  0  0  0  0  0  0  0  0  0
  160.9450  206.5510  152.0410 C   0  0  0  0  0  2  0  0  0  0  0  0
  161.2560  204.4090  148.8330 C   0  0  0  0  0  0  0  0  0  0  0  0
  161.2820  205.5580  149.7480 C   0  0  0  0  0  0  0  0  0  0  0  0
  162.2590  206.9320  147.8060 C   0  0  0  0  0  2  0  0  0  0  0  0
  161.9080  210.0030  150.9280 C   0  0  0  0  0  3  0  0  0  0  0  0
  161.5620  207.9640  149.9600 C   0  0  0  0  0  0  0  0  0  0  0  0
  162.1600  205.8590  145.5660 O   0  0  0  0  0  0  0  0  0  0  0  0
  161.1770  205.4940  144.6080 C   0  0  0  0  0  1  0  0  0  0  0  0
  161.3900  209.2860  153.3920 C   0  0  0  0  0  3  0  0  0  0  0  0
  161.7920  210.4360  153.9280 C   0  0  0  0  0  3  0  0  0  0  0  0
  161.6900  210.7060  155.2960 O   0  0  0  0  0  0  0  0  0  0  0  0
  162.7890  210.5820  156.1890 C   0  0  0  0  0  1  0  0  0  0  0  0
  162.1290  210.0680  148.5230 N   0  0  0  0  0  2  0  0  0  0  0  0
  162.3820  211.4970  148.4380 C   0  0  0  0  0  2  0  0  0  0  0  0
  161.0740  212.2470  148.2450 C   0  0  1  0  0  3  0  0  0  0  0  0
  161.0530  213.4790  149.1310 C   0  0  0  0  0  1  0  0  0  0  0  0
  160.8720  212.6260  146.8100 C   0  0  0  0  0  0  0  0  0  0  0  0
  159.7200  212.0610  146.0350 C   0  0  0  0  0  1  0  0  0  0  0  0
  161.7010  213.4590  146.2630 N   0  0  0  0  0  0  0  0  0  0  0  0
  162.6300  213.6830  143.9940 C   0  0  0  0  0  0  0  0  0  0  0  0
  163.7130  213.1520  144.3540 O   0  0  0  0  0  0  0  0  0  0  0  0
  161.5690  213.8700  144.9290 N   0  0  0  0  0  2  0  0  0  0  0  0
  162.4680  214.1570  142.5890 C   0  0  0  0  0  2  0  0  0  0  0  0
  161.0190  211.0630  140.9490 C   0  0  0  0  0  3  0  0  0  0  0  0
  160.3370  213.7470  141.3420 C   0  0  0  0  0  3  0  0  0  0  0  0
  159.4670  212.8990  140.6490 C   0  0  0  0  0  3  0  0  0  0  0  0
  161.5500  213.2560  141.8370 C   0  0  0  0  0  0  0  0  0  0  0  0
  161.8890  211.9110  141.6420 C   0  0  0  0  0  3  0  0  0  0  0  0
  159.8100  211.5570  140.4510 C   0  0  0  0  0  3  0  0  0  0  0  0
  1  9  1  0  0  0  0
  2 10  1  0  0  0  0
  3 11  1  0  0  0  0
  3 14  2  0  0  0  0
  5 17  1  0  0  0  0
  6 14  1  0  0  0  0
  6 13  2  0  0  0  0
  7  5  2  0  0  0  0
  7  9  1  0  0  0  0
  8  2  2  0  0  0  0
  8 12  1  0  0  0  0
 10  4  2  0  0  0  0
 10 11  1  0  0  0  0
 11  1  2  0  0  0  0
 12  3  1  0  0  0  0
 13  5  1  0  0  0  0
 14  7  1  0  0  0  0
 15  8  1  0  0  0  0
 16 15  1  0  0  0  0
 17 18  2  0  0  0  0
 18 19  1  0  0  0  0
 19 20  1  0  0  0  0
 21  6  1  0  0  0  0
 22 21  1  0  0  0  0
 23 22  1  0  0  0  0
 23 24  1  1  0  0  0
 25 23  1  0  0  0  0
 26 25  1  0  0  0  0
 27 25  2  0  0  0  0
 28 29  2  0  0  0  0
 28 30  1  0  0  0  0
 30 27  1  0  0  0  0
 31 28  1  0  0  0  0
 32 36  1  0  0  0  0
 33 35  1  0  0  0  0
 34 33  2  0  0  0  0
 35 31  1  0  0  0  0
 36 35  2  0  0  0  0
 37 34  1  0  0  0  0
 37 32  2  0  0  0  0
M  END
>  <MODEL>
2

>  <REMARK>
 VINA RESULT:      -8.8      1.823      2.676
  Name = 
  10 active torsions:
  status: ('A' for Active; 'I' for Inactive)
    1  A    between atoms: C_1  and  C_32
    2  A    between atoms: O_4  and  C_21
    3  A    between atoms: O_5  and  C_29
    4  A    between atoms: C_7  and  C_24
    5  A    between atoms: C_7  and  C_25
    6  A    between atoms: N_10  and  C_17
    7  A    between atoms: N_10  and  C_25
    8  A    between atoms: N_12  and  N_33
    9  A    between atoms: C_14  and  C_27
   10  A    between atoms: C_22  and  C_32
                            x       y       z     vdW  Elec       q    Type
                         _______ _______ _______ _____ _____    ______ ____

>  <TORSDO>
F 10

$$$$
=
 OpenBabel11052411013D

 37 40  0  0  1  0  0  0  0  0999 V2000
  160.9370  201.9350  147.7460 C   0  0  0  0  0  3  0  0  0  0  0  0
  160.9360  202.3790  151.4580 N   0  0  0  0  0  0  0  0  0  0  0  0
  161.1920  203.9870  149.1090 C   0  0  0  0  0  0  0  0  0  0  0  0
  160.6120  200.4950  150.1330 O   0  0  0  0  0  0  0  0  0  0  0  0
  161.4100  205.1170  145.7900 C   0  0  0  0  0  0  0  0  0  0  0  0
  161.6200  206.1600  147.7880 C   0  0  0  0  0  0  0  0  0  0  0  0
  161.3600  204.1410  146.6860 C   0  0  2  0  0  3  0  0  0  0  0  0
  161.0350  203.6700  151.6110 C   0  0  0  0  0  0  0  0  0  0  0  0
  161.0970  202.6850  146.4430 C   0  0  0  0  0  3  0  0  0  0  0  0
  160.8150  201.7370  150.1850 C   0  0  0  0  0  0  0  0  0  0  0  0
  160.9660  202.5280  148.9570 C   0  0  0  0  0  0  0  0  0  0  0  0
  160.9470  204.6240  150.4460 C   0  0  0  0  0  2  0  0  0  0  0  0
  161.5890  206.4050  146.4820 C   0  0  0  0  0  3  0  0  0  0  0  0
  161.4520  204.7150  148.0120 C   0  0  0  0  0  0  0  0  0  0  0  0
  161.1790  204.2170  152.8880 O   0  0  0  0  0  0  0  0  0  0  0  0
  161.6000  205.5570  153.0980 C   0  0  0  0  0  1  0  0  0  0  0  0
  161.2880  204.9300  144.3400 C   0  0  0  0  0  3  0  0  0  0  0  0
  161.6530  205.8780  143.4790 C   0  0  0  0  0  3  0  0  0  0  0  0
  161.5440  205.7210  142.0950 O   0  0  0  0  0  0  0  0  0  0  0  0
  161.9800  206.7100  141.1710 C   0  0  0  0  0  1  0  0  0  0  0  0
  161.9370  207.1730  148.7460 N   0  0  0  0  0  2  0  0  0  0  0  0
  161.3980  208.5220  148.6950 C   0  0  0  0  0  2  0  0  0  0  0  0
  162.2310  209.4490  149.5640 C   0  0  1  0  0  3  0  0  0  0  0  0
  162.1890  210.8570  149.0010 C   0  0  0  0  0  1  0  0  0  0  0  0
  161.7560  209.4340  150.9850 C   0  0  0  0  0  0  0  0  0  0  0  0
  160.8820  208.3210  151.4770 C   0  0  0  0  0  1  0  0  0  0  0  0
  162.1290  210.3910  151.7760 N   0  0  0  0  0  0  0  0  0  0  0  0
  160.7540  211.3740  153.5670 C   0  0  0  0  0  0  0  0  0  0  0  0
  160.2290  212.1830  152.7580 O   0  0  0  0  0  0  0  0  0  0  0  0
  161.7340  210.4380  153.1200 N   0  0  0  0  0  2  0  0  0  0  0  0
  160.3770  211.4170  155.0090 C   0  0  0  0  0  2  0  0  0  0  0  0
  159.9710  207.8090  156.0940 C   0  0  0  0  0  3  0  0  0  0  0  0
  161.8010  209.9030  156.4030 C   0  0  0  0  0  3  0  0  0  0  0  0
  162.0510  208.6620  156.9990 C   0  0  0  0  0  3  0  0  0  0  0  0
  160.6340  210.0990  155.6560 C   0  0  0  0  0  0  0  0  0  0  0  0
  159.7210  209.0490  155.4990 C   0  0  0  0  0  3  0  0  0  0  0  0
  161.1350  207.6150  156.8450 C   0  0  0  0  0  3  0  0  0  0  0  0
  1 11  1  0  0  0  0
  2  8  2  0  0  0  0
  3 12  1  0  0  0  0
  4 10  2  0  0  0  0
  5 13  2  0  0  0  0
  5  7  1  0  0  0  0
  6 14  2  0  0  0  0
  6 21  1  0  0  0  0
  7  9  1  1  0  0  0
  7 14  1  0  0  0  0
  8 15  1  0  0  0  0
  9  1  2  0  0  0  0
 10  2  1  0  0  0  0
 11  3  2  0  0  0  0
 11 10  1  0  0  0  0
 12  8  1  0  0  0  0
 13  6  1  0  0  0  0
 14  3  1  0  0  0  0
 15 16  1  0  0  0  0
 17  5  1  0  0  0  0
 18 17  2  0  0  0  0
 19 18  1  0  0  0  0
 20 19  1  0  0  0  0
 22 21  1  0  0  0  0
 22 23  1  0  0  0  0
 23 24  1  6  0  0  0
 23 25  1  0  0  0  0
 25 26  1  0  0  0  0
 25 27  2  0  0  0  0
 27 30  1  0  0  0  0
 28 31  1  0  0  0  0
 29 28  2  0  0  0  0
 30 28  1  0  0  0  0
 31 35  1  0  0  0  0
 32 37  1  0  0  0  0
 33 34  1  0  0  0  0
 35 33  2  0  0  0  0
 36 35  1  0  0  0  0
 36 32  2  0  0  0  0
 37 34  2  0  0  0  0
M  END
>  <MODEL>
3

>  <REMARK>
 VINA RESULT:      -8.4      3.628      8.517
  Name = 
  10 active torsions:
  status: ('A' for Active; 'I' for Inactive)
    1  A    between atoms: C_1  and  C_32
    2  A    between atoms: O_4  and  C_21
    3  A    between atoms: O_5  and  C_29
    4  A    between atoms: C_7  and  C_24
    5  A    between atoms: C_7  and  C_25
    6  A    between atoms: N_10  and  C_17
    7  A    between atoms: N_10  and  C_25
    8  A    between atoms: N_12  and  N_33
    9  A    between atoms: C_14  and  C_27
   10  A    between atoms: C_22  and  C_32
                            x       y       z     vdW  Elec       q    Type
                         _______ _______ _______ _____ _____    ______ ____

>  <TORSDO>
F 10

$$$$
=
 OpenBabel11052411013D

 37 40  0  0  1  0  0  0  0  0999 V2000
  161.1320  206.0920  152.2280 C   0  0  0  0  0  3  0  0  0  0  0  0
  160.9650  208.9120  154.6760 N   0  0  0  0  0  0  0  0  0  0  0  0
  161.3550  208.5320  151.8690 C   0  0  0  0  0  0  0  0  0  0  0  0
  160.6740  206.6200  154.9460 O   0  0  0  0  0  0  0  0  0  0  0  0
  161.7440  207.1470  148.6660 C   0  0  0  0  0  0  0  0  0  0  0  0
  161.8770  209.2640  149.4530 C   0  0  0  0  0  0  0  0  0  0  0  0
  161.6370  207.0230  149.9820 C   0  0  2  0  0  3  0  0  0  0  0  0
  161.0770  209.9740  153.9260 C   0  0  0  0  0  0  0  0  0  0  0  0
  161.3630  205.7760  150.7680 C   0  0  0  0  0  3  0  0  0  0  0  0
  160.8940  207.5800  154.1600 C   0  0  0  0  0  0  0  0  0  0  0  0
  161.1140  207.3440  152.7270 C   0  0  0  0  0  0  0  0  0  0  0  0
  161.0570  209.8970  152.4200 C   0  0  0  0  0  2  0  0  0  0  0  0
  161.9100  208.5680  148.3210 C   0  0  0  0  0  3  0  0  0  0  0  0
  161.6760  208.3400  150.5810 C   0  0  0  0  0  0  0  0  0  0  0  0
  161.1700  211.2390  154.5100 O   0  0  0  0  0  0  0  0  0  0  0  0
  160.0390  211.9190  155.0350 C   0  0  0  0  0  1  0  0  0  0  0  0
  161.6860  206.0310  147.7130 C   0  0  0  0  0  3  0  0  0  0  0  0
  161.1340  206.1690  146.5090 C   0  0  0  0  0  3  0  0  0  0  0  0
  161.0660  205.1210  145.5870 O   0  0  0  0  0  0  0  0  0  0  0  0
  161.2830  205.3050  144.1940 C   0  0  0  0  0  1  0  0  0  0  0  0
  162.1640  210.6640  149.4960 N   0  0  0  0  0  2  0  0  0  0  0  0
  162.1670  211.5180  148.3200 C   0  0  0  0  0  2  0  0  0  0  0  0
  161.0130  212.5050  148.3890 C   0  0  1  0  0  3  0  0  0  0  0  0
  161.4610  213.7710  149.0950 C   0  0  0  0  0  1  0  0  0  0  0  0
  160.4850  212.8200  147.0240 C   0  0  0  0  0  0  0  0  0  0  0  0
  159.0590  213.2450  146.8450 C   0  0  0  0  0  1  0  0  0  0  0  0
  161.2900  212.7340  146.0100 N   0  0  0  0  0  0  0  0  0  0  0  0
  161.8080  213.1030  143.6320 C   0  0  0  0  0  0  0  0  0  0  0  0
  163.0360  212.9190  143.8420 O   0  0  0  0  0  0  0  0  0  0  0  0
  160.8710  213.0250  144.7040 N   0  0  0  0  0  2  0  0  0  0  0  0
  161.3340  213.4430  142.2600 C   0  0  0  0  0  2  0  0  0  0  0  0
  161.4510  210.1720  140.3500 C   0  0  0  0  0  3  0  0  0  0  0  0
  162.7770  212.6360  140.3800 C   0  0  0  0  0  3  0  0  0  0  0  0
  163.1510  211.6510  139.4590 C   0  0  0  0  0  3  0  0  0  0  0  0
  161.7420  212.3880  141.2890 C   0  0  0  0  0  0  0  0  0  0  0  0
  161.0780  211.1550  141.2710 C   0  0  0  0  0  3  0  0  0  0  0  0
  162.4890  210.4190  139.4450 C   0  0  0  0  0  3  0  0  0  0  0  0
  1 11  1  0  0  0  0
  3 12  1  0  0  0  0
  3 11  2  0  0  0  0
  5  7  1  0  0  0  0
  6 21  1  0  0  0  0
  6 14  2  0  0  0  0
  7 14  1  0  0  0  0
  7  9  1  6  0  0  0
  8 15  1  0  0  0  0
  8  2  2  0  0  0  0
  9  1  2  0  0  0  0
 10  2  1  0  0  0  0
 10  4  2  0  0  0  0
 11 10  1  0  0  0  0
 12  8  1  0  0  0  0
 13  5  2  0  0  0  0
 13  6  1  0  0  0  0
 14  3  1  0  0  0  0
 15 16  1  0  0  0  0
 17  5  1  0  0  0  0
 18 17  2  0  0  0  0
 19 18  1  0  0  0  0
 20 19  1  0  0  0  0
 22 23  1  0  0  0  0
 22 21  1  0  0  0  0
 23 24  1  6  0  0  0
 25 23  1  0  0  0  0
 26 25  1  0  0  0  0
 27 25  2  0  0  0  0
 28 29  2  0  0  0  0
 28 30  1  0  0  0  0
 30 27  1  0  0  0  0
 31 28  1  0  0  0  0
 32 36  1  0  0  0  0
 33 35  1  0  0  0  0
 34 33  2  0  0  0  0
 35 31  1  0  0  0  0
 36 35  2  0  0  0  0
 37 34  1  0  0  0  0
 37 32  2  0  0  0  0
M  END
>  <MODEL>
4

>  <REMARK>
 VINA RESULT:      -8.4      2.392      5.890
  Name = 
  10 active torsions:
  status: ('A' for Active; 'I' for Inactive)
    1  A    between atoms: C_1  and  C_32
    2  A    between atoms: O_4  and  C_21
    3  A    between atoms: O_5  and  C_29
    4  A    between atoms: C_7  and  C_24
    5  A    between atoms: C_7  and  C_25
    6  A    between atoms: N_10  and  C_17
    7  A    between atoms: N_10  and  C_25
    8  A    between atoms: N_12  and  N_33
    9  A    between atoms: C_14  and  C_27
   10  A    between atoms: C_22  and  C_32
                            x       y       z     vdW  Elec       q    Type
                         _______ _______ _______ _____ _____    ______ ____

>  <TORSDO>
F 10

$$$$
=
 OpenBabel11052411013D

 37 40  0  0  1  0  0  0  0  0999 V2000
  161.1890  202.0290  147.7140 C   0  0  0  0  0  3  0  0  0  0  0  0
  160.9610  202.4720  151.4180 N   0  0  0  0  0  0  0  0  0  0  0  0
  160.9970  204.0950  149.0650 C   0  0  0  0  0  0  0  0  0  0  0  0
  161.0520  200.5580  150.0990 O   0  0  0  0  0  0  0  0  0  0  0  0
  161.1240  205.2390  145.7470 C   0  0  0  0  0  0  0  0  0  0  0  0
  161.0540  206.3060  147.7410 C   0  0  0  0  0  0  0  0  0  0  0  0
  161.2260  204.2720  146.6490 C   0  0  2  0  0  3  0  0  0  0  0  0
  160.8060  203.7590  151.5620 C   0  0  0  0  0  0  0  0  0  0  0  0
  161.2540  202.7920  146.4100 C   0  0  0  0  0  3  0  0  0  0  0  0
  161.0130  201.8160  150.1480 C   0  0  0  0  0  0  0  0  0  0  0  0
  161.0580  202.6190  148.9190 C   0  0  0  0  0  0  0  0  0  0  0  0
  160.5830  204.6760  150.3860 C   0  0  0  0  0  2  0  0  0  0  0  0
  161.0280  206.5380  146.4320 C   0  0  0  0  0  3  0  0  0  0  0  0
  161.1550  204.8560  147.9720 C   0  0  0  0  0  0  0  0  0  0  0  0
  160.7940  204.3260  152.8390 O   0  0  0  0  0  0  0  0  0  0  0  0
  161.5390  205.4920  153.1590 C   0  0  0  0  0  1  0  0  0  0  0  0
  161.0950  205.0280  144.2940 C   0  0  0  0  0  3  0  0  0  0  0  0
  161.5830  205.9320  143.4470 C   0  0  0  0  0  3  0  0  0  0  0  0
  161.5650  205.7530  142.0610 O   0  0  0  0  0  0  0  0  0  0  0  0
  162.0830  206.7160  141.1530 C   0  0  0  0  0  1  0  0  0  0  0  0
  161.1350  207.3630  148.7000 N   0  0  0  0  0  2  0  0  0  0  0  0
  162.1450  207.4240  149.7440 C   0  0  0  0  0  2  0  0  0  0  0  0
  162.3820  208.8670  150.1560 C   0  0  1  0  0  3  0  0  0  0  0  0
  161.8350  209.8020  149.0930 C   0  0  0  0  0  1  0  0  0  0  0  0
  161.7600  209.1600  151.4870 C   0  0  0  0  0  0  0  0  0  0  0  0
  160.6580  208.2920  152.0140 C   0  0  0  0  0  1  0  0  0  0  0  0
  162.2060  210.1660  152.1750 N   0  0  0  0  0  0  0  0  0  0  0  0
  160.7010  211.5200  153.5760 C   0  0  0  0  0  0  0  0  0  0  0  0
  160.2920  212.1570  152.5700 O   0  0  0  0  0  0  0  0  0  0  0  0
  161.6820  210.4940  153.4330 N   0  0  0  0  0  2  0  0  0  0  0  0
  160.1850  211.8640  154.9320 C   0  0  0  0  0  2  0  0  0  0  0  0
  156.8640  213.6780  154.7340 C   0  0  0  0  0  3  0  0  0  0  0  0
  157.8180  211.0530  154.8990 C   0  0  0  0  0  3  0  0  0  0  0  0
  156.4410  211.2940  154.8380 C   0  0  0  0  0  3  0  0  0  0  0  0
  158.7190  212.1240  154.8820 C   0  0  0  0  0  0  0  0  0  0  0  0
  158.2400  213.4370  154.7960 C   0  0  0  0  0  3  0  0  0  0  0  0
  155.9640  212.6070  154.7570 C   0  0  0  0  0  3  0  0  0  0  0  0
  1 11  1  0  0  0  0
  2  8  2  0  0  0  0
  3 12  1  0  0  0  0
  4 10  2  0  0  0  0
  5 13  2  0  0  0  0
  5  7  1  0  0  0  0
  6 14  2  0  0  0  0
  6 21  1  0  0  0  0
  7  9  1  6  0  0  0
  7 14  1  0  0  0  0
  8 15  1  0  0  0  0
  9  1  2  0  0  0  0
 10  2  1  0  0  0  0
 11  3  2  0  0  0  0
 11 10  1  0  0  0  0
 12  8  1  0  0  0  0
 13  6  1  0  0  0  0
 14  3  1  0  0  0  0
 15 16  1  0  0  0  0
 17  5  1  0  0  0  0
 18 17  2  0  0  0  0
 19 18  1  0  0  0  0
 20 19  1  0  0  0  0
 21 22  1  0  0  0  0
 22 23  1  0  0  0  0
 23 24  1  6  0  0  0
 23 25  1  0  0  0  0
 25 26  1  0  0  0  0
 25 27  2  0  0  0  0
 27 30  1  0  0  0  0
 28 31  1  0  0  0  0
 29 28  2  0  0  0  0
 30 28  1  0  0  0  0
 32 37  2  0  0  0  0
 32 36  1  0  0  0  0
 34 33  2  0  0  0  0
 35 33  1  0  0  0  0
 35 31  1  0  0  0  0
 36 35  2  0  0  0  0
 37 34  1  0  0  0  0
M  END
>  <MODEL>
5

>  <REMARK>
 VINA RESULT:      -8.2      3.761      8.156
  Name = 
  10 active torsions:
  status: ('A' for Active; 'I' for Inactive)
    1  A    between atoms: C_1  and  C_32
    2  A    between atoms: O_4  and  C_21
    3  A    between atoms: O_5  and  C_29
    4  A    between atoms: C_7  and  C_24
    5  A    between atoms: C_7  and  C_25
    6  A    between atoms: N_10  and  C_17
    7  A    between atoms: N_10  and  C_25
    8  A    between atoms: N_12  and  N_33
    9  A    between atoms: C_14  and  C_27
   10  A    between atoms: C_22  and  C_32
                            x       y       z     vdW  Elec       q    Type
                         _______ _______ _______ _____ _____    ______ ____

>  <TORSDO>
F 10

$$$$
=
 OpenBabel11052411013D

 37 40  0  0  1  0  0  0  0  0999 V2000
  160.9430  204.7440  150.7900 C   0  0  0  0  0  3  0  0  0  0  0  0
  161.4170  204.4090  147.0980 N   0  0  0  0  0  0  0  0  0  0  0  0
  161.5670  206.4440  149.1010 C   0  0  0  0  0  0  0  0  0  0  0  0
  160.9220  202.8330  148.7350 O   0  0  0  0  0  0  0  0  0  0  0  0
  161.4960  208.2190  152.1300 C   0  0  0  0  0  0  0  0  0  0  0  0
  161.8490  208.8480  149.9850 C   0  0  0  0  0  0  0  0  0  0  0  0
  161.2630  207.1260  151.4170 C   0  0  0  0  0  0  0  0  0  0  0  0
  161.8080  205.5990  146.7310 C   0  0  0  0  0  0  0  0  0  0  0  0
  160.9570  205.7480  151.9210 C   0  0  0  0  0  2  0  0  0  0  0  0
  161.1890  204.0330  148.4590 C   0  0  0  0  0  0  0  0  0  0  0  0
  161.2330  205.0560  149.5110 C   0  0  0  0  0  0  0  0  0  0  0  0
  162.1390  206.6770  147.7320 C   0  0  0  0  0  2  0  0  0  0  0  0
  161.8560  209.3240  151.2270 C   0  0  0  0  0  3  0  0  0  0  0  0
  161.4980  207.4200  150.0190 C   0  0  0  0  0  0  0  0  0  0  0  0
  161.9810  205.8950  145.3780 O   0  0  0  0  0  0  0  0  0  0  0  0
  161.2030  205.2810  144.3600 C   0  0  0  0  0  1  0  0  0  0  0  0
  161.4200  208.2940  153.5940 C   0  0  0  0  0  3  0  0  0  0  0  0
  160.8740  209.3400  154.2120 C   0  0  0  0  0  3  0  0  0  0  0  0
  160.7920  209.4330  155.6050 O   0  0  0  0  0  0  0  0  0  0  0  0
  161.3100  208.4360  156.4760 C   0  0  0  0  0  1  0  0  0  0  0  0
  162.0040  209.6960  148.8450 N   0  0  0  0  0  2  0  0  0  0  0  0
  162.6610  210.9910  148.8910 C   0  0  0  0  0  2  0  0  0  0  0  0
  161.8530  212.0140  148.1080 C   0  0  1  0  0  3  0  0  0  0  0  0
  160.8280  211.3050  147.2430 C   0  0  0  0  0  1  0  0  0  0  0  0
  161.1850  212.9930  149.0220 C   0  0  0  0  0  0  0  0  0  0  0  0
  161.1680  214.4530  148.6830 C   0  0  0  0  0  1  0  0  0  0  0  0
  160.6110  212.5500  150.0980 N   0  0  0  0  0  0  0  0  0  0  0  0
  159.1090  212.8870  152.0190 C   0  0  0  0  0  0  0  0  0  0  0  0
  158.9290  211.6460  152.1320 O   0  0  0  0  0  0  0  0  0  0  0  0
  159.9550  213.4050  150.9940 N   0  0  0  0  0  2  0  0  0  0  0  0
  158.4040  213.8250  152.9390 C   0  0  0  0  0  2  0  0  0  0  0  0
  158.1100  212.2300  156.3640 C   0  0  0  0  0  3  0  0  0  0  0  0
  156.5410  212.6010  154.0780 C   0  0  0  0  0  3  0  0  0  0  0  0
  156.0160  211.9230  155.1830 C   0  0  0  0  0  3  0  0  0  0  0  0
  157.8520  213.0900  154.1120 C   0  0  0  0  0  0  0  0  0  0  0  0
  158.6340  212.9070  155.2590 C   0  0  0  0  0  3  0  0  0  0  0  0
  156.8020  211.7370  156.3260 C   0  0  0  0  0  3  0  0  0  0  0  0
  1  9  1  0  0  0  0
  2 10  1  0  0  0  0
  3 11  1  0  0  0  0
  3 14  2  0  0  0  0
  5 17  1  0  0  0  0
  6 14  1  0  0  0  0
  6 13  2  0  0  0  0
  7  9  1  0  0  0  0
  7  5  2  0  0  0  0
  8  2  2  0  0  0  0
  8 12  1  0  0  0  0
 10  4  2  0  0  0  0
 10 11  1  0  0  0  0
 11  1  2  0  0  0  0
 12  3  1  0  0  0  0
 13  5  1  0  0  0  0
 14  7  1  0  0  0  0
 15  8  1  0  0  0  0
 16 15  1  0  0  0  0
 17 18  2  0  0  0  0
 18 19  1  0  0  0  0
 19 20  1  0  0  0  0
 21 22  1  0  0  0  0
 21  6  1  0  0  0  0
 23 24  1  1  0  0  0
 23 22  1  0  0  0  0
 23 25  1  0  0  0  0
 25 27  2  0  0  0  0
 26 25  1  0  0  0  0
 27 30  1  0  0  0  0
 28 29  2  0  0  0  0
 28 31  1  0  0  0  0
 30 28  1  0  0  0  0
 31 35  1  0  0  0  0
 33 35  2  0  0  0  0
 33 34  1  0  0  0  0
 34 37  2  0  0  0  0
 35 36  1  0  0  0  0
 36 32  2  0  0  0  0
 37 32  1  0  0  0  0
M  END
>  <MODEL>
6

>  <REMARK>
 VINA RESULT:      -7.9      3.258      6.411
  Name = 
  10 active torsions:
  status: ('A' for Active; 'I' for Inactive)
    1  A    between atoms: C_1  and  C_32
    2  A    between atoms: O_4  and  C_21
    3  A    between atoms: O_5  and  C_29
    4  A    between atoms: C_7  and  C_24
    5  A    between atoms: C_7  and  C_25
    6  A    between atoms: N_10  and  C_17
    7  A    between atoms: N_10  and  C_25
    8  A    between atoms: N_12  and  N_33
    9  A    between atoms: C_14  and  C_27
   10  A    between atoms: C_22  and  C_32
                            x       y       z     vdW  Elec       q    Type
                         _______ _______ _______ _____ _____    ______ ____

>  <TORSDO>
F 10

$$$$
=
 OpenBabel11052411013D

 37 40  0  0  1  0  0  0  0  0999 V2000
  162.0930  206.9020  147.7610 C   0  0  0  0  0  3  0  0  0  0  0  0
  161.2220  203.3540  148.5510 N   0  0  0  0  0  0  0  0  0  0  0  0
  161.3270  205.8810  149.8840 C   0  0  0  0  0  0  0  0  0  0  0  0
  161.8560  204.3770  146.5610 O   0  0  0  0  0  0  0  0  0  0  0  0
  161.7560  209.2790  150.6620 C   0  0  0  0  0  0  0  0  0  0  0  0
  161.1900  207.4740  151.9050 C   0  0  0  0  0  0  0  0  0  0  0  0
  161.8900  208.2480  149.8390 C   0  0  0  0  0  0  0  0  0  0  0  0
  160.8180  203.4070  149.7900 C   0  0  0  0  0  0  0  0  0  0  0  0
  162.2190  208.2770  148.3760 C   0  0  0  0  0  3  0  0  0  0  0  0
  161.5860  204.5050  147.7840 C   0  0  0  0  0  0  0  0  0  0  0  0
  161.6750  205.8160  148.4410 C   0  0  0  0  0  0  0  0  0  0  0  0
  160.6180  204.7160  150.5120 C   0  0  0  0  0  2  0  0  0  0  0  0
  161.3240  208.7950  151.9840 C   0  0  0  0  0  2  0  0  0  0  0  0
  161.5130  207.0380  150.5380 C   0  0  0  0  0  0  0  0  0  0  0  0
  160.5090  202.2330  150.4790 O   0  0  0  0  0  0  0  0  0  0  0  0
  160.5280  200.9570  149.8550 C   0  0  0  0  0  1  0  0  0  0  0  0
  161.9890  210.6800  150.2930 C   0  0  0  0  0  3  0  0  0  0  0  0
  161.8780  211.0990  149.0340 C   0  0  0  0  0  3  0  0  0  0  0  0
  162.0970  212.4280  148.6600 O   0  0  0  0  0  0  0  0  0  0  0  0
  163.0740  212.8070  147.6990 C   0  0  0  0  0  1  0  0  0  0  0  0
  160.9320  206.6660  153.0550 N   0  0  0  0  0  2  0  0  0  0  0  0
  161.4550  206.9620  154.3790 C   0  0  0  0  0  2  0  0  0  0  0  0
  160.3430  207.4890  155.2720 C   0  0  1  0  0  3  0  0  0  0  0  0
  160.5170  206.9490  156.6800 C   0  0  0  0  0  1  0  0  0  0  0  0
  160.3170  208.9860  155.2810 C   0  0  0  0  0  0  0  0  0  0  0  0
  161.5870  209.7630  155.4560 C   0  0  0  0  0  1  0  0  0  0  0  0
  159.1800  209.5900  155.1200 N   0  0  0  0  0  0  0  0  0  0  0  0
  158.9050  211.7000  153.8810 C   0  0  0  0  0  0  0  0  0  0  0  0
  158.8470  211.0820  152.7860 O   0  0  0  0  0  0  0  0  0  0  0  0
  159.0790  210.9880  155.1050 N   0  0  0  0  0  2  0  0  0  0  0  0
  158.8290  213.1890  153.8970 C   0  0  0  0  0  2  0  0  0  0  0  0
  155.2550  214.2290  153.1820 C   0  0  0  0  0  3  0  0  0  0  0  0
  156.9330  213.8550  155.3900 C   0  0  0  0  0  3  0  0  0  0  0  0
  155.6080  214.2630  155.5790 C   0  0  0  0  0  3  0  0  0  0  0  0
  157.4220  213.6380  154.0960 C   0  0  0  0  0  0  0  0  0  0  0  0
  156.5800  213.8220  152.9930 C   0  0  0  0  0  3  0  0  0  0  0  0
  154.7700  214.4510  154.4750 C   0  0  0  0  0  3  0  0  0  0  0  0
  1  9  2  0  0  0  0
  1 11  1  0  0  0  0
  2  8  2  0  0  0  0
  3 12  1  0  0  0  0
  3 14  1  0  0  0  0
  4 10  2  0  0  0  0
  5 13  1  0  0  0  0
  6 13  1  0  0  0  0
  6 21  1  0  0  0  0
  7 14  1  0  0  0  0
  7  5  2  0  0  0  0
  8 15  1  0  0  0  0
  8 12  1  0  0  0  0
  9  7  1  0  0  0  0
 10 11  1  0  0  0  0
 10  2  1  0  0  0  0
 11  3  2  0  0  0  0
 14  6  2  0  0  0  0
 16 15  1  0  0  0  0
 17  5  1  0  0  0  0
 18 17  2  0  0  0  0
 19 18  1  0  0  0  0
 20 19  1  0  0  0  0
 21 22  1  0  0  0  0
 22 23  1  0  0  0  0
 23 25  1  0  0  0  0
 23 24  1  1  0  0  0
 25 26  1  0  0  0  0
 27 25  2  0  0  0  0
 28 31  1  0  0  0  0
 28 30  1  0  0  0  0
 29 28  2  0  0  0  0
 30 27  1  0  0  0  0
 31 35  1  0  0  0  0
 32 37  1  0  0  0  0
 33 34  1  0  0  0  0
 35 33  2  0  0  0  0
 36 32  2  0  0  0  0
 36 35  1  0  0  0  0
 37 34  2  0  0  0  0
M  END
>  <MODEL>
7

>  <REMARK>
 VINA RESULT:      -7.9      4.164      7.809
  Name = 
  10 active torsions:
  status: ('A' for Active; 'I' for Inactive)
    1  A    between atoms: C_1  and  C_32
    2  A    between atoms: O_4  and  C_21
    3  A    between atoms: O_5  and  C_29
    4  A    between atoms: C_7  and  C_24
    5  A    between atoms: C_7  and  C_25
    6  A    between atoms: N_10  and  C_17
    7  A    between atoms: N_10  and  C_25
    8  A    between atoms: N_12  and  N_33
    9  A    between atoms: C_14  and  C_27
   10  A    between atoms: C_22  and  C_32
                            x       y       z     vdW  Elec       q    Type
                         _______ _______ _______ _____ _____    ______ ____

>  <TORSDO>
F 10

$$$$
=
 OpenBabel11052411013D

 37 40  0  0  1  0  0  0  0  0999 V2000
  159.0110  213.7060  152.4510 C   0  0  0  0  0  3  0  0  0  0  0  0
  158.7290  211.9840  155.7570 N   0  0  0  0  0  0  0  0  0  0  0  0
  160.0690  211.6170  153.2580 C   0  0  0  0  0  0  0  0  0  0  0  0
  157.8320  213.9850  154.9830 O   0  0  0  0  0  0  0  0  0  0  0  0
  161.2520  211.9740  149.9700 C   0  0  0  0  0  0  0  0  0  0  0  0
  161.5240  210.3650  151.5380 C   0  0  0  0  0  0  0  0  0  0  0  0
  160.4510  212.3340  150.9640 C   0  0  2  0  0  3  0  0  0  0  0  0
  159.5500  210.9760  155.6470 C   0  0  0  0  0  0  0  0  0  0  0  0
  159.6410  213.5900  151.0820 C   0  0  0  0  0  3  0  0  0  0  0  0
  158.5630  212.9860  154.7500 C   0  0  0  0  0  0  0  0  0  0  0  0
  159.2160  212.8190  153.4450 C   0  0  0  0  0  0  0  0  0  0  0  0
  160.4730  210.8200  154.4640 C   0  0  0  0  0  2  0  0  0  0  0  0
  161.9280  210.7150  150.3210 C   0  0  0  0  0  3  0  0  0  0  0  0
  160.5810  211.3760  152.0420 C   0  0  0  0  0  0  0  0  0  0  0  0
  159.6330  210.0230  156.6640 O   0  0  0  0  0  0  0  0  0  0  0  0
  160.1080  208.7050  156.4340 C   0  0  0  0  0  1  0  0  0  0  0  0
  161.4370  212.7340  148.7280 C   0  0  0  0  0  3  0  0  0  0  0  0
  162.1240  212.2370  147.7010 C   0  0  0  0  0  3  0  0  0  0  0  0
  162.3140  212.9430  146.5100 O   0  0  0  0  0  0  0  0  0  0  0  0
  161.2570  213.2120  145.5970 C   0  0  0  0  0  1  0  0  0  0  0  0
  161.8690  209.1070  152.1230 N   0  0  0  0  0  2  0  0  0  0  0  0
  160.9120  208.0350  152.3430 C   0  0  0  0  0  2  0  0  0  0  0  0
  161.6180  206.6900  152.3060 C   0  0  1  0  0  3  0  0  0  0  0  0
  161.2110  205.8630  153.5120 C   0  0  0  0  0  1  0  0  0  0  0  0
  161.3190  205.9540  151.0370 C   0  0  0  0  0  0  0  0  0  0  0  0
  161.1550  204.4640  151.0480 C   0  0  0  0  0  1  0  0  0  0  0  0
  161.1890  206.6320  149.9390 N   0  0  0  0  0  0  0  0  0  0  0  0
  161.7200  206.2270  147.5690 C   0  0  0  0  0  0  0  0  0  0  0  0
  162.7240  206.9850  147.6350 O   0  0  0  0  0  0  0  0  0  0  0  0
  160.8980  206.0140  148.7150 N   0  0  0  0  0  2  0  0  0  0  0  0
  161.3660  205.5770  146.2750 C   0  0  0  0  0  2  0  0  0  0  0  0
  161.2220  202.1520  147.8890 C   0  0  0  0  0  3  0  0  0  0  0  0
  160.8190  203.3070  145.3730 C   0  0  0  0  0  3  0  0  0  0  0  0
  160.6460  201.9300  145.5460 C   0  0  0  0  0  3  0  0  0  0  0  0
  161.1970  204.1080  146.4570 C   0  0  0  0  0  0  0  0  0  0  0  0
  161.3960  203.5280  147.7160 C   0  0  0  0  0  3  0  0  0  0  0  0
  160.8490  201.3520  146.8040 C   0  0  0  0  0  3  0  0  0  0  0  0
  1 11  1  0  0  0  0
  3 11  2  0  0  0  0
  3 12  1  0  0  0  0
  5 13  2  0  0  0  0
  5  7  1  0  0  0  0
  6 14  2  0  0  0  0
  6 21  1  0  0  0  0
  7  9  1  1  0  0  0
  7 14  1  0  0  0  0
  8  2  2  0  0  0  0
  8 15  1  0  0  0  0
  9  1  2  0  0  0  0
 10  4  2  0  0  0  0
 10  2  1  0  0  0  0
 11 10  1  0  0  0  0
 12  8  1  0  0  0  0
 13  6  1  0  0  0  0
 14  3  1  0  0  0  0
 16 15  1  0  0  0  0
 17  5  1  0  0  0  0
 18 17  2  0  0  0  0
 19 18  1  0  0  0  0
 20 19  1  0  0  0  0
 21 22  1  0  0  0  0
 23 22  1  0  0  0  0
 23 24  1  1  0  0  0
 25 26  1  0  0  0  0
 25 23  1  0  0  0  0
 27 25  2  0  0  0  0
 28 29  2  0  0  0  0
 28 30  1  0  0  0  0
 30 27  1  0  0  0  0
 31 35  1  0  0  0  0
 31 28  1  0  0  0  0
 33 34  2  0  0  0  0
 33 35  1  0  0  0  0
 34 37  1  0  0  0  0
 35 36  2  0  0  0  0
 36 32  1  0  0  0  0
 37 32  2  0  0  0  0
M  END
>  <MODEL>
8

>  <REMARK>
 VINA RESULT:      -7.6      3.126      9.444
  Name = 
  10 active torsions:
  status: ('A' for Active; 'I' for Inactive)
    1  A    between atoms: C_1  and  C_32
    2  A    between atoms: O_4  and  C_21
    3  A    between atoms: O_5  and  C_29
    4  A    between atoms: C_7  and  C_24
    5  A    between atoms: C_7  and  C_25
    6  A    between atoms: N_10  and  C_17
    7  A    between atoms: N_10  and  C_25
    8  A    between atoms: N_12  and  N_33
    9  A    between atoms: C_14  and  C_27
   10  A    between atoms: C_22  and  C_32
                            x       y       z     vdW  Elec       q    Type
                         _______ _______ _______ _____ _____    ______ ____

>  <TORSDO>
F 10

$$$$
=
 OpenBabel11052411013D

 37 40  0  0  1  0  0  0  0  0999 V2000
  156.7020  213.8100  146.8840 C   0  0  0  0  0  3  0  0  0  0  0  0
  156.7590  213.9800  150.6170 N   0  0  0  0  0  0  0  0  0  0  0  0
  158.5540  213.3890  148.4720 C   0  0  0  0  0  0  0  0  0  0  0  0
  155.0780  214.4520  149.0810 O   0  0  0  0  0  0  0  0  0  0  0  0
  159.9810  212.8360  145.3110 C   0  0  0  0  0  0  0  0  0  0  0  0
  160.7780  212.6210  147.4180 C   0  0  0  0  0  0  0  0  0  0  0  0
  158.9320  213.0590  146.0910 C   0  0  0  0  0  0  0  0  0  0  0  0
  158.0050  213.7340  150.9150 C   0  0  0  0  0  0  0  0  0  0  0  0
  157.5540  213.4830  145.6790 C   0  0  0  0  0  3  0  0  0  0  0  0
  156.2720  214.1020  149.2780 C   0  0  0  0  0  0  0  0  0  0  0  0
  157.1590  213.7820  148.1520 C   0  0  0  0  0  0  0  0  0  0  0  0
  159.0770  213.6350  149.8580 C   0  0  0  0  0  2  0  0  0  0  0  0
  161.1570  212.5430  146.1470 C   0  0  0  0  0  2  0  0  0  0  0  0
  159.3510  212.9770  147.4750 C   0  0  0  0  0  0  0  0  0  0  0  0
  158.3950  213.6010  152.2490 O   0  0  0  0  0  0  0  0  0  0  0  0
  158.0190  212.4860  153.0440 C   0  0  0  0  0  1  0  0  0  0  0  0
  159.9600  212.8940  143.8440 C   0  0  0  0  0  3  0  0  0  0  0  0
  160.4530  211.9060  143.0990 C   0  0  0  0  0  3  0  0  0  0  0  0
  160.4450  211.9410  141.7020 O   0  0  0  0  0  0  0  0  0  0  0  0
  160.8740  210.8470  140.9020 C   0  0  0  0  0  1  0  0  0  0  0  0
  161.6390  212.2410  148.4940 N   0  0  0  0  0  2  0  0  0  0  0  0
  162.2060  210.9110  148.6360 C   0  0  0  0  0  2  0  0  0  0  0  0
  162.2960  210.5360  150.1070 C   0  0  1  0  0  3  0  0  0  0  0  0
  161.1820  211.2190  150.8790 C   0  0  0  0  0  1  0  0  0  0  0  0
  162.2330  209.0510  150.2940 C   0  0  0  0  0  0  0  0  0  0  0  0
  162.0770  208.1470  149.1090 C   0  0  0  0  0  1  0  0  0  0  0  0
  162.3330  208.5700  151.4940 N   0  0  0  0  0  0  0  0  0  0  0  0
  161.3100  206.6280  152.6100 C   0  0  0  0  0  0  0  0  0  0  0  0
  160.4570  207.3650  153.1710 O   0  0  0  0  0  0  0  0  0  0  0  0
  162.2960  207.1920  151.7460 N   0  0  0  0  0  2  0  0  0  0  0  0
  161.3150  205.1620  152.8790 C   0  0  0  0  0  2  0  0  0  0  0  0
  160.7160  204.3560  149.2250 C   0  0  0  0  0  3  0  0  0  0  0  0
  161.2590  203.0030  151.6130 C   0  0  0  0  0  3  0  0  0  0  0  0
  161.1060  202.2860  150.4220 C   0  0  0  0  0  3  0  0  0  0  0  0
  161.1370  204.3980  151.6120 C   0  0  0  0  0  0  0  0  0  0  0  0
  160.8680  205.0730  150.4150 C   0  0  0  0  0  3  0  0  0  0  0  0
  160.8330  202.9620  149.2280 C   0  0  0  0  0  3  0  0  0  0  0  0
  1 11  1  0  0  0  0
  2  8  2  0  0  0  0
  3 12  1  0  0  0  0
  4 10  2  0  0  0  0
  5  7  2  0  0  0  0
  5 13  1  0  0  0  0
  6 14  2  0  0  0  0
  6 21  1  0  0  0  0
  7 14  1  0  0  0  0
  8 15  1  0  0  0  0
  9  7  1  0  0  0  0
  9  1  2  0  0  0  0
 10  2  1  0  0  0  0
 11  3  2  0  0  0  0
 11 10  1  0  0  0  0
 12  8  1  0  0  0  0
 13  6  1  0  0  0  0
 14  3  1  0  0  0  0
 15 16  1  0  0  0  0
 17  5  1  0  0  0  0
 18 17  2  0  0  0  0
 19 18  1  0  0  0  0
 20 19  1  0  0  0  0
 21 22  1  0  0  0  0
 22 23  1  0  0  0  0
 23 25  1  0  0  0  0
 23 24  1  1  0  0  0
 25 27  2  0  0  0  0
 26 25  1  0  0  0  0
 27 30  1  0  0  0  0
 28 31  1  0  0  0  0
 28 29  2  0  0  0  0
 30 28  1  0  0  0  0
 32 37  2  0  0  0  0
 32 36  1  0  0  0  0
 34 33  2  0  0  0  0
 35 33  1  0  0  0  0
 35 31  1  0  0  0  0
 36 35  2  0  0  0  0
 37 34  1  0  0  0  0
M  END
>  <MODEL>
9

>  <REMARK>
 VINA RESULT:      -7.5      3.067     10.489
  Name = 
  10 active torsions:
  status: ('A' for Active; 'I' for Inactive)
    1  A    between atoms: C_1  and  C_32
    2  A    between atoms: O_4  and  C_21
    3  A    between atoms: O_5  and  C_29
    4  A    between atoms: C_7  and  C_24
    5  A    between atoms: C_7  and  C_25
    6  A    between atoms: N_10  and  C_17
    7  A    between atoms: N_10  and  C_25
    8  A    between atoms: N_12  and  N_33
    9  A    between atoms: C_14  and  C_27
   10  A    between atoms: C_22  and  C_32
                            x       y       z     vdW  Elec       q    Type
                         _______ _______ _______ _____ _____    ______ ____

>  <TORSDO>
F 10

$$$$
