=
 OpenBabel11042423103D

 29 32  0  0  1  0  0  0  0  0999 V2000
  162.3350  208.2440  149.0840 C   0  0  0  0  0  3  0  0  0  0  0  0
  161.9290  210.6270  148.9160 C   0  0  0  0  0  0  0  0  0  0  0  0
  162.2250  209.7160  152.8670 S   0  0  0  0  0  0  0  0  0  0  0  0
  161.8880  210.7190  150.3110 C   0  0  0  0  0  3  0  0  0  0  0  0
  162.1710  209.3930  148.3030 C   0  0  0  0  0  3  0  0  0  0  0  0
  161.6230  207.0610  152.5440 C   0  0  2  0  0  3  0  0  0  0  0  0
  161.3450  208.1840  153.2360 C   0  0  1  0  0  3  0  0  0  0  0  0
  162.2730  208.3290  150.4770 C   0  0  0  0  0  0  0  0  0  0  0  0
  162.0640  209.5720  151.0900 C   0  0  0  0  0  0  0  0  0  0  0  0
  162.2610  207.1310  151.2600 N   0  0  0  0  0  2  0  0  0  0  0  0
  161.7490  211.8030  148.1140 C   0  0  0  0  0  0  0  0  0  0  0  0
  161.6020  212.7520  147.4660 N   0  0  0  0  0  0  0  0  0  0  0  0
  160.4450  208.1560  154.4340 C   0  0  2  0  0  3  0  0  0  0  0  0
  159.8080  209.3750  154.5780 F   0  0  0  0  0  0  0  0  0  0  0  0
  161.2400  207.8230  155.6880 C   0  0  0  0  0  2  0  0  0  0  0  0
  161.3000  209.0190  156.6220 C   0  0  0  0  0  2  0  0  0  0  0  0
  162.7190  210.7050  156.5030 C   0  0  0  0  0  1  0  0  0  0  0  0
  162.6290  209.3650  156.8750 O   0  0  0  0  0  0  0  0  0  0  0  0
  161.1100  205.7260  152.9930 C   0  0  0  0  0  2  0  0  0  0  0  0
  161.2320  205.2170  150.5410 C   0  0  0  0  0  3  0  0  0  0  0  0
  161.0340  202.0780  148.3290 S   0  0  0  0  0  0  0  0  0  0  0  0
  161.2450  203.4930  147.4230 C   0  0  0  0  0  0  0  0  0  0  0  0
  161.3400  203.5210  146.0040 N   0  0  0  0  0  1  0  0  0  0  0  0
  161.2000  204.2890  149.5010 C   0  0  0  0  0  0  0  0  0  0  0  0
  161.0370  202.9380  149.7700 C   0  0  0  0  0  0  0  0  0  0  0  0
  160.9380  203.3780  152.1220 C   0  0  0  0  0  3  0  0  0  0  0  0
  161.3180  204.6080  148.1870 N   0  0  0  0  0  0  0  0  0  0  0  0
  160.9050  202.4510  151.0680 C   0  0  0  0  0  3  0  0  0  0  0  0
  161.1040  204.7540  151.8620 C   0  0  0  0  0  0  0  0  0  0  0  0
  1  8  1  0  0  0  0
  2  4  2  0  0  0  0
  3  7  1  0  0  0  0
  4  9  1  0  0  0  0
  5  2  1  0  0  0  0
  5  1  2  0  0  0  0
  6 19  1  6  0  0  0
  6  7  1  0  0  0  0
  7 13  1  1  0  0  0
  8  9  2  0  0  0  0
  8 10  1  0  0  0  0
  9  3  1  0  0  0  0
 10  6  1  0  0  0  0
 11  2  1  0  0  0  0
 12 11  3  0  0  0  0
 13 14  1  1  0  0  0
 13 15  1  0  0  0  0
 15 16  1  0  0  0  0
 16 18  1  0  0  0  0
 17 18  1  0  0  0  0
 20 29  1  0  0  0  0
 21 25  1  0  0  0  0
 22 27  2  0  0  0  0
 22 21  1  0  0  0  0
 23 22  1  0  0  0  0
 24 25  1  0  0  0  0
 24 20  2  0  0  0  0
 25 28  2  0  0  0  0
 27 24  1  0  0  0  0
 28 26  1  0  0  0  0
 29 26  2  0  0  0  0
 29 19  1  0  0  0  0
M  END
>  <MODEL>
1

>  <REMARK>
 VINA RESULT:      -8.0      0.000      0.000
  Name = 
  7 active torsions:
  status: ('A' for Active; 'I' for Inactive)
    1  A    between atoms: C_2  and  C_5
    2  A    between atoms: C_7  and  C_21
    3  A    between atoms: C_7  and  O_28
    4  A    between atoms: C_12  and  C_16
    5  A    between atoms: C_12  and  C_29
    6  A    between atoms: C_13  and  C_18
    7  A    between atoms: C_13  and  C_21
                            x       y       z     vdW  Elec       q    Type
                         _______ _______ _______ _____ _____    ______ ____

>  <TORSDO>
F 7

$$$$
=
 OpenBabel11042423103D

 29 32  0  0  1  0  0  0  0  0999 V2000
  161.4650  207.0300  147.2190 C   0  0  0  0  0  3  0  0  0  0  0  0
  161.2720  204.6210  147.0320 C   0  0  0  0  0  0  0  0  0  0  0  0
  160.4630  205.6120  150.8900 S   0  0  0  0  0  0  0  0  0  0  0  0
  161.0190  204.5340  148.4040 C   0  0  0  0  0  3  0  0  0  0  0  0
  161.4770  205.8710  146.4360 C   0  0  0  0  0  3  0  0  0  0  0  0
  161.7740  208.0170  150.7980 C   0  0  2  0  0  3  0  0  0  0  0  0
  161.6160  206.8670  151.4830 C   0  0  1  0  0  3  0  0  0  0  0  0
  161.2330  206.9430  148.5950 C   0  0  0  0  0  0  0  0  0  0  0  0
  160.9940  205.6940  149.1840 C   0  0  0  0  0  0  0  0  0  0  0  0
  161.3990  208.1040  149.4150 N   0  0  0  0  0  2  0  0  0  0  0  0
  161.2970  203.4320  146.2290 C   0  0  0  0  0  0  0  0  0  0  0  0
  161.3170  202.4720  145.5810 N   0  0  0  0  0  0  0  0  0  0  0  0
  162.2450  206.6710  152.8290 C   0  0  2  0  0  3  0  0  0  0  0  0
  163.3440  205.8380  152.7230 F   0  0  0  0  0  0  0  0  0  0  0  0
  161.2340  206.0920  153.8080 C   0  0  0  0  0  2  0  0  0  0  0  0
  160.4750  207.2000  154.5180 C   0  0  0  0  0  2  0  0  0  0  0  0
  160.1390  207.0810  156.6960 C   0  0  0  0  0  1  0  0  0  0  0  0
  161.0760  207.4840  155.7460 O   0  0  0  0  0  0  0  0  0  0  0  0
  162.5150  209.1780  151.3920 C   0  0  0  0  0  2  0  0  0  0  0  0
  160.3600  210.2310  152.1230 C   0  0  0  0  0  3  0  0  0  0  0  0
  159.0420  211.9850  155.2810 S   0  0  0  0  0  0  0  0  0  0  0  0
  157.8800  211.9090  154.0520 C   0  0  0  0  0  0  0  0  0  0  0  0
  156.5630  212.4330  154.1710 N   0  0  0  0  0  1  0  0  0  0  0  0
  159.6130  210.8930  153.0960 C   0  0  0  0  0  0  0  0  0  0  0  0
  160.1740  211.1880  154.3310 C   0  0  0  0  0  0  0  0  0  0  0  0
  162.2410  210.1720  153.6810 C   0  0  0  0  0  3  0  0  0  0  0  0
  158.3270  211.2940  152.9330 N   0  0  0  0  0  0  0  0  0  0  0  0
  161.4820  210.8390  154.6540 C   0  0  0  0  0  3  0  0  0  0  0  0
  161.6850  209.8650  152.4230 C   0  0  0  0  0  0  0  0  0  0  0  0
  1  8  1  0  0  0  0
  2  4  2  0  0  0  0
  3  7  1  0  0  0  0
  4  9  1  0  0  0  0
  5  2  1  0  0  0  0
  5  1  2  0  0  0  0
  6 19  1  6  0  0  0
  6  7  1  0  0  0  0
  7 13  1  1  0  0  0
  8  9  2  0  0  0  0
  8 10  1  0  0  0  0
  9  3  1  0  0  0  0
 10  6  1  0  0  0  0
 11  2  1  0  0  0  0
 12 11  3  0  0  0  0
 13 14  1  6  0  0  0
 13 15  1  0  0  0  0
 15 16  1  0  0  0  0
 16 18  1  0  0  0  0
 18 17  1  0  0  0  0
 19 29  1  0  0  0  0
 20 29  2  0  0  0  0
 20 24  1  0  0  0  0
 22 23  1  0  0  0  0
 22 21  1  0  0  0  0
 24 25  2  0  0  0  0
 25 28  1  0  0  0  0
 25 21  1  0  0  0  0
 26 28  2  0  0  0  0
 27 24  1  0  0  0  0
 27 22  2  0  0  0  0
 29 26  1  0  0  0  0
M  END
>  <MODEL>
2

>  <REMARK>
 VINA RESULT:      -7.7      3.066      6.712
  Name = 
  7 active torsions:
  status: ('A' for Active; 'I' for Inactive)
    1  A    between atoms: C_2  and  C_5
    2  A    between atoms: C_7  and  C_21
    3  A    between atoms: C_7  and  O_28
    4  A    between atoms: C_12  and  C_16
    5  A    between atoms: C_12  and  C_29
    6  A    between atoms: C_13  and  C_18
    7  A    between atoms: C_13  and  C_21
                            x       y       z     vdW  Elec       q    Type
                         _______ _______ _______ _____ _____    ______ ____

>  <TORSDO>
F 7

$$$$
=
 OpenBabel11042423103D

 29 32  0  0  1  0  0  0  0  0999 V2000
  160.8250  208.4780  156.1410 C   0  0  0  0  0  3  0  0  0  0  0  0
  160.3150  210.8460  156.0490 C   0  0  0  0  0  0  0  0  0  0  0  0
  160.1830  209.4200  152.2440 S   0  0  0  0  0  0  0  0  0  0  0  0
  160.2480  210.7770  154.6540 C   0  0  0  0  0  3  0  0  0  0  0  0
  160.5850  209.6930  156.7940 C   0  0  0  0  0  3  0  0  0  0  0  0
  161.7520  207.2320  152.7550 C   0  0  2  0  0  3  0  0  0  0  0  0
  161.5530  208.2860  151.9390 C   0  0  1  0  0  3  0  0  0  0  0  0
  160.7800  208.4120  154.7460 C   0  0  0  0  0  0  0  0  0  0  0  0
  160.4760  209.5610  154.0040 C   0  0  0  0  0  0  0  0  0  0  0  0
  161.2000  207.2170  154.0810 N   0  0  0  0  0  2  0  0  0  0  0  0
  160.0820  212.0930  156.7180 C   0  0  0  0  0  0  0  0  0  0  0  0
  159.8940  213.1000  157.2590 N   0  0  0  0  0  0  0  0  0  0  0  0
  162.3360  208.4460  150.6710 C   0  0  2  0  0  3  0  0  0  0  0  0
  162.6910  209.7720  150.4970 F   0  0  0  0  0  0  0  0  0  0  0  0
  161.5260  207.9540  149.4810 C   0  0  0  0  0  2  0  0  0  0  0  0
  162.3440  208.0310  148.2030 C   0  0  0  0  0  2  0  0  0  0  0  0
  161.0310  206.5870  147.1730 C   0  0  0  0  0  1  0  0  0  0  0  0
  162.3530  206.7900  147.5630 O   0  0  0  0  0  0  0  0  0  0  0  0
  162.7060  206.1350  152.3870 C   0  0  0  0  0  2  0  0  0  0  0  0
  162.1010  204.7600  150.3780 C   0  0  0  0  0  3  0  0  0  0  0  0
  159.8650  201.7180  149.6490 S   0  0  0  0  0  0  0  0  0  0  0  0
  160.6390  202.2980  148.2590 C   0  0  0  0  0  0  0  0  0  0  0  0
  160.4820  201.7260  146.9660 N   0  0  0  0  0  1  0  0  0  0  0  0
  161.3940  203.6990  149.8140 C   0  0  0  0  0  0  0  0  0  0  0  0
  160.5820  202.8970  150.6040 C   0  0  0  0  0  0  0  0  0  0  0  0
  161.1510  204.1700  152.5500 C   0  0  0  0  0  3  0  0  0  0  0  0
  161.4310  203.3690  148.4990 N   0  0  0  0  0  0  0  0  0  0  0  0
  160.4420  203.1050  151.9730 C   0  0  0  0  0  3  0  0  0  0  0  0
  161.9800  204.9920  151.7600 C   0  0  0  0  0  0  0  0  0  0  0  0
  1  5  1  0  0  0  0
  2 11  1  0  0  0  0
  2  5  2  0  0  0  0
  3  9  1  0  0  0  0
  4  2  1  0  0  0  0
  6 19  1  1  0  0  0
  6 10  1  0  0  0  0
  7 13  1  6  0  0  0
  7  3  1  0  0  0  0
  7  6  1  0  0  0  0
  8  1  2  0  0  0  0
  9  4  2  0  0  0  0
  9  8  1  0  0  0  0
 10  8  1  0  0  0  0
 11 12  3  0  0  0  0
 13 14  1  6  0  0  0
 15 13  1  0  0  0  0
 16 15  1  0  0  0  0
 17 18  1  0  0  0  0
 18 16  1  0  0  0  0
 20 29  1  0  0  0  0
 21 25  1  0  0  0  0
 22 27  2  0  0  0  0
 22 21  1  0  0  0  0
 23 22  1  0  0  0  0
 24 20  2  0  0  0  0
 24 25  1  0  0  0  0
 25 28  2  0  0  0  0
 27 24  1  0  0  0  0
 28 26  1  0  0  0  0
 29 19  1  0  0  0  0
 29 26  2  0  0  0  0
M  END
>  <MODEL>
3

>  <REMARK>
 VINA RESULT:      -7.4      3.030      5.254
  Name = 
  7 active torsions:
  status: ('A' for Active; 'I' for Inactive)
    1  A    between atoms: C_2  and  C_5
    2  A    between atoms: C_7  and  C_21
    3  A    between atoms: C_7  and  O_28
    4  A    between atoms: C_12  and  C_16
    5  A    between atoms: C_12  and  C_29
    6  A    between atoms: C_13  and  C_18
    7  A    between atoms: C_13  and  C_21
                            x       y       z     vdW  Elec       q    Type
                         _______ _______ _______ _____ _____    ______ ____

>  <TORSDO>
F 7

$$$$
=
 OpenBabel11042423103D

 29 32  0  0  1  0  0  0  0  0999 V2000
  161.9400  211.8670  147.8920 C   0  0  0  0  0  3  0  0  0  0  0  0
  160.0400  213.2260  147.2480 C   0  0  0  0  0  0  0  0  0  0  0  0
  160.0810  213.0350  151.3080 S   0  0  0  0  0  0  0  0  0  0  0  0
  159.6670  213.3420  148.5910 C   0  0  0  0  0  3  0  0  0  0  0  0
  161.1860  212.5040  146.9000 C   0  0  0  0  0  3  0  0  0  0  0  0
  161.5710  210.7370  151.4230 C   0  0  2  0  0  3  0  0  0  0  0  0
  160.4600  211.3610  151.8650 C   0  0  1  0  0  3  0  0  0  0  0  0
  161.5570  211.9630  149.2330 C   0  0  0  0  0  0  0  0  0  0  0  0
  160.4270  212.7160  149.5820 C   0  0  0  0  0  0  0  0  0  0  0  0
  162.2220  211.1670  150.2180 N   0  0  0  0  0  2  0  0  0  0  0  0
  159.2610  213.8690  146.2280 C   0  0  0  0  0  0  0  0  0  0  0  0
  158.6320  214.3880  145.4050 N   0  0  0  0  0  0  0  0  0  0  0  0
  159.6160  210.7670  152.9510 C   0  0  2  0  0  3  0  0  0  0  0  0
  158.2840  211.0760  152.7400 F   0  0  0  0  0  0  0  0  0  0  0  0
  160.0680  211.2750  154.3130 C   0  0  0  0  0  2  0  0  0  0  0  0
  159.9200  210.1940  155.3680 C   0  0  0  0  0  2  0  0  0  0  0  0
  161.2050  208.4040  155.5020 C   0  0  0  0  0  1  0  0  0  0  0  0
  160.1240  208.9350  154.7990 O   0  0  0  0  0  0  0  0  0  0  0  0
  162.0520  209.4660  152.0580 C   0  0  0  0  0  2  0  0  0  0  0  0
  162.2300  208.3630  149.8130 C   0  0  0  0  0  3  0  0  0  0  0  0
  161.1590  205.0140  148.2560 S   0  0  0  0  0  0  0  0  0  0  0  0
  161.9450  206.0210  147.1440 C   0  0  0  0  0  0  0  0  0  0  0  0
  162.1840  205.6700  145.7870 N   0  0  0  0  0  1  0  0  0  0  0  0
  161.9760  207.2710  148.9850 C   0  0  0  0  0  0  0  0  0  0  0  0
  161.3220  206.1520  149.4800 C   0  0  0  0  0  0  0  0  0  0  0  0
  161.1510  207.1600  151.6450 C   0  0  0  0  0  3  0  0  0  0  0  0
  162.3290  207.2040  147.6760 N   0  0  0  0  0  0  0  0  0  0  0  0
  160.8990  206.0650  150.8030 C   0  0  0  0  0  3  0  0  0  0  0  0
  161.8160  208.3020  151.1550 C   0  0  0  0  0  0  0  0  0  0  0  0
  1  8  1  0  0  0  0
  2  4  2  0  0  0  0
  3  7  1  0  0  0  0
  4  9  1  0  0  0  0
  5  2  1  0  0  0  0
  5  1  2  0  0  0  0
  6  7  1  0  0  0  0
  6 19  1  6  0  0  0
  7 13  1  1  0  0  0
  8  9  2  0  0  0  0
  8 10  1  0  0  0  0
  9  3  1  0  0  0  0
 10  6  1  0  0  0  0
 11  2  1  0  0  0  0
 12 11  3  0  0  0  0
 13 14  1  6  0  0  0
 13 15  1  0  0  0  0
 15 16  1  0  0  0  0
 18 16  1  0  0  0  0
 18 17  1  0  0  0  0
 20 29  1  0  0  0  0
 21 25  1  0  0  0  0
 22 27  2  0  0  0  0
 22 21  1  0  0  0  0
 23 22  1  0  0  0  0
 24 25  1  0  0  0  0
 24 20  2  0  0  0  0
 25 28  2  0  0  0  0
 27 24  1  0  0  0  0
 28 26  1  0  0  0  0
 29 26  2  0  0  0  0
 29 19  1  0  0  0  0
M  END
>  <MODEL>
4

>  <REMARK>
 VINA RESULT:      -7.0      2.391      3.491
  Name = 
  7 active torsions:
  status: ('A' for Active; 'I' for Inactive)
    1  A    between atoms: C_2  and  C_5
    2  A    between atoms: C_7  and  C_21
    3  A    between atoms: C_7  and  O_28
    4  A    between atoms: C_12  and  C_16
    5  A    between atoms: C_12  and  C_29
    6  A    between atoms: C_13  and  C_18
    7  A    between atoms: C_13  and  C_21
                            x       y       z     vdW  Elec       q    Type
                         _______ _______ _______ _____ _____    ______ ____

>  <TORSDO>
F 7

$$$$
=
 OpenBabel11042423103D

 29 32  0  0  1  0  0  0  0  0999 V2000
  161.1380  206.3010  152.7650 C   0  0  0  0  0  3  0  0  0  0  0  0
  161.2080  207.7910  154.6750 C   0  0  0  0  0  0  0  0  0  0  0  0
  160.6670  210.0820  151.3610 S   0  0  0  0  0  0  0  0  0  0  0  0
  161.1010  208.8930  153.8200 C   0  0  0  0  0  3  0  0  0  0  0  0
  161.2080  206.4950  154.1490 C   0  0  0  0  0  3  0  0  0  0  0  0
  161.6750  208.2220  149.6190 C   0  0  2  0  0  3  0  0  0  0  0  0
  161.7190  209.5110  150.0110 C   0  0  1  0  0  3  0  0  0  0  0  0
  161.0520  207.4020  151.9080 C   0  0  0  0  0  0  0  0  0  0  0  0
  161.0180  208.6980  152.4390 C   0  0  0  0  0  0  0  0  0  0  0  0
  161.1610  207.2070  150.4940 N   0  0  0  0  0  2  0  0  0  0  0  0
  161.2940  207.9890  156.0940 C   0  0  0  0  0  0  0  0  0  0  0  0
  161.3630  208.1490  157.2390 N   0  0  0  0  0  0  0  0  0  0  0  0
  162.4930  210.5330  149.2360 C   0  0  2  0  0  3  0  0  0  0  0  0
  163.0920  211.4320  150.1010 F   0  0  0  0  0  0  0  0  0  0  0  0
  161.5810  211.2640  148.2610 C   0  0  0  0  0  2  0  0  0  0  0  0
  161.5590  212.7530  148.5560 C   0  0  0  0  0  2  0  0  0  0  0  0
  162.2000  213.1980  146.4910 C   0  0  0  0  0  1  0  0  0  0  0  0
  162.5540  213.4040  147.8230 O   0  0  0  0  0  0  0  0  0  0  0  0
  162.3300  207.7760  148.3460 C   0  0  0  0  0  2  0  0  0  0  0  0
  161.4930  205.5250  149.0670 C   0  0  0  0  0  3  0  0  0  0  0  0
  160.9900  202.0800  147.4330 S   0  0  0  0  0  0  0  0  0  0  0  0
  160.5470  202.0900  149.0670 C   0  0  0  0  0  0  0  0  0  0  0  0
  160.0440  200.9550  149.7610 N   0  0  0  0  0  1  0  0  0  0  0  0
  161.2060  204.1940  148.7660 C   0  0  0  0  0  0  0  0  0  0  0  0
  161.4200  203.7020  147.4860 C   0  0  0  0  0  0  0  0  0  0  0  0
  162.2050  205.8410  146.7510 C   0  0  0  0  0  3  0  0  0  0  0  0
  160.7160  203.2960  149.6580 N   0  0  0  0  0  0  0  0  0  0  0  0
  161.9150  204.4990  146.4580 C   0  0  0  0  0  3  0  0  0  0  0  0
  161.9920  206.3550  148.0470 C   0  0  0  0  0  0  0  0  0  0  0  0
  1  5  1  0  0  0  0
  2 11  1  0  0  0  0
  3  9  1  0  0  0  0
  4  2  1  0  0  0  0
  5  2  2  0  0  0  0
  6 19  1  1  0  0  0
  6  7  1  0  0  0  0
  6 10  1  0  0  0  0
  7 13  1  6  0  0  0
  7  3  1  0  0  0  0
  8  9  1  0  0  0  0
  8  1  2  0  0  0  0
  9  4  2  0  0  0  0
 10  8  1  0  0  0  0
 11 12  3  0  0  0  0
 13 14  1  1  0  0  0
 15 16  1  0  0  0  0
 15 13  1  0  0  0  0
 17 18  1  0  0  0  0
 18 16  1  0  0  0  0
 21 25  1  0  0  0  0
 21 22  1  0  0  0  0
 22 27  2  0  0  0  0
 22 23  1  0  0  0  0
 24 20  1  0  0  0  0
 24 27  1  0  0  0  0
 25 24  2  0  0  0  0
 26 29  1  0  0  0  0
 28 26  2  0  0  0  0
 28 25  1  0  0  0  0
 29 19  1  0  0  0  0
 29 20  2  0  0  0  0
M  END
>  <MODEL>
5

>  <REMARK>
 VINA RESULT:      -6.7      2.886      5.648
  Name = 
  7 active torsions:
  status: ('A' for Active; 'I' for Inactive)
    1  A    between atoms: C_2  and  C_5
    2  A    between atoms: C_7  and  C_21
    3  A    between atoms: C_7  and  O_28
    4  A    between atoms: C_12  and  C_16
    5  A    between atoms: C_12  and  C_29
    6  A    between atoms: C_13  and  C_18
    7  A    between atoms: C_13  and  C_21
                            x       y       z     vdW  Elec       q    Type
                         _______ _______ _______ _____ _____    ______ ____

>  <TORSDO>
F 7

$$$$
=
 OpenBabel11042423103D

 29 32  0  0  1  0  0  0  0  0999 V2000
  159.9840  213.3950  149.8670 C   0  0  0  0  0  3  0  0  0  0  0  0
  157.8070  213.8090  148.8850 C   0  0  0  0  0  0  0  0  0  0  0  0
  157.3200  213.6810  152.9190 S   0  0  0  0  0  0  0  0  0  0  0  0
  157.2250  213.7640  150.1560 C   0  0  0  0  0  3  0  0  0  0  0  0
  159.1880  213.6430  148.7420 C   0  0  0  0  0  3  0  0  0  0  0  0
  159.6040  212.2400  153.3880 C   0  0  2  0  0  3  0  0  0  0  0  0
  158.2820  212.3330  153.6350 C   0  0  1  0  0  3  0  0  0  0  0  0
  159.4010  213.3280  151.1350 C   0  0  0  0  0  0  0  0  0  0  0  0
  158.0210  213.5290  151.2800 C   0  0  0  0  0  0  0  0  0  0  0  0
  160.1850  212.8990  152.2520 N   0  0  0  0  0  2  0  0  0  0  0  0
  156.9910  214.0510  147.7300 C   0  0  0  0  0  0  0  0  0  0  0  0
  156.3320  214.2450  146.7970 N   0  0  0  0  0  0  0  0  0  0  0  0
  157.6160  211.4430  154.6400 C   0  0  2  0  0  3  0  0  0  0  0  0
  156.4350  210.9430  154.1220 F   0  0  0  0  0  0  0  0  0  0  0  0
  157.3470  212.2060  155.9300 C   0  0  0  0  0  2  0  0  0  0  0  0
  155.9900  211.8360  156.5020 C   0  0  0  0  0  2  0  0  0  0  0  0
  155.2730  213.9000  156.1930 C   0  0  0  0  0  1  0  0  0  0  0  0
  155.4390  212.9270  157.1770 O   0  0  0  0  0  0  0  0  0  0  0  0
  160.4760  211.3010  154.1670 C   0  0  0  0  0  2  0  0  0  0  0  0
  161.2450  210.2030  152.0480 C   0  0  0  0  0  3  0  0  0  0  0  0
  161.6800  206.6030  150.7680 S   0  0  0  0  0  0  0  0  0  0  0  0
  162.1030  207.7570  149.6040 C   0  0  0  0  0  0  0  0  0  0  0  0
  162.5670  207.4360  148.2980 N   0  0  0  0  0  1  0  0  0  0  0  0
  161.5010  209.0440  151.3170 C   0  0  0  0  0  0  0  0  0  0  0  0
  161.2920  207.7950  151.8840 C   0  0  0  0  0  0  0  0  0  0  0  0
  160.5720  208.8030  153.9330 C   0  0  0  0  0  3  0  0  0  0  0  0
  161.9560  209.0310  150.0390 N   0  0  0  0  0  0  0  0  0  0  0  0
  160.8310  207.6420  153.1890 C   0  0  0  0  0  3  0  0  0  0  0  0
  160.7810  210.0780  153.3700 C   0  0  0  0  0  0  0  0  0  0  0  0
  1  8  1  0  0  0  0
  2  4  2  0  0  0  0
  3  7  1  0  0  0  0
  4  9  1  0  0  0  0
  5  2  1  0  0  0  0
  5  1  2  0  0  0  0
  6  7  1  0  0  0  0
  6 19  1  6  0  0  0
  7 13  1  1  0  0  0
  8  9  2  0  0  0  0
  8 10  1  0  0  0  0
  9  3  1  0  0  0  0
 10  6  1  0  0  0  0
 11  2  1  0  0  0  0
 12 11  3  0  0  0  0
 13 14  1  6  0  0  0
 13 15  1  0  0  0  0
 15 16  1  0  0  0  0
 16 18  1  0  0  0  0
 17 18  1  0  0  0  0
 20 29  1  0  0  0  0
 21 25  1  0  0  0  0
 22 27  2  0  0  0  0
 22 21  1  0  0  0  0
 23 22  1  0  0  0  0
 24 25  1  0  0  0  0
 24 20  2  0  0  0  0
 25 28  2  0  0  0  0
 27 24  1  0  0  0  0
 28 26  1  0  0  0  0
 29 26  2  0  0  0  0
 29 19  1  0  0  0  0
M  END
>  <MODEL>
6

>  <REMARK>
 VINA RESULT:      -6.5      4.299      5.625
  Name = 
  7 active torsions:
  status: ('A' for Active; 'I' for Inactive)
    1  A    between atoms: C_2  and  C_5
    2  A    between atoms: C_7  and  C_21
    3  A    between atoms: C_7  and  O_28
    4  A    between atoms: C_12  and  C_16
    5  A    between atoms: C_12  and  C_29
    6  A    between atoms: C_13  and  C_18
    7  A    between atoms: C_13  and  C_21
                            x       y       z     vdW  Elec       q    Type
                         _______ _______ _______ _____ _____    ______ ____

>  <TORSDO>
F 7

$$$$
=
 OpenBabel11042423103D

 29 32  0  0  1  0  0  0  0  0999 V2000
  161.9050  207.5340  148.2510 C   0  0  0  0  0  3  0  0  0  0  0  0
  161.4700  206.0140  146.4140 C   0  0  0  0  0  0  0  0  0  0  0  0
  159.9170  204.3390  149.7770 S   0  0  0  0  0  0  0  0  0  0  0  0
  160.8970  205.1010  147.3050 C   0  0  0  0  0  3  0  0  0  0  0  0
  161.9570  207.2390  146.8840 C   0  0  0  0  0  3  0  0  0  0  0  0
  161.4950  205.7660  151.5040 C   0  0  2  0  0  3  0  0  0  0  0  0
  161.0460  204.5400  151.1700 C   0  0  1  0  0  3  0  0  0  0  0  0
  161.3520  206.6140  149.1460 C   0  0  0  0  0  0  0  0  0  0  0  0
  160.8340  205.4030  148.6680 C   0  0  0  0  0  0  0  0  0  0  0  0
  161.4640  206.8420  150.5540 N   0  0  0  0  0  2  0  0  0  0  0  0
  161.5350  205.7070  145.0140 C   0  0  0  0  0  0  0  0  0  0  0  0
  161.5880  205.4580  143.8840 N   0  0  0  0  0  0  0  0  0  0  0  0
  161.3180  203.3500  152.0380 C   0  0  2  0  0  3  0  0  0  0  0  0
  162.6650  203.0390  152.0100 F   0  0  0  0  0  0  0  0  0  0  0  0
  160.4890  202.1580  151.5810 C   0  0  0  0  0  2  0  0  0  0  0  0
  161.2470  201.3380  150.5510 C   0  0  0  0  0  2  0  0  0  0  0  0
  161.2070  200.9690  148.3750 C   0  0  0  0  0  1  0  0  0  0  0  0
  160.3950  200.9700  149.5080 O   0  0  0  0  0  0  0  0  0  0  0  0
  162.2140  206.0030  152.7990 C   0  0  0  0  0  2  0  0  0  0  0  0
  161.4570  208.3480  153.2610 C   0  0  0  0  0  3  0  0  0  0  0  0
  159.4420  210.1400  156.0030 S   0  0  0  0  0  0  0  0  0  0  0  0
  159.9720  211.2010  154.7940 C   0  0  0  0  0  0  0  0  0  0  0  0
  159.7050  212.5980  154.7900 N   0  0  0  0  0  1  0  0  0  0  0  0
  160.7830  209.2570  154.0760 C   0  0  0  0  0  0  0  0  0  0  0  0
  160.1580  208.8290  155.2380 C   0  0  0  0  0  0  0  0  0  0  0  0
  160.8420  206.5720  154.8220 C   0  0  0  0  0  3  0  0  0  0  0  0
  160.6830  210.5860  153.8200 N   0  0  0  0  0  0  0  0  0  0  0  0
  160.1670  207.4950  155.6370 C   0  0  0  0  0  3  0  0  0  0  0  0
  161.4800  206.9930  153.6380 C   0  0  0  0  0  0  0  0  0  0  0  0
  1  8  1  0  0  0  0
  2  5  1  0  0  0  0
  2  4  2  0  0  0  0
  3  7  1  0  0  0  0
  4  9  1  0  0  0  0
  5  1  2  0  0  0  0
  6 19  1  6  0  0  0
  7  6  1  0  0  0  0
  7 13  1  1  0  0  0
  8 10  1  0  0  0  0
  9  8  2  0  0  0  0
  9  3  1  0  0  0  0
 10  6  1  0  0  0  0
 11  2  1  0  0  0  0
 12 11  3  0  0  0  0
 13 14  1  6  0  0  0
 15 13  1  0  0  0  0
 16 15  1  0  0  0  0
 17 18  1  0  0  0  0
 18 16  1  0  0  0  0
 19 29  1  0  0  0  0
 20 29  2  0  0  0  0
 20 24  1  0  0  0  0
 22 21  1  0  0  0  0
 23 22  1  0  0  0  0
 24 25  2  0  0  0  0
 25 28  1  0  0  0  0
 25 21  1  0  0  0  0
 26 28  2  0  0  0  0
 27 24  1  0  0  0  0
 27 22  2  0  0  0  0
 29 26  1  0  0  0  0
M  END
>  <MODEL>
7

>  <REMARK>
 VINA RESULT:      -6.4      3.544      7.151
  Name = 
  7 active torsions:
  status: ('A' for Active; 'I' for Inactive)
    1  A    between atoms: C_2  and  C_5
    2  A    between atoms: C_7  and  C_21
    3  A    between atoms: C_7  and  O_28
    4  A    between atoms: C_12  and  C_16
    5  A    between atoms: C_12  and  C_29
    6  A    between atoms: C_13  and  C_18
    7  A    between atoms: C_13  and  C_21
                            x       y       z     vdW  Elec       q    Type
                         _______ _______ _______ _____ _____    ______ ____

>  <TORSDO>
F 7

$$$$
=
 OpenBabel11042423103D

 29 32  0  0  1  0  0  0  0  0999 V2000
  161.6290  206.1310  152.1620 C   0  0  0  0  0  3  0  0  0  0  0  0
  161.0090  204.6000  150.3880 C   0  0  0  0  0  0  0  0  0  0  0  0
  162.6040  207.9080  148.6440 S   0  0  0  0  0  0  0  0  0  0  0  0
  161.4030  205.5450  149.4350 C   0  0  0  0  0  3  0  0  0  0  0  0
  161.1390  204.8860  151.7510 C   0  0  0  0  0  3  0  0  0  0  0  0
  162.1380  209.5540  150.7840 C   0  0  2  0  0  3  0  0  0  0  0  0
  162.0060  209.4070  149.4510 C   0  0  1  0  0  3  0  0  0  0  0  0
  162.0030  207.0850  151.2120 C   0  0  0  0  0  0  0  0  0  0  0  0
  161.9030  206.7840  149.8470 C   0  0  0  0  0  0  0  0  0  0  0  0
  162.3310  208.4120  151.6320 N   0  0  0  0  0  2  0  0  0  0  0  0
  160.4950  203.3280  149.9680 C   0  0  0  0  0  0  0  0  0  0  0  0
  160.0790  202.3020  149.6290 N   0  0  0  0  0  0  0  0  0  0  0  0
  161.5350  210.5360  148.5860 C   0  0  2  0  0  3  0  0  0  0  0  0
  160.9750  210.0420  147.4220 F   0  0  0  0  0  0  0  0  0  0  0  0
  162.6880  211.4750  148.2620 C   0  0  0  0  0  2  0  0  0  0  0  0
  162.2190  212.9190  148.2450 C   0  0  0  0  0  2  0  0  0  0  0  0
  160.8310  214.2010  149.3860 C   0  0  0  0  0  1  0  0  0  0  0  0
  160.8960  213.0000  148.6810 O   0  0  0  0  0  0  0  0  0  0  0  0
  161.8960  210.8790  151.4460 C   0  0  0  0  0  2  0  0  0  0  0  0
  159.7810  211.1890  152.7560 C   0  0  0  0  0  3  0  0  0  0  0  0
  158.5630  210.3980  156.3170 S   0  0  0  0  0  0  0  0  0  0  0  0
  157.3770  211.1690  155.3850 C   0  0  0  0  0  0  0  0  0  0  0  0
  156.0760  211.4880  155.8620 N   0  0  0  0  0  1  0  0  0  0  0  0
  159.0680  211.0380  153.9450 C   0  0  0  0  0  0  0  0  0  0  0  0
  159.6580  210.4320  155.0450 C   0  0  0  0  0  0  0  0  0  0  0  0
  161.6880  210.0950  153.8210 C   0  0  0  0  0  3  0  0  0  0  0  0
  157.7900  211.4530  154.1280 N   0  0  0  0  0  0  0  0  0  0  0  0
  160.9630  209.9480  155.0140 C   0  0  0  0  0  3  0  0  0  0  0  0
  161.1010  210.7080  152.6960 C   0  0  0  0  0  0  0  0  0  0  0  0
  2  5  2  0  0  0  0
  3  7  1  0  0  0  0
  3  9  1  0  0  0  0
  4  9  2  0  0  0  0
  4  2  1  0  0  0  0
  5  1  1  0  0  0  0
  6 19  1  1  0  0  0
  6 10  1  0  0  0  0
  7 13  1  6  0  0  0
  7  6  1  0  0  0  0
  8 10  1  0  0  0  0
  8  1  2  0  0  0  0
  9  8  1  0  0  0  0
 11  2  1  0  0  0  0
 12 11  3  0  0  0  0
 13 14  1  6  0  0  0
 15 13  1  0  0  0  0
 16 15  1  0  0  0  0
 16 18  1  0  0  0  0
 18 17  1  0  0  0  0
 19 29  1  0  0  0  0
 20 24  1  0  0  0  0
 22 23  1  0  0  0  0
 22 21  1  0  0  0  0
 24 27  1  0  0  0  0
 24 25  2  0  0  0  0
 25 21  1  0  0  0  0
 26 28  2  0  0  0  0
 27 22  2  0  0  0  0
 28 25  1  0  0  0  0
 29 20  2  0  0  0  0
 29 26  1  0  0  0  0
M  END
>  <MODEL>
8

>  <REMARK>
 VINA RESULT:      -6.4      3.716      7.685
  Name = 
  7 active torsions:
  status: ('A' for Active; 'I' for Inactive)
    1  A    between atoms: C_2  and  C_5
    2  A    between atoms: C_7  and  C_21
    3  A    between atoms: C_7  and  O_28
    4  A    between atoms: C_12  and  C_16
    5  A    between atoms: C_12  and  C_29
    6  A    between atoms: C_13  and  C_18
    7  A    between atoms: C_13  and  C_21
                            x       y       z     vdW  Elec       q    Type
                         _______ _______ _______ _____ _____    ______ ____

>  <TORSDO>
F 7

$$$$
=
 OpenBabel11042423103D

 29 32  0  0  1  0  0  0  0  0999 V2000
  162.1740  208.8760  149.1240 C   0  0  0  0  0  3  0  0  0  0  0  0
  161.7560  211.2330  149.5040 C   0  0  0  0  0  0  0  0  0  0  0  0
  162.3040  209.4900  153.1360 S   0  0  0  0  0  0  0  0  0  0  0  0
  161.8040  211.0190  150.8850 C   0  0  0  0  0  3  0  0  0  0  0  0
  161.9600  210.1650  148.6240 C   0  0  0  0  0  3  0  0  0  0  0  0
  161.6850  206.9610  152.2820 C   0  0  2  0  0  3  0  0  0  0  0  0
  161.4510  207.9020  153.2170 C   0  0  1  0  0  3  0  0  0  0  0  0
  162.2000  208.6560  150.5040 C   0  0  0  0  0  0  0  0  0  0  0  0
  162.0310  209.7330  151.3840 C   0  0  0  0  0  0  0  0  0  0  0  0
  162.2400  207.3170  151.0060 N   0  0  0  0  0  2  0  0  0  0  0  0
  161.5240  212.5520  148.9900 C   0  0  0  0  0  0  0  0  0  0  0  0
  161.3360  213.6170  148.5740 N   0  0  0  0  0  0  0  0  0  0  0  0
  160.6290  207.6020  154.4340 C   0  0  2  0  0  3  0  0  0  0  0  0
  159.3690  208.1590  154.3050 F   0  0  0  0  0  0  0  0  0  0  0  0
  161.3170  208.1300  155.6840 C   0  0  0  0  0  2  0  0  0  0  0  0
  160.4600  209.1810  156.3680 C   0  0  0  0  0  2  0  0  0  0  0  0
  160.8530  211.2470  157.0360 C   0  0  0  0  0  1  0  0  0  0  0  0
  161.2330  209.9250  157.2610 O   0  0  0  0  0  0  0  0  0  0  0  0
  161.2030  205.5520  152.4610 C   0  0  0  0  0  2  0  0  0  0  0  0
  161.2600  203.4580  151.0830 C   0  0  0  0  0  3  0  0  0  0  0  0
  160.9520  202.5590  147.3570 S   0  0  0  0  0  0  0  0  0  0  0  0
  161.2050  201.1970  148.3300 C   0  0  0  0  0  0  0  0  0  0  0  0
  161.2940  199.8690  147.8300 N   0  0  0  0  0  1  0  0  0  0  0  0
  161.1900  202.8330  149.8390 C   0  0  0  0  0  0  0  0  0  0  0  0
  160.9840  203.5810  148.6880 C   0  0  0  0  0  0  0  0  0  0  0  0
  160.9000  205.6020  149.9690 C   0  0  0  0  0  3  0  0  0  0  0  0
  161.3150  201.4960  149.6460 N   0  0  0  0  0  0  0  0  0  0  0  0
  160.8330  204.9640  148.7210 C   0  0  0  0  0  3  0  0  0  0  0  0
  161.1080  204.8540  151.1460 C   0  0  0  0  0  0  0  0  0  0  0  0
  1  8  1  0  0  0  0
  2  4  2  0  0  0  0
  3  7  1  0  0  0  0
  4  9  1  0  0  0  0
  5  1  2  0  0  0  0
  5  2  1  0  0  0  0
  6 19  1  6  0  0  0
  6  7  1  0  0  0  0
  7 13  1  1  0  0  0
  8 10  1  0  0  0  0
  8  9  2  0  0  0  0
  9  3  1  0  0  0  0
 10  6  1  0  0  0  0
 11  2  1  0  0  0  0
 12 11  3  0  0  0  0
 13 14  1  6  0  0  0
 13 15  1  0  0  0  0
 15 16  1  0  0  0  0
 16 18  1  0  0  0  0
 17 18  1  0  0  0  0
 20 29  1  0  0  0  0
 21 22  1  0  0  0  0
 21 25  1  0  0  0  0
 22 27  2  0  0  0  0
 23 22  1  0  0  0  0
 24 20  2  0  0  0  0
 25 28  2  0  0  0  0
 25 24  1  0  0  0  0
 26 29  2  0  0  0  0
 27 24  1  0  0  0  0
 28 26  1  0  0  0  0
 29 19  1  0  0  0  0
M  END
>  <MODEL>
9

>  <REMARK>
 VINA RESULT:      -6.4      1.380      1.672
  Name = 
  7 active torsions:
  status: ('A' for Active; 'I' for Inactive)
    1  A    between atoms: C_2  and  C_5
    2  A    between atoms: C_7  and  C_21
    3  A    between atoms: C_7  and  O_28
    4  A    between atoms: C_12  and  C_16
    5  A    between atoms: C_12  and  C_29
    6  A    between atoms: C_13  and  C_18
    7  A    between atoms: C_13  and  C_21
                            x       y       z     vdW  Elec       q    Type
                         _______ _______ _______ _____ _____    ______ ____

>  <TORSDO>
F 7

$$$$
