=
 OpenBabel11042420393D

 45 48  0  0  1  0  0  0  0  0999 V2000
  160.6840  203.3960  150.0890 C   0  0  1  0  0  3  0  0  0  0  0  0
  162.1900  204.5130  151.8470 N   0  0  0  0  0  2  0  0  0  0  0  0
  161.3560  202.1720  149.4720 C   0  0  0  0  0  2  0  0  0  0  0  0
  161.5490  208.2680  149.7240 C   0  0  0  0  0  0  0  0  0  0  0  0
  160.9250  203.1470  147.1900 C   0  0  0  0  0  0  0  0  0  0  0  0
  161.1250  203.6000  151.5220 C   0  0  0  0  0  0  0  0  0  0  0  0
  162.0680  205.5940  152.7880 C   0  0  0  0  0  0  0  0  0  0  0  0
  160.8030  201.9190  148.0660 C   0  0  1  0  0  3  0  0  0  0  0  0
  161.3350  206.8930  147.6240 C   0  0  0  0  0  3  0  0  0  0  0  0
  161.6870  209.3430  149.0790 O   0  0  0  0  0  0  0  0  0  0  0  0
  161.8280  208.2190  151.2100 C   0  0  1  0  0  3  0  0  0  0  0  0
  161.2010  205.6350  147.0210 C   0  0  0  0  0  3  0  0  0  0  0  0
  160.9910  205.7410  153.5180 C   0  0  0  0  0  0  0  0  0  0  0  0
  160.5170  202.9880  152.4430 O   0  0  0  0  0  0  0  0  0  0  0  0
  160.9260  203.0310  145.9330 O   0  0  0  0  0  0  0  0  0  0  0  0
  161.2110  207.0190  149.0150 C   0  0  0  0  0  0  0  0  0  0  0  0
  160.9770  204.4880  147.8080 C   0  0  0  0  0  0  0  0  0  0  0  0
  160.9340  205.8860  149.7710 C   0  0  0  0  0  3  0  0  0  0  0  0
  160.8640  204.6160  149.2040 C   0  0  0  0  0  0  0  0  0  0  0  0
  163.0840  206.6980  152.8090 C   0  0  0  0  0  2  0  0  0  0  0  0
  163.1330  207.4670  151.4850 C   0  0  0  0  0  2  0  0  0  0  0  0
  159.9130  205.9140  154.2340 C   0  0  0  0  0  3  0  0  0  0  0  0
  159.5860  207.2690  154.7580 C   0  0  0  0  0  3  0  0  0  0  0  0
  160.7880  207.8200  155.4960 C   0  0  0  0  0  2  0  0  0  0  0  0
  159.6270  207.2360  156.2730 C   0  0  0  0  0  2  0  0  0  0  0  0
  161.4640  200.7220  147.4400 C   0  0  0  0  0  0  0  0  0  0  0  0
  162.5990  200.3550  147.8500 O   0  0  0  0  0  0  0  0  0  0  0  0
  160.8440  200.0400  146.3350 N   0  0  0  0  0  0  0  0  0  0  0  0
  159.8180  201.1920  144.4310 C   0  0  0  0  0  1  0  0  0  0  0  0
  159.5850  200.5260  145.7810 C   0  0  0  0  0  2  0  0  0  0  0  0
  161.5560  198.9890  145.6170 C   0  0  0  0  0  2  0  0  0  0  0  0
  160.5890  197.9120  145.1620 C   0  0  0  0  0  1  0  0  0  0  0  0
  161.8350  209.5930  151.8610 C   0  0  0  0  0  2  0  0  0  0  0  0
  160.4870  209.9300  152.2860 N   0  0  0  0  0  2  0  0  0  0  0  0
  160.5370  211.2620  152.8760 C   0  0  1  0  0  3  0  0  0  0  0  0
  160.5250  212.6400  150.8650 N   0  0  0  0  0  1  0  0  0  0  0  0
  159.7390  212.2290  152.0140 C   0  0  0  0  0  2  0  0  0  0  0  0
  160.0290  211.2440  154.3270 C   0  0  1  0  0  3  0  0  0  0  0  0
  161.1400  211.3190  155.3310 C   0  0  0  0  0  0  0  0  0  0  0  0
  162.2710  210.8440  155.0490 O   0  0  0  0  0  0  0  0  0  0  0  0
  160.9420  211.9720  156.5830 N   0  0  0  0  0  1  0  0  0  0  0  0
  159.0960  212.2990  154.5450 O   0  0  0  0  0  0  0  0  0  0  0  0
  157.4020  211.3550  156.1100 C   0  0  0  0  0  1  0  0  0  0  0  0
  156.8380  212.4300  154.0680 O   0  0  0  0  0  0  0  0  0  0  0  0
  157.7540  212.0610  154.8500 C   0  0  0  0  0  0  0  0  0  0  0  0
  1  3  1  6  0  0  0
  1  6  1  0  0  0  0
  2  7  1  0  0  0  0
  4 11  1  0  0  0  0
  5 17  1  0  0  0  0
  5  8  1  0  0  0  0
  6  2  1  0  0  0  0
  6 14  2  0  0  0  0
  7 20  1  0  0  0  0
  7 13  2  0  0  0  0
  8 26  1  6  0  0  0
  8  3  1  0  0  0  0
  9 16  1  0  0  0  0
 10  4  2  0  0  0  0
 11 21  1  0  0  0  0
 11 33  1  6  0  0  0
 12  9  2  0  0  0  0
 12 17  1  0  0  0  0
 13 22  2  0  0  0  0
 15  5  2  0  0  0  0
 16  4  1  0  0  0  0
 16 18  2  0  0  0  0
 17 19  2  0  0  0  0
 19 18  1  0  0  0  0
 19  1  1  0  0  0  0
 21 20  1  0  0  0  0
 22 23  1  0  0  0  0
 23 24  1  0  0  0  0
 23 25  1  0  0  0  0
 24 25  1  0  0  0  0
 26 27  2  0  0  0  0
 28 26  1  0  0  0  0
 29 30  1  0  0  0  0
 30 28  1  0  0  0  0
 31 28  1  0  0  0  0
 32 31  1  0  0  0  0
 33 34  1  0  0  0  0
 34 35  1  0  0  0  0
 35 37  1  6  0  0  0
 35 38  1  0  0  0  0
 36 37  1  0  0  0  0
 38 42  1  6  0  0  0
 38 39  1  0  0  0  0
 39 41  1  0  0  0  0
 40 39  2  0  0  0  0
 42 45  1  0  0  0  0
 44 45  2  0  0  0  0
 45 43  1  0  0  0  0
M  END
>  <MODEL>
1

>  <REMARK>
 VINA RESULT:      -3.5      0.000      0.000
  Name = 
  12 active torsions:
  status: ('A' for Active; 'I' for Inactive)
    1  A    between atoms: C_2  and  N_45
    2  A    between atoms: C_4  and  N_26
    3  A    between atoms: C_4  and  C_29
    4  A    between atoms: C_6  and  C_14
    5  A    between atoms: C_6  and  C_19
    6  A    between atoms: C_6  and  O_42
    7  A    between atoms: C_10  and  C_44
    8  A    between atoms: C_12  and  C_18
    9  A    between atoms: C_14  and  N_26
   10  A    between atoms: C_14  and  C_27
   11  A    between atoms: C_35  and  N_45
   12  A    between atoms: O_42  and  C_43
                            x       y       z     vdW  Elec       q    Type
                         _______ _______ _______ _____ _____    ______ ____

>  <TORSDO>
F 12

$$$$
=
 OpenBabel11042420393D

 45 48  0  0  1  0  0  0  0  0999 V2000
  160.7270  203.3390  150.0200 C   0  0  1  0  0  3  0  0  0  0  0  0
  162.2530  204.4830  151.7440 N   0  0  0  0  0  2  0  0  0  0  0  0
  161.4000  202.1160  149.4010 C   0  0  0  0  0  2  0  0  0  0  0  0
  161.5410  208.2150  149.6020 C   0  0  0  0  0  0  0  0  0  0  0  0
  160.9210  203.0690  147.1200 C   0  0  0  0  0  0  0  0  0  0  0  0
  161.1910  203.5580  151.4440 C   0  0  0  0  0  0  0  0  0  0  0  0
  162.1360  205.5710  152.6770 C   0  0  0  0  0  0  0  0  0  0  0  0
  160.8250  201.8460  148.0070 C   0  0  1  0  0  3  0  0  0  0  0  0
  161.3040  206.8220  147.5170 C   0  0  0  0  0  3  0  0  0  0  0  0
  161.6580  209.2860  148.9460 O   0  0  0  0  0  0  0  0  0  0  0  0
  161.8460  208.1810  151.0840 C   0  0  1  0  0  3  0  0  0  0  0  0
  161.1720  205.5570  146.9260 C   0  0  0  0  0  3  0  0  0  0  0  0
  161.0710  205.7140  153.4250 C   0  0  0  0  0  0  0  0  0  0  0  0
  160.6030  202.9480  152.3790 O   0  0  0  0  0  0  0  0  0  0  0  0
  160.9010  202.9420  145.8640 O   0  0  0  0  0  0  0  0  0  0  0  0
  161.2030  206.9580  148.9080 C   0  0  0  0  0  0  0  0  0  0  0  0
  160.9710  204.4150  147.7250 C   0  0  0  0  0  0  0  0  0  0  0  0
  160.9490  205.8280  149.6780 C   0  0  0  0  0  3  0  0  0  0  0  0
  160.8810  204.5530  149.1220 C   0  0  0  0  0  0  0  0  0  0  0  0
  163.1430  206.6830  152.6720 C   0  0  0  0  0  2  0  0  0  0  0  0
  163.1620  207.4420  151.3420 C   0  0  0  0  0  2  0  0  0  0  0  0
  160.0040  205.8830  154.1580 C   0  0  0  0  0  3  0  0  0  0  0  0
  159.6740  207.2390  154.6770 C   0  0  0  0  0  3  0  0  0  0  0  0
  160.7120  207.6460  155.7010 C   0  0  0  0  0  2  0  0  0  0  0  0
  159.3590  207.1390  156.1560 C   0  0  0  0  0  2  0  0  0  0  0  0
  161.4860  200.6510  147.3790 C   0  0  0  0  0  0  0  0  0  0  0  0
  162.6270  200.2910  147.7800 O   0  0  0  0  0  0  0  0  0  0  0  0
  160.8590  199.9610  146.2830 N   0  0  0  0  0  0  0  0  0  0  0  0
  159.8170  201.1630  144.4190 C   0  0  0  0  0  1  0  0  0  0  0  0
  159.5920  200.4390  145.7390 C   0  0  0  0  0  2  0  0  0  0  0  0
  161.5700  198.9110  145.5620 C   0  0  0  0  0  2  0  0  0  0  0  0
  160.6000  197.8380  145.1010 C   0  0  0  0  0  1  0  0  0  0  0  0
  161.8520  209.5600  151.7240 C   0  0  0  0  0  2  0  0  0  0  0  0
  160.5640  209.8030  152.3510 N   0  0  0  0  0  2  0  0  0  0  0  0
  160.8180  210.4900  153.6120 C   0  0  1  0  0  3  0  0  0  0  0  0
  162.5280  210.7480  155.3300 N   0  0  0  0  0  1  0  0  0  0  0  0
  162.3040  210.4310  153.9320 C   0  0  0  0  0  2  0  0  0  0  0  0
  160.3040  211.9380  153.5660 C   0  0  1  0  0  3  0  0  0  0  0  0
  159.5130  212.2330  152.3280 C   0  0  0  0  0  0  0  0  0  0  0  0
  158.2970  211.9120  152.2700 O   0  0  0  0  0  0  0  0  0  0  0  0
  160.1130  212.9240  151.2330 N   0  0  0  0  0  1  0  0  0  0  0  0
  159.5310  212.2320  154.7270 O   0  0  0  0  0  0  0  0  0  0  0  0
  159.5520  211.0150  156.9020 C   0  0  0  0  0  1  0  0  0  0  0  0
  158.0460  210.5090  155.1360 O   0  0  0  0  0  0  0  0  0  0  0  0
  158.9940  211.2330  155.5410 C   0  0  0  0  0  0  0  0  0  0  0  0
  1  3  1  6  0  0  0
  1  6  1  0  0  0  0
  2  7  1  0  0  0  0
  4 11  1  0  0  0  0
  5 17  1  0  0  0  0
  5  8  1  0  0  0  0
  6  2  1  0  0  0  0
  6 14  2  0  0  0  0
  7 13  2  0  0  0  0
  8 26  1  6  0  0  0
  8  3  1  0  0  0  0
  9 16  1  0  0  0  0
 10  4  2  0  0  0  0
 11 21  1  0  0  0  0
 11 33  1  6  0  0  0
 12  9  2  0  0  0  0
 12 17  1  0  0  0  0
 13 22  2  0  0  0  0
 15  5  2  0  0  0  0
 16  4  1  0  0  0  0
 16 18  2  0  0  0  0
 17 19  2  0  0  0  0
 19 18  1  0  0  0  0
 19  1  1  0  0  0  0
 20  7  1  0  0  0  0
 21 20  1  0  0  0  0
 22 23  1  0  0  0  0
 23 24  1  0  0  0  0
 23 25  1  0  0  0  0
 24 25  1  0  0  0  0
 26 27  2  0  0  0  0
 28 26  1  0  0  0  0
 29 30  1  0  0  0  0
 30 28  1  0  0  0  0
 31 28  1  0  0  0  0
 32 31  1  0  0  0  0
 33 34  1  0  0  0  0
 34 35  1  0  0  0  0
 35 37  1  6  0  0  0
 37 36  1  0  0  0  0
 38 39  1  6  0  0  0
 38 35  1  0  0  0  0
 38 42  1  0  0  0  0
 40 39  2  0  0  0  0
 41 39  1  0  0  0  0
 42 45  1  0  0  0  0
 44 45  2  0  0  0  0
 45 43  1  0  0  0  0
M  END
>  <MODEL>
2

>  <REMARK>
 VINA RESULT:      -3.5      0.864      1.673
  Name = 
  12 active torsions:
  status: ('A' for Active; 'I' for Inactive)
    1  A    between atoms: C_2  and  N_45
    2  A    between atoms: C_4  and  N_26
    3  A    between atoms: C_4  and  C_29
    4  A    between atoms: C_6  and  C_14
    5  A    between atoms: C_6  and  C_19
    6  A    between atoms: C_6  and  O_42
    7  A    between atoms: C_10  and  C_44
    8  A    between atoms: C_12  and  C_18
    9  A    between atoms: C_14  and  N_26
   10  A    between atoms: C_14  and  C_27
   11  A    between atoms: C_35  and  N_45
   12  A    between atoms: O_42  and  C_43
                            x       y       z     vdW  Elec       q    Type
                         _______ _______ _______ _____ _____    ______ ____

>  <TORSDO>
F 12

$$$$
=
 OpenBabel11042420393D

 45 48  0  0  1  0  0  0  0  0999 V2000
  160.6890  203.4670  150.1130 C   0  0  1  0  0  3  0  0  0  0  0  0
  162.1960  204.5330  151.9020 N   0  0  0  0  0  2  0  0  0  0  0  0
  161.3480  202.2430  149.4820 C   0  0  0  0  0  2  0  0  0  0  0  0
  161.6260  208.3300  149.8340 C   0  0  0  0  0  0  0  0  0  0  0  0
  160.9490  203.2610  147.2130 C   0  0  0  0  0  0  0  0  0  0  0  0
  161.1210  203.6400  151.5530 C   0  0  0  0  0  0  0  0  0  0  0  0
  162.0820  205.6000  152.8580 C   0  0  0  0  0  0  0  0  0  0  0  0
  160.8020  202.0200  148.0670 C   0  0  1  0  0  3  0  0  0  0  0  0
  161.4090  206.9930  147.7110 C   0  0  0  0  0  3  0  0  0  0  0  0
  161.7850  209.4130  149.2080 O   0  0  0  0  0  0  0  0  0  0  0  0
  161.8930  208.2540  151.3220 C   0  0  1  0  0  3  0  0  0  0  0  0
  161.2630  205.7460  147.0870 C   0  0  0  0  0  3  0  0  0  0  0  0
  161.0020  205.7510  153.5820 C   0  0  0  0  0  0  0  0  0  0  0  0
  160.4960  203.0230  152.4590 O   0  0  0  0  0  0  0  0  0  0  0  0
  160.9580  203.1640  145.9540 O   0  0  0  0  0  0  0  0  0  0  0  0
  161.2760  207.0980  149.1020 C   0  0  0  0  0  0  0  0  0  0  0  0
  161.0160  204.5910  147.8520 C   0  0  0  0  0  0  0  0  0  0  0  0
  160.9770  205.9570  149.8380 C   0  0  0  0  0  3  0  0  0  0  0  0
  160.8930  204.6980  149.2500 C   0  0  0  0  0  0  0  0  0  0  0  0
  163.1140  206.6880  152.9050 C   0  0  0  0  0  2  0  0  0  0  0  0
  163.1840  207.4780  151.5950 C   0  0  0  0  0  2  0  0  0  0  0  0
  159.9200  205.9290  154.2930 C   0  0  0  0  0  3  0  0  0  0  0  0
  159.6090  207.2790  154.8360 C   0  0  0  0  0  3  0  0  0  0  0  0
  160.7890  207.7730  155.6460 C   0  0  0  0  0  2  0  0  0  0  0  0
  159.5730  207.2070  156.3490 C   0  0  0  0  0  2  0  0  0  0  0  0
  161.4510  200.8240  147.4280 C   0  0  0  0  0  0  0  0  0  0  0  0
  162.5960  200.4600  147.8110 O   0  0  0  0  0  0  0  0  0  0  0  0
  160.8060  200.1390  146.3390 N   0  0  0  0  0  0  0  0  0  0  0  0
  159.7380  201.3170  144.4740 C   0  0  0  0  0  1  0  0  0  0  0  0
  159.5330  200.6220  145.8140 C   0  0  0  0  0  2  0  0  0  0  0  0
  161.5040  199.0890  145.6050 C   0  0  0  0  0  2  0  0  0  0  0  0
  160.5360  197.9870  145.2140 C   0  0  0  0  0  1  0  0  0  0  0  0
  161.9150  209.6170  151.9950 C   0  0  0  0  0  2  0  0  0  0  0  0
  160.6190  209.8750  152.5980 N   0  0  0  0  0  2  0  0  0  0  0  0
  160.5100  211.3150  152.7970 C   0  0  1  0  0  3  0  0  0  0  0  0
  159.5100  213.0570  151.4160 N   0  0  0  0  0  1  0  0  0  0  0  0
  159.2400  211.8250  152.1340 C   0  0  0  0  0  2  0  0  0  0  0  0
  160.5520  211.6710  154.2920 C   0  0  1  0  0  3  0  0  0  0  0  0
  159.1850  211.8270  154.8880 C   0  0  0  0  0  0  0  0  0  0  0  0
  158.6510  212.9670  154.9400 O   0  0  0  0  0  0  0  0  0  0  0  0
  158.4610  210.6880  155.3480 N   0  0  0  0  0  1  0  0  0  0  0  0
  161.2980  210.6990  155.0190 O   0  0  0  0  0  0  0  0  0  0  0  0
  161.5210  211.7650  157.2600 C   0  0  0  0  0  1  0  0  0  0  0  0
  163.3310  210.7340  156.1190 O   0  0  0  0  0  0  0  0  0  0  0  0
  162.1080  211.0350  156.1060 C   0  0  0  0  0  0  0  0  0  0  0  0
  1  3  1  6  0  0  0
  1  6  1  0  0  0  0
  2  7  1  0  0  0  0
  4 11  1  0  0  0  0
  5 17  1  0  0  0  0
  5  8  1  0  0  0  0
  6  2  1  0  0  0  0
  6 14  2  0  0  0  0
  7 20  1  0  0  0  0
  7 13  2  0  0  0  0
  8 26  1  6  0  0  0
  8  3  1  0  0  0  0
  9 16  1  0  0  0  0
 10  4  2  0  0  0  0
 11 21  1  0  0  0  0
 11 33  1  6  0  0  0
 12  9  2  0  0  0  0
 12 17  1  0  0  0  0
 13 22  2  0  0  0  0
 15  5  2  0  0  0  0
 16  4  1  0  0  0  0
 16 18  2  0  0  0  0
 17 19  2  0  0  0  0
 19 18  1  0  0  0  0
 19  1  1  0  0  0  0
 21 20  1  0  0  0  0
 22 23  1  0  0  0  0
 23 24  1  0  0  0  0
 23 25  1  0  0  0  0
 24 25  1  0  0  0  0
 26 27  2  0  0  0  0
 28 26  1  0  0  0  0
 29 30  1  0  0  0  0
 30 28  1  0  0  0  0
 31 28  1  0  0  0  0
 32 31  1  0  0  0  0
 33 34  1  0  0  0  0
 34 35  1  0  0  0  0
 35 37  1  1  0  0  0
 35 38  1  0  0  0  0
 36 37  1  0  0  0  0
 38 39  1  1  0  0  0
 38 42  1  0  0  0  0
 39 40  2  0  0  0  0
 39 41  1  0  0  0  0
 42 45  1  0  0  0  0
 45 44  2  0  0  0  0
 45 43  1  0  0  0  0
M  END
>  <MODEL>
3

>  <REMARK>
 VINA RESULT:      -3.2      0.774      1.707
  Name = 
  12 active torsions:
  status: ('A' for Active; 'I' for Inactive)
    1  A    between atoms: C_2  and  N_45
    2  A    between atoms: C_4  and  N_26
    3  A    between atoms: C_4  and  C_29
    4  A    between atoms: C_6  and  C_14
    5  A    between atoms: C_6  and  C_19
    6  A    between atoms: C_6  and  O_42
    7  A    between atoms: C_10  and  C_44
    8  A    between atoms: C_12  and  C_18
    9  A    between atoms: C_14  and  N_26
   10  A    between atoms: C_14  and  C_27
   11  A    between atoms: C_35  and  N_45
   12  A    between atoms: O_42  and  C_43
                            x       y       z     vdW  Elec       q    Type
                         _______ _______ _______ _____ _____    ______ ____

>  <TORSDO>
F 12

$$$$
=
 OpenBabel11042420393D

 45 48  0  0  1  0  0  0  0  0999 V2000
  159.9840  214.0430  143.2680 C   0  0  1  0  0  3  0  0  0  0  0  0
  159.1510  212.2970  144.9600 N   0  0  0  0  0  2  0  0  0  0  0  0
  160.0840  213.4570  141.8610 C   0  0  0  0  0  2  0  0  0  0  0  0
  162.6020  213.3250  147.4200 C   0  0  0  0  0  0  0  0  0  0  0  0
  162.4680  214.2580  141.7510 C   0  0  0  0  0  0  0  0  0  0  0  0
  158.8740  213.3850  144.0580 C   0  0  0  0  0  0  0  0  0  0  0  0
  158.7830  212.2870  146.3500 C   0  0  0  0  0  0  0  0  0  0  0  0
  161.1310  214.2210  141.0440 C   0  0  1  0  0  3  0  0  0  0  0  0
  163.8130  213.8450  145.2730 C   0  0  0  0  0  3  0  0  0  0  0  0
  163.6710  213.3080  148.0900 O   0  0  0  0  0  0  0  0  0  0  0  0
  161.3090  212.8140  148.0170 C   0  0  1  0  0  3  0  0  0  0  0  0
  163.7660  214.0520  143.8880 C   0  0  0  0  0  3  0  0  0  0  0  0
  158.0450  213.2370  146.8650 C   0  0  0  0  0  0  0  0  0  0  0  0
  157.6990  213.8310  143.9510 O   0  0  0  0  0  0  0  0  0  0  0  0
  163.5270  214.4530  141.0910 O   0  0  0  0  0  0  0  0  0  0  0  0
  162.6230  213.7500  146.0070 C   0  0  0  0  0  0  0  0  0  0  0  0
  162.5280  214.1310  143.2210 C   0  0  0  0  0  0  0  0  0  0  0  0
  161.4100  213.8860  145.3420 C   0  0  0  0  0  3  0  0  0  0  0  0
  161.3350  214.0240  143.9590 C   0  0  0  0  0  0  0  0  0  0  0  0
  159.4070  211.2980  147.2910 C   0  0  0  0  0  2  0  0  0  0  0  0
  160.9250  211.4710  147.3920 C   0  0  0  0  0  2  0  0  0  0  0  0
  157.3290  214.1920  147.3970 C   0  0  0  0  0  3  0  0  0  0  0  0
  157.4210  214.4530  148.8590 C   0  0  0  0  0  3  0  0  0  0  0  0
  157.4470  213.1330  149.6000 C   0  0  0  0  0  2  0  0  0  0  0  0
  156.1650  213.9370  149.5330 C   0  0  0  0  0  2  0  0  0  0  0  0
  161.2480  213.6470  139.6600 C   0  0  0  0  0  0  0  0  0  0  0  0
  160.8880  214.3400  138.6680 O   0  0  0  0  0  0  0  0  0  0  0  0
  161.7010  212.2960  139.4650 N   0  0  0  0  0  0  0  0  0  0  0  0
  161.1580  210.1900  140.5940 C   0  0  0  0  0  1  0  0  0  0  0  0
  162.0120  211.4500  140.6130 C   0  0  0  0  0  2  0  0  0  0  0  0
  161.6550  211.6800  138.1430 C   0  0  0  0  0  2  0  0  0  0  0  0
  163.0470  211.6210  137.5400 C   0  0  0  0  0  1  0  0  0  0  0  0
  161.3470  212.7270  149.5350 C   0  0  0  0  0  2  0  0  0  0  0  0
  161.1850  211.3410  149.9390 N   0  0  0  0  0  2  0  0  0  0  0  0
  161.1420  211.3150  151.3970 C   0  0  1  0  0  3  0  0  0  0  0  0
  159.7530  212.8330  152.7040 N   0  0  0  0  0  1  0  0  0  0  0  0
  159.7340  211.6460  151.8690 C   0  0  0  0  0  2  0  0  0  0  0  0
  161.6190  209.9580  151.9400 C   0  0  1  0  0  3  0  0  0  0  0  0
  161.6160  209.9010  153.4380 C   0  0  0  0  0  0  0  0  0  0  0  0
  160.8450  209.1030  154.0330 O   0  0  0  0  0  0  0  0  0  0  0  0
  162.5190  210.7060  154.1950 N   0  0  0  0  0  1  0  0  0  0  0  0
  160.8290  208.8990  151.4050 O   0  0  0  0  0  0  0  0  0  0  0  0
  161.8160  206.6210  151.1790 C   0  0  0  0  0  1  0  0  0  0  0  0
  161.4840  208.0890  149.3410 O   0  0  0  0  0  0  0  0  0  0  0  0
  161.3670  207.9070  150.5820 C   0  0  0  0  0  0  0  0  0  0  0  0
  1  3  1  6  0  0  0
  1 19  1  0  0  0  0
  1  6  1  0  0  0  0
  2  7  1  0  0  0  0
  4 11  1  0  0  0  0
  4 10  2  0  0  0  0
  5 17  1  0  0  0  0
  6  2  1  0  0  0  0
  7 13  2  0  0  0  0
  7 20  1  0  0  0  0
  8 26  1  6  0  0  0
  8  5  1  0  0  0  0
  8  3  1  0  0  0  0
  9 16  1  0  0  0  0
 11 33  1  1  0  0  0
 12  9  2  0  0  0  0
 13 22  2  0  0  0  0
 14  6  2  0  0  0  0
 15  5  2  0  0  0  0
 16  4  1  0  0  0  0
 17 12  1  0  0  0  0
 17 19  2  0  0  0  0
 18 16  2  0  0  0  0
 19 18  1  0  0  0  0
 20 21  1  0  0  0  0
 21 11  1  0  0  0  0
 22 23  1  0  0  0  0
 23 25  1  0  0  0  0
 23 24  1  0  0  0  0
 25 24  1  0  0  0  0
 27 26  2  0  0  0  0
 28 26  1  0  0  0  0
 28 30  1  0  0  0  0
 29 30  1  0  0  0  0
 31 28  1  0  0  0  0
 32 31  1  0  0  0  0
 33 34  1  0  0  0  0
 34 35  1  0  0  0  0
 35 37  1  6  0  0  0
 35 38  1  0  0  0  0
 37 36  1  0  0  0  0
 38 42  1  6  0  0  0
 38 39  1  0  0  0  0
 39 40  2  0  0  0  0
 39 41  1  0  0  0  0
 44 45  2  0  0  0  0
 45 43  1  0  0  0  0
 45 42  1  0  0  0  0
M  END
>  <MODEL>
4

>  <REMARK>
 VINA RESULT:      -2.4      6.661      9.808
  Name = 
  12 active torsions:
  status: ('A' for Active; 'I' for Inactive)
    1  A    between atoms: C_2  and  N_45
    2  A    between atoms: C_4  and  N_26
    3  A    between atoms: C_4  and  C_29
    4  A    between atoms: C_6  and  C_14
    5  A    between atoms: C_6  and  C_19
    6  A    between atoms: C_6  and  O_42
    7  A    between atoms: C_10  and  C_44
    8  A    between atoms: C_12  and  C_18
    9  A    between atoms: C_14  and  N_26
   10  A    between atoms: C_14  and  C_27
   11  A    between atoms: C_35  and  N_45
   12  A    between atoms: O_42  and  C_43
                            x       y       z     vdW  Elec       q    Type
                         _______ _______ _______ _____ _____    ______ ____

>  <TORSDO>
F 12

$$$$
=
 OpenBabel11042420393D

 45 48  0  0  1  0  0  0  0  0999 V2000
  160.5140  204.8230  150.1310 C   0  0  1  0  0  3  0  0  0  0  0  0
  161.9780  205.3840  152.1670 N   0  0  0  0  0  2  0  0  0  0  0  0
  161.1490  203.7370  149.2660 C   0  0  0  0  0  2  0  0  0  0  0  0
  161.6730  209.5710  150.9830 C   0  0  0  0  0  0  0  0  0  0  0  0
  160.9050  205.2530  147.2700 C   0  0  0  0  0  0  0  0  0  0  0  0
  160.8830  204.6500  151.5880 C   0  0  0  0  0  0  0  0  0  0  0  0
  161.8640  206.2170  153.3340 C   0  0  0  0  0  0  0  0  0  0  0  0
  160.6630  203.8630  147.8180 C   0  0  1  0  0  3  0  0  0  0  0  0
  161.5010  208.7520  148.6080 C   0  0  0  0  0  3  0  0  0  0  0  0
  161.9080  210.7560  150.6230 O   0  0  0  0  0  0  0  0  0  0  0  0
  161.8640  209.1520  152.4250 C   0  0  1  0  0  3  0  0  0  0  0  0
  161.3310  207.6840  147.7150 C   0  0  0  0  0  3  0  0  0  0  0  0
  160.7580  206.2610  154.0320 C   0  0  0  0  0  0  0  0  0  0  0  0
  160.1900  203.8810  152.3080 O   0  0  0  0  0  0  0  0  0  0  0  0
  160.9700  205.4380  146.0230 O   0  0  0  0  0  0  0  0  0  0  0  0
  161.3060  208.5520  149.9820 C   0  0  0  0  0  0  0  0  0  0  0  0
  160.9980  206.4020  148.1930 C   0  0  0  0  0  0  0  0  0  0  0  0
  160.9230  207.2940  150.4310 C   0  0  0  0  0  3  0  0  0  0  0  0
  160.8130  206.2030  149.5730 C   0  0  0  0  0  0  0  0  0  0  0  0
  162.9390  207.2120  153.6620 C   0  0  0  0  0  2  0  0  0  0  0  0
  163.1060  208.2680  152.5650 C   0  0  0  0  0  2  0  0  0  0  0  0
  159.6520  206.3330  154.7240 C   0  0  0  0  0  3  0  0  0  0  0  0
  159.3740  207.5430  155.5440 C   0  0  0  0  0  3  0  0  0  0  0  0
  160.6710  208.0530  156.1350 C   0  0  0  0  0  2  0  0  0  0  0  0
  159.7140  207.2490  156.9910 C   0  0  0  0  0  2  0  0  0  0  0  0
  161.2900  202.8070  146.9510 C   0  0  0  0  0  0  0  0  0  0  0  0
  161.9550  203.1510  145.9360 O   0  0  0  0  0  0  0  0  0  0  0  0
  161.0770  201.4120  147.2320 N   0  0  0  0  0  0  0  0  0  0  0  0
  161.0520  200.5780  149.5360 C   0  0  0  0  0  1  0  0  0  0  0  0
  160.2160  201.0050  148.3380 C   0  0  0  0  0  2  0  0  0  0  0  0
  161.5380  200.3880  146.3010 C   0  0  0  0  0  2  0  0  0  0  0  0
  160.4690  200.0990  145.2630 C   0  0  0  0  0  1  0  0  0  0  0  0
  161.9120  210.3290  153.3870 C   0  0  0  0  0  2  0  0  0  0  0  0
  160.7750  211.1970  153.1390 N   0  0  0  0  0  2  0  0  0  0  0  0
  159.8410  211.0180  154.2450 C   0  0  1  0  0  3  0  0  0  0  0  0
  160.3030  212.6950  155.9530 N   0  0  0  0  0  1  0  0  0  0  0  0
  160.5470  211.3200  155.5590 C   0  0  0  0  0  2  0  0  0  0  0  0
  158.5900  211.8910  154.0600 C   0  0  1  0  0  3  0  0  0  0  0  0
  158.6380  212.7140  152.8080 C   0  0  0  0  0  0  0  0  0  0  0  0
  158.3510  212.1870  151.7010 O   0  0  0  0  0  0  0  0  0  0  0  0
  158.9540  214.1040  152.8660 N   0  0  0  0  0  1  0  0  0  0  0  0
  157.4120  211.0890  154.0780 O   0  0  0  0  0  0  0  0  0  0  0  0
  155.2520  210.3240  155.0590 C   0  0  0  0  0  1  0  0  0  0  0  0
  156.7870  211.7250  156.2100 O   0  0  0  0  0  0  0  0  0  0  0  0
  156.5250  211.0850  155.1570 C   0  0  0  0  0  0  0  0  0  0  0  0
  1  3  1  6  0  0  0
  1  6  1  0  0  0  0
  2  7  1  0  0  0  0
  4 11  1  0  0  0  0
  5  8  1  0  0  0  0
  5 17  1  0  0  0  0
  6  2  1  0  0  0  0
  6 14  2  0  0  0  0
  7 20  1  0  0  0  0
  7 13  2  0  0  0  0
  8 26  1  6  0  0  0
  8  3  1  0  0  0  0
  9 16  1  0  0  0  0
 10  4  2  0  0  0  0
 11 21  1  0  0  0  0
 11 33  1  1  0  0  0
 12 17  1  0  0  0  0
 12  9  2  0  0  0  0
 13 22  2  0  0  0  0
 15  5  2  0  0  0  0
 16 18  2  0  0  0  0
 16  4  1  0  0  0  0
 17 19  2  0  0  0  0
 19  1  1  0  0  0  0
 19 18  1  0  0  0  0
 21 20  1  0  0  0  0
 22 23  1  0  0  0  0
 23 24  1  0  0  0  0
 23 25  1  0  0  0  0
 24 25  1  0  0  0  0
 26 28  1  0  0  0  0
 27 26  2  0  0  0  0
 28 30  1  0  0  0  0
 30 29  1  0  0  0  0
 31 28  1  0  0  0  0
 32 31  1  0  0  0  0
 34 33  1  0  0  0  0
 34 35  1  0  0  0  0
 35 37  1  1  0  0  0
 37 36  1  0  0  0  0
 38 39  1  6  0  0  0
 38 42  1  0  0  0  0
 38 35  1  0  0  0  0
 39 41  1  0  0  0  0
 40 39  2  0  0  0  0
 42 45  1  0  0  0  0
 43 45  1  0  0  0  0
 45 44  2  0  0  0  0
M  END
>  <MODEL>
5

>  <REMARK>
 VINA RESULT:      -1.4      1.479      2.383
  Name = 
  12 active torsions:
  status: ('A' for Active; 'I' for Inactive)
    1  A    between atoms: C_2  and  N_45
    2  A    between atoms: C_4  and  N_26
    3  A    between atoms: C_4  and  C_29
    4  A    between atoms: C_6  and  C_14
    5  A    between atoms: C_6  and  C_19
    6  A    between atoms: C_6  and  O_42
    7  A    between atoms: C_10  and  C_44
    8  A    between atoms: C_12  and  C_18
    9  A    between atoms: C_14  and  N_26
   10  A    between atoms: C_14  and  C_27
   11  A    between atoms: C_35  and  N_45
   12  A    between atoms: O_42  and  C_43
                            x       y       z     vdW  Elec       q    Type
                         _______ _______ _______ _____ _____    ______ ____

>  <TORSDO>
F 12

$$$$
=
 OpenBabel11042420393D

 45 48  0  0  1  0  0  0  0  0999 V2000
  160.0300  213.9280  143.0100 C   0  0  1  0  0  3  0  0  0  0  0  0
  159.3180  212.2160  144.7910 N   0  0  0  0  0  2  0  0  0  0  0  0
  160.1570  213.2830  141.6320 C   0  0  0  0  0  2  0  0  0  0  0  0
  162.7150  213.5730  147.1660 C   0  0  0  0  0  0  0  0  0  0  0  0
  162.4860  214.2240  141.4610 C   0  0  0  0  0  0  0  0  0  0  0  0
  158.9680  213.2410  143.8410 C   0  0  0  0  0  0  0  0  0  0  0  0
  158.9610  212.2500  146.1830 C   0  0  0  0  0  0  0  0  0  0  0  0
  161.1490  214.0710  140.7700 C   0  0  1  0  0  3  0  0  0  0  0  0
  163.8770  214.0640  144.9870 C   0  0  0  0  0  3  0  0  0  0  0  0
  163.7860  213.6540  147.8270 O   0  0  0  0  0  0  0  0  0  0  0  0
  161.4600  213.0120  147.8000 C   0  0  1  0  0  3  0  0  0  0  0  0
  163.8080  214.2010  143.5930 C   0  0  0  0  0  3  0  0  0  0  0  0
  158.1680  213.1760  146.6600 C   0  0  0  0  0  0  0  0  0  0  0  0
  157.7660  213.6080  143.7250 O   0  0  0  0  0  0  0  0  0  0  0  0
  163.5260  214.4530  140.7830 O   0  0  0  0  0  0  0  0  0  0  0  0
  162.6990  213.9310  145.7350 C   0  0  0  0  0  0  0  0  0  0  0  0
  162.5630  214.1710  142.9350 C   0  0  0  0  0  0  0  0  0  0  0  0
  161.4760  213.9590  145.0760 C   0  0  0  0  0  3  0  0  0  0  0  0
  161.3840  214.0270  143.6890 C   0  0  0  0  0  0  0  0  0  0  0  0
  159.6510  211.3470  147.1640 C   0  0  0  0  0  2  0  0  0  0  0  0
  161.1560  211.6190  147.2420 C   0  0  0  0  0  2  0  0  0  0  0  0
  157.3970  214.1090  147.1520 C   0  0  0  0  0  3  0  0  0  0  0  0
  157.4820  214.4450  148.6000 C   0  0  0  0  0  3  0  0  0  0  0  0
  156.9970  213.2640  149.4140 C   0  0  0  0  0  2  0  0  0  0  0  0
  156.0850  214.4520  149.1880 C   0  0  0  0  0  2  0  0  0  0  0  0
  161.2930  213.4400  139.4130 C   0  0  0  0  0  0  0  0  0  0  0  0
  161.0110  214.1130  138.3830 O   0  0  0  0  0  0  0  0  0  0  0  0
  161.6810  212.0610  139.2860 N   0  0  0  0  0  0  0  0  0  0  0  0
  161.4600  209.8080  140.2240 C   0  0  0  0  0  1  0  0  0  0  0  0
  161.8990  211.2430  140.4750 C   0  0  0  0  0  2  0  0  0  0  0  0
  161.6570  211.3990  137.9860 C   0  0  0  0  0  2  0  0  0  0  0  0
  162.9890  211.5770  137.2790 C   0  0  0  0  0  1  0  0  0  0  0  0
  161.5130  212.9990  149.3200 C   0  0  0  0  0  2  0  0  0  0  0  0
  160.1920  212.6930  149.8430 N   0  0  0  0  0  2  0  0  0  0  0  0
  160.3480  211.6180  150.8150 C   0  0  1  0  0  3  0  0  0  0  0  0
  161.5840  209.5240  150.6360 N   0  0  0  0  0  1  0  0  0  0  0  0
  161.7130  210.9690  150.6390 C   0  0  0  0  0  2  0  0  0  0  0  0
  160.1460  212.1340  152.2490 C   0  0  1  0  0  3  0  0  0  0  0  0
  158.7360  212.5680  152.5140 C   0  0  0  0  0  0  0  0  0  0  0  0
  157.8980  211.7370  152.9520 O   0  0  0  0  0  0  0  0  0  0  0  0
  158.3490  213.9280  152.3260 N   0  0  0  0  0  1  0  0  0  0  0  0
  160.5460  211.1490  153.1970 O   0  0  0  0  0  0  0  0  0  0  0  0
  159.4750  210.5910  155.3770 C   0  0  0  0  0  1  0  0  0  0  0  0
  161.2090  212.1980  155.1480 O   0  0  0  0  0  0  0  0  0  0  0  0
  160.4630  211.3600  154.5760 C   0  0  0  0  0  0  0  0  0  0  0  0
  1  3  1  6  0  0  0
  1 19  1  0  0  0  0
  1  6  1  0  0  0  0
  2  7  1  0  0  0  0
  4 11  1  0  0  0  0
  4 10  2  0  0  0  0
  5 17  1  0  0  0  0
  6  2  1  0  0  0  0
  7 13  2  0  0  0  0
  7 20  1  0  0  0  0
  8 26  1  6  0  0  0
  8  5  1  0  0  0  0
  8  3  1  0  0  0  0
  9 16  1  0  0  0  0
 11 33  1  1  0  0  0
 12  9  2  0  0  0  0
 13 22  2  0  0  0  0
 14  6  2  0  0  0  0
 15  5  2  0  0  0  0
 16  4  1  0  0  0  0
 17 12  1  0  0  0  0
 17 19  2  0  0  0  0
 18 16  2  0  0  0  0
 19 18  1  0  0  0  0
 20 21  1  0  0  0  0
 21 11  1  0  0  0  0
 22 23  1  0  0  0  0
 23 25  1  0  0  0  0
 23 24  1  0  0  0  0
 25 24  1  0  0  0  0
 27 26  2  0  0  0  0
 28 26  1  0  0  0  0
 28 30  1  0  0  0  0
 29 30  1  0  0  0  0
 31 28  1  0  0  0  0
 32 31  1  0  0  0  0
 33 34  1  0  0  0  0
 34 35  1  0  0  0  0
 35 37  1  1  0  0  0
 35 38  1  0  0  0  0
 36 37  1  0  0  0  0
 38 39  1  1  0  0  0
 38 42  1  0  0  0  0
 39 40  2  0  0  0  0
 41 39  1  0  0  0  0
 42 45  1  0  0  0  0
 45 44  2  0  0  0  0
 45 43  1  0  0  0  0
M  END
>  <MODEL>
6

>  <REMARK>
 VINA RESULT:      -1.3      6.786      9.758
  Name = 
  12 active torsions:
  status: ('A' for Active; 'I' for Inactive)
    1  A    between atoms: C_2  and  N_45
    2  A    between atoms: C_4  and  N_26
    3  A    between atoms: C_4  and  C_29
    4  A    between atoms: C_6  and  C_14
    5  A    between atoms: C_6  and  C_19
    6  A    between atoms: C_6  and  O_42
    7  A    between atoms: C_10  and  C_44
    8  A    between atoms: C_12  and  C_18
    9  A    between atoms: C_14  and  N_26
   10  A    between atoms: C_14  and  C_27
   11  A    between atoms: C_35  and  N_45
   12  A    between atoms: O_42  and  C_43
                            x       y       z     vdW  Elec       q    Type
                         _______ _______ _______ _____ _____    ______ ____

>  <TORSDO>
F 12

$$$$
=
 OpenBabel11042420393D

 45 48  0  0  1  0  0  0  0  0999 V2000
  160.1310  213.5470  143.3220 C   0  0  1  0  0  3  0  0  0  0  0  0
  159.2800  211.9760  145.1700 N   0  0  0  0  0  2  0  0  0  0  0  0
  160.5120  212.7740  142.0610 C   0  0  0  0  0  2  0  0  0  0  0  0
  162.1710  213.8650  147.8330 C   0  0  0  0  0  0  0  0  0  0  0  0
  162.7680  213.8910  142.1170 C   0  0  0  0  0  0  0  0  0  0  0  0
  159.0070  212.8610  144.0670 C   0  0  0  0  0  0  0  0  0  0  0  0
  158.7130  212.1250  146.4840 C   0  0  0  0  0  0  0  0  0  0  0  0
  161.5650  213.5500  141.2640 C   0  0  1  0  0  3  0  0  0  0  0  0
  163.6140  214.2240  145.8000 C   0  0  0  0  0  3  0  0  0  0  0  0
  163.1220  214.1080  148.6260 O   0  0  0  0  0  0  0  0  0  0  0  0
  160.8770  213.2670  148.3410 C   0  0  1  0  0  3  0  0  0  0  0  0
  163.7480  214.2070  144.4050 C   0  0  0  0  0  3  0  0  0  0  0  0
  157.7940  213.0230  146.7300 C   0  0  0  0  0  0  0  0  0  0  0  0
  157.8140  213.1070  143.7380 O   0  0  0  0  0  0  0  0  0  0  0  0
  163.8800  214.1380  141.5730 O   0  0  0  0  0  0  0  0  0  0  0  0
  162.3490  214.0680  146.3830 C   0  0  0  0  0  0  0  0  0  0  0  0
  162.6230  214.0000  143.5830 C   0  0  0  0  0  0  0  0  0  0  0  0
  161.2410  213.9200  145.5560 C   0  0  0  0  0  3  0  0  0  0  0  0
  161.3560  213.8330  144.1720 C   0  0  0  0  0  0  0  0  0  0  0  0
  159.3080  211.3930  147.6510 C   0  0  0  0  0  2  0  0  0  0  0  0
  160.7610  211.8020  147.9130 C   0  0  0  0  0  2  0  0  0  0  0  0
  156.8940  213.9320  146.9950 C   0  0  0  0  0  3  0  0  0  0  0  0
  156.7330  214.4240  148.3900 C   0  0  0  0  0  3  0  0  0  0  0  0
  156.4280  213.2520  149.3000 C   0  0  0  0  0  2  0  0  0  0  0  0
  155.3100  214.1680  148.8450 C   0  0  0  0  0  2  0  0  0  0  0  0
  161.9580  212.7960  140.0250 C   0  0  0  0  0  0  0  0  0  0  0  0
  162.8050  211.8640  140.1070 O   0  0  0  0  0  0  0  0  0  0  0  0
  161.4300  213.1750  138.7410 N   0  0  0  0  0  0  0  0  0  0  0  0
  159.3570  213.9900  137.7200 C   0  0  0  0  0  1  0  0  0  0  0  0
  160.5380  214.3230  138.6200 C   0  0  0  0  0  2  0  0  0  0  0  0
  161.9370  212.5600  137.5190 C   0  0  0  0  0  2  0  0  0  0  0  0
  163.2700  213.1750  137.1320 C   0  0  0  0  0  1  0  0  0  0  0  0
  160.7000  213.4180  149.8440 C   0  0  0  0  0  2  0  0  0  0  0  0
  160.7550  212.1070  150.4680 N   0  0  0  0  0  2  0  0  0  0  0  0
  160.4980  212.2920  151.8910 C   0  0  1  0  0  3  0  0  0  0  0  0
  158.5340  212.6140  153.3000 N   0  0  0  0  0  1  0  0  0  0  0  0
  159.1870  213.0420  152.0760 C   0  0  0  0  0  2  0  0  0  0  0  0
  160.4900  210.9450  152.6310 C   0  0  1  0  0  3  0  0  0  0  0  0
  161.3740  209.9230  151.9820 C   0  0  0  0  0  0  0  0  0  0  0  0
  160.8900  208.8220  151.6100 O   0  0  0  0  0  0  0  0  0  0  0  0
  162.7490  210.2080  151.7340 N   0  0  0  0  0  1  0  0  0  0  0  0
  160.8580  211.1210  153.9960 O   0  0  0  0  0  0  0  0  0  0  0  0
  159.6440  209.9880  155.8550 C   0  0  0  0  0  1  0  0  0  0  0  0
  161.7220  209.2230  154.9950 O   0  0  0  0  0  0  0  0  0  0  0  0
  160.8020  210.0800  154.9270 C   0  0  0  0  0  0  0  0  0  0  0  0
  1  3  1  6  0  0  0
  1  6  1  0  0  0  0
  1 19  1  0  0  0  0
  2  7  1  0  0  0  0
  4 11  1  0  0  0  0
  4 10  2  0  0  0  0
  5 17  1  0  0  0  0
  6  2  1  0  0  0  0
  7 13  2  0  0  0  0
  7 20  1  0  0  0  0
  8 26  1  6  0  0  0
  8  3  1  0  0  0  0
  8  5  1  0  0  0  0
  9 16  1  0  0  0  0
 11 33  1  1  0  0  0
 12  9  2  0  0  0  0
 13 22  2  0  0  0  0
 14  6  2  0  0  0  0
 15  5  2  0  0  0  0
 16  4  1  0  0  0  0
 17 19  2  0  0  0  0
 17 12  1  0  0  0  0
 18 16  2  0  0  0  0
 19 18  1  0  0  0  0
 20 21  1  0  0  0  0
 21 11  1  0  0  0  0
 22 23  1  0  0  0  0
 23 25  1  0  0  0  0
 23 24  1  0  0  0  0
 25 24  1  0  0  0  0
 26 27  2  0  0  0  0
 28 26  1  0  0  0  0
 29 30  1  0  0  0  0
 30 28  1  0  0  0  0
 31 28  1  0  0  0  0
 32 31  1  0  0  0  0
 33 34  1  0  0  0  0
 34 35  1  0  0  0  0
 35 37  1  6  0  0  0
 35 38  1  0  0  0  0
 37 36  1  0  0  0  0
 38 39  1  6  0  0  0
 38 42  1  0  0  0  0
 40 39  2  0  0  0  0
 41 39  1  0  0  0  0
 42 45  1  0  0  0  0
 45 44  2  0  0  0  0
 45 43  1  0  0  0  0
M  END
>  <MODEL>
7

>  <REMARK>
 VINA RESULT:      -0.9      6.832      9.859
  Name = 
  12 active torsions:
  status: ('A' for Active; 'I' for Inactive)
    1  A    between atoms: C_2  and  N_45
    2  A    between atoms: C_4  and  N_26
    3  A    between atoms: C_4  and  C_29
    4  A    between atoms: C_6  and  C_14
    5  A    between atoms: C_6  and  C_19
    6  A    between atoms: C_6  and  O_42
    7  A    between atoms: C_10  and  C_44
    8  A    between atoms: C_12  and  C_18
    9  A    between atoms: C_14  and  N_26
   10  A    between atoms: C_14  and  C_27
   11  A    between atoms: C_35  and  N_45
   12  A    between atoms: O_42  and  C_43
                            x       y       z     vdW  Elec       q    Type
                         _______ _______ _______ _____ _____    ______ ____

>  <TORSDO>
F 12

$$$$
