=
 OpenBabel11042420363D

 49 53  0  0  1  0  0  0  0  0999 V2000
  161.0950  207.7450  155.2250 S   0  0  0  0  0  0  0  0  0  0  0  0
  161.1220  208.4000  150.5630 C   0  0  0  0  0  3  0  0  0  0  0  0
  161.5920  211.6860  149.1760 C   0  0  0  0  0  0  0  0  0  0  0  0
  161.0630  212.2730  146.7970 N   0  0  0  0  0  2  0  0  0  0  0  0
  161.0840  212.2490  154.3330 O   0  0  0  0  0  0  0  0  0  0  0  0
  160.2390  213.6590  148.4960 N   0  0  0  0  0  0  0  0  0  0  0  0
  161.3010  207.6260  153.5650 C   0  0  0  0  0  0  0  0  0  0  0  0
  159.3090  213.1400  150.6470 C   0  0  2  0  0  3  0  0  0  0  0  0
  160.9470  209.9060  153.9660 C   0  0  0  0  0  0  0  0  0  0  0  0
  162.0300  210.4980  151.2140 N   0  0  0  0  0  2  0  0  0  0  0  0
  159.8610  211.5930  152.4620 N   0  0  0  0  0  2  0  0  0  0  0  0
  162.6500  210.8000  148.5840 C   0  0  0  0  0  1  0  0  0  0  0  0
  158.4010  213.8550  151.6350 C   0  0  0  0  0  1  0  0  0  0  0  0
  161.3030  211.5070  150.4970 C   0  0  0  0  0  0  0  0  0  0  0  0
  160.9210  212.5960  148.1870 C   0  0  0  0  0  0  0  0  0  0  0  0
  161.2230  208.9110  152.9940 C   0  0  0  0  0  0  0  0  0  0  0  0
  160.4110  212.3850  151.3670 C   0  0  1  0  0  3  0  0  0  0  0  0
  161.5980  206.2240  151.5130 C   0  0  0  0  0  2  0  0  0  0  0  0
  159.9920  214.1870  149.8190 C   0  0  0  0  0  2  0  0  0  0  0  0
  160.6400  211.3070  153.6250 C   0  0  0  0  0  0  0  0  0  0  0  0
  160.8890  209.4110  155.2680 C   0  0  0  0  0  0  0  0  0  0  0  0
  161.4660  206.3940  152.9180 O   0  0  0  0  0  0  0  0  0  0  0  0
  161.4420  209.2370  151.5550 C   0  0  0  0  0  0  0  0  0  0  0  0
  160.5570  207.0400  150.7740 C   0  0  2  0  0  3  0  0  0  0  0  0
  160.4660  213.0690  145.7350 C   0  0  0  0  0  1  0  0  0  0  0  0
  160.5410  210.1930  156.4930 C   0  0  0  0  0  2  0  0  0  0  0  0
  158.7110  211.9150  156.7600 N   0  0  0  0  0  2  0  0  0  0  0  0
  159.0980  210.5660  156.4880 C   0  0  0  0  0  0  0  0  0  0  0  0
  158.2280  209.6780  156.2760 O   0  0  0  0  0  0  0  0  0  0  0  0
  157.2340  213.6580  157.2430 O   0  0  0  0  0  1  0  0  0  0  0  0
  157.3150  212.3260  156.8300 C   0  0  1  0  0  3  0  0  0  0  0  0
  156.6170  212.1270  155.4770 C   0  0  2  0  0  3  0  0  0  0  0  0
  156.6000  213.4590  154.6780 C   0  0  0  0  0  3  0  0  0  0  0  0
  155.3110  214.2440  154.8550 C   0  0  0  0  0  2  0  0  0  0  0  0
  155.5670  213.4850  153.5660 C   0  0  0  0  0  2  0  0  0  0  0  0
  155.2920  210.1090  154.7740 C   0  0  0  0  0  1  0  0  0  0  0  0
  155.0280  211.0120  156.9440 O   0  0  0  0  0  1  0  0  0  0  0  0
  155.2740  211.3720  155.6160 C   0  0  1  0  0  3  0  0  0  0  0  0
  160.2940  206.4500  149.5360 O   0  0  0  0  0  0  0  0  0  0  0  0
  161.4410  205.7090  149.2390 C   0  0  1  0  0  3  0  0  0  0  0  0
  161.1160  204.3550  149.1220 O   0  0  0  0  0  1  0  0  0  0  0  0
  162.1040  206.2190  147.9580 C   0  0  0  0  0  2  0  0  0  0  0  0
  162.0620  204.9230  145.7510 N   0  0  0  0  0  0  0  0  0  0  0  0
  160.2030  206.1380  146.5340 O   0  0  0  0  0  0  0  0  0  0  0  0
  161.3920  205.7600  146.7190 C   0  0  0  0  0  0  0  0  0  0  0  0
  163.4930  204.6900  145.8680 C   0  0  0  0  0  1  0  0  0  0  0  0
  161.4000  204.3440  144.6470 N   0  0  0  0  0  2  0  0  0  0  0  0
  159.4830  202.5770  144.8440 C   0  0  0  0  0  3  0  0  0  0  0  0
  160.3690  203.3940  144.7500 C   0  0  0  0  0  0  0  0  0  0  0  0
  1 21  1  0  0  0  0
  2 24  1  0  0  0  0
  2 23  2  0  0  0  0
  3 14  2  0  0  0  0
  4 15  1  0  0  0  0
  6 19  1  0  0  0  0
  7  1  1  0  0  0  0
  8 17  1  0  0  0  0
  8 13  1  1  0  0  0
  9 21  2  0  0  0  0
 10 23  1  0  0  0  0
 11 20  1  0  0  0  0
 12  3  1  0  0  0  0
 14 10  1  0  0  0  0
 15  6  2  0  0  0  0
 15  3  1  0  0  0  0
 16  7  2  0  0  0  0
 16  9  1  0  0  0  0
 17 14  1  6  0  0  0
 17 11  1  0  0  0  0
 18 22  1  0  0  0  0
 19  8  1  0  0  0  0
 20  9  1  0  0  0  0
 20  5  2  0  0  0  0
 21 26  1  0  0  0  0
 22  7  1  0  0  0  0
 23 16  1  0  0  0  0
 24 39  1  6  0  0  0
 24 18  1  0  0  0  0
 25  4  1  0  0  0  0
 27 31  1  0  0  0  0
 28 26  1  0  0  0  0
 28 27  1  0  0  0  0
 29 28  2  0  0  0  0
 31 30  1  6  0  0  0
 32 38  1  1  0  0  0
 32 31  1  0  0  0  0
 33 34  1  0  0  0  0
 33 32  1  0  0  0  0
 35 33  1  0  0  0  0
 35 34  1  0  0  0  0
 38 36  1  6  0  0  0
 38 37  1  0  0  0  0
 40 41  1  6  0  0  0
 40 39  1  0  0  0  0
 42 40  1  0  0  0  0
 43 46  1  0  0  0  0
 43 45  1  0  0  0  0
 44 45  2  0  0  0  0
 45 42  1  0  0  0  0
 47 49  1  0  0  0  0
 47 43  1  0  0  0  0
 49 48  3  0  0  0  0
M  END
>  <MODEL>
1

>  <REMARK>
 VINA RESULT:      -5.1      0.000      0.000
  Name = 
  12 active torsions:
  status: ('A' for Active; 'I' for Inactive)
    1  A    between atoms: C_2  and  O_42
    2  A    between atoms: C_2  and  C_43
    3  A    between atoms: C_5  and  C_12
    4  A    between atoms: C_5  and  C_34
    5  A    between atoms: C_5  and  C_35
    6  A    between atoms: N_11  and  C_34
    7  A    between atoms: C_13  and  C_36
    8  A    between atoms: N_16  and  N_22
    9  A    between atoms: N_22  and  C_45
   10  A    between atoms: C_36  and  C_39
   11  A    between atoms: O_42  and  C_48
   12  A    between atoms: C_43  and  C_46
                            x       y       z     vdW  Elec       q    Type
                         _______ _______ _______ _____ _____    ______ ____

>  <TORSDO>
F 12

$$$$
=
 OpenBabel11042420363D

 49 53  0  0  1  0  0  0  0  0999 V2000
  162.2680  209.8500  149.8180 S   0  0  0  0  0  0  0  0  0  0  0  0
  159.4190  213.0550  151.7590 C   0  0  0  0  0  3  0  0  0  0  0  0
  158.8120  213.0630  155.3050 C   0  0  0  0  0  0  0  0  0  0  0  0
  156.9190  214.3020  156.3830 N   0  0  0  0  0  2  0  0  0  0  0  0
  161.5330  208.7520  154.2160 O   0  0  0  0  0  0  0  0  0  0  0  0
  157.2480  212.0540  156.9540 N   0  0  0  0  0  0  0  0  0  0  0  0
  161.4230  211.2360  150.2380 C   0  0  0  0  0  0  0  0  0  0  0  0
  157.8450  210.1540  155.6140 C   0  0  2  0  0  3  0  0  0  0  0  0
  161.2950  209.8590  152.1270 C   0  0  0  0  0  0  0  0  0  0  0  0
  160.4500  212.2590  153.7470 N   0  0  0  0  0  2  0  0  0  0  0  0
  159.4510  209.7170  153.8190 N   0  0  0  0  0  2  0  0  0  0  0  0
  159.3240  214.4260  154.9400 C   0  0  0  0  0  1  0  0  0  0  0  0
  157.7000  208.6460  155.7480 C   0  0  0  0  0  1  0  0  0  0  0  0
  159.3970  211.9970  154.6860 C   0  0  0  0  0  0  0  0  0  0  0  0
  157.6420  213.0710  156.2460 C   0  0  0  0  0  0  0  0  0  0  0  0
  160.9620  211.1160  151.5620 C   0  0  0  0  0  0  0  0  0  0  0  0
  159.1860  210.5220  155.0080 C   0  0  1  0  0  3  0  0  0  0  0  0
  160.4630  213.4610  149.6110 C   0  0  0  0  0  2  0  0  0  0  0  0
  157.8380  210.7360  156.9970 C   0  0  0  0  0  2  0  0  0  0  0  0
  160.7880  209.3970  153.4320 C   0  0  0  0  0  0  0  0  0  0  0  0
  162.0640  209.0570  151.2840 C   0  0  0  0  0  0  0  0  0  0  0  0
  161.2080  212.2840  149.3320 O   0  0  0  0  0  0  0  0  0  0  0  0
  160.2430  212.1730  152.3310 C   0  0  0  0  0  0  0  0  0  0  0  0
  159.1550  213.1170  150.2960 C   0  0  2  0  0  3  0  0  0  0  0  0
  155.7670  214.4490  157.2590 C   0  0  0  0  0  1  0  0  0  0  0  0
  162.5040  207.6560  151.5610 C   0  0  0  0  0  2  0  0  0  0  0  0
  161.8640  206.2290  149.5770 N   0  0  0  0  0  2  0  0  0  0  0  0
  161.5910  206.6770  150.9070 C   0  0  0  0  0  0  0  0  0  0  0  0
  160.5660  206.2770  151.5220 O   0  0  0  0  0  0  0  0  0  0  0  0
  160.1180  206.0510  148.0360 O   0  0  0  0  0  1  0  0  0  0  0  0
  160.9750  205.3210  148.8640 C   0  0  1  0  0  3  0  0  0  0  0  0
  161.7770  204.2930  148.0530 C   0  0  2  0  0  3  0  0  0  0  0  0
  161.6110  204.5570  146.5310 C   0  0  0  0  0  3  0  0  0  0  0  0
  162.9370  204.6990  145.8030 C   0  0  0  0  0  2  0  0  0  0  0  0
  162.0970  205.9280  146.0980 C   0  0  0  0  0  2  0  0  0  0  0  0
  160.5200  202.8300  149.6670 C   0  0  0  0  0  1  0  0  0  0  0  0
  161.0810  202.0250  147.5150 O   0  0  0  0  0  1  0  0  0  0  0  0
  161.5440  202.8460  148.5470 C   0  0  1  0  0  3  0  0  0  0  0  0
  158.2160  214.1170  150.0360 O   0  0  0  0  0  0  0  0  0  0  0  0
  157.2950  213.5290  149.1650 C   0  0  1  0  0  3  0  0  0  0  0  0
  155.9990  213.6940  149.6610 O   0  0  0  0  0  1  0  0  0  0  0  0
  157.4170  214.1220  147.7600 C   0  0  0  0  0  2  0  0  0  0  0  0
  159.1630  213.2360  146.1110 N   0  0  0  0  0  0  0  0  0  0  0  0
  157.0930  212.1670  146.4500 O   0  0  0  0  0  0  0  0  0  0  0  0
  157.8720  213.1130  146.7470 C   0  0  0  0  0  0  0  0  0  0  0  0
  159.9440  214.4500  146.2950 C   0  0  0  0  0  1  0  0  0  0  0  0
  159.7010  212.2430  145.2650 N   0  0  0  0  0  2  0  0  0  0  0  0
  159.7800  212.4070  142.6560 C   0  0  0  0  0  3  0  0  0  0  0  0
  159.7400  212.3320  143.8630 C   0  0  0  0  0  0  0  0  0  0  0  0
  1  7  1  0  0  0  0
  1 21  1  0  0  0  0
  2 23  2  0  0  0  0
  3 15  1  0  0  0  0
  4 25  1  0  0  0  0
  6 19  1  0  0  0  0
  7 16  2  0  0  0  0
  8 13  1  1  0  0  0
  8 19  1  0  0  0  0
  9 20  1  0  0  0  0
 10 14  1  0  0  0  0
 12  3  1  0  0  0  0
 14 17  1  0  0  0  0
 14  3  2  0  0  0  0
 15  4  1  0  0  0  0
 15  6  2  0  0  0  0
 16  9  1  0  0  0  0
 16 23  1  0  0  0  0
 17 11  1  6  0  0  0
 17  8  1  0  0  0  0
 18 24  1  0  0  0  0
 20 11  1  0  0  0  0
 20  5  2  0  0  0  0
 21 26  1  0  0  0  0
 21  9  2  0  0  0  0
 22 18  1  0  0  0  0
 22  7  1  0  0  0  0
 23 10  1  0  0  0  0
 24 39  1  1  0  0  0
 24  2  1  0  0  0  0
 27 28  1  0  0  0  0
 28 29  2  0  0  0  0
 28 26  1  0  0  0  0
 31 30  1  6  0  0  0
 31 27  1  0  0  0  0
 32 38  1  6  0  0  0
 32 31  1  0  0  0  0
 33 32  1  0  0  0  0
 34 35  1  0  0  0  0
 34 33  1  0  0  0  0
 35 33  1  0  0  0  0
 37 38  1  0  0  0  0
 38 36  1  1  0  0  0
 40 41  1  1  0  0  0
 40 39  1  0  0  0  0
 42 40  1  0  0  0  0
 43 46  1  0  0  0  0
 43 45  1  0  0  0  0
 44 45  2  0  0  0  0
 45 42  1  0  0  0  0
 47 43  1  0  0  0  0
 48 49  3  0  0  0  0
 49 47  1  0  0  0  0
M  END
>  <MODEL>
2

>  <REMARK>
 VINA RESULT:      -4.5      2.729      8.558
  Name = 
  12 active torsions:
  status: ('A' for Active; 'I' for Inactive)
    1  A    between atoms: C_2  and  O_42
    2  A    between atoms: C_2  and  C_43
    3  A    between atoms: C_5  and  C_12
    4  A    between atoms: C_5  and  C_34
    5  A    between atoms: C_5  and  C_35
    6  A    between atoms: N_11  and  C_34
    7  A    between atoms: C_13  and  C_36
    8  A    between atoms: N_16  and  N_22
    9  A    between atoms: N_22  and  C_45
   10  A    between atoms: C_36  and  C_39
   11  A    between atoms: O_42  and  C_48
   12  A    between atoms: C_43  and  C_46
                            x       y       z     vdW  Elec       q    Type
                         _______ _______ _______ _____ _____    ______ ____

>  <TORSDO>
F 12

$$$$
=
 OpenBabel11042420363D

 49 53  0  0  1  0  0  0  0  0999 V2000
  160.8930  208.3630  154.5700 S   0  0  0  0  0  0  0  0  0  0  0  0
  161.7750  208.9250  149.9800 C   0  0  0  0  0  3  0  0  0  0  0  0
  162.0300  212.2170  148.5510 C   0  0  0  0  0  0  0  0  0  0  0  0
  161.9170  212.6690  146.0880 N   0  0  0  0  0  2  0  0  0  0  0  0
  160.4010  212.7940  153.4690 O   0  0  0  0  0  0  0  0  0  0  0  0
  160.5690  213.9440  147.5180 N   0  0  0  0  0  0  0  0  0  0  0  0
  161.4480  208.2460  152.9920 C   0  0  0  0  0  0  0  0  0  0  0  0
  159.3060  213.3290  149.4640 C   0  0  2  0  0  3  0  0  0  0  0  0
  160.6880  210.4510  153.2000 C   0  0  0  0  0  0  0  0  0  0  0  0
  162.2120  211.1500  150.6920 N   0  0  0  0  0  2  0  0  0  0  0  0
  159.6960  211.9210  151.4270 N   0  0  0  0  0  2  0  0  0  0  0  0
  163.3040  211.4930  148.2270 C   0  0  0  0  0  1  0  0  0  0  0  0
  158.1200  213.9150  150.2140 C   0  0  0  0  0  1  0  0  0  0  0  0
  161.5060  212.0210  149.7950 C   0  0  0  0  0  0  0  0  0  0  0  0
  161.4480  212.9930  147.4040 C   0  0  0  0  0  0  0  0  0  0  0  0
  161.3010  209.4920  152.3540 C   0  0  0  0  0  0  0  0  0  0  0  0
  160.3360  212.7670  150.4250 C   0  0  1  0  0  3  0  0  0  0  0  0
  162.3610  206.8670  151.1130 C   0  0  0  0  0  2  0  0  0  0  0  0
  159.9820  214.4530  148.7360 C   0  0  0  0  0  2  0  0  0  0  0  0
  160.2550  211.7810  152.7350 C   0  0  0  0  0  0  0  0  0  0  0  0
  160.4400  209.9780  154.4880 C   0  0  0  0  0  0  0  0  0  0  0  0
  161.9220  207.0410  152.4530 O   0  0  0  0  0  0  0  0  0  0  0  0
  161.7580  209.8200  150.9720 C   0  0  0  0  0  0  0  0  0  0  0  0
  161.3850  207.4990  150.1420 C   0  0  2  0  0  3  0  0  0  0  0  0
  161.4390  213.3430  144.8900 C   0  0  0  0  0  1  0  0  0  0  0  0
  159.7380  210.7200  155.5780 C   0  0  0  0  0  2  0  0  0  0  0  0
  158.6240  212.9850  155.4630 N   0  0  0  0  0  2  0  0  0  0  0  0
  158.7010  211.6300  155.0140 C   0  0  0  0  0  0  0  0  0  0  0  0
  157.8780  211.1860  154.1680 O   0  0  0  0  0  0  0  0  0  0  0  0
  157.8710  214.2950  153.6820 O   0  0  0  0  0  1  0  0  0  0  0  0
  157.5940  213.9040  154.9940 C   0  0  1  0  0  3  0  0  0  0  0  0
  156.2020  213.2630  155.0940 C   0  0  2  0  0  3  0  0  0  0  0  0
  155.1610  214.1100  154.3120 C   0  0  0  0  0  3  0  0  0  0  0  0
  154.4060  213.3060  153.2660 C   0  0  0  0  0  2  0  0  0  0  0  0
  155.4960  214.2720  152.8400 C   0  0  0  0  0  2  0  0  0  0  0  0
  154.5490  213.5420  156.9690 C   0  0  0  0  0  1  0  0  0  0  0  0
  155.6780  211.4850  156.6700 O   0  0  0  0  0  1  0  0  0  0  0  0
  155.8410  212.8680  156.5450 C   0  0  1  0  0  3  0  0  0  0  0  0
  161.4700  206.8510  148.9080 O   0  0  0  0  0  0  0  0  0  0  0  0
  161.0920  205.5310  149.1660 C   0  0  1  0  0  3  0  0  0  0  0  0
  159.7240  205.4740  149.4430 O   0  0  0  0  0  1  0  0  0  0  0  0
  161.4440  204.6220  147.9870 C   0  0  0  0  0  2  0  0  0  0  0  0
  161.1190  202.1920  147.2500 N   0  0  0  0  0  0  0  0  0  0  0  0
  161.2110  202.8190  149.5170 O   0  0  0  0  0  0  0  0  0  0  0  0
  161.2600  203.1670  148.3070 C   0  0  0  0  0  0  0  0  0  0  0  0
  160.9480  202.6390  145.8760 C   0  0  0  0  0  1  0  0  0  0  0  0
  161.0900  200.8010  147.4860 N   0  0  0  0  0  2  0  0  0  0  0  0
  161.4480  198.9870  145.6380 C   0  0  0  0  0  3  0  0  0  0  0  0
  161.2840  199.8240  146.4950 C   0  0  0  0  0  0  0  0  0  0  0  0
  2 24  1  0  0  0  0
  2 23  2  0  0  0  0
  3 14  2  0  0  0  0
  4 15  1  0  0  0  0
  6 19  1  0  0  0  0
  7  1  1  0  0  0  0
  8 13  1  1  0  0  0
  8 17  1  0  0  0  0
  9 21  2  0  0  0  0
 10 23  1  0  0  0  0
 11 20  1  0  0  0  0
 12  3  1  0  0  0  0
 14 10  1  0  0  0  0
 15  6  2  0  0  0  0
 15  3  1  0  0  0  0
 16  7  2  0  0  0  0
 16  9  1  0  0  0  0
 17 14  1  6  0  0  0
 17 11  1  0  0  0  0
 18 22  1  0  0  0  0
 19  8  1  0  0  0  0
 20  9  1  0  0  0  0
 20  5  2  0  0  0  0
 21  1  1  0  0  0  0
 21 26  1  0  0  0  0
 22  7  1  0  0  0  0
 23 16  1  0  0  0  0
 24 39  1  6  0  0  0
 24 18  1  0  0  0  0
 25  4  1  0  0  0  0
 28 27  1  0  0  0  0
 28 26  1  0  0  0  0
 29 28  2  0  0  0  0
 31 30  1  6  0  0  0
 31 27  1  0  0  0  0
 32 31  1  1  0  0  0
 32 38  1  0  0  0  0
 33 32  1  0  0  0  0
 34 33  1  0  0  0  0
 35 34  1  0  0  0  0
 35 33  1  0  0  0  0
 38 37  1  0  0  0  0
 38 36  1  6  0  0  0
 39 40  1  0  0  0  0
 40 41  1  6  0  0  0
 42 45  1  0  0  0  0
 42 40  1  0  0  0  0
 43 47  1  0  0  0  0
 43 45  1  0  0  0  0
 45 44  2  0  0  0  0
 46 43  1  0  0  0  0
 48 49  3  0  0  0  0
 49 47  1  0  0  0  0
M  END
>  <MODEL>
3

>  <REMARK>
 VINA RESULT:      -3.5      1.738      2.059
  Name = 
  12 active torsions:
  status: ('A' for Active; 'I' for Inactive)
    1  A    between atoms: C_2  and  O_42
    2  A    between atoms: C_2  and  C_43
    3  A    between atoms: C_5  and  C_12
    4  A    between atoms: C_5  and  C_34
    5  A    between atoms: C_5  and  C_35
    6  A    between atoms: N_11  and  C_34
    7  A    between atoms: C_13  and  C_36
    8  A    between atoms: N_16  and  N_22
    9  A    between atoms: N_22  and  C_45
   10  A    between atoms: C_36  and  C_39
   11  A    between atoms: O_42  and  C_48
   12  A    between atoms: C_43  and  C_46
                            x       y       z     vdW  Elec       q    Type
                         _______ _______ _______ _____ _____    ______ ____

>  <TORSDO>
F 12

$$$$
=
 OpenBabel11042420363D

 49 53  0  0  1  0  0  0  0  0999 V2000
  161.6170  205.7550  148.9200 S   0  0  0  0  0  0  0  0  0  0  0  0
  161.8670  209.8550  151.2190 C   0  0  0  0  0  3  0  0  0  0  0  0
  162.0960  209.9360  154.8080 C   0  0  0  0  0  0  0  0  0  0  0  0
  161.6600  211.9890  156.1780 N   0  0  0  0  0  2  0  0  0  0  0  0
  161.2180  204.9860  153.4300 O   0  0  0  0  0  0  0  0  0  0  0  0
  160.6010  209.9930  156.7940 N   0  0  0  0  0  0  0  0  0  0  0  0
  161.9350  207.3220  149.4250 C   0  0  0  0  0  0  0  0  0  0  0  0
  159.5950  208.2620  155.4680 C   0  0  2  0  0  3  0  0  0  0  0  0
  161.3340  206.1720  151.3750 C   0  0  0  0  0  0  0  0  0  0  0  0
  162.5220  208.4210  152.9970 N   0  0  0  0  0  2  0  0  0  0  0  0
  160.1830  207.0730  153.4120 N   0  0  0  0  0  2  0  0  0  0  0  0
  163.2710  210.7020  154.2720 C   0  0  0  0  0  1  0  0  0  0  0  0
  158.5620  207.1740  155.7130 C   0  0  0  0  0  1  0  0  0  0  0  0
  161.7450  208.7970  154.1440 C   0  0  0  0  0  0  0  0  0  0  0  0
  161.4020  210.5940  155.9650 C   0  0  0  0  0  0  0  0  0  0  0  0
  161.7670  207.4030  150.8210 C   0  0  0  0  0  0  0  0  0  0  0  0
  160.7200  207.7590  154.5830 C   0  0  1  0  0  3  0  0  0  0  0  0
  162.4940  209.7010  148.8840 C   0  0  0  0  0  2  0  0  0  0  0  0
  160.2220  208.5980  156.7890 C   0  0  0  0  0  2  0  0  0  0  0  0
  160.9130  206.0200  152.7790 C   0  0  0  0  0  0  0  0  0  0  0  0
  161.2450  205.1420  150.4390 C   0  0  0  0  0  0  0  0  0  0  0  0
  162.2600  208.3470  148.5250 O   0  0  0  0  0  0  0  0  0  0  0  0
  162.0410  208.6060  151.6600 C   0  0  0  0  0  0  0  0  0  0  0  0
  161.4260  210.1950  149.8390 C   0  0  2  0  0  3  0  0  0  0  0  0
  161.0540  212.7490  157.2600 C   0  0  0  0  0  1  0  0  0  0  0  0
  160.7470  203.7580  150.6980 C   0  0  0  0  0  2  0  0  0  0  0  0
  161.1450  203.1490  148.2780 N   0  0  0  0  0  2  0  0  0  0  0  0
  161.2540  202.8120  149.6630 C   0  0  0  0  0  0  0  0  0  0  0  0
  161.7450  201.7070  150.0190 O   0  0  0  0  0  0  0  0  0  0  0  0
  161.0060  200.9770  147.4320 O   0  0  0  0  0  1  0  0  0  0  0  0
  161.5660  202.2400  147.2200 C   0  0  1  0  0  3  0  0  0  0  0  0
  161.1760  202.7880  145.8400 C   0  0  2  0  0  3  0  0  0  0  0  0
  161.2990  204.3360  145.8190 C   0  0  0  0  0  3  0  0  0  0  0  0
  161.8060  204.8760  144.4920 C   0  0  0  0  0  2  0  0  0  0  0  0
  162.7290  204.8290  145.6950 C   0  0  0  0  0  2  0  0  0  0  0  0
  159.1910  203.1240  144.3320 C   0  0  0  0  0  1  0  0  0  0  0  0
  160.0730  200.9570  144.6790 O   0  0  0  0  0  1  0  0  0  0  0  0
  159.8530  202.1790  145.3190 C   0  0  1  0  0  3  0  0  0  0  0  0
  161.2990  211.5810  149.7200 O   0  0  0  0  0  0  0  0  0  0  0  0
  161.6020  211.8580  148.3840 C   0  0  1  0  0  3  0  0  0  0  0  0
  160.8160  211.0640  147.5440 O   0  0  0  0  0  1  0  0  0  0  0  0
  161.3980  213.3410  148.0740 C   0  0  0  0  0  2  0  0  0  0  0  0
  160.8850  213.8320  145.6150 N   0  0  0  0  0  0  0  0  0  0  0  0
  163.0740  213.8830  146.4800 O   0  0  0  0  0  0  0  0  0  0  0  0
  161.8430  213.7070  146.6890 C   0  0  0  0  0  0  0  0  0  0  0  0
  159.5100  213.4030  145.8220 C   0  0  0  0  0  1  0  0  0  0  0  0
  161.2260  214.3140  144.3330 N   0  0  0  0  0  2  0  0  0  0  0  0
  161.6680  212.7900  142.2550 C   0  0  0  0  0  3  0  0  0  0  0  0
  161.4610  213.4960  143.2140 C   0  0  0  0  0  0  0  0  0  0  0  0
  1  7  1  0  0  0  0
  1 21  1  0  0  0  0
  2 23  2  0  0  0  0
  3 15  1  0  0  0  0
  4 25  1  0  0  0  0
  7 16  2  0  0  0  0
  8 13  1  1  0  0  0
  8 19  1  0  0  0  0
  9 20  1  0  0  0  0
 10 14  1  0  0  0  0
 12  3  1  0  0  0  0
 14 17  1  0  0  0  0
 14  3  2  0  0  0  0
 15  4  1  0  0  0  0
 15  6  2  0  0  0  0
 16  9  1  0  0  0  0
 16 23  1  0  0  0  0
 17 11  1  6  0  0  0
 17  8  1  0  0  0  0
 18 24  1  0  0  0  0
 19  6  1  0  0  0  0
 20 11  1  0  0  0  0
 20  5  2  0  0  0  0
 21 26  1  0  0  0  0
 21  9  2  0  0  0  0
 22 18  1  0  0  0  0
 22  7  1  0  0  0  0
 23 10  1  0  0  0  0
 24 39  1  1  0  0  0
 24  2  1  0  0  0  0
 27 28  1  0  0  0  0
 28 29  2  0  0  0  0
 28 26  1  0  0  0  0
 31 30  1  1  0  0  0
 31 27  1  0  0  0  0
 32 38  1  1  0  0  0
 32 31  1  0  0  0  0
 33 32  1  0  0  0  0
 34 35  1  0  0  0  0
 34 33  1  0  0  0  0
 35 33  1  0  0  0  0
 37 38  1  0  0  0  0
 38 36  1  6  0  0  0
 40 41  1  6  0  0  0
 40 39  1  0  0  0  0
 42 40  1  0  0  0  0
 43 46  1  0  0  0  0
 43 45  1  0  0  0  0
 44 45  2  0  0  0  0
 45 42  1  0  0  0  0
 47 43  1  0  0  0  0
 48 49  3  0  0  0  0
 49 47  1  0  0  0  0
M  END
>  <MODEL>
4

>  <REMARK>
 VINA RESULT:      -2.8      3.658      9.237
  Name = 
  12 active torsions:
  status: ('A' for Active; 'I' for Inactive)
    1  A    between atoms: C_2  and  O_42
    2  A    between atoms: C_2  and  C_43
    3  A    between atoms: C_5  and  C_12
    4  A    between atoms: C_5  and  C_34
    5  A    between atoms: C_5  and  C_35
    6  A    between atoms: N_11  and  C_34
    7  A    between atoms: C_13  and  C_36
    8  A    between atoms: N_16  and  N_22
    9  A    between atoms: N_22  and  C_45
   10  A    between atoms: C_36  and  C_39
   11  A    between atoms: O_42  and  C_48
   12  A    between atoms: C_43  and  C_46
                            x       y       z     vdW  Elec       q    Type
                         _______ _______ _______ _____ _____    ______ ____

>  <TORSDO>
F 12

$$$$
