=
 OpenBabel11042422273D

 34 38  0  0  1  0  0  0  0  0999 V2000
  161.8050  207.6680  152.0400 N   0  0  0  0  0  0  0  0  0  0  0  0
  160.6520  208.2860  155.5800 C   0  0  0  0  0  3  0  0  0  0  0  0
  160.8580  208.4240  154.2110 C   0  0  0  0  0  0  0  0  0  0  0  0
  159.2020  212.2210  157.1160 N   0  0  0  0  0  2  0  0  0  0  0  0
  159.6400  213.3420  156.3450 C   0  0  0  0  0  0  0  0  0  0  0  0
  160.2970  209.5170  153.5420 C   0  0  0  0  0  0  0  0  0  0  0  0
  161.2800  208.6850  151.4220 C   0  0  0  0  0  0  0  0  0  0  0  0
  159.1250  212.9870  153.8510 C   0  0  0  0  0  0  0  0  0  0  0  0
  158.6410  214.0310  152.9100 C   0  0  0  0  0  1  0  0  0  0  0  0
  159.8990  209.1940  156.2510 N   0  0  0  0  0  0  0  0  0  0  0  0
  158.4420  211.1350  156.4890 C   0  0  0  0  0  2  0  0  0  0  0  0
  161.6860  207.4060  153.4790 C   0  0  0  0  0  2  0  0  0  0  0  0
  160.5210  209.6590  152.1410 N   0  0  0  0  0  2  0  0  0  0  0  0
  159.0310  211.6010  153.4930 N   0  0  0  0  0  2  0  0  0  0  0  0
  159.5470  210.4760  154.2440 C   0  0  0  0  0  0  0  0  0  0  0  0
  159.4330  213.3050  155.0670 C   0  0  0  0  0  0  0  0  0  0  0  0
  160.4060  214.4510  156.9710 C   0  0  0  0  0  1  0  0  0  0  0  0
  159.3290  210.2690  155.6390 C   0  0  0  0  0  0  0  0  0  0  0  0
  161.5000  208.8430  149.9540 C   0  0  1  0  0  3  0  0  0  0  0  0
  162.3500  209.9970  149.6890 N   0  0  0  0  0  2  0  0  0  0  0  0
  162.0800  210.9250  148.6380 C   0  0  0  0  0  0  0  0  0  0  0  0
  161.1110  210.7440  147.8540 O   0  0  0  0  0  0  0  0  0  0  0  0
  162.9550  212.1150  148.4670 C   0  0  0  0  0  1  0  0  0  0  0  0
  162.1380  207.5830  149.3880 C   0  0  0  0  0  2  0  0  0  0  0  0
  161.1110  206.6510  148.9440 N   0  0  0  0  0  2  0  0  0  0  0  0
  161.4030  204.5120  147.8740 C   0  0  0  0  0  0  0  0  0  0  0  0
  160.9030  202.3360  148.9320 C   0  0  0  0  0  3  0  0  0  0  0  0
  160.2310  203.0320  150.0720 C   0  0  0  0  0  2  0  0  0  0  0  0
  161.2500  205.2260  149.0090 C   0  0  0  0  0  0  0  0  0  0  0  0
  161.4190  203.0290  147.9140 C   0  0  0  0  0  3  0  0  0  0  0  0
  161.2910  204.4020  150.6230 S   0  0  0  0  0  0  0  0  0  0  0  0
  161.6980  204.1760  145.4320 C   0  0  0  0  0  2  0  0  0  0  0  0
  161.5870  205.2030  146.5480 C   0  0  0  0  0  3  0  0  0  0  0  0
  162.9390  204.8750  145.9320 C   0  0  0  0  0  2  0  0  0  0  0  0
  1 12  1  0  0  0  0
  2 10  1  0  0  0  0
  3  2  2  0  0  0  0
  5 17  1  0  0  0  0
  5  4  1  0  0  0  0
  6  3  1  0  0  0  0
  6 15  2  0  0  0  0
  7  1  2  0  0  0  0
  7 13  1  0  0  0  0
  8 16  2  0  0  0  0
  9  8  1  0  0  0  0
 11  4  1  0  0  0  0
 12  3  1  0  0  0  0
 13  6  1  0  0  0  0
 14  8  1  0  0  0  0
 14 15  1  0  0  0  0
 15 18  1  0  0  0  0
 16  5  2  0  0  0  0
 18 10  2  0  0  0  0
 18 11  1  0  0  0  0
 19 24  1  1  0  0  0
 19  7  1  0  0  0  0
 20 19  1  0  0  0  0
 21 20  1  0  0  0  0
 22 21  2  0  0  0  0
 23 21  1  0  0  0  0
 25 29  1  0  0  0  0
 25 24  1  0  0  0  0
 26 30  1  0  0  0  0
 26 29  2  0  0  0  0
 27 28  1  0  0  0  0
 28 31  1  0  0  0  0
 29 31  1  0  0  0  0
 30 27  2  0  0  0  0
 32 34  1  0  0  0  0
 32 33  1  0  0  0  0
 33 26  1  0  0  0  0
 34 33  1  0  0  0  0
M  END
>  <MODEL>
1

>  <REMARK>
 VINA RESULT:      -7.8      0.000      0.000
  Name = 
  6 active torsions:
  status: ('A' for Active; 'I' for Inactive)
    1  A    between atoms: N_1  and  C_3
    2  A    between atoms: C_3  and  C_17
    3  A    between atoms: C_3  and  C_32
    4  A    between atoms: N_4  and  C_24
    5  A    between atoms: N_4  and  C_32
    6  A    between atoms: C_5  and  C_9
                            x       y       z     vdW  Elec       q    Type
                         _______ _______ _______ _____ _____    ______ ____

>  <TORSDO>
F 6

$$$$
=
 OpenBabel11042422273D

 34 38  0  0  1  0  0  0  0  0999 V2000
  162.1750  207.1660  150.8200 N   0  0  0  0  0  0  0  0  0  0  0  0
  161.4190  206.9660  154.5120 C   0  0  0  0  0  3  0  0  0  0  0  0
  161.4780  207.4090  153.1940 C   0  0  0  0  0  0  0  0  0  0  0  0
  160.1930  210.4420  157.0340 N   0  0  0  0  0  2  0  0  0  0  0  0
  160.5600  211.7120  156.4900 C   0  0  0  0  0  0  0  0  0  0  0  0
  160.8610  208.6160  152.8510 C   0  0  0  0  0  0  0  0  0  0  0  0
  161.6000  208.2890  150.5040 C   0  0  0  0  0  0  0  0  0  0  0  0
  159.7750  211.9160  154.0490 C   0  0  0  0  0  0  0  0  0  0  0  0
  159.2050  213.1370  153.4230 C   0  0  0  0  0  1  0  0  0  0  0  0
  160.7540  207.6930  155.4460 N   0  0  0  0  0  0  0  0  0  0  0  0
  159.3570  209.5150  156.2670 C   0  0  0  0  0  2  0  0  0  0  0  0
  162.2090  206.5890  152.1690 C   0  0  0  0  0  2  0  0  0  0  0  0
  160.9350  209.0700  151.5010 N   0  0  0  0  0  2  0  0  0  0  0  0
  159.6240  210.6430  153.4050 N   0  0  0  0  0  2  0  0  0  0  0  0
  160.2040  209.3860  153.8250 C   0  0  0  0  0  0  0  0  0  0  0  0
  160.2150  211.9590  155.2650 C   0  0  0  0  0  0  0  0  0  0  0  0
  161.4020  212.6620  157.2610 C   0  0  0  0  0  1  0  0  0  0  0  0
  160.1350  208.8700  155.1540 C   0  0  0  0  0  0  0  0  0  0  0  0
  161.6620  208.7730  149.0940 C   0  0  1  0  0  3  0  0  0  0  0  0
  162.4960  209.9650  149.0020 N   0  0  0  0  0  2  0  0  0  0  0  0
  162.0880  211.1350  148.2920 C   0  0  0  0  0  0  0  0  0  0  0  0
  160.9980  211.1570  147.6620 O   0  0  0  0  0  0  0  0  0  0  0  0
  162.9630  212.3380  148.2950 C   0  0  0  0  0  1  0  0  0  0  0  0
  162.2160  207.6780  148.1960 C   0  0  0  0  0  2  0  0  0  0  0  0
  161.4250  206.4630  148.3310 N   0  0  0  0  0  2  0  0  0  0  0  0
  161.3160  204.2390  147.4100 C   0  0  0  0  0  0  0  0  0  0  0  0
  161.2530  203.7250  144.9940 C   0  0  0  0  0  3  0  0  0  0  0  0
  161.5730  205.1490  144.6720 C   0  0  0  0  0  2  0  0  0  0  0  0
  161.1500  205.5690  147.2460 C   0  0  0  0  0  0  0  0  0  0  0  0
  161.1600  203.3140  146.2610 C   0  0  0  0  0  3  0  0  0  0  0  0
  160.5130  206.2270  145.6810 S   0  0  0  0  0  0  0  0  0  0  0  0
  160.8020  202.4180  149.0170 C   0  0  0  0  0  2  0  0  0  0  0  0
  161.6360  203.6650  148.7660 C   0  0  0  0  0  3  0  0  0  0  0  0
  160.4280  203.7170  149.6910 C   0  0  0  0  0  2  0  0  0  0  0  0
  1 12  1  0  0  0  0
  2 10  1  0  0  0  0
  3  2  2  0  0  0  0
  5  4  1  0  0  0  0
  5 17  1  0  0  0  0
  6  3  1  0  0  0  0
  6 15  2  0  0  0  0
  7  1  2  0  0  0  0
  7 13  1  0  0  0  0
  8 16  2  0  0  0  0
  9  8  1  0  0  0  0
 11  4  1  0  0  0  0
 12  3  1  0  0  0  0
 13  6  1  0  0  0  0
 14 15  1  0  0  0  0
 14  8  1  0  0  0  0
 15 18  1  0  0  0  0
 16  5  2  0  0  0  0
 18 10  2  0  0  0  0
 18 11  1  0  0  0  0
 19 24  1  6  0  0  0
 19  7  1  0  0  0  0
 20 19  1  0  0  0  0
 21 23  1  0  0  0  0
 21 20  1  0  0  0  0
 22 21  2  0  0  0  0
 24 25  1  0  0  0  0
 26 33  1  0  0  0  0
 27 30  2  0  0  0  0
 28 27  1  0  0  0  0
 28 31  1  0  0  0  0
 29 26  2  0  0  0  0
 29 25  1  0  0  0  0
 30 26  1  0  0  0  0
 31 29  1  0  0  0  0
 32 34  1  0  0  0  0
 33 32  1  0  0  0  0
 33 34  1  0  0  0  0
M  END
>  <MODEL>
2

>  <REMARK>
 VINA RESULT:      -7.5      1.473      2.312
  Name = 
  6 active torsions:
  status: ('A' for Active; 'I' for Inactive)
    1  A    between atoms: N_1  and  C_3
    2  A    between atoms: C_3  and  C_17
    3  A    between atoms: C_3  and  C_32
    4  A    between atoms: N_4  and  C_24
    5  A    between atoms: N_4  and  C_32
    6  A    between atoms: C_5  and  C_9
                            x       y       z     vdW  Elec       q    Type
                         _______ _______ _______ _____ _____    ______ ____

>  <TORSDO>
F 6

$$$$
=
 OpenBabel11042422273D

 34 38  0  0  1  0  0  0  0  0999 V2000
  160.8490  204.3660  152.1320 N   0  0  0  0  0  0  0  0  0  0  0  0
  160.0250  201.4340  149.9020 C   0  0  0  0  0  3  0  0  0  0  0  0
  160.5140  202.6530  150.3600 C   0  0  0  0  0  0  0  0  0  0  0  0
  160.1350  201.5420  145.4390 N   0  0  0  0  0  2  0  0  0  0  0  0
  160.0340  202.8570  144.8870 C   0  0  0  0  0  0  0  0  0  0  0  0
  161.2260  203.4770  149.4820 C   0  0  0  0  0  0  0  0  0  0  0  0
  161.5110  205.1280  151.3130 C   0  0  0  0  0  0  0  0  0  0  0  0
  161.7510  204.4340  145.9730 C   0  0  0  0  0  0  0  0  0  0  0  0
  162.5360  205.4770  145.2640 C   0  0  0  0  0  1  0  0  0  0  0  0
  160.2540  201.0450  148.6230 N   0  0  0  0  0  0  0  0  0  0  0  0
  161.2060  201.2100  146.3840 C   0  0  0  0  0  2  0  0  0  0  0  0
  160.2620  203.0670  151.7830 C   0  0  0  0  0  2  0  0  0  0  0  0
  161.7160  204.7310  149.9540 N   0  0  0  0  0  2  0  0  0  0  0  0
  162.1430  204.0110  147.2860 N   0  0  0  0  0  2  0  0  0  0  0  0
  161.4330  203.0900  148.1480 C   0  0  0  0  0  0  0  0  0  0  0  0
  160.8510  203.7570  145.3350 C   0  0  0  0  0  0  0  0  0  0  0  0
  158.9560  203.2030  143.9250 C   0  0  0  0  0  1  0  0  0  0  0  0
  160.9470  201.8120  147.7360 C   0  0  0  0  0  0  0  0  0  0  0  0
  162.0360  206.4400  151.7940 C   0  0  1  0  0  3  0  0  0  0  0  0
  161.5260  207.5260  150.9670 N   0  0  0  0  0  2  0  0  0  0  0  0
  162.1930  207.9700  149.7850 C   0  0  0  0  0  0  0  0  0  0  0  0
  163.2950  207.4650  149.4420 O   0  0  0  0  0  0  0  0  0  0  0  0
  161.5810  209.0400  148.9540 C   0  0  0  0  0  1  0  0  0  0  0  0
  161.6340  206.6560  153.2450 C   0  0  0  0  0  2  0  0  0  0  0  0
  160.7810  207.8310  153.3640 N   0  0  0  0  0  2  0  0  0  0  0  0
  160.7750  210.1040  154.1620 C   0  0  0  0  0  0  0  0  0  0  0  0
  161.7060  210.8300  156.3320 C   0  0  0  0  0  3  0  0  0  0  0  0
  162.3320  209.4860  156.5250 C   0  0  0  0  0  2  0  0  0  0  0  0
  160.8870  208.7860  154.4270 C   0  0  0  0  0  0  0  0  0  0  0  0
  161.0100  211.1090  155.2270 C   0  0  0  0  0  3  0  0  0  0  0  0
  161.1010  208.2090  156.1320 S   0  0  0  0  0  0  0  0  0  0  0  0
  160.0800  212.0730  152.8180 C   0  0  0  0  0  2  0  0  0  0  0  0
  160.3830  210.5830  152.7870 C   0  0  0  0  0  3  0  0  0  0  0  0
  158.9450  211.0790  152.7600 C   0  0  0  0  0  2  0  0  0  0  0  0
  2  3  1  0  0  0  0
  3 12  1  0  0  0  0
  4 11  1  0  0  0  0
  5 16  2  0  0  0  0
  5  4  1  0  0  0  0
  6 13  1  0  0  0  0
  6  3  2  0  0  0  0
  7 19  1  0  0  0  0
  7  1  2  0  0  0  0
  8 14  1  0  0  0  0
  9  8  1  0  0  0  0
 10  2  2  0  0  0  0
 11 18  1  0  0  0  0
 12  1  1  0  0  0  0
 13  7  1  0  0  0  0
 14 15  1  0  0  0  0
 15  6  1  0  0  0  0
 16  8  2  0  0  0  0
 17  5  1  0  0  0  0
 18 15  2  0  0  0  0
 18 10  1  0  0  0  0
 19 24  1  1  0  0  0
 20 19  1  0  0  0  0
 21 20  1  0  0  0  0
 22 21  2  0  0  0  0
 23 21  1  0  0  0  0
 24 25  1  0  0  0  0
 25 29  1  0  0  0  0
 26 29  2  0  0  0  0
 26 30  1  0  0  0  0
 27 28  1  0  0  0  0
 29 31  1  0  0  0  0
 30 27  2  0  0  0  0
 31 28  1  0  0  0  0
 33 32  1  0  0  0  0
 33 26  1  0  0  0  0
 34 33  1  0  0  0  0
 34 32  1  0  0  0  0
M  END
>  <MODEL>
3

>  <REMARK>
 VINA RESULT:      -7.4      2.622      9.512
  Name = 
  6 active torsions:
  status: ('A' for Active; 'I' for Inactive)
    1  A    between atoms: N_1  and  C_3
    2  A    between atoms: C_3  and  C_17
    3  A    between atoms: C_3  and  C_32
    4  A    between atoms: N_4  and  C_24
    5  A    between atoms: N_4  and  C_32
    6  A    between atoms: C_5  and  C_9
                            x       y       z     vdW  Elec       q    Type
                         _______ _______ _______ _____ _____    ______ ____

>  <TORSDO>
F 6

$$$$
=
 OpenBabel11042422273D

 34 38  0  0  1  0  0  0  0  0999 V2000
  161.9790  210.3320  149.2480 N   0  0  0  0  0  0  0  0  0  0  0  0
  160.3430  213.6450  150.0190 C   0  0  0  0  0  3  0  0  0  0  0  0
  160.8250  212.3460  150.1410 C   0  0  0  0  0  0  0  0  0  0  0  0
  157.4910  214.3340  153.3860 N   0  0  0  0  0  2  0  0  0  0  0  0
  156.8600  213.1440  153.8650 C   0  0  0  0  0  0  0  0  0  0  0  0
  160.6580  211.6660  151.3520 C   0  0  0  0  0  0  0  0  0  0  0  0
  161.8220  209.7040  150.3760 C   0  0  0  0  0  0  0  0  0  0  0  0
  158.6110  211.3340  154.3870 C   0  0  0  0  0  0  0  0  0  0  0  0
  158.5760  210.4050  155.5460 C   0  0  0  0  0  1  0  0  0  0  0  0
  159.7340  214.2480  151.0710 N   0  0  0  0  0  0  0  0  0  0  0  0
  158.9520  214.4500  153.3720 C   0  0  0  0  0  2  0  0  0  0  0  0
  161.5070  211.6940  148.9710 C   0  0  0  0  0  2  0  0  0  0  0  0
  161.1450  210.3300  151.4680 N   0  0  0  0  0  2  0  0  0  0  0  0
  159.8240  211.4990  153.6380 N   0  0  0  0  0  2  0  0  0  0  0  0
  159.9960  212.2780  152.4300 C   0  0  0  0  0  0  0  0  0  0  0  0
  157.6260  212.1480  154.1810 C   0  0  0  0  0  0  0  0  0  0  0  0
  155.3800  213.0170  153.8880 C   0  0  0  0  0  1  0  0  0  0  0  0
  159.5550  213.6260  152.2690 C   0  0  0  0  0  0  0  0  0  0  0  0
  162.3330  208.3080  150.5150 C   0  0  1  0  0  3  0  0  0  0  0  0
  161.5050  207.5550  151.4490 N   0  0  0  0  0  2  0  0  0  0  0  0
  162.0040  206.4450  152.1940 C   0  0  0  0  0  0  0  0  0  0  0  0
  163.1830  206.0350  152.0260 O   0  0  0  0  0  0  0  0  0  0  0  0
  161.1190  205.7630  153.1770 C   0  0  0  0  0  1  0  0  0  0  0  0
  162.3420  207.6240  149.1570 C   0  0  0  0  0  2  0  0  0  0  0  0
  161.2670  206.6450  149.0770 N   0  0  0  0  0  2  0  0  0  0  0  0
  161.3100  204.3570  148.3190 C   0  0  0  0  0  0  0  0  0  0  0  0
  161.5990  203.6660  145.9650 C   0  0  0  0  0  3  0  0  0  0  0  0
  161.9500  205.0690  145.5850 C   0  0  0  0  0  2  0  0  0  0  0  0
  161.1590  205.6680  148.0330 C   0  0  0  0  0  0  0  0  0  0  0  0
  161.3280  203.3480  147.2330 C   0  0  0  0  0  3  0  0  0  0  0  0
  160.7480  206.1970  146.3490 S   0  0  0  0  0  0  0  0  0  0  0  0
  160.8420  202.4980  149.8960 C   0  0  0  0  0  2  0  0  0  0  0  0
  161.4360  203.8900  149.7460 C   0  0  0  0  0  3  0  0  0  0  0  0
  160.0720  203.6990  150.3920 C   0  0  0  0  0  2  0  0  0  0  0  0
  1  7  2  0  0  0  0
  2  3  2  0  0  0  0
  2 10  1  0  0  0  0
  3  6  1  0  0  0  0
  4  5  1  0  0  0  0
  5 17  1  0  0  0  0
  5 16  2  0  0  0  0
  6 13  1  0  0  0  0
  6 15  2  0  0  0  0
  7 19  1  0  0  0  0
  7 13  1  0  0  0  0
  8  9  1  0  0  0  0
 10 18  2  0  0  0  0
 11  4  1  0  0  0  0
 12  1  1  0  0  0  0
 12  3  1  0  0  0  0
 14  8  1  0  0  0  0
 15 14  1  0  0  0  0
 16  8  2  0  0  0  0
 18 15  1  0  0  0  0
 18 11  1  0  0  0  0
 19 24  1  6  0  0  0
 19 20  1  0  0  0  0
 20 21  1  0  0  0  0
 21 23  1  0  0  0  0
 22 21  2  0  0  0  0
 25 24  1  0  0  0  0
 26 33  1  0  0  0  0
 27 30  2  0  0  0  0
 28 27  1  0  0  0  0
 28 31  1  0  0  0  0
 29 26  2  0  0  0  0
 29 25  1  0  0  0  0
 30 26  1  0  0  0  0
 31 29  1  0  0  0  0
 32 34  1  0  0  0  0
 33 32  1  0  0  0  0
 33 34  1  0  0  0  0
M  END
>  <MODEL>
4

>  <REMARK>
 VINA RESULT:      -7.4      2.224      4.351
  Name = 
  6 active torsions:
  status: ('A' for Active; 'I' for Inactive)
    1  A    between atoms: N_1  and  C_3
    2  A    between atoms: C_3  and  C_17
    3  A    between atoms: C_3  and  C_32
    4  A    between atoms: N_4  and  C_24
    5  A    between atoms: N_4  and  C_32
    6  A    between atoms: C_5  and  C_9
                            x       y       z     vdW  Elec       q    Type
                         _______ _______ _______ _____ _____    ______ ____

>  <TORSDO>
F 6

$$$$
=
 OpenBabel11042422273D

 34 38  0  0  1  0  0  0  0  0999 V2000
  161.9880  209.1540  151.1480 N   0  0  0  0  0  0  0  0  0  0  0  0
  160.5290  212.5730  150.4940 C   0  0  0  0  0  3  0  0  0  0  0  0
  160.8670  211.3730  151.1120 C   0  0  0  0  0  0  0  0  0  0  0  0
  157.1750  214.3790  152.8250 N   0  0  0  0  0  2  0  0  0  0  0  0
  156.3680  213.4240  153.5160 C   0  0  0  0  0  0  0  0  0  0  0  0
  160.4220  211.1270  152.4150 C   0  0  0  0  0  0  0  0  0  0  0  0
  161.5730  208.9300  152.3600 C   0  0  0  0  0  0  0  0  0  0  0  0
  157.8300  211.8430  154.9210 C   0  0  0  0  0  0  0  0  0  0  0  0
  157.5030  211.3410  156.2810 C   0  0  0  0  0  1  0  0  0  0  0  0
  159.7910  213.4980  151.1580 N   0  0  0  0  0  0  0  0  0  0  0  0
  158.6190  214.4530  153.0710 C   0  0  0  0  0  2  0  0  0  0  0  0
  161.6940  210.3620  150.3690 C   0  0  0  0  0  2  0  0  0  0  0  0
  160.7620  209.8910  153.0400 N   0  0  0  0  0  2  0  0  0  0  0  0
  159.1700  211.7300  154.4190 N   0  0  0  0  0  2  0  0  0  0  0  0
  159.6280  212.0700  153.0890 C   0  0  0  0  0  0  0  0  0  0  0  0
  156.9740  212.5670  154.2760 C   0  0  0  0  0  0  0  0  0  0  0  0
  154.9030  213.3440  153.2790 C   0  0  0  0  0  1  0  0  0  0  0  0
  159.3420  213.3020  152.4280 C   0  0  0  0  0  0  0  0  0  0  0  0
  161.9270  207.6440  153.0300 C   0  0  1  0  0  3  0  0  0  0  0  0
  160.8040  207.1570  153.8200 N   0  0  0  0  0  2  0  0  0  0  0  0
  160.6820  207.4130  155.2200 C   0  0  0  0  0  0  0  0  0  0  0  0
  161.5850  208.0330  155.8410 O   0  0  0  0  0  0  0  0  0  0  0  0
  159.4750  206.9390  155.9500 C   0  0  0  0  0  1  0  0  0  0  0  0
  162.3190  206.6080  151.9860 C   0  0  0  0  0  2  0  0  0  0  0  0
  161.1400  205.8940  151.5160 N   0  0  0  0  0  2  0  0  0  0  0  0
  160.9510  204.8930  149.3320 C   0  0  0  0  0  0  0  0  0  0  0  0
  160.6470  202.4760  148.9190 C   0  0  0  0  0  3  0  0  0  0  0  0
  160.3970  202.2480  150.3760 C   0  0  0  0  0  2  0  0  0  0  0  0
  161.1950  204.7520  150.6520 C   0  0  0  0  0  0  0  0  0  0  0  0
  160.8790  203.7040  148.4480 C   0  0  0  0  0  3  0  0  0  0  0  0
  161.6640  203.1370  151.3290 S   0  0  0  0  0  0  0  0  0  0  0  0
  160.8330  206.1710  147.2060 C   0  0  0  0  0  2  0  0  0  0  0  0
  160.7740  206.2610  148.7230 C   0  0  0  0  0  3  0  0  0  0  0  0
  162.0220  206.7000  147.9720 C   0  0  0  0  0  2  0  0  0  0  0  0
  1  7  2  0  0  0  0
  2  3  2  0  0  0  0
  2 10  1  0  0  0  0
  3  6  1  0  0  0  0
  4 11  1  0  0  0  0
  4  5  1  0  0  0  0
  5 16  2  0  0  0  0
  6 13  1  0  0  0  0
  6 15  2  0  0  0  0
  7 19  1  0  0  0  0
  7 13  1  0  0  0  0
  8  9  1  0  0  0  0
 10 18  2  0  0  0  0
 12  3  1  0  0  0  0
 12  1  1  0  0  0  0
 14  8  1  0  0  0  0
 15 14  1  0  0  0  0
 16  8  2  0  0  0  0
 17  5  1  0  0  0  0
 18 11  1  0  0  0  0
 18 15  1  0  0  0  0
 19 24  1  6  0  0  0
 19 20  1  0  0  0  0
 20 21  1  0  0  0  0
 21 22  2  0  0  0  0
 21 23  1  0  0  0  0
 25 24  1  0  0  0  0
 26 29  2  0  0  0  0
 27 28  1  0  0  0  0
 28 31  1  0  0  0  0
 29 31  1  0  0  0  0
 29 25  1  0  0  0  0
 30 27  2  0  0  0  0
 30 26  1  0  0  0  0
 32 34  1  0  0  0  0
 32 33  1  0  0  0  0
 33 26  1  0  0  0  0
 34 33  1  0  0  0  0
M  END
>  <MODEL>
5

>  <REMARK>
 VINA RESULT:      -7.3      2.387      4.247
  Name = 
  6 active torsions:
  status: ('A' for Active; 'I' for Inactive)
    1  A    between atoms: N_1  and  C_3
    2  A    between atoms: C_3  and  C_17
    3  A    between atoms: C_3  and  C_32
    4  A    between atoms: N_4  and  C_24
    5  A    between atoms: N_4  and  C_32
    6  A    between atoms: C_5  and  C_9
                            x       y       z     vdW  Elec       q    Type
                         _______ _______ _______ _____ _____    ______ ____

>  <TORSDO>
F 6

$$$$
=
 OpenBabel11042422273D

 34 38  0  0  1  0  0  0  0  0999 V2000
  160.8420  205.4700  152.0040 N   0  0  0  0  0  0  0  0  0  0  0  0
  160.4440  202.1490  150.2550 C   0  0  0  0  0  3  0  0  0  0  0  0
  160.7460  203.4830  150.5120 C   0  0  0  0  0  0  0  0  0  0  0  0
  160.4570  201.6080  145.8220 N   0  0  0  0  0  2  0  0  0  0  0  0
  160.1420  202.7950  145.0910 C   0  0  0  0  0  0  0  0  0  0  0  0
  161.3050  204.2650  149.4970 C   0  0  0  0  0  0  0  0  0  0  0  0
  161.3630  206.1940  151.0560 C   0  0  0  0  0  0  0  0  0  0  0  0
  161.6120  204.7580  145.8670 C   0  0  0  0  0  0  0  0  0  0  0  0
  162.2120  205.7910  144.9840 C   0  0  0  0  0  1  0  0  0  0  0  0
  160.7090  201.6140  149.0360 N   0  0  0  0  0  0  0  0  0  0  0  0
  161.5830  201.5860  146.7600 C   0  0  0  0  0  2  0  0  0  0  0  0
  160.4580  204.0600  151.8690 C   0  0  0  0  0  2  0  0  0  0  0  0
  161.6020  205.6350  149.7630 N   0  0  0  0  0  2  0  0  0  0  0  0
  162.0890  204.5990  147.2110 N   0  0  0  0  0  2  0  0  0  0  0  0
  161.5460  203.7200  148.2240 C   0  0  0  0  0  0  0  0  0  0  0  0
  160.8170  203.8660  145.3700 C   0  0  0  0  0  0  0  0  0  0  0  0
  159.0070  202.8280  144.1330 C   0  0  0  0  0  1  0  0  0  0  0  0
  161.2570  202.3370  148.0210 C   0  0  0  0  0  0  0  0  0  0  0  0
  161.6860  207.6270  151.3230 C   0  0  1  0  0  3  0  0  0  0  0  0
  161.5840  208.4070  150.0950 N   0  0  0  0  0  2  0  0  0  0  0  0
  162.1350  209.7180  149.9710 C   0  0  0  0  0  0  0  0  0  0  0  0
  162.6900  210.2780  150.9530 O   0  0  0  0  0  0  0  0  0  0  0  0
  162.0490  210.4290  148.6670 C   0  0  0  0  0  1  0  0  0  0  0  0
  160.7390  208.1830  152.3750 C   0  0  0  0  0  2  0  0  0  0  0  0
  161.4790  208.9530  153.3650 N   0  0  0  0  0  2  0  0  0  0  0  0
  160.6280  209.3580  155.5830 C   0  0  0  0  0  0  0  0  0  0  0  0
  159.0620  211.1750  156.1730 C   0  0  0  0  0  3  0  0  0  0  0  0
  158.8380  211.4670  154.7240 C   0  0  0  0  0  2  0  0  0  0  0  0
  160.8580  209.8090  154.3320 C   0  0  0  0  0  0  0  0  0  0  0  0
  159.8730  210.1850  156.5550 C   0  0  0  0  0  3  0  0  0  0  0  0
  160.4500  211.5180  153.8850 S   0  0  0  0  0  0  0  0  0  0  0  0
  160.0780  206.9550  155.8830 C   0  0  0  0  0  2  0  0  0  0  0  0
  161.1570  208.0180  156.0270 C   0  0  0  0  0  3  0  0  0  0  0  0
  160.4110  207.5040  157.2500 C   0  0  0  0  0  2  0  0  0  0  0  0
  2  3  1  0  0  0  0
  3 12  1  0  0  0  0
  4 11  1  0  0  0  0
  5 16  2  0  0  0  0
  5  4  1  0  0  0  0
  6 13  1  0  0  0  0
  6  3  2  0  0  0  0
  7 19  1  0  0  0  0
  7  1  2  0  0  0  0
  8 14  1  0  0  0  0
  9  8  1  0  0  0  0
 10  2  2  0  0  0  0
 11 18  1  0  0  0  0
 12  1  1  0  0  0  0
 13  7  1  0  0  0  0
 14 15  1  0  0  0  0
 15  6  1  0  0  0  0
 16  8  2  0  0  0  0
 17  5  1  0  0  0  0
 18 15  2  0  0  0  0
 18 10  1  0  0  0  0
 19 24  1  1  0  0  0
 20 19  1  0  0  0  0
 21 20  1  0  0  0  0
 21 22  2  0  0  0  0
 23 21  1  0  0  0  0
 24 25  1  0  0  0  0
 25 29  1  0  0  0  0
 26 33  1  0  0  0  0
 26 30  1  0  0  0  0
 27 30  2  0  0  0  0
 28 27  1  0  0  0  0
 29 26  2  0  0  0  0
 31 29  1  0  0  0  0
 31 28  1  0  0  0  0
 32 33  1  0  0  0  0
 32 34  1  0  0  0  0
 33 34  1  0  0  0  0
M  END
>  <MODEL>
6

>  <REMARK>
 VINA RESULT:      -7.1      2.479      9.448
  Name = 
  6 active torsions:
  status: ('A' for Active; 'I' for Inactive)
    1  A    between atoms: N_1  and  C_3
    2  A    between atoms: C_3  and  C_17
    3  A    between atoms: C_3  and  C_32
    4  A    between atoms: N_4  and  C_24
    5  A    between atoms: N_4  and  C_32
    6  A    between atoms: C_5  and  C_9
                            x       y       z     vdW  Elec       q    Type
                         _______ _______ _______ _____ _____    ______ ____

>  <TORSDO>
F 6

$$$$
=
 OpenBabel11042422273D

 34 38  0  0  1  0  0  0  0  0999 V2000
  159.2470  210.8070  154.5310 N   0  0  0  0  0  0  0  0  0  0  0  0
  160.8460  207.4130  154.9370 C   0  0  0  0  0  3  0  0  0  0  0  0
  160.4090  208.6130  154.3870 C   0  0  0  0  0  0  0  0  0  0  0  0
  161.9520  204.7170  151.5530 N   0  0  0  0  0  2  0  0  0  0  0  0
  161.2450  204.9870  150.3410 C   0  0  0  0  0  0  0  0  0  0  0  0
  160.6980  208.8970  153.0480 C   0  0  0  0  0  0  0  0  0  0  0  0
  159.5190  211.0670  153.2860 C   0  0  0  0  0  0  0  0  0  0  0  0
  161.4030  207.4800  149.7310 C   0  0  0  0  0  0  0  0  0  0  0  0
  161.5800  208.0260  148.3610 C   0  0  0  0  0  1  0  0  0  0  0  0
  161.5610  206.5380  154.1840 N   0  0  0  0  0  0  0  0  0  0  0  0
  162.7480  205.7640  152.2010 C   0  0  0  0  0  2  0  0  0  0  0  0
  159.6280  209.5770  155.2350 C   0  0  0  0  0  2  0  0  0  0  0  0
  160.2370  210.1240  152.4870 N   0  0  0  0  0  2  0  0  0  0  0  0
  161.6340  208.3190  150.8720 N   0  0  0  0  0  2  0  0  0  0  0  0
  161.4070  207.9760  152.2590 C   0  0  0  0  0  0  0  0  0  0  0  0
  161.2500  206.2070  149.9050 C   0  0  0  0  0  0  0  0  0  0  0  0
  160.4390  203.9330  149.6720 C   0  0  0  0  0  1  0  0  0  0  0  0
  161.8690  206.7760  152.8800 C   0  0  0  0  0  0  0  0  0  0  0  0
  159.0500  212.3510  152.6860 C   0  0  1  0  0  3  0  0  0  0  0  0
  158.7730  213.3280  153.7320 N   0  0  0  0  0  2  0  0  0  0  0  0
  157.4820  213.4740  154.3250 C   0  0  0  0  0  0  0  0  0  0  0  0
  156.5070  212.7870  153.9180 O   0  0  0  0  0  0  0  0  0  0  0  0
  157.2880  214.4480  155.4320 C   0  0  0  0  0  1  0  0  0  0  0  0
  160.1040  212.8920  151.7330 C   0  0  0  0  0  2  0  0  0  0  0  0
  159.5290  213.9150  150.8700 N   0  0  0  0  0  2  0  0  0  0  0  0
  159.6770  213.5030  148.5010 C   0  0  0  0  0  0  0  0  0  0  0  0
  157.7880  213.7060  146.9220 C   0  0  0  0  0  3  0  0  0  0  0  0
  156.9560  214.3510  147.9840 C   0  0  0  0  0  2  0  0  0  0  0  0
  158.9140  213.6340  149.6060 C   0  0  0  0  0  0  0  0  0  0  0  0
  159.0480  213.3400  147.1670 C   0  0  0  0  0  3  0  0  0  0  0  0
  157.1210  213.3890  149.5170 S   0  0  0  0  0  0  0  0  0  0  0  0
  161.7830  212.8610  147.3520 C   0  0  0  0  0  2  0  0  0  0  0  0
  161.1810  213.4900  148.5990 C   0  0  0  0  0  3  0  0  0  0  0  0
  161.7240  212.0690  148.6370 C   0  0  0  0  0  2  0  0  0  0  0  0
  1 12  1  0  0  0  0
  3  2  1  0  0  0  0
  3 12  1  0  0  0  0
  4 11  1  0  0  0  0
  5  4  1  0  0  0  0
  6  3  2  0  0  0  0
  7  1  2  0  0  0  0
  8 16  2  0  0  0  0
  8 14  1  0  0  0  0
  9  8  1  0  0  0  0
 10  2  2  0  0  0  0
 11 18  1  0  0  0  0
 13  6  1  0  0  0  0
 13  7  1  0  0  0  0
 14 15  1  0  0  0  0
 15 18  2  0  0  0  0
 15  6  1  0  0  0  0
 16  5  2  0  0  0  0
 17  5  1  0  0  0  0
 18 10  1  0  0  0  0
 19 24  1  6  0  0  0
 19  7  1  0  0  0  0
 19 20  1  0  0  0  0
 20 21  1  0  0  0  0
 21 23  1  0  0  0  0
 22 21  2  0  0  0  0
 25 24  1  0  0  0  0
 26 33  1  0  0  0  0
 26 29  2  0  0  0  0
 27 30  2  0  0  0  0
 27 28  1  0  0  0  0
 28 31  1  0  0  0  0
 29 25  1  0  0  0  0
 30 26  1  0  0  0  0
 31 29  1  0  0  0  0
 32 33  1  0  0  0  0
 32 34  1  0  0  0  0
 33 34  1  0  0  0  0
M  END
>  <MODEL>
7

>  <REMARK>
 VINA RESULT:      -7.0      3.149      7.673
  Name = 
  6 active torsions:
  status: ('A' for Active; 'I' for Inactive)
    1  A    between atoms: N_1  and  C_3
    2  A    between atoms: C_3  and  C_17
    3  A    between atoms: C_3  and  C_32
    4  A    between atoms: N_4  and  C_24
    5  A    between atoms: N_4  and  C_32
    6  A    between atoms: C_5  and  C_9
                            x       y       z     vdW  Elec       q    Type
                         _______ _______ _______ _____ _____    ______ ____

>  <TORSDO>
F 6

$$$$
=
 OpenBabel11042422273D

 34 38  0  0  1  0  0  0  0  0999 V2000
  162.5370  207.8230  150.2540 N   0  0  0  0  0  0  0  0  0  0  0  0
  161.9500  211.1880  148.6490 C   0  0  0  0  0  3  0  0  0  0  0  0
  161.9570  210.1410  149.5640 C   0  0  0  0  0  0  0  0  0  0  0  0
  158.9270  214.1640  150.0450 N   0  0  0  0  0  2  0  0  0  0  0  0
  157.8710  213.5970  150.8240 C   0  0  0  0  0  0  0  0  0  0  0  0
  161.3680  210.3270  150.8190 C   0  0  0  0  0  0  0  0  0  0  0  0
  161.9880  208.0010  151.4200 C   0  0  0  0  0  0  0  0  0  0  0  0
  158.8220  212.1600  152.7340 C   0  0  0  0  0  0  0  0  0  0  0  0
  158.2840  212.0950  154.1170 C   0  0  0  0  0  1  0  0  0  0  0  0
  161.3930  212.3800  148.9810 N   0  0  0  0  0  0  0  0  0  0  0  0
  160.3250  214.0040  150.4540 C   0  0  0  0  0  2  0  0  0  0  0  0
  162.5870  208.8300  149.1870 C   0  0  0  0  0  2  0  0  0  0  0  0
  161.3680  209.2460  151.7500 N   0  0  0  0  0  2  0  0  0  0  0  0
  160.1350  211.6560  152.4510 N   0  0  0  0  0  2  0  0  0  0  0  0
  160.7600  211.5490  151.1500 C   0  0  0  0  0  0  0  0  0  0  0  0
  158.2060  212.8560  151.8330 C   0  0  0  0  0  0  0  0  0  0  0  0
  156.4500  213.7570  150.4220 C   0  0  0  0  0  1  0  0  0  0  0  0
  160.8140  212.6060  150.1920 C   0  0  0  0  0  0  0  0  0  0  0  0
  161.9870  206.8810  152.4070 C   0  0  1  0  0  3  0  0  0  0  0  0
  160.7810  206.9250  153.2240 N   0  0  0  0  0  2  0  0  0  0  0  0
  160.7950  207.3230  154.5950 C   0  0  0  0  0  0  0  0  0  0  0  0
  161.8800  207.6010  155.1720 O   0  0  0  0  0  0  0  0  0  0  0  0
  159.5160  207.4060  155.3490 C   0  0  0  0  0  1  0  0  0  0  0  0
  162.0760  205.5490  151.6780 C   0  0  0  0  0  2  0  0  0  0  0  0
  160.8710  205.3220  150.8910 N   0  0  0  0  0  2  0  0  0  0  0  0
  161.1410  203.6770  149.1520 C   0  0  0  0  0  0  0  0  0  0  0  0
  161.5690  204.2050  146.7770 C   0  0  0  0  0  3  0  0  0  0  0  0
  161.8080  205.6390  147.1280 C   0  0  0  0  0  2  0  0  0  0  0  0
  160.8850  204.9530  149.5070 C   0  0  0  0  0  0  0  0  0  0  0  0
  161.2850  203.3070  147.7230 C   0  0  0  0  0  3  0  0  0  0  0  0
  160.4860  206.1920  148.2450 S   0  0  0  0  0  0  0  0  0  0  0  0
  161.2010  201.2250  149.5410 C   0  0  0  0  0  2  0  0  0  0  0  0
  161.2600  202.5960  150.1960 C   0  0  0  0  0  3  0  0  0  0  0  0
  159.9930  201.7570  150.2740 C   0  0  0  0  0  2  0  0  0  0  0  0
  1  7  2  0  0  0  0
  2 10  2  0  0  0  0
  2  3  1  0  0  0  0
  3  6  2  0  0  0  0
  4 11  1  0  0  0  0
  4  5  1  0  0  0  0
  5 16  2  0  0  0  0
  6 15  1  0  0  0  0
  6 13  1  0  0  0  0
  7 13  1  0  0  0  0
  7 19  1  0  0  0  0
  8  9  1  0  0  0  0
 10 18  1  0  0  0  0
 12  3  1  0  0  0  0
 12  1  1  0  0  0  0
 14  8  1  0  0  0  0
 15 14  1  0  0  0  0
 16  8  2  0  0  0  0
 17  5  1  0  0  0  0
 18 11  1  0  0  0  0
 18 15  2  0  0  0  0
 19 24  1  6  0  0  0
 19 20  1  0  0  0  0
 20 21  1  0  0  0  0
 21 22  2  0  0  0  0
 21 23  1  0  0  0  0
 25 24  1  0  0  0  0
 26 29  2  0  0  0  0
 26 33  1  0  0  0  0
 27 28  1  0  0  0  0
 27 30  2  0  0  0  0
 28 31  1  0  0  0  0
 29 25  1  0  0  0  0
 30 26  1  0  0  0  0
 31 29  1  0  0  0  0
 32 33  1  0  0  0  0
 32 34  1  0  0  0  0
 33 34  1  0  0  0  0
M  END
>  <MODEL>
8

>  <REMARK>
 VINA RESULT:      -6.9      2.472      4.907
  Name = 
  6 active torsions:
  status: ('A' for Active; 'I' for Inactive)
    1  A    between atoms: N_1  and  C_3
    2  A    between atoms: C_3  and  C_17
    3  A    between atoms: C_3  and  C_32
    4  A    between atoms: N_4  and  C_24
    5  A    between atoms: N_4  and  C_32
    6  A    between atoms: C_5  and  C_9
                            x       y       z     vdW  Elec       q    Type
                         _______ _______ _______ _____ _____    ______ ____

>  <TORSDO>
F 6

$$$$
=
 OpenBabel11042422273D

 34 38  0  0  1  0  0  0  0  0999 V2000
  161.2210  207.4710  151.1980 N   0  0  0  0  0  0  0  0  0  0  0  0
  160.4570  203.8440  150.4840 C   0  0  0  0  0  3  0  0  0  0  0  0
  160.9130  205.1520  150.3540 C   0  0  0  0  0  0  0  0  0  0  0  0
  160.4860  202.0080  146.4130 N   0  0  0  0  0  2  0  0  0  0  0  0
  160.3310  202.9510  145.3500 C   0  0  0  0  0  0  0  0  0  0  0  0
  161.5820  205.5300  149.1850 C   0  0  0  0  0  0  0  0  0  0  0  0
  161.8430  207.8170  150.1100 C   0  0  0  0  0  0  0  0  0  0  0  0
  162.0130  204.8810  145.5920 C   0  0  0  0  0  0  0  0  0  0  0  0
  162.7500  205.5320  144.4780 C   0  0  0  0  0  1  0  0  0  0  0  0
  160.6770  202.9440  149.4920 N   0  0  0  0  0  0  0  0  0  0  0  0
  161.5840  202.1430  147.3750 C   0  0  0  0  0  2  0  0  0  0  0  0
  160.6720  206.1360  151.4640 C   0  0  0  0  0  2  0  0  0  0  0  0
  162.0370  206.8750  149.0520 N   0  0  0  0  0  2  0  0  0  0  0  0
  162.4420  205.0790  146.9470 N   0  0  0  0  0  2  0  0  0  0  0  0
  161.7780  204.6070  148.1430 C   0  0  0  0  0  0  0  0  0  0  0  0
  161.1250  203.9740  145.3380 C   0  0  0  0  0  0  0  0  0  0  0  0
  159.2260  202.8210  144.3650 C   0  0  0  0  0  1  0  0  0  0  0  0
  161.3280  203.2670  148.3410 C   0  0  0  0  0  0  0  0  0  0  0  0
  162.3320  209.2200  149.9600 C   0  0  1  0  0  3  0  0  0  0  0  0
  161.4670  209.9640  149.0530 N   0  0  0  0  0  2  0  0  0  0  0  0
  161.8960  211.1510  148.3840 C   0  0  0  0  0  0  0  0  0  0  0  0
  163.0390  211.6340  148.6020 O   0  0  0  0  0  0  0  0  0  0  0  0
  160.9820  211.8230  147.4220 C   0  0  0  0  0  1  0  0  0  0  0  0
  162.3720  209.9010  151.3190 C   0  0  0  0  0  2  0  0  0  0  0  0
  161.0680  210.4640  151.6410 N   0  0  0  0  0  2  0  0  0  0  0  0
  160.0640  211.9800  153.2240 C   0  0  0  0  0  0  0  0  0  0  0  0
  160.3410  211.8320  155.6740 C   0  0  0  0  0  3  0  0  0  0  0  0
  161.4130  210.8040  155.5020 C   0  0  0  0  0  2  0  0  0  0  0  0
  160.6490  210.7890  152.9730 C   0  0  0  0  0  0  0  0  0  0  0  0
  159.7430  212.3820  154.6140 C   0  0  0  0  0  3  0  0  0  0  0  0
  160.8460  209.5680  154.2970 S   0  0  0  0  0  0  0  0  0  0  0  0
  158.6040  213.8680  152.5400 C   0  0  0  0  0  2  0  0  0  0  0  0
  159.7010  212.9120  152.0960 C   0  0  0  0  0  3  0  0  0  0  0  0
  158.2630  212.7020  151.6430 C   0  0  0  0  0  2  0  0  0  0  0  0
  1 12  1  0  0  0  0
  3  2  1  0  0  0  0
  3 12  1  0  0  0  0
  4 11  1  0  0  0  0
  5  4  1  0  0  0  0
  6  3  2  0  0  0  0
  7  1  2  0  0  0  0
  8 14  1  0  0  0  0
  9  8  1  0  0  0  0
 10  2  2  0  0  0  0
 11 18  1  0  0  0  0
 13  6  1  0  0  0  0
 13  7  1  0  0  0  0
 14 15  1  0  0  0  0
 15 18  2  0  0  0  0
 15  6  1  0  0  0  0
 16  5  2  0  0  0  0
 16  8  2  0  0  0  0
 17  5  1  0  0  0  0
 18 10  1  0  0  0  0
 19  7  1  0  0  0  0
 19 24  1  1  0  0  0
 20 19  1  0  0  0  0
 21 22  2  0  0  0  0
 21 20  1  0  0  0  0
 23 21  1  0  0  0  0
 24 25  1  0  0  0  0
 25 29  1  0  0  0  0
 26 30  1  0  0  0  0
 28 27  1  0  0  0  0
 29 26  2  0  0  0  0
 29 31  1  0  0  0  0
 30 27  2  0  0  0  0
 31 28  1  0  0  0  0
 33 32  1  0  0  0  0
 33 26  1  0  0  0  0
 34 33  1  0  0  0  0
 34 32  1  0  0  0  0
M  END
>  <MODEL>
9

>  <REMARK>
 VINA RESULT:      -6.1      2.300      9.159
  Name = 
  6 active torsions:
  status: ('A' for Active; 'I' for Inactive)
    1  A    between atoms: N_1  and  C_3
    2  A    between atoms: C_3  and  C_17
    3  A    between atoms: C_3  and  C_32
    4  A    between atoms: N_4  and  C_24
    5  A    between atoms: N_4  and  C_32
    6  A    between atoms: C_5  and  C_9
                            x       y       z     vdW  Elec       q    Type
                         _______ _______ _______ _____ _____    ______ ____

>  <TORSDO>
F 6

$$$$
