=
 OpenBabel11052411203D

 68 71  0  0  1  0  0  0  0  0999 V2000
  160.9970  204.6560  146.1060 C   0  0  0  0  0  0  0  0  0  0  0  0
  161.1950  205.0250  147.3940 C   0  0  0  0  0  0  0  0  0  0  0  0
  160.8600  206.3930  147.9510 C   0  0  2  0  0  3  0  0  0  0  0  0
  159.9210  206.5910  150.2220 N   0  0  0  0  0  2  0  0  0  0  0  0
  162.9990  207.5200  147.6220 N   0  0  0  0  0  1  0  0  0  0  0  0
  162.0560  207.0660  148.6370 C   0  0  1  0  0  3  0  0  0  0  0  0
  159.5770  206.5110  148.7920 C   0  0  0  0  0  2  0  0  0  0  0  0
  160.7360  207.7860  150.5190 C   0  0  0  0  0  2  0  0  0  0  0  0
  161.5850  208.2210  149.3940 N   0  0  0  0  0  2  0  0  0  0  0  0
  161.1640  203.2140  145.7140 C   0  0  1  0  0  3  0  0  0  0  0  0
  162.4470  202.7560  146.0250 O   0  0  0  0  0  1  0  0  0  0  0  0
  161.2930  200.5820  147.2290 C   0  0  0  0  0  2  0  0  0  0  0  0
  160.0550  202.2790  146.2280 C   0  0  2  0  0  3  0  0  0  0  0  0
  160.4240  200.1410  144.9550 C   0  0  0  0  0  2  0  0  0  0  0  0
  160.3480  201.6090  147.4450 O   0  0  0  0  0  0  0  0  0  0  0  0
  159.5020  201.3400  145.1510 C   0  0  0  0  0  2  0  0  0  0  0  0
  160.7390  199.5070  146.3010 C   0  0  0  0  0  2  0  0  0  0  0  0
  161.6140  204.0500  148.3510 N   0  0  0  0  0  2  0  0  0  0  0  0
  160.8880  203.8840  149.5990 C   0  0  0  0  0  2  0  0  0  0  0  0
  161.7910  204.1600  150.7800 C   0  0  0  0  0  2  0  0  0  0  0  0
  161.0410  204.2180  151.9530 O   0  0  0  0  0  0  0  0  0  0  0  0
  161.7930  205.0140  152.8180 C   0  0  1  0  0  3  0  0  0  0  0  0
  162.8010  205.8210  152.0170 C   0  0  0  0  0  1  0  0  0  0  0  0
  160.8800  205.9380  153.5530 C   0  0  0  0  0  3  0  0  0  0  0  0
  161.0100  206.1160  154.8130 N   0  0  0  0  0  0  0  0  0  0  0  0
  160.1190  207.0080  155.5040 C   0  0  0  0  0  2  0  0  0  0  0  0
  160.0930  210.8320  155.7030 C   0  0  2  0  0  3  0  0  0  0  0  0
  159.5920  209.3980  155.9160 C   0  0  0  0  0  2  0  0  0  0  0  0
  161.4030  210.8690  155.1770 O   0  0  0  0  0  0  0  0  0  0  0  0
  160.6900  208.4120  155.5130 C   0  0  2  0  0  3  0  0  0  0  0  0
  161.2780  208.6970  154.2490 O   0  0  0  0  0  0  0  0  0  0  0  0
  161.3640  210.0980  153.9980 C   0  0  2  0  0  3  0  0  0  0  0  0
  161.2620  212.2470  157.2400 C   0  0  0  0  0  1  0  0  0  0  0  0
  159.9730  211.6170  156.9430 N   0  0  0  0  0  0  0  0  0  0  0  0
  157.6040  212.1990  157.2530 C   0  0  0  0  0  1  0  0  0  0  0  0
  158.9620  212.6710  156.7610 C   0  0  2  0  0  3  0  0  0  0  0  0
  158.8410  213.0140  155.4120 O   0  0  0  0  0  1  0  0  0  0  0  0
  162.5050  210.4010  153.1370 N   0  0  0  0  0  2  0  0  0  0  0  0
  162.1090  210.2920  151.7400 C   0  0  0  0  0  2  0  0  0  0  0  0
  161.2570  211.4850  151.3720 C   0  0  0  0  0  2  0  0  0  0  0  0
  159.8810  211.3470  151.9970 C   0  0  0  0  0  1  0  0  0  0  0  0
  160.5700  205.6330  145.0410 C   0  0  0  0  0  2  0  0  0  0  0  0
  162.8360  205.7510  144.0520 C   0  0  0  0  0  3  0  0  0  0  0  0
  161.5140  205.6990  143.8550 C   0  0  0  0  0  0  0  0  0  0  0  0
  162.9610  206.0340  139.5110 C   0  0  0  0  0  1  0  0  0  0  0  0
  160.9850  205.5650  142.4810 C   0  0  0  0  0  3  0  0  0  0  0  0
  161.5180  206.1600  141.4440 C   0  0  0  0  0  0  0  0  0  0  0  0
  162.0500  206.7870  140.4300 C   0  0  0  0  0  0  0  0  0  0  0  0
  161.1690  207.9380  137.8990 C   0  0  0  0  0  2  0  0  0  0  0  0
  161.3190  208.7180  138.9690 C   0  0  0  0  0  0  0  0  0  0  0  0
  161.0070  210.7090  137.7070 O   0  0  0  0  0  0  0  0  0  0  0  0
  161.7950  208.1880  140.2290 N   0  0  0  0  0  0  0  0  0  0  0  0
  162.2870  209.1300  141.2400 C   0  0  0  0  0  2  0  0  0  0  0  0
  161.3710  210.3440  141.3330 C   0  0  0  0  0  2  0  0  0  0  0  0
  161.2390  210.9910  140.0320 N   0  0  0  0  0  0  0  0  0  0  0  0
  161.1460  210.1790  138.8430 C   0  0  0  0  0  0  0  0  0  0  0  0
  161.2250  212.4560  140.0160 C   0  0  2  0  0  3  0  0  0  0  0  0
  162.5650  213.0560  140.4660 C   0  0  2  0  0  3  0  0  0  0  0  0
  162.5030  213.5950  141.8850 C   0  0  0  0  0  1  0  0  0  0  0  0
  162.5470  213.9320  138.2340 O   0  0  0  0  0  1  0  0  0  0  0  0
  163.0010  214.1720  139.5310 C   0  0  0  0  0  2  0  0  0  0  0  0
  160.1420  212.9760  140.7410 O   0  0  0  0  0  0  0  0  0  0  0  0
  159.0860  213.0700  139.8250 C   0  0  0  0  0  2  0  0  0  0  0  0
  157.9750  212.0900  140.1770 C   0  0  0  0  0  2  0  0  0  0  0  0
  156.7730  212.5080  139.6150 O   0  0  0  0  0  1  0  0  0  0  0  0
  163.4730  205.8350  145.4020 C   0  0  0  0  0  2  0  0  0  0  0  0
  164.7230  204.5360  147.1080 C   0  0  0  0  0  1  0  0  0  0  0  0
  164.3140  204.5960  145.6570 C   0  0  0  0  0  2  0  0  0  0  0  0
  1  2  2  0  0  0  0
  2 18  1  0  0  0  0
  3  2  1  1  0  0  0
  3  6  1  0  0  0  0
  3  7  1  0  0  0  0
  4  8  1  0  0  0  0
  6  5  1  6  0  0  0
  6  9  1  0  0  0  0
  7  4  1  0  0  0  0
  9  8  1  0  0  0  0
 10 11  1  1  0  0  0
 10  1  1  0  0  0  0
 12 15  1  0  0  0  0
 13 10  1  6  0  0  0
 13 15  1  0  0  0  0
 14 16  1  0  0  0  0
 14 17  1  0  0  0  0
 16 13  1  0  0  0  0
 17 12  1  0  0  0  0
 18 19  1  0  0  0  0
 19 20  1  0  0  0  0
 20 21  1  0  0  0  0
 21 22  1  0  0  0  0
 22 23  1  6  0  0  0
 22 24  1  0  0  0  0
 24 25  2  0  0  0  0
 25 26  1  0  0  0  0
 27 28  1  0  0  0  0
 27 34  1  1  0  0  0
 29 27  1  0  0  0  0
 30 26  1  6  0  0  0
 30 28  1  0  0  0  0
 31 30  1  0  0  0  0
 32 38  1  1  0  0  0
 32 31  1  0  0  0  0
 32 29  1  0  0  0  0
 34 33  1  0  0  0  0
 36 34  1  0  0  0  0
 36 35  1  6  0  0  0
 37 36  1  0  0  0  0
 39 38  1  0  0  0  0
 40 39  1  0  0  0  0
 40 41  1  0  0  0  0
 42  1  1  0  0  0  0
 43 66  1  0  0  0  0
 44 43  2  0  0  0  0
 44 42  1  0  0  0  0
 45 48  1  0  0  0  0
 46 44  1  0  0  0  0
 47 46  2  0  0  0  0
 48 47  2  0  0  0  0
 49 50  2  0  0  0  0
 50 52  1  0  0  0  0
 51 56  2  0  0  0  0
 52 48  1  0  0  0  0
 52 53  1  0  0  0  0
 53 54  1  0  0  0  0
 55 54  1  0  0  0  0
 56 50  1  0  0  0  0
 56 55  1  0  0  0  0
 57 55  1  0  0  0  0
 57 58  1  0  0  0  0
 57 62  1  1  0  0  0
 58 59  1  1  0  0  0
 60 61  1  0  0  0  0
 61 58  1  0  0  0  0
 63 64  1  0  0  0  0
 63 62  1  0  0  0  0
 65 64  1  0  0  0  0
 66 68  1  0  0  0  0
 68 67  1  0  0  0  0
M  END
>  <MODEL>
1

>  <REMARK>
 VINA RESULT:       2.3      0.000      0.000
  Name = 
  28 active torsions:
  status: ('A' for Active; 'I' for Inactive)
    1  A    between atoms: C_1  and  N_53
    2  A    between atoms: C_3  and  C_26
    3  A    between atoms: C_5  and  C_15
    4  A    between atoms: C_5  and  C_18
    5  A    between atoms: O_9  and  C_13
    6  A    between atoms: O_9  and  C_16
    7  A    between atoms: C_11  and  C_66
    8  A    between atoms: C_13  and  C_64
    9  A    between atoms: O_14  and  C_65
   10  A    between atoms: O_14  and  C_66
   11  A    between atoms: C_15  and  C_17
   12  A    between atoms: C_16  and  C_41
   13  A    between atoms: C_17  and  C_33
   14  A    between atoms: C_22  and  C_38
   15  A    between atoms: C_23  and  C_28
   16  A    between atoms: C_23  and  N_39
   17  A    between atoms: C_24  and  C_38
   18  A    between atoms: C_26  and  N_43
   19  A    between atoms: C_29  and  N_53
   20  A    between atoms: C_32  and  C_36
   21  A    between atoms: C_33  and  C_45
   22  A    between atoms: C_34  and  N_42
   23  A    between atoms: C_34  and  C_61
   24  A    between atoms: C_36  and  C_65
   25  A    between atoms: N_37  and  C_59
   26  A    between atoms: N_39  and  C_67
   27  A    between atoms: N_43  and  C_64
   28  A    between atoms: N_58  and  C_65
                            x       y       z     vdW  Elec       q    Type
                         _______ _______ _______ _____ _____    ______ ____

>  <TORSDO>
F 28

$$$$
=
 OpenBabel11052411203D

 68 71  0  0  1  0  0  0  0  0999 V2000
  161.8970  204.5980  148.9010 C   0  0  1  0  0  3  0  0  0  0  0  0
  161.7590  205.8720  148.4590 C   0  0  0  0  0  0  0  0  0  0  0  0
  162.1380  207.0990  149.2600 C   0  0  2  0  0  3  0  0  0  0  0  0
  163.0590  209.0740  148.1070 N   0  0  0  0  0  2  0  0  0  0  0  0
  160.0450  207.4890  150.4530 N   0  0  0  0  0  1  0  0  0  0  0  0
  160.9600  208.0590  149.4710 C   0  0  1  0  0  3  0  0  0  0  0  0
  163.4150  207.8450  148.8350 C   0  0  0  0  0  2  0  0  0  0  0  0
  162.2850  210.0030  148.9550 C   0  0  0  0  0  2  0  0  0  0  0  0
  161.4650  209.3310  149.9790 N   0  0  0  0  0  2  0  0  0  0  0  0
  161.6910  203.4550  147.9460 C   0  0  1  0  0  3  0  0  0  0  0  0
  162.9110  202.9990  147.4390 O   0  0  0  0  0  1  0  0  0  0  0  0
  162.0900  200.4430  147.9870 C   0  0  0  0  0  2  0  0  0  0  0  0
  160.8090  202.3180  148.4910 C   0  0  2  0  0  3  0  0  0  0  0  0
  160.2240  200.9700  146.4500 C   0  0  0  0  0  2  0  0  0  0  0  0
  161.5180  201.2090  149.0250 O   0  0  0  0  0  0  0  0  0  0  0  0
  159.6890  201.9020  147.5320 C   0  0  0  0  0  2  0  0  0  0  0  0
  161.0160  199.8390  147.0880 C   0  0  0  0  0  2  0  0  0  0  0  0
  161.3660  206.1090  147.1050 N   0  0  0  0  0  0  0  0  0  0  0  0
  161.2890  205.0110  146.1580 C   0  0  0  0  0  2  0  0  0  0  0  0
  162.5130  204.9870  145.2700 C   0  0  0  0  0  2  0  0  0  0  0  0
  162.4920  206.0720  144.3950 O   0  0  0  0  0  0  0  0  0  0  0  0
  161.9740  205.5590  143.2050 C   0  0  1  0  0  3  0  0  0  0  0  0
  160.4630  205.4430  143.3180 C   0  0  0  0  0  1  0  0  0  0  0  0
  162.3240  206.4780  142.0820 C   0  0  0  0  0  3  0  0  0  0  0  0
  162.0440  206.1660  140.8740 N   0  0  0  0  0  0  0  0  0  0  0  0
  162.3920  207.0630  139.8060 C   0  0  0  0  0  2  0  0  0  0  0  0
  160.4310  209.9650  138.2570 C   0  0  2  0  0  3  0  0  0  0  0  0
  161.2380  208.6610  138.2980 C   0  0  0  0  0  2  0  0  0  0  0  0
  160.0850  210.4210  139.5480 O   0  0  0  0  0  0  0  0  0  0  0  0
  161.4090  208.2160  139.7510 C   0  0  2  0  0  3  0  0  0  0  0  0
  161.8420  209.2560  140.6200 O   0  0  0  0  0  0  0  0  0  0  0  0
  161.3000  210.5230  140.2560 C   0  0  2  0  0  3  0  0  0  0  0  0
  159.0190  208.4030  137.1180 C   0  0  0  0  0  1  0  0  0  0  0  0
  159.2530  209.8240  137.3860 N   0  0  0  0  0  0  0  0  0  0  0  0
  156.8260  209.5850  137.7020 C   0  0  0  0  0  1  0  0  0  0  0  0
  158.0710  210.3780  138.0650 C   0  0  2  0  0  3  0  0  0  0  0  0
  157.8620  211.7080  137.6900 O   0  0  0  0  0  1  0  0  0  0  0  0
  161.1490  211.3790  141.4310 N   0  0  0  0  0  2  0  0  0  0  0  0
  162.3840  212.1140  141.6640 C   0  0  0  0  0  2  0  0  0  0  0  0
  162.1000  213.2840  142.5780 C   0  0  0  0  0  2  0  0  0  0  0  0
  162.6130  212.9820  143.9740 C   0  0  0  0  0  1  0  0  0  0  0  0
  162.2930  204.2730  150.3180 C   0  0  0  0  0  2  0  0  0  0  0  0
  160.3670  205.1610  151.5940 C   0  0  0  0  0  3  0  0  0  0  0  0
  161.6830  205.1990  151.3530 C   0  0  0  0  0  0  0  0  0  0  0  0
  161.7940  206.9590  155.5930 C   0  0  0  0  0  1  0  0  0  0  0  0
  162.5540  206.0430  152.1970 C   0  0  0  0  0  3  0  0  0  0  0  0
  162.1130  206.7490  153.2070 C   0  0  0  0  0  0  0  0  0  0  0  0
  161.6450  207.4660  154.1920 C   0  0  0  0  0  0  0  0  0  0  0  0
  159.1720  208.2800  155.5080 C   0  0  0  0  0  2  0  0  0  0  0  0
  159.7570  209.0930  154.6290 C   0  0  0  0  0  0  0  0  0  0  0  0
  157.9150  210.5960  154.6170 O   0  0  0  0  0  0  0  0  0  0  0  0
  160.9610  208.7030  153.9260 N   0  0  0  0  0  0  0  0  0  0  0  0
  161.3430  209.4580  152.7270 C   0  0  0  0  0  2  0  0  0  0  0  0
  161.1580  210.9530  152.9530 C   0  0  0  0  0  2  0  0  0  0  0  0
  159.7840  211.2500  153.3450 N   0  0  0  0  0  0  0  0  0  0  0  0
  159.0940  210.3530  154.2400 C   0  0  0  0  0  0  0  0  0  0  0  0
  159.1770  212.4570  152.7790 C   0  0  2  0  0  3  0  0  0  0  0  0
  159.7900  212.8370  151.4230 C   0  0  2  0  0  3  0  0  0  0  0  0
  160.3170  214.2620  151.4120 C   0  0  0  0  0  1  0  0  0  0  0  0
  157.5310  213.1740  150.6940 O   0  0  0  0  0  1  0  0  0  0  0  0
  158.7740  212.6750  150.3040 C   0  0  0  0  0  2  0  0  0  0  0  0
  159.1970  213.5270  153.6870 O   0  0  0  0  0  0  0  0  0  0  0  0
  157.9050  213.5870  154.2270 C   0  0  0  0  0  2  0  0  0  0  0  0
  157.9540  213.9150  155.7130 C   0  0  0  0  0  2  0  0  0  0  0  0
  156.7240  213.6430  156.3030 O   0  0  0  0  0  1  0  0  0  0  0  0
  159.4070  204.3040  150.8330 C   0  0  0  0  0  2  0  0  0  0  0  0
  160.6920  202.6970  152.2200 C   0  0  0  0  0  1  0  0  0  0  0  0
  159.4890  202.8700  151.3270 C   0  0  0  0  0  2  0  0  0  0  0  0
  1 42  1  6  0  0  0
  2  1  1  0  0  0  0
  3  2  1  6  0  0  0
  3  6  1  0  0  0  0
  4  7  1  0  0  0  0
  4  8  1  0  0  0  0
  6  9  1  0  0  0  0
  6  5  1  1  0  0  0
  7  3  1  0  0  0  0
  8  9  1  0  0  0  0
 10 11  1  1  0  0  0
 10  1  1  0  0  0  0
 12 15  1  0  0  0  0
 13 10  1  6  0  0  0
 13 15  1  0  0  0  0
 14 17  1  0  0  0  0
 14 16  1  0  0  0  0
 16 13  1  0  0  0  0
 17 12  1  0  0  0  0
 18  2  2  0  0  0  0
 19 18  1  0  0  0  0
 20 19  1  0  0  0  0
 21 20  1  0  0  0  0
 22 23  1  1  0  0  0
 22 21  1  0  0  0  0
 24 22  1  0  0  0  0
 25 24  2  0  0  0  0
 26 25  1  0  0  0  0
 27 34  1  6  0  0  0
 27 28  1  0  0  0  0
 27 29  1  0  0  0  0
 28 30  1  0  0  0  0
 29 32  1  0  0  0  0
 30 26  1  6  0  0  0
 30 31  1  0  0  0  0
 32 31  1  0  0  0  0
 32 38  1  1  0  0  0
 33 34  1  0  0  0  0
 34 36  1  0  0  0  0
 36 35  1  6  0  0  0
 37 36  1  0  0  0  0
 38 39  1  0  0  0  0
 39 40  1  0  0  0  0
 40 41  1  0  0  0  0
 42 44  1  0  0  0  0
 44 43  2  0  0  0  0
 44 46  1  0  0  0  0
 46 47  2  0  0  0  0
 47 48  2  0  0  0  0
 48 45  1  0  0  0  0
 50 49  2  0  0  0  0
 52 48  1  0  0  0  0
 52 50  1  0  0  0  0
 53 54  1  0  0  0  0
 53 52  1  0  0  0  0
 54 55  1  0  0  0  0
 55 56  1  0  0  0  0
 56 51  2  0  0  0  0
 56 50  1  0  0  0  0
 57 55  1  0  0  0  0
 57 62  1  1  0  0  0
 58 59  1  1  0  0  0
 58 57  1  0  0  0  0
 61 60  1  0  0  0  0
 61 58  1  0  0  0  0
 62 63  1  0  0  0  0
 63 64  1  0  0  0  0
 64 65  1  0  0  0  0
 66 68  1  0  0  0  0
 66 43  1  0  0  0  0
 68 67  1  0  0  0  0
M  END
>  <MODEL>
2

>  <REMARK>
 VINA RESULT:       3.3      2.006     11.555
  Name = 
  28 active torsions:
  status: ('A' for Active; 'I' for Inactive)
    1  A    between atoms: C_1  and  N_53
    2  A    between atoms: C_3  and  C_26
    3  A    between atoms: C_5  and  C_15
    4  A    between atoms: C_5  and  C_18
    5  A    between atoms: O_9  and  C_13
    6  A    between atoms: O_9  and  C_16
    7  A    between atoms: C_11  and  C_66
    8  A    between atoms: C_13  and  C_64
    9  A    between atoms: O_14  and  C_65
   10  A    between atoms: O_14  and  C_66
   11  A    between atoms: C_15  and  C_17
   12  A    between atoms: C_16  and  C_41
   13  A    between atoms: C_17  and  C_33
   14  A    between atoms: C_22  and  C_38
   15  A    between atoms: C_23  and  C_28
   16  A    between atoms: C_23  and  N_39
   17  A    between atoms: C_24  and  C_38
   18  A    between atoms: C_26  and  N_43
   19  A    between atoms: C_29  and  N_53
   20  A    between atoms: C_32  and  C_36
   21  A    between atoms: C_33  and  C_45
   22  A    between atoms: C_34  and  N_42
   23  A    between atoms: C_34  and  C_61
   24  A    between atoms: C_36  and  C_65
   25  A    between atoms: N_37  and  C_59
   26  A    between atoms: N_39  and  C_67
   27  A    between atoms: N_43  and  C_64
   28  A    between atoms: N_58  and  C_65
                            x       y       z     vdW  Elec       q    Type
                         _______ _______ _______ _____ _____    ______ ____

>  <TORSDO>
F 28

$$$$
=
 OpenBabel11052411203D

 68 71  0  0  1  0  0  0  0  0999 V2000
  160.4150  212.4400  151.0360 C   0  0  0  0  0  0  0  0  0  0  0  0
  160.7000  211.1240  150.8830 C   0  0  0  0  0  0  0  0  0  0  0  0
  161.8500  210.5900  150.0540 C   0  0  2  0  0  3  0  0  0  0  0  0
  162.7900  208.3680  150.5560 N   0  0  0  0  0  2  0  0  0  0  0  0
  160.9020  210.8250  147.8170 N   0  0  0  0  0  1  0  0  0  0  0  0
  161.3810  209.8520  148.7930 C   0  0  1  0  0  3  0  0  0  0  0  0
  162.9470  209.8110  150.7990 C   0  0  0  0  0  2  0  0  0  0  0  0
  162.9320  208.0390  149.1230 C   0  0  0  0  0  2  0  0  0  0  0  0
  162.5090  209.1240  148.2190 N   0  0  0  0  0  2  0  0  0  0  0  0
  159.3870  212.8630  152.0490 C   0  0  1  0  0  3  0  0  0  0  0  0
  158.1200  212.9580  151.4680 O   0  0  0  0  0  1  0  0  0  0  0  0
  157.1240  211.9760  153.8730 C   0  0  0  0  0  2  0  0  0  0  0  0
  159.3880  212.0330  153.3460 C   0  0  2  0  0  3  0  0  0  0  0  0
  158.5140  213.6240  155.0860 C   0  0  0  0  0  2  0  0  0  0  0  0
  158.2520  211.2010  153.5290 O   0  0  0  0  0  0  0  0  0  0  0  0
  159.7330  212.8530  154.5930 C   0  0  0  0  0  2  0  0  0  0  0  0
  157.3240  212.6850  155.2080 C   0  0  0  0  0  2  0  0  0  0  0  0
  159.9820  210.1530  151.6480 N   0  0  0  0  0  2  0  0  0  0  0  0
  160.2960  208.7400  151.5240 C   0  0  0  0  0  2  0  0  0  0  0  0
  160.5990  208.1420  152.8790 C   0  0  0  0  0  2  0  0  0  0  0  0
  161.5430  207.1240  152.7540 O   0  0  0  0  0  0  0  0  0  0  0  0
  161.1790  206.1810  153.7150 C   0  0  1  0  0  3  0  0  0  0  0  0
  160.1940  206.8030  154.6890 C   0  0  0  0  0  1  0  0  0  0  0  0
  160.5460  205.0100  153.0390 C   0  0  0  0  0  3  0  0  0  0  0  0
  161.1820  203.9090  152.9110 N   0  0  0  0  0  0  0  0  0  0  0  0
  160.5560  202.7940  152.2530 C   0  0  0  0  0  2  0  0  0  0  0  0
  161.1150  201.8340  148.5890 C   0  0  2  0  0  3  0  0  0  0  0  0
  160.8350  201.6250  150.0820 C   0  0  0  0  0  2  0  0  0  0  0  0
  161.1120  203.2000  148.2300 O   0  0  0  0  0  0  0  0  0  0  0  0
  160.6030  202.9820  150.7500 C   0  0  2  0  0  3  0  0  0  0  0  0
  161.5870  203.9560  150.4200 O   0  0  0  0  0  0  0  0  0  0  0  0
  162.0500  203.8220  149.0790 C   0  0  2  0  0  3  0  0  0  0  0  0
  159.6260  201.9000  146.7160 C   0  0  0  0  0  1  0  0  0  0  0  0
  160.1840  201.0450  147.7660 N   0  0  0  0  0  0  0  0  0  0  0  0
  162.4050  200.0680  147.3670 C   0  0  0  0  0  1  0  0  0  0  0  0
  160.9100  199.9320  147.1330 C   0  0  2  0  0  3  0  0  0  0  0  0
  160.6860  199.9150  145.7540 O   0  0  0  0  0  1  0  0  0  0  0  0
  162.4640  205.1160  148.5420 N   0  0  0  0  0  2  0  0  0  0  0  0
  162.4660  205.0650  147.0870 C   0  0  0  0  0  2  0  0  0  0  0  0
  161.4060  206.0020  146.5560 C   0  0  0  0  0  2  0  0  0  0  0  0
  160.4100  206.3270  147.6540 C   0  0  0  0  0  1  0  0  0  0  0  0
  161.1210  213.5160  150.2530 C   0  0  0  0  0  2  0  0  0  0  0  0
  161.6910  212.8410  147.9400 C   0  0  0  0  0  3  0  0  0  0  0  0
  160.8430  213.4720  148.7620 C   0  0  0  0  0  0  0  0  0  0  0  0
  157.1090  212.0020  146.5310 C   0  0  0  0  0  1  0  0  0  0  0  0
  159.5710  214.0030  148.2300 C   0  0  0  0  0  3  0  0  0  0  0  0
  158.9120  213.4420  147.2470 C   0  0  0  0  0  0  0  0  0  0  0  0
  158.2880  212.8810  146.2480 C   0  0  0  0  0  0  0  0  0  0  0  0
  159.8970  210.9380  144.7840 C   0  0  0  0  0  2  0  0  0  0  0  0
  159.5180  212.0700  144.1920 C   0  0  0  0  0  0  0  0  0  0  0  0
  160.8940  211.6750  142.2930 O   0  0  0  0  0  0  0  0  0  0  0  0
  158.7550  213.0740  144.9010 N   0  0  0  0  0  0  0  0  0  0  0  0
  158.6880  214.4270  144.3360 C   0  0  0  0  0  2  0  0  0  0  0  0
  158.4700  214.3680  142.8290 C   0  0  0  0  0  2  0  0  0  0  0  0
  159.5190  213.5820  142.1870 N   0  0  0  0  0  0  0  0  0  0  0  0
  160.0060  212.3880  142.8350 C   0  0  0  0  0  0  0  0  0  0  0  0
  160.0310  214.0760  140.9060 C   0  0  2  0  0  3  0  0  0  0  0  0
  158.9040  214.4510  139.9340 C   0  0  2  0  0  3  0  0  0  0  0  0
  157.6990  213.5350  140.0750 C   0  0  0  0  0  1  0  0  0  0  0  0
  158.6510  213.4910  137.7510 O   0  0  0  0  0  1  0  0  0  0  0  0
  159.3920  214.4100  138.4950 C   0  0  0  0  0  2  0  0  0  0  0  0
  160.9520  213.1860  140.3340 O   0  0  0  0  0  0  0  0  0  0  0  0
  161.4540  213.8400  139.2000 C   0  0  0  0  0  2  0  0  0  0  0  0
  162.8370  214.4160  139.4770 C   0  0  0  0  0  2  0  0  0  0  0  0
  163.5830  214.4490  138.3030 O   0  0  0  0  0  1  0  0  0  0  0  0
  162.9780  212.2250  148.3870 C   0  0  0  0  0  2  0  0  0  0  0  0
  163.3890  212.8890  146.0310 C   0  0  0  0  0  1  0  0  0  0  0  0
  164.0240  212.3590  147.2930 C   0  0  0  0  0  2  0  0  0  0  0  0
  1 10  1  0  0  0  0
  2  1  2  0  0  0  0
  2 18  1  0  0  0  0
  3  7  1  0  0  0  0
  3  2  1  1  0  0  0
  4  7  1  0  0  0  0
  6  5  1  6  0  0  0
  6  3  1  0  0  0  0
  8  4  1  0  0  0  0
  9  6  1  0  0  0  0
  9  8  1  0  0  0  0
 10 11  1  6  0  0  0
 12 17  1  0  0  0  0
 13 10  1  6  0  0  0
 13 15  1  0  0  0  0
 13 16  1  0  0  0  0
 14 17  1  0  0  0  0
 15 12  1  0  0  0  0
 16 14  1  0  0  0  0
 19 18  1  0  0  0  0
 19 20  1  0  0  0  0
 21 20  1  0  0  0  0
 21 22  1  0  0  0  0
 22 23  1  1  0  0  0
 24 22  1  0  0  0  0
 25 24  2  0  0  0  0
 26 25  1  0  0  0  0
 27 34  1  6  0  0  0
 27 28  1  0  0  0  0
 28 30  1  0  0  0  0
 29 27  1  0  0  0  0
 29 32  1  0  0  0  0
 30 26  1  1  0  0  0
 31 30  1  0  0  0  0
 32 38  1  6  0  0  0
 32 31  1  0  0  0  0
 33 34  1  0  0  0  0
 36 35  1  6  0  0  0
 36 34  1  0  0  0  0
 37 36  1  0  0  0  0
 39 38  1  0  0  0  0
 40 39  1  0  0  0  0
 40 41  1  0  0  0  0
 42  1  1  0  0  0  0
 43 66  1  0  0  0  0
 43 44  2  0  0  0  0
 44 42  1  0  0  0  0
 46 44  1  0  0  0  0
 47 46  2  0  0  0  0
 48 45  1  0  0  0  0
 48 47  2  0  0  0  0
 50 49  2  0  0  0  0
 50 52  1  0  0  0  0
 51 56  2  0  0  0  0
 52 48  1  0  0  0  0
 53 52  1  0  0  0  0
 54 53  1  0  0  0  0
 55 54  1  0  0  0  0
 55 56  1  0  0  0  0
 56 50  1  0  0  0  0
 57 62  1  6  0  0  0
 57 55  1  0  0  0  0
 58 59  1  6  0  0  0
 58 57  1  0  0  0  0
 60 61  1  0  0  0  0
 61 58  1  0  0  0  0
 63 64  1  0  0  0  0
 63 62  1  0  0  0  0
 65 64  1  0  0  0  0
 67 68  1  0  0  0  0
 68 66  1  0  0  0  0
M  END
>  <MODEL>
3

>  <REMARK>
 VINA RESULT:       3.7      2.848      8.671
  Name = 
  28 active torsions:
  status: ('A' for Active; 'I' for Inactive)
    1  A    between atoms: C_1  and  N_53
    2  A    between atoms: C_3  and  C_26
    3  A    between atoms: C_5  and  C_15
    4  A    between atoms: C_5  and  C_18
    5  A    between atoms: O_9  and  C_13
    6  A    between atoms: O_9  and  C_16
    7  A    between atoms: C_11  and  C_66
    8  A    between atoms: C_13  and  C_64
    9  A    between atoms: O_14  and  C_65
   10  A    between atoms: O_14  and  C_66
   11  A    between atoms: C_15  and  C_17
   12  A    between atoms: C_16  and  C_41
   13  A    between atoms: C_17  and  C_33
   14  A    between atoms: C_22  and  C_38
   15  A    between atoms: C_23  and  C_28
   16  A    between atoms: C_23  and  N_39
   17  A    between atoms: C_24  and  C_38
   18  A    between atoms: C_26  and  N_43
   19  A    between atoms: C_29  and  N_53
   20  A    between atoms: C_32  and  C_36
   21  A    between atoms: C_33  and  C_45
   22  A    between atoms: C_34  and  N_42
   23  A    between atoms: C_34  and  C_61
   24  A    between atoms: C_36  and  C_65
   25  A    between atoms: N_37  and  C_59
   26  A    between atoms: N_39  and  C_67
   27  A    between atoms: N_43  and  C_64
   28  A    between atoms: N_58  and  C_65
                            x       y       z     vdW  Elec       q    Type
                         _______ _______ _______ _____ _____    ______ ____

>  <TORSDO>
F 28

$$$$
=
 OpenBabel11052411203D

 68 72  0  0  1  0  0  0  0  0999 V2000
  160.3190  212.5620  151.7780 C   0  0  0  0  0  0  0  0  0  0  0  0
  160.5500  211.2450  151.5520 C   0  0  0  0  0  0  0  0  0  0  0  0
  161.6450  210.7140  150.6510 C   0  0  2  0  0  3  0  0  0  0  0  0
  162.8510  208.6570  151.2780 N   0  0  0  0  0  2  0  0  0  0  0  0
  160.4320  210.5900  148.5370 N   0  0  0  0  0  1  0  0  0  0  0  0
  161.1120  209.7890  149.5490 C   0  0  1  0  0  3  0  0  0  0  0  0
  162.8910  210.1280  151.3370 C   0  0  0  0  0  2  0  0  0  0  0  0
  162.8620  208.1680  149.8850 C   0  0  0  0  0  2  0  0  0  0  0  0
  162.2340  209.0940  148.9240 N   0  0  0  0  0  2  0  0  0  0  0  0
  159.3490  212.9700  152.8510 C   0  0  1  0  0  3  0  0  0  0  0  0
  159.3940  214.3490  153.0700 O   0  0  0  0  0  1  0  0  0  0  0  0
  156.6970  214.4220  152.5410 C   0  0  0  0  0  2  0  0  0  0  0  0
  157.9160  212.4440  152.6520 C   0  0  2  0  0  3  0  0  0  0  0  0
  156.6900  213.2240  154.7050 C   0  0  0  0  0  2  0  0  0  0  0  0
  157.0830  213.2590  151.8410 O   0  0  0  0  0  0  0  0  0  0  0  0
  157.2370  212.0140  153.9570 C   0  0  0  0  0  2  0  0  0  0  0  0
  155.8550  214.0780  153.7640 C   0  0  0  0  0  2  0  0  0  0  0  0
  159.8280  210.2640  152.2990 N   0  0  0  0  0  2  0  0  0  0  0  0
  159.9950  208.8500  152.0100 C   0  0  0  0  0  2  0  0  0  0  0  0
  160.7760  208.1710  153.1120 C   0  0  0  0  0  2  0  0  0  0  0  0
  161.7310  207.3160  152.5660 O   0  0  0  0  0  0  0  0  0  0  0  0
  161.7460  206.2090  153.4160 C   0  0  1  0  0  3  0  0  0  0  0  0
  161.0240  206.5520  154.7070 C   0  0  0  0  0  1  0  0  0  0  0  0
  161.0600  205.0660  152.7440 C   0  0  0  0  0  3  0  0  0  0  0  0
  161.7120  204.0170  152.4160 N   0  0  0  0  0  0  0  0  0  0  0  0
  161.0340  202.9280  151.7670 C   0  0  0  0  0  2  0  0  0  0  0  0
  160.8920  204.6520  148.3510 C   0  0  2  0  0  3  0  0  0  0  0  0
  161.0040  204.5350  149.8750 C   0  0  0  0  0  2  0  0  0  0  0  0
  160.9290  203.3920  147.7120 O   0  0  0  0  0  0  0  0  0  0  0  0
  161.1540  203.0620  150.2610 C   0  0  2  0  0  3  0  0  0  0  0  0
  160.2090  202.2070  149.6280 O   0  0  0  0  0  0  0  0  0  0  0  0
  159.8980  202.6330  148.3040 C   0  0  2  0  0  3  0  0  0  0  0  0
  163.2330  204.9480  147.9470 C   0  0  0  0  0  1  0  0  0  0  0  0
  161.9120  205.5700  147.8200 N   0  0  0  0  0  0  0  0  0  0  0  0
  160.1520  205.8810  146.1320 C   0  0  0  0  0  1  0  0  0  0  0  0
  161.6480  205.8300  146.3960 C   0  0  2  0  0  3  0  0  0  0  0  0
  162.1950  204.8210  145.5980 O   0  0  0  0  0  1  0  0  0  0  0  0
  159.5410  201.4930  147.4630 N   0  0  0  0  0  2  0  0  0  0  0  0
  160.2040  201.6090  146.1720 C   0  0  0  0  0  2  0  0  0  0  0  0
  161.5200  200.8670  146.2230 C   0  0  0  0  0  2  0  0  0  0  0  0
  161.4670  199.7980  147.2980 C   0  0  0  0  0  1  0  0  0  0  0  0
  161.0310  213.6490  151.0180 C   0  0  0  0  0  2  0  0  0  0  0  0
  161.5710  213.1430  148.6550 C   0  0  0  0  0  3  0  0  0  0  0  0
  160.7120  213.6720  149.5350 C   0  0  0  0  0  0  0  0  0  0  0  0
  156.9520  212.0620  147.4490 C   0  0  0  0  0  1  0  0  0  0  0  0
  159.3940  214.1510  149.0690 C   0  0  0  0  0  3  0  0  0  0  0  0
  158.7170  213.5740  148.1070 C   0  0  0  0  0  0  0  0  0  0  0  0
  158.0750  212.9990  147.1280 C   0  0  0  0  0  0  0  0  0  0  0  0
  160.7590  212.5020  146.1000 C   0  0  0  0  0  2  0  0  0  0  0  0
  159.8020  212.9370  145.2810 C   0  0  0  0  0  0  0  0  0  0  0  0
  161.3310  213.2940  143.4950 O   0  0  0  0  0  0  0  0  0  0  0  0
  158.4710  213.2340  145.7650 N   0  0  0  0  0  0  0  0  0  0  0  0
  157.5870  214.0430  144.9200 C   0  0  0  0  0  2  0  0  0  0  0  0
  157.6820  213.6000  143.4650 C   0  0  0  0  0  2  0  0  0  0  0  0
  159.0620  213.6660  142.9950 N   0  0  0  0  0  0  0  0  0  0  0  0
  160.1300  213.2720  143.8810 C   0  0  0  0  0  0  0  0  0  0  0  0
  159.2770  214.1540  141.6310 C   0  0  2  0  0  3  0  0  0  0  0  0
  158.3540  213.4680  140.6140 C   0  0  2  0  0  3  0  0  0  0  0  0
  159.0330  212.2950  139.9260 C   0  0  0  0  0  2  0  0  0  0  0  0
  157.4330  213.7790  138.4220 O   0  0  0  0  0  1  0  0  0  0  0  0
  157.8800  214.4530  139.5590 C   0  0  0  0  0  2  0  0  0  0  0  0
  160.6270  214.0800  141.2560 O   0  0  0  0  0  0  0  0  0  0  0  0
  160.7840  212.8220  140.6580 C   0  0  2  0  0  3  0  0  0  0  0  0
  162.2580  212.5080  140.4380 C   0  0  0  0  0  2  0  0  0  0  0  0
  162.5430  212.4880  139.0760 O   0  0  0  0  0  1  0  0  0  0  0  0
  162.9070  212.5860  149.0300 C   0  0  0  0  0  2  0  0  0  0  0  0
  163.7070  214.4520  147.6030 C   0  0  0  0  0  1  0  0  0  0  0  0
  163.9530  213.0230  148.0190 C   0  0  0  0  0  2  0  0  0  0  0  0
  1 10  1  0  0  0  0
  2  1  2  0  0  0  0
  2 18  1  0  0  0  0
  3  7  1  0  0  0  0
  3  2  1  1  0  0  0
  4  7  1  0  0  0  0
  6  5  1  6  0  0  0
  6  3  1  0  0  0  0
  8  4  1  0  0  0  0
  9  6  1  0  0  0  0
  9  8  1  0  0  0  0
 10 11  1  6  0  0  0
 12 17  1  0  0  0  0
 13 10  1  1  0  0  0
 13 16  1  0  0  0  0
 15 12  1  0  0  0  0
 15 13  1  0  0  0  0
 16 14  1  0  0  0  0
 17 14  1  0  0  0  0
 19 18  1  0  0  0  0
 19 20  1  0  0  0  0
 21 20  1  0  0  0  0
 21 22  1  0  0  0  0
 22 23  1  1  0  0  0
 24 22  1  0  0  0  0
 25 24  2  0  0  0  0
 26 25  1  0  0  0  0
 27 34  1  6  0  0  0
 27 28  1  0  0  0  0
 28 30  1  0  0  0  0
 29 32  1  0  0  0  0
 29 27  1  0  0  0  0
 30 26  1  1  0  0  0
 31 30  1  0  0  0  0
 32 38  1  6  0  0  0
 32 31  1  0  0  0  0
 34 33  1  0  0  0  0
 36 35  1  1  0  0  0
 36 34  1  0  0  0  0
 37 36  1  0  0  0  0
 39 40  1  0  0  0  0
 39 38  1  0  0  0  0
 40 41  1  0  0  0  0
 42  1  1  0  0  0  0
 43 66  1  0  0  0  0
 43 44  2  0  0  0  0
 44 42  1  0  0  0  0
 46 44  1  0  0  0  0
 47 46  2  0  0  0  0
 48 45  1  0  0  0  0
 48 47  2  0  0  0  0
 50 52  1  0  0  0  0
 50 49  2  0  0  0  0
 51 56  2  0  0  0  0
 52 48  1  0  0  0  0
 53 52  1  0  0  0  0
 54 53  1  0  0  0  0
 55 54  1  0  0  0  0
 55 56  1  0  0  0  0
 56 50  1  0  0  0  0
 57 55  1  1  0  0  0
 58 61  1  6  0  0  0
 58 57  1  0  0  0  0
 59 58  1  0  0  0  0
 59 63  1  0  0  0  0
 60 61  1  0  0  0  0
 62 57  1  0  0  0  0
 63 64  1  6  0  0  0
 63 62  1  0  0  0  0
 65 64  1  0  0  0  0
 67 68  1  0  0  0  0
 68 66  1  0  0  0  0
M  END
>  <MODEL>
4

>  <REMARK>
 VINA RESULT:       3.8      2.880      8.916
  Name = 
  28 active torsions:
  status: ('A' for Active; 'I' for Inactive)
    1  A    between atoms: C_1  and  N_53
    2  A    between atoms: C_3  and  C_26
    3  A    between atoms: C_5  and  C_15
    4  A    between atoms: C_5  and  C_18
    5  A    between atoms: O_9  and  C_13
    6  A    between atoms: O_9  and  C_16
    7  A    between atoms: C_11  and  C_66
    8  A    between atoms: C_13  and  C_64
    9  A    between atoms: O_14  and  C_65
   10  A    between atoms: O_14  and  C_66
   11  A    between atoms: C_15  and  C_17
   12  A    between atoms: C_16  and  C_41
   13  A    between atoms: C_17  and  C_33
   14  A    between atoms: C_22  and  C_38
   15  A    between atoms: C_23  and  C_28
   16  A    between atoms: C_23  and  N_39
   17  A    between atoms: C_24  and  C_38
   18  A    between atoms: C_26  and  N_43
   19  A    between atoms: C_29  and  N_53
   20  A    between atoms: C_32  and  C_36
   21  A    between atoms: C_33  and  C_45
   22  A    between atoms: C_34  and  N_42
   23  A    between atoms: C_34  and  C_61
   24  A    between atoms: C_36  and  C_65
   25  A    between atoms: N_37  and  C_59
   26  A    between atoms: N_39  and  C_67
   27  A    between atoms: N_43  and  C_64
   28  A    between atoms: N_58  and  C_65
                            x       y       z     vdW  Elec       q    Type
                         _______ _______ _______ _____ _____    ______ ____

>  <TORSDO>
F 28

$$$$
=
 OpenBabel11052411203D

 68 71  0  0  1  0  0  0  0  0999 V2000
  161.8840  204.7070  149.1660 C   0  0  1  0  0  3  0  0  0  0  0  0
  161.7310  205.9460  148.6400 C   0  0  0  0  0  0  0  0  0  0  0  0
  162.1600  207.2250  149.3300 C   0  0  2  0  0  3  0  0  0  0  0  0
  163.0690  209.0860  147.9940 N   0  0  0  0  0  2  0  0  0  0  0  0
  160.1210  207.7450  150.5640 N   0  0  0  0  0  1  0  0  0  0  0  0
  161.0070  208.2200  149.5080 C   0  0  1  0  0  3  0  0  0  0  0  0
  163.4320  207.9100  148.8010 C   0  0  0  0  0  2  0  0  0  0  0  0
  162.3440  210.0930  148.7940 C   0  0  0  0  0  2  0  0  0  0  0  0
  161.5520  209.5180  149.8970 N   0  0  0  0  0  2  0  0  0  0  0  0
  161.6200  203.5000  148.3080 C   0  0  1  0  0  3  0  0  0  0  0  0
  162.7900  203.0650  147.6800 O   0  0  0  0  0  1  0  0  0  0  0  0
  162.1260  200.5050  148.4070 C   0  0  0  0  0  2  0  0  0  0  0  0
  160.8670  202.3620  149.0210 C   0  0  2  0  0  3  0  0  0  0  0  0
  160.0390  200.9100  147.1410 C   0  0  0  0  0  2  0  0  0  0  0  0
  161.6850  201.2980  149.4870 O   0  0  0  0  0  0  0  0  0  0  0  0
  159.6350  201.8720  148.2530 C   0  0  0  0  0  2  0  0  0  0  0  0
  160.9540  199.8320  147.7000 C   0  0  0  0  0  2  0  0  0  0  0  0
  161.2680  206.0900  147.2960 N   0  0  0  0  0  0  0  0  0  0  0  0
  161.1810  204.9340  146.4200 C   0  0  0  0  0  2  0  0  0  0  0  0
  162.4060  204.8410  145.5380 C   0  0  0  0  0  2  0  0  0  0  0  0
  162.5150  205.9840  144.7480 O   0  0  0  0  0  0  0  0  0  0  0  0
  161.5950  205.7940  143.7160 C   0  0  1  0  0  3  0  0  0  0  0  0
  160.3160  206.5500  144.0310 C   0  0  0  0  0  1  0  0  0  0  0  0
  162.1780  206.3020  142.4400 C   0  0  0  0  0  3  0  0  0  0  0  0
  161.4920  206.2920  141.3610 N   0  0  0  0  0  0  0  0  0  0  0  0
  162.0720  206.7830  140.1400 C   0  0  0  0  0  2  0  0  0  0  0  0
  161.5660  210.0220  138.1620 C   0  0  2  0  0  3  0  0  0  0  0  0
  161.8240  208.5290  138.3930 C   0  0  0  0  0  2  0  0  0  0  0  0
  161.2160  210.6960  139.3530 O   0  0  0  0  0  0  0  0  0  0  0  0
  161.5970  208.1970  139.8690 C   0  0  2  0  0  3  0  0  0  0  0  0
  162.2410  209.0980  140.7630 O   0  0  0  0  0  0  0  0  0  0  0  0
  162.2600  210.4320  140.2630 C   0  0  2  0  0  3  0  0  0  0  0  0
  159.3550  209.4650  137.4310 C   0  0  0  0  0  1  0  0  0  0  0  0
  160.5650  210.2220  137.1000 N   0  0  0  0  0  0  0  0  0  0  0  0
  161.4260  212.5120  137.3460 C   0  0  0  0  0  1  0  0  0  0  0  0
  160.2210  211.6500  137.0110 C   0  0  2  0  0  3  0  0  0  0  0  0
  159.1960  211.9690  137.9060 O   0  0  0  0  0  1  0  0  0  0  0  0
  162.2530  211.3970  141.3600 N   0  0  0  0  0  2  0  0  0  0  0  0
  161.0680  212.2380  141.2660 C   0  0  0  0  0  2  0  0  0  0  0  0
  160.8330  212.9150  142.5970 C   0  0  0  0  0  2  0  0  0  0  0  0
  160.1310  211.9580  143.5430 C   0  0  0  0  0  1  0  0  0  0  0  0
  162.3520  204.4810  150.5800 C   0  0  0  0  0  2  0  0  0  0  0  0
  160.4140  205.2870  151.8910 C   0  0  0  0  0  3  0  0  0  0  0  0
  161.7130  205.4100  151.5940 C   0  0  0  0  0  0  0  0  0  0  0  0
  161.8520  207.3900  155.7340 C   0  0  0  0  0  1  0  0  0  0  0  0
  162.5500  206.3590  152.3580 C   0  0  0  0  0  3  0  0  0  0  0  0
  162.0950  207.0820  153.3510 C   0  0  0  0  0  0  0  0  0  0  0  0
  161.6110  207.8120  154.3180 C   0  0  0  0  0  0  0  0  0  0  0  0
  162.4820  209.9560  152.5430 C   0  0  0  0  0  2  0  0  0  0  0  0
  161.2740  210.0050  153.1030 C   0  0  0  0  0  0  0  0  0  0  0  0
  160.8860  212.2270  152.3520 O   0  0  0  0  0  0  0  0  0  0  0  0
  160.8260  208.9800  154.0210 N   0  0  0  0  0  0  0  0  0  0  0  0
  159.6690  209.2680  154.8770 C   0  0  0  0  0  2  0  0  0  0  0  0
  158.5760  209.9720  154.0810 C   0  0  0  0  0  2  0  0  0  0  0  0
  159.0910  211.1910  153.4650 N   0  0  0  0  0  0  0  0  0  0  0  0
  160.4230  211.1960  152.9120 C   0  0  0  0  0  0  0  0  0  0  0  0
  158.2060  212.3590  153.4640 C   0  0  2  0  0  3  0  0  0  0  0  0
  157.4010  212.4820  154.7650 C   0  0  2  0  0  3  0  0  0  0  0  0
  158.2650  212.2570  155.9950 C   0  0  0  0  0  1  0  0  0  0  0  0
  155.8020  211.2830  156.0900 O   0  0  0  0  0  1  0  0  0  0  0  0
  156.2450  211.4970  154.7840 C   0  0  0  0  0  2  0  0  0  0  0  0
  157.3850  212.3900  152.3270 O   0  0  0  0  0  0  0  0  0  0  0  0
  157.8600  213.4530  151.5470 C   0  0  0  0  0  2  0  0  0  0  0  0
  157.5620  213.2180  150.0720 C   0  0  0  0  0  2  0  0  0  0  0  0
  158.6810  213.5240  149.3050 O   0  0  0  0  0  1  0  0  0  0  0  0
  159.4940  204.3230  151.2140 C   0  0  0  0  0  2  0  0  0  0  0  0
  160.9690  202.7830  152.4830 C   0  0  0  0  0  1  0  0  0  0  0  0
  159.6030  202.9560  151.8670 C   0  0  0  0  0  2  0  0  0  0  0  0
  1 42  1  6  0  0  0
  2  1  1  0  0  0  0
  3  2  1  6  0  0  0
  3  6  1  0  0  0  0
  4  8  1  0  0  0  0
  4  7  1  0  0  0  0
  6  9  1  0  0  0  0
  6  5  1  1  0  0  0
  7  3  1  0  0  0  0
  8  9  1  0  0  0  0
 10 11  1  1  0  0  0
 10  1  1  0  0  0  0
 12 15  1  0  0  0  0
 13 10  1  6  0  0  0
 13 15  1  0  0  0  0
 14 17  1  0  0  0  0
 14 16  1  0  0  0  0
 16 13  1  0  0  0  0
 17 12  1  0  0  0  0
 18  2  2  0  0  0  0
 19 18  1  0  0  0  0
 20 19  1  0  0  0  0
 21 20  1  0  0  0  0
 22 23  1  1  0  0  0
 22 21  1  0  0  0  0
 24 22  1  0  0  0  0
 25 24  2  0  0  0  0
 26 25  1  0  0  0  0
 27 34  1  6  0  0  0
 27 28  1  0  0  0  0
 27 29  1  0  0  0  0
 28 30  1  0  0  0  0
 29 32  1  0  0  0  0
 30 26  1  6  0  0  0
 30 31  1  0  0  0  0
 32 31  1  0  0  0  0
 32 38  1  1  0  0  0
 34 33  1  0  0  0  0
 36 34  1  0  0  0  0
 36 35  1  1  0  0  0
 36 37  1  0  0  0  0
 39 38  1  0  0  0  0
 39 40  1  0  0  0  0
 40 41  1  0  0  0  0
 42 44  1  0  0  0  0
 44 43  2  0  0  0  0
 44 46  1  0  0  0  0
 46 47  2  0  0  0  0
 47 48  2  0  0  0  0
 48 45  1  0  0  0  0
 49 50  2  0  0  0  0
 50 52  1  0  0  0  0
 51 56  2  0  0  0  0
 52 48  1  0  0  0  0
 52 53  1  0  0  0  0
 54 53  1  0  0  0  0
 55 54  1  0  0  0  0
 56 50  1  0  0  0  0
 56 55  1  0  0  0  0
 57 62  1  6  0  0  0
 57 55  1  0  0  0  0
 57 58  1  0  0  0  0
 58 61  1  0  0  0  0
 58 59  1  1  0  0  0
 61 60  1  0  0  0  0
 63 62  1  0  0  0  0
 64 63  1  0  0  0  0
 65 64  1  0  0  0  0
 66 68  1  0  0  0  0
 66 43  1  0  0  0  0
 68 67  1  0  0  0  0
M  END
>  <MODEL>
5

>  <REMARK>
 VINA RESULT:       4.1      2.164     11.585
  Name = 
  28 active torsions:
  status: ('A' for Active; 'I' for Inactive)
    1  A    between atoms: C_1  and  N_53
    2  A    between atoms: C_3  and  C_26
    3  A    between atoms: C_5  and  C_15
    4  A    between atoms: C_5  and  C_18
    5  A    between atoms: O_9  and  C_13
    6  A    between atoms: O_9  and  C_16
    7  A    between atoms: C_11  and  C_66
    8  A    between atoms: C_13  and  C_64
    9  A    between atoms: O_14  and  C_65
   10  A    between atoms: O_14  and  C_66
   11  A    between atoms: C_15  and  C_17
   12  A    between atoms: C_16  and  C_41
   13  A    between atoms: C_17  and  C_33
   14  A    between atoms: C_22  and  C_38
   15  A    between atoms: C_23  and  C_28
   16  A    between atoms: C_23  and  N_39
   17  A    between atoms: C_24  and  C_38
   18  A    between atoms: C_26  and  N_43
   19  A    between atoms: C_29  and  N_53
   20  A    between atoms: C_32  and  C_36
   21  A    between atoms: C_33  and  C_45
   22  A    between atoms: C_34  and  N_42
   23  A    between atoms: C_34  and  C_61
   24  A    between atoms: C_36  and  C_65
   25  A    between atoms: N_37  and  C_59
   26  A    between atoms: N_39  and  C_67
   27  A    between atoms: N_43  and  C_64
   28  A    between atoms: N_58  and  C_65
                            x       y       z     vdW  Elec       q    Type
                         _______ _______ _______ _____ _____    ______ ____

>  <TORSDO>
F 28

$$$$
=
 OpenBabel11052411203D

 68 71  0  0  1  0  0  0  0  0999 V2000
  161.1220  204.8190  146.4800 C   0  0  0  0  0  0  0  0  0  0  0  0
  161.2920  205.2860  147.7410 C   0  0  0  0  0  0  0  0  0  0  0  0
  160.9170  206.6830  148.1920 C   0  0  2  0  0  3  0  0  0  0  0  0
  160.0580  207.0400  150.4750 N   0  0  0  0  0  2  0  0  0  0  0  0
  162.9890  207.8640  147.6770 N   0  0  0  0  0  1  0  0  0  0  0  0
  162.1070  207.4620  148.7670 C   0  0  1  0  0  3  0  0  0  0  0  0
  159.6640  206.8200  149.0730 C   0  0  0  0  0  2  0  0  0  0  0  0
  160.8290  208.2890  150.6330 C   0  0  0  0  0  2  0  0  0  0  0  0
  161.6140  208.6590  149.4410 N   0  0  0  0  0  2  0  0  0  0  0  0
  161.3290  203.3570  146.1970 C   0  0  1  0  0  3  0  0  0  0  0  0
  162.5220  202.9010  146.7620 O   0  0  0  0  0  1  0  0  0  0  0  0
  161.0420  200.3350  146.3390 C   0  0  0  0  0  2  0  0  0  0  0  0
  160.1250  202.4630  146.5430 C   0  0  2  0  0  3  0  0  0  0  0  0
  159.7050  201.1640  144.4300 C   0  0  0  0  0  2  0  0  0  0  0  0
  160.4450  201.2580  147.2240 O   0  0  0  0  0  0  0  0  0  0  0  0
  159.1700  202.2440  145.3650 C   0  0  0  0  0  2  0  0  0  0  0  0
  160.0770  199.9270  145.2310 C   0  0  0  0  0  2  0  0  0  0  0  0
  161.7170  204.3930  148.7730 N   0  0  0  0  0  2  0  0  0  0  0  0
  160.9980  204.3290  150.0330 C   0  0  0  0  0  2  0  0  0  0  0  0
  161.7920  204.9980  151.1330 C   0  0  0  0  0  2  0  0  0  0  0  0
  161.1990  204.7530  152.3700 O   0  0  0  0  0  0  0  0  0  0  0  0
  161.7310  205.7230  153.2190 C   0  0  1  0  0  3  0  0  0  0  0  0
  162.5790  206.6920  152.4130 C   0  0  0  0  0  1  0  0  0  0  0  0
  160.6150  206.4620  153.8800 C   0  0  0  0  0  3  0  0  0  0  0  0
  160.4550  206.4020  155.1470 N   0  0  0  0  0  0  0  0  0  0  0  0
  159.3720  207.1190  155.7650 C   0  0  0  0  0  2  0  0  0  0  0  0
  159.5630  210.8970  155.1710 C   0  0  2  0  0  3  0  0  0  0  0  0
  158.9950  209.4750  155.0820 C   0  0  0  0  0  2  0  0  0  0  0  0
  160.6560  210.9820  156.0610 O   0  0  0  0  0  0  0  0  0  0  0  0
  159.7780  208.5570  156.0220 C   0  0  2  0  0  3  0  0  0  0  0  0
  161.1900  208.6840  155.9000 O   0  0  0  0  0  0  0  0  0  0  0  0
  161.5880  210.0230  155.6160 C   0  0  2  0  0  3  0  0  0  0  0  0
  158.9980  212.7870  156.5280 C   0  0  0  0  0  1  0  0  0  0  0  0
  158.5040  211.8630  155.5030 N   0  0  0  0  0  0  0  0  0  0  0  0
  159.2110  212.4720  153.2280 C   0  0  0  0  0  1  0  0  0  0  0  0
  158.1490  212.6360  154.3020 C   0  0  2  0  0  3  0  0  0  0  0  0
  158.0420  213.9970  154.6030 O   0  0  0  0  0  1  0  0  0  0  0  0
  162.9180  210.2940  156.1580 N   0  0  0  0  0  2  0  0  0  0  0  0
  163.7550  210.8930  155.1280 C   0  0  0  0  0  2  0  0  0  0  0  0
  164.9660  211.5220  155.7770 C   0  0  0  0  0  2  0  0  0  0  0  0
  164.6830  211.7900  157.2440 C   0  0  0  0  0  1  0  0  0  0  0  0
  160.6910  205.7060  145.3420 C   0  0  0  0  0  2  0  0  0  0  0  0
  162.9690  205.7150  144.3720 C   0  0  0  0  0  3  0  0  0  0  0  0
  161.6470  205.7010  144.1630 C   0  0  0  0  0  0  0  0  0  0  0  0
  163.0870  206.0750  139.8200 C   0  0  0  0  0  1  0  0  0  0  0  0
  161.1270  205.5390  142.7900 C   0  0  0  0  0  3  0  0  0  0  0  0
  161.6370  206.1510  141.7500 C   0  0  0  0  0  0  0  0  0  0  0  0
  162.1450  206.7940  140.7340 C   0  0  0  0  0  0  0  0  0  0  0  0
  160.6260  207.8020  138.4570 C   0  0  0  0  0  2  0  0  0  0  0  0
  161.0410  208.6420  139.4050 C   0  0  0  0  0  0  0  0  0  0  0  0
  160.3930  210.5580  138.1540 O   0  0  0  0  0  0  0  0  0  0  0  0
  161.8320  208.1820  140.5260 N   0  0  0  0  0  0  0  0  0  0  0  0
  162.5610  209.1790  141.3190 C   0  0  0  0  0  2  0  0  0  0  0  0
  161.6880  210.4020  141.5770 C   0  0  0  0  0  2  0  0  0  0  0  0
  161.2180  210.9730  140.3190 N   0  0  0  0  0  0  0  0  0  0  0  0
  160.8280  210.0930  139.2440 C   0  0  0  0  0  0  0  0  0  0  0  0
  161.1860  212.4350  140.2240 C   0  0  2  0  0  3  0  0  0  0  0  0
  159.7540  212.9860  140.1850 C   0  0  2  0  0  3  0  0  0  0  0  0
  159.4260  213.8140  141.4160 C   0  0  0  0  0  1  0  0  0  0  0  0
  157.6570  212.2580  139.2790 O   0  0  0  0  0  1  0  0  0  0  0  0
  158.7420  211.8600  140.0610 C   0  0  0  0  0  2  0  0  0  0  0  0
  161.9650  212.9050  139.1550 O   0  0  0  0  0  0  0  0  0  0  0  0
  163.2870  212.5670  139.4740 C   0  0  0  0  0  2  0  0  0  0  0  0
  164.2690  213.4500  138.7150 C   0  0  0  0  0  2  0  0  0  0  0  0
  163.6170  214.1020  137.6730 O   0  0  0  0  0  1  0  0  0  0  0  0
  163.5960  205.8230  145.7250 C   0  0  0  0  0  2  0  0  0  0  0  0
  165.2730  204.4990  146.9880 C   0  0  0  0  0  1  0  0  0  0  0  0
  163.9660  204.4410  146.2360 C   0  0  0  0  0  2  0  0  0  0  0  0
  1  2  2  0  0  0  0
  2 18  1  0  0  0  0
  3  2  1  1  0  0  0
  3  6  1  0  0  0  0
  3  7  1  0  0  0  0
  4  8  1  0  0  0  0
  6  5  1  6  0  0  0
  6  9  1  0  0  0  0
  7  4  1  0  0  0  0
  9  8  1  0  0  0  0
 10  1  1  0  0  0  0
 10 11  1  1  0  0  0
 12 15  1  0  0  0  0
 13 10  1  6  0  0  0
 13 15  1  0  0  0  0
 14 17  1  0  0  0  0
 14 16  1  0  0  0  0
 16 13  1  0  0  0  0
 17 12  1  0  0  0  0
 18 19  1  0  0  0  0
 19 20  1  0  0  0  0
 20 21  1  0  0  0  0
 21 22  1  0  0  0  0
 22 23  1  6  0  0  0
 22 24  1  0  0  0  0
 24 25  2  0  0  0  0
 25 26  1  0  0  0  0
 27 34  1  1  0  0  0
 27 29  1  0  0  0  0
 28 27  1  0  0  0  0
 28 30  1  0  0  0  0
 30 26  1  6  0  0  0
 31 30  1  0  0  0  0
 32 31  1  0  0  0  0
 32 29  1  0  0  0  0
 32 38  1  1  0  0  0
 34 33  1  0  0  0  0
 36 35  1  6  0  0  0
 36 37  1  0  0  0  0
 36 34  1  0  0  0  0
 39 40  1  0  0  0  0
 39 38  1  0  0  0  0
 40 41  1  0  0  0  0
 42  1  1  0  0  0  0
 43 66  1  0  0  0  0
 44 43  2  0  0  0  0
 44 42  1  0  0  0  0
 45 48  1  0  0  0  0
 46 44  1  0  0  0  0
 47 46  2  0  0  0  0
 48 47  2  0  0  0  0
 49 50  2  0  0  0  0
 50 52  1  0  0  0  0
 51 56  2  0  0  0  0
 52 48  1  0  0  0  0
 52 53  1  0  0  0  0
 53 54  1  0  0  0  0
 55 54  1  0  0  0  0
 56 50  1  0  0  0  0
 56 55  1  0  0  0  0
 57 62  1  6  0  0  0
 57 55  1  0  0  0  0
 58 57  1  0  0  0  0
 58 59  1  1  0  0  0
 60 61  1  0  0  0  0
 61 58  1  0  0  0  0
 62 63  1  0  0  0  0
 64 63  1  0  0  0  0
 65 64  1  0  0  0  0
 66 68  1  0  0  0  0
 68 67  1  0  0  0  0
M  END
>  <MODEL>
6

>  <REMARK>
 VINA RESULT:       4.9      1.208      2.310
  Name = 
  28 active torsions:
  status: ('A' for Active; 'I' for Inactive)
    1  A    between atoms: C_1  and  N_53
    2  A    between atoms: C_3  and  C_26
    3  A    between atoms: C_5  and  C_15
    4  A    between atoms: C_5  and  C_18
    5  A    between atoms: O_9  and  C_13
    6  A    between atoms: O_9  and  C_16
    7  A    between atoms: C_11  and  C_66
    8  A    between atoms: C_13  and  C_64
    9  A    between atoms: O_14  and  C_65
   10  A    between atoms: O_14  and  C_66
   11  A    between atoms: C_15  and  C_17
   12  A    between atoms: C_16  and  C_41
   13  A    between atoms: C_17  and  C_33
   14  A    between atoms: C_22  and  C_38
   15  A    between atoms: C_23  and  C_28
   16  A    between atoms: C_23  and  N_39
   17  A    between atoms: C_24  and  C_38
   18  A    between atoms: C_26  and  N_43
   19  A    between atoms: C_29  and  N_53
   20  A    between atoms: C_32  and  C_36
   21  A    between atoms: C_33  and  C_45
   22  A    between atoms: C_34  and  N_42
   23  A    between atoms: C_34  and  C_61
   24  A    between atoms: C_36  and  C_65
   25  A    between atoms: N_37  and  C_59
   26  A    between atoms: N_39  and  C_67
   27  A    between atoms: N_43  and  C_64
   28  A    between atoms: N_58  and  C_65
                            x       y       z     vdW  Elec       q    Type
                         _______ _______ _______ _____ _____    ______ ____

>  <TORSDO>
F 28

$$$$
