=
 OpenBabel11052411443D

 42 44  0  0  1  0  0  0  0  0999 V2000
  161.4370  206.7510  149.9980 C   0  0  0  0  0  0  0  0  0  0  0  0
  161.8850  208.0590  149.7640 C   0  0  0  0  0  3  0  0  0  0  0  0
  161.4200  208.6500  152.0710 C   0  0  0  0  0  0  0  0  0  0  0  0
  160.9780  207.3450  152.3070 C   0  0  0  0  0  3  0  0  0  0  0  0
  161.8780  209.0110  150.7900 C   0  0  0  0  0  0  0  0  0  0  0  0
  160.9830  206.4020  151.2760 C   0  0  0  0  0  3  0  0  0  0  0  0
  161.1340  204.4400  149.1550 N   0  0  0  0  0  0  0  0  0  0  0  0
  160.9200  202.2990  148.0090 N   0  0  0  0  0  2  0  0  0  0  0  0
  161.6640  204.6240  146.7120 S   0  0  0  0  0  0  0  0  0  0  0  0
  161.4450  205.7460  148.9180 C   0  0  0  0  0  0  0  0  0  0  0  0
  161.7750  206.0560  147.5930 C   0  0  0  0  0  3  0  0  0  0  0  0
  161.2120  203.6970  148.0340 C   0  0  0  0  0  0  0  0  0  0  0  0
  161.0390  201.4870  146.8060 C   0  0  1  0  0  3  0  0  0  0  0  0
  161.5400  200.1010  147.1690 C   0  0  0  0  0  1  0  0  0  0  0  0
  160.0300  201.6480  144.8450 C   0  0  0  0  0  1  0  0  0  0  0  0
  159.7900  201.3800  146.1940 O   0  0  0  0  0  0  0  0  0  0  0  0
  161.4240  209.6210  153.2050 C   0  0  0  0  0  2  0  0  0  0  0  0
  160.8520  208.9980  154.3870 N   0  0  0  0  0  2  0  0  0  0  0  0
  160.7850  210.0200  155.4170 C   0  0  0  0  0  2  0  0  0  0  0  0
  159.3510  210.1870  155.8770 C   0  0  0  0  0  2  0  0  0  0  0  0
  158.8730  211.5860  155.5380 C   0  0  0  0  0  2  0  0  0  0  0  0
  157.9880  211.5520  154.3350 C   0  0  0  0  0  0  0  0  0  0  0  0
  156.8070  211.2680  154.4490 O   0  0  0  0  0  0  0  0  0  0  0  0
  159.2180  213.0970  153.0390 O   0  0  0  0  0  1  0  0  0  0  0  0
  158.5440  211.8770  152.9890 C   0  0  0  0  0  2  0  0  0  0  0  0
  162.4590  210.6720  150.4330 S   0  0  0  0  0  0  0  0  0  0  0  0
  161.8740  210.6030  148.7120 C   0  0  0  0  0  2  0  0  0  0  0  0
  161.4310  211.9200  148.2840 N   0  0  0  0  0  2  0  0  0  0  0  0
  163.5770  212.8420  148.2680 O   0  0  0  0  0  0  0  0  0  0  0  0
  162.3470  212.9910  148.0380 C   0  0  0  0  0  0  0  0  0  0  0  0
  161.8750  214.2410  147.5380 N   0  0  0  0  0  2  0  0  0  0  0  0
  157.5860  214.4200  146.5880 C   0  0  0  0  0  2  0  0  0  0  0  0
  160.8180  214.2680  144.8290 O   0  0  0  0  0  0  0  0  0  0  0  0
  160.4820  214.4470  147.1590 C   0  0  1  0  0  3  0  0  0  0  0  0
  160.2500  213.8100  145.8110 C   0  0  0  0  0  0  0  0  0  0  0  0
  157.8040  213.2040  145.6760 C   0  0  0  0  0  2  0  0  0  0  0  0
  158.0420  214.2170  148.0390 C   0  0  1  0  0  3  0  0  0  0  0  0
  159.9450  214.3770  149.6330 C   0  0  0  0  0  1  0  0  0  0  0  0
  157.1680  213.1890  148.7370 C   0  0  0  0  0  1  0  0  0  0  0  0
  159.5350  213.8920  148.2500 C   0  0  2  0  0  3  0  0  0  0  0  0
  159.2460  212.6930  145.6640 C   0  0  1  0  0  3  0  0  0  0  0  0
  159.4940  211.8380  144.4330 C   0  0  0  0  0  1  0  0  0  0  0  0
  1  6  1  0  0  0  0
  2  1  2  0  0  0  0
  2  5  1  0  0  0  0
  3  4  1  0  0  0  0
  3 17  1  0  0  0  0
  5  3  2  0  0  0  0
  6  4  2  0  0  0  0
  8 12  1  0  0  0  0
  9 11  1  0  0  0  0
  9 12  1  0  0  0  0
 10  7  1  0  0  0  0
 10  1  1  0  0  0  0
 11 10  2  0  0  0  0
 12  7  2  0  0  0  0
 13 14  1  1  0  0  0
 13  8  1  0  0  0  0
 15 16  1  0  0  0  0
 16 13  1  0  0  0  0
 17 18  1  0  0  0  0
 18 19  1  0  0  0  0
 19 20  1  0  0  0  0
 21 20  1  0  0  0  0
 22 23  2  0  0  0  0
 22 21  1  0  0  0  0
 25 24  1  0  0  0  0
 25 22  1  0  0  0  0
 26  5  1  0  0  0  0
 27 26  1  0  0  0  0
 28 27  1  0  0  0  0
 30 29  2  0  0  0  0
 30 28  1  0  0  0  0
 31 30  1  0  0  0  0
 32 37  1  0  0  0  0
 33 35  2  0  0  0  0
 34 31  1  1  0  0  0
 34 40  1  0  0  0  0
 35 34  1  0  0  0  0
 36 32  1  0  0  0  0
 37 40  1  0  0  0  0
 37 39  1  6  0  0  0
 40 38  1  1  0  0  0
 41 42  1  6  0  0  0
 41 36  1  0  0  0  0
 41 35  1  0  0  0  0
M  END
>  <MODEL>
1

>  <REMARK>
 VINA RESULT:      -6.8      0.000      0.000
  Name = 
  14 active torsions:
  status: ('A' for Active; 'I' for Inactive)
    1  A    between atoms: C_1  and  C_7
    2  A    between atoms: C_1  and  C_27
    3  A    between atoms: C_2  and  N_20
    4  A    between atoms: C_2  and  C_22
    5  A    between atoms: C_6  and  C_26
    6  A    between atoms: C_8  and  N_29
    7  A    between atoms: N_12  and  C_25
    8  A    between atoms: C_16  and  C_19
    9  A    between atoms: C_19  and  N_20
   10  A    between atoms: N_21  and  C_38
   11  A    between atoms: C_22  and  C_27
   12  A    between atoms: C_25  and  O_41
   13  A    between atoms: S_28  and  C_38
   14  A    between atoms: S_28  and  C_39
                            x       y       z     vdW  Elec       q    Type
                         _______ _______ _______ _____ _____    ______ ____

>  <TORSDO>
F 14

$$$$
=
 OpenBabel11052411443D

 42 44  0  0  1  0  0  0  0  0999 V2000
  161.2740  206.9060  151.9660 C   0  0  0  0  0  0  0  0  0  0  0  0
  161.7370  207.9680  151.1750 C   0  0  0  0  0  3  0  0  0  0  0  0
  161.3470  209.5200  152.9990 C   0  0  0  0  0  0  0  0  0  0  0  0
  160.8900  208.4620  153.7900 C   0  0  0  0  0  3  0  0  0  0  0  0
  161.7750  209.2730  151.6810 C   0  0  0  0  0  0  0  0  0  0  0  0
  160.8490  207.1640  153.2760 C   0  0  0  0  0  3  0  0  0  0  0  0
  161.1850  205.2830  150.0950 N   0  0  0  0  0  0  0  0  0  0  0  0
  161.1070  203.4380  148.5040 N   0  0  0  0  0  2  0  0  0  0  0  0
  161.1760  203.0550  151.2410 S   0  0  0  0  0  0  0  0  0  0  0  0
  161.2340  205.5310  151.4340 C   0  0  0  0  0  0  0  0  0  0  0  0
  161.2370  204.3980  152.2560 C   0  0  0  0  0  3  0  0  0  0  0  0
  161.1470  203.9630  149.8320 C   0  0  0  0  0  0  0  0  0  0  0  0
  161.0300  202.0120  148.2200 C   0  0  1  0  0  3  0  0  0  0  0  0
  159.9290  201.3810  149.0540 C   0  0  0  0  0  1  0  0  0  0  0  0
  161.2590  202.9580  146.2350 C   0  0  0  0  0  1  0  0  0  0  0  0
  160.7480  201.8240  146.8660 O   0  0  0  0  0  0  0  0  0  0  0  0
  161.3990  210.8880  153.5940 C   0  0  0  0  0  2  0  0  0  0  0  0
  160.1360  211.1880  154.2480 N   0  0  0  0  0  2  0  0  0  0  0  0
  159.6500  212.4360  153.6850 C   0  0  0  0  0  2  0  0  0  0  0  0
  158.1350  212.4470  153.6990 C   0  0  0  0  0  2  0  0  0  0  0  0
  157.6300  211.2700  154.5130 C   0  0  0  0  0  2  0  0  0  0  0  0
  156.7710  211.7490  155.6360 C   0  0  0  0  0  0  0  0  0  0  0  0
  155.6510  211.2910  155.7910 O   0  0  0  0  0  0  0  0  0  0  0  0
  158.4220  212.3050  157.2310 O   0  0  0  0  0  1  0  0  0  0  0  0
  157.2850  212.7830  156.5810 C   0  0  0  0  0  2  0  0  0  0  0  0
  162.3740  210.5940  150.6230 S   0  0  0  0  0  0  0  0  0  0  0  0
  161.8940  209.7160  149.1040 C   0  0  0  0  0  2  0  0  0  0  0  0
  161.5040  210.6730  148.0800 N   0  0  0  0  0  2  0  0  0  0  0  0
  160.9560  212.3590  149.6010 O   0  0  0  0  0  0  0  0  0  0  0  0
  161.0820  212.0020  148.3990 C   0  0  0  0  0  0  0  0  0  0  0  0
  160.7920  212.9340  147.3580 N   0  0  0  0  0  2  0  0  0  0  0  0
  161.5620  212.4520  143.0560 C   0  0  0  0  0  2  0  0  0  0  0  0
  158.7470  212.2200  145.4190 O   0  0  0  0  0  0  0  0  0  0  0  0
  161.0110  212.6170  145.9520 C   0  0  1  0  0  3  0  0  0  0  0  0
  159.7400  212.8960  145.1900 C   0  0  0  0  0  0  0  0  0  0  0  0
  160.3880  213.4080  142.8050 C   0  0  0  0  0  2  0  0  0  0  0  0
  162.6570  213.0150  143.9730 C   0  0  1  0  0  3  0  0  0  0  0  0
  163.4250  213.2870  146.3230 C   0  0  0  0  0  1  0  0  0  0  0  0
  163.3800  214.1690  143.2990 C   0  0  0  0  0  1  0  0  0  0  0  0
  162.2220  213.4080  145.4000 C   0  0  2  0  0  3  0  0  0  0  0  0
  159.7290  213.9250  144.0850 C   0  0  1  0  0  3  0  0  0  0  0  0
  158.3360  214.4530  143.7870 C   0  0  0  0  0  1  0  0  0  0  0  0
  1  6  1  0  0  0  0
  2  5  1  0  0  0  0
  2  1  2  0  0  0  0
  3 17  1  0  0  0  0
  3  4  1  0  0  0  0
  5  3  2  0  0  0  0
  6  4  2  0  0  0  0
  7 10  1  0  0  0  0
  8 12  1  0  0  0  0
  9 11  1  0  0  0  0
 10  1  1  0  0  0  0
 10 11  2  0  0  0  0
 12  7  2  0  0  0  0
 12  9  1  0  0  0  0
 13  8  1  0  0  0  0
 13 14  1  1  0  0  0
 15 16  1  0  0  0  0
 16 13  1  0  0  0  0
 17 18  1  0  0  0  0
 19 20  1  0  0  0  0
 19 18  1  0  0  0  0
 20 21  1  0  0  0  0
 21 22  1  0  0  0  0
 22 23  2  0  0  0  0
 22 25  1  0  0  0  0
 25 24  1  0  0  0  0
 26  5  1  0  0  0  0
 27 26  1  0  0  0  0
 28 30  1  0  0  0  0
 28 27  1  0  0  0  0
 30 29  2  0  0  0  0
 31 30  1  0  0  0  0
 32 37  1  0  0  0  0
 34 31  1  1  0  0  0
 35 33  2  0  0  0  0
 35 34  1  0  0  0  0
 36 32  1  0  0  0  0
 36 41  1  0  0  0  0
 37 39  1  6  0  0  0
 37 40  1  0  0  0  0
 40 34  1  0  0  0  0
 40 38  1  1  0  0  0
 41 42  1  6  0  0  0
 41 35  1  0  0  0  0
M  END
>  <MODEL>
2

>  <REMARK>
 VINA RESULT:      -6.2      2.151      3.111
  Name = 
  14 active torsions:
  status: ('A' for Active; 'I' for Inactive)
    1  A    between atoms: C_1  and  C_7
    2  A    between atoms: C_1  and  C_27
    3  A    between atoms: C_2  and  N_20
    4  A    between atoms: C_2  and  C_22
    5  A    between atoms: C_6  and  C_26
    6  A    between atoms: C_8  and  N_29
    7  A    between atoms: N_12  and  C_25
    8  A    between atoms: C_16  and  C_19
    9  A    between atoms: C_19  and  N_20
   10  A    between atoms: N_21  and  C_38
   11  A    between atoms: C_22  and  C_27
   12  A    between atoms: C_25  and  O_41
   13  A    between atoms: S_28  and  C_38
   14  A    between atoms: S_28  and  C_39
                            x       y       z     vdW  Elec       q    Type
                         _______ _______ _______ _____ _____    ______ ____

>  <TORSDO>
F 14

$$$$
=
 OpenBabel11052411443D

 42 44  0  0  1  0  0  0  0  0999 V2000
  160.4730  208.8940  154.1360 C   0  0  0  0  0  0  0  0  0  0  0  0
  160.7070  209.3120  152.8180 C   0  0  0  0  0  3  0  0  0  0  0  0
  161.3790  207.0620  152.2050 C   0  0  0  0  0  0  0  0  0  0  0  0
  161.1420  206.6430  153.5180 C   0  0  0  0  0  3  0  0  0  0  0  0
  161.1600  208.4070  151.8510 C   0  0  0  0  0  0  0  0  0  0  0  0
  160.6960  207.5540  154.4780 C   0  0  0  0  0  3  0  0  0  0  0  0
  158.9380  210.6750  154.9200 N   0  0  0  0  0  0  0  0  0  0  0  0
  157.6070  212.4120  155.9950 N   0  0  0  0  0  2  0  0  0  0  0  0
  159.7370  211.1680  157.2440 S   0  0  0  0  0  0  0  0  0  0  0  0
  159.9950  209.8470  155.1560 C   0  0  0  0  0  0  0  0  0  0  0  0
  160.5880  209.9720  156.4180 C   0  0  0  0  0  3  0  0  0  0  0  0
  158.6760  211.4650  155.9790 C   0  0  0  0  0  0  0  0  0  0  0  0
  157.3460  213.2920  157.1250 C   0  0  1  0  0  3  0  0  0  0  0  0
  158.3380  214.4410  157.1220 C   0  0  0  0  0  1  0  0  0  0  0  0
  155.7090  213.6480  155.6830 C   0  0  0  0  0  1  0  0  0  0  0  0
  156.0510  213.8010  157.0270 O   0  0  0  0  0  0  0  0  0  0  0  0
  161.8300  206.0530  151.2030 C   0  0  0  0  0  2  0  0  0  0  0  0
  160.6920  205.5830  150.4320 N   0  0  0  0  0  2  0  0  0  0  0  0
  160.9700  204.2070  150.0560 C   0  0  0  0  0  2  0  0  0  0  0  0
  161.3550  204.1460  148.5910 C   0  0  0  0  0  2  0  0  0  0  0  0
  160.7510  205.3310  147.8620 C   0  0  0  0  0  2  0  0  0  0  0  0
  161.7640  205.9520  146.9570 C   0  0  0  0  0  0  0  0  0  0  0  0
  162.7270  206.5380  147.4240 O   0  0  0  0  0  0  0  0  0  0  0  0
  160.2550  205.7780  145.1490 O   0  0  0  0  0  1  0  0  0  0  0  0
  161.6080  205.8480  145.4770 C   0  0  0  0  0  2  0  0  0  0  0  0
  161.4450  208.9970  150.1800 S   0  0  0  0  0  0  0  0  0  0  0  0
  162.0030  210.6290  150.7570 C   0  0  0  0  0  2  0  0  0  0  0  0
  161.2950  211.6780  150.0390 N   0  0  0  0  0  2  0  0  0  0  0  0
  160.0880  212.3970  151.9050 O   0  0  0  0  0  0  0  0  0  0  0  0
  160.3760  212.5600  150.6900 C   0  0  0  0  0  0  0  0  0  0  0  0
  159.7690  213.6290  149.9640 N   0  0  0  0  0  2  0  0  0  0  0  0
  160.8130  214.0650  145.7160 C   0  0  0  0  0  2  0  0  0  0  0  0
  162.3930  214.4490  149.0200 O   0  0  0  0  0  0  0  0  0  0  0  0
  160.1320  213.9330  148.5860 C   0  0  1  0  0  3  0  0  0  0  0  0
  161.6150  213.7200  148.4190 C   0  0  0  0  0  0  0  0  0  0  0  0
  162.0310  213.1730  145.9910 C   0  0  0  0  0  2  0  0  0  0  0  0
  159.4660  213.4460  146.1150 C   0  0  1  0  0  3  0  0  0  0  0  0
  157.8130  213.1360  147.9480 C   0  0  0  0  0  1  0  0  0  0  0  0
  159.1410  212.2550  145.2290 C   0  0  0  0  0  1  0  0  0  0  0  0
  159.2950  213.0780  147.6030 C   0  0  2  0  0  3  0  0  0  0  0  0
  162.1290  212.6920  147.4400 C   0  0  1  0  0  3  0  0  0  0  0  0
  163.5450  212.2390  147.7520 C   0  0  0  0  0  1  0  0  0  0  0  0
  1  6  1  0  0  0  0
  1 10  1  0  0  0  0
  2  1  2  0  0  0  0
  3  4  1  0  0  0  0
  4  6  2  0  0  0  0
  5  3  2  0  0  0  0
  5  2  1  0  0  0  0
  7 10  1  0  0  0  0
  7 12  2  0  0  0  0
  8 13  1  0  0  0  0
 10 11  2  0  0  0  0
 11  9  1  0  0  0  0
 12  8  1  0  0  0  0
 12  9  1  0  0  0  0
 13 14  1  6  0  0  0
 15 16  1  0  0  0  0
 16 13  1  0  0  0  0
 17  3  1  0  0  0  0
 18 17  1  0  0  0  0
 19 18  1  0  0  0  0
 20 19  1  0  0  0  0
 21 20  1  0  0  0  0
 22 23  2  0  0  0  0
 22 21  1  0  0  0  0
 24 25  1  0  0  0  0
 25 22  1  0  0  0  0
 26 27  1  0  0  0  0
 26  5  1  0  0  0  0
 28 30  1  0  0  0  0
 28 27  1  0  0  0  0
 30 29  2  0  0  0  0
 31 30  1  0  0  0  0
 32 36  1  0  0  0  0
 32 37  1  0  0  0  0
 34 31  1  1  0  0  0
 35 34  1  0  0  0  0
 35 33  2  0  0  0  0
 36 41  1  0  0  0  0
 37 39  1  6  0  0  0
 37 40  1  0  0  0  0
 40 38  1  1  0  0  0
 40 34  1  0  0  0  0
 41 42  1  1  0  0  0
 41 35  1  0  0  0  0
M  END
>  <MODEL>
3

>  <REMARK>
 VINA RESULT:      -6.0      2.467      8.174
  Name = 
  14 active torsions:
  status: ('A' for Active; 'I' for Inactive)
    1  A    between atoms: C_1  and  C_7
    2  A    between atoms: C_1  and  C_27
    3  A    between atoms: C_2  and  N_20
    4  A    between atoms: C_2  and  C_22
    5  A    between atoms: C_6  and  C_26
    6  A    between atoms: C_8  and  N_29
    7  A    between atoms: N_12  and  C_25
    8  A    between atoms: C_16  and  C_19
    9  A    between atoms: C_19  and  N_20
   10  A    between atoms: N_21  and  C_38
   11  A    between atoms: C_22  and  C_27
   12  A    between atoms: C_25  and  O_41
   13  A    between atoms: S_28  and  C_38
   14  A    between atoms: S_28  and  C_39
                            x       y       z     vdW  Elec       q    Type
                         _______ _______ _______ _____ _____    ______ ____

>  <TORSDO>
F 14

$$$$
=
 OpenBabel11052411443D

 42 44  0  0  1  0  0  0  0  0999 V2000
  161.0870  208.4890  152.4150 C   0  0  0  0  0  0  0  0  0  0  0  0
  161.3000  209.2100  151.2310 C   0  0  0  0  0  3  0  0  0  0  0  0
  161.6230  207.1410  150.0070 C   0  0  0  0  0  0  0  0  0  0  0  0
  161.4060  206.4200  151.1850 C   0  0  0  0  0  3  0  0  0  0  0  0
  161.5700  208.5470  150.0290 C   0  0  0  0  0  0  0  0  0  0  0  0
  161.1430  207.0900  152.3820 C   0  0  0  0  0  3  0  0  0  0  0  0
  160.1000  210.3550  153.7140 N   0  0  0  0  0  0  0  0  0  0  0  0
  159.2540  212.0240  155.2760 N   0  0  0  0  0  2  0  0  0  0  0  0
  160.6980  209.8100  156.0860 S   0  0  0  0  0  0  0  0  0  0  0  0
  160.8020  209.1870  153.6830 C   0  0  0  0  0  0  0  0  0  0  0  0
  161.2310  208.7100  154.9270 C   0  0  0  0  0  3  0  0  0  0  0  0
  159.9620  210.8220  154.9690 C   0  0  0  0  0  0  0  0  0  0  0  0
  159.1350  212.5490  156.6290 C   0  0  1  0  0  3  0  0  0  0  0  0
  159.9750  213.8060  156.7680 C   0  0  0  0  0  1  0  0  0  0  0  0
  157.2750  213.2480  155.6600 C   0  0  0  0  0  1  0  0  0  0  0  0
  157.8000  212.8560  156.8920 O   0  0  0  0  0  0  0  0  0  0  0  0
  161.8750  206.3880  148.7430 C   0  0  0  0  0  2  0  0  0  0  0  0
  160.6300  206.2260  148.0110 N   0  0  0  0  0  2  0  0  0  0  0  0
  160.9180  205.3870  146.8600 C   0  0  0  0  0  2  0  0  0  0  0  0
  161.8430  204.2590  147.2700 C   0  0  0  0  0  2  0  0  0  0  0  0
  161.1270  202.9320  147.1000 C   0  0  0  0  0  2  0  0  0  0  0  0
  161.0480  202.2160  148.4080 C   0  0  0  0  0  0  0  0  0  0  0  0
  161.3850  201.0460  148.4880 O   0  0  0  0  0  0  0  0  0  0  0  0
  161.1450  202.3710  150.7620 O   0  0  0  0  0  1  0  0  0  0  0  0
  160.5670  202.9330  149.6240 C   0  0  0  0  0  2  0  0  0  0  0  0
  161.8390  209.5210  148.5450 S   0  0  0  0  0  0  0  0  0  0  0  0
  162.2730  211.0110  149.4940 C   0  0  0  0  0  2  0  0  0  0  0  0
  161.8320  212.2000  148.7810 N   0  0  0  0  0  2  0  0  0  0  0  0
  163.9930  212.9040  148.2420 O   0  0  0  0  0  0  0  0  0  0  0  0
  162.7510  213.0870  148.1370 C   0  0  0  0  0  0  0  0  0  0  0  0
  162.2680  214.1940  147.3770 N   0  0  0  0  0  2  0  0  0  0  0  0
  157.9060  214.3980  146.8640 C   0  0  0  0  0  2  0  0  0  0  0  0
  160.9390  214.1410  144.7910 O   0  0  0  0  0  0  0  0  0  0  0  0
  160.8460  214.4060  147.1350 C   0  0  1  0  0  3  0  0  0  0  0  0
  160.4700  213.7260  145.8420 C   0  0  0  0  0  0  0  0  0  0  0  0
  158.0170  213.1480  145.9800 C   0  0  0  0  0  2  0  0  0  0  0  0
  158.5070  214.2410  148.2680 C   0  0  1  0  0  3  0  0  0  0  0  0
  160.5650  214.4300  149.6520 C   0  0  0  0  0  1  0  0  0  0  0  0
  157.6990  213.2490  149.0880 C   0  0  0  0  0  1  0  0  0  0  0  0
  160.0100  213.9030  148.3370 C   0  0  2  0  0  3  0  0  0  0  0  0
  159.4450  212.6170  145.8390 C   0  0  1  0  0  3  0  0  0  0  0  0
  159.5570  211.7170  144.6200 C   0  0  0  0  0  1  0  0  0  0  0  0
  1 10  1  0  0  0  0
  2  1  2  0  0  0  0
  3  5  2  0  0  0  0
  3  4  1  0  0  0  0
  4  6  2  0  0  0  0
  5  2  1  0  0  0  0
  6  1  1  0  0  0  0
  7 12  2  0  0  0  0
  8 13  1  0  0  0  0
 10  7  1  0  0  0  0
 10 11  2  0  0  0  0
 11  9  1  0  0  0  0
 12  8  1  0  0  0  0
 12  9  1  0  0  0  0
 13 14  1  6  0  0  0
 13 16  1  0  0  0  0
 15 16  1  0  0  0  0
 17  3  1  0  0  0  0
 18 17  1  0  0  0  0
 19 20  1  0  0  0  0
 19 18  1  0  0  0  0
 21 20  1  0  0  0  0
 21 22  1  0  0  0  0
 22 23  2  0  0  0  0
 22 25  1  0  0  0  0
 25 24  1  0  0  0  0
 26 27  1  0  0  0  0
 26  5  1  0  0  0  0
 28 27  1  0  0  0  0
 30 29  2  0  0  0  0
 30 28  1  0  0  0  0
 31 30  1  0  0  0  0
 32 37  1  0  0  0  0
 33 35  2  0  0  0  0
 34 31  1  1  0  0  0
 34 40  1  0  0  0  0
 35 34  1  0  0  0  0
 36 32  1  0  0  0  0
 37 40  1  0  0  0  0
 37 39  1  6  0  0  0
 40 38  1  1  0  0  0
 41 42  1  6  0  0  0
 41 35  1  0  0  0  0
 41 36  1  0  0  0  0
M  END
>  <MODEL>
4

>  <REMARK>
 VINA RESULT:      -6.0      1.815      7.745
  Name = 
  14 active torsions:
  status: ('A' for Active; 'I' for Inactive)
    1  A    between atoms: C_1  and  C_7
    2  A    between atoms: C_1  and  C_27
    3  A    between atoms: C_2  and  N_20
    4  A    between atoms: C_2  and  C_22
    5  A    between atoms: C_6  and  C_26
    6  A    between atoms: C_8  and  N_29
    7  A    between atoms: N_12  and  C_25
    8  A    between atoms: C_16  and  C_19
    9  A    between atoms: C_19  and  N_20
   10  A    between atoms: N_21  and  C_38
   11  A    between atoms: C_22  and  C_27
   12  A    between atoms: C_25  and  O_41
   13  A    between atoms: S_28  and  C_38
   14  A    between atoms: S_28  and  C_39
                            x       y       z     vdW  Elec       q    Type
                         _______ _______ _______ _____ _____    ______ ____

>  <TORSDO>
F 14

$$$$
=
 OpenBabel11052411443D

 42 44  0  0  1  0  0  0  0  0999 V2000
  159.9880  212.5760  151.6970 C   0  0  0  0  0  0  0  0  0  0  0  0
  160.7790  211.6070  151.0630 C   0  0  0  0  0  3  0  0  0  0  0  0
  161.1400  213.1030  149.1870 C   0  0  0  0  0  0  0  0  0  0  0  0
  160.3550  214.0710  149.8200 C   0  0  0  0  0  3  0  0  0  0  0  0
  161.3540  211.8600  149.8130 C   0  0  0  0  0  0  0  0  0  0  0  0
  159.7790  213.8090  151.0650 C   0  0  0  0  0  3  0  0  0  0  0  0
  158.0380  212.4230  153.2210 N   0  0  0  0  0  0  0  0  0  0  0  0
  156.3540  212.1760  154.9660 N   0  0  0  0  0  2  0  0  0  0  0  0
  159.0490  211.7500  155.4130 S   0  0  0  0  0  0  0  0  0  0  0  0
  159.3820  212.3110  153.0160 C   0  0  0  0  0  0  0  0  0  0  0  0
  160.1330  211.9390  154.1370 C   0  0  0  0  0  3  0  0  0  0  0  0
  157.7030  212.1460  154.4950 C   0  0  0  0  0  0  0  0  0  0  0  0
  155.9940  211.9110  156.3510 C   0  0  1  0  0  3  0  0  0  0  0  0
  155.2950  213.1230  156.9410 C   0  0  0  0  0  1  0  0  0  0  0  0
  155.2520  210.2080  155.1530 C   0  0  0  0  0  1  0  0  0  0  0  0
  155.1360  210.8120  156.4060 O   0  0  0  0  0  0  0  0  0  0  0  0
  161.7580  213.4310  147.8690 C   0  0  0  0  0  2  0  0  0  0  0  0
  160.7690  214.0500  147.0030 N   0  0  0  0  0  2  0  0  0  0  0  0
  160.7370  213.2770  145.7720 C   0  0  0  0  0  2  0  0  0  0  0  0
  161.3690  214.0770  144.6510 C   0  0  0  0  0  2  0  0  0  0  0  0
  162.4170  213.2290  143.9560 C   0  0  0  0  0  2  0  0  0  0  0  0
  162.0250  212.9840  142.5350 C   0  0  0  0  0  0  0  0  0  0  0  0
  162.8680  212.9990  141.6540 O   0  0  0  0  0  0  0  0  0  0  0  0
  160.3520  211.3380  142.2680 O   0  0  0  0  0  1  0  0  0  0  0  0
  160.6000  212.7090  142.1910 C   0  0  0  0  0  2  0  0  0  0  0  0
  162.3560  210.5820  149.0460 S   0  0  0  0  0  0  0  0  0  0  0  0
  162.5100  209.6470  150.5990 C   0  0  0  0  0  2  0  0  0  0  0  0
  162.1710  208.2510  150.3740 N   0  0  0  0  0  2  0  0  0  0  0  0
  160.3480  208.2640  151.8340 O   0  0  0  0  0  0  0  0  0  0  0  0
  161.0420  207.6300  150.9950 C   0  0  0  0  0  0  0  0  0  0  0  0
  160.6980  206.2810  150.6790 N   0  0  0  0  0  2  0  0  0  0  0  0
  162.3770  203.9550  147.3460 C   0  0  0  0  0  2  0  0  0  0  0  0
  161.8480  203.6280  150.9760 O   0  0  0  0  0  0  0  0  0  0  0  0
  161.3990  205.5260  149.6470 C   0  0  1  0  0  3  0  0  0  0  0  0
  161.2970  204.0570  149.9720 C   0  0  0  0  0  0  0  0  0  0  0  0
  161.4870  202.7890  147.7980 C   0  0  0  0  0  2  0  0  0  0  0  0
  161.6210  205.2610  147.0660 C   0  0  1  0  0  3  0  0  0  0  0  0
  160.7370  207.3710  148.0430 C   0  0  0  0  0  1  0  0  0  0  0  0
  160.7240  205.1100  145.8490 C   0  0  0  0  0  1  0  0  0  0  0  0
  160.8340  205.8660  148.2470 C   0  0  2  0  0  3  0  0  0  0  0  0
  160.6130  203.1130  149.0120 C   0  0  1  0  0  3  0  0  0  0  0  0
  160.1400  201.8340  149.6800 C   0  0  0  0  0  1  0  0  0  0  0  0
  1 10  1  0  0  0  0
  2  1  2  0  0  0  0
  3  5  2  0  0  0  0
  3  4  1  0  0  0  0
  4  6  2  0  0  0  0
  5  2  1  0  0  0  0
  6  1  1  0  0  0  0
  7 12  2  0  0  0  0
  8 13  1  0  0  0  0
 10  7  1  0  0  0  0
 10 11  2  0  0  0  0
 11  9  1  0  0  0  0
 12  8  1  0  0  0  0
 12  9  1  0  0  0  0
 13 16  1  0  0  0  0
 13 14  1  6  0  0  0
 15 16  1  0  0  0  0
 17  3  1  0  0  0  0
 18 17  1  0  0  0  0
 19 18  1  0  0  0  0
 20 19  1  0  0  0  0
 21 20  1  0  0  0  0
 22 21  1  0  0  0  0
 23 22  2  0  0  0  0
 25 24  1  0  0  0  0
 25 22  1  0  0  0  0
 26  5  1  0  0  0  0
 26 27  1  0  0  0  0
 28 27  1  0  0  0  0
 28 30  1  0  0  0  0
 30 29  2  0  0  0  0
 31 30  1  0  0  0  0
 32 36  1  0  0  0  0
 34 35  1  0  0  0  0
 34 31  1  1  0  0  0
 35 33  2  0  0  0  0
 36 41  1  0  0  0  0
 37 39  1  6  0  0  0
 37 32  1  0  0  0  0
 37 40  1  0  0  0  0
 40 38  1  6  0  0  0
 40 34  1  0  0  0  0
 41 42  1  1  0  0  0
 41 35  1  0  0  0  0
M  END
>  <MODEL>
5

>  <REMARK>
 VINA RESULT:      -5.7      2.860     10.068
  Name = 
  14 active torsions:
  status: ('A' for Active; 'I' for Inactive)
    1  A    between atoms: C_1  and  C_7
    2  A    between atoms: C_1  and  C_27
    3  A    between atoms: C_2  and  N_20
    4  A    between atoms: C_2  and  C_22
    5  A    between atoms: C_6  and  C_26
    6  A    between atoms: C_8  and  N_29
    7  A    between atoms: N_12  and  C_25
    8  A    between atoms: C_16  and  C_19
    9  A    between atoms: C_19  and  N_20
   10  A    between atoms: N_21  and  C_38
   11  A    between atoms: C_22  and  C_27
   12  A    between atoms: C_25  and  O_41
   13  A    between atoms: S_28  and  C_38
   14  A    between atoms: S_28  and  C_39
                            x       y       z     vdW  Elec       q    Type
                         _______ _______ _______ _____ _____    ______ ____

>  <TORSDO>
F 14

$$$$
=
 OpenBabel11052411443D

 42 44  0  0  1  0  0  0  0  0999 V2000
  161.6310  207.3500  149.7970 C   0  0  0  0  0  0  0  0  0  0  0  0
  161.7550  208.1740  150.9260 C   0  0  0  0  0  3  0  0  0  0  0  0
  162.0830  210.1090  149.4990 C   0  0  0  0  0  0  0  0  0  0  0  0
  161.9550  209.2900  148.3730 C   0  0  0  0  0  3  0  0  0  0  0  0
  161.9830  209.5470  150.7860 C   0  0  0  0  0  0  0  0  0  0  0  0
  161.7340  207.9190  148.5210 C   0  0  0  0  0  3  0  0  0  0  0  0
  161.4500  205.0560  148.8750 N   0  0  0  0  0  0  0  0  0  0  0  0
  161.2060  202.7000  148.2990 N   0  0  0  0  0  2  0  0  0  0  0  0
  160.8770  203.6560  150.8730 S   0  0  0  0  0  0  0  0  0  0  0  0
  161.3890  205.9020  149.9430 C   0  0  0  0  0  0  0  0  0  0  0  0
  161.0770  205.3020  151.1680 C   0  0  0  0  0  3  0  0  0  0  0  0
  161.1900  203.7840  149.2300 C   0  0  0  0  0  0  0  0  0  0  0  0
  160.8880  201.3300  148.6750 C   0  0  1  0  0  3  0  0  0  0  0  0
  159.4190  201.2240  149.0400 C   0  0  0  0  0  1  0  0  0  0  0  0
  160.7850  201.2060  146.4700 C   0  0  0  0  0  1  0  0  0  0  0  0
  161.1590  200.4800  147.6020 O   0  0  0  0  0  0  0  0  0  0  0  0
  162.2930  211.5730  149.2990 C   0  0  0  0  0  2  0  0  0  0  0  0
  161.0350  212.2050  148.9420 N   0  0  0  0  0  2  0  0  0  0  0  0
  161.3490  213.5410  148.4630 C   0  0  0  0  0  2  0  0  0  0  0  0
  160.1950  214.0720  147.6380 C   0  0  0  0  0  2  0  0  0  0  0  0
  160.3670  213.6430  146.1940 C   0  0  0  0  0  2  0  0  0  0  0  0
  159.2410  212.7520  145.7820 C   0  0  0  0  0  0  0  0  0  0  0  0
  159.3260  212.0880  144.7620 O   0  0  0  0  0  0  0  0  0  0  0  0
  156.9270  213.1970  145.9310 O   0  0  0  0  0  1  0  0  0  0  0  0
  158.0130  212.6620  146.6230 C   0  0  0  0  0  2  0  0  0  0  0  0
  162.1370  210.5530  152.2650 S   0  0  0  0  0  0  0  0  0  0  0  0
  160.6840  209.7870  153.0460 C   0  0  0  0  0  2  0  0  0  0  0  0
  160.0700  210.7210  153.9770 N   0  0  0  0  0  2  0  0  0  0  0  0
  162.0320  211.0920  155.1880 O   0  0  0  0  0  0  0  0  0  0  0  0
  160.8180  211.3750  155.0060 C   0  0  0  0  0  0  0  0  0  0  0  0
  160.1930  212.3480  155.8410 N   0  0  0  0  0  2  0  0  0  0  0  0
  155.9830  213.2540  154.9550 C   0  0  0  0  0  2  0  0  0  0  0  0
  159.3390  214.4460  154.0190 O   0  0  0  0  0  0  0  0  0  0  0  0
  158.8220  212.7920  155.6200 C   0  0  1  0  0  3  0  0  0  0  0  0
  158.7300  213.4100  154.2480 C   0  0  0  0  0  0  0  0  0  0  0  0
  156.3440  213.1590  153.4660 C   0  0  0  0  0  2  0  0  0  0  0  0
  156.3430  212.0100  155.7780 C   0  0  1  0  0  3  0  0  0  0  0  0
  158.1090  210.8690  157.1070 C   0  0  0  0  0  1  0  0  0  0  0  0
  155.4860  210.8260  155.3620 C   0  0  0  0  0  1  0  0  0  0  0  0
  157.8340  211.6160  155.8100 C   0  0  2  0  0  3  0  0  0  0  0  0
  157.8120  212.8150  153.2080 C   0  0  1  0  0  3  0  0  0  0  0  0
  158.2030  213.1970  151.7900 C   0  0  0  0  0  1  0  0  0  0  0  0
  1 10  1  0  0  0  0
  1  2  1  0  0  0  0
  3  5  1  0  0  0  0
  4  6  1  0  0  0  0
  4  3  2  0  0  0  0
  5  2  2  0  0  0  0
  5 26  1  0  0  0  0
  6  1  2  0  0  0  0
  7 12  2  0  0  0  0
  7 10  1  0  0  0  0
  8 13  1  0  0  0  0
  8 12  1  0  0  0  0
  9 11  1  0  0  0  0
 10 11  2  0  0  0  0
 12  9  1  0  0  0  0
 13 14  1  6  0  0  0
 15 16  1  0  0  0  0
 16 13  1  0  0  0  0
 17  3  1  0  0  0  0
 18 17  1  0  0  0  0
 19 18  1  0  0  0  0
 20 19  1  0  0  0  0
 21 20  1  0  0  0  0
 22 21  1  0  0  0  0
 22 25  1  0  0  0  0
 23 22  2  0  0  0  0
 24 25  1  0  0  0  0
 26 27  1  0  0  0  0
 27 28  1  0  0  0  0
 28 30  1  0  0  0  0
 30 29  2  0  0  0  0
 30 31  1  0  0  0  0
 32 37  1  0  0  0  0
 33 35  2  0  0  0  0
 34 40  1  0  0  0  0
 34 31  1  6  0  0  0
 35 34  1  0  0  0  0
 36 32  1  0  0  0  0
 37 39  1  6  0  0  0
 37 40  1  0  0  0  0
 40 38  1  1  0  0  0
 41 42  1  6  0  0  0
 41 36  1  0  0  0  0
 41 35  1  0  0  0  0
M  END
>  <MODEL>
6

>  <REMARK>
 VINA RESULT:      -5.6      1.946      6.289
  Name = 
  14 active torsions:
  status: ('A' for Active; 'I' for Inactive)
    1  A    between atoms: C_1  and  C_7
    2  A    between atoms: C_1  and  C_27
    3  A    between atoms: C_2  and  N_20
    4  A    between atoms: C_2  and  C_22
    5  A    between atoms: C_6  and  C_26
    6  A    between atoms: C_8  and  N_29
    7  A    between atoms: N_12  and  C_25
    8  A    between atoms: C_16  and  C_19
    9  A    between atoms: C_19  and  N_20
   10  A    between atoms: N_21  and  C_38
   11  A    between atoms: C_22  and  C_27
   12  A    between atoms: C_25  and  O_41
   13  A    between atoms: S_28  and  C_38
   14  A    between atoms: S_28  and  C_39
                            x       y       z     vdW  Elec       q    Type
                         _______ _______ _______ _____ _____    ______ ____

>  <TORSDO>
F 14

$$$$
=
 OpenBabel11052411443D

 42 44  0  0  1  0  0  0  0  0999 V2000
  160.7990  212.5330  149.6700 C   0  0  0  0  0  0  0  0  0  0  0  0
  161.4130  211.4720  150.3520 C   0  0  0  0  0  3  0  0  0  0  0  0
  160.0660  211.9300  152.3170 C   0  0  0  0  0  0  0  0  0  0  0  0
  159.4490  212.9850  151.6370 C   0  0  0  0  0  3  0  0  0  0  0  0
  161.0560  211.1670  151.6700 C   0  0  0  0  0  0  0  0  0  0  0  0
  159.8160  213.2870  150.3240 C   0  0  0  0  0  3  0  0  0  0  0  0
  160.2610  212.8220  147.2680 N   0  0  0  0  0  0  0  0  0  0  0  0
  160.0710  213.1950  144.8660 N   0  0  0  0  0  2  0  0  0  0  0  0
  162.4520  213.4780  146.2430 S   0  0  0  0  0  0  0  0  0  0  0  0
  161.1740  212.8560  148.2800 C   0  0  0  0  0  0  0  0  0  0  0  0
  162.4760  213.2060  147.9060 C   0  0  0  0  0  3  0  0  0  0  0  0
  160.8170  213.1410  146.0840 C   0  0  0  0  0  0  0  0  0  0  0  0
  160.6780  213.5050  143.5800 C   0  0  1  0  0  3  0  0  0  0  0  0
  161.1550  212.2260  142.9160 C   0  0  0  0  0  1  0  0  0  0  0  0
  159.6640  213.3200  141.6240 C   0  0  0  0  0  1  0  0  0  0  0  0
  159.7360  214.1270  142.7600 O   0  0  0  0  0  0  0  0  0  0  0  0
  159.6280  211.6230  153.7100 C   0  0  0  0  0  2  0  0  0  0  0  0
  160.3700  212.4450  154.6510 N   0  0  0  0  0  2  0  0  0  0  0  0
  160.0470  211.9650  155.9840 C   0  0  0  0  0  2  0  0  0  0  0  0
  159.2090  210.7070  155.8840 C   0  0  0  0  0  2  0  0  0  0  0  0
  159.7740  209.6500  156.8130 C   0  0  0  0  0  2  0  0  0  0  0  0
  160.9400  208.9690  156.1740 C   0  0  0  0  0  0  0  0  0  0  0  0
  162.0550  209.4570  156.2550 O   0  0  0  0  0  0  0  0  0  0  0  0
  159.7620  206.9250  156.0780 O   0  0  0  0  0  1  0  0  0  0  0  0
  160.7460  207.6830  155.4440 C   0  0  0  0  0  2  0  0  0  0  0  0
  161.8780  209.8000  152.4940 S   0  0  0  0  0  0  0  0  0  0  0  0
  162.7200  209.2710  150.9710 C   0  0  0  0  0  2  0  0  0  0  0  0
  162.3000  207.9260  150.6140 N   0  0  0  0  0  2  0  0  0  0  0  0
  160.4270  207.9390  152.0090 O   0  0  0  0  0  0  0  0  0  0  0  0
  161.1100  207.3320  151.1410 C   0  0  0  0  0  0  0  0  0  0  0  0
  160.6910  206.0430  150.6960 N   0  0  0  0  0  2  0  0  0  0  0  0
  162.3370  203.8830  147.2380 C   0  0  0  0  0  2  0  0  0  0  0  0
  161.7290  203.3300  150.8280 O   0  0  0  0  0  0  0  0  0  0  0  0
  161.3800  205.3310  149.6260 C   0  0  1  0  0  3  0  0  0  0  0  0
  161.2130  203.8490  149.8470 C   0  0  0  0  0  0  0  0  0  0  0  0
  161.3930  202.7270  147.5940 C   0  0  0  0  0  2  0  0  0  0  0  0
  161.6390  205.2360  147.0370 C   0  0  1  0  0  3  0  0  0  0  0  0
  160.8220  207.3080  148.1440 C   0  0  0  0  0  1  0  0  0  0  0  0
  160.7600  205.2050  145.7980 C   0  0  0  0  0  1  0  0  0  0  0  0
  160.8550  205.7900  148.2440 C   0  0  2  0  0  3  0  0  0  0  0  0
  160.5110  203.0030  148.8130 C   0  0  1  0  0  3  0  0  0  0  0  0
  159.9750  201.7010  149.3840 C   0  0  0  0  0  1  0  0  0  0  0  0
  1  6  2  0  0  0  0
  1  2  1  0  0  0  0
  2  5  2  0  0  0  0
  3 17  1  0  0  0  0
  4  3  2  0  0  0  0
  5  3  1  0  0  0  0
  5 26  1  0  0  0  0
  6  4  1  0  0  0  0
  7 10  1  0  0  0  0
  8 12  1  0  0  0  0
  9 11  1  0  0  0  0
 10  1  1  0  0  0  0
 11 10  2  0  0  0  0
 12  9  1  0  0  0  0
 12  7  2  0  0  0  0
 13 14  1  6  0  0  0
 13  8  1  0  0  0  0
 15 16  1  0  0  0  0
 16 13  1  0  0  0  0
 17 18  1  0  0  0  0
 18 19  1  0  0  0  0
 20 19  1  0  0  0  0
 20 21  1  0  0  0  0
 22 23  2  0  0  0  0
 22 21  1  0  0  0  0
 25 24  1  0  0  0  0
 25 22  1  0  0  0  0
 27 26  1  0  0  0  0
 28 27  1  0  0  0  0
 28 30  1  0  0  0  0
 30 29  2  0  0  0  0
 31 30  1  0  0  0  0
 32 36  1  0  0  0  0
 34 35  1  0  0  0  0
 34 31  1  1  0  0  0
 35 33  2  0  0  0  0
 36 41  1  0  0  0  0
 37 39  1  6  0  0  0
 37 32  1  0  0  0  0
 37 40  1  0  0  0  0
 40 38  1  1  0  0  0
 40 34  1  0  0  0  0
 41 42  1  1  0  0  0
 41 35  1  0  0  0  0
M  END
>  <MODEL>
7

>  <REMARK>
 VINA RESULT:      -5.5      2.927      8.151
  Name = 
  14 active torsions:
  status: ('A' for Active; 'I' for Inactive)
    1  A    between atoms: C_1  and  C_7
    2  A    between atoms: C_1  and  C_27
    3  A    between atoms: C_2  and  N_20
    4  A    between atoms: C_2  and  C_22
    5  A    between atoms: C_6  and  C_26
    6  A    between atoms: C_8  and  N_29
    7  A    between atoms: N_12  and  C_25
    8  A    between atoms: C_16  and  C_19
    9  A    between atoms: C_19  and  N_20
   10  A    between atoms: N_21  and  C_38
   11  A    between atoms: C_22  and  C_27
   12  A    between atoms: C_25  and  O_41
   13  A    between atoms: S_28  and  C_38
   14  A    between atoms: S_28  and  C_39
                            x       y       z     vdW  Elec       q    Type
                         _______ _______ _______ _____ _____    ______ ____

>  <TORSDO>
F 14

$$$$
=
 OpenBabel11052411443D

 42 44  0  0  1  0  0  0  0  0999 V2000
  160.7860  212.5650  149.9640 C   0  0  0  0  0  0  0  0  0  0  0  0
  161.3640  211.4710  150.6250 C   0  0  0  0  0  3  0  0  0  0  0  0
  160.0200  211.9270  152.5940 C   0  0  0  0  0  0  0  0  0  0  0  0
  159.4400  213.0150  151.9340 C   0  0  0  0  0  3  0  0  0  0  0  0
  160.9900  211.1490  151.9350 C   0  0  0  0  0  0  0  0  0  0  0  0
  159.8230  213.3350  150.6300 C   0  0  0  0  0  3  0  0  0  0  0  0
  160.4270  212.5240  147.5120 N   0  0  0  0  0  0  0  0  0  0  0  0
  160.3710  212.6730  145.0800 N   0  0  0  0  0  2  0  0  0  0  0  0
  162.3950  213.7810  146.6020 S   0  0  0  0  0  0  0  0  0  0  0  0
  161.1780  212.9070  148.5840 C   0  0  0  0  0  0  0  0  0  0  0  0
  162.3370  213.6300  148.2790 C   0  0  0  0  0  3  0  0  0  0  0  0
  160.9710  212.9320  146.3500 C   0  0  0  0  0  0  0  0  0  0  0  0
  160.9760  213.0820  143.8210 C   0  0  1  0  0  3  0  0  0  0  0  0
  160.8240  211.9750  142.7940 C   0  0  0  0  0  1  0  0  0  0  0  0
  159.0710  213.8090  142.9660 C   0  0  0  0  0  1  0  0  0  0  0  0
  160.3420  214.2350  143.3540 O   0  0  0  0  0  0  0  0  0  0  0  0
  159.5650  211.6030  153.9770 C   0  0  0  0  0  2  0  0  0  0  0  0
  160.1340  212.5550  154.9170 N   0  0  0  0  0  2  0  0  0  0  0  0
  159.0710  212.9410  155.8290 C   0  0  0  0  0  2  0  0  0  0  0  0
  158.4730  214.2610  155.3870 C   0  0  0  0  0  2  0  0  0  0  0  0
  156.9790  214.2510  155.6500 C   0  0  0  0  0  2  0  0  0  0  0  0
  156.3130  213.2070  154.8150 C   0  0  0  0  0  0  0  0  0  0  0  0
  156.3870  213.2560  153.5980 O   0  0  0  0  0  0  0  0  0  0  0  0
  155.6390  212.2230  156.8530 O   0  0  0  0  0  1  0  0  0  0  0  0
  155.5660  212.0930  155.4670 C   0  0  0  0  0  2  0  0  0  0  0  0
  161.7660  209.7390  152.7330 S   0  0  0  0  0  0  0  0  0  0  0  0
  162.6360  209.2450  151.2140 C   0  0  0  0  0  2  0  0  0  0  0  0
  162.2540  207.8920  150.8420 N   0  0  0  0  0  2  0  0  0  0  0  0
  160.4460  207.7960  152.3180 O   0  0  0  0  0  0  0  0  0  0  0  0
  161.1130  207.2380  151.4070 C   0  0  0  0  0  0  0  0  0  0  0  0
  160.7270  205.9430  150.9490 N   0  0  0  0  0  2  0  0  0  0  0  0
  162.3070  203.9630  147.3550 C   0  0  0  0  0  2  0  0  0  0  0  0
  161.7360  203.2160  150.9160 O   0  0  0  0  0  0  0  0  0  0  0  0
  161.3950  205.2850  149.8330 C   0  0  1  0  0  3  0  0  0  0  0  0
  161.2140  203.7940  149.9730 C   0  0  0  0  0  0  0  0  0  0  0  0
  161.3540  202.7980  147.6580 C   0  0  0  0  0  2  0  0  0  0  0  0
  161.6220  205.3310  147.2390 C   0  0  1  0  0  3  0  0  0  0  0  0
  160.8410  207.3470  148.4700 C   0  0  0  0  0  1  0  0  0  0  0  0
  160.7270  205.3790  146.0110 C   0  0  0  0  0  1  0  0  0  0  0  0
  160.8590  205.8250  148.4850 C   0  0  2  0  0  3  0  0  0  0  0  0
  160.4900  203.0150  148.9020 C   0  0  1  0  0  3  0  0  0  0  0  0
  159.9460  201.6880  149.4060 C   0  0  0  0  0  1  0  0  0  0  0  0
  1  2  2  0  0  0  0
  1  6  1  0  0  0  0
  2  5  1  0  0  0  0
  3 17  1  0  0  0  0
  4  3  1  0  0  0  0
  5  3  2  0  0  0  0
  5 26  1  0  0  0  0
  6  4  2  0  0  0  0
  7 10  1  0  0  0  0
  8 12  1  0  0  0  0
  9 11  1  0  0  0  0
 10  1  1  0  0  0  0
 11 10  2  0  0  0  0
 12  9  1  0  0  0  0
 12  7  2  0  0  0  0
 13 14  1  6  0  0  0
 13  8  1  0  0  0  0
 15 16  1  0  0  0  0
 16 13  1  0  0  0  0
 17 18  1  0  0  0  0
 18 19  1  0  0  0  0
 20 21  1  0  0  0  0
 20 19  1  0  0  0  0
 22 25  1  0  0  0  0
 22 21  1  0  0  0  0
 23 22  2  0  0  0  0
 25 24  1  0  0  0  0
 27 26  1  0  0  0  0
 28 27  1  0  0  0  0
 28 30  1  0  0  0  0
 30 29  2  0  0  0  0
 31 30  1  0  0  0  0
 32 36  1  0  0  0  0
 34 35  1  0  0  0  0
 34 31  1  1  0  0  0
 35 33  2  0  0  0  0
 36 41  1  0  0  0  0
 37 39  1  6  0  0  0
 37 32  1  0  0  0  0
 37 40  1  0  0  0  0
 40 38  1  1  0  0  0
 40 34  1  0  0  0  0
 41 42  1  1  0  0  0
 41 35  1  0  0  0  0
M  END
>  <MODEL>
8

>  <REMARK>
 VINA RESULT:      -5.4      2.772      8.069
  Name = 
  14 active torsions:
  status: ('A' for Active; 'I' for Inactive)
    1  A    between atoms: C_1  and  C_7
    2  A    between atoms: C_1  and  C_27
    3  A    between atoms: C_2  and  N_20
    4  A    between atoms: C_2  and  C_22
    5  A    between atoms: C_6  and  C_26
    6  A    between atoms: C_8  and  N_29
    7  A    between atoms: N_12  and  C_25
    8  A    between atoms: C_16  and  C_19
    9  A    between atoms: C_19  and  N_20
   10  A    between atoms: N_21  and  C_38
   11  A    between atoms: C_22  and  C_27
   12  A    between atoms: C_25  and  O_41
   13  A    between atoms: S_28  and  C_38
   14  A    between atoms: S_28  and  C_39
                            x       y       z     vdW  Elec       q    Type
                         _______ _______ _______ _____ _____    ______ ____

>  <TORSDO>
F 14

$$$$
=
 OpenBabel11052411443D

 42 44  0  0  1  0  0  0  0  0999 V2000
  160.1630  211.5570  152.3860 C   0  0  0  0  0  0  0  0  0  0  0  0
  160.8280  210.3720  152.0420 C   0  0  0  0  0  3  0  0  0  0  0  0
  161.4900  211.3390  149.9170 C   0  0  0  0  0  0  0  0  0  0  0  0
  160.8320  212.5230  150.2610 C   0  0  0  0  0  3  0  0  0  0  0  0
  161.4890  210.2530  150.8140 C   0  0  0  0  0  0  0  0  0  0  0  0
  160.1700  212.6310  151.4860 C   0  0  0  0  0  3  0  0  0  0  0  0
  158.1230  211.4850  153.7920 N   0  0  0  0  0  0  0  0  0  0  0  0
  156.3300  211.4940  155.4430 N   0  0  0  0  0  2  0  0  0  0  0  0
  158.9590  212.0620  156.0830 S   0  0  0  0  0  0  0  0  0  0  0  0
  159.4670  211.6840  153.6810 C   0  0  0  0  0  0  0  0  0  0  0  0
  160.1260  212.0210  154.8680 C   0  0  0  0  0  3  0  0  0  0  0  0
  157.6950  211.6590  155.0570 C   0  0  0  0  0  0  0  0  0  0  0  0
  155.8600  211.7170  156.8030 C   0  0  1  0  0  3  0  0  0  0  0  0
  155.3910  213.1520  156.9550 C   0  0  0  0  0  1  0  0  0  0  0  0
  154.6570  210.0870  155.9170 C   0  0  0  0  0  1  0  0  0  0  0  0
  154.7990  210.8530  157.0750 O   0  0  0  0  0  0  0  0  0  0  0  0
  162.2080  211.2720  148.6100 C   0  0  0  0  0  2  0  0  0  0  0  0
  162.7380  212.5830  148.2730 N   0  0  0  0  0  2  0  0  0  0  0  0
  162.3100  212.8790  146.9160 C   0  0  0  0  0  2  0  0  0  0  0  0
  160.9190  213.4790  146.9390 C   0  0  0  0  0  2  0  0  0  0  0  0
  160.0710  212.8270  145.8640 C   0  0  0  0  0  2  0  0  0  0  0  0
  158.6260  212.8850  146.2390 C   0  0  0  0  0  0  0  0  0  0  0  0
  157.8080  212.2120  145.6360 O   0  0  0  0  0  0  0  0  0  0  0  0
  156.8500  214.1310  147.1730 O   0  0  0  0  0  1  0  0  0  0  0  0
  158.1810  213.7590  147.3630 C   0  0  0  0  0  2  0  0  0  0  0  0
  162.3200  208.7100  150.4240 S   0  0  0  0  0  0  0  0  0  0  0  0
  160.8310  207.7210  150.7580 C   0  0  0  0  0  2  0  0  0  0  0  0
  160.9920  206.3820  150.2130 N   0  0  0  0  0  2  0  0  0  0  0  0
  161.9550  205.5070  152.1530 O   0  0  0  0  0  0  0  0  0  0  0  0
  161.5260  205.3030  150.9870 C   0  0  0  0  0  0  0  0  0  0  0  0
  161.5860  203.9860  150.4380 N   0  0  0  0  0  2  0  0  0  0  0  0
  160.2590  202.7150  146.4440 C   0  0  0  0  0  2  0  0  0  0  0  0
  161.4470  205.7610  148.1400 O   0  0  0  0  0  0  0  0  0  0  0  0
  161.0190  203.6640  149.1350 C   0  0  1  0  0  3  0  0  0  0  0  0
  161.6540  204.5560  148.0980 C   0  0  0  0  0  0  0  0  0  0  0  0
  161.5460  203.3390  145.8890 C   0  0  0  0  0  2  0  0  0  0  0  0
  160.4820  201.6700  147.5470 C   0  0  1  0  0  3  0  0  0  0  0  0
  160.7610  201.2930  149.9900 C   0  0  0  0  0  1  0  0  0  0  0  0
  161.1670  200.4370  146.9850 C   0  0  0  0  0  1  0  0  0  0  0  0
  161.2040  202.1600  148.8190 C   0  0  2  0  0  3  0  0  0  0  0  0
  162.4460  203.9530  146.9630 C   0  0  1  0  0  3  0  0  0  0  0  0
  163.4200  204.9380  146.3370 C   0  0  0  0  0  1  0  0  0  0  0  0
  1 10  1  0  0  0  0
  2  1  1  0  0  0  0
  3  4  2  0  0  0  0
  3  5  1  0  0  0  0
  4  6  1  0  0  0  0
  5  2  2  0  0  0  0
  6  1  2  0  0  0  0
  7 12  2  0  0  0  0
  8 13  1  0  0  0  0
 10  7  1  0  0  0  0
 10 11  2  0  0  0  0
 11  9  1  0  0  0  0
 12  8  1  0  0  0  0
 12  9  1  0  0  0  0
 13 14  1  6  0  0  0
 13 16  1  0  0  0  0
 15 16  1  0  0  0  0
 17  3  1  0  0  0  0
 18 17  1  0  0  0  0
 19 20  1  0  0  0  0
 19 18  1  0  0  0  0
 21 22  1  0  0  0  0
 21 20  1  0  0  0  0
 22 25  1  0  0  0  0
 23 22  2  0  0  0  0
 24 25  1  0  0  0  0
 26 27  1  0  0  0  0
 26  5  1  0  0  0  0
 28 27  1  0  0  0  0
 28 30  1  0  0  0  0
 30 29  2  0  0  0  0
 31 30  1  0  0  0  0
 32 37  1  0  0  0  0
 34 31  1  1  0  0  0
 35 33  2  0  0  0  0
 35 34  1  0  0  0  0
 36 32  1  0  0  0  0
 36 41  1  0  0  0  0
 37 39  1  6  0  0  0
 37 40  1  0  0  0  0
 40 34  1  0  0  0  0
 40 38  1  1  0  0  0
 41 42  1  6  0  0  0
 41 35  1  0  0  0  0
M  END
>  <MODEL>
9

>  <REMARK>
 VINA RESULT:      -5.3      2.829      9.799
  Name = 
  14 active torsions:
  status: ('A' for Active; 'I' for Inactive)
    1  A    between atoms: C_1  and  C_7
    2  A    between atoms: C_1  and  C_27
    3  A    between atoms: C_2  and  N_20
    4  A    between atoms: C_2  and  C_22
    5  A    between atoms: C_6  and  C_26
    6  A    between atoms: C_8  and  N_29
    7  A    between atoms: N_12  and  C_25
    8  A    between atoms: C_16  and  C_19
    9  A    between atoms: C_19  and  N_20
   10  A    between atoms: N_21  and  C_38
   11  A    between atoms: C_22  and  C_27
   12  A    between atoms: C_25  and  O_41
   13  A    between atoms: S_28  and  C_38
   14  A    between atoms: S_28  and  C_39
                            x       y       z     vdW  Elec       q    Type
                         _______ _______ _______ _____ _____    ______ ____

>  <TORSDO>
F 14

$$$$
