=
 OpenBabel11042422363D

 33 35  0  0  0  0  0  0  0  0999 V2000
  161.0890  206.9190  151.0310 C   0  0  0  0  0  3  0  0  0  0  0  0
  161.7410  208.8970  149.7860 C   0  0  0  0  0  0  0  0  0  0  0  0
  161.4220  207.5510  152.2350 C   0  0  0  0  0  0  0  0  0  0  0  0
  161.9040  208.8660  152.2040 C   0  0  0  0  0  3  0  0  0  0  0  0
  161.2500  207.5770  149.8060 C   0  0  0  0  0  0  0  0  0  0  0  0
  162.0690  209.5320  150.9880 C   0  0  0  0  0  3  0  0  0  0  0  0
  161.5230  209.5970  154.5660 N   0  0  0  0  0  2  0  0  0  0  0  0
  160.4790  207.4680  154.6020 N   0  0  0  0  0  2  0  0  0  0  0  0
  160.5460  208.8510  154.9680 C   0  0  0  0  0  0  0  0  0  0  0  0
  161.1930  206.8560  153.5200 C   0  0  0  0  0  0  0  0  0  0  0  0
  161.5880  205.6670  153.6540 O   0  0  0  0  0  0  0  0  0  0  0  0
  159.1070  210.7800  155.4610 C   0  0  0  0  0  1  0  0  0  0  0  0
  159.5470  209.4050  155.9210 C   0  0  0  0  0  2  0  0  0  0  0  0
  160.8250  206.8740  148.5540 C   0  0  0  0  0  2  0  0  0  0  0  0
  161.9810  206.0970  147.9320 C   0  0  0  0  0  2  0  0  0  0  0  0
  161.0940  202.5420  147.8080 C   0  0  0  0  0  0  0  0  0  0  0  0
  161.8850  204.6930  145.1570 N   0  0  0  0  0  1  0  0  0  0  0  0
  160.7880  201.3340  148.4320 C   0  0  0  0  0  3  0  0  0  0  0  0
  160.6710  201.3330  149.8350 C   0  0  0  0  0  2  0  0  0  0  0  0
  161.1720  203.7260  149.9200 C   0  0  0  0  0  3  0  0  0  0  0  0
  161.5790  204.0550  146.3920 C   0  0  0  0  0  0  0  0  0  0  0  0
  161.2750  202.7390  146.4870 N   0  0  0  0  0  0  0  0  0  0  0  0
  160.8620  202.5210  150.5730 C   0  0  0  0  0  3  0  0  0  0  0  0
  161.5860  204.6860  147.6290 C   0  0  0  0  0  0  0  0  0  0  0  0
  161.2760  203.6950  148.5300 C   0  0  0  0  0  0  0  0  0  0  0  0
  161.9360  209.6380  148.5030 C   0  0  0  0  0  2  0  0  0  0  0  0
  162.3140  211.0790  148.7870 C   0  0  0  0  0  2  0  0  0  0  0  0
  161.5220  211.9970  147.8730 C   0  0  0  0  0  2  0  0  0  0  0  0
  160.5040  212.9810  149.7700 C   0  0  0  0  0  3  0  0  0  0  0  0
  161.0310  213.1320  148.6100 N   0  0  0  0  0  0  0  0  0  0  0  0
  160.0000  214.1610  150.5320 C   0  0  0  0  0  2  0  0  0  0  0  0
  159.3260  213.7120  151.8140 C   0  0  0  0  0  2  0  0  0  0  0  0
  159.8660  212.3570  152.2190 C   0  0  0  0  0  1  0  0  0  0  0  0
  1  3  1  0  0  0  0
  2  5  1  0  0  0  0
  2  6  2  0  0  0  0
  3 10  1  0  0  0  0
  4  3  2  0  0  0  0
  5  1  2  0  0  0  0
  6  4  1  0  0  0  0
  7  9  2  0  0  0  0
  8  9  1  0  0  0  0
  9 13  1  0  0  0  0
 10 11  2  0  0  0  0
 10  8  1  0  0  0  0
 12 13  1  0  0  0  0
 14  5  1  0  0  0  0
 15 14  1  0  0  0  0
 16 18  2  0  0  0  0
 16 25  1  0  0  0  0
 17 21  1  0  0  0  0
 18 19  1  0  0  0  0
 19 23  1  0  0  0  0
 20 23  2  0  0  0  0
 21 22  2  0  0  0  0
 21 24  1  0  0  0  0
 22 16  1  0  0  0  0
 24 15  1  0  0  0  0
 24 25  2  0  0  0  0
 25 20  1  0  0  0  0
 26 27  1  0  0  0  0
 26  2  1  0  0  0  0
 28 30  1  0  0  0  0
 28 27  1  0  0  0  0
 29 31  1  0  0  0  0
 30 29  2  0  0  0  0
 31 32  1  0  0  0  0
 32 33  1  0  0  0  0
M  END
>  <MODEL>
1

>  <REMARK>
 VINA RESULT:      -8.6      0.000      0.000
  Name = 
  11 active torsions:
  status: ('A' for Active; 'I' for Inactive)
    1  A    between atoms: C_1  and  C_10
    2  A    between atoms: C_1  and  N_26
    3  A    between atoms: C_6  and  C_8
    4  A    between atoms: C_7  and  C_15
    5  A    between atoms: C_7  and  C_25
    6  A    between atoms: C_8  and  C_10
    7  A    between atoms: C_11  and  C_19
    8  A    between atoms: C_12  and  C_16
    9  A    between atoms: C_15  and  C_32
   10  A    between atoms: C_17  and  C_29
   11  A    between atoms: C_21  and  C_29
                            x       y       z     vdW  Elec       q    Type
                         _______ _______ _______ _____ _____    ______ ____

>  <TORSDO>
F 11

$$$$
=
 OpenBabel11042422363D

 33 35  0  0  1  0  0  0  0  0999 V2000
  161.0740  206.9070  153.5510 C   0  0  0  0  0  3  0  0  0  0  0  0
  161.8130  208.1100  151.5770 C   0  0  0  0  0  0  0  0  0  0  0  0
  160.7620  208.1150  154.1870 C   0  0  0  0  0  0  0  0  0  0  0  0
  160.9690  209.3200  153.5010 C   0  0  0  0  0  3  0  0  0  0  0  0
  161.6030  206.8940  152.2560 C   0  0  0  0  0  0  0  0  0  0  0  0
  161.4960  209.3180  152.2090 C   0  0  0  0  0  3  0  0  0  0  0  0
  162.4960  209.7980  156.1330 N   0  0  0  0  0  2  0  0  0  0  0  0
  160.2070  209.2400  156.4060 N   0  0  0  0  0  2  0  0  0  0  0  0
  161.3150  210.1380  156.5380 C   0  0  0  0  0  0  0  0  0  0  0  0
  160.1540  208.1030  155.5340 C   0  0  0  0  0  0  0  0  0  0  0  0
  159.5200  207.0820  155.9130 O   0  0  0  0  0  0  0  0  0  0  0  0
  160.3340  212.3860  156.4010 C   0  0  0  0  0  1  0  0  0  0  0  0
  161.1320  211.4260  157.2590 C   0  0  0  0  0  2  0  0  0  0  0  0
  161.8660  205.5710  151.6030 C   0  0  0  0  0  2  0  0  0  0  0  0
  160.6150  205.0310  150.9160 C   0  0  0  0  0  2  0  0  0  0  0  0
  161.3590  203.4870  147.6770 C   0  0  0  0  0  0  0  0  0  0  0  0
  160.8080  201.9300  150.7670 N   0  0  0  0  0  1  0  0  0  0  0  0
  161.5790  203.5690  146.3030 C   0  0  0  0  0  3  0  0  0  0  0  0
  161.6180  204.8500  145.7210 C   0  0  0  0  0  3  0  0  0  0  0  0
  161.2120  205.8950  147.8950 C   0  0  0  0  0  3  0  0  0  0  0  0
  161.0180  202.8020  149.6630 C   0  0  0  0  0  0  0  0  0  0  0  0
  161.2610  202.3580  148.4070 N   0  0  0  0  0  0  0  0  0  0  0  0
  161.4350  206.0040  146.5120 C   0  0  0  0  0  3  0  0  0  0  0  0
  160.9670  204.1890  149.7310 C   0  0  0  0  0  0  0  0  0  0  0  0
  161.1850  204.6130  148.4420 C   0  0  1  0  0  3  0  0  0  0  0  0
  162.3820  208.1470  150.1960 C   0  0  0  0  0  2  0  0  0  0  0  0
  161.5480  209.0550  149.3140 C   0  0  0  0  0  2  0  0  0  0  0  0
  162.4340  210.1340  148.7190 C   0  0  0  0  0  2  0  0  0  0  0  0
  161.8710  212.3890  148.2680 C   0  0  0  0  0  3  0  0  0  0  0  0
  161.9730  211.4360  149.1220 N   0  0  0  0  0  0  0  0  0  0  0  0
  161.3890  213.7360  148.6910 C   0  0  0  0  0  2  0  0  0  0  0  0
  159.9840  213.6410  149.2540 C   0  0  0  0  0  2  0  0  0  0  0  0
  159.9740  214.1630  150.6750 C   0  0  0  0  0  1  0  0  0  0  0  0
  1  3  1  0  0  0  0
  2  6  2  0  0  0  0
  2  5  1  0  0  0  0
  3 10  1  0  0  0  0
  4  3  2  0  0  0  0
  5  1  2  0  0  0  0
  6  4  1  0  0  0  0
  7  9  2  0  0  0  0
  8  9  1  0  0  0  0
  9 13  1  0  0  0  0
 10 11  2  0  0  0  0
 10  8  1  0  0  0  0
 12 13  1  0  0  0  0
 14  5  1  0  0  0  0
 15 14  1  0  0  0  0
 16 22  2  0  0  0  0
 16 25  1  0  0  0  0
 18 16  1  0  0  0  0
 19 18  2  0  0  0  0
 19 23  1  0  0  0  0
 21 24  2  0  0  0  0
 21 17  1  0  0  0  0
 22 21  1  0  0  0  0
 23 20  2  0  0  0  0
 24 15  1  0  0  0  0
 25 20  1  6  0  0  0
 25 24  1  0  0  0  0
 26  2  1  0  0  0  0
 27 26  1  0  0  0  0
 28 30  1  0  0  0  0
 28 27  1  0  0  0  0
 29 31  1  0  0  0  0
 29 30  2  0  0  0  0
 31 32  1  0  0  0  0
 32 33  1  0  0  0  0
M  END
>  <MODEL>
2

>  <REMARK>
 VINA RESULT:      -8.6      1.644      2.911
  Name = 
  11 active torsions:
  status: ('A' for Active; 'I' for Inactive)
    1  A    between atoms: C_1  and  C_10
    2  A    between atoms: C_1  and  N_26
    3  A    between atoms: C_6  and  C_8
    4  A    between atoms: C_7  and  C_15
    5  A    between atoms: C_7  and  C_25
    6  A    between atoms: C_8  and  C_10
    7  A    between atoms: C_11  and  C_19
    8  A    between atoms: C_12  and  C_16
    9  A    between atoms: C_15  and  C_32
   10  A    between atoms: C_17  and  C_29
   11  A    between atoms: C_21  and  C_29
                            x       y       z     vdW  Elec       q    Type
                         _______ _______ _______ _____ _____    ______ ____

>  <TORSDO>
F 11

$$$$
=
 OpenBabel11042422363D

 33 35  0  0  0  0  0  0  0  0999 V2000
  161.6650  207.8500  151.5600 C   0  0  0  0  0  3  0  0  0  0  0  0
  161.8820  209.7750  150.0980 C   0  0  0  0  0  0  0  0  0  0  0  0
  161.2520  208.6780  152.6110 C   0  0  0  0  0  0  0  0  0  0  0  0
  161.1450  210.0580  152.3900 C   0  0  0  0  0  3  0  0  0  0  0  0
  161.9880  208.3860  150.3080 C   0  0  0  0  0  0  0  0  0  0  0  0
  161.4640  210.6030  151.1450 C   0  0  0  0  0  3  0  0  0  0  0  0
  162.3980  210.3920  154.9300 N   0  0  0  0  0  2  0  0  0  0  0  0
  160.5670  208.8890  155.0580 N   0  0  0  0  0  2  0  0  0  0  0  0
  161.2370  210.1020  155.4210 C   0  0  0  0  0  0  0  0  0  0  0  0
  160.8650  208.0850  153.9080 C   0  0  0  0  0  0  0  0  0  0  0  0
  160.7380  206.8350  153.9980 O   0  0  0  0  0  0  0  0  0  0  0  0
  159.1350  210.9390  156.3780 C   0  0  0  0  0  1  0  0  0  0  0  0
  160.6470  210.9770  156.4690 C   0  0  0  0  0  2  0  0  0  0  0  0
  162.3700  207.4480  149.2040 C   0  0  0  0  0  2  0  0  0  0  0  0
  161.1540  207.0330  148.3810 C   0  0  0  0  0  2  0  0  0  0  0  0
  161.2710  203.3770  148.1520 C   0  0  0  0  0  0  0  0  0  0  0  0
  161.9190  205.7470  145.6540 N   0  0  0  0  0  1  0  0  0  0  0  0
  161.1900  202.1110  148.7290 C   0  0  0  0  0  3  0  0  0  0  0  0
  160.8330  202.0320  150.0880 C   0  0  0  0  0  2  0  0  0  0  0  0
  160.6630  204.4680  150.2270 C   0  0  0  0  0  3  0  0  0  0  0  0
  161.5800  205.0100  146.8230 C   0  0  0  0  0  0  0  0  0  0  0  0
  161.6220  203.6570  146.8810 N   0  0  0  0  0  0  0  0  0  0  0  0
  160.5720  203.2030  150.8310 C   0  0  0  0  0  3  0  0  0  0  0  0
  161.2050  205.5790  148.0330 C   0  0  0  0  0  0  0  0  0  0  0  0
  161.0140  204.5120  148.8790 C   0  0  0  0  0  0  0  0  0  0  0  0
  162.2220  210.3940  148.7810 C   0  0  0  0  0  2  0  0  0  0  0  0
  161.8120  211.8530  148.7710 C   0  0  0  0  0  2  0  0  0  0  0  0
  162.9190  212.6850  148.1500 C   0  0  0  0  0  2  0  0  0  0  0  0
  162.3330  213.9810  146.2570 C   0  0  0  0  0  3  0  0  0  0  0  0
  162.6900  212.8460  146.7380 N   0  0  0  0  0  0  0  0  0  0  0  0
  162.1000  214.1440  144.7920 C   0  0  0  0  0  2  0  0  0  0  0  0
  163.0730  213.2850  144.0060 C   0  0  0  0  0  2  0  0  0  0  0  0
  162.3290  212.5630  142.9030 C   0  0  0  0  0  1  0  0  0  0  0  0
  1  3  1  0  0  0  0
  2  5  1  0  0  0  0
  2  6  2  0  0  0  0
  3 10  1  0  0  0  0
  4  3  2  0  0  0  0
  5  1  2  0  0  0  0
  6  4  1  0  0  0  0
  7  9  2  0  0  0  0
  8  9  1  0  0  0  0
  9 13  1  0  0  0  0
 10 11  2  0  0  0  0
 10  8  1  0  0  0  0
 12 13  1  0  0  0  0
 14  5  1  0  0  0  0
 15 14  1  0  0  0  0
 16 18  2  0  0  0  0
 16 25  1  0  0  0  0
 17 21  1  0  0  0  0
 18 19  1  0  0  0  0
 19 23  1  0  0  0  0
 20 23  2  0  0  0  0
 21 22  2  0  0  0  0
 21 24  1  0  0  0  0
 22 16  1  0  0  0  0
 24 15  1  0  0  0  0
 24 25  2  0  0  0  0
 25 20  1  0  0  0  0
 26  2  1  0  0  0  0
 27 26  1  0  0  0  0
 28 27  1  0  0  0  0
 29 30  2  0  0  0  0
 30 28  1  0  0  0  0
 31 29  1  0  0  0  0
 32 31  1  0  0  0  0
 33 32  1  0  0  0  0
M  END
>  <MODEL>
3

>  <REMARK>
 VINA RESULT:      -8.5      1.795      2.863
  Name = 
  11 active torsions:
  status: ('A' for Active; 'I' for Inactive)
    1  A    between atoms: C_1  and  C_10
    2  A    between atoms: C_1  and  N_26
    3  A    between atoms: C_6  and  C_8
    4  A    between atoms: C_7  and  C_15
    5  A    between atoms: C_7  and  C_25
    6  A    between atoms: C_8  and  C_10
    7  A    between atoms: C_11  and  C_19
    8  A    between atoms: C_12  and  C_16
    9  A    between atoms: C_15  and  C_32
   10  A    between atoms: C_17  and  C_29
   11  A    between atoms: C_21  and  C_29
                            x       y       z     vdW  Elec       q    Type
                         _______ _______ _______ _____ _____    ______ ____

>  <TORSDO>
F 11

$$$$
=
 OpenBabel11042422363D

 33 35  0  0  0  0  0  0  0  0999 V2000
  161.8800  206.9430  151.1220 C   0  0  0  0  0  3  0  0  0  0  0  0
  161.9300  209.1060  150.0240 C   0  0  0  0  0  0  0  0  0  0  0  0
  161.4720  207.5450  152.3190 C   0  0  0  0  0  0  0  0  0  0  0  0
  161.2850  208.9330  152.3540 C   0  0  0  0  0  3  0  0  0  0  0  0
  162.1170  207.7100  149.9760 C   0  0  0  0  0  0  0  0  0  0  0  0
  161.5180  209.7090  151.2170 C   0  0  0  0  0  3  0  0  0  0  0  0
  161.8160  209.2260  154.9040 N   0  0  0  0  0  2  0  0  0  0  0  0
  160.5420  207.2390  154.6730 N   0  0  0  0  0  2  0  0  0  0  0  0
  160.7650  208.5430  155.2220 C   0  0  0  0  0  0  0  0  0  0  0  0
  161.1760  206.7080  153.5010 C   0  0  0  0  0  0  0  0  0  0  0  0
  161.4380  205.4760  153.4630 O   0  0  0  0  0  0  0  0  0  0  0  0
  159.2080  210.3570  155.7870 C   0  0  0  0  0  1  0  0  0  0  0  0
  159.8400  209.0660  156.2640 C   0  0  0  0  0  2  0  0  0  0  0  0
  162.4950  207.0080  148.7090 C   0  0  0  0  0  2  0  0  0  0  0  0
  161.2630  206.6290  147.8930 C   0  0  0  0  0  2  0  0  0  0  0  0
  161.2580  202.9670  147.7350 C   0  0  0  0  0  0  0  0  0  0  0  0
  161.8440  205.2670  145.1570 N   0  0  0  0  0  1  0  0  0  0  0  0
  161.1690  201.7160  148.3420 C   0  0  0  0  0  3  0  0  0  0  0  0
  160.8820  201.6750  149.7190 C   0  0  0  0  0  2  0  0  0  0  0  0
  160.7940  204.1170  149.8150 C   0  0  0  0  0  3  0  0  0  0  0  0
  161.5450  204.5640  146.3570 C   0  0  0  0  0  0  0  0  0  0  0  0
  161.5490  203.2120  146.4420 N   0  0  0  0  0  0  0  0  0  0  0  0
  160.6960  202.8680  150.4500 C   0  0  0  0  0  3  0  0  0  0  0  0
  161.2520  205.1680  147.5730 C   0  0  0  0  0  0  0  0  0  0  0  0
  161.0730  204.1240  148.4500 C   0  0  0  0  0  0  0  0  0  0  0  0
  162.1770  209.9680  148.8290 C   0  0  0  0  0  2  0  0  0  0  0  0
  161.9580  211.4250  149.1850 C   0  0  0  0  0  2  0  0  0  0  0  0
  162.0930  212.2760  147.9340 C   0  0  0  0  0  2  0  0  0  0  0  0
  159.8950  212.6200  147.1240 C   0  0  0  0  0  3  0  0  0  0  0  0
  160.9160  213.0830  147.7500 N   0  0  0  0  0  0  0  0  0  0  0  0
  158.6760  213.4600  146.9390 C   0  0  0  0  0  2  0  0  0  0  0  0
  157.4430  212.7070  147.4020 C   0  0  0  0  0  2  0  0  0  0  0  0
  157.1030  213.1180  148.8180 C   0  0  0  0  0  1  0  0  0  0  0  0
  1  3  1  0  0  0  0
  2  6  2  0  0  0  0
  3  4  2  0  0  0  0
  3 10  1  0  0  0  0
  5  2  1  0  0  0  0
  5  1  2  0  0  0  0
  6  4  1  0  0  0  0
  7  9  2  0  0  0  0
  8  9  1  0  0  0  0
  9 13  1  0  0  0  0
 10  8  1  0  0  0  0
 11 10  2  0  0  0  0
 12 13  1  0  0  0  0
 14  5  1  0  0  0  0
 15 14  1  0  0  0  0
 16 18  2  0  0  0  0
 16 25  1  0  0  0  0
 17 21  1  0  0  0  0
 18 19  1  0  0  0  0
 19 23  1  0  0  0  0
 20 23  2  0  0  0  0
 21 22  2  0  0  0  0
 21 24  1  0  0  0  0
 22 16  1  0  0  0  0
 24 15  1  0  0  0  0
 24 25  2  0  0  0  0
 25 20  1  0  0  0  0
 26 27  1  0  0  0  0
 26  2  1  0  0  0  0
 28 27  1  0  0  0  0
 29 30  2  0  0  0  0
 30 28  1  0  0  0  0
 31 29  1  0  0  0  0
 31 32  1  0  0  0  0
 32 33  1  0  0  0  0
M  END
>  <MODEL>
4

>  <REMARK>
 VINA RESULT:      -8.5      1.264      1.540
  Name = 
  11 active torsions:
  status: ('A' for Active; 'I' for Inactive)
    1  A    between atoms: C_1  and  C_10
    2  A    between atoms: C_1  and  N_26
    3  A    between atoms: C_6  and  C_8
    4  A    between atoms: C_7  and  C_15
    5  A    between atoms: C_7  and  C_25
    6  A    between atoms: C_8  and  C_10
    7  A    between atoms: C_11  and  C_19
    8  A    between atoms: C_12  and  C_16
    9  A    between atoms: C_15  and  C_32
   10  A    between atoms: C_17  and  C_29
   11  A    between atoms: C_21  and  C_29
                            x       y       z     vdW  Elec       q    Type
                         _______ _______ _______ _____ _____    ______ ____

>  <TORSDO>
F 11

$$$$
=
 OpenBabel11042422363D

 33 35  0  0  0  0  0  0  0  0999 V2000
  161.8110  206.6220  150.4450 C   0  0  0  0  0  3  0  0  0  0  0  0
  161.0300  204.4450  151.1810 C   0  0  0  0  0  0  0  0  0  0  0  0
  161.4010  206.3410  149.1360 C   0  0  0  0  0  0  0  0  0  0  0  0
  160.7940  205.1090  148.8610 C   0  0  0  0  0  3  0  0  0  0  0  0
  161.6370  205.6830  151.4690 C   0  0  0  0  0  0  0  0  0  0  0  0
  160.6160  204.1650  149.8740 C   0  0  0  0  0  3  0  0  0  0  0  0
  163.0590  205.1950  146.7760 N   0  0  0  0  0  2  0  0  0  0  0  0
  161.5640  207.0350  146.6880 N   0  0  0  0  0  2  0  0  0  0  0  0
  162.1730  205.8700  146.1180 C   0  0  0  0  0  0  0  0  0  0  0  0
  161.5460  207.3680  148.0830 C   0  0  0  0  0  0  0  0  0  0  0  0
  161.6010  208.5830  148.4120 O   0  0  0  0  0  0  0  0  0  0  0  0
  160.4090  205.1520  144.5670 C   0  0  0  0  0  1  0  0  0  0  0  0
  161.8750  205.5050  144.7070 C   0  0  0  0  0  2  0  0  0  0  0  0
  162.0420  206.0580  152.8610 C   0  0  0  0  0  2  0  0  0  0  0  0
  160.8260  206.2370  153.7650 C   0  0  0  0  0  2  0  0  0  0  0  0
  160.8740  209.7780  154.7080 C   0  0  0  0  0  0  0  0  0  0  0  0
  161.1380  206.9610  156.7750 N   0  0  0  0  0  1  0  0  0  0  0  0
  160.8740  211.1330  154.3790 C   0  0  0  0  0  3  0  0  0  0  0  0
  160.7370  211.4770  153.0220 C   0  0  0  0  0  3  0  0  0  0  0  0
  160.6120  209.1170  152.3930 C   0  0  0  0  0  3  0  0  0  0  0  0
  160.9830  207.9150  155.7300 C   0  0  0  0  0  0  0  0  0  0  0  0
  161.0220  209.2520  155.9400 N   0  0  0  0  0  2  0  0  0  0  0  0
  160.6070  210.4760  152.0360 C   0  0  0  0  0  3  0  0  0  0  0  0
  160.8090  207.5960  154.3900 C   0  0  0  0  0  0  0  0  0  0  0  0
  160.7450  208.8080  153.7450 C   0  0  0  0  0  0  0  0  0  0  0  0
  160.8300  203.4080  152.2380 C   0  0  0  0  0  2  0  0  0  0  0  0
  161.5420  202.1270  151.8520 C   0  0  0  0  0  2  0  0  0  0  0  0
  160.6090  201.2590  151.0270 C   0  0  0  0  0  2  0  0  0  0  0  0
  160.6340  201.2110  148.6600 C   0  0  0  0  0  3  0  0  0  0  0  0
  161.2200  200.9280  149.7670 N   0  0  0  0  0  0  0  0  0  0  0  0
  161.2730  200.8690  147.3560 C   0  0  0  0  0  2  0  0  0  0  0  0
  160.9520  201.9280  146.3190 C   0  0  0  0  0  2  0  0  0  0  0  0
  160.0930  201.3240  145.2300 C   0  0  0  0  0  1  0  0  0  0  0  0
  1  5  1  0  0  0  0
  2  5  2  0  0  0  0
  2 26  1  0  0  0  0
  3  1  2  0  0  0  0
  4  3  1  0  0  0  0
  4  6  2  0  0  0  0
  5 14  1  0  0  0  0
  6  2  1  0  0  0  0
  8 10  1  0  0  0  0
  9  8  1  0  0  0  0
  9  7  2  0  0  0  0
 10 11  2  0  0  0  0
 10  3  1  0  0  0  0
 12 13  1  0  0  0  0
 13  9  1  0  0  0  0
 14 15  1  0  0  0  0
 15 24  1  0  0  0  0
 16 22  1  0  0  0  0
 18 16  1  0  0  0  0
 19 18  2  0  0  0  0
 20 25  1  0  0  0  0
 21 22  1  0  0  0  0
 21 17  1  0  0  0  0
 23 20  2  0  0  0  0
 23 19  1  0  0  0  0
 24 21  2  0  0  0  0
 25 24  1  0  0  0  0
 25 16  2  0  0  0  0
 27 26  1  0  0  0  0
 28 27  1  0  0  0  0
 29 30  2  0  0  0  0
 30 28  1  0  0  0  0
 31 29  1  0  0  0  0
 32 31  1  0  0  0  0
 33 32  1  0  0  0  0
M  END
>  <MODEL>
5

>  <REMARK>
 VINA RESULT:      -8.2      2.569      9.172
  Name = 
  11 active torsions:
  status: ('A' for Active; 'I' for Inactive)
    1  A    between atoms: C_1  and  C_10
    2  A    between atoms: C_1  and  N_26
    3  A    between atoms: C_6  and  C_8
    4  A    between atoms: C_7  and  C_15
    5  A    between atoms: C_7  and  C_25
    6  A    between atoms: C_8  and  C_10
    7  A    between atoms: C_11  and  C_19
    8  A    between atoms: C_12  and  C_16
    9  A    between atoms: C_15  and  C_32
   10  A    between atoms: C_17  and  C_29
   11  A    between atoms: C_21  and  C_29
                            x       y       z     vdW  Elec       q    Type
                         _______ _______ _______ _____ _____    ______ ____

>  <TORSDO>
F 11

$$$$
=
 OpenBabel11042422363D

 33 35  0  0  1  0  0  0  0  0999 V2000
  160.7390  209.4370  154.2250 C   0  0  0  0  0  3  0  0  0  0  0  0
  161.2060  207.0570  154.1670 C   0  0  0  0  0  0  0  0  0  0  0  0
  160.2500  209.3240  155.5320 C   0  0  0  0  0  0  0  0  0  0  0  0
  160.2550  208.0680  156.1540 C   0  0  0  0  0  3  0  0  0  0  0  0
  161.2110  208.3150  153.5340 C   0  0  0  0  0  0  0  0  0  0  0  0
  160.7230  206.9420  155.4750 C   0  0  0  0  0  3  0  0  0  0  0  0
  158.4380  211.0490  153.6960 N   0  0  0  0  0  2  0  0  0  0  0  0
  158.5080  211.1070  156.0660 N   0  0  0  0  0  2  0  0  0  0  0  0
  157.8090  211.1830  154.8180 C   0  0  0  0  0  0  0  0  0  0  0  0
  159.8070  210.5320  156.2600 C   0  0  0  0  0  0  0  0  0  0  0  0
  160.5710  211.0450  157.1210 O   0  0  0  0  0  0  0  0  0  0  0  0
  155.5460  210.3900  155.3470 C   0  0  0  0  0  1  0  0  0  0  0  0
  156.3660  211.5440  154.8090 C   0  0  0  0  0  2  0  0  0  0  0  0
  161.7740  208.5050  152.1590 C   0  0  0  0  0  2  0  0  0  0  0  0
  160.7150  208.2700  151.0870 C   0  0  0  0  0  2  0  0  0  0  0  0
  162.1680  207.1860  147.9000 C   0  0  0  0  0  0  0  0  0  0  0  0
  162.3310  210.3390  149.4180 N   0  0  0  0  0  1  0  0  0  0  0  0
  162.4490  206.2000  146.9560 C   0  0  0  0  0  3  0  0  0  0  0  0
  161.9240  204.9130  147.1750 C   0  0  0  0  0  3  0  0  0  0  0  0
  160.8740  205.6520  149.2570 C   0  0  0  0  0  3  0  0  0  0  0  0
  162.0890  208.9970  149.0160 C   0  0  0  0  0  0  0  0  0  0  0  0
  162.6010  208.4610  147.8820 N   0  0  0  0  0  0  0  0  0  0  0  0
  161.1420  204.6410  148.3180 C   0  0  0  0  0  3  0  0  0  0  0  0
  161.3390  208.0790  149.7410 C   0  0  0  0  0  0  0  0  0  0  0  0
  161.4040  206.9160  149.0090 C   0  0  1  0  0  3  0  0  0  0  0  0
  161.6920  205.8290  153.4690 C   0  0  0  0  0  2  0  0  0  0  0  0
  160.5280  205.0970  152.8310 C   0  0  0  0  0  2  0  0  0  0  0  0
  160.8860  203.6320  152.6590 C   0  0  0  0  0  2  0  0  0  0  0  0
  160.8330  202.0850  150.8670 C   0  0  0  0  0  3  0  0  0  0  0  0
  160.3340  203.1250  151.4300 N   0  0  0  0  0  0  0  0  0  0  0  0
  160.2550  201.5610  149.5950 C   0  0  0  0  0  2  0  0  0  0  0  0
  161.3440  200.9540  148.7330 C   0  0  0  0  0  2  0  0  0  0  0  0
  160.9480  201.0530  147.2750 C   0  0  0  0  0  1  0  0  0  0  0  0
  1  3  1  0  0  0  0
  2  6  2  0  0  0  0
  3  4  2  0  0  0  0
  3 10  1  0  0  0  0
  5  2  1  0  0  0  0
  5  1  2  0  0  0  0
  6  4  1  0  0  0  0
  7  9  2  0  0  0  0
  8 10  1  0  0  0  0
  9  8  1  0  0  0  0
 10 11  2  0  0  0  0
 13  9  1  0  0  0  0
 13 12  1  0  0  0  0
 14  5  1  0  0  0  0
 15 14  1  0  0  0  0
 16 25  1  0  0  0  0
 18 19  2  0  0  0  0
 18 16  1  0  0  0  0
 19 23  1  0  0  0  0
 21 17  1  0  0  0  0
 21 24  2  0  0  0  0
 22 16  2  0  0  0  0
 22 21  1  0  0  0  0
 23 20  2  0  0  0  0
 24 15  1  0  0  0  0
 25 20  1  1  0  0  0
 25 24  1  0  0  0  0
 26  2  1  0  0  0  0
 27 26  1  0  0  0  0
 28 27  1  0  0  0  0
 29 30  2  0  0  0  0
 30 28  1  0  0  0  0
 31 29  1  0  0  0  0
 32 31  1  0  0  0  0
 33 32  1  0  0  0  0
M  END
>  <MODEL>
6

>  <REMARK>
 VINA RESULT:      -7.7      2.741      6.573
  Name = 
  11 active torsions:
  status: ('A' for Active; 'I' for Inactive)
    1  A    between atoms: C_1  and  C_10
    2  A    between atoms: C_1  and  N_26
    3  A    between atoms: C_6  and  C_8
    4  A    between atoms: C_7  and  C_15
    5  A    between atoms: C_7  and  C_25
    6  A    between atoms: C_8  and  C_10
    7  A    between atoms: C_11  and  C_19
    8  A    between atoms: C_12  and  C_16
    9  A    between atoms: C_15  and  C_32
   10  A    between atoms: C_17  and  C_29
   11  A    between atoms: C_21  and  C_29
                            x       y       z     vdW  Elec       q    Type
                         _______ _______ _______ _____ _____    ______ ____

>  <TORSDO>
F 11

$$$$
=
 OpenBabel11042422363D

 33 35  0  0  0  0  0  0  0  0999 V2000
  160.4250  208.8410  153.8440 C   0  0  0  0  0  3  0  0  0  0  0  0
  161.4340  207.5590  152.0480 C   0  0  0  0  0  0  0  0  0  0  0  0
  160.6000  207.7680  154.7260 C   0  0  0  0  0  0  0  0  0  0  0  0
  161.2060  206.5940  154.2600 C   0  0  0  0  0  3  0  0  0  0  0  0
  160.8300  208.7450  152.5080 C   0  0  0  0  0  0  0  0  0  0  0  0
  161.6140  206.4880  152.9290 C   0  0  0  0  0  3  0  0  0  0  0  0
  162.5150  209.7590  156.1380 N   0  0  0  0  0  2  0  0  0  0  0  0
  160.3350  209.1550  156.8490 N   0  0  0  0  0  2  0  0  0  0  0  0
  161.3950  210.1040  156.6850 C   0  0  0  0  0  0  0  0  0  0  0  0
  160.2130  207.9110  156.1460 C   0  0  0  0  0  0  0  0  0  0  0  0
  159.7080  206.9260  156.7480 O   0  0  0  0  0  0  0  0  0  0  0  0
  160.4530  212.3420  156.3160 C   0  0  0  0  0  1  0  0  0  0  0  0
  161.2520  211.4680  157.2610 C   0  0  0  0  0  2  0  0  0  0  0  0
  160.6700  209.9440  151.6240 C   0  0  0  0  0  2  0  0  0  0  0  0
  160.8710  211.2400  152.4010 C   0  0  0  0  0  2  0  0  0  0  0  0
  157.8920  213.3530  152.0940 C   0  0  0  0  0  0  0  0  0  0  0  0
  160.6400  213.1200  149.9330 N   0  0  0  0  0  1  0  0  0  0  0  0
  156.6360  213.7690  152.5310 C   0  0  0  0  0  3  0  0  0  0  0  0
  156.1450  213.2210  153.7310 C   0  0  0  0  0  2  0  0  0  0  0  0
  158.1710  211.8750  153.9920 C   0  0  0  0  0  3  0  0  0  0  0  0
  159.6760  213.0410  150.9770 C   0  0  0  0  0  0  0  0  0  0  0  0
  158.5160  213.7390  150.9630 N   0  0  0  0  0  0  0  0  0  0  0  0
  156.9080  212.2800  154.4560 C   0  0  0  0  0  3  0  0  0  0  0  0
  159.7910  212.2290  152.0980 C   0  0  0  0  0  0  0  0  0  0  0  0
  158.6310  212.4400  152.8040 C   0  0  0  0  0  0  0  0  0  0  0  0
  161.8760  207.4070  150.6290 C   0  0  0  0  0  2  0  0  0  0  0  0
  160.8150  206.6770  149.8290 C   0  0  0  0  0  2  0  0  0  0  0  0
  161.3880  206.2730  148.4820 C   0  0  0  0  0  2  0  0  0  0  0  0
  160.7980  204.0430  149.0170 C   0  0  0  0  0  3  0  0  0  0  0  0
  161.6120  204.8520  148.4420 N   0  0  0  0  0  0  0  0  0  0  0  0
  161.0330  202.5710  148.9690 C   0  0  0  0  0  2  0  0  0  0  0  0
  160.8330  201.9600  150.3430 C   0  0  0  0  0  2  0  0  0  0  0  0
  161.1990  202.9760  151.4040 C   0  0  0  0  0  1  0  0  0  0  0  0
  1  3  1  0  0  0  0
  2  5  1  0  0  0  0
  2  6  2  0  0  0  0
  3 10  1  0  0  0  0
  4  3  2  0  0  0  0
  5  1  2  0  0  0  0
  6  4  1  0  0  0  0
  7  9  2  0  0  0  0
  9  8  1  0  0  0  0
  9 13  1  0  0  0  0
 10 11  2  0  0  0  0
 10  8  1  0  0  0  0
 12 13  1  0  0  0  0
 14 15  1  0  0  0  0
 14  5  1  0  0  0  0
 16 18  2  0  0  0  0
 16 25  1  0  0  0  0
 17 21  1  0  0  0  0
 18 19  1  0  0  0  0
 19 23  1  0  0  0  0
 20 23  2  0  0  0  0
 21 24  1  0  0  0  0
 22 21  2  0  0  0  0
 22 16  1  0  0  0  0
 24 15  1  0  0  0  0
 24 25  2  0  0  0  0
 25 20  1  0  0  0  0
 26  2  1  0  0  0  0
 27 26  1  0  0  0  0
 28 27  1  0  0  0  0
 30 28  1  0  0  0  0
 30 29  2  0  0  0  0
 31 29  1  0  0  0  0
 31 32  1  0  0  0  0
 32 33  1  0  0  0  0
M  END
>  <MODEL>
7

>  <REMARK>
 VINA RESULT:      -7.7      1.933      7.833
  Name = 
  11 active torsions:
  status: ('A' for Active; 'I' for Inactive)
    1  A    between atoms: C_1  and  C_10
    2  A    between atoms: C_1  and  N_26
    3  A    between atoms: C_6  and  C_8
    4  A    between atoms: C_7  and  C_15
    5  A    between atoms: C_7  and  C_25
    6  A    between atoms: C_8  and  C_10
    7  A    between atoms: C_11  and  C_19
    8  A    between atoms: C_12  and  C_16
    9  A    between atoms: C_15  and  C_32
   10  A    between atoms: C_17  and  C_29
   11  A    between atoms: C_21  and  C_29
                            x       y       z     vdW  Elec       q    Type
                         _______ _______ _______ _____ _____    ______ ____

>  <TORSDO>
F 11

$$$$
=
 OpenBabel11042422363D

 33 35  0  0  0  0  0  0  0  0999 V2000
  161.6090  210.6160  151.2010 C   0  0  0  0  0  3  0  0  0  0  0  0
  161.6190  208.6160  149.8250 C   0  0  0  0  0  0  0  0  0  0  0  0
  161.2850  209.8530  152.3290 C   0  0  0  0  0  0  0  0  0  0  0  0
  161.1410  208.4660  152.1970 C   0  0  0  0  0  3  0  0  0  0  0  0
  161.7710  210.0120  149.9490 C   0  0  0  0  0  0  0  0  0  0  0  0
  161.3010  207.8530  150.9530 C   0  0  0  0  0  3  0  0  0  0  0  0
  158.9200  211.8620  152.3070 N   0  0  0  0  0  2  0  0  0  0  0  0
  159.9050  210.8640  154.2200 N   0  0  0  0  0  2  0  0  0  0  0  0
  158.7780  211.3650  153.4920 C   0  0  0  0  0  0  0  0  0  0  0  0
  161.1720  210.5050  153.6510 C   0  0  0  0  0  0  0  0  0  0  0  0
  162.2150  210.7060  154.3290 O   0  0  0  0  0  0  0  0  0  0  0  0
  157.5990  211.1450  155.6360 C   0  0  0  0  0  1  0  0  0  0  0  0
  157.4480  211.4270  154.1560 C   0  0  0  0  0  2  0  0  0  0  0  0
  162.1720  210.8680  148.7870 C   0  0  0  0  0  2  0  0  0  0  0  0
  161.8150  212.3320  149.0250 C   0  0  0  0  0  2  0  0  0  0  0  0
  160.4680  213.7880  145.9430 C   0  0  0  0  0  0  0  0  0  0  0  0
  158.8580  213.2990  149.0160 N   0  0  0  0  0  1  0  0  0  0  0  0
  160.6200  214.2330  144.6310 C   0  0  0  0  0  3  0  0  0  0  0  0
  161.8710  214.0420  144.0150 C   0  0  0  0  0  3  0  0  0  0  0  0
  162.7520  212.9860  146.0380 C   0  0  0  0  0  3  0  0  0  0  0  0
  159.7260  213.3560  147.8900 C   0  0  0  0  0  0  0  0  0  0  0  0
  159.3640  213.9050  146.7060 N   0  0  0  0  0  2  0  0  0  0  0  0
  162.9300  213.4230  144.7150 C   0  0  0  0  0  3  0  0  0  0  0  0
  161.0360  212.8940  147.8790 C   0  0  0  0  0  0  0  0  0  0  0  0
  161.5000  213.1840  146.6180 C   0  0  0  0  0  0  0  0  0  0  0  0
  161.7750  207.9270  148.5090 C   0  0  0  0  0  2  0  0  0  0  0  0
  160.9080  206.6850  148.4660 C   0  0  0  0  0  2  0  0  0  0  0  0
  161.4820  205.7020  147.4610 C   0  0  0  0  0  2  0  0  0  0  0  0
  160.9930  204.1380  149.1700 C   0  0  0  0  0  3  0  0  0  0  0  0
  161.3990  204.3600  147.9730 N   0  0  0  0  0  0  0  0  0  0  0  0
  160.9050  202.7440  149.6940 C   0  0  0  0  0  2  0  0  0  0  0  0
  160.9710  202.7460  151.2090 C   0  0  0  0  0  2  0  0  0  0  0  0
  161.1800  204.1610  151.7030 C   0  0  0  0  0  1  0  0  0  0  0  0
  1  3  1  0  0  0  0
  2  5  1  0  0  0  0
  2  6  2  0  0  0  0
  3 10  1  0  0  0  0
  4  3  2  0  0  0  0
  5  1  2  0  0  0  0
  6  4  1  0  0  0  0
  7  9  2  0  0  0  0
  9 13  1  0  0  0  0
  9  8  1  0  0  0  0
 10  8  1  0  0  0  0
 10 11  2  0  0  0  0
 13 12  1  0  0  0  0
 14 15  1  0  0  0  0
 14  5  1  0  0  0  0
 16 25  2  0  0  0  0
 16 22  1  0  0  0  0
 18 16  1  0  0  0  0
 19 18  2  0  0  0  0
 19 23  1  0  0  0  0
 20 25  1  0  0  0  0
 21 17  1  0  0  0  0
 22 21  1  0  0  0  0
 23 20  2  0  0  0  0
 24 21  2  0  0  0  0
 24 15  1  0  0  0  0
 25 24  1  0  0  0  0
 26  2  1  0  0  0  0
 27 26  1  0  0  0  0
 28 30  1  0  0  0  0
 28 27  1  0  0  0  0
 29 31  1  0  0  0  0
 30 29  2  0  0  0  0
 31 32  1  0  0  0  0
 32 33  1  0  0  0  0
M  END
>  <MODEL>
8

>  <REMARK>
 VINA RESULT:      -7.5      2.253      7.738
  Name = 
  11 active torsions:
  status: ('A' for Active; 'I' for Inactive)
    1  A    between atoms: C_1  and  C_10
    2  A    between atoms: C_1  and  N_26
    3  A    between atoms: C_6  and  C_8
    4  A    between atoms: C_7  and  C_15
    5  A    between atoms: C_7  and  C_25
    6  A    between atoms: C_8  and  C_10
    7  A    between atoms: C_11  and  C_19
    8  A    between atoms: C_12  and  C_16
    9  A    between atoms: C_15  and  C_32
   10  A    between atoms: C_17  and  C_29
   11  A    between atoms: C_21  and  C_29
                            x       y       z     vdW  Elec       q    Type
                         _______ _______ _______ _____ _____    ______ ____

>  <TORSDO>
F 11

$$$$
=
 OpenBabel11042422363D

 33 35  0  0  0  0  0  0  0  0999 V2000
  161.6450  211.4690  149.9080 C   0  0  0  0  0  3  0  0  0  0  0  0
  159.9430  212.1880  151.4820 C   0  0  0  0  0  0  0  0  0  0  0  0
  161.4580  212.6330  149.1530 C   0  0  0  0  0  0  0  0  0  0  0  0
  160.5150  213.5780  149.5790 C   0  0  0  0  0  3  0  0  0  0  0  0
  160.8920  211.2340  151.0640 C   0  0  0  0  0  0  0  0  0  0  0  0
  159.7590  213.3550  150.7310 C   0  0  0  0  0  3  0  0  0  0  0  0
  159.7940  212.1870  146.5720 N   0  0  0  0  0  2  0  0  0  0  0  0
  161.7780  213.4720  146.7670 N   0  0  0  0  0  2  0  0  0  0  0  0
  160.4780  213.2260  146.2180 C   0  0  0  0  0  0  0  0  0  0  0  0
  162.3020  212.8850  147.9650 C   0  0  0  0  0  0  0  0  0  0  0  0
  163.5340  212.6270  148.0210 O   0  0  0  0  0  0  0  0  0  0  0  0
  158.9630  213.3480  144.2880 C   0  0  0  0  0  1  0  0  0  0  0  0
  159.9600  214.1080  145.1380 C   0  0  0  0  0  2  0  0  0  0  0  0
  161.1730  209.9990  151.8640 C   0  0  0  0  0  2  0  0  0  0  0  0
  162.3060  209.1840  151.2480 C   0  0  0  0  0  2  0  0  0  0  0  0
  161.2000  205.7810  150.4530 C   0  0  0  0  0  0  0  0  0  0  0  0
  161.8870  208.4250  148.2600 N   0  0  0  0  0  1  0  0  0  0  0  0
  160.8760  204.4790  150.8310 C   0  0  0  0  0  3  0  0  0  0  0  0
  160.8810  204.1760  152.2060 C   0  0  0  0  0  2  0  0  0  0  0  0
  161.5310  206.4700  152.7520 C   0  0  0  0  0  3  0  0  0  0  0  0
  161.6500  207.5460  149.3530 C   0  0  0  0  0  0  0  0  0  0  0  0
  161.2770  206.2540  149.1940 N   0  0  0  0  0  0  0  0  0  0  0  0
  161.2060  205.1650  153.1590 C   0  0  0  0  0  3  0  0  0  0  0  0
  161.8030  207.8900  150.6900 C   0  0  0  0  0  0  0  0  0  0  0  0
  161.5130  206.7400  151.3840 C   0  0  0  0  0  0  0  0  0  0  0  0
  159.1110  211.9800  152.7050 C   0  0  0  0  0  2  0  0  0  0  0  0
  159.3310  213.1160  153.6840 C   0  0  0  0  0  2  0  0  0  0  0  0
  159.6190  212.5470  155.0610 C   0  0  0  0  0  2  0  0  0  0  0  0
  160.1080  210.2950  155.6070 C   0  0  0  0  0  3  0  0  0  0  0  0
  160.4170  211.3540  154.9510 N   0  0  0  0  0  0  0  0  0  0  0  0
  160.9360  209.0600  155.4860 C   0  0  0  0  0  2  0  0  0  0  0  0
  160.8350  208.2320  156.7520 C   0  0  0  0  0  2  0  0  0  0  0  0
  160.0790  206.9530  156.4590 C   0  0  0  0  0  1  0  0  0  0  0  0
  1  5  1  0  0  0  0
  2 26  1  0  0  0  0
  3  4  1  0  0  0  0
  3  1  2  0  0  0  0
  4  6  2  0  0  0  0
  5  2  2  0  0  0  0
  5 14  1  0  0  0  0
  6  2  1  0  0  0  0
  8 10  1  0  0  0  0
  9  7  2  0  0  0  0
  9  8  1  0  0  0  0
 10 11  2  0  0  0  0
 10  3  1  0  0  0  0
 12 13  1  0  0  0  0
 13  9  1  0  0  0  0
 15 14  1  0  0  0  0
 16 18  2  0  0  0  0
 16 25  1  0  0  0  0
 17 21  1  0  0  0  0
 18 19  1  0  0  0  0
 19 23  1  0  0  0  0
 20 23  2  0  0  0  0
 21 24  1  0  0  0  0
 22 21  2  0  0  0  0
 22 16  1  0  0  0  0
 24 15  1  0  0  0  0
 24 25  2  0  0  0  0
 25 20  1  0  0  0  0
 26 27  1  0  0  0  0
 27 28  1  0  0  0  0
 30 28  1  0  0  0  0
 30 29  2  0  0  0  0
 31 29  1  0  0  0  0
 31 32  1  0  0  0  0
 33 32  1  0  0  0  0
M  END
>  <MODEL>
9

>  <REMARK>
 VINA RESULT:      -7.3      2.770      6.548
  Name = 
  11 active torsions:
  status: ('A' for Active; 'I' for Inactive)
    1  A    between atoms: C_1  and  C_10
    2  A    between atoms: C_1  and  N_26
    3  A    between atoms: C_6  and  C_8
    4  A    between atoms: C_7  and  C_15
    5  A    between atoms: C_7  and  C_25
    6  A    between atoms: C_8  and  C_10
    7  A    between atoms: C_11  and  C_19
    8  A    between atoms: C_12  and  C_16
    9  A    between atoms: C_15  and  C_32
   10  A    between atoms: C_17  and  C_29
   11  A    between atoms: C_21  and  C_29
                            x       y       z     vdW  Elec       q    Type
                         _______ _______ _______ _____ _____    ______ ____

>  <TORSDO>
F 11

$$$$
