=
 OpenBabel11042422383D

 33 36  0  0  1  0  0  0  0  0999 V2000
  160.0140  208.8400  153.3950 C   0  0  0  0  0  3  0  0  0  0  0  0
  160.4970  210.7490  154.8200 C   0  0  0  0  0  0  0  0  0  0  0  0
  158.0100  212.2490  155.4370 C   0  0  2  0  0  3  0  0  0  0  0  0
  159.2240  212.9420  154.7950 C   0  0  1  0  0  3  0  0  0  0  0  0
  160.3680  206.5020  154.0940 C   0  0  0  0  0  1  0  0  0  0  0  0
  161.9680  211.2590  151.7220 C   0  0  0  0  0  1  0  0  0  0  0  0
  160.4340  207.9620  154.3950 C   0  0  0  0  0  0  0  0  0  0  0  0
  160.9220  209.8610  155.8170 C   0  0  0  0  0  3  0  0  0  0  0  0
  160.5070  211.5700  151.6160 C   0  0  0  0  0  0  0  0  0  0  0  0
  159.6490  213.6780  148.8180 C   0  0  0  0  0  0  0  0  0  0  0  0
  158.6480  212.6560  150.4900 C   0  0  0  0  0  0  0  0  0  0  0  0
  159.3040  214.4490  154.9960 C   0  0  0  0  0  1  0  0  0  0  0  0
  157.2460  210.9130  153.4350 C   0  0  0  0  0  2  0  0  0  0  0  0
  158.2370  211.3800  152.4070 C   0  0  0  0  0  0  0  0  0  0  0  0
  160.6400  213.0170  149.5300 C   0  0  0  0  0  0  0  0  0  0  0  0
  160.0410  212.3700  150.5830 C   0  0  0  0  0  0  0  0  0  0  0  0
  158.3930  213.4670  149.4010 C   0  0  0  0  0  3  0  0  0  0  0  0
  160.9440  212.5020  156.3980 F   0  0  0  0  0  0  0  0  0  0  0  0
  160.5490  212.2380  155.0940 C   0  0  1  0  0  3  0  0  0  0  0  0
  159.5890  211.0820  152.5230 N   0  0  0  0  0  0  0  0  0  0  0  0
  161.9960  213.0160  149.2270 O   0  0  0  0  0  1  0  0  0  0  0  0
  157.7730  212.1710  151.3930 N   0  0  0  0  0  0  0  0  0  0  0  0
  156.8930  212.0290  154.4160 C   0  0  0  0  0  2  0  0  0  0  0  0
  160.9000  208.4730  155.6290 C   0  0  0  0  0  0  0  0  0  0  0  0
  160.0410  210.2250  153.5900 C   0  0  0  0  0  0  0  0  0  0  0  0
  157.5300  212.8770  156.7490 C   0  0  2  0  0  3  0  0  0  0  0  0
  156.3000  212.1530  157.2610 C   0  0  0  0  0  1  0  0  0  0  0  0
  157.2420  214.2330  156.5830 O   0  0  0  0  0  1  0  0  0  0  0  0
  160.5390  206.6230  157.2520 O   0  0  0  0  0  0  0  0  0  0  0  0
  161.3690  207.6190  156.7470 C   0  0  0  0  0  0  0  0  0  0  0  0
  162.5090  207.7730  157.2590 O   0  0  0  0  0  1  0  0  0  0  0  0
  159.8940  214.4450  147.6770 O   0  0  0  0  0  0  0  0  0  0  0  0
  159.1410  214.2820  146.4860 C   0  0  0  0  0  1  0  0  0  0  0  0
  1 25  2  0  0  0  0
  1  7  1  0  0  0  0
  2 19  1  0  0  0  0
  2  8  2  0  0  0  0
  3 26  1  1  0  0  0
  4 12  1  1  0  0  0
  4 19  1  0  0  0  0
  4  3  1  0  0  0  0
  5  7  1  0  0  0  0
  7 24  2  0  0  0  0
  9  6  1  0  0  0  0
  9 20  1  0  0  0  0
 10 17  1  0  0  0  0
 10 15  2  0  0  0  0
 11 16  1  0  0  0  0
 11 22  1  0  0  0  0
 13 23  1  0  0  0  0
 14 20  1  0  0  0  0
 14 13  1  0  0  0  0
 15 16  1  0  0  0  0
 16  9  2  0  0  0  0
 17 11  2  0  0  0  0
 19 18  1  1  0  0  0
 20 25  1  0  0  0  0
 21 15  1  0  0  0  0
 22 14  2  0  0  0  0
 23  3  1  0  0  0  0
 24  8  1  0  0  0  0
 24 30  1  0  0  0  0
 25  2  1  0  0  0  0
 26 27  1  6  0  0  0
 28 26  1  0  0  0  0
 30 29  2  0  0  0  0
 30 31  1  0  0  0  0
 32 10  1  0  0  0  0
 33 32  1  0  0  0  0
M  END
>  <MODEL>
1

>  <REMARK>
 VINA RESULT:       1.0      0.000      0.000
  Name = 
  3 active torsions:
  status: ('A' for Active; 'I' for Inactive)
    1  A    between atoms: C_3  and  C_6
    2  A    between atoms: O_5  and  C_16
    3  A    between atoms: C_14  and  C_31
                            x       y       z     vdW  Elec       q    Type
                         _______ _______ _______ _____ _____    ______ ____

>  <TORSDO>
F 3

$$$$
=
 OpenBabel11042422383D

 33 36  0  0  1  0  0  0  0  0999 V2000
  162.6550  210.5650  150.0070 C   0  0  0  0  0  3  0  0  0  0  0  0
  160.4170  211.0760  150.8050 C   0  0  0  0  0  0  0  0  0  0  0  0
  160.4200  211.4630  153.7490 C   0  0  2  0  0  3  0  0  0  0  0  0
  159.5000  210.4290  153.0790 C   0  0  1  0  0  3  0  0  0  0  0  0
  163.9140  212.0250  148.4700 C   0  0  0  0  0  1  0  0  0  0  0  0
  160.4640  207.8260  149.6000 C   0  0  0  0  0  1  0  0  0  0  0  0
  162.6790  211.7420  149.2590 C   0  0  0  0  0  0  0  0  0  0  0  0
  160.4480  212.2550  150.0480 C   0  0  0  0  0  3  0  0  0  0  0  0
  161.0720  207.8380  150.9680 C   0  0  0  0  0  0  0  0  0  0  0  0
  161.0880  204.6230  152.6030 C   0  0  0  0  0  0  0  0  0  0  0  0
  161.7270  206.6900  153.0060 C   0  0  0  0  0  0  0  0  0  0  0  0
  158.2630  210.0360  153.8740 C   0  0  0  0  0  1  0  0  0  0  0  0
  162.6160  210.2530  153.4500 C   0  0  0  0  0  2  0  0  0  0  0  0
  162.1370  208.9840  152.8040 C   0  0  0  0  0  0  0  0  0  0  0  0
  160.7550  205.3690  151.4810 C   0  0  0  0  0  0  0  0  0  0  0  0
  161.1430  206.6660  151.7080 C   0  0  0  0  0  0  0  0  0  0  0  0
  161.6980  205.4300  153.5730 C   0  0  0  0  0  3  0  0  0  0  0  0
  158.2540  211.7930  151.5590 F   0  0  0  0  0  0  0  0  0  0  0  0
  159.1790  210.7610  151.6200 C   0  0  1  0  0  3  0  0  0  0  0  0
  161.5740  208.9930  151.5330 N   0  0  0  0  0  0  0  0  0  0  0  0
  160.1360  204.8820  150.3360 O   0  0  0  0  0  1  0  0  0  0  0  0
  162.2070  207.8330  153.5370 N   0  0  0  0  0  0  0  0  0  0  0  0
  161.5950  210.7860  154.4550 C   0  0  0  0  0  2  0  0  0  0  0  0
  161.5600  212.6070  149.2720 C   0  0  0  0  0  0  0  0  0  0  0  0
  161.5400  210.2190  150.7770 C   0  0  0  0  0  0  0  0  0  0  0  0
  159.6990  212.5020  154.6140 C   0  0  2  0  0  3  0  0  0  0  0  0
  159.3220  213.7110  153.7810 C   0  0  0  0  0  1  0  0  0  0  0  0
  160.4950  212.9020  155.6890 O   0  0  0  0  0  1  0  0  0  0  0  0
  160.2580  214.4520  148.2310 O   0  0  0  0  0  1  0  0  0  0  0  0
  161.4940  213.8770  148.5080 C   0  0  0  0  0  0  0  0  0  0  0  0
  162.5350  214.4530  148.1000 O   0  0  0  0  0  0  0  0  0  0  0  0
  160.8390  203.2560  152.7280 O   0  0  0  0  0  0  0  0  0  0  0  0
  161.4670  202.2970  151.8920 C   0  0  0  0  0  1  0  0  0  0  0  0
  1 25  1  0  0  0  0
  2 19  1  0  0  0  0
  3 23  1  0  0  0  0
  3 26  1  1  0  0  0
  4  3  1  0  0  0  0
  4 12  1  1  0  0  0
  5  7  1  0  0  0  0
  6  9  1  0  0  0  0
  7 24  1  0  0  0  0
  7  1  2  0  0  0  0
  8  2  1  0  0  0  0
  9 20  1  0  0  0  0
  9 16  2  0  0  0  0
 10 32  1  0  0  0  0
 10 17  1  0  0  0  0
 11 22  1  0  0  0  0
 11 17  2  0  0  0  0
 13 23  1  0  0  0  0
 14 13  1  0  0  0  0
 14 22  2  0  0  0  0
 15 16  1  0  0  0  0
 15 10  2  0  0  0  0
 16 11  1  0  0  0  0
 19 18  1  1  0  0  0
 19  4  1  0  0  0  0
 20 14  1  0  0  0  0
 21 15  1  0  0  0  0
 24  8  2  0  0  0  0
 25  2  2  0  0  0  0
 25 20  1  0  0  0  0
 26 27  1  6  0  0  0
 26 28  1  0  0  0  0
 29 30  1  0  0  0  0
 30 24  1  0  0  0  0
 31 30  2  0  0  0  0
 33 32  1  0  0  0  0
M  END
>  <MODEL>
2

>  <REMARK>
 VINA RESULT:       3.1      2.924      7.131
  Name = 
  3 active torsions:
  status: ('A' for Active; 'I' for Inactive)
    1  A    between atoms: C_3  and  C_6
    2  A    between atoms: O_5  and  C_16
    3  A    between atoms: C_14  and  C_31
                            x       y       z     vdW  Elec       q    Type
                         _______ _______ _______ _____ _____    ______ ____

>  <TORSDO>
F 3

$$$$
