=
 OpenBabel11042422583D

 32 34  0  0  1  0  0  0  0  0999 V2000
  162.1990  207.8140  150.4870 C   0  0  1  0  0  3  0  0  0  0  0  0
  162.7530  207.7830  148.1610 O   0  0  0  0  0  0  0  0  0  0  0  0
  162.2050  208.4020  149.1140 C   0  0  0  0  0  0  0  0  0  0  0  0
  161.5980  209.6400  148.9060 O   0  0  0  0  0  0  0  0  0  0  0  0
  162.2110  210.8570  149.3170 C   0  0  0  0  0  2  0  0  0  0  0  0
  161.8930  211.9770  148.3390 C   0  0  1  0  0  3  0  0  0  0  0  0
  161.0240  213.0320  148.9960 C   0  0  0  0  0  1  0  0  0  0  0  0
  163.1210  212.5840  147.8510 N   0  0  0  0  0  1  0  0  0  0  0  0
  161.0220  208.2660  151.2170 N   0  0  0  0  0  2  0  0  0  0  0  0
  161.4040  208.4260  152.6150 C   0  0  1  0  0  3  0  0  0  0  0  0
  159.7890  210.3750  152.7430 C   0  0  0  0  0  1  0  0  0  0  0  0
  161.3130  208.9070  155.3710 N   0  0  0  0  0  0  0  0  0  0  0  0
  161.2290  207.5230  154.8930 C   0  0  0  0  0  2  0  0  0  0  0  0
  161.1730  209.8600  153.1140 C   0  0  1  0  0  3  0  0  0  0  0  0
  161.3550  209.9640  154.6070 C   0  0  0  0  0  0  0  0  0  0  0  0
  160.6460  207.4420  153.4880 C   0  0  0  0  0  2  0  0  0  0  0  0
  161.5040  211.2470  155.1560 O   0  0  0  0  0  0  0  0  0  0  0  0
  160.4460  211.6020  157.1610 O   0  0  0  0  0  0  0  0  0  0  0  0
  159.7170  212.9340  155.4140 N   0  0  0  0  0  1  0  0  0  0  0  0
  160.5610  211.9180  155.9480 C   0  0  0  0  0  0  0  0  0  0  0  0
  162.2260  206.2950  150.4300 C   0  0  0  0  0  2  0  0  0  0  0  0
  161.0000  205.7780  149.6980 C   0  0  0  0  0  2  0  0  0  0  0  0
  160.9770  204.3240  149.7350 N   0  0  0  0  0  2  0  0  0  0  0  0
  160.8110  201.7430  147.1210 N   0  0  0  0  0  0  0  0  0  0  0  0
  160.6380  202.2780  148.4330 C   0  0  0  0  0  0  0  0  0  0  0  0
  161.0980  203.5310  148.5510 C   0  0  0  0  0  0  0  0  0  0  0  0
  161.8950  203.8990  147.3370 C   0  0  1  0  0  3  0  0  0  0  0  0
  161.4420  202.7180  146.5720 C   0  0  0  0  0  0  0  0  0  0  0  0
  159.8840  201.6140  149.4420 N   0  0  0  0  0  1  0  0  0  0  0  0
  161.2970  204.7140  146.3150 C   0  0  1  0  0  3  0  0  0  0  0  0
  162.3230  205.6810  145.7560 C   0  0  0  0  0  1  0  0  0  0  0  0
  161.1510  203.5840  145.4180 N   0  0  0  0  0  2  0  0  0  0  0  0
  1 21  1  6  0  0  0
  1  9  1  0  0  0  0
  2  3  2  0  0  0  0
  3  1  1  0  0  0  0
  4  3  1  0  0  0  0
  4  5  1  0  0  0  0
  6  7  1  1  0  0  0
  6  5  1  0  0  0  0
  8  6  1  0  0  0  0
 10  9  1  6  0  0  0
 10 14  1  0  0  0  0
 10 16  1  0  0  0  0
 13 12  1  0  0  0  0
 14 11  1  1  0  0  0
 14 15  1  0  0  0  0
 15 17  1  0  0  0  0
 15 12  2  0  0  0  0
 16 13  1  0  0  0  0
 17 20  1  0  0  0  0
 19 20  1  0  0  0  0
 20 18  2  0  0  0  0
 22 23  1  0  0  0  0
 22 21  1  0  0  0  0
 24 25  1  0  0  0  0
 25 26  2  0  0  0  0
 25 29  1  0  0  0  0
 26 23  1  0  0  0  0
 27 28  1  6  0  0  0
 27 26  1  0  0  0  0
 28 24  2  0  0  0  0
 30 31  1  6  0  0  0
 30 27  1  0  0  0  0
 32 30  1  0  0  0  0
 32 28  1  0  0  0  0
M  END
>  <MODEL>
1

>  <REMARK>
 VINA RESULT:      -7.1      0.000      0.000
  Name = 
  12 active torsions:
  status: ('A' for Active; 'I' for Inactive)
    1  A    between atoms: N_1  and  C_9
    2  A    between atoms: N_1  and  C_13
    3  A    between atoms: O_3  and  C_27
    4  A    between atoms: O_3  and  C_30
    5  A    between atoms: C_5  and  C_32
    6  A    between atoms: C_7  and  C_13
    7  A    between atoms: C_7  and  C_24
    8  A    between atoms: O_8  and  C_20
    9  A    between atoms: O_8  and  C_32
   10  A    between atoms: C_10  and  N_15
   11  A    between atoms: C_13  and  C_20
   12  A    between atoms: N_15  and  C_24
                            x       y       z     vdW  Elec       q    Type
                         _______ _______ _______ _____ _____    ______ ____

>  <TORSDO>
F 12

$$$$
=
 OpenBabel11042422583D

 32 34  0  0  1  0  0  0  0  0999 V2000
  161.0590  206.5980  151.7530 C   0  0  1  0  0  3  0  0  0  0  0  0
  161.1990  204.5640  153.0030 O   0  0  0  0  0  0  0  0  0  0  0  0
  161.3030  205.8220  153.0050 C   0  0  0  0  0  0  0  0  0  0  0  0
  161.6450  206.5070  154.1700 O   0  0  0  0  0  0  0  0  0  0  0  0
  160.6590  207.0890  155.0160 C   0  0  0  0  0  2  0  0  0  0  0  0
  161.1050  208.4610  155.4980 C   0  0  1  0  0  3  0  0  0  0  0  0
  159.9070  209.3400  155.7990 C   0  0  0  0  0  1  0  0  0  0  0  0
  161.9350  208.3340  156.6840 N   0  0  0  0  0  1  0  0  0  0  0  0
  162.3060  207.1850  151.2810 N   0  0  0  0  0  2  0  0  0  0  0  0
  162.1600  208.6350  151.3380 C   0  0  1  0  0  3  0  0  0  0  0  0
  161.6110  208.5890  148.8640 C   0  0  0  0  0  1  0  0  0  0  0  0
  161.2490  211.2480  150.9110 N   0  0  0  0  0  0  0  0  0  0  0  0
  160.7730  210.5180  152.0900 C   0  0  0  0  0  2  0  0  0  0  0  0
  162.3910  209.2900  149.9680 C   0  0  1  0  0  3  0  0  0  0  0  0
  162.0220  210.7520  149.9820 C   0  0  0  0  0  0  0  0  0  0  0  0
  160.7890  209.0110  151.8710 C   0  0  0  0  0  2  0  0  0  0  0  0
  162.4810  211.5490  148.9230 O   0  0  0  0  0  0  0  0  0  0  0  0
  162.0010  213.7700  148.6060 O   0  0  0  0  0  0  0  0  0  0  0  0
  160.7570  212.3010  147.3220 N   0  0  0  0  0  1  0  0  0  0  0  0
  161.7630  212.5750  148.2930 C   0  0  0  0  0  0  0  0  0  0  0  0
  160.4560  205.7140  150.6720 C   0  0  0  0  0  2  0  0  0  0  0  0
  161.5560  205.1300  149.8020 C   0  0  0  0  0  2  0  0  0  0  0  0
  161.2800  203.7270  149.5300 N   0  0  0  0  0  2  0  0  0  0  0  0
  160.8440  201.7310  146.4720 N   0  0  0  0  0  0  0  0  0  0  0  0
  160.8120  201.9820  147.8770 C   0  0  0  0  0  0  0  0  0  0  0  0
  161.2750  203.1970  148.2010 C   0  0  0  0  0  0  0  0  0  0  0  0
  161.9330  203.8280  147.0120 C   0  0  1  0  0  3  0  0  0  0  0  0
  161.4060  202.8160  146.0730 C   0  0  0  0  0  0  0  0  0  0  0  0
  160.1780  201.1040  148.8010 N   0  0  0  0  0  1  0  0  0  0  0  0
  161.2210  204.8170  146.2490 C   0  0  1  0  0  3  0  0  0  0  0  0
  162.1740  205.9070  145.7960 C   0  0  0  0  0  1  0  0  0  0  0  0
  160.9850  203.8900  145.1590 N   0  0  0  0  0  2  0  0  0  0  0  0
  1 21  1  6  0  0  0
  1  3  1  0  0  0  0
  2  3  2  0  0  0  0
  3  4  1  0  0  0  0
  4  5  1  0  0  0  0
  5  6  1  0  0  0  0
  6  7  1  1  0  0  0
  6  8  1  0  0  0  0
  9  1  1  0  0  0  0
 10  9  1  6  0  0  0
 10 16  1  0  0  0  0
 12 13  1  0  0  0  0
 14 11  1  6  0  0  0
 14 15  1  0  0  0  0
 14 10  1  0  0  0  0
 15 12  2  0  0  0  0
 16 13  1  0  0  0  0
 17 15  1  0  0  0  0
 19 20  1  0  0  0  0
 20 18  2  0  0  0  0
 20 17  1  0  0  0  0
 22 21  1  0  0  0  0
 23 22  1  0  0  0  0
 24 25  1  0  0  0  0
 25 26  2  0  0  0  0
 25 29  1  0  0  0  0
 26 23  1  0  0  0  0
 27 28  1  6  0  0  0
 27 26  1  0  0  0  0
 28 24  2  0  0  0  0
 30 31  1  6  0  0  0
 30 27  1  0  0  0  0
 32 28  1  0  0  0  0
 32 30  1  0  0  0  0
M  END
>  <MODEL>
2

>  <REMARK>
 VINA RESULT:      -7.0      2.115      4.796
  Name = 
  12 active torsions:
  status: ('A' for Active; 'I' for Inactive)
    1  A    between atoms: N_1  and  C_9
    2  A    between atoms: N_1  and  C_13
    3  A    between atoms: O_3  and  C_27
    4  A    between atoms: O_3  and  C_30
    5  A    between atoms: C_5  and  C_32
    6  A    between atoms: C_7  and  C_13
    7  A    between atoms: C_7  and  C_24
    8  A    between atoms: O_8  and  C_20
    9  A    between atoms: O_8  and  C_32
   10  A    between atoms: C_10  and  N_15
   11  A    between atoms: C_13  and  C_20
   12  A    between atoms: N_15  and  C_24
                            x       y       z     vdW  Elec       q    Type
                         _______ _______ _______ _____ _____    ______ ____

>  <TORSDO>
F 12

$$$$
=
 OpenBabel11042422583D

 32 34  0  0  1  0  0  0  0  0999 V2000
  162.3040  208.9550  150.8770 C   0  0  1  0  0  3  0  0  0  0  0  0
  161.9930  208.9290  148.5050 O   0  0  0  0  0  0  0  0  0  0  0  0
  162.1600  209.6210  149.5480 C   0  0  0  0  0  0  0  0  0  0  0  0
  162.2160  211.0120  149.4780 O   0  0  0  0  0  0  0  0  0  0  0  0
  162.2710  211.7020  148.2340 C   0  0  0  0  0  2  0  0  0  0  0  0
  161.0540  212.5960  148.0590 C   0  0  1  0  0  3  0  0  0  0  0  0
  161.2430  213.9100  148.7920 C   0  0  0  0  0  1  0  0  0  0  0  0
  160.8130  212.8480  146.6480 N   0  0  0  0  0  1  0  0  0  0  0  0
  162.3690  209.9580  151.9310 N   0  0  0  0  0  2  0  0  0  0  0  0
  161.0640  210.0010  152.5800 C   0  0  1  0  0  3  0  0  0  0  0  0
  162.2630  210.4780  154.7620 C   0  0  0  0  0  1  0  0  0  0  0  0
  158.9340  210.7080  154.2540 N   0  0  0  0  0  0  0  0  0  0  0  0
  158.9860  211.2710  152.9010 C   0  0  0  0  0  2  0  0  0  0  0  0
  161.1570  209.6820  154.0800 C   0  0  1  0  0  3  0  0  0  0  0  0
  159.8510  209.9460  154.7860 C   0  0  0  0  0  0  0  0  0  0  0  0
  160.4120  211.3570  152.3750 C   0  0  0  0  0  2  0  0  0  0  0  0
  159.6820  209.3990  156.0660 O   0  0  0  0  0  0  0  0  0  0  0  0
  159.3840  207.1260  156.1550 O   0  0  0  0  0  0  0  0  0  0  0  0
  161.2570  207.9170  157.2610 N   0  0  0  0  0  1  0  0  0  0  0  0
  160.0850  208.1200  156.4760 C   0  0  0  0  0  0  0  0  0  0  0  0
  161.1490  207.9990  151.1350 C   0  0  0  0  0  2  0  0  0  0  0  0
  161.5600  206.5790  150.7870 C   0  0  0  0  0  2  0  0  0  0  0  0
  160.7790  206.1010  149.6560 N   0  0  0  0  0  2  0  0  0  0  0  0
  161.2550  202.6490  148.4820 N   0  0  0  0  0  0  0  0  0  0  0  0
  160.9050  203.6680  149.4190 C   0  0  0  0  0  0  0  0  0  0  0  0
  161.1180  204.9050  148.9500 C   0  0  0  0  0  0  0  0  0  0  0  0
  161.9070  204.8410  147.6780 C   0  0  1  0  0  3  0  0  0  0  0  0
  161.7290  203.3800  147.5370 C   0  0  0  0  0  0  0  0  0  0  0  0
  160.2260  203.3890  150.6390 N   0  0  0  0  0  1  0  0  0  0  0  0
  161.2330  204.9830  146.4160 C   0  0  1  0  0  3  0  0  0  0  0  0
  162.0950  205.7790  145.4550 C   0  0  0  0  0  1  0  0  0  0  0  0
  161.3550  203.5680  146.1260 N   0  0  0  0  0  2  0  0  0  0  0  0
  1 21  1  1  0  0  0
  1  9  1  0  0  0  0
  2  3  2  0  0  0  0
  3  1  1  0  0  0  0
  4  3  1  0  0  0  0
  5  4  1  0  0  0  0
  6  5  1  0  0  0  0
  6  7  1  1  0  0  0
  8  6  1  0  0  0  0
 10  9  1  1  0  0  0
 10 14  1  0  0  0  0
 12 15  2  0  0  0  0
 13 12  1  0  0  0  0
 14 11  1  1  0  0  0
 14 15  1  0  0  0  0
 15 17  1  0  0  0  0
 16 10  1  0  0  0  0
 16 13  1  0  0  0  0
 17 20  1  0  0  0  0
 18 20  2  0  0  0  0
 20 19  1  0  0  0  0
 22 21  1  0  0  0  0
 23 22  1  0  0  0  0
 24 25  1  0  0  0  0
 25 29  1  0  0  0  0
 26 25  2  0  0  0  0
 26 23  1  0  0  0  0
 27 28  1  6  0  0  0
 27 26  1  0  0  0  0
 28 24  2  0  0  0  0
 30 31  1  6  0  0  0
 30 27  1  0  0  0  0
 32 30  1  0  0  0  0
 32 28  1  0  0  0  0
M  END
>  <MODEL>
3

>  <REMARK>
 VINA RESULT:      -6.9      1.649      2.443
  Name = 
  12 active torsions:
  status: ('A' for Active; 'I' for Inactive)
    1  A    between atoms: N_1  and  C_9
    2  A    between atoms: N_1  and  C_13
    3  A    between atoms: O_3  and  C_27
    4  A    between atoms: O_3  and  C_30
    5  A    between atoms: C_5  and  C_32
    6  A    between atoms: C_7  and  C_13
    7  A    between atoms: C_7  and  C_24
    8  A    between atoms: O_8  and  C_20
    9  A    between atoms: O_8  and  C_32
   10  A    between atoms: C_10  and  N_15
   11  A    between atoms: C_13  and  C_20
   12  A    between atoms: N_15  and  C_24
                            x       y       z     vdW  Elec       q    Type
                         _______ _______ _______ _____ _____    ______ ____

>  <TORSDO>
F 12

$$$$
=
 OpenBabel11042422583D

 32 34  0  0  1  0  0  0  0  0999 V2000
  161.7380  209.8530  149.6200 C   0  0  1  0  0  3  0  0  0  0  0  0
  162.6150  208.3410  151.2530 O   0  0  0  0  0  0  0  0  0  0  0  0
  161.9570  209.3950  151.0240 C   0  0  0  0  0  0  0  0  0  0  0  0
  161.4260  210.1450  152.0710 O   0  0  0  0  0  0  0  0  0  0  0  0
  160.3350  209.6750  152.8560 C   0  0  0  0  0  2  0  0  0  0  0  0
  160.6210  209.8550  154.3380 C   0  0  1  0  0  3  0  0  0  0  0  0
  160.7060  208.5110  155.0360 C   0  0  0  0  0  1  0  0  0  0  0  0
  161.8600  210.5900  154.5270 N   0  0  0  0  0  1  0  0  0  0  0  0
  162.4150  211.1230  149.3990 N   0  0  0  0  0  2  0  0  0  0  0  0
  161.8580  211.7160  148.1890 C   0  0  1  0  0  3  0  0  0  0  0  0
  160.6670  213.3960  149.6670 C   0  0  0  0  0  1  0  0  0  0  0  0
  160.9230  213.5640  146.3060 N   0  0  0  0  0  0  0  0  0  0  0  0
  162.3020  213.0800  146.1950 C   0  0  0  0  0  2  0  0  0  0  0  0
  160.5460  212.4650  148.4680 C   0  0  1  0  0  3  0  0  0  0  0  0
  160.0950  213.2590  147.2690 C   0  0  0  0  0  0  0  0  0  0  0  0
  162.8650  212.6510  147.5430 C   0  0  0  0  0  2  0  0  0  0  0  0
  158.7700  213.7190  147.2540 O   0  0  0  0  0  0  0  0  0  0  0  0
  157.1510  212.2390  146.5820 O   0  0  0  0  0  0  0  0  0  0  0  0
  156.9780  212.9580  148.7750 N   0  0  0  0  0  1  0  0  0  0  0  0
  157.6270  212.9480  147.5070 C   0  0  0  0  0  0  0  0  0  0  0  0
  162.2350  208.8160  148.6240 C   0  0  0  0  0  2  0  0  0  0  0  0
  161.2150  207.7000  148.4800 C   0  0  0  0  0  2  0  0  0  0  0  0
  161.8950  206.4270  148.2970 N   0  0  0  0  0  2  0  0  0  0  0  0
  160.8830  202.9810  149.0870 N   0  0  0  0  0  0  0  0  0  0  0  0
  161.3010  204.0520  148.2410 C   0  0  0  0  0  0  0  0  0  0  0  0
  161.4190  205.2170  148.8930 C   0  0  0  0  0  0  0  0  0  0  0  0
  160.8210  205.1000  150.2620 C   0  0  1  0  0  3  0  0  0  0  0  0
  160.7110  203.6280  150.1840 C   0  0  0  0  0  0  0  0  0  0  0  0
  161.7270  203.8500  146.8980 N   0  0  0  0  0  1  0  0  0  0  0  0
  161.6820  204.9140  151.3980 C   0  0  1  0  0  3  0  0  0  0  0  0
  161.1490  205.6930  152.5860 C   0  0  0  0  0  1  0  0  0  0  0  0
  161.3110  203.5180  151.5230 N   0  0  0  0  0  2  0  0  0  0  0  0
  1 21  1  6  0  0  0
  1  3  1  0  0  0  0
  3  2  2  0  0  0  0
  3  4  1  0  0  0  0
  4  5  1  0  0  0  0
  5  6  1  0  0  0  0
  6  8  1  0  0  0  0
  6  7  1  1  0  0  0
  9  1  1  0  0  0  0
 10 14  1  0  0  0  0
 10  9  1  1  0  0  0
 12 15  2  0  0  0  0
 13 12  1  0  0  0  0
 13 16  1  0  0  0  0
 14 11  1  1  0  0  0
 15 14  1  0  0  0  0
 16 10  1  0  0  0  0
 17 15  1  0  0  0  0
 17 20  1  0  0  0  0
 18 20  2  0  0  0  0
 20 19  1  0  0  0  0
 22 21  1  0  0  0  0
 23 22  1  0  0  0  0
 23 26  1  0  0  0  0
 24 28  2  0  0  0  0
 25 26  2  0  0  0  0
 25 24  1  0  0  0  0
 27 26  1  6  0  0  0
 27 30  1  0  0  0  0
 28 27  1  0  0  0  0
 28 32  1  0  0  0  0
 29 25  1  0  0  0  0
 30 32  1  0  0  0  0
 30 31  1  1  0  0  0
M  END
>  <MODEL>
4

>  <REMARK>
 VINA RESULT:      -6.9      2.491      6.000
  Name = 
  12 active torsions:
  status: ('A' for Active; 'I' for Inactive)
    1  A    between atoms: N_1  and  C_9
    2  A    between atoms: N_1  and  C_13
    3  A    between atoms: O_3  and  C_27
    4  A    between atoms: O_3  and  C_30
    5  A    between atoms: C_5  and  C_32
    6  A    between atoms: C_7  and  C_13
    7  A    between atoms: C_7  and  C_24
    8  A    between atoms: O_8  and  C_20
    9  A    between atoms: O_8  and  C_32
   10  A    between atoms: C_10  and  N_15
   11  A    between atoms: C_13  and  C_20
   12  A    between atoms: N_15  and  C_24
                            x       y       z     vdW  Elec       q    Type
                         _______ _______ _______ _____ _____    ______ ____

>  <TORSDO>
F 12

$$$$
=
 OpenBabel11042422583D

 32 34  0  0  1  0  0  0  0  0999 V2000
  162.1830  208.8050  150.7070 C   0  0  1  0  0  3  0  0  0  0  0  0
  162.0390  209.2310  148.3580 O   0  0  0  0  0  0  0  0  0  0  0  0
  162.0750  209.7110  149.5250 C   0  0  0  0  0  0  0  0  0  0  0  0
  162.0170  211.0880  149.7300 O   0  0  0  0  0  0  0  0  0  0  0  0
  162.3200  212.0170  148.6950 C   0  0  0  0  0  2  0  0  0  0  0  0
  161.1500  212.9600  148.4580 C   0  0  1  0  0  3  0  0  0  0  0  0
  160.4420  213.2750  149.7620 C   0  0  0  0  0  1  0  0  0  0  0  0
  161.6130  214.1900  147.8380 N   0  0  0  0  0  1  0  0  0  0  0  0
  160.9580  208.8650  151.4920 N   0  0  0  0  0  2  0  0  0  0  0  0
  161.3380  208.9660  152.8970 C   0  0  1  0  0  3  0  0  0  0  0  0
  159.5450  210.7370  153.1640 C   0  0  0  0  0  1  0  0  0  0  0  0
  161.2320  209.2480  155.6800 N   0  0  0  0  0  0  0  0  0  0  0  0
  161.2760  207.8990  155.1080 C   0  0  0  0  0  2  0  0  0  0  0  0
  160.9770  210.3340  153.4930 C   0  0  1  0  0  3  0  0  0  0  0  0
  161.1640  210.3540  154.9890 C   0  0  0  0  0  0  0  0  0  0  0  0
  160.6880  207.8560  153.7040 C   0  0  0  0  0  2  0  0  0  0  0  0
  161.1950  211.6050  155.6240 O   0  0  0  0  0  0  0  0  0  0  0  0
  160.0380  213.5200  156.1290 O   0  0  0  0  0  0  0  0  0  0  0  0
  159.0600  211.5560  156.8670 N   0  0  0  0  0  1  0  0  0  0  0  0
  160.0980  212.2650  156.1960 C   0  0  0  0  0  0  0  0  0  0  0  0
  162.4570  207.3730  150.2740 C   0  0  0  0  0  2  0  0  0  0  0  0
  161.1750  206.7210  149.7860 C   0  0  0  0  0  2  0  0  0  0  0  0
  161.4740  205.7700  148.7280 N   0  0  0  0  0  2  0  0  0  0  0  0
  160.9190  202.1700  148.2210 N   0  0  0  0  0  0  0  0  0  0  0  0
  161.2090  203.5100  147.8230 C   0  0  0  0  0  0  0  0  0  0  0  0
  161.1510  204.3810  148.8400 C   0  0  0  0  0  0  0  0  0  0  0  0
  160.5410  203.7250  150.0410 C   0  0  1  0  0  3  0  0  0  0  0  0
  160.6330  202.3700  149.4580 C   0  0  0  0  0  0  0  0  0  0  0  0
  161.6920  203.8390  146.5250 N   0  0  0  0  0  1  0  0  0  0  0  0
  161.3900  203.2590  151.1030 C   0  0  1  0  0  3  0  0  0  0  0  0
  160.7270  203.5080  152.4440 C   0  0  0  0  0  1  0  0  0  0  0  0
  161.2080  201.8730  150.7180 N   0  0  0  0  0  2  0  0  0  0  0  0
  1 21  1  6  0  0  0
  1  9  1  0  0  0  0
  2  3  2  0  0  0  0
  3  4  1  0  0  0  0
  3  1  1  0  0  0  0
  5  4  1  0  0  0  0
  6  5  1  0  0  0  0
  6  7  1  1  0  0  0
  8  6  1  0  0  0  0
 10  9  1  6  0  0  0
 10 14  1  0  0  0  0
 10 16  1  0  0  0  0
 13 12  1  0  0  0  0
 14 11  1  1  0  0  0
 14 15  1  0  0  0  0
 15 17  1  0  0  0  0
 15 12  2  0  0  0  0
 16 13  1  0  0  0  0
 17 20  1  0  0  0  0
 18 20  2  0  0  0  0
 20 19  1  0  0  0  0
 22 21  1  0  0  0  0
 23 26  1  0  0  0  0
 23 22  1  0  0  0  0
 24 28  2  0  0  0  0
 25 24  1  0  0  0  0
 25 26  2  0  0  0  0
 27 26  1  6  0  0  0
 27 30  1  0  0  0  0
 28 27  1  0  0  0  0
 28 32  1  0  0  0  0
 29 25  1  0  0  0  0
 30 31  1  1  0  0  0
 32 30  1  0  0  0  0
M  END
>  <MODEL>
5

>  <REMARK>
 VINA RESULT:      -6.9      1.377      2.394
  Name = 
  12 active torsions:
  status: ('A' for Active; 'I' for Inactive)
    1  A    between atoms: N_1  and  C_9
    2  A    between atoms: N_1  and  C_13
    3  A    between atoms: O_3  and  C_27
    4  A    between atoms: O_3  and  C_30
    5  A    between atoms: C_5  and  C_32
    6  A    between atoms: C_7  and  C_13
    7  A    between atoms: C_7  and  C_24
    8  A    between atoms: O_8  and  C_20
    9  A    between atoms: O_8  and  C_32
   10  A    between atoms: C_10  and  N_15
   11  A    between atoms: C_13  and  C_20
   12  A    between atoms: N_15  and  C_24
                            x       y       z     vdW  Elec       q    Type
                         _______ _______ _______ _____ _____    ______ ____

>  <TORSDO>
F 12

$$$$
=
 OpenBabel11042422583D

 32 34  0  0  1  0  0  0  0  0999 V2000
  161.0870  206.3860  151.6160 C   0  0  1  0  0  3  0  0  0  0  0  0
  161.1700  204.3730  152.9050 O   0  0  0  0  0  0  0  0  0  0  0  0
  161.2820  205.6300  152.8890 C   0  0  0  0  0  0  0  0  0  0  0  0
  161.5860  206.3330  154.0540 O   0  0  0  0  0  0  0  0  0  0  0  0
  160.5770  206.9490  154.8460 C   0  0  0  0  0  2  0  0  0  0  0  0
  161.0570  208.2870  155.3870 C   0  0  1  0  0  3  0  0  0  0  0  0
  159.8810  209.1650  155.7680 C   0  0  0  0  0  1  0  0  0  0  0  0
  161.9170  208.0840  156.5410 N   0  0  0  0  0  1  0  0  0  0  0  0
  162.3380  207.0150  151.2150 N   0  0  0  0  0  2  0  0  0  0  0  0
  162.1600  208.4580  151.3190 C   0  0  1  0  0  3  0  0  0  0  0  0
  161.5810  208.4760  148.8510 C   0  0  0  0  0  1  0  0  0  0  0  0
  161.1850  211.0610  150.9850 N   0  0  0  0  0  0  0  0  0  0  0  0
  160.7400  210.2840  152.1460 C   0  0  0  0  0  2  0  0  0  0  0  0
  162.3590  209.1610  149.9680 C   0  0  1  0  0  3  0  0  0  0  0  0
  161.9570  210.6130  150.0320 C   0  0  0  0  0  0  0  0  0  0  0  0
  160.7880  208.7850  151.8800 C   0  0  0  0  0  2  0  0  0  0  0  0
  162.3850  211.4530  148.9940 O   0  0  0  0  0  0  0  0  0  0  0  0
  160.7390  212.0000  147.4920 O   0  0  0  0  0  0  0  0  0  0  0  0
  161.7540  213.7980  148.5370 N   0  0  0  0  0  1  0  0  0  0  0  0
  161.5970  212.3980  148.3210 C   0  0  0  0  0  0  0  0  0  0  0  0
  160.5830  205.4710  150.5100 C   0  0  0  0  0  2  0  0  0  0  0  0
  161.7430  205.0150  149.6420 C   0  0  0  0  0  2  0  0  0  0  0  0
  161.3190  204.9300  148.2530 N   0  0  0  0  0  2  0  0  0  0  0  0
  161.2050  202.1110  145.8940 N   0  0  0  0  0  0  0  0  0  0  0  0
  161.3840  203.4720  146.2870 C   0  0  0  0  0  0  0  0  0  0  0  0
  161.1390  203.6760  147.5890 C   0  0  0  0  0  0  0  0  0  0  0  0
  160.4970  202.4610  148.1850 C   0  0  1  0  0  3  0  0  0  0  0  0
  160.7880  201.6190  147.0050 C   0  0  0  0  0  0  0  0  0  0  0  0
  161.9440  204.4550  145.4230 N   0  0  0  0  0  1  0  0  0  0  0  0
  161.2920  201.5450  148.9580 C   0  0  1  0  0  3  0  0  0  0  0  0
  160.4860  201.0220  150.1320 C   0  0  0  0  0  1  0  0  0  0  0  0
  161.2970  200.5610  147.8930 N   0  0  0  0  0  2  0  0  0  0  0  0
  1 21  1  6  0  0  0
  1  3  1  0  0  0  0
  3  2  2  0  0  0  0
  3  4  1  0  0  0  0
  4  5  1  0  0  0  0
  5  6  1  0  0  0  0
  6  7  1  1  0  0  0
  6  8  1  0  0  0  0
  9  1  1  0  0  0  0
 10  9  1  6  0  0  0
 10 16  1  0  0  0  0
 12 13  1  0  0  0  0
 14 11  1  6  0  0  0
 14 15  1  0  0  0  0
 14 10  1  0  0  0  0
 15 12  2  0  0  0  0
 16 13  1  0  0  0  0
 17 15  1  0  0  0  0
 18 20  2  0  0  0  0
 20 19  1  0  0  0  0
 20 17  1  0  0  0  0
 22 21  1  0  0  0  0
 23 22  1  0  0  0  0
 24 25  1  0  0  0  0
 24 28  2  0  0  0  0
 25 26  2  0  0  0  0
 26 27  1  0  0  0  0
 26 23  1  0  0  0  0
 27 28  1  6  0  0  0
 27 30  1  0  0  0  0
 28 32  1  0  0  0  0
 29 25  1  0  0  0  0
 30 31  1  1  0  0  0
 32 30  1  0  0  0  0
M  END
>  <MODEL>
6

>  <REMARK>
 VINA RESULT:      -6.8      2.261      5.155
  Name = 
  12 active torsions:
  status: ('A' for Active; 'I' for Inactive)
    1  A    between atoms: N_1  and  C_9
    2  A    between atoms: N_1  and  C_13
    3  A    between atoms: O_3  and  C_27
    4  A    between atoms: O_3  and  C_30
    5  A    between atoms: C_5  and  C_32
    6  A    between atoms: C_7  and  C_13
    7  A    between atoms: C_7  and  C_24
    8  A    between atoms: O_8  and  C_20
    9  A    between atoms: O_8  and  C_32
   10  A    between atoms: C_10  and  N_15
   11  A    between atoms: C_13  and  C_20
   12  A    between atoms: N_15  and  C_24
                            x       y       z     vdW  Elec       q    Type
                         _______ _______ _______ _____ _____    ______ ____

>  <TORSDO>
F 12

$$$$
=
 OpenBabel11042422583D

 32 34  0  0  1  0  0  0  0  0999 V2000
  162.1180  208.6640  150.8780 C   0  0  1  0  0  3  0  0  0  0  0  0
  161.9080  208.8730  148.5040 O   0  0  0  0  0  0  0  0  0  0  0  0
  161.9870  209.4580  149.6200 C   0  0  0  0  0  0  0  0  0  0  0  0
  161.9560  210.8500  149.6980 O   0  0  0  0  0  0  0  0  0  0  0  0
  162.4390  211.6730  148.6430 C   0  0  0  0  0  2  0  0  0  0  0  0
  161.4090  212.7270  148.2670 C   0  0  1  0  0  3  0  0  0  0  0  0
  160.5120  212.2260  147.1510 C   0  0  0  0  0  1  0  0  0  0  0  0
  160.6060  213.0820  149.4240 N   0  0  0  0  0  1  0  0  0  0  0  0
  160.8880  208.7530  151.6520 N   0  0  0  0  0  2  0  0  0  0  0  0
  161.2520  209.1040  153.0200 C   0  0  1  0  0  3  0  0  0  0  0  0
  159.2860  210.7040  153.0390 C   0  0  0  0  0  1  0  0  0  0  0  0
  161.1100  209.7950  155.7290 N   0  0  0  0  0  0  0  0  0  0  0  0
  161.2930  208.3850  155.3680 C   0  0  0  0  0  2  0  0  0  0  0  0
  160.7510  210.5040  153.4070 C   0  0  1  0  0  3  0  0  0  0  0  0
  160.9310  210.7700  154.8800 C   0  0  0  0  0  0  0  0  0  0  0  0
  160.7170  208.0700  153.9950 C   0  0  0  0  0  2  0  0  0  0  0  0
  160.8320  212.0990  155.3170 O   0  0  0  0  0  0  0  0  0  0  0  0
  160.1200  213.0890  157.2610 O   0  0  0  0  0  0  0  0  0  0  0  0
  158.4530  212.6310  155.7220 N   0  0  0  0  0  1  0  0  0  0  0  0
  159.8180  212.6250  156.1310 C   0  0  0  0  0  0  0  0  0  0  0  0
  162.4400  207.2090  150.5730 C   0  0  0  0  0  2  0  0  0  0  0  0
  161.2040  206.3490  150.7730 C   0  0  0  0  0  2  0  0  0  0  0  0
  160.6280  206.0020  149.4830 N   0  0  0  0  0  2  0  0  0  0  0  0
  161.2490  202.5920  148.2540 N   0  0  0  0  0  0  0  0  0  0  0  0
  160.8390  203.5790  149.2010 C   0  0  0  0  0  0  0  0  0  0  0  0
  161.0250  204.8310  148.7630 C   0  0  0  0  0  0  0  0  0  0  0  0
  161.8510  204.8190  147.5140 C   0  0  1  0  0  3  0  0  0  0  0  0
  161.7250  203.3570  147.3380 C   0  0  0  0  0  0  0  0  0  0  0  0
  160.1360  203.2540  150.3950 N   0  0  0  0  0  1  0  0  0  0  0  0
  161.2090  204.9660  146.2360 C   0  0  1  0  0  3  0  0  0  0  0  0
  162.0720  205.8090  145.3160 C   0  0  0  0  0  1  0  0  0  0  0  0
  161.3850  203.5620  145.9210 N   0  0  0  0  0  2  0  0  0  0  0  0
  1 21  1  6  0  0  0
  1  9  1  0  0  0  0
  2  3  2  0  0  0  0
  3  4  1  0  0  0  0
  3  1  1  0  0  0  0
  5  4  1  0  0  0  0
  6  7  1  6  0  0  0
  6  5  1  0  0  0  0
  6  8  1  0  0  0  0
 10  9  1  6  0  0  0
 10 14  1  0  0  0  0
 10 16  1  0  0  0  0
 13 12  1  0  0  0  0
 14 11  1  1  0  0  0
 14 15  1  0  0  0  0
 15 17  1  0  0  0  0
 15 12  2  0  0  0  0
 16 13  1  0  0  0  0
 17 20  1  0  0  0  0
 19 20  1  0  0  0  0
 20 18  2  0  0  0  0
 21 22  1  0  0  0  0
 23 22  1  0  0  0  0
 24 25  1  0  0  0  0
 25 29  1  0  0  0  0
 26 25  2  0  0  0  0
 26 23  1  0  0  0  0
 27 28  1  6  0  0  0
 27 26  1  0  0  0  0
 28 24  2  0  0  0  0
 30 31  1  6  0  0  0
 30 27  1  0  0  0  0
 32 30  1  0  0  0  0
 32 28  1  0  0  0  0
M  END
>  <MODEL>
7

>  <REMARK>
 VINA RESULT:      -6.8      1.176      1.274
  Name = 
  12 active torsions:
  status: ('A' for Active; 'I' for Inactive)
    1  A    between atoms: N_1  and  C_9
    2  A    between atoms: N_1  and  C_13
    3  A    between atoms: O_3  and  C_27
    4  A    between atoms: O_3  and  C_30
    5  A    between atoms: C_5  and  C_32
    6  A    between atoms: C_7  and  C_13
    7  A    between atoms: C_7  and  C_24
    8  A    between atoms: O_8  and  C_20
    9  A    between atoms: O_8  and  C_32
   10  A    between atoms: C_10  and  N_15
   11  A    between atoms: C_13  and  C_20
   12  A    between atoms: N_15  and  C_24
                            x       y       z     vdW  Elec       q    Type
                         _______ _______ _______ _____ _____    ______ ____

>  <TORSDO>
F 12

$$$$
=
 OpenBabel11042422583D

 32 34  0  0  1  0  0  0  0  0999 V2000
  161.3150  208.3340  151.4470 C   0  0  1  0  0  3  0  0  0  0  0  0
  162.8710  210.0770  151.9590 O   0  0  0  0  0  0  0  0  0  0  0  0
  162.1440  209.5240  151.0880 C   0  0  0  0  0  0  0  0  0  0  0  0
  162.0990  210.0100  149.7830 O   0  0  0  0  0  0  0  0  0  0  0  0
  161.9270  211.3950  149.5020 C   0  0  0  0  0  2  0  0  0  0  0  0
  162.1730  211.6810  148.0290 C   0  0  1  0  0  3  0  0  0  0  0  0
  160.9520  212.3190  147.3940 C   0  0  0  0  0  1  0  0  0  0  0  0
  163.3250  212.5530  147.8700 N   0  0  0  0  0  1  0  0  0  0  0  0
  162.1730  207.1750  151.6510 N   0  0  0  0  0  2  0  0  0  0  0  0
  161.9250  206.2450  150.5550 C   0  0  1  0  0  3  0  0  0  0  0  0
  160.6360  204.7990  152.1900 C   0  0  0  0  0  1  0  0  0  0  0  0
  160.7000  204.4030  148.8390 N   0  0  0  0  0  0  0  0  0  0  0  0
  160.6830  205.8240  148.4780 C   0  0  0  0  0  2  0  0  0  0  0  0
  161.6580  204.8190  151.0610 C   0  0  1  0  0  3  0  0  0  0  0  0
  161.1840  203.9160  149.9500 C   0  0  0  0  0  0  0  0  0  0  0  0
  160.7620  206.7230  149.7050 C   0  0  0  0  0  2  0  0  0  0  0  0
  161.2180  202.5320  150.1780 O   0  0  0  0  0  0  0  0  0  0  0  0
  159.4180  201.3530  149.3820 O   0  0  0  0  0  0  0  0  0  0  0  0
  161.4650  200.7480  148.4880 N   0  0  0  0  0  1  0  0  0  0  0  0
  160.6600  201.5470  149.3500 C   0  0  0  0  0  0  0  0  0  0  0  0
  160.4910  208.6010  152.6980 C   0  0  0  0  0  2  0  0  0  0  0  0
  161.1810  208.0060  153.9130 C   0  0  0  0  0  2  0  0  0  0  0  0
  160.4370  208.3410  155.1180 N   0  0  0  0  0  2  0  0  0  0  0  0
  161.2360  211.4460  156.9180 N   0  0  0  0  0  0  0  0  0  0  0  0
  161.3850  210.0700  156.5700 C   0  0  0  0  0  0  0  0  0  0  0  0
  160.4650  209.6520  155.6890 C   0  0  0  0  0  0  0  0  0  0  0  0
  159.3960  210.6890  155.5350 C   0  0  1  0  0  3  0  0  0  0  0  0
  160.1700  211.7220  156.2570 C   0  0  0  0  0  0  0  0  0  0  0  0
  162.5060  209.2910  156.9730 N   0  0  0  0  0  1  0  0  0  0  0  0
  159.4130  211.5630  154.3930 C   0  0  1  0  0  3  0  0  0  0  0  0
  157.9960  211.8170  153.9140 C   0  0  0  0  0  1  0  0  0  0  0  0
  159.8690  212.6870  155.1870 N   0  0  0  0  0  2  0  0  0  0  0  0
  1  9  1  0  0  0  0
  1 21  1  1  0  0  0
  3  1  1  0  0  0  0
  3  2  2  0  0  0  0
  4  3  1  0  0  0  0
  5  4  1  0  0  0  0
  6  7  1  1  0  0  0
  6  5  1  0  0  0  0
  8  6  1  0  0  0  0
 10 14  1  0  0  0  0
 10  9  1  1  0  0  0
 12 15  2  0  0  0  0
 13 12  1  0  0  0  0
 13 16  1  0  0  0  0
 14 11  1  1  0  0  0
 15 17  1  0  0  0  0
 15 14  1  0  0  0  0
 16 10  1  0  0  0  0
 19 20  1  0  0  0  0
 20 18  2  0  0  0  0
 20 17  1  0  0  0  0
 21 22  1  0  0  0  0
 22 23  1  0  0  0  0
 23 26  1  0  0  0  0
 25 24  1  0  0  0  0
 25 29  1  0  0  0  0
 26 25  2  0  0  0  0
 27 26  1  6  0  0  0
 27 28  1  0  0  0  0
 28 24  2  0  0  0  0
 30 31  1  1  0  0  0
 30 32  1  0  0  0  0
 30 27  1  0  0  0  0
 32 28  1  0  0  0  0
M  END
>  <MODEL>
8

>  <REMARK>
 VINA RESULT:      -6.7      2.266      8.348
  Name = 
  12 active torsions:
  status: ('A' for Active; 'I' for Inactive)
    1  A    between atoms: N_1  and  C_9
    2  A    between atoms: N_1  and  C_13
    3  A    between atoms: O_3  and  C_27
    4  A    between atoms: O_3  and  C_30
    5  A    between atoms: C_5  and  C_32
    6  A    between atoms: C_7  and  C_13
    7  A    between atoms: C_7  and  C_24
    8  A    between atoms: O_8  and  C_20
    9  A    between atoms: O_8  and  C_32
   10  A    between atoms: C_10  and  N_15
   11  A    between atoms: C_13  and  C_20
   12  A    between atoms: N_15  and  C_24
                            x       y       z     vdW  Elec       q    Type
                         _______ _______ _______ _____ _____    ______ ____

>  <TORSDO>
F 12

$$$$
=
 OpenBabel11042422583D

 32 34  0  0  1  0  0  0  0  0999 V2000
  161.4330  204.6350  151.6030 C   0  0  1  0  0  3  0  0  0  0  0  0
  161.4900  202.2500  151.7740 O   0  0  0  0  0  0  0  0  0  0  0  0
  161.1440  203.2600  151.0990 C   0  0  0  0  0  0  0  0  0  0  0  0
  160.4900  203.1100  149.8780 O   0  0  0  0  0  0  0  0  0  0  0  0
  161.2030  202.8940  148.6650 C   0  0  0  0  0  2  0  0  0  0  0  0
  160.7520  201.6040  147.9970 C   0  0  1  0  0  3  0  0  0  0  0  0
  160.8320  201.7250  146.4870 C   0  0  0  0  0  1  0  0  0  0  0  0
  161.5700  200.4910  148.4480 N   0  0  0  0  0  1  0  0  0  0  0  0
  160.5950  205.6050  150.9110 N   0  0  0  0  0  2  0  0  0  0  0  0
  161.4630  206.4120  150.0620 C   0  0  1  0  0  3  0  0  0  0  0  0
  159.7490  206.1530  148.2130 C   0  0  0  0  0  1  0  0  0  0  0  0
  162.3840  208.2620  148.1730 N   0  0  0  0  0  0  0  0  0  0  0  0
  162.3320  208.6590  149.5840 C   0  0  0  0  0  2  0  0  0  0  0  0
  161.2300  206.1320  148.5700 C   0  0  1  0  0  3  0  0  0  0  0  0
  161.9620  207.1210  147.6990 C   0  0  0  0  0  0  0  0  0  0  0  0
  161.2670  207.8890  150.3530 C   0  0  0  0  0  2  0  0  0  0  0  0
  162.1150  206.8030  146.3410 O   0  0  0  0  0  0  0  0  0  0  0  0
  161.5220  205.0680  144.9620 O   0  0  0  0  0  0  0  0  0  0  0  0
  163.4240  204.7100  146.2310 N   0  0  0  0  0  1  0  0  0  0  0  0
  162.3290  205.5210  145.8140 C   0  0  0  0  0  0  0  0  0  0  0  0
  161.2050  204.7260  153.1050 C   0  0  0  0  0  2  0  0  0  0  0  0
  161.5580  206.1160  153.6030 C   0  0  0  0  0  2  0  0  0  0  0  0
  160.4370  206.6770  154.3420 N   0  0  0  0  0  2  0  0  0  0  0  0
  160.7580  209.3890  156.8050 N   0  0  0  0  0  0  0  0  0  0  0  0
  160.5790  208.0410  156.3700 C   0  0  0  0  0  0  0  0  0  0  0  0
  160.5310  207.9240  155.0360 C   0  0  0  0  0  0  0  0  0  0  0  0
  160.4160  209.2790  154.4080 C   0  0  1  0  0  3  0  0  0  0  0  0
  160.7270  209.9870  155.6680 C   0  0  0  0  0  0  0  0  0  0  0  0
  160.6390  206.9310  157.2610 N   0  0  0  0  0  1  0  0  0  0  0  0
  161.5830  209.9000  153.8430 C   0  0  1  0  0  3  0  0  0  0  0  0
  161.2110  210.6490  152.5770 C   0  0  0  0  0  1  0  0  0  0  0  0
  161.6920  210.8330  154.9480 N   0  0  0  0  0  2  0  0  0  0  0  0
  1 21  1  1  0  0  0
  3  1  1  0  0  0  0
  3  2  2  0  0  0  0
  4  3  1  0  0  0  0
  5  4  1  0  0  0  0
  6  7  1  6  0  0  0
  6  8  1  0  0  0  0
  6  5  1  0  0  0  0
  9  1  1  0  0  0  0
 10 16  1  0  0  0  0
 10  9  1  1  0  0  0
 12 13  1  0  0  0  0
 13 16  1  0  0  0  0
 14 11  1  1  0  0  0
 14 10  1  0  0  0  0
 15 12  2  0  0  0  0
 15 14  1  0  0  0  0
 17 15  1  0  0  0  0
 18 20  2  0  0  0  0
 20 19  1  0  0  0  0
 20 17  1  0  0  0  0
 21 22  1  0  0  0  0
 22 23  1  0  0  0  0
 23 26  1  0  0  0  0
 25 24  1  0  0  0  0
 25 29  1  0  0  0  0
 26 25  2  0  0  0  0
 27 26  1  1  0  0  0
 27 28  1  0  0  0  0
 28 24  2  0  0  0  0
 30 31  1  6  0  0  0
 30 27  1  0  0  0  0
 30 32  1  0  0  0  0
 32 28  1  0  0  0  0
M  END
>  <MODEL>
9

>  <REMARK>
 VINA RESULT:      -6.7      3.295      8.670
  Name = 
  12 active torsions:
  status: ('A' for Active; 'I' for Inactive)
    1  A    between atoms: N_1  and  C_9
    2  A    between atoms: N_1  and  C_13
    3  A    between atoms: O_3  and  C_27
    4  A    between atoms: O_3  and  C_30
    5  A    between atoms: C_5  and  C_32
    6  A    between atoms: C_7  and  C_13
    7  A    between atoms: C_7  and  C_24
    8  A    between atoms: O_8  and  C_20
    9  A    between atoms: O_8  and  C_32
   10  A    between atoms: C_10  and  N_15
   11  A    between atoms: C_13  and  C_20
   12  A    between atoms: N_15  and  C_24
                            x       y       z     vdW  Elec       q    Type
                         _______ _______ _______ _____ _____    ______ ____

>  <TORSDO>
F 12

$$$$
