=
 OpenBabel11052412023D

 61 66  0  0  1  0  0  0  0  0999 V2000
  161.2930  204.5260  149.2380 C   0  0  1  0  0  3  0  0  0  0  0  0
  161.4060  203.1940  151.2540 O   0  0  0  0  0  1  0  0  0  0  0  0
  159.8820  205.1080  152.1070 F   0  0  0  0  0  0  0  0  0  0  0  0
  162.0280  210.5160  148.8050 C   0  0  0  0  0  0  0  0  0  0  0  0
  162.3290  208.1890  153.2290 C   0  0  0  0  0  2  0  0  0  0  0  0
  161.3860  207.1580  153.2440 O   0  0  0  0  0  0  0  0  0  0  0  0
  161.0400  205.5700  151.4900 C   0  0  2  0  0  0  0  0  0  0  0  0
  161.8530  210.3100  152.1940 C   0  0  0  0  0  0  0  0  0  0  0  0
  159.7770  206.2190  149.6360 C   0  0  1  0  0  3  0  0  0  0  0  0
  162.0650  209.2280  148.5850 C   0  0  0  0  0  0  0  0  0  0  0  0
  161.9900  206.0960  152.5660 C   0  0  2  0  0  3  0  0  0  0  0  0
  162.1080  207.9430  148.3620 C   0  0  0  0  0  3  0  0  0  0  0  0
  159.9350  204.8850  149.1680 O   0  0  0  0  0  0  0  0  0  0  0  0
  161.2190  211.0100  149.9620 C   0  0  0  0  0  2  0  0  0  0  0  0
  160.7230  206.6350  150.6170 O   0  0  0  0  0  0  0  0  0  0  0  0
  160.9950  207.2480  147.6470 C   0  0  0  0  0  2  0  0  0  0  0  0
  162.0640  211.1090  151.1870 C   0  0  0  0  0  3  0  0  0  0  0  0
  161.7310  204.4410  150.7020 C   0  0  2  0  0  3  0  0  0  0  0  0
  161.6380  209.5170  153.2060 C   0  0  0  0  0  0  0  0  0  0  0  0
  162.3050  205.0860  153.4790 O   0  0  0  0  0  1  0  0  0  0  0  0
  159.7120  207.2170  148.4780 C   0  0  0  0  0  2  0  0  0  0  0  0
  161.5150  203.2650  148.5440 N   0  0  0  0  0  2  0  0  0  0  0  0
  160.2140  203.8290  146.6880 O   0  0  0  0  0  0  0  0  0  0  0  0
  160.8890  202.9510  147.2960 C   0  0  0  0  0  0  0  0  0  0  0  0
  161.4590  197.8060  145.0680 F   0  0  0  0  0  0  0  0  0  0  0  0
  160.5070  201.3200  145.4460 C   0  0  0  0  0  3  0  0  0  0  0  0
  160.6430  200.0410  144.8950 C   0  0  0  0  0  3  0  0  0  0  0  0
  161.7190  200.5990  147.4130 C   0  0  0  0  0  3  0  0  0  0  0  0
  161.0410  201.6080  146.7090 C   0  0  0  0  0  0  0  0  0  0  0  0
  161.8580  199.3220  146.8610 C   0  0  0  0  0  3  0  0  0  0  0  0
  161.3190  199.0420  145.6040 C   0  0  0  0  0  0  0  0  0  0  0  0
  164.0070  211.7340  148.3790 O   0  0  0  0  0  0  0  0  0  0  0  0
  162.8310  211.4750  148.0020 C   0  0  0  0  0  0  0  0  0  0  0  0
  161.5440  214.4520  143.0630 C   0  0  0  0  0  3  0  0  0  0  0  0
  163.1430  212.8720  145.9690 N   0  0  0  0  0  0  0  0  0  0  0  0
  162.3020  213.3150  145.0250 C   0  0  0  0  0  0  0  0  0  0  0  0
  161.0390  212.8790  145.2790 C   0  0  0  0  0  0  0  0  0  0  0  0
  162.3250  212.1540  146.7860 C   0  0  0  0  0  0  0  0  0  0  0  0
  162.6040  214.1110  143.9230 C   0  0  0  0  0  3  0  0  0  0  0  0
  160.2320  213.9950  143.3250 C   0  0  0  0  0  3  0  0  0  0  0  0
  159.9660  213.1940  144.4510 C   0  0  0  0  0  3  0  0  0  0  0  0
  161.0220  212.1380  146.3950 N   0  0  0  0  0  2  0  0  0  0  0  0
  160.8180  210.0360  154.3540 C   0  0  0  0  0  2  0  0  0  0  0  0
  161.5180  211.1320  155.1480 C   0  0  2  0  0  3  0  0  0  0  0  0
  162.2770  210.7250  157.1210 C   0  0  0  0  0  2  0  0  0  0  0  0
  162.8280  210.6110  155.7130 C   0  0  0  0  0  2  0  0  0  0  0  0
  160.9580  211.2200  156.5590 C   0  0  1  0  0  3  0  0  0  0  0  0
  160.6790  212.6600  157.0120 C   0  0  0  0  0  2  0  0  0  0  0  0
  158.5200  211.9430  156.6590 O   0  0  0  0  0  1  0  0  0  0  0  0
  159.2880  213.0560  156.7840 N   0  0  0  0  0  0  0  0  0  0  0  0
  159.1990  213.8460  155.6620 O   0  0  0  0  0  0  0  0  0  0  0  0
  158.6690  213.0990  154.5830 C   0  0  0  0  0  2  0  0  0  0  0  0
  156.7650  214.4390  155.3310 C   0  0  0  0  0  1  0  0  0  0  0  0
  157.1890  213.4080  154.2990 C   0  0  2  0  0  0  0  0  0  0  0  0
  156.2780  212.1770  154.4440 C   0  0  0  0  0  2  0  0  0  0  0  0
  155.4250  212.3110  155.5430 O   0  0  0  0  0  1  0  0  0  0  0  0
  157.0620  214.0330  152.9730 N   0  0  0  0  0  2  0  0  0  0  0  0
  158.5040  211.7590  152.1130 O   0  0  0  0  0  1  0  0  0  0  0  0
  158.1820  213.3830  151.7660 P   0  0  0  0  0  0  0  0  0  0  0  0
  159.4830  214.1570  151.7540 O   0  0  0  0  0  1  0  0  0  0  0  0
  157.4640  213.4870  150.2380 O   0  0  0  0  0  0  0  0  0  0  0  0
  1 22  1  1  0  0  0
  1 18  1  0  0  0  0
  4 14  1  0  0  0  0
  5  6  1  0  0  0  0
  7  3  1  1  0  0  0
  7 11  1  0  0  0  0
  8 19  2  0  0  0  0
  9 21  1  6  0  0  0
  9 15  1  0  0  0  0
 10  4  2  0  0  0  0
 11  6  1  0  0  0  0
 11 20  1  1  0  0  0
 12 10  2  0  0  0  0
 13  1  1  0  0  0  0
 13  9  1  0  0  0  0
 14 17  1  0  0  0  0
 15  7  1  0  0  0  0
 16 12  1  0  0  0  0
 16 21  1  0  0  0  0
 17  8  2  0  0  0  0
 18  2  1  1  0  0  0
 18  7  1  0  0  0  0
 19  5  1  0  0  0  0
 19 43  1  0  0  0  0
 23 24  2  0  0  0  0
 24 22  1  0  0  0  0
 25 31  1  0  0  0  0
 26 29  1  0  0  0  0
 27 26  2  0  0  0  0
 27 31  1  0  0  0  0
 29 24  1  0  0  0  0
 29 28  2  0  0  0  0
 30 28  1  0  0  0  0
 31 30  2  0  0  0  0
 33 32  2  0  0  0  0
 33  4  1  0  0  0  0
 34 40  2  0  0  0  0
 34 39  1  0  0  0  0
 35 38  2  0  0  0  0
 36 37  1  0  0  0  0
 36 35  1  0  0  0  0
 37 42  1  0  0  0  0
 38 33  1  0  0  0  0
 39 36  2  0  0  0  0
 40 41  1  0  0  0  0
 41 37  2  0  0  0  0
 42 38  1  0  0  0  0
 44 43  1  6  0  0  0
 44 46  1  0  0  0  0
 44 47  1  0  0  0  0
 46 45  1  0  0  0  0
 47 48  1  1  0  0  0
 47 45  1  0  0  0  0
 49 50  1  0  0  0  0
 50 48  1  0  0  0  0
 51 50  1  0  0  0  0
 52 51  1  0  0  0  0
 54 55  1  0  0  0  0
 54 52  1  0  0  0  0
 54 53  1  1  0  0  0
 55 56  1  0  0  0  0
 57 54  1  0  0  0  0
 59 58  1  0  0  0  0
 59 57  1  0  0  0  0
 60 59  1  0  0  0  0
 61 59  2  0  0  0  0
M  END
>  <MODEL>
1

>  <REMARK>
 VINA RESULT:      -0.8      0.000      0.000
  Name = 
  14 active torsions:
  status: ('A' for Active; 'I' for Inactive)
    1  A    between atoms: N_1  and  C_2
    2  A    between atoms: C_4  and  C_53
    3  A    between atoms: C_4  and  N_57
    4  A    between atoms: C_9  and  C_49
    5  A    between atoms: C_12  and  C_17
    6  A    between atoms: C_12  and  O_40
    7  A    between atoms: C_14  and  C_55
    8  A    between atoms: C_15  and  C_42
    9  A    between atoms: C_16  and  C_17
   10  A    between atoms: C_17  and  N_30
   11  A    between atoms: N_30  and  P_32
   12  A    between atoms: C_36  and  C_55
   13  A    between atoms: O_40  and  N_57
   14  A    between atoms: C_49  and  C_52
                            x       y       z     vdW  Elec       q    Type
                         _______ _______ _______ _____ _____    ______ ____

>  <TORSDO>
F 14

$$$$
=
 OpenBabel11052412023D

 61 66  0  0  1  0  0  0  0  0999 V2000
  161.3090  204.5670  149.2560 C   0  0  1  0  0  3  0  0  0  0  0  0
  161.3100  203.2240  151.2670 O   0  0  0  0  0  1  0  0  0  0  0  0
  159.7740  205.1530  152.0590 F   0  0  0  0  0  0  0  0  0  0  0  0
  162.1420  210.5490  148.8900 C   0  0  0  0  0  0  0  0  0  0  0  0
  162.2070  208.1970  153.3110 C   0  0  0  0  0  2  0  0  0  0  0  0
  161.2500  207.1780  153.2760 O   0  0  0  0  0  0  0  0  0  0  0  0
  160.9650  205.6030  151.5000 C   0  0  2  0  0  0  0  0  0  0  0  0
  161.8070  210.3280  152.2660 C   0  0  0  0  0  0  0  0  0  0  0  0
  159.7980  206.2780  149.5930 C   0  0  1  0  0  3  0  0  0  0  0  0
  162.1730  209.2610  148.6640 C   0  0  0  0  0  0  0  0  0  0  0  0
  161.8710  206.1120  152.6210 C   0  0  2  0  0  3  0  0  0  0  0  0
  162.2090  207.9770  148.4370 C   0  0  0  0  0  3  0  0  0  0  0  0
  159.9610  204.9440  149.1250 O   0  0  0  0  0  0  0  0  0  0  0  0
  161.2870  211.0480  150.0110 C   0  0  0  0  0  2  0  0  0  0  0  0
  160.7030  206.6760  150.6180 O   0  0  0  0  0  0  0  0  0  0  0  0
  161.1210  207.3000  147.6670 C   0  0  0  0  0  2  0  0  0  0  0  0
  162.0750  211.1300  151.2740 C   0  0  0  0  0  3  0  0  0  0  0  0
  161.6770  204.4690  150.7380 C   0  0  2  0  0  3  0  0  0  0  0  0
  161.5350  209.5330  153.2620 C   0  0  0  0  0  0  0  0  0  0  0  0
  162.1300  205.0930  153.5420 O   0  0  0  0  0  1  0  0  0  0  0  0
  159.8000  207.2820  148.4380 C   0  0  0  0  0  2  0  0  0  0  0  0
  161.5470  203.3070  148.5660 N   0  0  0  0  0  2  0  0  0  0  0  0
  160.1230  203.7880  146.7790 O   0  0  0  0  0  0  0  0  0  0  0  0
  160.8670  202.9480  147.3580 C   0  0  0  0  0  0  0  0  0  0  0  0
  161.5320  197.8000  145.1650 F   0  0  0  0  0  0  0  0  0  0  0  0
  160.5390  201.3060  145.5080 C   0  0  0  0  0  3  0  0  0  0  0  0
  160.6990  200.0260  144.9660 C   0  0  0  0  0  3  0  0  0  0  0  0
  161.7170  200.6050  147.5030 C   0  0  0  0  0  3  0  0  0  0  0  0
  161.0440  201.6040  146.7810 C   0  0  0  0  0  0  0  0  0  0  0  0
  161.8800  199.3270  146.9590 C   0  0  0  0  0  3  0  0  0  0  0  0
  161.3690  199.0370  145.6920 C   0  0  0  0  0  0  0  0  0  0  0  0
  164.1760  211.6930  148.5260 O   0  0  0  0  0  0  0  0  0  0  0  0
  162.9940  211.5010  148.1300 C   0  0  0  0  0  0  0  0  0  0  0  0
  160.4390  214.4510  143.6940 C   0  0  0  0  0  3  0  0  0  0  0  0
  161.2430  212.6640  146.8020 N   0  0  0  0  0  0  0  0  0  0  0  0
  161.2520  213.2660  145.6060 C   0  0  0  0  0  0  0  0  0  0  0  0
  162.4930  213.2000  145.0550 C   0  0  0  0  0  0  0  0  0  0  0  0
  162.5310  212.2460  146.9360 C   0  0  0  0  0  0  0  0  0  0  0  0
  160.1860  213.8840  144.9570 C   0  0  0  0  0  3  0  0  0  0  0  0
  161.7300  214.3850  143.1240 C   0  0  0  0  0  3  0  0  0  0  0  0
  162.7830  213.7500  143.8090 C   0  0  0  0  0  3  0  0  0  0  0  0
  163.3300  212.5540  145.8790 N   0  0  0  0  0  2  0  0  0  0  0  0
  160.6690  210.0580  154.3740 C   0  0  0  0  0  2  0  0  0  0  0  0
  161.2800  211.2490  155.1030 C   0  0  2  0  0  3  0  0  0  0  0  0
  161.9400  211.0490  157.1420 C   0  0  0  0  0  2  0  0  0  0  0  0
  162.5750  210.8370  155.7810 C   0  0  0  0  0  2  0  0  0  0  0  0
  160.6360  211.4350  156.4680 C   0  0  1  0  0  3  0  0  0  0  0  0
  160.2770  212.8960  156.7750 C   0  0  0  0  0  2  0  0  0  0  0  0
  158.1940  211.9240  156.9090 O   0  0  0  0  0  1  0  0  0  0  0  0
  158.8300  213.1200  156.7990 N   0  0  0  0  0  0  0  0  0  0  0  0
  158.4350  213.7870  155.6630 O   0  0  0  0  0  0  0  0  0  0  0  0
  157.9680  212.8650  154.6950 C   0  0  0  0  0  2  0  0  0  0  0  0
  157.9630  212.2260  152.3350 C   0  0  0  0  0  1  0  0  0  0  0  0
  157.9840  213.4270  153.2640 C   0  0  2  0  0  0  0  0  0  0  0  0
  159.2450  214.2540  152.9560 C   0  0  0  0  0  2  0  0  0  0  0  0
  159.4710  214.3280  151.5790 O   0  0  0  0  0  1  0  0  0  0  0  0
  156.7520  214.1940  153.0220 N   0  0  0  0  0  2  0  0  0  0  0  0
  155.4630  212.0010  154.2580 O   0  0  0  0  0  1  0  0  0  0  0  0
  155.3810  213.6740  154.0140 P   0  0  0  0  0  0  0  0  0  0  0  0
  154.0650  214.0160  153.3500 O   0  0  0  0  0  0  0  0  0  0  0  0
  155.4610  214.4520  155.5130 O   0  0  0  0  0  1  0  0  0  0  0  0
  1 22  1  1  0  0  0
  1 18  1  0  0  0  0
  4 14  1  0  0  0  0
  6  5  1  0  0  0  0
  7  3  1  1  0  0  0
  7 11  1  0  0  0  0
  8 19  2  0  0  0  0
  9 21  1  6  0  0  0
  9 15  1  0  0  0  0
 10  4  2  0  0  0  0
 11  6  1  0  0  0  0
 11 20  1  1  0  0  0
 12 10  2  0  0  0  0
 13  1  1  0  0  0  0
 13  9  1  0  0  0  0
 14 17  1  0  0  0  0
 15  7  1  0  0  0  0
 16 12  1  0  0  0  0
 16 21  1  0  0  0  0
 17  8  2  0  0  0  0
 18  2  1  1  0  0  0
 18  7  1  0  0  0  0
 19  5  1  0  0  0  0
 19 43  1  0  0  0  0
 23 24  2  0  0  0  0
 24 22  1  0  0  0  0
 25 31  1  0  0  0  0
 26 29  1  0  0  0  0
 27 26  2  0  0  0  0
 27 31  1  0  0  0  0
 29 24  1  0  0  0  0
 29 28  2  0  0  0  0
 30 28  1  0  0  0  0
 31 30  2  0  0  0  0
 33 32  2  0  0  0  0
 33  4  1  0  0  0  0
 34 39  1  0  0  0  0
 35 38  2  0  0  0  0
 36 35  1  0  0  0  0
 37 36  1  0  0  0  0
 37 42  1  0  0  0  0
 38 33  1  0  0  0  0
 39 36  2  0  0  0  0
 40 34  2  0  0  0  0
 40 41  1  0  0  0  0
 41 37  2  0  0  0  0
 42 38  1  0  0  0  0
 44 43  1  6  0  0  0
 44 46  1  0  0  0  0
 44 47  1  0  0  0  0
 46 45  1  0  0  0  0
 47 48  1  1  0  0  0
 47 45  1  0  0  0  0
 48 50  1  0  0  0  0
 50 49  1  0  0  0  0
 51 50  1  0  0  0  0
 52 51  1  0  0  0  0
 54 53  1  6  0  0  0
 54 52  1  0  0  0  0
 55 54  1  0  0  0  0
 56 55  1  0  0  0  0
 57 54  1  0  0  0  0
 57 59  1  0  0  0  0
 59 58  1  0  0  0  0
 59 61  1  0  0  0  0
 60 59  2  0  0  0  0
M  END
>  <MODEL>
2

>  <REMARK>
 VINA RESULT:      -0.6      0.871      1.795
  Name = 
  14 active torsions:
  status: ('A' for Active; 'I' for Inactive)
    1  A    between atoms: N_1  and  C_2
    2  A    between atoms: C_4  and  C_53
    3  A    between atoms: C_4  and  N_57
    4  A    between atoms: C_9  and  C_49
    5  A    between atoms: C_12  and  C_17
    6  A    between atoms: C_12  and  O_40
    7  A    between atoms: C_14  and  C_55
    8  A    between atoms: C_15  and  C_42
    9  A    between atoms: C_16  and  C_17
   10  A    between atoms: C_17  and  N_30
   11  A    between atoms: N_30  and  P_32
   12  A    between atoms: C_36  and  C_55
   13  A    between atoms: O_40  and  N_57
   14  A    between atoms: C_49  and  C_52
                            x       y       z     vdW  Elec       q    Type
                         _______ _______ _______ _____ _____    ______ ____

>  <TORSDO>
F 14

$$$$
=
 OpenBabel11052412023D

 61 66  0  0  1  0  0  0  0  0999 V2000
  161.3290  206.0430  149.1160 C   0  0  1  0  0  3  0  0  0  0  0  0
  161.5090  206.5340  146.7540 O   0  0  0  0  0  1  0  0  0  0  0  0
  163.0590  208.3910  147.6820 F   0  0  0  0  0  0  0  0  0  0  0  0
  160.3410  210.0100  153.5770 C   0  0  0  0  0  0  0  0  0  0  0  0
  160.6630  211.5100  148.8100 C   0  0  0  0  0  2  0  0  0  0  0  0
  161.6350  210.7340  148.1740 O   0  0  0  0  0  0  0  0  0  0  0  0
  161.8190  208.3540  148.3110 C   0  0  2  0  0  0  0  0  0  0  0  0
  160.9360  212.2460  151.0860 C   0  0  0  0  0  0  0  0  0  0  0  0
  162.8230  207.4240  150.2040 C   0  0  1  0  0  3  0  0  0  0  0  0
  160.3210  208.9480  152.8150 C   0  0  0  0  0  0  0  0  0  0  0  0
  160.9900  209.5440  147.8280 C   0  0  2  0  0  3  0  0  0  0  0  0
  160.2960  207.8870  152.0560 C   0  0  0  0  0  3  0  0  0  0  0  0
  162.6540  206.1620  149.5690 O   0  0  0  0  0  0  0  0  0  0  0  0
  161.2670  211.1250  153.2090 C   0  0  0  0  0  2  0  0  0  0  0  0
  161.9910  208.4690  149.7100 O   0  0  0  0  0  0  0  0  0  0  0  0
  161.3370  206.8220  152.1860 C   0  0  0  0  0  2  0  0  0  0  0  0
  160.5750  212.1120  152.3310 C   0  0  0  0  0  3  0  0  0  0  0  0
  161.0770  207.0440  147.9860 C   0  0  2  0  0  3  0  0  0  0  0  0
  161.3000  212.3870  149.8420 C   0  0  0  0  0  0  0  0  0  0  0  0
  160.8250  209.4960  146.4420 O   0  0  0  0  0  1  0  0  0  0  0  0
  162.7120  207.3070  151.7260 C   0  0  0  0  0  2  0  0  0  0  0  0
  161.0670  204.6780  148.6830 N   0  0  0  0  0  2  0  0  0  0  0  0
  162.7930  204.6340  147.1110 O   0  0  0  0  0  0  0  0  0  0  0  0
  161.7960  204.0510  147.6230 C   0  0  0  0  0  0  0  0  0  0  0  0
  160.2800  198.9560  145.7520 F   0  0  0  0  0  0  0  0  0  0  0  0
  161.4700  201.6030  147.9820 C   0  0  0  0  0  3  0  0  0  0  0  0
  161.0990  200.3370  147.5150 C   0  0  0  0  0  3  0  0  0  0  0  0
  160.9390  202.5520  145.8190 C   0  0  0  0  0  3  0  0  0  0  0  0
  161.3950  202.7190  147.1370 C   0  0  0  0  0  0  0  0  0  0  0  0
  160.5650  201.2880  145.3550 C   0  0  0  0  0  3  0  0  0  0  0  0
  160.6470  200.1800  146.2020 C   0  0  0  0  0  0  0  0  0  0  0  0
  159.5400  209.3910  155.7110 O   0  0  0  0  0  0  0  0  0  0  0  0
  159.4130  210.1700  154.7270 C   0  0  0  0  0  0  0  0  0  0  0  0
  155.1120  214.0990  155.7150 C   0  0  0  0  0  3  0  0  0  0  0  0
  157.7720  211.5760  155.9570 N   0  0  0  0  0  0  0  0  0  0  0  0
  156.8630  212.4780  155.5630 C   0  0  0  0  0  0  0  0  0  0  0  0
  156.8910  212.6130  154.2100 C   0  0  0  0  0  0  0  0  0  0  0  0
  158.3390  211.1900  154.7820 C   0  0  0  0  0  0  0  0  0  0  0  0
  155.9840  213.2030  156.3620 C   0  0  0  0  0  3  0  0  0  0  0  0
  155.1440  214.2420  154.3100 C   0  0  0  0  0  3  0  0  0  0  0  0
  156.0460  213.4890  153.5350 C   0  0  0  0  0  3  0  0  0  0  0  0
  157.8210  211.8040  153.6850 N   0  0  0  0  0  2  0  0  0  0  0  0
  162.2360  213.5120  149.4990 C   0  0  0  0  0  2  0  0  0  0  0  0
  161.7170  214.4090  148.3810 C   0  0  2  0  0  3  0  0  0  0  0  0
  160.1470  213.7190  147.0810 C   0  0  0  0  0  2  0  0  0  0  0  0
  160.1990  214.4500  148.4080 C   0  0  0  0  0  2  0  0  0  0  0  0
  161.6620  213.6520  147.0640 C   0  0  1  0  0  3  0  0  0  0  0  0
  162.2290  214.4510  145.8810 C   0  0  0  0  0  2  0  0  0  0  0  0
  163.4700  214.3140  143.9470 O   0  0  0  0  0  1  0  0  0  0  0  0
  162.7050  213.5850  144.8010 N   0  0  0  0  0  0  0  0  0  0  0  0
  161.6390  213.0160  144.1460 O   0  0  0  0  0  0  0  0  0  0  0  0
  162.0340  212.5860  142.8560 C   0  0  0  0  0  2  0  0  0  0  0  0
  159.8210  213.5550  142.4700 C   0  0  0  0  0  1  0  0  0  0  0  0
  161.0180  212.9450  141.7590 C   0  0  2  0  0  0  0  0  0  0  0  0
  160.5330  211.7200  140.9630 C   0  0  0  0  0  2  0  0  0  0  0  0
  161.0100  210.5350  141.5290 O   0  0  0  0  0  1  0  0  0  0  0  0
  161.5850  213.9810  140.8820 N   0  0  0  0  0  2  0  0  0  0  0  0
  163.9060  214.3310  139.3060 O   0  0  0  0  0  1  0  0  0  0  0  0
  162.5590  213.3360  139.5510 P   0  0  0  0  0  0  0  0  0  0  0  0
  161.7550  213.2620  138.2710 O   0  0  0  0  0  0  0  0  0  0  0  0
  163.0900  211.7840  139.9610 O   0  0  0  0  0  1  0  0  0  0  0  0
  1 22  1  6  0  0  0
  1 13  1  0  0  0  0
  4 33  1  0  0  0  0
  5 19  1  0  0  0  0
  6  5  1  0  0  0  0
  7  3  1  6  0  0  0
  7 15  1  0  0  0  0
  8 17  2  0  0  0  0
  9 21  1  1  0  0  0
 10  4  2  0  0  0  0
 11 20  1  6  0  0  0
 11  6  1  0  0  0  0
 11  7  1  0  0  0  0
 12 16  1  0  0  0  0
 12 10  2  0  0  0  0
 13  9  1  0  0  0  0
 14  4  1  0  0  0  0
 15  9  1  0  0  0  0
 17 14  1  0  0  0  0
 18  2  1  6  0  0  0
 18  7  1  0  0  0  0
 18  1  1  0  0  0  0
 19  8  2  0  0  0  0
 21 16  1  0  0  0  0
 23 24  2  0  0  0  0
 24 22  1  0  0  0  0
 25 31  1  0  0  0  0
 27 26  1  0  0  0  0
 28 29  1  0  0  0  0
 29 24  1  0  0  0  0
 29 26  2  0  0  0  0
 30 28  2  0  0  0  0
 30 31  1  0  0  0  0
 31 27  2  0  0  0  0
 33 38  1  0  0  0  0
 33 32  2  0  0  0  0
 34 39  1  0  0  0  0
 36 35  1  0  0  0  0
 36 39  2  0  0  0  0
 37 36  1  0  0  0  0
 38 35  2  0  0  0  0
 40 34  2  0  0  0  0
 41 37  2  0  0  0  0
 41 40  1  0  0  0  0
 42 37  1  0  0  0  0
 42 38  1  0  0  0  0
 43 19  1  0  0  0  0
 44 46  1  0  0  0  0
 44 43  1  1  0  0  0
 45 46  1  0  0  0  0
 47 48  1  6  0  0  0
 47 45  1  0  0  0  0
 47 44  1  0  0  0  0
 49 50  1  0  0  0  0
 50 48  1  0  0  0  0
 51 50  1  0  0  0  0
 52 51  1  0  0  0  0
 54 53  1  1  0  0  0
 54 52  1  0  0  0  0
 55 56  1  0  0  0  0
 55 54  1  0  0  0  0
 57 54  1  0  0  0  0
 58 59  1  0  0  0  0
 59 61  1  0  0  0  0
 59 57  1  0  0  0  0
 60 59  2  0  0  0  0
M  END
>  <MODEL>
3

>  <REMARK>
 VINA RESULT:       1.2      3.658      8.672
  Name = 
  14 active torsions:
  status: ('A' for Active; 'I' for Inactive)
    1  A    between atoms: N_1  and  C_2
    2  A    between atoms: C_4  and  C_53
    3  A    between atoms: C_4  and  N_57
    4  A    between atoms: C_9  and  C_49
    5  A    between atoms: C_12  and  C_17
    6  A    between atoms: C_12  and  O_40
    7  A    between atoms: C_14  and  C_55
    8  A    between atoms: C_15  and  C_42
    9  A    between atoms: C_16  and  C_17
   10  A    between atoms: C_17  and  N_30
   11  A    between atoms: N_30  and  P_32
   12  A    between atoms: C_36  and  C_55
   13  A    between atoms: O_40  and  N_57
   14  A    between atoms: C_49  and  C_52
                            x       y       z     vdW  Elec       q    Type
                         _______ _______ _______ _____ _____    ______ ____

>  <TORSDO>
F 14

$$$$
=
 OpenBabel11052412023D

 61 66  0  0  1  0  0  0  0  0999 V2000
  161.2270  204.5320  149.5470 C   0  0  1  0  0  3  0  0  0  0  0  0
  161.4440  203.2030  151.5560 O   0  0  0  0  0  1  0  0  0  0  0  0
  159.9220  205.0880  152.4700 F   0  0  0  0  0  0  0  0  0  0  0  0
  161.8350  210.5340  149.0880 C   0  0  0  0  0  0  0  0  0  0  0  0
  162.3560  208.2150  153.4950 C   0  0  0  0  0  2  0  0  0  0  0  0
  161.4330  207.1660  153.5470 O   0  0  0  0  0  0  0  0  0  0  0  0
  161.0450  205.5710  151.8080 C   0  0  2  0  0  0  0  0  0  0  0  0
  161.8000  210.3260  152.4810 C   0  0  0  0  0  0  0  0  0  0  0  0
  159.6970  206.1970  150.0070 C   0  0  1  0  0  3  0  0  0  0  0  0
  161.8870  209.2470  148.8650 C   0  0  0  0  0  0  0  0  0  0  0  0
  162.0280  206.1150  152.8450 C   0  0  2  0  0  3  0  0  0  0  0  0
  161.9440  207.9630  148.6410 C   0  0  0  0  0  3  0  0  0  0  0  0
  159.8610  204.8660  149.5320 O   0  0  0  0  0  0  0  0  0  0  0  0
  161.0650  211.0140  150.2760 C   0  0  0  0  0  2  0  0  0  0  0  0
  160.6740  206.6300  150.9490 O   0  0  0  0  0  0  0  0  0  0  0  0
  160.8150  207.2470  147.9700 C   0  0  0  0  0  2  0  0  0  0  0  0
  161.9560  211.1280  151.4660 C   0  0  0  0  0  3  0  0  0  0  0  0
  161.7240  204.4550  150.9920 C   0  0  2  0  0  3  0  0  0  0  0  0
  161.6400  209.5290  153.5000 C   0  0  0  0  0  0  0  0  0  0  0  0
  162.3980  205.1110  153.7440 O   0  0  0  0  0  1  0  0  0  0  0  0
  159.5680  207.1930  148.8530 C   0  0  0  0  0  2  0  0  0  0  0  0
  161.4440  203.2750  148.8440 N   0  0  0  0  0  2  0  0  0  0  0  0
  160.3970  203.9670  146.8740 O   0  0  0  0  0  0  0  0  0  0  0  0
  160.9410  203.0320  147.5250 C   0  0  0  0  0  0  0  0  0  0  0  0
  161.4550  197.9260  145.1960 F   0  0  0  0  0  0  0  0  0  0  0  0
  161.7330  200.6660  147.6070 C   0  0  0  0  0  3  0  0  0  0  0  0
  161.8650  199.4000  147.0260 C   0  0  0  0  0  3  0  0  0  0  0  0
  160.5420  201.4380  145.6450 C   0  0  0  0  0  3  0  0  0  0  0  0
  161.0720  201.6950  146.9200 C   0  0  0  0  0  0  0  0  0  0  0  0
  160.6720  200.1720  145.0670 C   0  0  0  0  0  3  0  0  0  0  0  0
  161.3350  199.1540  145.7560 C   0  0  0  0  0  0  0  0  0  0  0  0
  163.7530  211.8280  148.6130 O   0  0  0  0  0  0  0  0  0  0  0  0
  162.5870  211.5070  148.2530 C   0  0  0  0  0  0  0  0  0  0  0  0
  161.0470  214.4530  143.3690 C   0  0  0  0  0  3  0  0  0  0  0  0
  162.7120  213.1080  146.3550 N   0  0  0  0  0  0  0  0  0  0  0  0
  161.8830  213.3920  145.3420 C   0  0  0  0  0  0  0  0  0  0  0  0
  160.7680  212.6170  145.4150 C   0  0  0  0  0  0  0  0  0  0  0  0
  162.0430  212.1310  147.0250 C   0  0  0  0  0  0  0  0  0  0  0  0
  162.0670  214.3320  144.3310 C   0  0  0  0  0  3  0  0  0  0  0  0
  159.8910  213.6450  143.4430 C   0  0  0  0  0  3  0  0  0  0  0  0
  159.7400  212.7070  144.4820 C   0  0  0  0  0  3  0  0  0  0  0  0
  160.8410  211.8040  146.4780 N   0  0  0  0  0  2  0  0  0  0  0  0
  160.8580  210.0330  154.6800 C   0  0  0  0  0  2  0  0  0  0  0  0
  160.8320  211.5540  154.7820 C   0  0  2  0  0  3  0  0  0  0  0  0
  159.5370  212.5240  156.2000 C   0  0  0  0  0  2  0  0  0  0  0  0
  160.9530  211.9820  156.2340 C   0  0  0  0  0  2  0  0  0  0  0  0
  159.4040  212.0730  154.7580 C   0  0  1  0  0  3  0  0  0  0  0  0
  159.2120  213.2790  153.8260 C   0  0  0  0  0  2  0  0  0  0  0  0
  157.7240  214.4310  152.5000 O   0  0  0  0  0  1  0  0  0  0  0  0
  157.8050  213.5090  153.4950 N   0  0  0  0  0  0  0  0  0  0  0  0
  157.1180  213.9260  154.6120 O   0  0  0  0  0  0  0  0  0  0  0  0
  155.8730  213.2570  154.6940 C   0  0  0  0  0  2  0  0  0  0  0  0
  153.8920  214.4520  155.4870 C   0  0  0  0  0  1  0  0  0  0  0  0
  155.0720  213.6180  155.9570 C   0  0  2  0  0  0  0  0  0  0  0  0
  155.8820  214.4530  156.9640 C   0  0  0  0  0  2  0  0  0  0  0  0
  157.1440  213.8930  157.1790 O   0  0  0  0  0  1  0  0  0  0  0  0
  154.5330  212.3930  156.5660 N   0  0  0  0  0  2  0  0  0  0  0  0
  156.8070  210.7320  156.8200 O   0  0  0  0  0  1  0  0  0  0  0  0
  155.3290  210.9100  156.0150 P   0  0  0  0  0  0  0  0  0  0  0  0
  155.5770  210.9440  154.5230 O   0  0  0  0  0  0  0  0  0  0  0  0
  154.3410  209.5880  156.3810 O   0  0  0  0  0  1  0  0  0  0  0  0
  1 22  1  1  0  0  0
  1 18  1  0  0  0  0
  4 14  1  0  0  0  0
  5 19  1  0  0  0  0
  5  6  1  0  0  0  0
  7  3  1  1  0  0  0
  7 11  1  0  0  0  0
  8 19  2  0  0  0  0
  9 21  1  6  0  0  0
  9 15  1  0  0  0  0
 10  4  2  0  0  0  0
 11  6  1  0  0  0  0
 11 20  1  1  0  0  0
 12 10  2  0  0  0  0
 13  1  1  0  0  0  0
 13  9  1  0  0  0  0
 14 17  1  0  0  0  0
 15  7  1  0  0  0  0
 16 12  1  0  0  0  0
 16 21  1  0  0  0  0
 17  8  2  0  0  0  0
 18  2  1  1  0  0  0
 18  7  1  0  0  0  0
 19 43  1  0  0  0  0
 23 24  2  0  0  0  0
 24 22  1  0  0  0  0
 25 31  1  0  0  0  0
 27 26  1  0  0  0  0
 28 29  1  0  0  0  0
 29 24  1  0  0  0  0
 29 26  2  0  0  0  0
 30 28  2  0  0  0  0
 30 31  1  0  0  0  0
 31 27  2  0  0  0  0
 33 32  2  0  0  0  0
 33  4  1  0  0  0  0
 34 40  2  0  0  0  0
 34 39  1  0  0  0  0
 35 38  2  0  0  0  0
 36 37  1  0  0  0  0
 36 35  1  0  0  0  0
 37 42  1  0  0  0  0
 38 33  1  0  0  0  0
 39 36  2  0  0  0  0
 40 41  1  0  0  0  0
 41 37  2  0  0  0  0
 42 38  1  0  0  0  0
 44 43  1  1  0  0  0
 44 46  1  0  0  0  0
 45 46  1  0  0  0  0
 47 48  1  6  0  0  0
 47 44  1  0  0  0  0
 47 45  1  0  0  0  0
 49 50  1  0  0  0  0
 50 48  1  0  0  0  0
 50 51  1  0  0  0  0
 51 52  1  0  0  0  0
 52 54  1  0  0  0  0
 54 53  1  6  0  0  0
 54 57  1  0  0  0  0
 54 55  1  0  0  0  0
 55 56  1  0  0  0  0
 59 61  1  0  0  0  0
 59 57  1  0  0  0  0
 59 58  1  0  0  0  0
 60 59  2  0  0  0  0
M  END
>  <MODEL>
4

>  <REMARK>
 VINA RESULT:       1.7      1.378      2.321
  Name = 
  14 active torsions:
  status: ('A' for Active; 'I' for Inactive)
    1  A    between atoms: N_1  and  C_2
    2  A    between atoms: C_4  and  C_53
    3  A    between atoms: C_4  and  N_57
    4  A    between atoms: C_9  and  C_49
    5  A    between atoms: C_12  and  C_17
    6  A    between atoms: C_12  and  O_40
    7  A    between atoms: C_14  and  C_55
    8  A    between atoms: C_15  and  C_42
    9  A    between atoms: C_16  and  C_17
   10  A    between atoms: C_17  and  N_30
   11  A    between atoms: N_30  and  P_32
   12  A    between atoms: C_36  and  C_55
   13  A    between atoms: O_40  and  N_57
   14  A    between atoms: C_49  and  C_52
                            x       y       z     vdW  Elec       q    Type
                         _______ _______ _______ _____ _____    ______ ____

>  <TORSDO>
F 14

$$$$
