=
 OpenBabel11042422083D

 50 54  0  0  1  0  0  0  0  0999 V2000
  160.1610  211.2700  152.3040 C   0  0  0  0  0  0  0  0  0  0  0  0
  161.8800  210.0790  151.2260 C   0  0  2  0  0  3  0  0  0  0  0  0
  160.2850  213.1350  150.4380 C   0  0  0  0  0  0  0  0  0  0  0  0
  159.2470  211.7170  153.2510 O   0  0  0  0  0  1  0  0  0  0  0  0
  160.4790  211.8950  151.0400 C   0  0  0  0  0  0  0  0  0  0  0  0
  160.9530  210.1940  152.4270 C   0  0  0  0  0  0  0  0  0  0  0  0
  163.1450  211.7050  148.6230 C   0  0  0  0  0  2  0  0  0  0  0  0
  161.2060  213.1550  149.3890 C   0  0  0  0  0  0  0  0  0  0  0  0
  161.4260  211.2060  150.4230 N   0  0  0  0  0  0  0  0  0  0  0  0
  161.9030  211.9560  149.4160 C   0  0  0  0  0  0  0  0  0  0  0  0
  161.4980  214.2620  148.4220 C   0  0  1  0  0  3  0  0  0  0  0  0
  163.1380  212.5970  147.3760 C   0  0  0  0  0  2  0  0  0  0  0  0
  162.8730  214.0670  147.7510 C   0  0  0  0  0  2  0  0  0  0  0  0
  161.5980  208.8930  155.9300 C   0  0  0  0  0  3  0  0  0  0  0  0
  160.4800  208.0190  153.5150 C   0  0  0  0  0  3  0  0  0  0  0  0
  161.0950  207.5940  155.8180 C   0  0  0  0  0  3  0  0  0  0  0  0
  161.0000  209.3180  153.6100 C   0  0  0  0  0  0  0  0  0  0  0  0
  160.5320  207.1590  154.6110 C   0  0  0  0  0  3  0  0  0  0  0  0
  162.0270  211.0570  154.9800 O   0  0  0  0  0  1  0  0  0  0  0  0
  161.5490  209.7590  154.8340 C   0  0  0  0  0  0  0  0  0  0  0  0
  161.6640  208.7470  150.4990 C   0  0  1  0  0  3  0  0  0  0  0  0
  161.9060  208.8720  149.1290 O   0  0  0  0  0  1  0  0  0  0  0  0
  162.5550  207.6660  151.0880 C   0  0  0  0  0  2  0  0  0  0  0  0
  162.4320  206.4350  150.3240 N   0  0  0  0  0  2  0  0  0  0  0  0
  161.0500  205.9910  150.4340 C   0  0  0  0  0  2  0  0  0  0  0  0
  160.5240  204.9510  148.3590 O   0  0  0  0  0  0  0  0  0  0  0  0
  160.9370  203.4910  150.1370 N   0  0  0  0  0  2  0  0  0  0  0  0
  160.8220  204.7980  149.5740 C   0  0  0  0  0  0  0  0  0  0  0  0
  161.3230  200.6470  150.0730 C   0  0  0  0  0  1  0  0  0  0  0  0
  161.3690  202.1940  147.8750 O   0  0  0  0  0  0  0  0  0  0  0  0
  160.6830  202.0580  149.2030 S   0  0  0  0  0  0  0  0  0  0  0  0
  159.2110  201.8690  148.9800 O   0  0  0  0  0  0  0  0  0  0  0  0
  159.4200  214.2550  150.8410 C   0  0  0  0  0  3  0  0  0  0  0  0
  158.7580  214.2780  151.9880 C   0  0  0  0  0  2  0  0  0  0  0  0
  160.3740  214.3560  147.3940 C   0  0  0  0  0  2  0  0  0  0  0  0
  159.3940  213.1960  147.5280 C   0  0  0  0  0  2  0  0  0  0  0  0
  158.2030  213.7140  144.7990 O   0  0  0  0  0  0  0  0  0  0  0  0
  158.1590  212.5390  145.5620 C   0  0  1  0  0  3  0  0  0  0  0  0
  159.4080  212.3850  146.3110 N   0  0  0  0  0  0  0  0  0  0  0  0
  160.3660  213.0140  145.4280 C   0  0  0  0  0  2  0  0  0  0  0  0
  159.5580  213.8780  144.4770 C   0  0  1  0  0  3  0  0  0  0  0  0
  156.8980  212.4730  146.4160 C   0  0  0  0  0  1  0  0  0  0  0  0
  159.8900  214.4530  142.1930 O   0  0  0  0  0  0  0  0  0  0  0  0
  159.7890  213.5230  143.0390 C   0  0  0  0  0  0  0  0  0  0  0  0
  159.8120  212.1850  142.6320 O   0  0  0  0  0  0  0  0  0  0  0  0
  160.9600  211.6000  142.0290 C   0  0  0  0  0  2  0  0  0  0  0  0
  161.6970  210.9920  139.6930 C   0  0  0  0  0  0  0  0  0  0  0  0
  162.9100  211.1360  140.0010 O   0  0  0  0  0  0  0  0  0  0  0  0
  161.3380  210.5220  138.3330 C   0  0  0  0  0  1  0  0  0  0  0  0
  160.6640  211.2400  140.6480 N   0  0  0  0  0  2  0  0  0  0  0  0
  1  6  2  0  0  0  0
  1  4  1  0  0  0  0
  2 21  1  6  0  0  0
  2  6  1  0  0  0  0
  3 33  1  0  0  0  0
  3  5  2  0  0  0  0
  5  1  1  0  0  0  0
  6 17  1  0  0  0  0
  7 10  1  0  0  0  0
  8 10  2  0  0  0  0
  8  3  1  0  0  0  0
  9  5  1  0  0  0  0
  9  2  1  0  0  0  0
 10  9  1  0  0  0  0
 11 35  1  6  0  0  0
 11  8  1  0  0  0  0
 12 13  1  0  0  0  0
 12  7  1  0  0  0  0
 13 11  1  0  0  0  0
 15 17  2  0  0  0  0
 15 18  1  0  0  0  0
 16 14  1  0  0  0  0
 17 20  1  0  0  0  0
 18 16  2  0  0  0  0
 20 19  1  0  0  0  0
 20 14  2  0  0  0  0
 21 22  1  6  0  0  0
 21 23  1  0  0  0  0
 24 25  1  0  0  0  0
 24 23  1  0  0  0  0
 26 28  2  0  0  0  0
 28 27  1  0  0  0  0
 28 25  1  0  0  0  0
 30 31  2  0  0  0  0
 31 29  1  0  0  0  0
 31 27  1  0  0  0  0
 32 31  2  0  0  0  0
 33 34  2  0  0  0  0
 35 36  1  0  0  0  0
 37 38  1  0  0  0  0
 38 39  1  0  0  0  0
 38 42  1  1  0  0  0
 39 36  1  0  0  0  0
 40 39  1  0  0  0  0
 41 44  1  6  0  0  0
 41 37  1  0  0  0  0
 41 40  1  0  0  0  0
 43 44  2  0  0  0  0
 45 44  1  0  0  0  0
 46 45  1  0  0  0  0
 47 48  2  0  0  0  0
 47 50  1  0  0  0  0
 49 47  1  0  0  0  0
 50 46  1  0  0  0  0
M  END
>  <MODEL>
1

>  <REMARK>
 VINA RESULT:      -6.1      0.000      0.000
  Name = 
  15 active torsions:
  status: ('A' for Active; 'I' for Inactive)
    1  A    between atoms: C_2  and  C_5
    2  A    between atoms: C_2  and  C_27
    3  A    between atoms: C_9  and  C_11
    4  A    between atoms: C_12  and  C_31
    5  A    between atoms: C_12  and  C_46
    6  A    between atoms: C_18  and  C_25
    7  A    between atoms: N_24  and  S_30
    8  A    between atoms: C_26  and  N_41
    9  A    between atoms: C_26  and  C_43
   10  A    between atoms: C_27  and  N_41
   11  A    between atoms: N_29  and  C_31
   12  A    between atoms: C_32  and  N_38
   13  A    between atoms: C_32  and  O_39
   14  A    between atoms: C_35  and  C_37
   15  A    between atoms: C_35  and  O_39
                            x       y       z     vdW  Elec       q    Type
                         _______ _______ _______ _____ _____    ______ ____

>  <TORSDO>
F 15

$$$$
=
 OpenBabel11042422083D

 50 54  0  0  1  0  0  0  0  0999 V2000
  158.0480  213.4690  151.2860 C   0  0  0  0  0  0  0  0  0  0  0  0
  160.1710  212.6760  151.9190 C   0  0  2  0  0  3  0  0  0  0  0  0
  158.8990  213.7630  148.8040 C   0  0  0  0  0  0  0  0  0  0  0  0
  156.7540  213.9750  151.3240 O   0  0  0  0  0  1  0  0  0  0  0  0
  158.8850  213.3060  150.1190 C   0  0  0  0  0  0  0  0  0  0  0  0
  158.7710  213.0880  152.3510 C   0  0  0  0  0  0  0  0  0  0  0  0
  162.3940  212.8250  149.4580 C   0  0  0  0  0  2  0  0  0  0  0  0
  160.2080  213.5340  148.3760 C   0  0  0  0  0  0  0  0  0  0  0  0
  160.0680  212.8330  150.4750 N   0  0  0  0  0  0  0  0  0  0  0  0
  160.9060  212.9720  149.4360 C   0  0  0  0  0  0  0  0  0  0  0  0
  160.8350  213.8760  147.0580 C   0  0  1  0  0  3  0  0  0  0  0  0
  162.9160  212.7340  148.0200 C   0  0  0  0  0  2  0  0  0  0  0  0
  162.3750  213.8920  147.1620 C   0  0  0  0  0  2  0  0  0  0  0  0
  157.0450  212.3010  155.6340 C   0  0  0  0  0  3  0  0  0  0  0  0
  158.7290  214.2530  154.5370 C   0  0  0  0  0  3  0  0  0  0  0  0
  157.4480  213.3950  156.4050 C   0  0  0  0  0  3  0  0  0  0  0  0
  158.3140  213.1690  153.7490 C   0  0  0  0  0  0  0  0  0  0  0  0
  158.2940  214.3690  155.8570 C   0  0  0  0  0  3  0  0  0  0  0  0
  157.0880  211.0660  153.5750 O   0  0  0  0  0  1  0  0  0  0  0  0
  157.4770  212.1800  154.3110 C   0  0  0  0  0  0  0  0  0  0  0  0
  160.4530  211.2210  152.3090 C   0  0  1  0  0  3  0  0  0  0  0  0
  159.3220  210.4210  152.1300 O   0  0  0  0  0  1  0  0  0  0  0  0
  161.6150  210.6670  151.5010 C   0  0  0  0  0  2  0  0  0  0  0  0
  161.4960  209.2230  151.3660 N   0  0  0  0  0  2  0  0  0  0  0  0
  162.4020  208.8100  150.3050 C   0  0  0  0  0  2  0  0  0  0  0  0
  160.5690  207.4240  149.6840 O   0  0  0  0  0  0  0  0  0  0  0  0
  162.4420  207.2930  148.2930 N   0  0  0  0  0  2  0  0  0  0  0  0
  161.7410  207.8100  149.4230 C   0  0  0  0  0  0  0  0  0  0  0  0
  161.6860  204.5380  148.0180 C   0  0  0  0  0  1  0  0  0  0  0  0
  162.5580  206.0420  145.9680 O   0  0  0  0  0  0  0  0  0  0  0  0
  161.7430  206.1260  147.2250 S   0  0  0  0  0  0  0  0  0  0  0  0
  160.3450  206.5510  146.8790 O   0  0  0  0  0  0  0  0  0  0  0  0
  157.8530  214.4510  148.0320 C   0  0  0  0  0  3  0  0  0  0  0  0
  156.7270  213.8630  147.6590 C   0  0  0  0  0  2  0  0  0  0  0  0
  160.3500  212.9020  145.9900 C   0  0  0  0  0  2  0  0  0  0  0  0
  160.7980  213.3300  144.5970 C   0  0  0  0  0  2  0  0  0  0  0  0
  159.8940  213.7900  141.7490 O   0  0  0  0  0  0  0  0  0  0  0  0
  159.2710  213.0330  142.7520 C   0  0  1  0  0  3  0  0  0  0  0  0
  160.2840  212.3960  143.5960 N   0  0  0  0  0  0  0  0  0  0  0  0
  161.3660  212.1870  142.6580 C   0  0  0  0  0  2  0  0  0  0  0  0
  161.0940  213.1140  141.4880 C   0  0  1  0  0  3  0  0  0  0  0  0
  158.2400  213.8560  143.5160 C   0  0  0  0  0  1  0  0  0  0  0  0
  160.0850  212.7060  139.3730 O   0  0  0  0  0  0  0  0  0  0  0  0
  160.9940  212.3820  140.1830 C   0  0  0  0  0  0  0  0  0  0  0  0
  161.8440  211.3050  139.9060 O   0  0  0  0  0  0  0  0  0  0  0  0
  161.3990  210.1580  139.1930 C   0  0  0  0  0  2  0  0  0  0  0  0
  161.7240  207.6550  139.2460 C   0  0  0  0  0  0  0  0  0  0  0  0
  160.9120  207.4960  138.2960 O   0  0  0  0  0  0  0  0  0  0  0  0
  162.4400  206.4810  139.8020 C   0  0  0  0  0  1  0  0  0  0  0  0
  161.9920  208.9570  139.7700 N   0  0  0  0  0  2  0  0  0  0  0  0
  1  4  1  0  0  0  0
  1  6  2  0  0  0  0
  2 21  1  6  0  0  0
  2  6  1  0  0  0  0
  3  5  2  0  0  0  0
  5  9  1  0  0  0  0
  5  1  1  0  0  0  0
  6 17  1  0  0  0  0
  8  3  1  0  0  0  0
  8 10  2  0  0  0  0
  9  2  1  0  0  0  0
 10  7  1  0  0  0  0
 10  9  1  0  0  0  0
 11 35  1  6  0  0  0
 11 13  1  0  0  0  0
 11  8  1  0  0  0  0
 12  7  1  0  0  0  0
 13 12  1  0  0  0  0
 14 16  1  0  0  0  0
 15 18  1  0  0  0  0
 17 20  1  0  0  0  0
 17 15  2  0  0  0  0
 18 16  2  0  0  0  0
 19 20  1  0  0  0  0
 20 14  2  0  0  0  0
 21 22  1  6  0  0  0
 23 21  1  0  0  0  0
 24 23  1  0  0  0  0
 25 24  1  0  0  0  0
 27 28  1  0  0  0  0
 28 26  2  0  0  0  0
 28 25  1  0  0  0  0
 30 31  2  0  0  0  0
 31 29  1  0  0  0  0
 31 27  1  0  0  0  0
 32 31  2  0  0  0  0
 33  3  1  0  0  0  0
 34 33  2  0  0  0  0
 36 35  1  0  0  0  0
 37 38  1  0  0  0  0
 38 42  1  1  0  0  0
 38 39  1  0  0  0  0
 39 36  1  0  0  0  0
 40 39  1  0  0  0  0
 41 44  1  6  0  0  0
 41 37  1  0  0  0  0
 41 40  1  0  0  0  0
 43 44  2  0  0  0  0
 45 44  1  0  0  0  0
 46 50  1  0  0  0  0
 46 45  1  0  0  0  0
 47 50  1  0  0  0  0
 47 49  1  0  0  0  0
 48 47  2  0  0  0  0
M  END
>  <MODEL>
2

>  <REMARK>
 VINA RESULT:      -5.9      2.507      3.810
  Name = 
  15 active torsions:
  status: ('A' for Active; 'I' for Inactive)
    1  A    between atoms: C_2  and  C_5
    2  A    between atoms: C_2  and  C_27
    3  A    between atoms: C_9  and  C_11
    4  A    between atoms: C_12  and  C_31
    5  A    between atoms: C_12  and  C_46
    6  A    between atoms: C_18  and  C_25
    7  A    between atoms: N_24  and  S_30
    8  A    between atoms: C_26  and  N_41
    9  A    between atoms: C_26  and  C_43
   10  A    between atoms: C_27  and  N_41
   11  A    between atoms: N_29  and  C_31
   12  A    between atoms: C_32  and  N_38
   13  A    between atoms: C_32  and  O_39
   14  A    between atoms: C_35  and  C_37
   15  A    between atoms: C_35  and  O_39
                            x       y       z     vdW  Elec       q    Type
                         _______ _______ _______ _____ _____    ______ ____

>  <TORSDO>
F 15

$$$$
=
 OpenBabel11042422083D

 50 54  0  0  1  0  0  0  0  0999 V2000
  161.4750  209.5850  149.1870 C   0  0  0  0  0  0  0  0  0  0  0  0
  161.6020  210.4800  151.3600 C   0  0  2  0  0  3  0  0  0  0  0  0
  161.2970  207.1540  150.2020 C   0  0  0  0  0  0  0  0  0  0  0  0
  161.5380  209.4360  147.8070 O   0  0  0  0  0  1  0  0  0  0  0  0
  161.2550  208.5440  150.1660 C   0  0  0  0  0  0  0  0  0  0  0  0
  161.6600  210.7320  149.8600 C   0  0  0  0  0  0  0  0  0  0  0  0
  161.7290  208.1450  153.7160 C   0  0  0  0  0  2  0  0  0  0  0  0
  161.3770  206.8470  151.5610 C   0  0  0  0  0  0  0  0  0  0  0  0
  161.2990  209.0560  151.3860 N   0  0  0  0  0  0  0  0  0  0  0  0
  161.3900  208.0440  152.2630 C   0  0  0  0  0  0  0  0  0  0  0  0
  161.5060  205.5030  152.2110 C   0  0  1  0  0  3  0  0  0  0  0  0
  161.3990  206.8170  154.4060 C   0  0  0  0  0  2  0  0  0  0  0  0
  162.0330  205.6320  153.6560 C   0  0  0  0  0  2  0  0  0  0  0  0
  161.4190  214.3110  148.6310 C   0  0  0  0  0  3  0  0  0  0  0  0
  163.2440  212.1850  148.6290 C   0  0  0  0  0  3  0  0  0  0  0  0
  162.6620  214.4530  148.0090 C   0  0  0  0  0  3  0  0  0  0  0  0
  161.9910  212.0250  149.2380 C   0  0  0  0  0  0  0  0  0  0  0  0
  163.5760  213.3910  148.0120 C   0  0  0  0  0  3  0  0  0  0  0  0
  159.8500  212.9980  149.8900 O   0  0  0  0  0  1  0  0  0  0  0  0
  161.0800  213.1040  149.2500 C   0  0  0  0  0  0  0  0  0  0  0  0
  160.4840  211.3060  152.0060 C   0  0  1  0  0  3  0  0  0  0  0  0
  159.2760  210.6040  152.0130 O   0  0  0  0  0  1  0  0  0  0  0  0
  160.8630  211.7030  153.4220 C   0  0  0  0  0  2  0  0  0  0  0  0
  160.0000  212.7730  153.8980 N   0  0  0  0  0  2  0  0  0  0  0  0
  159.7760  212.5530  155.3180 C   0  0  0  0  0  2  0  0  0  0  0  0
  157.9210  212.3290  156.7920 O   0  0  0  0  0  0  0  0  0  0  0  0
  157.3810  212.7240  154.5530 N   0  0  0  0  0  2  0  0  0  0  0  0
  158.3180  212.5280  155.6120 C   0  0  0  0  0  0  0  0  0  0  0  0
  155.2430  213.8600  156.0950 C   0  0  0  0  0  1  0  0  0  0  0  0
  155.2380  211.3240  155.2060 O   0  0  0  0  0  0  0  0  0  0  0  0
  155.6720  212.7060  154.8150 S   0  0  0  0  0  0  0  0  0  0  0  0
  154.9750  213.1010  153.5460 O   0  0  0  0  0  0  0  0  0  0  0  0
  161.3720  206.1830  149.0980 C   0  0  0  0  0  3  0  0  0  0  0  0
  160.5090  206.1640  148.0940 C   0  0  0  0  0  2  0  0  0  0  0  0
  160.1670  204.7760  152.1590 C   0  0  0  0  0  2  0  0  0  0  0  0
  160.3410  203.3060  151.7930 C   0  0  0  0  0  2  0  0  0  0  0  0
  161.2030  200.8650  150.2320 O   0  0  0  0  0  0  0  0  0  0  0  0
  161.9800  201.9570  150.6450 C   0  0  1  0  0  3  0  0  0  0  0  0
  161.1800  203.1820  150.6010 N   0  0  0  0  0  0  0  0  0  0  0  0
  160.2730  202.9080  149.5080 C   0  0  0  0  0  2  0  0  0  0  0  0
  160.2970  201.4040  149.3070 C   0  0  1  0  0  3  0  0  0  0  0  0
  162.6520  201.6900  151.9870 C   0  0  0  0  0  1  0  0  0  0  0  0
  161.5970  200.1460  147.7620 O   0  0  0  0  0  0  0  0  0  0  0  0
  160.6950  201.0140  147.9150 C   0  0  0  0  0  0  0  0  0  0  0  0
  160.1340  201.6600  146.8080 O   0  0  0  0  0  0  0  0  0  0  0  0
  160.8350  201.7930  145.5780 C   0  0  0  0  0  2  0  0  0  0  0  0
  161.4680  204.2030  145.1770 C   0  0  0  0  0  0  0  0  0  0  0  0
  162.4960  204.0880  145.8980 O   0  0  0  0  0  0  0  0  0  0  0  0
  161.2070  205.4830  144.4740 C   0  0  0  0  0  1  0  0  0  0  0  0
  160.5730  203.1050  144.9990 N   0  0  0  0  0  2  0  0  0  0  0  0
  1  6  2  0  0  0  0
  1  5  1  0  0  0  0
  2  9  1  0  0  0  0
  2 21  1  6  0  0  0
  3  8  1  0  0  0  0
  4  1  1  0  0  0  0
  5  3  2  0  0  0  0
  5  9  1  0  0  0  0
  6  2  1  0  0  0  0
  7 12  1  0  0  0  0
  8 11  1  0  0  0  0
  8 10  2  0  0  0  0
  9 10  1  0  0  0  0
 10  7  1  0  0  0  0
 11 35  1  1  0  0  0
 11 13  1  0  0  0  0
 13 12  1  0  0  0  0
 14 20  1  0  0  0  0
 15 17  1  0  0  0  0
 16 18  1  0  0  0  0
 16 14  2  0  0  0  0
 17 20  2  0  0  0  0
 17  6  1  0  0  0  0
 18 15  2  0  0  0  0
 20 19  1  0  0  0  0
 21 22  1  1  0  0  0
 21 23  1  0  0  0  0
 23 24  1  0  0  0  0
 24 25  1  0  0  0  0
 25 28  1  0  0  0  0
 27 31  1  0  0  0  0
 27 28  1  0  0  0  0
 28 26  2  0  0  0  0
 31 30  2  0  0  0  0
 31 29  1  0  0  0  0
 32 31  2  0  0  0  0
 33  3  1  0  0  0  0
 34 33  2  0  0  0  0
 36 35  1  0  0  0  0
 37 38  1  0  0  0  0
 38 42  1  1  0  0  0
 39 38  1  0  0  0  0
 39 36  1  0  0  0  0
 40 39  1  0  0  0  0
 41 44  1  6  0  0  0
 41 40  1  0  0  0  0
 41 37  1  0  0  0  0
 43 44  2  0  0  0  0
 45 44  1  0  0  0  0
 46 45  1  0  0  0  0
 47 48  2  0  0  0  0
 49 47  1  0  0  0  0
 50 47  1  0  0  0  0
 50 46  1  0  0  0  0
M  END
>  <MODEL>
3

>  <REMARK>
 VINA RESULT:      -5.4      4.192      9.521
  Name = 
  15 active torsions:
  status: ('A' for Active; 'I' for Inactive)
    1  A    between atoms: C_2  and  C_5
    2  A    between atoms: C_2  and  C_27
    3  A    between atoms: C_9  and  C_11
    4  A    between atoms: C_12  and  C_31
    5  A    between atoms: C_12  and  C_46
    6  A    between atoms: C_18  and  C_25
    7  A    between atoms: N_24  and  S_30
    8  A    between atoms: C_26  and  N_41
    9  A    between atoms: C_26  and  C_43
   10  A    between atoms: C_27  and  N_41
   11  A    between atoms: N_29  and  C_31
   12  A    between atoms: C_32  and  N_38
   13  A    between atoms: C_32  and  O_39
   14  A    between atoms: C_35  and  C_37
   15  A    between atoms: C_35  and  O_39
                            x       y       z     vdW  Elec       q    Type
                         _______ _______ _______ _____ _____    ______ ____

>  <TORSDO>
F 15

$$$$
=
 OpenBabel11042422083D

 50 54  0  0  1  0  0  0  0  0999 V2000
  160.5680  204.8490  152.2570 C   0  0  0  0  0  0  0  0  0  0  0  0
  161.5660  206.0480  150.4960 C   0  0  2  0  0  3  0  0  0  0  0  0
  160.7380  206.9830  153.8030 C   0  0  0  0  0  0  0  0  0  0  0  0
  160.0790  203.8200  153.0540 O   0  0  0  0  0  1  0  0  0  0  0  0
  160.7240  206.2370  152.6280 C   0  0  0  0  0  0  0  0  0  0  0  0
  161.0360  204.7160  151.0070 C   0  0  0  0  0  0  0  0  0  0  0  0
  162.5470  209.0900  151.3930 C   0  0  0  0  0  2  0  0  0  0  0  0
  161.3380  208.1880  153.4370 C   0  0  0  0  0  0  0  0  0  0  0  0
  161.2580  206.9150  151.6250 N   0  0  0  0  0  0  0  0  0  0  0  0
  161.6600  208.1080  152.0900 C   0  0  0  0  0  0  0  0  0  0  0  0
  161.6760  209.3660  154.3020 C   0  0  1  0  0  3  0  0  0  0  0  0
  162.4790  210.4380  152.1200 C   0  0  0  0  0  2  0  0  0  0  0  0
  162.7330  210.2660  153.6280 C   0  0  0  0  0  2  0  0  0  0  0  0
  161.6970  201.0760  150.1740 C   0  0  0  0  0  3  0  0  0  0  0  0
  160.7360  203.3960  148.9320 C   0  0  0  0  0  3  0  0  0  0  0  0
  161.3210  201.0480  148.8280 C   0  0  0  0  0  3  0  0  0  0  0  0
  161.1300  203.4400  150.2770 C   0  0  0  0  0  0  0  0  0  0  0  0
  160.8360  202.2080  148.2080 C   0  0  0  0  0  3  0  0  0  0  0  0
  161.9500  202.2580  152.2490 O   0  0  0  0  0  1  0  0  0  0  0  0
  161.6000  202.2640  150.9030 C   0  0  0  0  0  0  0  0  0  0  0  0
  160.8160  206.4820  149.2320 C   0  0  1  0  0  3  0  0  0  0  0  0
  159.4350  206.4790  149.4370 O   0  0  0  0  0  1  0  0  0  0  0  0
  161.2730  207.8610  148.7870 C   0  0  0  0  0  2  0  0  0  0  0  0
  162.2770  207.7500  147.7400 N   0  0  0  0  0  2  0  0  0  0  0  0
  162.8800  206.4310  147.8530 C   0  0  0  0  0  2  0  0  0  0  0  0
  163.4070  204.8400  146.1640 O   0  0  0  0  0  0  0  0  0  0  0  0
  161.2320  205.6920  146.0950 N   0  0  0  0  0  2  0  0  0  0  0  0
  162.5390  205.6050  146.6640 C   0  0  0  0  0  0  0  0  0  0  0  0
  161.4580  205.4820  143.2420 C   0  0  0  0  0  1  0  0  0  0  0  0
  159.2660  204.7400  144.6090 O   0  0  0  0  0  0  0  0  0  0  0  0
  160.7630  204.7670  144.7120 S   0  0  0  0  0  0  0  0  0  0  0  0
  161.2720  203.3630  144.8610 O   0  0  0  0  0  0  0  0  0  0  0  0
  160.3450  206.6000  155.1690 C   0  0  0  0  0  3  0  0  0  0  0  0
  159.2180  207.0040  155.7350 C   0  0  0  0  0  2  0  0  0  0  0  0
  160.4050  210.1380  154.6380 C   0  0  0  0  0  2  0  0  0  0  0  0
  160.3750  211.4960  153.9460 C   0  0  0  0  0  2  0  0  0  0  0  0
  158.7660  213.8290  152.8930 O   0  0  0  0  0  0  0  0  0  0  0  0
  158.3080  212.5780  153.3290 C   0  0  1  0  0  3  0  0  0  0  0  0
  159.2800  211.5410  152.9770 N   0  0  0  0  0  0  0  0  0  0  0  0
  159.8520  212.0690  151.7580 C   0  0  0  0  0  2  0  0  0  0  0  0
  159.5190  213.5490  151.7430 C   0  0  1  0  0  3  0  0  0  0  0  0
  157.9220  212.6060  154.8040 C   0  0  0  0  0  1  0  0  0  0  0  0
  157.5060  213.7740  150.4960 O   0  0  0  0  0  0  0  0  0  0  0  0
  158.7530  213.9560  150.5200 C   0  0  0  0  0  0  0  0  0  0  0  0
  159.4220  214.4530  149.3960 O   0  0  0  0  0  0  0  0  0  0  0  0
  159.7230  213.6320  148.2740 C   0  0  0  0  0  2  0  0  0  0  0  0
  161.9710  212.4890  148.1800 C   0  0  0  0  0  0  0  0  0  0  0  0
  161.4790  211.4120  148.6110 O   0  0  0  0  0  0  0  0  0  0  0  0
  163.4040  212.5390  147.7990 C   0  0  0  0  0  1  0  0  0  0  0  0
  161.1580  213.6520  148.0170 N   0  0  0  0  0  2  0  0  0  0  0  0
  1  5  1  0  0  0  0
  1  4  1  0  0  0  0
  2 21  1  6  0  0  0
  2  6  1  0  0  0  0
  2  9  1  0  0  0  0
  3 33  1  0  0  0  0
  5  3  2  0  0  0  0
  6  1  2  0  0  0  0
  7 10  1  0  0  0  0
  7 12  1  0  0  0  0
  8  3  1  0  0  0  0
  8 11  1  0  0  0  0
  9 10  1  0  0  0  0
  9  5  1  0  0  0  0
 10  8  2  0  0  0  0
 11 35  1  6  0  0  0
 12 13  1  0  0  0  0
 13 11  1  0  0  0  0
 14 20  1  0  0  0  0
 15 17  1  0  0  0  0
 16 14  2  0  0  0  0
 17 20  2  0  0  0  0
 17  6  1  0  0  0  0
 18 16  1  0  0  0  0
 18 15  2  0  0  0  0
 20 19  1  0  0  0  0
 21 22  1  1  0  0  0
 23 21  1  0  0  0  0
 24 25  1  0  0  0  0
 24 23  1  0  0  0  0
 26 28  2  0  0  0  0
 27 28  1  0  0  0  0
 28 25  1  0  0  0  0
 29 31  1  0  0  0  0
 30 31  2  0  0  0  0
 31 32  2  0  0  0  0
 31 27  1  0  0  0  0
 33 34  2  0  0  0  0
 36 35  1  0  0  0  0
 37 38  1  0  0  0  0
 38 42  1  1  0  0  0
 39 38  1  0  0  0  0
 39 36  1  0  0  0  0
 40 39  1  0  0  0  0
 41 44  1  6  0  0  0
 41 40  1  0  0  0  0
 41 37  1  0  0  0  0
 43 44  2  0  0  0  0
 45 44  1  0  0  0  0
 46 45  1  0  0  0  0
 47 48  2  0  0  0  0
 49 47  1  0  0  0  0
 50 47  1  0  0  0  0
 50 46  1  0  0  0  0
M  END
>  <MODEL>
4

>  <REMARK>
 VINA RESULT:      -5.2      3.540      6.834
  Name = 
  15 active torsions:
  status: ('A' for Active; 'I' for Inactive)
    1  A    between atoms: C_2  and  C_5
    2  A    between atoms: C_2  and  C_27
    3  A    between atoms: C_9  and  C_11
    4  A    between atoms: C_12  and  C_31
    5  A    between atoms: C_12  and  C_46
    6  A    between atoms: C_18  and  C_25
    7  A    between atoms: N_24  and  S_30
    8  A    between atoms: C_26  and  N_41
    9  A    between atoms: C_26  and  C_43
   10  A    between atoms: C_27  and  N_41
   11  A    between atoms: N_29  and  C_31
   12  A    between atoms: C_32  and  N_38
   13  A    between atoms: C_32  and  O_39
   14  A    between atoms: C_35  and  C_37
   15  A    between atoms: C_35  and  O_39
                            x       y       z     vdW  Elec       q    Type
                         _______ _______ _______ _____ _____    ______ ____

>  <TORSDO>
F 15

$$$$
=
 OpenBabel11042422083D

 50 54  0  0  1  0  0  0  0  0999 V2000
  158.1540  213.4160  152.1040 C   0  0  0  0  0  0  0  0  0  0  0  0
  160.0770  212.1340  152.5460 C   0  0  2  0  0  3  0  0  0  0  0  0
  158.8020  213.5040  149.5460 C   0  0  0  0  0  0  0  0  0  0  0  0
  157.0290  214.2180  152.2560 O   0  0  0  0  0  1  0  0  0  0  0  0
  158.8080  213.0610  150.8650 C   0  0  0  0  0  0  0  0  0  0  0  0
  158.8660  212.8690  153.1020 C   0  0  0  0  0  0  0  0  0  0  0  0
  162.0180  211.7520  149.8800 C   0  0  0  0  0  2  0  0  0  0  0  0
  159.9690  212.9680  148.9990 C   0  0  0  0  0  0  0  0  0  0  0  0
  159.8730  212.3160  151.1150 N   0  0  0  0  0  0  0  0  0  0  0  0
  160.6140  212.2520  149.9980 C   0  0  0  0  0  0  0  0  0  0  0  0
  160.5270  213.1540  147.6200 C   0  0  1  0  0  3  0  0  0  0  0  0
  162.3580  211.5430  148.3990 C   0  0  0  0  0  2  0  0  0  0  0  0
  162.0280  212.8000  147.5740 C   0  0  0  0  0  2  0  0  0  0  0  0
  157.3020  212.5470  156.5410 C   0  0  0  0  0  3  0  0  0  0  0  0
  159.3550  213.9660  155.2690 C   0  0  0  0  0  3  0  0  0  0  0  0
  158.0640  213.4720  157.2580 C   0  0  0  0  0  3  0  0  0  0  0  0
  158.5820  213.0540  154.5350 C   0  0  0  0  0  0  0  0  0  0  0  0
  159.0940  214.1790  156.6220 C   0  0  0  0  0  3  0  0  0  0  0  0
  156.8060  211.3800  154.5010 O   0  0  0  0  0  1  0  0  0  0  0  0
  157.5580  212.3300  155.1840 C   0  0  0  0  0  0  0  0  0  0  0  0
  160.0400  210.6530  152.9370 C   0  0  1  0  0  3  0  0  0  0  0  0
  158.7400  210.1450  152.8730 O   0  0  0  0  0  1  0  0  0  0  0  0
  160.9590  209.8400  152.0410 C   0  0  0  0  0  2  0  0  0  0  0  0
  160.5560  208.4420  152.0340 N   0  0  0  0  0  2  0  0  0  0  0  0
  161.6340  207.6760  152.6410 C   0  0  0  0  0  2  0  0  0  0  0  0
  163.0470  206.1350  151.5040 O   0  0  0  0  0  0  0  0  0  0  0  0
  160.7790  205.5740  151.5450 N   0  0  0  0  0  2  0  0  0  0  0  0
  161.8760  206.4270  151.8700 C   0  0  0  0  0  0  0  0  0  0  0  0
  161.2470  204.4810  148.9320 C   0  0  0  0  0  1  0  0  0  0  0  0
  159.7590  203.2520  150.8030 O   0  0  0  0  0  0  0  0  0  0  0  0
  160.9810  204.1090  150.6490 S   0  0  0  0  0  0  0  0  0  0  0  0
  162.1730  203.3670  151.1790 O   0  0  0  0  0  0  0  0  0  0  0  0
  157.8800  214.4260  148.8640 C   0  0  0  0  0  3  0  0  0  0  0  0
  156.5640  214.2850  148.8970 C   0  0  0  0  0  2  0  0  0  0  0  0
  159.7190  212.3290  146.6230 C   0  0  0  0  0  2  0  0  0  0  0  0
  160.2500  212.4900  145.2030 C   0  0  0  0  0  2  0  0  0  0  0  0
  159.3340  214.0360  142.7730 O   0  0  0  0  0  0  0  0  0  0  0  0
  158.5540  213.4460  143.7770 C   0  0  1  0  0  3  0  0  0  0  0  0
  159.1880  212.2090  144.2370 N   0  0  0  0  0  0  0  0  0  0  0  0
  159.8560  211.7520  143.0380 C   0  0  0  0  0  2  0  0  0  0  0  0
  159.9500  212.9580  142.1220 C   0  0  1  0  0  3  0  0  0  0  0  0
  158.2260  214.4380  144.8880 C   0  0  0  0  0  1  0  0  0  0  0  0
  158.6620  213.6690  140.2540 O   0  0  0  0  0  0  0  0  0  0  0  0
  159.3000  212.7250  140.7920 C   0  0  0  0  0  0  0  0  0  0  0  0
  159.3350  211.4590  140.1970 O   0  0  0  0  0  0  0  0  0  0  0  0
  158.9220  211.2470  138.8520 C   0  0  0  0  0  2  0  0  0  0  0  0
  156.6030  210.2530  138.7860 C   0  0  0  0  0  0  0  0  0  0  0  0
  156.0750  211.3910  138.9040 O   0  0  0  0  0  0  0  0  0  0  0  0
  155.7390  209.0610  138.6050 C   0  0  0  0  0  1  0  0  0  0  0  0
  158.0240  210.1010  138.7850 N   0  0  0  0  0  2  0  0  0  0  0  0
  1  4  1  0  0  0  0
  1  6  2  0  0  0  0
  2 21  1  6  0  0  0
  2  6  1  0  0  0  0
  3  5  2  0  0  0  0
  5  9  1  0  0  0  0
  5  1  1  0  0  0  0
  6 17  1  0  0  0  0
  7 10  1  0  0  0  0
  8  3  1  0  0  0  0
  8 10  2  0  0  0  0
  9  2  1  0  0  0  0
 10  9  1  0  0  0  0
 11 35  1  6  0  0  0
 11  8  1  0  0  0  0
 12  7  1  0  0  0  0
 13 11  1  0  0  0  0
 13 12  1  0  0  0  0
 14 16  1  0  0  0  0
 15 18  1  0  0  0  0
 17 20  1  0  0  0  0
 17 15  2  0  0  0  0
 18 16  2  0  0  0  0
 19 20  1  0  0  0  0
 20 14  2  0  0  0  0
 21 22  1  6  0  0  0
 23 21  1  0  0  0  0
 24 23  1  0  0  0  0
 24 25  1  0  0  0  0
 26 28  2  0  0  0  0
 27 28  1  0  0  0  0
 28 25  1  0  0  0  0
 29 31  1  0  0  0  0
 31 30  2  0  0  0  0
 31 32  2  0  0  0  0
 31 27  1  0  0  0  0
 33 34  2  0  0  0  0
 33  3  1  0  0  0  0
 36 35  1  0  0  0  0
 37 38  1  0  0  0  0
 38 39  1  0  0  0  0
 38 42  1  1  0  0  0
 39 36  1  0  0  0  0
 40 39  1  0  0  0  0
 41 44  1  6  0  0  0
 41 37  1  0  0  0  0
 41 40  1  0  0  0  0
 43 44  2  0  0  0  0
 45 44  1  0  0  0  0
 46 45  1  0  0  0  0
 47 48  2  0  0  0  0
 49 47  1  0  0  0  0
 50 47  1  0  0  0  0
 50 46  1  0  0  0  0
M  END
>  <MODEL>
5

>  <REMARK>
 VINA RESULT:      -5.0      2.706      3.694
  Name = 
  15 active torsions:
  status: ('A' for Active; 'I' for Inactive)
    1  A    between atoms: C_2  and  C_5
    2  A    between atoms: C_2  and  C_27
    3  A    between atoms: C_9  and  C_11
    4  A    between atoms: C_12  and  C_31
    5  A    between atoms: C_12  and  C_46
    6  A    between atoms: C_18  and  C_25
    7  A    between atoms: N_24  and  S_30
    8  A    between atoms: C_26  and  N_41
    9  A    between atoms: C_26  and  C_43
   10  A    between atoms: C_27  and  N_41
   11  A    between atoms: N_29  and  C_31
   12  A    between atoms: C_32  and  N_38
   13  A    between atoms: C_32  and  O_39
   14  A    between atoms: C_35  and  C_37
   15  A    between atoms: C_35  and  O_39
                            x       y       z     vdW  Elec       q    Type
                         _______ _______ _______ _____ _____    ______ ____

>  <TORSDO>
F 15

$$$$
=
 OpenBabel11042422083D

 50 54  0  0  1  0  0  0  0  0999 V2000
  160.7330  208.1270  153.6720 C   0  0  0  0  0  0  0  0  0  0  0  0
  161.0440  209.6520  151.9060 C   0  0  2  0  0  3  0  0  0  0  0  0
  160.7900  206.1260  151.9500 C   0  0  0  0  0  0  0  0  0  0  0  0
  160.4410  207.5750  154.9130 O   0  0  0  0  0  1  0  0  0  0  0  0
  160.9820  207.4150  152.4390 C   0  0  0  0  0  0  0  0  0  0  0  0
  160.7840  209.4390  153.3910 C   0  0  0  0  0  0  0  0  0  0  0  0
  161.0190  208.1990  148.9220 C   0  0  0  0  0  2  0  0  0  0  0  0
  160.8870  206.2660  150.5650 C   0  0  0  0  0  0  0  0  0  0  0  0
  161.1850  208.2750  151.4540 N   0  0  0  0  0  0  0  0  0  0  0  0
  161.1170  207.6070  150.2910 C   0  0  0  0  0  0  0  0  0  0  0  0
  160.7080  205.2220  149.5040 C   0  0  1  0  0  3  0  0  0  0  0  0
  161.3010  207.1110  147.8790 C   0  0  0  0  0  2  0  0  0  0  0  0
  160.4290  205.8670  148.1300 C   0  0  0  0  0  2  0  0  0  0  0  0
  159.1410  212.3540  155.1740 C   0  0  0  0  0  3  0  0  0  0  0  0
  161.4110  210.7300  155.4090 C   0  0  0  0  0  3  0  0  0  0  0  0
  160.0570  212.5720  156.2070 C   0  0  0  0  0  3  0  0  0  0  0  0
  160.5090  210.5150  154.3580 C   0  0  0  0  0  0  0  0  0  0  0  0
  161.1910  211.7570  156.3270 C   0  0  0  0  0  3  0  0  0  0  0  0
  158.4160  211.1100  153.2520 O   0  0  0  0  0  1  0  0  0  0  0  0
  159.3590  211.3270  154.2520 C   0  0  0  0  0  0  0  0  0  0  0  0
  162.3340  210.4510  151.6910 C   0  0  1  0  0  3  0  0  0  0  0  0
  163.4040  209.6090  151.3800 O   0  0  0  0  0  1  0  0  0  0  0  0
  162.1470  211.4820  150.5910 C   0  0  0  0  0  2  0  0  0  0  0  0
  162.2220  210.8480  149.2830 N   0  0  0  0  0  2  0  0  0  0  0  0
  162.6410  211.8660  148.3310 C   0  0  0  0  0  2  0  0  0  0  0  0
  161.7220  214.0590  148.4170 O   0  0  0  0  0  0  0  0  0  0  0  0
  160.3040  212.4100  147.5620 N   0  0  0  0  0  2  0  0  0  0  0  0
  161.5460  212.8490  148.1110 C   0  0  0  0  0  0  0  0  0  0  0  0
  157.4880  212.5660  147.0300 C   0  0  0  0  0  1  0  0  0  0  0  0
  159.2730  214.3360  146.0760 O   0  0  0  0  0  0  0  0  0  0  0  0
  158.9840  213.4910  147.2820 S   0  0  0  0  0  0  0  0  0  0  0  0
  158.8130  214.3810  148.4790 O   0  0  0  0  0  0  0  0  0  0  0  0
  160.4360  204.8880  152.6640 C   0  0  0  0  0  3  0  0  0  0  0  0
  161.2520  203.8490  152.7530 C   0  0  0  0  0  2  0  0  0  0  0  0
  161.9330  204.3150  149.4650 C   0  0  0  0  0  2  0  0  0  0  0  0
  161.6490  202.9630  150.1090 C   0  0  0  0  0  2  0  0  0  0  0  0
  159.8200  201.2770  148.3910 O   0  0  0  0  0  0  0  0  0  0  0  0
  160.9000  200.8640  149.1830 C   0  0  1  0  0  3  0  0  0  0  0  0
  161.9490  201.8850  149.1660 N   0  0  0  0  0  0  0  0  0  0  0  0
  161.7880  202.4580  147.8480 C   0  0  0  0  0  2  0  0  0  0  0  0
  160.3980  202.0630  147.3840 C   0  0  1  0  0  3  0  0  0  0  0  0
  160.4460  200.4480  150.5780 C   0  0  0  0  0  1  0  0  0  0  0  0
  161.1670  200.2970  145.9880 O   0  0  0  0  0  0  0  0  0  0  0  0
  160.4160  201.3040  146.0910 C   0  0  0  0  0  0  0  0  0  0  0  0
  159.6730  201.7530  144.9940 O   0  0  0  0  0  0  0  0  0  0  0  0
  159.7890  203.0810  144.4970 C   0  0  0  0  0  2  0  0  0  0  0  0
  161.3800  205.0120  144.8330 C   0  0  0  0  0  0  0  0  0  0  0  0
  160.4830  205.8460  144.5360 O   0  0  0  0  0  0  0  0  0  0  0  0
  162.7170  205.4940  145.2570 C   0  0  0  0  0  1  0  0  0  0  0  0
  161.1130  203.6090  144.8020 N   0  0  0  0  0  2  0  0  0  0  0  0
  1  4  1  0  0  0  0
  2 21  1  1  0  0  0
  2  6  1  0  0  0  0
  3  5  2  0  0  0  0
  3 33  1  0  0  0  0
  5  1  1  0  0  0  0
  6  1  2  0  0  0  0
  6 17  1  0  0  0  0
  7 10  1  0  0  0  0
  8  3  1  0  0  0  0
  9  2  1  0  0  0  0
  9  5  1  0  0  0  0
 10  8  2  0  0  0  0
 10  9  1  0  0  0  0
 11 35  1  6  0  0  0
 11  8  1  0  0  0  0
 12 13  1  0  0  0  0
 12  7  1  0  0  0  0
 13 11  1  0  0  0  0
 14 16  1  0  0  0  0
 15 18  1  0  0  0  0
 16 18  2  0  0  0  0
 17 15  2  0  0  0  0
 19 20  1  0  0  0  0
 20 17  1  0  0  0  0
 20 14  2  0  0  0  0
 21 22  1  6  0  0  0
 23 21  1  0  0  0  0
 24 23  1  0  0  0  0
 25 24  1  0  0  0  0
 27 28  1  0  0  0  0
 28 25  1  0  0  0  0
 28 26  2  0  0  0  0
 29 31  1  0  0  0  0
 30 31  2  0  0  0  0
 31 27  1  0  0  0  0
 31 32  2  0  0  0  0
 33 34  2  0  0  0  0
 35 36  1  0  0  0  0
 37 38  1  0  0  0  0
 38 42  1  1  0  0  0
 39 38  1  0  0  0  0
 39 36  1  0  0  0  0
 40 39  1  0  0  0  0
 41 44  1  6  0  0  0
 41 40  1  0  0  0  0
 41 37  1  0  0  0  0
 43 44  2  0  0  0  0
 45 44  1  0  0  0  0
 46 50  1  0  0  0  0
 46 45  1  0  0  0  0
 47 49  1  0  0  0  0
 48 47  2  0  0  0  0
 50 47  1  0  0  0  0
M  END
>  <MODEL>
6

>  <REMARK>
 VINA RESULT:      -4.9      3.557      8.498
  Name = 
  15 active torsions:
  status: ('A' for Active; 'I' for Inactive)
    1  A    between atoms: C_2  and  C_5
    2  A    between atoms: C_2  and  C_27
    3  A    between atoms: C_9  and  C_11
    4  A    between atoms: C_12  and  C_31
    5  A    between atoms: C_12  and  C_46
    6  A    between atoms: C_18  and  C_25
    7  A    between atoms: N_24  and  S_30
    8  A    between atoms: C_26  and  N_41
    9  A    between atoms: C_26  and  C_43
   10  A    between atoms: C_27  and  N_41
   11  A    between atoms: N_29  and  C_31
   12  A    between atoms: C_32  and  N_38
   13  A    between atoms: C_32  and  O_39
   14  A    between atoms: C_35  and  C_37
   15  A    between atoms: C_35  and  O_39
                            x       y       z     vdW  Elec       q    Type
                         _______ _______ _______ _____ _____    ______ ____

>  <TORSDO>
F 15

$$$$
=
 OpenBabel11042422083D

 50 54  0  0  1  0  0  0  0  0999 V2000
  160.5720  211.2480  152.9240 C   0  0  0  0  0  0  0  0  0  0  0  0
  160.5070  209.6250  154.6260 C   0  0  2  0  0  3  0  0  0  0  0  0
  161.2820  209.3930  151.1840 C   0  0  0  0  0  0  0  0  0  0  0  0
  160.6080  212.4610  152.2460 O   0  0  0  0  0  1  0  0  0  0  0  0
  160.7710  209.9320  152.3610 C   0  0  0  0  0  0  0  0  0  0  0  0
  160.3950  211.0950  154.2450 C   0  0  0  0  0  0  0  0  0  0  0  0
  161.5430  206.6400  153.6090 C   0  0  0  0  0  2  0  0  0  0  0  0
  161.5340  208.0570  151.5000 C   0  0  0  0  0  0  0  0  0  0  0  0
  160.7050  209.0190  153.3170 N   0  0  0  0  0  0  0  0  0  0  0  0
  161.1800  207.8620  152.8280 C   0  0  0  0  0  0  0  0  0  0  0  0
  162.1460  206.9910  150.6410 C   0  0  1  0  0  3  0  0  0  0  0  0
  161.7190  205.4590  152.6480 C   0  0  0  0  0  2  0  0  0  0  0  0
  162.6750  205.8210  151.4970 C   0  0  0  0  0  2  0  0  0  0  0  0
  160.8450  213.3490  157.2610 C   0  0  0  0  0  3  0  0  0  0  0  0
  159.2630  213.1800  154.9550 C   0  0  0  0  0  3  0  0  0  0  0  0
  159.8610  214.3090  157.0130 C   0  0  0  0  0  3  0  0  0  0  0  0
  160.2350  212.2010  155.2050 C   0  0  0  0  0  0  0  0  0  0  0  0
  159.0720  214.2270  155.8580 C   0  0  0  0  0  3  0  0  0  0  0  0
  162.0480  211.3730  156.6130 O   0  0  0  0  0  1  0  0  0  0  0  0
  161.0400  212.2980  156.3600 C   0  0  0  0  0  0  0  0  0  0  0  0
  159.2120  209.1360  155.2830 C   0  0  1  0  0  3  0  0  0  0  0  0
  159.1710  207.7410  155.3460 O   0  0  0  0  0  1  0  0  0  0  0  0
  159.0650  209.7220  156.6770 C   0  0  0  0  0  2  0  0  0  0  0  0
  157.8370  210.4960  156.7760 N   0  0  0  0  0  2  0  0  0  0  0  0
  157.1220  210.3400  155.5190 C   0  0  0  0  0  2  0  0  0  0  0  0
  155.6750  212.1440  156.0780 O   0  0  0  0  0  0  0  0  0  0  0  0
  156.4560  212.1300  153.8760 N   0  0  0  0  0  2  0  0  0  0  0  0
  156.3760  211.5850  155.1920 C   0  0  0  0  0  0  0  0  0  0  0  0
  156.5340  214.4380  152.1710 C   0  0  0  0  0  1  0  0  0  0  0  0
  155.4310  214.4490  154.6220 O   0  0  0  0  0  0  0  0  0  0  0  0
  155.6150  213.5710  153.4190 S   0  0  0  0  0  0  0  0  0  0  0  0
  154.2680  213.2010  152.8680 O   0  0  0  0  0  0  0  0  0  0  0  0
  161.6220  210.0520  149.9130 C   0  0  0  0  0  3  0  0  0  0  0  0
  162.4470  211.0850  149.8350 C   0  0  0  0  0  2  0  0  0  0  0  0
  161.1300  206.5210  149.6050 C   0  0  0  0  0  2  0  0  0  0  0  0
  161.8080  206.1090  148.3030 C   0  0  0  0  0  2  0  0  0  0  0  0
  162.2370  203.6960  146.5330 O   0  0  0  0  0  0  0  0  0  0  0  0
  161.5270  204.8710  146.2510 C   0  0  1  0  0  3  0  0  0  0  0  0
  160.8710  205.3600  147.4650 N   0  0  0  0  0  0  0  0  0  0  0  0
  160.6020  204.1300  148.1760 C   0  0  0  0  0  2  0  0  0  0  0  0
  161.5110  203.0810  147.5630 C   0  0  1  0  0  3  0  0  0  0  0  0
  162.4050  205.9010  145.5480 C   0  0  0  0  0  1  0  0  0  0  0  0
  160.3200  201.9540  145.8410 O   0  0  0  0  0  0  0  0  0  0  0  0
  160.7540  201.9050  147.0240 C   0  0  0  0  0  0  0  0  0  0  0  0
  160.4660  200.8090  147.8430 O   0  0  0  0  0  0  0  0  0  0  0  0
  160.0560  200.9660  149.1960 C   0  0  0  0  0  2  0  0  0  0  0  0
  161.3720  201.9990  151.0860 C   0  0  0  0  0  0  0  0  0  0  0  0
  160.5130  202.9080  151.2330 O   0  0  0  0  0  0  0  0  0  0  0  0
  162.5300  201.9300  152.0110 C   0  0  0  0  0  1  0  0  0  0  0  0
  161.2260  201.0110  150.0650 N   0  0  0  0  0  2  0  0  0  0  0  0
  1  6  2  0  0  0  0
  2 21  1  6  0  0  0
  3  8  1  0  0  0  0
  3  5  2  0  0  0  0
  4  1  1  0  0  0  0
  5  1  1  0  0  0  0
  5  9  1  0  0  0  0
  6  2  1  0  0  0  0
  6 17  1  0  0  0  0
  8 10  2  0  0  0  0
  9  2  1  0  0  0  0
 10  9  1  0  0  0  0
 10  7  1  0  0  0  0
 11 35  1  6  0  0  0
 11 13  1  0  0  0  0
 11  8  1  0  0  0  0
 12  7  1  0  0  0  0
 13 12  1  0  0  0  0
 15 17  2  0  0  0  0
 15 18  1  0  0  0  0
 16 14  1  0  0  0  0
 17 20  1  0  0  0  0
 18 16  2  0  0  0  0
 20 19  1  0  0  0  0
 20 14  2  0  0  0  0
 21 22  1  1  0  0  0
 21 23  1  0  0  0  0
 23 24  1  0  0  0  0
 25 24  1  0  0  0  0
 27 28  1  0  0  0  0
 28 25  1  0  0  0  0
 28 26  2  0  0  0  0
 29 31  1  0  0  0  0
 31 27  1  0  0  0  0
 31 30  2  0  0  0  0
 32 31  2  0  0  0  0
 33  3  1  0  0  0  0
 34 33  2  0  0  0  0
 36 35  1  0  0  0  0
 37 41  1  0  0  0  0
 38 42  1  1  0  0  0
 38 37  1  0  0  0  0
 38 39  1  0  0  0  0
 39 40  1  0  0  0  0
 39 36  1  0  0  0  0
 41 44  1  6  0  0  0
 41 40  1  0  0  0  0
 43 44  2  0  0  0  0
 44 45  1  0  0  0  0
 45 46  1  0  0  0  0
 46 50  1  0  0  0  0
 47 48  2  0  0  0  0
 47 49  1  0  0  0  0
 50 47  1  0  0  0  0
M  END
>  <MODEL>
7

>  <REMARK>
 VINA RESULT:      -4.4      5.044      9.148
  Name = 
  15 active torsions:
  status: ('A' for Active; 'I' for Inactive)
    1  A    between atoms: C_2  and  C_5
    2  A    between atoms: C_2  and  C_27
    3  A    between atoms: C_9  and  C_11
    4  A    between atoms: C_12  and  C_31
    5  A    between atoms: C_12  and  C_46
    6  A    between atoms: C_18  and  C_25
    7  A    between atoms: N_24  and  S_30
    8  A    between atoms: C_26  and  N_41
    9  A    between atoms: C_26  and  C_43
   10  A    between atoms: C_27  and  N_41
   11  A    between atoms: N_29  and  C_31
   12  A    between atoms: C_32  and  N_38
   13  A    between atoms: C_32  and  O_39
   14  A    between atoms: C_35  and  C_37
   15  A    between atoms: C_35  and  O_39
                            x       y       z     vdW  Elec       q    Type
                         _______ _______ _______ _____ _____    ______ ____

>  <TORSDO>
F 15

$$$$
=
 OpenBabel11042422083D

 50 54  0  0  1  0  0  0  0  0999 V2000
  160.7500  204.9480  151.2310 C   0  0  0  0  0  0  0  0  0  0  0  0
  161.4120  205.7860  149.1340 C   0  0  2  0  0  3  0  0  0  0  0  0
  160.9870  207.3650  152.2690 C   0  0  0  0  0  0  0  0  0  0  0  0
  160.4450  204.0930  152.2830 O   0  0  0  0  0  1  0  0  0  0  0  0
  160.8610  206.3880  151.2850 C   0  0  0  0  0  0  0  0  0  0  0  0
  161.0480  204.5730  149.9780 C   0  0  0  0  0  0  0  0  0  0  0  0
  162.3000  208.9830  149.2390 C   0  0  0  0  0  2  0  0  0  0  0  0
  161.4490  208.4880  151.5800 C   0  0  0  0  0  0  0  0  0  0  0  0
  161.2050  206.8590  150.0970 N   0  0  0  0  0  0  0  0  0  0  0  0
  161.5860  208.1380  150.2450 C   0  0  0  0  0  0  0  0  0  0  0  0
  161.8230  209.8320  152.1280 C   0  0  1  0  0  3  0  0  0  0  0  0
  162.2420  210.4510  149.6780 C   0  0  0  0  0  2  0  0  0  0  0  0
  162.7130  210.6090  151.1350 C   0  0  0  0  0  2  0  0  0  0  0  0
  161.9600  201.4760  147.9890 C   0  0  0  0  0  3  0  0  0  0  0  0
  160.3920  202.1940  150.1960 C   0  0  0  0  0  3  0  0  0  0  0  0
  161.2090  200.5080  148.6620 C   0  0  0  0  0  3  0  0  0  0  0  0
  161.1260  203.1760  149.5160 C   0  0  0  0  0  0  0  0  0  0  0  0
  160.4280  200.8670  149.7690 C   0  0  0  0  0  3  0  0  0  0  0  0
  162.7080  203.7450  147.7470 O   0  0  0  0  0  1  0  0  0  0  0  0
  161.9260  202.8070  148.4130 C   0  0  0  0  0  0  0  0  0  0  0  0
  160.4670  205.9160  147.9340 C   0  0  1  0  0  3  0  0  0  0  0  0
  159.2880  206.5780  148.2880 O   0  0  0  0  0  1  0  0  0  0  0  0
  161.1510  206.6480  146.7920 C   0  0  0  0  0  2  0  0  0  0  0  0
  162.3330  205.9200  146.3580 N   0  0  0  0  0  2  0  0  0  0  0  0
  162.1080  205.5060  144.9820 C   0  0  0  0  0  2  0  0  0  0  0  0
  159.8110  205.0110  144.6040 O   0  0  0  0  0  0  0  0  0  0  0  0
  161.1480  203.1850  145.1860 N   0  0  0  0  0  2  0  0  0  0  0  0
  160.9530  204.5710  144.9070 C   0  0  0  0  0  0  0  0  0  0  0  0
  160.5070  200.4030  144.8860 C   0  0  0  0  0  1  0  0  0  0  0  0
  158.9270  202.3880  143.9980 O   0  0  0  0  0  0  0  0  0  0  0  0
  159.8550  202.0390  145.1240 S   0  0  0  0  0  0  0  0  0  0  0  0
  159.0970  202.0800  146.4190 O   0  0  0  0  0  0  0  0  0  0  0  0
  160.8140  207.2640  153.7270 C   0  0  0  0  0  3  0  0  0  0  0  0
  161.5400  206.4570  154.4850 C   0  0  0  0  0  2  0  0  0  0  0  0
  160.5610  210.6110  152.4860 C   0  0  0  0  0  2  0  0  0  0  0  0
  160.3780  211.8270  151.5850 C   0  0  0  0  0  2  0  0  0  0  0  0
  157.6720  212.9520  152.3260 O   0  0  0  0  0  0  0  0  0  0  0  0
  158.8070  213.6360  151.8680 C   0  0  1  0  0  3  0  0  0  0  0  0
  160.0170  212.9960  152.3870 N   0  0  0  0  0  0  0  0  0  0  0  0
  159.5600  212.4760  153.6580 C   0  0  0  0  0  2  0  0  0  0  0  0
  158.0450  212.4440  153.5780 C   0  0  1  0  0  3  0  0  0  0  0  0
  158.7840  213.8100  150.3540 C   0  0  0  0  0  1  0  0  0  0  0  0
  156.9980  214.4110  154.4100 O   0  0  0  0  0  0  0  0  0  0  0  0
  157.3930  213.2420  154.6680 C   0  0  0  0  0  0  0  0  0  0  0  0
  157.2980  212.7280  155.9650 O   0  0  0  0  0  0  0  0  0  0  0  0
  158.4480  212.5000  156.7720 C   0  0  0  0  0  2  0  0  0  0  0  0
  160.0730  210.5690  156.8190 C   0  0  0  0  0  0  0  0  0  0  0  0
  161.0550  211.3490  156.7000 O   0  0  0  0  0  0  0  0  0  0  0  0
  160.3100  209.1150  156.9910 C   0  0  0  0  0  1  0  0  0  0  0  0
  158.7360  211.0720  156.8290 N   0  0  0  0  0  2  0  0  0  0  0  0
  1  5  1  0  0  0  0
  1  4  1  0  0  0  0
  2 21  1  6  0  0  0
  2  6  1  0  0  0  0
  2  9  1  0  0  0  0
  3 33  1  0  0  0  0
  5  3  2  0  0  0  0
  6  1  2  0  0  0  0
  7 12  1  0  0  0  0
  7 10  1  0  0  0  0
  8 11  1  0  0  0  0
  8  3  1  0  0  0  0
  9 10  1  0  0  0  0
  9  5  1  0  0  0  0
 10  8  2  0  0  0  0
 11 35  1  6  0  0  0
 12 13  1  0  0  0  0
 13 11  1  0  0  0  0
 14 20  2  0  0  0  0
 14 16  1  0  0  0  0
 16 18  2  0  0  0  0
 17  6  1  0  0  0  0
 17 15  2  0  0  0  0
 18 15  1  0  0  0  0
 19 20  1  0  0  0  0
 20 17  1  0  0  0  0
 21 22  1  1  0  0  0
 23 21  1  0  0  0  0
 24 23  1  0  0  0  0
 25 24  1  0  0  0  0
 26 28  2  0  0  0  0
 28 25  1  0  0  0  0
 28 27  1  0  0  0  0
 29 31  1  0  0  0  0
 30 31  2  0  0  0  0
 31 27  1  0  0  0  0
 31 32  2  0  0  0  0
 33 34  2  0  0  0  0
 36 39  1  0  0  0  0
 36 35  1  0  0  0  0
 37 41  1  0  0  0  0
 38 42  1  6  0  0  0
 38 37  1  0  0  0  0
 38 39  1  0  0  0  0
 39 40  1  0  0  0  0
 41 40  1  0  0  0  0
 41 44  1  1  0  0  0
 43 44  2  0  0  0  0
 44 45  1  0  0  0  0
 45 46  1  0  0  0  0
 46 50  1  0  0  0  0
 47 50  1  0  0  0  0
 47 49  1  0  0  0  0
 48 47  2  0  0  0  0
M  END
>  <MODEL>
8

>  <REMARK>
 VINA RESULT:      -4.2      4.225      8.469
  Name = 
  15 active torsions:
  status: ('A' for Active; 'I' for Inactive)
    1  A    between atoms: C_2  and  C_5
    2  A    between atoms: C_2  and  C_27
    3  A    between atoms: C_9  and  C_11
    4  A    between atoms: C_12  and  C_31
    5  A    between atoms: C_12  and  C_46
    6  A    between atoms: C_18  and  C_25
    7  A    between atoms: N_24  and  S_30
    8  A    between atoms: C_26  and  N_41
    9  A    between atoms: C_26  and  C_43
   10  A    between atoms: C_27  and  N_41
   11  A    between atoms: N_29  and  C_31
   12  A    between atoms: C_32  and  N_38
   13  A    between atoms: C_32  and  O_39
   14  A    between atoms: C_35  and  C_37
   15  A    between atoms: C_35  and  O_39
                            x       y       z     vdW  Elec       q    Type
                         _______ _______ _______ _____ _____    ______ ____

>  <TORSDO>
F 15

$$$$
=
 OpenBabel11042422083D

 50 54  0  0  1  0  0  0  0  0999 V2000
  161.7300  207.9180  149.5950 C   0  0  0  0  0  0  0  0  0  0  0  0
  160.8710  205.8500  150.3190 C   0  0  2  0  0  3  0  0  0  0  0  0
  161.5590  208.8490  152.0600 C   0  0  0  0  0  0  0  0  0  0  0  0
  162.1370  208.9800  148.7970 O   0  0  0  0  0  1  0  0  0  0  0  0
  161.6070  207.9090  151.0350 C   0  0  0  0  0  0  0  0  0  0  0  0
  161.3240  206.7180  149.1530 C   0  0  0  0  0  0  0  0  0  0  0  0
  159.9600  205.8730  153.5110 C   0  0  0  0  0  2  0  0  0  0  0  0
  161.0240  208.1500  153.1430 C   0  0  0  0  0  0  0  0  0  0  0  0
  161.1520  206.7350  151.4410 N   0  0  0  0  0  0  0  0  0  0  0  0
  160.7710  206.8510  152.7230 C   0  0  0  0  0  0  0  0  0  0  0  0
  160.6860  208.6600  154.5110 C   0  0  1  0  0  3  0  0  0  0  0  0
  160.0400  206.2310  154.9990 C   0  0  0  0  0  2  0  0  0  0  0  0
  159.7010  207.7140  155.2300 C   0  0  0  0  0  2  0  0  0  0  0  0
  162.1900  205.4590  145.6820 C   0  0  0  0  0  3  0  0  0  0  0  0
  159.9990  206.5180  147.0700 C   0  0  0  0  0  3  0  0  0  0  0  0
  160.9740  205.6620  145.0250 C   0  0  0  0  0  3  0  0  0  0  0  0
  161.2200  206.3370  147.7340 C   0  0  0  0  0  0  0  0  0  0  0  0
  159.8760  206.1880  145.7200 C   0  0  0  0  0  3  0  0  0  0  0  0
  163.5290  205.5480  147.6740 O   0  0  0  0  0  1  0  0  0  0  0  0
  162.3180  205.7890  147.0340 C   0  0  0  0  0  0  0  0  0  0  0  0
  161.7030  204.5650  150.3940 C   0  0  1  0  0  3  0  0  0  0  0  0
  162.5270  204.5600  151.5210 O   0  0  0  0  0  1  0  0  0  0  0  0
  160.7990  203.3430  150.4060 C   0  0  0  0  0  2  0  0  0  0  0  0
  161.5710  202.1430  150.6870 N   0  0  0  0  0  2  0  0  0  0  0  0
  160.8800  201.0250  150.0630 C   0  0  0  0  0  2  0  0  0  0  0  0
  162.3400  200.6380  148.2240 O   0  0  0  0  0  0  0  0  0  0  0  0
  160.1770  201.3190  147.6610 N   0  0  0  0  0  2  0  0  0  0  0  0
  161.1880  200.9760  148.6080 C   0  0  0  0  0  0  0  0  0  0  0  0
  160.8970  199.6460  145.4420 C   0  0  0  0  0  1  0  0  0  0  0  0
  161.5650  202.2440  145.6120 O   0  0  0  0  0  0  0  0  0  0  0  0
  160.4600  201.2900  145.9550 S   0  0  0  0  0  0  0  0  0  0  0  0
  159.2070  201.7080  145.2400 O   0  0  0  0  0  0  0  0  0  0  0  0
  161.8640  210.2890  152.0350 C   0  0  0  0  0  3  0  0  0  0  0  0
  160.9580  211.2140  151.7580 C   0  0  0  0  0  2  0  0  0  0  0  0
  161.9650  208.8630  155.3150 C   0  0  0  0  0  2  0  0  0  0  0  0
  161.6840  208.9070  156.8130 C   0  0  0  0  0  2  0  0  0  0  0  0
  161.3350  211.4500  155.2180 O   0  0  0  0  0  0  0  0  0  0  0  0
  162.1640  211.2210  156.3250 C   0  0  1  0  0  3  0  0  0  0  0  0
  161.5120  210.2920  157.2500 N   0  0  0  0  0  0  0  0  0  0  0  0
  160.1130  210.5990  157.0470 C   0  0  0  0  0  2  0  0  0  0  0  0
  160.0310  211.3290  155.7190 C   0  0  1  0  0  3  0  0  0  0  0  0
  163.5670  210.8060  155.8970 C   0  0  0  0  0  1  0  0  0  0  0  0
  159.1800  213.1460  156.9980 O   0  0  0  0  0  0  0  0  0  0  0  0
  159.4040  212.6850  155.8450 C   0  0  0  0  0  0  0  0  0  0  0  0
  159.0020  213.3910  154.7060 O   0  0  0  0  0  0  0  0  0  0  0  0
  157.6490  213.4110  154.2700 C   0  0  0  0  0  2  0  0  0  0  0  0
  156.0070  211.7050  155.1460 C   0  0  0  0  0  0  0  0  0  0  0  0
  155.5140  212.5420  155.9480 O   0  0  0  0  0  0  0  0  0  0  0  0
  155.4190  210.3470  155.0520 C   0  0  0  0  0  1  0  0  0  0  0  0
  157.1000  212.0610  154.2980 N   0  0  0  0  0  2  0  0  0  0  0  0
  1  5  1  0  0  0  0
  2 21  1  1  0  0  0
  2  9  1  0  0  0  0
  3  8  1  0  0  0  0
  4  1  1  0  0  0  0
  5  9  1  0  0  0  0
  5  3  2  0  0  0  0
  6  1  2  0  0  0  0
  6  2  1  0  0  0  0
  7 12  1  0  0  0  0
  8 11  1  0  0  0  0
  9 10  1  0  0  0  0
 10  8  2  0  0  0  0
 10  7  1  0  0  0  0
 11 13  1  0  0  0  0
 11 35  1  1  0  0  0
 12 13  1  0  0  0  0
 14 20  1  0  0  0  0
 15 17  1  0  0  0  0
 16 14  2  0  0  0  0
 16 18  1  0  0  0  0
 17  6  1  0  0  0  0
 18 15  2  0  0  0  0
 20 19  1  0  0  0  0
 20 17  2  0  0  0  0
 21 23  1  0  0  0  0
 21 22  1  1  0  0  0
 23 24  1  0  0  0  0
 25 24  1  0  0  0  0
 26 28  2  0  0  0  0
 27 28  1  0  0  0  0
 28 25  1  0  0  0  0
 29 31  1  0  0  0  0
 30 31  2  0  0  0  0
 31 27  1  0  0  0  0
 32 31  2  0  0  0  0
 33  3  1  0  0  0  0
 34 33  2  0  0  0  0
 35 36  1  0  0  0  0
 36 39  1  0  0  0  0
 37 41  1  0  0  0  0
 37 38  1  0  0  0  0
 38 42  1  6  0  0  0
 38 39  1  0  0  0  0
 40 39  1  0  0  0  0
 41 44  1  1  0  0  0
 41 40  1  0  0  0  0
 44 43  2  0  0  0  0
 45 44  1  0  0  0  0
 46 50  1  0  0  0  0
 46 45  1  0  0  0  0
 47 48  2  0  0  0  0
 49 47  1  0  0  0  0
 50 47  1  0  0  0  0
M  END
>  <MODEL>
9

>  <REMARK>
 VINA RESULT:      -4.1      4.813      9.169
  Name = 
  15 active torsions:
  status: ('A' for Active; 'I' for Inactive)
    1  A    between atoms: C_2  and  C_5
    2  A    between atoms: C_2  and  C_27
    3  A    between atoms: C_9  and  C_11
    4  A    between atoms: C_12  and  C_31
    5  A    between atoms: C_12  and  C_46
    6  A    between atoms: C_18  and  C_25
    7  A    between atoms: N_24  and  S_30
    8  A    between atoms: C_26  and  N_41
    9  A    between atoms: C_26  and  C_43
   10  A    between atoms: C_27  and  N_41
   11  A    between atoms: N_29  and  C_31
   12  A    between atoms: C_32  and  N_38
   13  A    between atoms: C_32  and  O_39
   14  A    between atoms: C_35  and  C_37
   15  A    between atoms: C_35  and  O_39
                            x       y       z     vdW  Elec       q    Type
                         _______ _______ _______ _____ _____    ______ ____

>  <TORSDO>
F 15

$$$$
