=
 OpenBabel11042421053D

 36 40  0  0  1  0  0  0  0  0999 V2000
  158.5250  211.9810  156.7020 C   0  0  0  0  0  3  0  0  0  0  0  0
  159.2480  211.9090  155.4120 C   0  0  0  0  0  0  0  0  0  0  0  0
  156.1330  212.0220  154.7630 C   0  0  0  0  0  3  0  0  0  0  0  0
  159.2400  212.9330  151.9440 C   0  0  0  0  0  0  0  0  0  0  0  0
  159.5340  212.0130  153.0160 N   0  0  0  0  0  0  0  0  0  0  0  0
  154.8950  211.3100  156.5940 O   0  0  0  0  0  1  0  0  0  0  0  0
  160.2740  213.2680  150.9010 C   0  0  0  0  0  2  0  0  0  0  0  0
  157.6790  214.4530  150.7570 C   0  0  0  0  0  2  0  0  0  0  0  0
  157.2770  212.4660  153.9670 C   0  0  0  0  0  0  0  0  0  0  0  0
  157.8470  214.3630  148.4110 O   0  0  0  0  0  0  0  0  0  0  0  0
  158.3640  214.0680  149.4740 C   0  0  0  0  0  0  0  0  0  0  0  0
  159.6620  213.2920  149.4950 C   0  0  1  0  0  3  0  0  0  0  0  0
  158.6850  212.0420  154.1910 C   0  0  0  0  0  0  0  0  0  0  0  0
  158.0220  213.5000  151.8670 C   0  0  0  0  0  0  0  0  0  0  0  0
  161.5880  211.1100  152.3370 O   0  0  0  0  0  0  0  0  0  0  0  0
  157.2270  211.8950  156.9770 C   0  0  0  0  0  3  0  0  0  0  0  0
  156.1030  211.7300  156.0570 C   0  0  0  0  0  0  0  0  0  0  0  0
  156.9890  213.1500  152.8570 C   0  0  0  0  0  3  0  0  0  0  0  0
  160.4250  210.9080  152.7760 C   0  0  0  0  0  0  0  0  0  0  0  0
  162.3170  213.7080  146.7020 C   0  0  0  0  0  1  0  0  0  0  0  0
  160.6150  213.8620  148.5520 N   0  0  0  0  0  2  0  0  0  0  0  0
  161.3530  213.0610  147.6280 C   0  0  0  0  0  0  0  0  0  0  0  0
  161.1910  211.8130  147.5880 O   0  0  0  0  0  0  0  0  0  0  0  0
  160.6400  211.7460  155.4670 O   0  0  0  0  0  0  0  0  0  0  0  0
  162.6500  210.7120  155.9410 C   0  0  0  0  0  2  0  0  0  0  0  0
  162.4300  208.7900  157.2290 C   0  0  0  0  0  1  0  0  0  0  0  0
  161.3210  211.0710  156.5190 C   0  0  1  0  0  0  0  0  0  0  0  0
  160.5170  209.9890  156.8840 O   0  0  0  0  0  0  0  0  0  0  0  0
  161.6780  209.6040  156.2010 C   0  0  1  0  0  0  0  0  0  0  0  0
  159.9630  209.5050  153.0000 C   0  0  0  0  0  2  0  0  0  0  0  0
  161.1160  208.5280  152.8430 C   0  0  0  0  0  2  0  0  0  0  0  0
  160.7410  207.4620  151.9270 N   0  0  0  0  0  2  0  0  0  0  0  0
  161.9490  206.7090  151.6170 C   0  0  0  0  0  2  0  0  0  0  0  0
  162.6980  207.3830  150.5690 N   0  0  0  0  0  2  0  0  0  0  0  0
  162.0740  207.7650  149.3720 C   0  0  0  0  0  0  0  0  0  0  0  0
  161.5610  208.0810  148.3840 N   0  0  0  0  0  0  0  0  0  0  0  0
  1 16  2  0  0  0  0
  2 24  1  0  0  0  0
  2  1  1  0  0  0  0
  3 17  2  0  0  0  0
  4  5  1  0  0  0  0
  5 13  1  0  0  0  0
  7  4  1  0  0  0  0
  8 14  1  0  0  0  0
  9 13  1  0  0  0  0
  9  3  1  0  0  0  0
 10 11  2  0  0  0  0
 11 12  1  0  0  0  0
 11  8  1  0  0  0  0
 12 21  1  6  0  0  0
 12  7  1  0  0  0  0
 13  2  2  0  0  0  0
 14  4  2  0  0  0  0
 14 18  1  0  0  0  0
 15 19  2  0  0  0  0
 17  6  1  0  0  0  0
 17 16  1  0  0  0  0
 18  9  2  0  0  0  0
 19 30  1  0  0  0  0
 19  5  1  0  0  0  0
 20 22  1  0  0  0  0
 22 21  1  0  0  0  0
 23 22  2  0  0  0  0
 25 29  1  0  0  0  0
 25 27  1  0  0  0  0
 27 24  1  6  0  0  0
 27 28  1  0  0  0  0
 29 27  1  0  0  0  0
 29 28  1  0  0  0  0
 29 26  1  1  0  0  0
 31 30  1  0  0  0  0
 32 31  1  0  0  0  0
 33 32  1  0  0  0  0
 34 33  1  0  0  0  0
 35 34  1  0  0  0  0
 36 35  3  0  0  0  0
M  END
>  <MODEL>
1

>  <REMARK>
 VINA RESULT:      -5.1      0.000      0.000
  Name = 
  9 active torsions:
  status: ('A' for Active; 'I' for Inactive)
    1  A    between atoms: C_3  and  O_5
    2  A    between atoms: O_5  and  C_21
    3  A    between atoms: C_6  and  N_24
    4  A    between atoms: C_8  and  C_13
    5  A    between atoms: C_8  and  N_29
    6  A    between atoms: C_13  and  C_36
    7  A    between atoms: N_18  and  C_25
    8  A    between atoms: N_24  and  C_32
    9  A    between atoms: N_29  and  C_32
                            x       y       z     vdW  Elec       q    Type
                         _______ _______ _______ _____ _____    ______ ____

>  <TORSDO>
F 9

$$$$
=
 OpenBabel11042421053D

 36 40  0  0  1  0  0  0  0  0999 V2000
  159.9510  209.8080  154.6000 C   0  0  0  0  0  3  0  0  0  0  0  0
  160.2240  209.4700  153.1840 C   0  0  0  0  0  0  0  0  0  0  0  0
  161.6980  207.3020  154.9920 C   0  0  0  0  0  3  0  0  0  0  0  0
  160.7830  206.7840  150.8290 C   0  0  0  0  0  0  0  0  0  0  0  0
  160.9790  208.1240  151.3270 N   0  0  0  0  0  0  0  0  0  0  0  0
  162.0630  208.1370  157.1270 O   0  0  0  0  0  1  0  0  0  0  0  0
  160.4950  206.5300  149.3720 C   0  0  0  0  0  2  0  0  0  0  0  0
  160.6750  204.3310  151.1870 C   0  0  0  0  0  2  0  0  0  0  0  0
  161.1760  207.1940  153.6290 C   0  0  0  0  0  0  0  0  0  0  0  0
  161.6190  203.0630  149.4420 O   0  0  0  0  0  0  0  0  0  0  0  0
  161.2160  204.1580  149.7930 C   0  0  0  0  0  0  0  0  0  0  0  0
  161.2960  205.3330  148.8450 C   0  0  1  0  0  3  0  0  0  0  0  0
  160.8410  208.3480  152.7530 C   0  0  0  0  0  0  0  0  0  0  0  0
  160.8630  205.7400  151.6750 C   0  0  0  0  0  0  0  0  0  0  0  0
  161.1260  209.3660  149.3450 O   0  0  0  0  0  0  0  0  0  0  0  0
  160.4550  209.3110  155.7250 C   0  0  0  0  0  3  0  0  0  0  0  0
  161.4300  208.2340  155.8970 C   0  0  0  0  0  0  0  0  0  0  0  0
  161.1840  205.9720  153.0930 C   0  0  0  0  0  3  0  0  0  0  0  0
  161.6030  209.1090  150.4820 C   0  0  0  0  0  0  0  0  0  0  0  0
  161.1110  204.4540  145.0750 C   0  0  0  0  0  1  0  0  0  0  0  0
  160.8100  204.9590  147.5230 N   0  0  0  0  0  2  0  0  0  0  0  0
  161.6770  204.8280  146.3960 C   0  0  0  0  0  0  0  0  0  0  0  0
  162.9150  205.0220  146.5120 O   0  0  0  0  0  0  0  0  0  0  0  0
  159.7510  210.3630  152.2110 O   0  0  0  0  0  0  0  0  0  0  0  0
  158.2830  212.0400  152.8140 C   0  0  0  0  0  2  0  0  0  0  0  0
  158.5180  213.9820  151.5600 C   0  0  0  0  0  1  0  0  0  0  0  0
  159.6890  211.7730  152.3890 C   0  0  1  0  0  0  0  0  0  0  0  0
  160.0620  212.3450  151.1710 O   0  0  0  0  0  0  0  0  0  0  0  0
  158.6960  212.4850  151.4460 C   0  0  1  0  0  0  0  0  0  0  0  0
  162.8490  209.8030  150.9250 C   0  0  0  0  0  2  0  0  0  0  0  0
  162.9240  211.2020  150.3380 C   0  0  0  0  0  2  0  0  0  0  0  0
  162.8000  211.1390  148.8900 N   0  0  0  0  0  2  0  0  0  0  0  0
  162.3300  212.4410  148.4360 C   0  0  0  0  0  2  0  0  0  0  0  0
  161.2350  212.2710  147.4950 N   0  0  0  0  0  2  0  0  0  0  0  0
  160.0220  212.9550  147.6720 C   0  0  0  0  0  0  0  0  0  0  0  0
  159.0230  213.5210  147.8190 N   0  0  0  0  0  0  0  0  0  0  0  0
  1 16  2  0  0  0  0
  2  1  1  0  0  0  0
  3 17  2  0  0  0  0
  4  5  1  0  0  0  0
  4 14  2  0  0  0  0
  5 13  1  0  0  0  0
  7  4  1  0  0  0  0
  8 14  1  0  0  0  0
  9  3  1  0  0  0  0
 10 11  2  0  0  0  0
 11  8  1  0  0  0  0
 12 21  1  6  0  0  0
 12  7  1  0  0  0  0
 12 11  1  0  0  0  0
 13  2  2  0  0  0  0
 13  9  1  0  0  0  0
 14 18  1  0  0  0  0
 15 19  2  0  0  0  0
 16 17  1  0  0  0  0
 17  6  1  0  0  0  0
 18  9  2  0  0  0  0
 19 30  1  0  0  0  0
 19  5  1  0  0  0  0
 20 22  1  0  0  0  0
 22 23  2  0  0  0  0
 22 21  1  0  0  0  0
 24  2  1  0  0  0  0
 27 24  1  6  0  0  0
 27 25  1  0  0  0  0
 28 29  1  0  0  0  0
 28 27  1  0  0  0  0
 29 26  1  1  0  0  0
 29 27  1  0  0  0  0
 29 25  1  0  0  0  0
 31 30  1  0  0  0  0
 32 31  1  0  0  0  0
 33 32  1  0  0  0  0
 34 35  1  0  0  0  0
 34 33  1  0  0  0  0
 35 36  3  0  0  0  0
M  END
>  <MODEL>
2

>  <REMARK>
 VINA RESULT:      -4.5      2.925      6.809
  Name = 
  9 active torsions:
  status: ('A' for Active; 'I' for Inactive)
    1  A    between atoms: C_3  and  O_5
    2  A    between atoms: O_5  and  C_21
    3  A    between atoms: C_6  and  N_24
    4  A    between atoms: C_8  and  C_13
    5  A    between atoms: C_8  and  N_29
    6  A    between atoms: C_13  and  C_36
    7  A    between atoms: N_18  and  C_25
    8  A    between atoms: N_24  and  C_32
    9  A    between atoms: N_29  and  C_32
                            x       y       z     vdW  Elec       q    Type
                         _______ _______ _______ _____ _____    ______ ____

>  <TORSDO>
F 9

$$$$
=
 OpenBabel11042421053D

 36 40  0  0  1  0  0  0  0  0999 V2000
  161.9990  209.0150  150.3410 C   0  0  0  0  0  3  0  0  0  0  0  0
  161.4510  209.2670  151.6930 C   0  0  0  0  0  0  0  0  0  0  0  0
  161.3920  212.0250  150.1030 C   0  0  0  0  0  3  0  0  0  0  0  0
  159.0750  211.1940  153.6210 C   0  0  0  0  0  0  0  0  0  0  0  0
  160.3240  210.4950  153.4410 N   0  0  0  0  0  0  0  0  0  0  0  0
  162.9270  211.9920  148.3620 O   0  0  0  0  0  1  0  0  0  0  0  0
  158.2320  210.9760  154.8500 C   0  0  0  0  0  2  0  0  0  0  0  0
  157.3640  212.8140  152.8430 C   0  0  0  0  0  2  0  0  0  0  0  0
  160.5430  211.5490  151.1950 C   0  0  0  0  0  0  0  0  0  0  0  0
  156.4460  214.1410  154.5570 O   0  0  0  0  0  0  0  0  0  0  0  0
  157.1060  213.1520  154.2860 C   0  0  0  0  0  0  0  0  0  0  0  0
  157.6840  212.3010  155.3940 C   0  0  1  0  0  3  0  0  0  0  0  0
  160.8760  210.4190  152.1020 C   0  0  0  0  0  0  0  0  0  0  0  0
  158.6550  212.0610  152.6810 C   0  0  0  0  0  0  0  0  0  0  0  0
  160.6470  209.5190  155.5480 O   0  0  0  0  0  0  0  0  0  0  0  0
  162.3230  209.8570  149.3640 C   0  0  0  0  0  3  0  0  0  0  0  0
  162.2010  211.3140  149.3290 C   0  0  0  0  0  0  0  0  0  0  0  0
  159.4890  212.3140  151.4940 C   0  0  0  0  0  3  0  0  0  0  0  0
  161.1310  210.1800  154.5910 C   0  0  0  0  0  0  0  0  0  0  0  0
  154.5250  211.0290  157.2450 C   0  0  0  0  0  1  0  0  0  0  0  0
  156.6770  212.0370  156.4140 N   0  0  0  0  0  2  0  0  0  0  0  0
  155.5150  211.2470  156.1610 C   0  0  0  0  0  0  0  0  0  0  0  0
  155.3240  210.7310  155.0280 O   0  0  0  0  0  0  0  0  0  0  0  0
  161.4800  208.2000  152.6040 O   0  0  0  0  0  0  0  0  0  0  0  0
  160.9860  206.2150  153.6740 C   0  0  0  0  0  2  0  0  0  0  0  0
  161.2200  204.3400  152.3200 C   0  0  0  0  0  1  0  0  0  0  0  0
  160.8430  206.9470  152.3810 C   0  0  1  0  0  0  0  0  0  0  0  0
  161.4890  206.3610  151.2900 O   0  0  0  0  0  0  0  0  0  0  0  0
  161.7850  205.7300  152.5050 C   0  0  1  0  0  0  0  0  0  0  0  0
  162.5370  210.6740  154.6840 C   0  0  0  0  0  2  0  0  0  0  0  0
  162.8520  211.1390  156.0960 C   0  0  0  0  0  2  0  0  0  0  0  0
  164.2660  210.9490  156.3760 N   0  0  0  0  0  2  0  0  0  0  0  0
  164.6840  212.0300  157.2610 C   0  0  0  0  0  2  0  0  0  0  0  0
  166.1170  212.2410  157.1410 N   0  0  0  0  0  2  0  0  0  0  0  0
  166.6390  213.0850  156.1490 C   0  0  0  0  0  0  0  0  0  0  0  0
  167.0720  213.7800  155.3310 N   0  0  0  0  0  0  0  0  0  0  0  0
  1  2  1  0  0  0  0
  2 13  2  0  0  0  0
  2 24  1  0  0  0  0
  3  9  1  0  0  0  0
  4  7  1  0  0  0  0
  5  4  1  0  0  0  0
  5 19  1  0  0  0  0
  6 17  1  0  0  0  0
  7 12  1  0  0  0  0
  8 11  1  0  0  0  0
  9 18  2  0  0  0  0
  9 13  1  0  0  0  0
 11 10  2  0  0  0  0
 11 12  1  0  0  0  0
 12 21  1  1  0  0  0
 13  5  1  0  0  0  0
 14  8  1  0  0  0  0
 14  4  2  0  0  0  0
 16  1  2  0  0  0  0
 17 16  1  0  0  0  0
 17  3  2  0  0  0  0
 18 14  1  0  0  0  0
 19 30  1  0  0  0  0
 19 15  2  0  0  0  0
 22 21  1  0  0  0  0
 22 20  1  0  0  0  0
 23 22  2  0  0  0  0
 27 29  1  0  0  0  0
 27 24  1  1  0  0  0
 27 25  1  0  0  0  0
 28 27  1  0  0  0  0
 28 29  1  0  0  0  0
 29 26  1  6  0  0  0
 29 25  1  0  0  0  0
 30 31  1  0  0  0  0
 31 32  1  0  0  0  0
 32 33  1  0  0  0  0
 34 33  1  0  0  0  0
 35 34  1  0  0  0  0
 36 35  3  0  0  0  0
M  END
>  <MODEL>
3

>  <REMARK>
 VINA RESULT:      -4.2      3.004      6.951
  Name = 
  9 active torsions:
  status: ('A' for Active; 'I' for Inactive)
    1  A    between atoms: C_3  and  O_5
    2  A    between atoms: O_5  and  C_21
    3  A    between atoms: C_6  and  N_24
    4  A    between atoms: C_8  and  C_13
    5  A    between atoms: C_8  and  N_29
    6  A    between atoms: C_13  and  C_36
    7  A    between atoms: N_18  and  C_25
    8  A    between atoms: N_24  and  C_32
    9  A    between atoms: N_29  and  C_32
                            x       y       z     vdW  Elec       q    Type
                         _______ _______ _______ _____ _____    ______ ____

>  <TORSDO>
F 9

$$$$
