=
 OpenBabel11052410143D

 25 29  0  0  1  0  0  0  0  0999 V2000
  160.2860  201.3310  148.4240 O   0  0  0  0  0  0  0  0  0  0  0  0
  159.9460  210.7610  153.5340 C   0  0  0  0  0  0  0  0  0  0  0  0
  160.8940  210.2810  151.6190 C   0  0  0  0  0  3  0  0  0  0  0  0
  160.5640  202.4180  148.9940 C   0  0  0  0  0  0  0  0  0  0  0  0
  161.3640  205.8790  151.5870 C   0  0  0  0  0  0  0  0  0  0  0  0
  160.4900  208.6940  154.7190 N   0  0  0  0  0  0  0  0  0  0  0  0
  161.9810  207.7390  150.4990 C   0  0  0  0  0  2  0  0  0  0  0  0
  161.9940  208.0540  151.9750 C   0  0  2  0  0  3  0  0  0  0  0  0
  160.9340  203.5080  148.3440 O   0  0  0  0  0  0  0  0  0  0  0  0
  160.9670  204.5330  151.7040 C   0  0  0  0  0  3  0  0  0  0  0  0
  161.5110  206.7670  152.5570 C   0  0  2  0  0  3  0  0  0  0  0  0
  159.2390  211.4520  154.5590 N   0  0  0  0  0  1  0  0  0  0  0  0
  160.8570  203.8310  150.4990 C   0  0  0  0  0  0  0  0  0  0  0  0
  161.0770  209.1730  152.3380 C   0  0  0  0  0  0  0  0  0  0  0  0
  160.1550  211.2590  152.3620 N   0  0  0  0  0  0  0  0  0  0  0  0
  161.1200  204.4070  149.2770 C   0  0  0  0  0  0  0  0  0  0  0  0
  161.5140  205.7430  149.1490 C   0  0  0  0  0  0  0  0  0  0  0  0
  160.4980  209.4290  153.6460 C   0  0  0  0  0  0  0  0  0  0  0  0
  160.5070  202.5870  150.3050 O   0  0  0  0  0  0  0  0  0  0  0  0
  161.3680  206.4850  153.9870 C   0  0  0  0  0  3  0  0  0  0  0  0
  160.9580  207.3470  154.9220 C   0  0  0  0  0  3  0  0  0  0  0  0
  161.6300  206.4670  150.3540 C   0  0  0  0  0  0  0  0  0  0  0  0
  161.8410  206.3350  147.8170 C   0  0  0  0  0  2  0  0  0  0  0  0
  160.6140  206.5770  147.0710 N   0  0  0  0  0  2  0  0  0  0  0  0
  160.8180  205.9860  145.7610 C   0  0  0  0  0  1  0  0  0  0  0  0
  1  4  2  0  0  0  0
  2 18  1  0  0  0  0
  2 12  1  0  0  0  0
  3 14  2  0  0  0  0
  3 15  1  0  0  0  0
  4 19  1  0  0  0  0
  5 10  1  0  0  0  0
  5 11  1  0  0  0  0
  6 21  1  0  0  0  0
  8  7  1  6  0  0  0
  8 14  1  0  0  0  0
  8 11  1  0  0  0  0
  9  4  1  0  0  0  0
  9 16  1  0  0  0  0
 11 20  1  1  0  0  0
 13 10  2  0  0  0  0
 14 18  1  0  0  0  0
 15  2  2  0  0  0  0
 16 13  1  0  0  0  0
 17 16  2  0  0  0  0
 17 22  1  0  0  0  0
 18  6  2  0  0  0  0
 19 13  1  0  0  0  0
 20 21  2  0  0  0  0
 22  7  1  0  0  0  0
 22  5  2  0  0  0  0
 23 17  1  0  0  0  0
 24 23  1  0  0  0  0
 25 24  1  0  0  0  0
M  END
>  <MODEL>
1

>  <REMARK>
 VINA RESULT:      -9.4      0.000      0.000
  Name = 
  2 active torsions:
  status: ('A' for Active; 'I' for Inactive)
    1  A    between atoms: N_3  and  C_17
    2  A    between atoms: C_17  and  C_19
                            x       y       z     vdW  Elec       q    Type
                         _______ _______ _______ _____ _____    ______ ____

>  <TORSDO>
F 2

$$$$
=
 OpenBabel11052410143D

 25 29  0  0  1  0  0  0  0  0999 V2000
  160.5950  201.7740  149.2330 O   0  0  0  0  0  0  0  0  0  0  0  0
  159.1360  210.9720  154.5620 C   0  0  0  0  0  0  0  0  0  0  0  0
  159.8660  210.6820  152.5170 C   0  0  0  0  0  3  0  0  0  0  0  0
  160.7310  202.8980  149.7810 C   0  0  0  0  0  0  0  0  0  0  0  0
  161.1980  206.4650  152.3110 C   0  0  0  0  0  0  0  0  0  0  0  0
  160.2540  209.0650  155.6040 N   0  0  0  0  0  0  0  0  0  0  0  0
  161.2610  208.4040  151.1890 C   0  0  0  0  0  2  0  0  0  0  0  0
  161.4310  208.7250  152.6550 C   0  0  2  0  0  3  0  0  0  0  0  0
  160.7750  204.0350  149.1110 O   0  0  0  0  0  0  0  0  0  0  0  0
  161.1010  205.0670  152.4530 C   0  0  0  0  0  3  0  0  0  0  0  0
  161.3070  207.3700  153.2700 C   0  0  2  0  0  3  0  0  0  0  0  0
  158.4660  211.5130  155.6960 N   0  0  0  0  0  1  0  0  0  0  0  0
  160.9560  204.3500  151.2600 C   0  0  0  0  0  0  0  0  0  0  0  0
  160.3720  209.6380  153.1750 C   0  0  0  0  0  0  0  0  0  0  0  0
  159.0650  211.4950  153.3840 N   0  0  0  0  0  0  0  0  0  0  0  0
  160.9130  204.9590  150.0280 C   0  0  0  0  0  0  0  0  0  0  0  0
  161.0090  206.3470  149.8750 C   0  0  0  0  0  0  0  0  0  0  0  0
  159.9540  209.7810  154.5600 C   0  0  0  0  0  0  0  0  0  0  0  0
  160.8370  203.0590  151.0900 O   0  0  0  0  0  0  0  0  0  0  0  0
  161.4380  207.0740  154.6990 C   0  0  0  0  0  3  0  0  0  0  0  0
  161.0070  207.8420  155.7040 C   0  0  0  0  0  3  0  0  0  0  0  0
  161.1550  207.0870  151.0670 C   0  0  0  0  0  0  0  0  0  0  0  0
  161.0080  206.9850  148.5230 C   0  0  0  0  0  2  0  0  0  0  0  0
  162.3290  206.8710  147.9250 N   0  0  0  0  0  2  0  0  0  0  0  0
  162.1500  206.1200  146.6960 C   0  0  0  0  0  1  0  0  0  0  0  0
  1  4  2  0  0  0  0
  2 12  1  0  0  0  0
  3 14  2  0  0  0  0
  3 15  1  0  0  0  0
  4 19  1  0  0  0  0
  5 10  1  0  0  0  0
  5 11  1  0  0  0  0
  6 21  1  0  0  0  0
  8  7  1  6  0  0  0
  8 14  1  0  0  0  0
  8 11  1  0  0  0  0
  9  4  1  0  0  0  0
  9 16  1  0  0  0  0
 11 20  1  6  0  0  0
 13 10  2  0  0  0  0
 14 18  1  0  0  0  0
 15  2  2  0  0  0  0
 16 13  1  0  0  0  0
 17 16  2  0  0  0  0
 17 22  1  0  0  0  0
 18  2  1  0  0  0  0
 18  6  2  0  0  0  0
 19 13  1  0  0  0  0
 20 21  2  0  0  0  0
 22  7  1  0  0  0  0
 22  5  2  0  0  0  0
 23 17  1  0  0  0  0
 24 23  1  0  0  0  0
 25 24  1  0  0  0  0
M  END
>  <MODEL>
2

>  <REMARK>
 VINA RESULT:      -9.1      1.072      1.173
  Name = 
  2 active torsions:
  status: ('A' for Active; 'I' for Inactive)
    1  A    between atoms: N_3  and  C_17
    2  A    between atoms: C_17  and  C_19
                            x       y       z     vdW  Elec       q    Type
                         _______ _______ _______ _____ _____    ______ ____

>  <TORSDO>
F 2

$$$$
=
 OpenBabel11052410143D

 25 29  0  0  1  0  0  0  0  0999 V2000
  159.3490  212.5630  154.0930 O   0  0  0  0  0  0  0  0  0  0  0  0
  160.7090  202.8140  149.8210 C   0  0  0  0  0  0  0  0  0  0  0  0
  161.2650  203.5170  151.8200 C   0  0  0  0  0  3  0  0  0  0  0  0
  159.8140  211.4720  153.6730 C   0  0  0  0  0  0  0  0  0  0  0  0
  161.3450  207.9350  151.5540 C   0  0  0  0  0  0  0  0  0  0  0  0
  161.2740  204.8370  148.5720 N   0  0  0  0  0  0  0  0  0  0  0  0
  161.9190  206.2250  152.8850 C   0  0  0  0  0  2  0  0  0  0  0  0
  162.2170  205.8110  151.4640 C   0  0  2  0  0  3  0  0  0  0  0  0
  160.1560  210.4720  154.4650 O   0  0  0  0  0  0  0  0  0  0  0  0
  160.8620  209.2240  151.2580 C   0  0  0  0  0  3  0  0  0  0  0  0
  161.7340  207.0010  150.7020 C   0  0  2  0  0  3  0  0  0  0  0  0
  160.2540  201.9870  148.7550 N   0  0  0  0  0  1  0  0  0  0  0  0
  160.4840  209.9940  152.3640 C   0  0  0  0  0  0  0  0  0  0  0  0
  161.4750  204.5850  151.0500 C   0  0  0  0  0  0  0  0  0  0  0  0
  160.7530  202.4210  151.0500 N   0  0  0  0  0  2  0  0  0  0  0  0
  160.5770  209.5330  153.6560 C   0  0  0  0  0  0  0  0  0  0  0  0
  161.0560  208.2540  153.9620 C   0  0  0  0  0  0  0  0  0  0  0  0
  161.1570  204.1820  149.6900 C   0  0  0  0  0  0  0  0  0  0  0  0
  160.0010  211.2080  152.3900 O   0  0  0  0  0  0  0  0  0  0  0  0
  161.8200  207.1670  149.2490 C   0  0  0  0  0  2  0  0  0  0  0  0
  161.6540  206.2060  148.3360 C   0  0  0  0  0  3  0  0  0  0  0  0
  161.4410  207.4630  152.8600 C   0  0  0  0  0  0  0  0  0  0  0  0
  161.1940  207.7910  155.3760 C   0  0  0  0  0  2  0  0  0  0  0  0
  159.9050  207.3340  155.8730 N   0  0  0  0  0  2  0  0  0  0  0  0
  160.1160  206.9650  157.2610 C   0  0  0  0  0  1  0  0  0  0  0  0
  2 15  1  0  0  0  0
  4  1  2  0  0  0  0
  4  9  1  0  0  0  0
  5 22  1  0  0  0  0
  6 18  1  0  0  0  0
  8  7  1  1  0  0  0
 10  5  2  0  0  0  0
 10 13  1  0  0  0  0
 11 20  1  1  0  0  0
 11  8  1  0  0  0  0
 11  5  1  0  0  0  0
 12  2  1  0  0  0  0
 13 19  1  0  0  0  0
 13 16  2  0  0  0  0
 14  8  1  0  0  0  0
 14  3  2  0  0  0  0
 15  3  1  0  0  0  0
 16 17  1  0  0  0  0
 16  9  1  0  0  0  0
 17 23  1  0  0  0  0
 18  2  2  0  0  0  0
 18 14  1  0  0  0  0
 19  4  1  0  0  0  0
 21  6  2  0  0  0  0
 21 20  1  0  0  0  0
 22  7  1  0  0  0  0
 22 17  2  0  0  0  0
 23 24  1  0  0  0  0
 24 25  1  0  0  0  0
M  END
>  <MODEL>
3

>  <REMARK>
 VINA RESULT:      -8.8      3.778      7.442
  Name = 
  2 active torsions:
  status: ('A' for Active; 'I' for Inactive)
    1  A    between atoms: N_3  and  C_17
    2  A    between atoms: C_17  and  C_19
                            x       y       z     vdW  Elec       q    Type
                         _______ _______ _______ _____ _____    ______ ____

>  <TORSDO>
F 2

$$$$
=
 OpenBabel11052410143D

 25 29  0  0  1  0  0  0  0  0999 V2000
  161.7080  207.7700  156.5010 O   0  0  0  0  0  0  0  0  0  0  0  0
  162.6250  204.7290  146.2520 C   0  0  0  0  0  0  0  0  0  0  0  0
  161.8990  206.6360  147.0490 C   0  0  0  0  0  3  0  0  0  0  0  0
  161.5050  207.4910  155.2910 C   0  0  0  0  0  0  0  0  0  0  0  0
  160.8340  205.8390  151.2710 C   0  0  0  0  0  0  0  0  0  0  0  0
  161.6370  203.2520  147.9300 N   0  0  0  0  0  0  0  0  0  0  0  0
  160.6410  207.3750  149.6500 C   0  0  0  0  0  2  0  0  0  0  0  0
  160.4620  206.0180  149.0110 C   0  0  2  0  0  3  0  0  0  0  0  0
  161.3860  208.4030  154.3430 O   0  0  0  0  0  0  0  0  0  0  0  0
  161.0200  205.3810  152.5900 C   0  0  0  0  0  3  0  0  0  0  0  0
  160.6760  205.1110  150.1770 C   0  0  2  0  0  3  0  0  0  0  0  0
  163.2680  203.7640  145.4250 N   0  0  0  0  0  1  0  0  0  0  0  0
  161.2010  206.3800  153.5530 C   0  0  0  0  0  0  0  0  0  0  0  0
  161.4650  205.7450  147.9410 C   0  0  0  0  0  0  0  0  0  0  0  0
  162.6540  205.9970  146.0110 N   0  0  0  0  0  0  0  0  0  0  0  0
  161.1960  207.7200  153.2430 C   0  0  0  0  0  0  0  0  0  0  0  0
  161.0120  208.1850  151.9360 C   0  0  0  0  0  0  0  0  0  0  0  0
  161.8830  204.4390  147.4580 C   0  0  0  0  0  0  0  0  0  0  0  0
  161.3990  206.2520  154.8380 O   0  0  0  0  0  0  0  0  0  0  0  0
  160.5740  203.6500  150.1430 C   0  0  0  0  0  3  0  0  0  0  0  0
  160.9630  202.8580  149.1400 C   0  0  0  0  0  3  0  0  0  0  0  0
  160.8290  207.1930  150.9510 C   0  0  0  0  0  0  0  0  0  0  0  0
  160.9630  209.6470  151.6280 C   0  0  0  0  0  2  0  0  0  0  0  0
  162.2740  210.1030  151.1900 N   0  0  0  0  0  2  0  0  0  0  0  0
  162.0580  210.7980  149.9340 C   0  0  0  0  0  1  0  0  0  0  0  0
  2 18  1  0  0  0  0
  3 14  2  0  0  0  0
  4  1  2  0  0  0  0
  5 10  1  0  0  0  0
  6 21  1  0  0  0  0
  7 22  1  0  0  0  0
  8  7  1  1  0  0  0
  8 11  1  0  0  0  0
  9  4  1  0  0  0  0
 10 13  2  0  0  0  0
 11 20  1  1  0  0  0
 11  5  1  0  0  0  0
 12  2  1  0  0  0  0
 13 19  1  0  0  0  0
 14  8  1  0  0  0  0
 15  2  2  0  0  0  0
 15  3  1  0  0  0  0
 16 13  1  0  0  0  0
 16  9  1  0  0  0  0
 17 16  2  0  0  0  0
 18  6  2  0  0  0  0
 18 14  1  0  0  0  0
 19  4  1  0  0  0  0
 21 20  2  0  0  0  0
 22  5  2  0  0  0  0
 22 17  1  0  0  0  0
 23 17  1  0  0  0  0
 24 23  1  0  0  0  0
 25 24  1  0  0  0  0
M  END
>  <MODEL>
4

>  <REMARK>
 VINA RESULT:      -8.2      3.033      6.551
  Name = 
  2 active torsions:
  status: ('A' for Active; 'I' for Inactive)
    1  A    between atoms: N_3  and  C_17
    2  A    between atoms: C_17  and  C_19
                            x       y       z     vdW  Elec       q    Type
                         _______ _______ _______ _____ _____    ______ ____

>  <TORSDO>
F 2

$$$$
=
 OpenBabel11052410143D

 25 29  0  0  1  0  0  0  0  0999 V2000
  160.0790  200.9570  145.0100 O   0  0  0  0  0  0  0  0  0  0  0  0
  160.7870  208.9590  152.1230 C   0  0  0  0  0  0  0  0  0  0  0  0
  161.8030  208.7560  150.1930 C   0  0  0  0  0  3  0  0  0  0  0  0
  160.4750  201.8300  145.8250 C   0  0  0  0  0  0  0  0  0  0  0  0
  161.5870  204.4530  149.1750 C   0  0  0  0  0  0  0  0  0  0  0  0
  160.9070  206.6220  152.8270 N   0  0  0  0  0  0  0  0  0  0  0  0
  162.5700  206.3740  148.5700 C   0  0  0  0  0  2  0  0  0  0  0  0
  162.5120  206.3520  150.0790 C   0  0  2  0  0  3  0  0  0  0  0  0
  161.0610  202.9560  145.4600 O   0  0  0  0  0  0  0  0  0  0  0  0
  160.9780  203.2010  148.9630 C   0  0  0  0  0  3  0  0  0  0  0  0
  161.7900  205.0700  150.3280 C   0  0  2  0  0  3  0  0  0  0  0  0
  160.1150  209.5190  153.2470 N   0  0  0  0  0  1  0  0  0  0  0  0
  160.8600  202.8090  147.6250 C   0  0  0  0  0  0  0  0  0  0  0  0
  161.7530  207.5030  150.6470 C   0  0  0  0  0  0  0  0  0  0  0  0
  161.1660  209.6590  151.1070 N   0  0  0  0  0  0  0  0  0  0  0  0
  161.3060  203.5850  146.5810 C   0  0  0  0  0  0  0  0  0  0  0  0
  161.9120  204.8300  146.7800 C   0  0  0  0  0  0  0  0  0  0  0  0
  161.1160  207.5620  151.9520 C   0  0  0  0  0  0  0  0  0  0  0  0
  160.3380  201.7150  147.1360 O   0  0  0  0  0  0  0  0  0  0  0  0
  161.4890  204.5100  151.6480 C   0  0  0  0  0  3  0  0  0  0  0  0
  161.1430  205.2040  152.7360 C   0  0  0  0  0  3  0  0  0  0  0  0
  162.0400  205.2440  148.1230 C   0  0  0  0  0  0  0  0  0  0  0  0
  162.4340  205.6360  145.6340 C   0  0  0  0  0  2  0  0  0  0  0  0
  161.4150  205.7380  144.6000 N   0  0  0  0  0  2  0  0  0  0  0  0
  160.2420  206.2990  145.2470 C   0  0  0  0  0  1  0  0  0  0  0  0
  1  4  2  0  0  0  0
  2 12  1  0  0  0  0
  3 14  2  0  0  0  0
  3 15  1  0  0  0  0
  4 19  1  0  0  0  0
  5 11  1  0  0  0  0
  8  7  1  6  0  0  0
  8 11  1  0  0  0  0
  8 14  1  0  0  0  0
  9  4  1  0  0  0  0
  9 16  1  0  0  0  0
 10  5  1  0  0  0  0
 11 20  1  1  0  0  0
 13 10  2  0  0  0  0
 14 18  1  0  0  0  0
 15  2  2  0  0  0  0
 16 17  2  0  0  0  0
 16 13  1  0  0  0  0
 17 22  1  0  0  0  0
 18  2  1  0  0  0  0
 18  6  2  0  0  0  0
 19 13  1  0  0  0  0
 20 21  2  0  0  0  0
 21  6  1  0  0  0  0
 22  7  1  0  0  0  0
 22  5  2  0  0  0  0
 23 17  1  0  0  0  0
 24 25  1  0  0  0  0
 24 23  1  0  0  0  0
M  END
>  <MODEL>
5

>  <REMARK>
 VINA RESULT:      -7.8      1.816      2.727
  Name = 
  2 active torsions:
  status: ('A' for Active; 'I' for Inactive)
    1  A    between atoms: N_3  and  C_17
    2  A    between atoms: C_17  and  C_19
                            x       y       z     vdW  Elec       q    Type
                         _______ _______ _______ _____ _____    ______ ____

>  <TORSDO>
F 2

$$$$
=
 OpenBabel11052410143D

 25 29  0  0  1  0  0  0  0  0999 V2000
  162.3850  205.6920  146.6980 O   0  0  0  0  0  0  0  0  0  0  0  0
  162.2940  210.0000  156.5250 C   0  0  0  0  0  0  0  0  0  0  0  0
  161.8070  207.9490  155.9300 C   0  0  0  0  0  3  0  0  0  0  0  0
  162.0720  206.0900  147.8500 C   0  0  0  0  0  0  0  0  0  0  0  0
  160.9700  208.1300  151.5860 C   0  0  0  0  0  0  0  0  0  0  0  0
  161.2940  211.1610  154.6210 N   0  0  0  0  0  2  0  0  0  0  0  0
  160.8080  206.7850  153.3720 C   0  0  0  0  0  2  0  0  0  0  0  0
  160.4590  208.1820  153.8260 C   0  0  2  0  0  3  0  0  0  0  0  0
  161.9720  205.2890  148.8950 O   0  0  0  0  0  0  0  0  0  0  0  0
  161.2050  208.4440  150.2340 C   0  0  0  0  0  3  0  0  0  0  0  0
  160.6690  208.9620  152.5700 C   0  0  2  0  0  3  0  0  0  0  0  0
  162.7850  211.1160  157.2610 N   0  0  0  0  0  1  0  0  0  0  0  0
  161.5450  207.3620  149.4150 C   0  0  0  0  0  0  0  0  0  0  0  0
  161.3550  208.6800  154.9100 C   0  0  0  0  0  0  0  0  0  0  0  0
  162.4240  208.7790  156.9220 N   0  0  0  0  0  2  0  0  0  0  0  0
  161.6430  206.0740  149.8890 C   0  0  0  0  0  0  0  0  0  0  0  0
  161.4120  205.7510  151.2310 C   0  0  0  0  0  0  0  0  0  0  0  0
  161.6150  210.0690  155.2500 C   0  0  0  0  0  0  0  0  0  0  0  0
  161.8200  207.3570  148.1370 O   0  0  0  0  0  0  0  0  0  0  0  0
  160.4300  210.3990  152.4160 C   0  0  0  0  0  3  0  0  0  0  0  0
  160.6720  211.3400  153.3340 C   0  0  0  0  0  3  0  0  0  0  0  0
  161.0690  206.8290  152.0720 C   0  0  0  0  0  0  0  0  0  0  0  0
  161.4770  204.3380  151.7150 C   0  0  0  0  0  2  0  0  0  0  0  0
  160.3140  203.6020  151.2430 N   0  0  0  0  0  2  0  0  0  0  0  0
  160.8290  202.4120  150.5910 C   0  0  0  0  0  1  0  0  0  0  0  0
  1  4  2  0  0  0  0
  2 15  1  0  0  0  0
  2 12  1  0  0  0  0
  3 15  1  0  0  0  0
  4 19  1  0  0  0  0
  4  9  1  0  0  0  0
  5 22  1  0  0  0  0
  5 11  1  0  0  0  0
  6 18  1  0  0  0  0
  8  7  1  6  0  0  0
  8 14  1  0  0  0  0
  9 16  1  0  0  0  0
 10  5  2  0  0  0  0
 11 20  1  6  0  0  0
 11  8  1  0  0  0  0
 13 16  2  0  0  0  0
 13 10  1  0  0  0  0
 14 18  1  0  0  0  0
 14  3  2  0  0  0  0
 16 17  1  0  0  0  0
 17 23  1  0  0  0  0
 17 22  2  0  0  0  0
 18  2  2  0  0  0  0
 19 13  1  0  0  0  0
 20 21  2  0  0  0  0
 21  6  1  0  0  0  0
 22  7  1  0  0  0  0
 24 23  1  0  0  0  0
 25 24  1  0  0  0  0
M  END
>  <MODEL>
6

>  <REMARK>
 VINA RESULT:      -7.7      2.172      3.878
  Name = 
  2 active torsions:
  status: ('A' for Active; 'I' for Inactive)
    1  A    between atoms: N_3  and  C_17
    2  A    between atoms: C_17  and  C_19
                            x       y       z     vdW  Elec       q    Type
                         _______ _______ _______ _____ _____    ______ ____

>  <TORSDO>
F 2

$$$$
=
 OpenBabel11052410143D

 25 29  0  0  1  0  0  0  0  0999 V2000
  161.0880  204.2290  147.1000 O   0  0  0  0  0  0  0  0  0  0  0  0
  159.2540  211.1020  155.1330 C   0  0  0  0  0  0  0  0  0  0  0  0
  160.5580  211.3570  153.3920 C   0  0  0  0  0  3  0  0  0  0  0  0
  161.1920  205.0250  148.0690 C   0  0  0  0  0  0  0  0  0  0  0  0
  161.2980  207.2740  151.8460 C   0  0  0  0  0  0  0  0  0  0  0  0
  159.7050  208.7390  155.5630 N   0  0  0  0  0  0  0  0  0  0  0  0
  161.9830  209.3990  151.6490 C   0  0  0  0  0  2  0  0  0  0  0  0
  161.7130  209.1460  153.1130 C   0  0  2  0  0  3  0  0  0  0  0  0
  161.6040  206.2740  147.9440 O   0  0  0  0  0  0  0  0  0  0  0  0
  160.9710  205.9840  151.3870 C   0  0  0  0  0  3  0  0  0  0  0  0
  161.2130  207.7390  153.0830 C   0  0  2  0  0  3  0  0  0  0  0  0
  158.3340  211.3710  156.1860 N   0  0  0  0  0  1  0  0  0  0  0  0
  161.1220  205.7790  150.0120 C   0  0  0  0  0  0  0  0  0  0  0  0
  160.6780  210.0590  153.6780 C   0  0  0  0  0  0  0  0  0  0  0  0
  159.6390  211.9970  154.2860 N   0  0  0  0  0  0  0  0  0  0  0  0
  161.5630  206.7630  149.1580 C   0  0  0  0  0  0  0  0  0  0  0  0
  161.8910  208.0480  149.6030 C   0  0  0  0  0  0  0  0  0  0  0  0
  159.8590  209.8190  154.8550 C   0  0  0  0  0  0  0  0  0  0  0  0
  160.8900  204.6970  149.3150 O   0  0  0  0  0  0  0  0  0  0  0  0
  160.8350  206.9490  154.2570 C   0  0  0  0  0  3  0  0  0  0  0  0
  160.2110  207.4090  155.3460 C   0  0  0  0  0  3  0  0  0  0  0  0
  161.7440  208.2750  150.9880 C   0  0  0  0  0  0  0  0  0  0  0  0
  162.4130  209.0890  148.6660 C   0  0  0  0  0  2  0  0  0  0  0  0
  161.4620  210.1860  148.5690 N   0  0  0  0  0  2  0  0  0  0  0  0
  162.2490  211.4050  148.6270 C   0  0  0  0  0  1  0  0  0  0  0  0
  1  4  2  0  0  0  0
  2 12  1  0  0  0  0
  3 14  2  0  0  0  0
  3 15  1  0  0  0  0
  4 19  1  0  0  0  0
  5 11  1  0  0  0  0
  8  7  1  6  0  0  0
  8 14  1  0  0  0  0
  9  4  1  0  0  0  0
  9 16  1  0  0  0  0
 10  5  1  0  0  0  0
 11  8  1  0  0  0  0
 11 20  1  1  0  0  0
 13 10  2  0  0  0  0
 14 18  1  0  0  0  0
 15  2  2  0  0  0  0
 16 17  2  0  0  0  0
 16 13  1  0  0  0  0
 17 22  1  0  0  0  0
 18  2  1  0  0  0  0
 18  6  2  0  0  0  0
 19 13  1  0  0  0  0
 20 21  2  0  0  0  0
 21  6  1  0  0  0  0
 22  7  1  0  0  0  0
 22  5  2  0  0  0  0
 23 17  1  0  0  0  0
 24 25  1  0  0  0  0
 24 23  1  0  0  0  0
M  END
>  <MODEL>
7

>  <REMARK>
 VINA RESULT:      -7.6      1.735      2.460
  Name = 
  2 active torsions:
  status: ('A' for Active; 'I' for Inactive)
    1  A    between atoms: N_3  and  C_17
    2  A    between atoms: C_17  and  C_19
                            x       y       z     vdW  Elec       q    Type
                         _______ _______ _______ _____ _____    ______ ____

>  <TORSDO>
F 2

$$$$
=
 OpenBabel11052410143D

 25 29  0  0  1  0  0  0  0  0999 V2000
  159.8960  201.2840  149.3050 O   0  0  0  0  0  0  0  0  0  0  0  0
  161.0150  211.9420  149.8490 C   0  0  0  0  0  0  0  0  0  0  0  0
  161.8520  210.5560  148.3730 C   0  0  0  0  0  3  0  0  0  0  0  0
  160.3390  202.4600  149.3660 C   0  0  0  0  0  0  0  0  0  0  0  0
  161.6760  206.5530  150.2570 C   0  0  0  0  0  0  0  0  0  0  0  0
  161.2720  210.5360  151.8310 N   0  0  0  0  0  0  0  0  0  0  0  0
  162.5380  207.6560  148.5060 C   0  0  0  0  0  2  0  0  0  0  0  0
  162.6220  208.5730  149.7040 C   0  0  2  0  0  3  0  0  0  0  0  0
  160.8520  203.1000  148.3300 O   0  0  0  0  0  0  0  0  0  0  0  0
  161.0890  205.4590  150.9210 C   0  0  0  0  0  3  0  0  0  0  0  0
  161.9660  207.7440  150.7580 C   0  0  2  0  0  3  0  0  0  0  0  0
  160.4330  213.0980  150.4430 N   0  0  0  0  0  1  0  0  0  0  0  0
  160.8590  204.3280  150.1300 C   0  0  0  0  0  0  0  0  0  0  0  0
  161.8830  209.8540  149.5060 C   0  0  0  0  0  0  0  0  0  0  0  0
  161.2750  211.8510  148.5880 N   0  0  0  0  0  0  0  0  0  0  0  0
  161.1820  204.2780  148.7940 C   0  0  0  0  0  0  0  0  0  0  0  0
  161.7650  205.3590  148.1240 C   0  0  0  0  0  0  0  0  0  0  0  0
  161.3690  210.7270  150.5480 C   0  0  0  0  0  0  0  0  0  0  0  0
  160.3280  203.1840  150.4730 O   0  0  0  0  0  0  0  0  0  0  0  0
  161.8080  208.1290  152.1620 C   0  0  0  0  0  3  0  0  0  0  0  0
  161.5430  209.3580  152.6150 C   0  0  0  0  0  3  0  0  0  0  0  0
  162.0040  206.5090  148.9050 C   0  0  0  0  0  0  0  0  0  0  0  0
  162.1520  205.2670  146.6830 C   0  0  0  0  0  2  0  0  0  0  0  0
  161.0610  205.7480  145.8490 N   0  0  0  0  0  2  0  0  0  0  0  0
  161.2070  205.0760  144.5710 C   0  0  0  0  0  1  0  0  0  0  0  0
  1  4  2  0  0  0  0
  2 12  1  0  0  0  0
  2 18  1  0  0  0  0
  3 15  1  0  0  0  0
  3 14  2  0  0  0  0
  4 19  1  0  0  0  0
  5 11  1  0  0  0  0
  5 10  1  0  0  0  0
  6 21  1  0  0  0  0
  7 22  1  0  0  0  0
  8  7  1  6  0  0  0
  8 11  1  0  0  0  0
  9 16  1  0  0  0  0
  9  4  1  0  0  0  0
 11 20  1  1  0  0  0
 13 19  1  0  0  0  0
 13 10  2  0  0  0  0
 14  8  1  0  0  0  0
 14 18  1  0  0  0  0
 15  2  2  0  0  0  0
 16 13  1  0  0  0  0
 17 16  2  0  0  0  0
 17 22  1  0  0  0  0
 18  6  2  0  0  0  0
 20 21  2  0  0  0  0
 22  5  2  0  0  0  0
 23 17  1  0  0  0  0
 24 23  1  0  0  0  0
 25 24  1  0  0  0  0
M  END
>  <MODEL>
8

>  <REMARK>
 VINA RESULT:      -7.2      1.634      2.412
  Name = 
  2 active torsions:
  status: ('A' for Active; 'I' for Inactive)
    1  A    between atoms: N_3  and  C_17
    2  A    between atoms: C_17  and  C_19
                            x       y       z     vdW  Elec       q    Type
                         _______ _______ _______ _____ _____    ______ ____

>  <TORSDO>
F 2

$$$$
=
 OpenBabel11052410143D

 25 29  0  0  1  0  0  0  0  0999 V2000
  161.0460  213.7940  148.8250 O   0  0  0  0  0  0  0  0  0  0  0  0
  160.4740  203.1390  149.9560 C   0  0  0  0  0  0  0  0  0  0  0  0
  161.1760  204.6280  151.4010 C   0  0  0  0  0  3  0  0  0  0  0  0
  161.2900  212.5760  149.0280 C   0  0  0  0  0  0  0  0  0  0  0  0
  162.0940  208.2530  149.0310 C   0  0  0  0  0  0  0  0  0  0  0  0
  161.3990  204.1520  147.9340 N   0  0  0  0  0  2  0  0  0  0  0  0
  162.3470  207.3510  151.0670 C   0  0  0  0  0  2  0  0  0  0  0  0
  162.5440  206.2460  150.0570 C   0  0  2  0  0  3  0  0  0  0  0  0
  161.4440  212.0550  150.2320 O   0  0  0  0  0  0  0  0  0  0  0  0
  161.8620  209.2890  148.1060 C   0  0  0  0  0  3  0  0  0  0  0  0
  162.2880  206.9690  148.7760 C   0  0  2  0  0  3  0  0  0  0  0  0
  159.8570  201.9860  149.3920 N   0  0  0  0  0  1  0  0  0  0  0  0
  161.6510  210.5550  148.6630 C   0  0  0  0  0  0  0  0  0  0  0  0
  161.5770  205.1230  150.2300 C   0  0  0  0  0  0  0  0  0  0  0  0
  160.4560  203.4020  151.2200 N   0  0  0  0  0  2  0  0  0  0  0  0
  161.6690  210.7830  150.0200 C   0  0  0  0  0  0  0  0  0  0  0  0
  161.8990  209.7610  150.9470 C   0  0  0  0  0  0  0  0  0  0  0  0
  161.1720  204.1640  149.2150 C   0  0  0  0  0  0  0  0  0  0  0  0
  161.4080  211.6870  148.0550 O   0  0  0  0  0  0  0  0  0  0  0  0
  162.3870  206.3800  147.4380 C   0  0  0  0  0  3  0  0  0  0  0  0
  162.0300  205.1390  147.0960 C   0  0  0  0  0  3  0  0  0  0  0  0
  162.1140  208.4760  150.4040 C   0  0  0  0  0  0  0  0  0  0  0  0
  161.9630  210.0380  152.4140 C   0  0  0  0  0  2  0  0  0  0  0  0
  160.6410  209.8820  153.0020 N   0  0  0  0  0  2  0  0  0  0  0  0
  160.8260  209.0810  154.1990 C   0  0  0  0  0  1  0  0  0  0  0  0
  1  4  2  0  0  0  0
  2 15  1  0  0  0  0
  4  9  1  0  0  0  0
  5 22  1  0  0  0  0
  6 18  1  0  0  0  0
  8 14  1  0  0  0  0
  8  7  1  1  0  0  0
 10 13  1  0  0  0  0
 10  5  2  0  0  0  0
 11 20  1  6  0  0  0
 11  5  1  0  0  0  0
 11  8  1  0  0  0  0
 12  2  1  0  0  0  0
 13 16  2  0  0  0  0
 14  3  2  0  0  0  0
 15  3  1  0  0  0  0
 16  9  1  0  0  0  0
 16 17  1  0  0  0  0
 17 23  1  0  0  0  0
 18  2  2  0  0  0  0
 18 14  1  0  0  0  0
 19 13  1  0  0  0  0
 19  4  1  0  0  0  0
 21 20  2  0  0  0  0
 21  6  1  0  0  0  0
 22 17  2  0  0  0  0
 22  7  1  0  0  0  0
 23 24  1  0  0  0  0
 24 25  1  0  0  0  0
M  END
>  <MODEL>
9

>  <REMARK>
 VINA RESULT:      -6.7      3.807      7.223
  Name = 
  2 active torsions:
  status: ('A' for Active; 'I' for Inactive)
    1  A    between atoms: N_3  and  C_17
    2  A    between atoms: C_17  and  C_19
                            x       y       z     vdW  Elec       q    Type
                         _______ _______ _______ _____ _____    ______ ____

>  <TORSDO>
F 2

$$$$
