=
 OpenBabel11042420063D

 58 61  0  0  1  0  0  0  0  0999 V2000
  160.3830  207.8360  150.9160 F   0  0  0  0  0  0  0  0  0  0  0  0
  162.0450  210.5210  154.0600 C   0  0  0  0  0  1  0  0  0  0  0  0
  161.9240  210.9530  149.7820 C   0  0  2  0  0  3  0  0  0  0  0  0
  161.6120  209.7800  151.7560 C   0  0  0  0  0  0  0  0  0  0  0  0
  161.6030  209.5010  153.0670 C   0  0  0  0  0  0  0  0  0  0  0  0
  161.2140  208.8850  150.7320 N   0  0  0  0  0  0  0  0  0  0  0  0
  161.3450  209.5670  149.4520 C   0  0  2  0  0  3  0  0  0  0  0  0
  162.0370  211.0240  151.2340 N   0  0  0  0  0  2  0  0  0  0  0  0
  161.1850  208.1660  153.5810 C   0  0  0  0  0  1  0  0  0  0  0  0
  160.9960  212.0470  149.2770 C   0  0  0  0  0  2  0  0  0  0  0  0
  161.4190  212.4900  147.8870 C   0  0  2  0  0  3  0  0  0  0  0  0
  162.7700  214.4030  147.6180 O   0  0  0  0  0  0  0  0  0  0  0  0
  162.7050  213.2400  147.9780 C   0  0  0  0  0  3  0  0  0  0  0  0
  160.3340  213.3760  147.2860 C   0  0  0  0  0  2  0  0  0  0  0  0
  158.3530  212.7380  145.9290 C   0  0  0  0  0  1  0  0  0  0  0  0
  159.8700  212.8430  145.9410 C   0  0  1  0  0  3  0  0  0  0  0  0
  160.3300  213.7970  144.8530 C   0  0  0  0  0  2  0  0  0  0  0  0
  159.6190  213.5470  143.6480 O   0  0  0  0  0  0  0  0  0  0  0  0
  161.3400  212.3380  142.6990 O   0  0  0  0  0  0  0  0  0  0  0  0
  159.3230  212.3950  141.5250 N   0  0  0  0  0  2  0  0  0  0  0  0
  160.1480  212.7460  142.6370 C   0  0  0  0  0  0  0  0  0  0  0  0
  164.0670  212.0500  138.4480 C   0  0  0  0  0  2  0  0  0  0  0  0
  162.2580  210.4250  138.7400 C   0  0  0  0  0  2  0  0  0  0  0  0
  163.3190  211.2140  139.4780 C   0  0  2  0  0  3  0  0  0  0  0  0
  161.1210  212.6550  138.7920 C   0  0  2  0  0  3  0  0  0  0  0  0
  161.3250  214.0890  139.3090 C   0  0  0  0  0  2  0  0  0  0  0  0
  159.7760  211.5340  140.4410 C   0  0  1  0  0  3  0  0  0  0  0  0
  159.6920  212.2870  139.1040 C   0  0  2  0  0  3  0  0  0  0  0  0
  162.7320  214.4530  139.7740 C   0  0  0  0  0  2  0  0  0  0  0  0
  161.8470  211.6070  139.6060 C   0  0  1  0  0  0  0  0  0  0  0  0
  163.7630  214.2330  138.6810 C   0  0  0  0  0  2  0  0  0  0  0  0
  161.1100  211.1350  140.6950 O   0  0  0  0  0  0  0  0  0  0  0  0
  164.6080  213.1860  139.0540 O   0  0  0  0  0  0  0  0  0  0  0  0
  159.1110  211.3870  138.0090 C   0  0  1  0  0  3  0  0  0  0  0  0
  158.9300  210.0930  138.5020 O   0  0  0  0  0  1  0  0  0  0  0  0
  157.7740  211.9330  137.5310 C   0  0  0  0  0  2  0  0  0  0  0  0
  156.6370  211.2440  138.2610 C   0  0  0  0  0  2  0  0  0  0  0  0
  155.4180  211.7030  137.7630 O   0  0  0  0  0  1  0  0  0  0  0  0
  162.3320  208.8340  148.5540 C   0  0  0  0  0  2  0  0  0  0  0  0
  161.7550  207.5280  148.0410 C   0  0  0  0  0  2  0  0  0  0  0  0
  162.3540  206.3630  148.8070 C   0  0  0  0  0  2  0  0  0  0  0  0
  162.9850  204.4080  146.8380 O   0  0  0  0  0  0  0  0  0  0  0  0
  161.5870  205.1510  148.5550 N   0  0  0  0  0  2  0  0  0  0  0  0
  161.9580  204.2080  147.5430 C   0  0  0  0  0  0  0  0  0  0  0  0
  161.0140  202.5300  146.1190 N   0  0  0  0  0  0  0  0  0  0  0  0
  161.1470  203.0000  147.3260 C   0  0  0  0  0  0  0  0  0  0  0  0
  160.2290  201.3460  145.7750 C   0  0  1  0  0  3  0  0  0  0  0  0
  159.7690  201.4370  144.3320 C   0  0  0  0  0  2  0  0  0  0  0  0
  158.9520  202.5560  144.1640 O   0  0  0  0  0  1  0  0  0  0  0  0
  161.6930  199.1860  146.0670 N   0  0  0  0  0  0  0  0  0  0  0  0
  161.0480  200.1380  145.9380 C   0  0  0  0  0  0  0  0  0  0  0  0
  160.4590  202.3520  148.4910 C   0  0  0  0  0  2  0  0  0  0  0  0
  161.3770  201.3370  149.1410 C   0  0  0  0  0  2  0  0  0  0  0  0
  160.9320  201.1060  150.5700 C   0  0  0  0  0  2  0  0  0  0  0  0
  161.7180  201.9990  151.5190 C   0  0  0  0  0  2  0  0  0  0  0  0
  160.8560  203.1360  152.0610 C   0  0  0  0  0  2  0  0  0  0  0  0
  161.6430  204.4350  152.1610 C   0  0  0  0  0  2  0  0  0  0  0  0
  161.0140  205.3630  153.1860 C   0  0  0  0  0  1  0  0  0  0  0  0
  3 10  1  1  0  0  0
  3  8  1  0  0  0  0
  4  5  2  0  0  0  0
  5  9  1  0  0  0  0
  5  2  1  0  0  0  0
  6  1  1  0  0  0  0
  6  4  1  0  0  0  0
  7 39  1  6  0  0  0
  7  3  1  0  0  0  0
  7  6  1  0  0  0  0
  8  4  1  0  0  0  0
 11 14  1  1  0  0  0
 11 13  1  0  0  0  0
 11 10  1  0  0  0  0
 12 13  2  0  0  0  0
 16 15  1  1  0  0  0
 16 14  1  0  0  0  0
 17 16  1  0  0  0  0
 18 17  1  0  0  0  0
 20 21  1  0  0  0  0
 21 19  2  0  0  0  0
 21 18  1  0  0  0  0
 22 33  1  0  0  0  0
 23 24  1  0  0  0  0
 24 22  1  6  0  0  0
 24 30  1  0  0  0  0
 25 28  1  0  0  0  0
 25 26  1  1  0  0  0
 25 30  1  0  0  0  0
 26 29  1  0  0  0  0
 27 32  1  0  0  0  0
 27 20  1  1  0  0  0
 28 34  1  6  0  0  0
 28 27  1  0  0  0  0
 30 23  1  6  0  0  0
 30 32  1  0  0  0  0
 31 33  1  0  0  0  0
 31 29  1  0  0  0  0
 34 35  1  1  0  0  0
 36 34  1  0  0  0  0
 36 37  1  0  0  0  0
 38 37  1  0  0  0  0
 40 39  1  0  0  0  0
 40 41  1  0  0  0  0
 42 44  2  0  0  0  0
 43 41  1  0  0  0  0
 44 43  1  0  0  0  0
 45 46  2  0  0  0  0
 46 44  1  0  0  0  0
 46 52  1  0  0  0  0
 47 48  1  6  0  0  0
 47 51  1  0  0  0  0
 47 45  1  0  0  0  0
 49 48  1  0  0  0  0
 51 50  3  0  0  0  0
 52 53  1  0  0  0  0
 53 54  1  0  0  0  0
 54 55  1  0  0  0  0
 55 56  1  0  0  0  0
 56 57  1  0  0  0  0
 57 58  1  0  0  0  0
M  END
>  <MODEL>
1

>  <REMARK>
 VINA RESULT:      -4.8      0.000      0.000
  Name = 
  26 active torsions:
  status: ('A' for Active; 'I' for Inactive)
    1  A    between atoms: C_1  and  C_30
    2  A    between atoms: C_1  and  C_45
    3  A    between atoms: C_1  and  C_58
    4  A    between atoms: CA_3  and  N_29
    5  A    between atoms: CA_3  and  C_33
    6  A    between atoms: CA_3  and  C_56
    7  A    between atoms: C_9  and  C_24
    8  A    between atoms: C_9  and  C_36
    9  A    between atoms: N_10  and  C_19
   10  A    between atoms: C_12  and  C_39
   11  A    between atoms: C_12  and  C_48
   12  A    between atoms: C_15  and  C_36
   13  A    between atoms: C_16  and  C_58
   14  A    between atoms: N_22  and  C_55
   15  A    between atoms: C_23  and  C_49
   16  A    between atoms: C_25  and  C_41
   17  A    between atoms: C_25  and  C_51
   18  A    between atoms: C_26  and  C_34
   19  A    between atoms: C_30  and  C_31
   20  A    between atoms: C_31  and  C_43
   21  A    between atoms: C_34  and  C_39
   22  A    between atoms: C_38  and  O_53
   23  A    between atoms: C_42  and  C_48
   24  A    between atoms: C_42  and  C_49
   25  A    between atoms: C_43  and  O_53
   26  A    between atoms: C_51  and  C_55
                            x       y       z     vdW  Elec       q    Type
                         _______ _______ _______ _____ _____    ______ ____

>  <TORSDO>
F 26

$$$$
=
 OpenBabel11042420063D

 58 61  0  0  1  0  0  0  0  0999 V2000
  159.5080  206.5850  149.0930 F   0  0  0  0  0  0  0  0  0  0  0  0
  163.2070  208.9060  148.2070 C   0  0  0  0  0  1  0  0  0  0  0  0
  162.3400  204.7220  147.7200 C   0  0  2  0  0  3  0  0  0  0  0  0
  161.8510  206.8690  148.4410 C   0  0  0  0  0  0  0  0  0  0  0  0
  161.9890  208.1820  148.6700 C   0  0  0  0  0  0  0  0  0  0  0  0
  160.7380  206.0870  148.8390 N   0  0  0  0  0  0  0  0  0  0  0  0
  160.9520  204.7210  148.3850 C   0  0  2  0  0  3  0  0  0  0  0  0
  162.8250  206.0960  147.7680 N   0  0  0  0  0  2  0  0  0  0  0  0
  160.9600  208.9600  149.4170 C   0  0  0  0  0  1  0  0  0  0  0  0
  162.2340  204.2550  146.2770 C   0  0  0  0  0  2  0  0  0  0  0  0
  160.7800  204.0140  145.9100 C   0  0  2  0  0  3  0  0  0  0  0  0
  160.7830  201.6580  146.0060 O   0  0  0  0  0  0  0  0  0  0  0  0
  160.6410  202.6530  145.3150 C   0  0  0  0  0  3  0  0  0  0  0  0
  160.3260  205.0730  144.9140 C   0  0  0  0  0  2  0  0  0  0  0  0
  162.7160  204.7580  144.3120 C   0  0  0  0  0  1  0  0  0  0  0  0
  161.5070  205.6690  144.1660 C   0  0  1  0  0  3  0  0  0  0  0  0
  161.1380  205.8050  142.7010 C   0  0  0  0  0  2  0  0  0  0  0  0
  162.2910  206.1180  141.9310 O   0  0  0  0  0  0  0  0  0  0  0  0
  162.5950  206.1600  139.6440 O   0  0  0  0  0  0  0  0  0  0  0  0
  161.6470  208.0610  140.6140 N   0  0  0  0  0  2  0  0  0  0  0  0
  162.1970  206.7440  140.6900 C   0  0  0  0  0  0  0  0  0  0  0  0
  162.9600  213.2670  138.8070 C   0  0  0  0  0  2  0  0  0  0  0  0
  162.3600  211.2620  137.5340 C   0  0  0  0  0  2  0  0  0  0  0  0
  163.3650  211.8280  138.5150 C   0  0  2  0  0  3  0  0  0  0  0  0
  160.9880  211.1190  139.6220 C   0  0  2  0  0  3  0  0  0  0  0  0
  161.0740  211.4060  141.1320 C   0  0  0  0  0  2  0  0  0  0  0  0
  161.4760  208.7790  139.3590 C   0  0  1  0  0  3  0  0  0  0  0  0
  160.3130  209.7780  139.4810 C   0  0  2  0  0  3  0  0  0  0  0  0
  162.2530  212.2550  141.5980 C   0  0  0  0  0  2  0  0  0  0  0  0
  162.3260  210.8110  138.9860 C   0  0  1  0  0  0  0  0  0  0  0  0
  162.2960  213.6000  140.8950 C   0  0  0  0  0  2  0  0  0  0  0  0
  162.6760  209.4600  139.0490 O   0  0  0  0  0  0  0  0  0  0  0  0
  163.4200  213.6490  140.0690 O   0  0  0  0  0  0  0  0  0  0  0  0
  159.4330  209.7430  138.2280 C   0  0  1  0  0  3  0  0  0  0  0  0
  159.3180  208.4310  137.7620 O   0  0  0  0  0  1  0  0  0  0  0  0
  158.0470  210.2850  138.5430 C   0  0  0  0  0  2  0  0  0  0  0  0
  156.9840  209.3160  138.0610 C   0  0  0  0  0  2  0  0  0  0  0  0
  155.8260  210.0190  137.7310 O   0  0  0  0  0  1  0  0  0  0  0  0
  160.9850  203.7630  149.5670 C   0  0  0  0  0  2  0  0  0  0  0  0
  160.4290  204.4090  150.8230 C   0  0  0  0  0  2  0  0  0  0  0  0
  161.4180  204.2560  151.9640 C   0  0  0  0  0  2  0  0  0  0  0  0
  162.4630  206.9000  151.8460 O   0  0  0  0  0  0  0  0  0  0  0  0
  161.1930  205.2900  152.9630 N   0  0  0  0  0  2  0  0  0  0  0  0
  161.7520  206.6030  152.8450 C   0  0  0  0  0  0  0  0  0  0  0  0
  161.2350  207.2220  155.1000 N   0  0  0  0  0  0  0  0  0  0  0  0
  161.4950  207.6120  153.8850 C   0  0  0  0  0  0  0  0  0  0  0  0
  160.9560  208.1250  156.2150 C   0  0  1  0  0  3  0  0  0  0  0  0
  162.0640  209.1550  156.3310 C   0  0  0  0  0  2  0  0  0  0  0  0
  161.5740  210.3140  156.9350 O   0  0  0  0  0  1  0  0  0  0  0  0
  158.6780  209.3680  155.8110 N   0  0  0  0  0  0  0  0  0  0  0  0
  159.6820  208.8210  155.9890 C   0  0  0  0  0  0  0  0  0  0  0  0
  161.5000  209.0670  153.5210 C   0  0  0  0  0  2  0  0  0  0  0  0
  160.3440  209.3750  152.5900 C   0  0  0  0  0  2  0  0  0  0  0  0
  159.7630  210.7270  152.9500 C   0  0  0  0  0  2  0  0  0  0  0  0
  160.3580  211.8110  152.0630 C   0  0  0  0  0  2  0  0  0  0  0  0
  159.2710  212.6110  151.3510 C   0  0  0  0  0  2  0  0  0  0  0  0
  159.8600  213.7570  150.5410 C   0  0  0  0  0  2  0  0  0  0  0  0
  160.7880  213.2260  149.4610 C   0  0  0  0  0  1  0  0  0  0  0  0
  2  5  1  0  0  0  0
  3 10  1  6  0  0  0
  3  8  1  0  0  0  0
  3  7  1  0  0  0  0
  4  5  2  0  0  0  0
  4  6  1  0  0  0  0
  5  9  1  0  0  0  0
  6  1  1  0  0  0  0
  7  6  1  0  0  0  0
  7 39  1  1  0  0  0
  8  4  1  0  0  0  0
 11 14  1  6  0  0  0
 11 10  1  0  0  0  0
 13 11  1  0  0  0  0
 13 12  2  0  0  0  0
 16 15  1  6  0  0  0
 16 14  1  0  0  0  0
 17 16  1  0  0  0  0
 18 17  1  0  0  0  0
 19 21  2  0  0  0  0
 20 21  1  0  0  0  0
 21 18  1  0  0  0  0
 22 33  1  0  0  0  0
 24 23  1  6  0  0  0
 24 22  1  0  0  0  0
 24 30  1  0  0  0  0
 25 26  1  1  0  0  0
 26 29  1  0  0  0  0
 27 28  1  0  0  0  0
 27 20  1  1  0  0  0
 28 34  1  6  0  0  0
 28 25  1  0  0  0  0
 30 23  1  6  0  0  0
 30 32  1  0  0  0  0
 30 25  1  0  0  0  0
 31 29  1  0  0  0  0
 32 27  1  0  0  0  0
 33 31  1  0  0  0  0
 34 35  1  1  0  0  0
 34 36  1  0  0  0  0
 37 36  1  0  0  0  0
 38 37  1  0  0  0  0
 39 40  1  0  0  0  0
 40 41  1  0  0  0  0
 41 43  1  0  0  0  0
 42 44  2  0  0  0  0
 44 43  1  0  0  0  0
 44 46  1  0  0  0  0
 45 47  1  0  0  0  0
 46 45  2  0  0  0  0
 47 51  1  6  0  0  0
 47 48  1  0  0  0  0
 48 49  1  0  0  0  0
 50 51  3  0  0  0  0
 52 46  1  0  0  0  0
 53 54  1  0  0  0  0
 53 52  1  0  0  0  0
 55 54  1  0  0  0  0
 56 55  1  0  0  0  0
 57 56  1  0  0  0  0
 58 57  1  0  0  0  0
M  END
>  <MODEL>
2

>  <REMARK>
 VINA RESULT:      -3.0      2.948      7.330
  Name = 
  26 active torsions:
  status: ('A' for Active; 'I' for Inactive)
    1  A    between atoms: C_1  and  C_30
    2  A    between atoms: C_1  and  C_45
    3  A    between atoms: C_1  and  C_58
    4  A    between atoms: CA_3  and  N_29
    5  A    between atoms: CA_3  and  C_33
    6  A    between atoms: CA_3  and  C_56
    7  A    between atoms: C_9  and  C_24
    8  A    between atoms: C_9  and  C_36
    9  A    between atoms: N_10  and  C_19
   10  A    between atoms: C_12  and  C_39
   11  A    between atoms: C_12  and  C_48
   12  A    between atoms: C_15  and  C_36
   13  A    between atoms: C_16  and  C_58
   14  A    between atoms: N_22  and  C_55
   15  A    between atoms: C_23  and  C_49
   16  A    between atoms: C_25  and  C_41
   17  A    between atoms: C_25  and  C_51
   18  A    between atoms: C_26  and  C_34
   19  A    between atoms: C_30  and  C_31
   20  A    between atoms: C_31  and  C_43
   21  A    between atoms: C_34  and  C_39
   22  A    between atoms: C_38  and  O_53
   23  A    between atoms: C_42  and  C_48
   24  A    between atoms: C_42  and  C_49
   25  A    between atoms: C_43  and  O_53
   26  A    between atoms: C_51  and  C_55
                            x       y       z     vdW  Elec       q    Type
                         _______ _______ _______ _____ _____    ______ ____

>  <TORSDO>
F 26

$$$$
=
 OpenBabel11042420063D

 58 61  0  0  1  0  0  0  0  0999 V2000
  162.1020  200.6010  148.3250 F   0  0  0  0  0  0  0  0  0  0  0  0
  160.0610  200.8020  144.3690 C   0  0  0  0  0  1  0  0  0  0  0  0
  161.1950  203.9260  147.1000 C   0  0  2  0  0  3  0  0  0  0  0  0
  160.9260  201.7080  146.4840 C   0  0  0  0  0  0  0  0  0  0  0  0
  160.6080  200.6360  145.7450 C   0  0  0  0  0  0  0  0  0  0  0  0
  161.4490  201.6610  147.8000 N   0  0  0  0  0  0  0  0  0  0  0  0
  161.6850  203.0270  148.2480 C   0  0  2  0  0  3  0  0  0  0  0  0
  160.7630  203.0370  146.0280 N   0  0  0  0  0  2  0  0  0  0  0  0
  160.7550  199.2490  146.2720 C   0  0  0  0  0  1  0  0  0  0  0  0
  162.3230  204.8210  146.6130 C   0  0  0  0  0  2  0  0  0  0  0  0
  161.7780  205.8840  145.6740 C   0  0  2  0  0  3  0  0  0  0  0  0
  159.4700  206.1410  145.2690 O   0  0  0  0  0  0  0  0  0  0  0  0
  160.3820  206.2270  146.0730 C   0  0  0  0  0  3  0  0  0  0  0  0
  161.8020  205.3580  144.2440 C   0  0  0  0  0  2  0  0  0  0  0  0
  163.5500  206.6120  143.0010 C   0  0  0  0  0  1  0  0  0  0  0  0
  162.0560  206.4780  143.2490 C   0  0  1  0  0  3  0  0  0  0  0  0
  161.3450  206.1480  141.9490 C   0  0  0  0  0  2  0  0  0  0  0  0
  162.2520  206.2310  140.8590 O   0  0  0  0  0  0  0  0  0  0  0  0
  162.0290  206.7800  138.6290 O   0  0  0  0  0  0  0  0  0  0  0  0
  161.9680  208.5440  140.1560 N   0  0  0  0  0  2  0  0  0  0  0  0
  162.0810  207.1580  139.8320 C   0  0  0  0  0  0  0  0  0  0  0  0
  162.8860  214.1310  139.9560 C   0  0  0  0  0  2  0  0  0  0  0  0
  162.4540  212.5400  138.1450 C   0  0  0  0  0  2  0  0  0  0  0  0
  163.4040  212.8710  139.2760 C   0  0  2  0  0  3  0  0  0  0  0  0
  161.0820  211.7030  140.0640 C   0  0  2  0  0  3  0  0  0  0  0  0
  161.1340  211.5490  141.5940 C   0  0  0  0  0  2  0  0  0  0  0  0
  161.7510  209.5790  139.1550 C   0  0  1  0  0  3  0  0  0  0  0  0
  160.5140  210.4140  139.5240 C   0  0  2  0  0  3  0  0  0  0  0  0
  162.2400  212.3100  142.3180 C   0  0  0  0  0  2  0  0  0  0  0  0
  162.4440  211.6880  139.4050 C   0  0  1  0  0  0  0  0  0  0  0  0
  162.1830  213.8000  142.0310 C   0  0  0  0  0  2  0  0  0  0  0  0
  162.8970  210.4060  139.0880 O   0  0  0  0  0  0  0  0  0  0  0  0
  163.3070  214.1660  141.2870 O   0  0  0  0  0  0  0  0  0  0  0  0
  159.6480  210.6780  138.2880 C   0  0  1  0  0  3  0  0  0  0  0  0
  160.4410  210.6630  137.1380 O   0  0  0  0  0  1  0  0  0  0  0  0
  158.5680  209.6130  138.1650 C   0  0  0  0  0  2  0  0  0  0  0  0
  157.2450  210.1490  138.6800 C   0  0  0  0  0  2  0  0  0  0  0  0
  157.3770  211.5030  138.9830 O   0  0  0  0  0  1  0  0  0  0  0  0
  160.8570  203.3340  149.4870 C   0  0  0  0  0  2  0  0  0  0  0  0
  160.9490  204.7990  149.8710 C   0  0  0  0  0  2  0  0  0  0  0  0
  161.3860  204.9270  151.3190 C   0  0  0  0  0  2  0  0  0  0  0  0
  160.7480  205.7560  153.9660 O   0  0  0  0  0  0  0  0  0  0  0  0
  161.2660  206.3100  151.7570 N   0  0  0  0  0  2  0  0  0  0  0  0
  160.9380  206.6600  153.1070 C   0  0  0  0  0  0  0  0  0  0  0  0
  161.1750  208.4320  154.7000 N   0  0  0  0  0  0  0  0  0  0  0  0
  160.8270  208.0740  153.4970 C   0  0  0  0  0  0  0  0  0  0  0  0
  161.1020  209.8010  155.2080 C   0  0  1  0  0  3  0  0  0  0  0  0
  160.2970  209.8280  156.4940 C   0  0  0  0  0  2  0  0  0  0  0  0
  159.2920  208.8610  156.4440 O   0  0  0  0  0  1  0  0  0  0  0  0
  163.5190  210.7050  155.6980 N   0  0  0  0  0  0  0  0  0  0  0  0
  162.4540  210.3060  155.4820 C   0  0  0  0  0  0  0  0  0  0  0  0
  160.2790  209.0700  152.5190 C   0  0  0  0  0  2  0  0  0  0  0  0
  161.3820  209.5580  151.6000 C   0  0  0  0  0  2  0  0  0  0  0  0
  161.5020  211.0630  151.7230 C   0  0  0  0  0  2  0  0  0  0  0  0
  160.1380  211.7180  151.5620 C   0  0  0  0  0  2  0  0  0  0  0  0
  159.7320  212.4810  152.8200 C   0  0  0  0  0  2  0  0  0  0  0  0
  158.5820  213.4400  152.5450 C   0  0  0  0  0  2  0  0  0  0  0  0
  158.3390  213.5680  151.0500 C   0  0  0  0  0  1  0  0  0  0  0  0
  2  5  1  0  0  0  0
  3 10  1  6  0  0  0
  3  7  1  0  0  0  0
  4  6  1  0  0  0  0
  5  9  1  0  0  0  0
  5  4  2  0  0  0  0
  6  7  1  0  0  0  0
  6  1  1  0  0  0  0
  7 39  1  1  0  0  0
  8  4  1  0  0  0  0
  8  3  1  0  0  0  0
 11 14  1  6  0  0  0
 11 13  1  0  0  0  0
 11 10  1  0  0  0  0
 12 13  2  0  0  0  0
 16 15  1  6  0  0  0
 16 14  1  0  0  0  0
 17 16  1  0  0  0  0
 18 17  1  0  0  0  0
 19 21  2  0  0  0  0
 21 20  1  0  0  0  0
 21 18  1  0  0  0  0
 22 33  1  0  0  0  0
 24 23  1  6  0  0  0
 24 30  1  0  0  0  0
 24 22  1  0  0  0  0
 25 26  1  1  0  0  0
 26 29  1  0  0  0  0
 27 28  1  0  0  0  0
 27 20  1  1  0  0  0
 28 34  1  6  0  0  0
 28 25  1  0  0  0  0
 30 23  1  6  0  0  0
 30 25  1  0  0  0  0
 31 29  1  0  0  0  0
 32 27  1  0  0  0  0
 32 30  1  0  0  0  0
 33 31  1  0  0  0  0
 34 35  1  6  0  0  0
 36 34  1  0  0  0  0
 36 37  1  0  0  0  0
 37 38  1  0  0  0  0
 39 40  1  0  0  0  0
 40 41  1  0  0  0  0
 41 43  1  0  0  0  0
 43 44  1  0  0  0  0
 44 46  1  0  0  0  0
 44 42  2  0  0  0  0
 45 47  1  0  0  0  0
 46 45  2  0  0  0  0
 47 51  1  1  0  0  0
 47 48  1  0  0  0  0
 49 48  1  0  0  0  0
 51 50  3  0  0  0  0
 52 46  1  0  0  0  0
 53 54  1  0  0  0  0
 53 52  1  0  0  0  0
 55 54  1  0  0  0  0
 55 56  1  0  0  0  0
 57 56  1  0  0  0  0
 58 57  1  0  0  0  0
M  END
>  <MODEL>
3

>  <REMARK>
 VINA RESULT:      -1.9      3.293      7.875
  Name = 
  26 active torsions:
  status: ('A' for Active; 'I' for Inactive)
    1  A    between atoms: C_1  and  C_30
    2  A    between atoms: C_1  and  C_45
    3  A    between atoms: C_1  and  C_58
    4  A    between atoms: CA_3  and  N_29
    5  A    between atoms: CA_3  and  C_33
    6  A    between atoms: CA_3  and  C_56
    7  A    between atoms: C_9  and  C_24
    8  A    between atoms: C_9  and  C_36
    9  A    between atoms: N_10  and  C_19
   10  A    between atoms: C_12  and  C_39
   11  A    between atoms: C_12  and  C_48
   12  A    between atoms: C_15  and  C_36
   13  A    between atoms: C_16  and  C_58
   14  A    between atoms: N_22  and  C_55
   15  A    between atoms: C_23  and  C_49
   16  A    between atoms: C_25  and  C_41
   17  A    between atoms: C_25  and  C_51
   18  A    between atoms: C_26  and  C_34
   19  A    between atoms: C_30  and  C_31
   20  A    between atoms: C_31  and  C_43
   21  A    between atoms: C_34  and  C_39
   22  A    between atoms: C_38  and  O_53
   23  A    between atoms: C_42  and  C_48
   24  A    between atoms: C_42  and  C_49
   25  A    between atoms: C_43  and  O_53
   26  A    between atoms: C_51  and  C_55
                            x       y       z     vdW  Elec       q    Type
                         _______ _______ _______ _____ _____    ______ ____

>  <TORSDO>
F 26

$$$$
