=
 OpenBabel11052412123D

 41 44  0  0  1  0  0  0  0  0999 V2000
  159.8960  213.4580  151.3160 N   0  0  0  0  0  0  0  0  0  0  0  0
  160.6510  208.8380  156.3600 C   0  0  0  0  0  3  0  0  0  0  0  0
  160.2870  210.1350  154.3270 C   0  0  0  0  0  0  0  0  0  0  0  0
  161.6460  210.3440  150.7730 C   0  0  0  0  0  3  0  0  0  0  0  0
  159.5000  211.0680  155.0960 C   0  0  0  0  0  0  0  0  0  0  0  0
  159.2590  213.6580  152.4760 N   0  0  0  0  0  0  0  0  0  0  0  0
  159.2600  210.8100  156.4540 C   0  0  0  0  0  3  0  0  0  0  0  0
  161.2790  209.6560  151.9740 C   0  0  0  0  0  0  0  0  0  0  0  0
  159.0270  212.2750  154.5140 C   0  0  0  0  0  0  0  0  0  0  0  0
  161.5560  208.3310  152.0480 C   0  0  1  0  0  3  0  0  0  0  0  0
  159.8230  209.6990  157.0780 C   0  0  0  0  0  3  0  0  0  0  0  0
  159.3920  212.5170  153.1950 C   0  0  0  0  0  0  0  0  0  0  0  0
  161.2110  211.6090  150.4890 N   0  0  0  0  0  2  0  0  0  0  0  0
  160.3850  212.2030  151.3770 C   0  0  0  0  0  0  0  0  0  0  0  0
  160.0790  211.6090  152.5170 N   0  0  0  0  0  0  0  0  0  0  0  0
  160.5240  210.4100  152.9420 C   0  0  0  0  0  0  0  0  0  0  0  0
  160.8880  209.0660  155.0040 C   0  0  0  0  0  3  0  0  0  0  0  0
  161.3200  206.2200  153.3260 C   0  0  0  0  0  1  0  0  0  0  0  0
  160.8460  207.4950  152.9170 O   0  0  0  0  0  0  0  0  0  0  0  0
  159.0300  214.2060  156.0980 C   0  0  0  0  0  1  0  0  0  0  0  0
  158.3030  213.2550  155.2680 N   0  0  0  0  0  0  0  0  0  0  0  0
  156.8400  213.2860  155.1960 C   0  0  1  0  0  3  0  0  0  0  0  0
  156.3930  212.9500  153.9140 O   0  0  0  0  0  0  0  0  0  0  0  0
  155.6520  214.0560  153.4920 C   0  0  0  0  0  1  0  0  0  0  0  0
  156.1930  212.3910  156.2550 C   0  0  0  0  0  2  0  0  0  0  0  0
  155.6840  211.1340  155.6910 C   0  0  0  0  0  0  0  0  0  0  0  0
  155.2670  210.1010  155.2320 C   0  0  0  0  0  3  0  0  0  0  0  0
  162.5610  207.7120  151.1050 C   0  0  0  0  0  2  0  0  0  0  0  0
  161.9860  207.2080  148.6830 C   0  0  0  0  0  0  0  0  0  0  0  0
  162.7050  208.1560  148.2650 O   0  0  0  0  0  0  0  0  0  0  0  0
  161.8880  206.9260  150.0810 N   0  0  0  0  0  2  0  0  0  0  0  0
  161.2250  206.3800  147.7070 C   0  0  0  0  0  2  0  0  0  0  0  0
  162.1430  205.6750  146.8260 N   0  0  0  0  0  2  0  0  0  0  0  0
  161.9350  204.2450  147.0210 C   0  0  2  0  0  3  0  0  0  0  0  0
  160.9410  204.4770  145.0030 O   0  0  0  0  0  1  0  0  0  0  0  0
  161.6660  203.6020  145.7410 N   0  0  0  0  0  2  0  0  0  0  0  0
  160.7880  204.0020  147.9990 C   0  0  0  0  0  2  0  0  0  0  0  0
  160.8420  203.6450  150.4490 C   0  0  0  0  0  1  0  0  0  0  0  0
  161.1750  203.0290  149.1030 C   0  0  1  0  0  3  0  0  0  0  0  0
  161.2820  200.6850  148.2570 C   0  0  0  0  0  1  0  0  0  0  0  0
  160.4060  201.7330  148.9170 C   0  0  0  0  0  2  0  0  0  0  0  0
  1 14  2  0  0  0  0
  1  6  1  0  0  0  0
  2 11  1  0  0  0  0
  3 17  1  0  0  0  0
  3  5  1  0  0  0  0
  4  8  2  0  0  0  0
  5  7  1  0  0  0  0
  6 12  2  0  0  0  0
  7 11  2  0  0  0  0
  8 10  1  0  0  0  0
  8 16  1  0  0  0  0
  9  5  2  0  0  0  0
  9 21  1  0  0  0  0
 10 28  1  6  0  0  0
 10 19  1  0  0  0  0
 12  9  1  0  0  0  0
 13  4  1  0  0  0  0
 13 14  1  0  0  0  0
 14 15  1  0  0  0  0
 15 16  1  0  0  0  0
 15 12  1  0  0  0  0
 16  3  2  0  0  0  0
 17  2  2  0  0  0  0
 19 18  1  0  0  0  0
 21 20  1  0  0  0  0
 22 21  1  0  0  0  0
 22 25  1  1  0  0  0
 23 22  1  0  0  0  0
 24 23  1  0  0  0  0
 26 25  1  0  0  0  0
 27 26  3  0  0  0  0
 29 31  1  0  0  0  0
 30 29  2  0  0  0  0
 31 28  1  0  0  0  0
 32 29  1  0  0  0  0
 33 34  1  0  0  0  0
 33 32  1  0  0  0  0
 34 37  1  1  0  0  0
 35 36  1  0  0  0  0
 36 34  1  0  0  0  0
 37 39  1  0  0  0  0
 39 38  1  1  0  0  0
 40 41  1  0  0  0  0
 41 39  1  0  0  0  0
M  END
>  <MODEL>
1

>  <REMARK>
 VINA RESULT:      -7.1      0.000      0.000
  Name = 
  15 active torsions:
  status: ('A' for Active; 'I' for Inactive)
    1  A    between atoms: C_6  and  C_11
    2  A    between atoms: C_6  and  C_25
    3  A    between atoms: C_11  and  N_13
    4  A    between atoms: C_11  and  N_31
    5  A    between atoms: C_14  and  N_39
    6  A    between atoms: O_15  and  C_18
    7  A    between atoms: C_16  and  O_24
    8  A    between atoms: C_16  and  C_34
    9  A    between atoms: C_16  and  N_39
   10  A    between atoms: C_17  and  C_40
   11  A    between atoms: C_18  and  C_37
   12  A    between atoms: C_23  and  C_25
   13  A    between atoms: N_31  and  C_40
   14  A    between atoms: C_34  and  C_38
   15  A    between atoms: N_35  and  C_37
                            x       y       z     vdW  Elec       q    Type
                         _______ _______ _______ _____ _____    ______ ____

>  <TORSDO>
F 15

$$$$
=
 OpenBabel11052412123D

 41 44  0  0  1  0  0  0  0  0999 V2000
  160.9210  212.3300  151.1640 N   0  0  0  0  0  0  0  0  0  0  0  0
  161.7400  205.8390  153.2960 C   0  0  0  0  0  3  0  0  0  0  0  0
  161.2860  207.9610  152.1850 C   0  0  0  0  0  0  0  0  0  0  0  0
  162.2210  209.7740  148.9650 C   0  0  0  0  0  3  0  0  0  0  0  0
  160.7110  208.4500  153.4140 C   0  0  0  0  0  0  0  0  0  0  0  0
  160.4570  211.9820  152.3700 N   0  0  0  0  0  0  0  0  0  0  0  0
  160.6080  207.5890  154.5160 C   0  0  0  0  0  3  0  0  0  0  0  0
  161.9250  208.6140  149.7520 C   0  0  0  0  0  0  0  0  0  0  0  0
  160.3140  209.8090  153.5420 C   0  0  0  0  0  0  0  0  0  0  0  0
  162.0530  207.4030  149.1580 C   0  0  1  0  0  3  0  0  0  0  0  0
  161.1100  206.2900  154.4550 C   0  0  0  0  0  3  0  0  0  0  0  0
  160.5430  210.6320  152.4460 C   0  0  0  0  0  0  0  0  0  0  0  0
  161.9040  211.0390  149.3750 N   0  0  0  0  0  2  0  0  0  0  0  0
  161.2660  211.1750  150.5560 C   0  0  0  0  0  0  0  0  0  0  0  0
  161.0330  210.1260  151.3240 N   0  0  0  0  0  0  0  0  0  0  0  0
  161.3850  208.8500  151.0670 C   0  0  0  0  0  0  0  0  0  0  0  0
  161.8370  206.6720  152.1820 C   0  0  0  0  0  3  0  0  0  0  0  0
  160.0500  205.9420  149.2160 C   0  0  0  0  0  1  0  0  0  0  0  0
  161.3610  206.2870  149.6420 O   0  0  0  0  0  0  0  0  0  0  0  0
  158.3830  210.6380  154.8930 C   0  0  0  0  0  1  0  0  0  0  0  0
  159.8040  210.3440  154.7700 N   0  0  0  0  0  0  0  0  0  0  0  0
  160.7200  210.5880  155.8870 C   0  0  1  0  0  3  0  0  0  0  0  0
  161.8750  211.2470  155.4540 O   0  0  0  0  0  0  0  0  0  0  0  0
  162.9280  210.5660  156.0680 C   0  0  0  0  0  1  0  0  0  0  0  0
  160.0460  211.3530  157.0280 C   0  0  0  0  0  2  0  0  0  0  0  0
  160.1080  212.8080  156.8400 C   0  0  0  0  0  0  0  0  0  0  0  0
  160.1580  214.0010  156.6820 C   0  0  0  0  0  3  0  0  0  0  0  0
  162.8590  207.2620  147.8880 C   0  0  0  0  0  2  0  0  0  0  0  0
  162.7090  205.2760  146.3100 C   0  0  0  0  0  0  0  0  0  0  0  0
  163.8630  204.8790  146.6240 O   0  0  0  0  0  0  0  0  0  0  0  0
  162.1470  206.4430  146.9170 N   0  0  0  0  0  2  0  0  0  0  0  0
  161.9270  204.5260  145.2900 C   0  0  0  0  0  2  0  0  0  0  0  0
  160.7710  203.8960  145.9100 N   0  0  0  0  0  2  0  0  0  0  0  0
  161.2160  202.6430  146.5080 C   0  0  2  0  0  3  0  0  0  0  0  0
  159.7280  202.0350  144.9180 O   0  0  0  0  0  1  0  0  0  0  0  0
  160.5490  201.5190  145.8640 N   0  0  0  0  0  2  0  0  0  0  0  0
  160.9460  202.6430  148.0110 C   0  0  0  0  0  2  0  0  0  0  0  0
  161.7710  200.3090  148.0150 C   0  0  0  0  0  1  0  0  0  0  0  0
  160.7010  201.2410  148.5490 C   0  0  1  0  0  3  0  0  0  0  0  0
  160.9080  202.6980  150.5620 C   0  0  0  0  0  1  0  0  0  0  0  0
  160.7450  201.2740  150.0660 C   0  0  0  0  0  2  0  0  0  0  0  0
  1  6  1  0  0  0  0
  2 11  1  0  0  0  0
  3  5  1  0  0  0  0
  4 13  1  0  0  0  0
  4  8  2  0  0  0  0
  5  9  2  0  0  0  0
  5  7  1  0  0  0  0
  6 12  2  0  0  0  0
  8 16  1  0  0  0  0
  9 21  1  0  0  0  0
 10 28  1  6  0  0  0
 10 19  1  0  0  0  0
 10  8  1  0  0  0  0
 11  7  2  0  0  0  0
 12  9  1  0  0  0  0
 13 14  1  0  0  0  0
 14  1  2  0  0  0  0
 14 15  1  0  0  0  0
 15 12  1  0  0  0  0
 16 15  1  0  0  0  0
 16  3  2  0  0  0  0
 17  3  1  0  0  0  0
 17  2  2  0  0  0  0
 18 19  1  0  0  0  0
 21 20  1  0  0  0  0
 21 22  1  0  0  0  0
 22 25  1  1  0  0  0
 23 22  1  0  0  0  0
 23 24  1  0  0  0  0
 26 25  1  0  0  0  0
 27 26  3  0  0  0  0
 29 30  2  0  0  0  0
 29 31  1  0  0  0  0
 31 28  1  0  0  0  0
 32 33  1  0  0  0  0
 32 29  1  0  0  0  0
 33 34  1  0  0  0  0
 34 37  1  1  0  0  0
 35 36  1  0  0  0  0
 36 34  1  0  0  0  0
 37 39  1  0  0  0  0
 39 38  1  6  0  0  0
 39 41  1  0  0  0  0
 41 40  1  0  0  0  0
M  END
>  <MODEL>
2

>  <REMARK>
 VINA RESULT:      -6.2      2.172      3.590
  Name = 
  15 active torsions:
  status: ('A' for Active; 'I' for Inactive)
    1  A    between atoms: C_6  and  C_11
    2  A    between atoms: C_6  and  C_25
    3  A    between atoms: C_11  and  N_13
    4  A    between atoms: C_11  and  N_31
    5  A    between atoms: C_14  and  N_39
    6  A    between atoms: O_15  and  C_18
    7  A    between atoms: C_16  and  O_24
    8  A    between atoms: C_16  and  C_34
    9  A    between atoms: C_16  and  N_39
   10  A    between atoms: C_17  and  C_40
   11  A    between atoms: C_18  and  C_37
   12  A    between atoms: C_23  and  C_25
   13  A    between atoms: N_31  and  C_40
   14  A    between atoms: C_34  and  C_38
   15  A    between atoms: N_35  and  C_37
                            x       y       z     vdW  Elec       q    Type
                         _______ _______ _______ _____ _____    ______ ____

>  <TORSDO>
F 15

$$$$
=
 OpenBabel11052412123D

 41 44  0  0  1  0  0  0  0  0999 V2000
  161.4120  204.0460  151.8290 N   0  0  0  0  0  0  0  0  0  0  0  0
  162.1380  210.6380  149.9920 C   0  0  0  0  0  3  0  0  0  0  0  0
  161.5430  208.4420  150.8700 C   0  0  0  0  0  0  0  0  0  0  0  0
  161.1140  206.7190  154.2420 C   0  0  0  0  0  3  0  0  0  0  0  0
  161.6980  207.8990  149.5430 C   0  0  0  0  0  0  0  0  0  0  0  0
  161.5240  204.3460  150.5300 N   0  0  0  0  0  0  0  0  0  0  0  0
  161.9970  208.7610  148.4770 C   0  0  0  0  0  3  0  0  0  0  0  0
  161.0510  207.8360  153.3490 C   0  0  0  0  0  0  0  0  0  0  0  0
  161.6200  206.4990  149.3150 C   0  0  0  0  0  0  0  0  0  0  0  0
  160.6970  209.0380  153.8680 C   0  0  1  0  0  3  0  0  0  0  0  0
  162.2060  210.1220  148.6990 C   0  0  0  0  0  3  0  0  0  0  0  0
  161.4280  205.6940  150.4320 C   0  0  0  0  0  0  0  0  0  0  0  0
  161.2250  205.4300  153.8000 N   0  0  0  0  0  2  0  0  0  0  0  0
  161.2490  205.2250  152.4660 C   0  0  0  0  0  0  0  0  0  0  0  0
  161.2480  206.2430  151.6250 N   0  0  0  0  0  0  0  0  0  0  0  0
  161.2380  207.5520  151.9490 C   0  0  0  0  0  0  0  0  0  0  0  0
  161.8240  209.8020  151.0630 C   0  0  0  0  0  3  0  0  0  0  0  0
  160.4330  211.4220  153.2430 C   0  0  0  0  0  1  0  0  0  0  0  0
  160.1550  210.0410  153.0580 O   0  0  0  0  0  0  0  0  0  0  0  0
  163.1760  205.9310  147.4450 C   0  0  0  0  0  1  0  0  0  0  0  0
  161.8380  205.9210  148.0210 N   0  0  0  0  0  0  0  0  0  0  0  0
  160.7120  205.3300  147.2950 C   0  0  1  0  0  3  0  0  0  0  0  0
  160.0960  206.2750  146.4680 O   0  0  0  0  0  0  0  0  0  0  0  0
  160.4410  205.8930  145.1700 C   0  0  0  0  0  1  0  0  0  0  0  0
  161.1280  204.0910  146.4990 C   0  0  0  0  0  2  0  0  0  0  0  0
  161.0680  202.8640  147.3030 C   0  0  0  0  0  0  0  0  0  0  0  0
  161.0230  201.8570  147.9630 C   0  0  0  0  0  3  0  0  0  0  0  0
  160.7770  209.2720  155.3590 C   0  0  0  0  0  2  0  0  0  0  0  0
  159.4630  211.0710  156.5800 C   0  0  0  0  0  0  0  0  0  0  0  0
  160.5020  211.7510  156.7950 O   0  0  0  0  0  0  0  0  0  0  0  0
  159.5320  209.8390  155.8560 N   0  0  0  0  0  2  0  0  0  0  0  0
  158.1510  211.5520  157.0940 C   0  0  0  0  0  2  0  0  0  0  0  0
  157.6750  212.6640  156.2840 N   0  0  0  0  0  2  0  0  0  0  0  0
  156.3460  212.3180  155.7950 C   0  0  2  0  0  3  0  0  0  0  0  0
  155.2010  210.6070  154.8580 O   0  0  0  0  0  1  0  0  0  0  0  0
  156.4290  211.1780  154.8900 N   0  0  0  0  0  2  0  0  0  0  0  0
  155.7050  213.5160  155.0970 C   0  0  0  0  0  2  0  0  0  0  0  0
  154.7970  214.0650  152.8600 C   0  0  0  0  0  1  0  0  0  0  0  0
  156.0090  213.5400  153.6070 C   0  0  1  0  0  3  0  0  0  0  0  0
  157.5610  214.4530  151.8820 C   0  0  0  0  0  1  0  0  0  0  0  0
  157.2070  214.4380  153.3560 C   0  0  0  0  0  2  0  0  0  0  0  0
  1 14  2  0  0  0  0
  2 17  2  0  0  0  0
  3 17  1  0  0  0  0
  3 16  2  0  0  0  0
  5  3  1  0  0  0  0
  6  1  1  0  0  0  0
  7 11  2  0  0  0  0
  7  5  1  0  0  0  0
  8 10  1  0  0  0  0
  8  4  2  0  0  0  0
  9  5  2  0  0  0  0
  9 12  1  0  0  0  0
 10 28  1  1  0  0  0
 11  2  1  0  0  0  0
 12  6  2  0  0  0  0
 12 15  1  0  0  0  0
 13  4  1  0  0  0  0
 14 13  1  0  0  0  0
 15 16  1  0  0  0  0
 15 14  1  0  0  0  0
 16  8  1  0  0  0  0
 19 18  1  0  0  0  0
 19 10  1  0  0  0  0
 20 21  1  0  0  0  0
 21  9  1  0  0  0  0
 22 25  1  6  0  0  0
 22 21  1  0  0  0  0
 23 22  1  0  0  0  0
 24 23  1  0  0  0  0
 25 26  1  0  0  0  0
 26 27  3  0  0  0  0
 28 31  1  0  0  0  0
 29 30  2  0  0  0  0
 29 32  1  0  0  0  0
 31 29  1  0  0  0  0
 33 32  1  0  0  0  0
 34 37  1  6  0  0  0
 34 33  1  0  0  0  0
 35 36  1  0  0  0  0
 36 34  1  0  0  0  0
 39 38  1  6  0  0  0
 39 37  1  0  0  0  0
 40 41  1  0  0  0  0
 41 39  1  0  0  0  0
M  END
>  <MODEL>
3

>  <REMARK>
 VINA RESULT:      -6.1      2.226      9.781
  Name = 
  15 active torsions:
  status: ('A' for Active; 'I' for Inactive)
    1  A    between atoms: C_6  and  C_11
    2  A    between atoms: C_6  and  C_25
    3  A    between atoms: C_11  and  N_13
    4  A    between atoms: C_11  and  N_31
    5  A    between atoms: C_14  and  N_39
    6  A    between atoms: O_15  and  C_18
    7  A    between atoms: C_16  and  O_24
    8  A    between atoms: C_16  and  C_34
    9  A    between atoms: C_16  and  N_39
   10  A    between atoms: C_17  and  C_40
   11  A    between atoms: C_18  and  C_37
   12  A    between atoms: C_23  and  C_25
   13  A    between atoms: N_31  and  C_40
   14  A    between atoms: C_34  and  C_38
   15  A    between atoms: N_35  and  C_37
                            x       y       z     vdW  Elec       q    Type
                         _______ _______ _______ _____ _____    ______ ____

>  <TORSDO>
F 15

$$$$
=
 OpenBabel11052412123D

 41 44  0  0  1  0  0  0  0  0999 V2000
  161.0340  202.3320  150.0780 N   0  0  0  0  0  0  0  0  0  0  0  0
  162.4880  209.0460  149.6770 C   0  0  0  0  0  3  0  0  0  0  0  0
  161.6520  206.7900  150.0790 C   0  0  0  0  0  0  0  0  0  0  0  0
  161.0370  204.4380  153.0140 C   0  0  0  0  0  3  0  0  0  0  0  0
  161.7450  206.5330  148.6630 C   0  0  0  0  0  0  0  0  0  0  0  0
  161.1780  202.8900  148.8710 N   0  0  0  0  0  0  0  0  0  0  0  0
  162.1380  207.5670  147.8000 C   0  0  0  0  0  3  0  0  0  0  0  0
  161.0980  205.7210  152.3820 C   0  0  0  0  0  0  0  0  0  0  0  0
  161.5120  205.2310  148.1430 C   0  0  0  0  0  0  0  0  0  0  0  0
  160.8810  206.8130  153.1560 C   0  0  1  0  0  3  0  0  0  0  0  0
  162.4960  208.8160  148.3020 C   0  0  0  0  0  3  0  0  0  0  0  0
  161.2320  204.2300  149.0660 C   0  0  0  0  0  0  0  0  0  0  0  0
  161.0040  203.2700  152.3030 N   0  0  0  0  0  2  0  0  0  0  0  0
  161.0030  203.3560  150.9560 C   0  0  0  0  0  0  0  0  0  0  0  0
  161.1150  204.5250  150.3530 N   0  0  0  0  0  0  0  0  0  0  0  0
  161.2510  205.7270  150.9500 C   0  0  0  0  0  0  0  0  0  0  0  0
  162.0830  208.0370  150.5520 C   0  0  0  0  0  3  0  0  0  0  0  0
  160.9880  209.2830  152.9650 C   0  0  0  0  0  1  0  0  0  0  0  0
  160.4520  208.0200  152.5930 O   0  0  0  0  0  0  0  0  0  0  0  0
  162.9890  204.6390  146.2160 C   0  0  0  0  0  1  0  0  0  0  0  0
  161.6640  204.9260  146.7500 N   0  0  0  0  0  0  0  0  0  0  0  0
  160.4840  204.9070  145.8830 C   0  0  1  0  0  3  0  0  0  0  0  0
  160.2240  206.1790  145.3600 O   0  0  0  0  0  0  0  0  0  0  0  0
  160.8890  206.2040  144.1330 C   0  0  0  0  0  1  0  0  0  0  0  0
  160.6080  203.8690  144.7650 C   0  0  0  0  0  2  0  0  0  0  0  0
  160.5170  202.4920  145.2680 C   0  0  0  0  0  0  0  0  0  0  0  0
  160.4400  201.3620  145.6770 C   0  0  0  0  0  3  0  0  0  0  0  0
  160.9870  206.7110  154.6590 C   0  0  0  0  0  2  0  0  0  0  0  0
  160.8100  208.6350  156.3090 C   0  0  0  0  0  0  0  0  0  0  0  0
  162.0090  208.4990  156.6700 O   0  0  0  0  0  0  0  0  0  0  0  0
  160.2480  207.7890  155.3000 N   0  0  0  0  0  2  0  0  0  0  0  0
  159.9660  209.6830  156.9450 C   0  0  0  0  0  2  0  0  0  0  0  0
  159.4070  210.5620  155.9280 N   0  0  0  0  0  2  0  0  0  0  0  0
  160.2130  211.7760  155.9010 C   0  0  2  0  0  3  0  0  0  0  0  0
  160.6480  213.5630  157.2160 O   0  0  0  0  0  1  0  0  0  0  0  0
  160.4960  212.2170  157.2600 N   0  0  0  0  0  2  0  0  0  0  0  0
  159.4980  212.8730  155.1150 C   0  0  0  0  0  2  0  0  0  0  0  0
  157.3890  213.9450  155.8450 C   0  0  0  0  0  1  0  0  0  0  0  0
  157.9850  212.7240  155.1710 C   0  0  1  0  0  3  0  0  0  0  0  0
  156.8880  213.9130  153.2740 C   0  0  0  0  0  1  0  0  0  0  0  0
  157.4440  212.5880  153.7590 C   0  0  0  0  0  2  0  0  0  0  0  0
  1 14  2  0  0  0  0
  2 17  2  0  0  0  0
  3 17  1  0  0  0  0
  3 16  2  0  0  0  0
  5  3  1  0  0  0  0
  6 12  2  0  0  0  0
  6  1  1  0  0  0  0
  7 11  2  0  0  0  0
  7  5  1  0  0  0  0
  8  4  2  0  0  0  0
  8 10  1  0  0  0  0
  9  5  2  0  0  0  0
  9 12  1  0  0  0  0
 10 28  1  1  0  0  0
 11  2  1  0  0  0  0
 12 15  1  0  0  0  0
 13  4  1  0  0  0  0
 14 13  1  0  0  0  0
 15 16  1  0  0  0  0
 15 14  1  0  0  0  0
 16  8  1  0  0  0  0
 19 18  1  0  0  0  0
 19 10  1  0  0  0  0
 20 21  1  0  0  0  0
 21  9  1  0  0  0  0
 22 25  1  6  0  0  0
 22 21  1  0  0  0  0
 23 22  1  0  0  0  0
 24 23  1  0  0  0  0
 25 26  1  0  0  0  0
 26 27  3  0  0  0  0
 28 31  1  0  0  0  0
 29 30  2  0  0  0  0
 29 32  1  0  0  0  0
 31 29  1  0  0  0  0
 33 32  1  0  0  0  0
 34 37  1  6  0  0  0
 34 33  1  0  0  0  0
 34 36  1  0  0  0  0
 35 36  1  0  0  0  0
 37 39  1  0  0  0  0
 39 38  1  6  0  0  0
 40 41  1  0  0  0  0
 41 39  1  0  0  0  0
M  END
>  <MODEL>
4

>  <REMARK>
 VINA RESULT:      -5.9      2.500     10.264
  Name = 
  15 active torsions:
  status: ('A' for Active; 'I' for Inactive)
    1  A    between atoms: C_6  and  C_11
    2  A    between atoms: C_6  and  C_25
    3  A    between atoms: C_11  and  N_13
    4  A    between atoms: C_11  and  N_31
    5  A    between atoms: C_14  and  N_39
    6  A    between atoms: O_15  and  C_18
    7  A    between atoms: C_16  and  O_24
    8  A    between atoms: C_16  and  C_34
    9  A    between atoms: C_16  and  N_39
   10  A    between atoms: C_17  and  C_40
   11  A    between atoms: C_18  and  C_37
   12  A    between atoms: C_23  and  C_25
   13  A    between atoms: N_31  and  C_40
   14  A    between atoms: C_34  and  C_38
   15  A    between atoms: N_35  and  C_37
                            x       y       z     vdW  Elec       q    Type
                         _______ _______ _______ _____ _____    ______ ____

>  <TORSDO>
F 15

$$$$
=
 OpenBabel11052412123D

 41 44  0  0  1  0  0  0  0  0999 V2000
  159.7880  208.7650  157.0560 N   0  0  0  0  0  0  0  0  0  0  0  0
  159.8470  212.5460  151.3060 C   0  0  0  0  0  3  0  0  0  0  0  0
  160.2300  211.1050  153.2350 C   0  0  0  0  0  0  0  0  0  0  0  0
  161.1750  207.4870  153.9740 C   0  0  0  0  0  3  0  0  0  0  0  0
  159.6460  212.1210  154.0760 C   0  0  0  0  0  0  0  0  0  0  0  0
  159.4070  210.0460  157.1210 N   0  0  0  0  0  0  0  0  0  0  0  0
  159.2510  213.3410  153.5080 C   0  0  0  0  0  3  0  0  0  0  0  0
  161.2140  208.7000  153.2130 C   0  0  0  0  0  0  0  0  0  0  0  0
  159.4040  211.8750  155.4550 C   0  0  0  0  0  0  0  0  0  0  0  0
  161.9030  208.6870  152.0460 C   0  0  1  0  0  3  0  0  0  0  0  0
  159.3590  213.5550  152.1350 C   0  0  0  0  0  3  0  0  0  0  0  0
  159.7220  210.6070  155.9280 C   0  0  0  0  0  0  0  0  0  0  0  0
  160.7200  207.4430  155.2620 N   0  0  0  0  0  2  0  0  0  0  0  0
  160.3210  208.6030  155.8270 C   0  0  0  0  0  0  0  0  0  0  0  0
  160.2960  209.7220  155.1270 N   0  0  0  0  0  0  0  0  0  0  0  0
  160.6300  209.8640  153.8280 C   0  0  0  0  0  0  0  0  0  0  0  0
  160.2630  211.3320  151.8530 C   0  0  0  0  0  3  0  0  0  0  0  0
  162.2750  210.1910  150.1100 C   0  0  0  0  0  1  0  0  0  0  0  0
  162.3980  209.8720  151.4890 O   0  0  0  0  0  0  0  0  0  0  0  0
  159.5510  213.8990  156.9110 C   0  0  0  0  0  1  0  0  0  0  0  0
  158.7620  212.8370  156.3020 N   0  0  0  0  0  0  0  0  0  0  0  0
  157.3210  212.7390  156.5440 C   0  0  1  0  0  3  0  0  0  0  0  0
  156.8550  213.8460  157.2610 O   0  0  0  0  0  0  0  0  0  0  0  0
  155.8430  214.3860  156.4660 C   0  0  0  0  0  1  0  0  0  0  0  0
  156.5310  212.5520  155.2470 C   0  0  0  0  0  2  0  0  0  0  0  0
  155.8750  211.2400  155.1740 C   0  0  0  0  0  0  0  0  0  0  0  0
  155.3340  210.1650  155.1130 C   0  0  0  0  0  3  0  0  0  0  0  0
  162.2490  207.3740  151.3830 C   0  0  0  0  0  2  0  0  0  0  0  0
  161.4530  207.2060  148.9770 C   0  0  0  0  0  0  0  0  0  0  0  0
  160.3350  206.7430  149.3280 O   0  0  0  0  0  0  0  0  0  0  0  0
  162.4400  207.5560  149.9510 N   0  0  0  0  0  2  0  0  0  0  0  0
  161.7520  207.3820  147.5280 C   0  0  0  0  0  2  0  0  0  0  0  0
  161.2450  206.2470  146.7720 N   0  0  0  0  0  2  0  0  0  0  0  0
  162.0450  205.0830  147.1300 C   0  0  2  0  0  3  0  0  0  0  0  0
  162.4280  204.2560  145.0610 O   0  0  0  0  0  1  0  0  0  0  0  0
  163.0560  204.8400  146.1090 N   0  0  0  0  0  2  0  0  0  0  0  0
  161.1530  203.8560  147.3090 C   0  0  0  0  0  2  0  0  0  0  0  0
  160.9410  203.6310  149.7650 C   0  0  0  0  0  1  0  0  0  0  0  0
  161.5570  203.0260  148.5180 C   0  0  1  0  0  3  0  0  0  0  0  0
  160.1920  201.1820  149.4970 C   0  0  0  0  0  1  0  0  0  0  0  0
  161.0660  201.6010  148.3310 C   0  0  0  0  0  2  0  0  0  0  0  0
  1  6  1  0  0  0  0
  2 17  2  0  0  0  0
  2 11  1  0  0  0  0
  3 16  2  0  0  0  0
  3  5  1  0  0  0  0
  4 13  1  0  0  0  0
  5  9  2  0  0  0  0
  7  5  1  0  0  0  0
  8 16  1  0  0  0  0
  8  4  2  0  0  0  0
  9 12  1  0  0  0  0
  9 21  1  0  0  0  0
 10 28  1  1  0  0  0
 10  8  1  0  0  0  0
 11  7  2  0  0  0  0
 12  6  2  0  0  0  0
 13 14  1  0  0  0  0
 14  1  2  0  0  0  0
 15 14  1  0  0  0  0
 15 12  1  0  0  0  0
 16 15  1  0  0  0  0
 17  3  1  0  0  0  0
 18 19  1  0  0  0  0
 19 10  1  0  0  0  0
 21 22  1  0  0  0  0
 21 20  1  0  0  0  0
 22 25  1  6  0  0  0
 22 23  1  0  0  0  0
 24 23  1  0  0  0  0
 26 25  1  0  0  0  0
 27 26  3  0  0  0  0
 29 30  2  0  0  0  0
 29 31  1  0  0  0  0
 31 28  1  0  0  0  0
 32 29  1  0  0  0  0
 33 34  1  0  0  0  0
 33 32  1  0  0  0  0
 34 37  1  6  0  0  0
 35 36  1  0  0  0  0
 36 34  1  0  0  0  0
 37 39  1  0  0  0  0
 39 38  1  1  0  0  0
 41 39  1  0  0  0  0
 41 40  1  0  0  0  0
M  END
>  <MODEL>
5

>  <REMARK>
 VINA RESULT:      -5.6      1.852      3.168
  Name = 
  15 active torsions:
  status: ('A' for Active; 'I' for Inactive)
    1  A    between atoms: C_6  and  C_11
    2  A    between atoms: C_6  and  C_25
    3  A    between atoms: C_11  and  N_13
    4  A    between atoms: C_11  and  N_31
    5  A    between atoms: C_14  and  N_39
    6  A    between atoms: O_15  and  C_18
    7  A    between atoms: C_16  and  O_24
    8  A    between atoms: C_16  and  C_34
    9  A    between atoms: C_16  and  N_39
   10  A    between atoms: C_17  and  C_40
   11  A    between atoms: C_18  and  C_37
   12  A    between atoms: C_23  and  C_25
   13  A    between atoms: N_31  and  C_40
   14  A    between atoms: C_34  and  C_38
   15  A    between atoms: N_35  and  C_37
                            x       y       z     vdW  Elec       q    Type
                         _______ _______ _______ _____ _____    ______ ____

>  <TORSDO>
F 15

$$$$
=
 OpenBabel11052412123D

 41 44  0  0  1  0  0  0  0  0999 V2000
  160.5740  212.7760  151.3970 N   0  0  0  0  0  0  0  0  0  0  0  0
  161.0470  206.7320  154.6530 C   0  0  0  0  0  3  0  0  0  0  0  0
  160.7210  208.6420  153.1720 C   0  0  0  0  0  0  0  0  0  0  0  0
  161.8490  209.8320  149.7320 C   0  0  0  0  0  3  0  0  0  0  0  0
  160.1210  209.3580  154.2720 C   0  0  0  0  0  0  0  0  0  0  0  0
  160.0520  212.6600  152.6230 N   0  0  0  0  0  0  0  0  0  0  0  0
  159.9420  208.7060  155.5010 C   0  0  0  0  0  3  0  0  0  0  0  0
  161.4770  208.8390  150.6940 C   0  0  0  0  0  0  0  0  0  0  0  0
  159.7750  210.7300  154.1460 C   0  0  0  0  0  0  0  0  0  0  0  0
  161.5770  207.5380  150.3250 C   0  0  1  0  0  3  0  0  0  0  0  0
  160.3930  207.4000  155.6870 C   0  0  0  0  0  3  0  0  0  0  0  0
  160.0790  211.3410  152.9340 C   0  0  0  0  0  0  0  0  0  0  0  0
  161.5690  211.1600  149.9020 N   0  0  0  0  0  2  0  0  0  0  0  0
  160.8940  211.5220  151.0130 C   0  0  0  0  0  0  0  0  0  0  0  0
  160.5890  210.6310  151.9400 N   0  0  0  0  0  0  0  0  0  0  0  0
  160.8980  209.3180  151.9230 C   0  0  0  0  0  0  0  0  0  0  0  0
  161.2190  207.3550  153.4170 C   0  0  0  0  0  3  0  0  0  0  0  0
  160.5800  205.2700  150.3940 C   0  0  0  0  0  1  0  0  0  0  0  0
  160.8230  206.5490  150.9640 O   0  0  0  0  0  0  0  0  0  0  0  0
  160.1020  211.8290  156.3650 C   0  0  0  0  0  1  0  0  0  0  0  0
  159.2430  211.4880  155.2390 N   0  0  0  0  0  0  0  0  0  0  0  0
  157.8400  211.9080  155.2110 C   0  0  1  0  0  3  0  0  0  0  0  0
  157.1880  211.5640  156.4000 O   0  0  0  0  0  0  0  0  0  0  0  0
  156.0560  210.8540  155.9940 C   0  0  0  0  0  1  0  0  0  0  0  0
  157.6930  213.4030  154.9180 C   0  0  0  0  0  2  0  0  0  0  0  0
  156.4900  213.7040  154.1310 C   0  0  0  0  0  0  0  0  0  0  0  0
  155.5030  213.9530  153.4870 C   0  0  0  0  0  3  0  0  0  0  0  0
  162.4240  207.1510  149.1350 C   0  0  0  0  0  2  0  0  0  0  0  0
  162.1390  205.6070  147.1380 C   0  0  0  0  0  0  0  0  0  0  0  0
  163.3600  205.2960  147.1430 O   0  0  0  0  0  0  0  0  0  0  0  0
  161.6090  206.5090  148.1130 N   0  0  0  0  0  2  0  0  0  0  0  0
  161.2400  205.0330  146.0980 C   0  0  0  0  0  2  0  0  0  0  0  0
  161.8970  203.9210  145.4290 N   0  0  0  0  0  2  0  0  0  0  0  0
  161.2770  202.6890  145.9020 C   0  0  2  0  0  3  0  0  0  0  0  0
  160.0790  201.1620  144.7420 O   0  0  0  0  0  1  0  0  0  0  0  0
  160.0380  202.4450  145.1750 N   0  0  0  0  0  2  0  0  0  0  0  0
  161.0160  202.7670  147.4040 C   0  0  0  0  0  2  0  0  0  0  0  0
  161.5570  200.4030  147.9060 C   0  0  0  0  0  1  0  0  0  0  0  0
  160.4690  201.4590  147.9590 C   0  0  1  0  0  3  0  0  0  0  0  0
  161.2180  201.8020  150.3130 C   0  0  0  0  0  1  0  0  0  0  0  0
  160.0190  201.6750  149.3930 C   0  0  0  0  0  2  0  0  0  0  0  0
  1  6  1  0  0  0  0
  2 11  1  0  0  0  0
  3 17  1  0  0  0  0
  3  5  1  0  0  0  0
  4 13  1  0  0  0  0
  4  8  2  0  0  0  0
  5  7  1  0  0  0  0
  6 12  2  0  0  0  0
  7 11  2  0  0  0  0
  8 16  1  0  0  0  0
  9  5  2  0  0  0  0
  9 21  1  0  0  0  0
 10 28  1  6  0  0  0
 10  8  1  0  0  0  0
 10 19  1  0  0  0  0
 12  9  1  0  0  0  0
 13 14  1  0  0  0  0
 14  1  2  0  0  0  0
 14 15  1  0  0  0  0
 15 12  1  0  0  0  0
 16 15  1  0  0  0  0
 16  3  2  0  0  0  0
 17  2  2  0  0  0  0
 18 19  1  0  0  0  0
 21 20  1  0  0  0  0
 22 25  1  1  0  0  0
 22 21  1  0  0  0  0
 22 23  1  0  0  0  0
 24 23  1  0  0  0  0
 26 25  1  0  0  0  0
 27 26  3  0  0  0  0
 29 30  2  0  0  0  0
 29 31  1  0  0  0  0
 31 28  1  0  0  0  0
 32 29  1  0  0  0  0
 33 34  1  0  0  0  0
 33 32  1  0  0  0  0
 34 37  1  1  0  0  0
 35 36  1  0  0  0  0
 36 34  1  0  0  0  0
 37 39  1  0  0  0  0
 39 38  1  1  0  0  0
 39 41  1  0  0  0  0
 41 40  1  0  0  0  0
M  END
>  <MODEL>
6

>  <REMARK>
 VINA RESULT:      -5.5      1.503      2.335
  Name = 
  15 active torsions:
  status: ('A' for Active; 'I' for Inactive)
    1  A    between atoms: C_6  and  C_11
    2  A    between atoms: C_6  and  C_25
    3  A    between atoms: C_11  and  N_13
    4  A    between atoms: C_11  and  N_31
    5  A    between atoms: C_14  and  N_39
    6  A    between atoms: O_15  and  C_18
    7  A    between atoms: C_16  and  O_24
    8  A    between atoms: C_16  and  C_34
    9  A    between atoms: C_16  and  N_39
   10  A    between atoms: C_17  and  C_40
   11  A    between atoms: C_18  and  C_37
   12  A    between atoms: C_23  and  C_25
   13  A    between atoms: N_31  and  C_40
   14  A    between atoms: C_34  and  C_38
   15  A    between atoms: N_35  and  C_37
                            x       y       z     vdW  Elec       q    Type
                         _______ _______ _______ _____ _____    ______ ____

>  <TORSDO>
F 15

$$$$
=
 OpenBabel11052412123D

 41 44  0  0  1  0  0  0  0  0999 V2000
  160.8240  203.3520  152.5920 N   0  0  0  0  0  0  0  0  0  0  0  0
  162.4030  206.4150  146.6360 C   0  0  0  0  0  3  0  0  0  0  0  0
  161.6380  205.6970  148.8370 C   0  0  0  0  0  0  0  0  0  0  0  0
  161.9380  206.7880  152.4760 C   0  0  0  0  0  3  0  0  0  0  0  0
  161.2290  204.4420  148.2550 C   0  0  0  0  0  0  0  0  0  0  0  0
  160.5770  202.7050  151.4470 N   0  0  0  0  0  0  0  0  0  0  0  0
  161.3570  204.2510  146.8720 C   0  0  0  0  0  3  0  0  0  0  0  0
  161.8470  207.0170  151.0660 C   0  0  0  0  0  0  0  0  0  0  0  0
  160.7650  203.3770  149.0740 C   0  0  0  0  0  0  0  0  0  0  0  0
  161.9640  208.2950  150.6280 C   0  0  1  0  0  3  0  0  0  0  0  0
  161.9310  205.2340  146.0670 C   0  0  0  0  0  3  0  0  0  0  0  0
  160.7640  203.5990  150.4460 C   0  0  0  0  0  0  0  0  0  0  0  0
  161.6030  205.5920  153.0490 N   0  0  0  0  0  2  0  0  0  0  0  0
  161.1480  204.6130  152.2380 C   0  0  0  0  0  0  0  0  0  0  0  0
  161.1080  204.7840  150.9290 N   0  0  0  0  0  0  0  0  0  0  0  0
  161.5020  205.8800  150.2500 C   0  0  0  0  0  0  0  0  0  0  0  0
  162.2690  206.6340  148.0070 C   0  0  0  0  0  3  0  0  0  0  0  0
  161.9530  209.7640  148.6320 C   0  0  0  0  0  1  0  0  0  0  0  0
  161.4330  208.6840  149.3940 O   0  0  0  0  0  0  0  0  0  0  0  0
  159.2740  201.3730  149.0780 C   0  0  0  0  0  1  0  0  0  0  0  0
  160.4160  202.0950  148.5360 N   0  0  0  0  0  0  0  0  0  0  0  0
  161.2150  201.5280  147.4470 C   0  0  1  0  0  3  0  0  0  0  0  0
  162.1360  200.5940  147.9330 O   0  0  0  0  0  0  0  0  0  0  0  0
  161.9560  199.4650  147.1310 C   0  0  0  0  0  1  0  0  0  0  0  0
  160.3410  200.9180  146.3490 C   0  0  0  0  0  2  0  0  0  0  0  0
  159.9910  201.8920  145.3070 C   0  0  0  0  0  0  0  0  0  0  0  0
  159.7040  202.6880  144.4490 C   0  0  0  0  0  3  0  0  0  0  0  0
  162.5710  209.3500  151.5220 C   0  0  0  0  0  2  0  0  0  0  0  0
  161.1800  210.5220  153.2960 C   0  0  0  0  0  0  0  0  0  0  0  0
  161.7380  209.8820  154.2260 O   0  0  0  0  0  0  0  0  0  0  0  0
  161.5620  210.3170  151.9330 N   0  0  0  0  0  2  0  0  0  0  0  0
  160.1040  211.4990  153.6210 C   0  0  0  0  0  2  0  0  0  0  0  0
  160.2920  212.0200  154.9660 N   0  0  0  0  0  2  0  0  0  0  0  0
  159.0010  211.9780  155.6430 C   0  0  2  0  0  3  0  0  0  0  0  0
  159.7490  210.2910  156.9470 O   0  0  0  0  0  1  0  0  0  0  0  0
  159.1720  211.5140  157.0130 N   0  0  0  0  0  2  0  0  0  0  0  0
  158.0300  211.0770  154.8830 C   0  0  0  0  0  2  0  0  0  0  0  0
  155.8680  211.5200  156.0060 C   0  0  0  0  0  1  0  0  0  0  0  0
  156.6590  211.7160  154.7260 C   0  0  1  0  0  3  0  0  0  0  0  0
  155.5040  213.8170  154.0390 C   0  0  0  0  0  1  0  0  0  0  0  0
  156.8290  213.1970  154.4390 C   0  0  0  0  0  2  0  0  0  0  0  0
  2 17  2  0  0  0  0
  3 16  2  0  0  0  0
  4 13  1  0  0  0  0
  5  3  1  0  0  0  0
  5  9  2  0  0  0  0
  6  1  1  0  0  0  0
  7  5  1  0  0  0  0
  8  4  2  0  0  0  0
  9 12  1  0  0  0  0
 10  8  1  0  0  0  0
 10 28  1  1  0  0  0
 11  2  1  0  0  0  0
 11  7  2  0  0  0  0
 12 15  1  0  0  0  0
 12  6  2  0  0  0  0
 14  1  2  0  0  0  0
 14 13  1  0  0  0  0
 15 14  1  0  0  0  0
 16 15  1  0  0  0  0
 16  8  1  0  0  0  0
 17  3  1  0  0  0  0
 18 19  1  0  0  0  0
 19 10  1  0  0  0  0
 21  9  1  0  0  0  0
 21 20  1  0  0  0  0
 22 25  1  6  0  0  0
 22 23  1  0  0  0  0
 22 21  1  0  0  0  0
 24 23  1  0  0  0  0
 26 25  1  0  0  0  0
 27 26  3  0  0  0  0
 28 31  1  0  0  0  0
 29 32  1  0  0  0  0
 29 30  2  0  0  0  0
 31 29  1  0  0  0  0
 32 33  1  0  0  0  0
 33 34  1  0  0  0  0
 34 37  1  6  0  0  0
 34 36  1  0  0  0  0
 35 36  1  0  0  0  0
 39 37  1  0  0  0  0
 39 38  1  1  0  0  0
 40 41  1  0  0  0  0
 41 39  1  0  0  0  0
M  END
>  <MODEL>
7

>  <REMARK>
 VINA RESULT:      -5.4      2.319     10.578
  Name = 
  15 active torsions:
  status: ('A' for Active; 'I' for Inactive)
    1  A    between atoms: C_6  and  C_11
    2  A    between atoms: C_6  and  C_25
    3  A    between atoms: C_11  and  N_13
    4  A    between atoms: C_11  and  N_31
    5  A    between atoms: C_14  and  N_39
    6  A    between atoms: O_15  and  C_18
    7  A    between atoms: C_16  and  O_24
    8  A    between atoms: C_16  and  C_34
    9  A    between atoms: C_16  and  N_39
   10  A    between atoms: C_17  and  C_40
   11  A    between atoms: C_18  and  C_37
   12  A    between atoms: C_23  and  C_25
   13  A    between atoms: N_31  and  C_40
   14  A    between atoms: C_34  and  C_38
   15  A    between atoms: N_35  and  C_37
                            x       y       z     vdW  Elec       q    Type
                         _______ _______ _______ _____ _____    ______ ____

>  <TORSDO>
F 15

$$$$
=
 OpenBabel11052412123D

 41 44  0  0  1  0  0  0  0  0999 V2000
  162.1960  209.6740  148.4340 N   0  0  0  0  0  0  0  0  0  0  0  0
  160.3300  204.3330  152.3510 C   0  0  0  0  0  3  0  0  0  0  0  0
  161.2420  206.3340  151.2960 C   0  0  0  0  0  0  0  0  0  0  0  0
  161.4390  210.0840  151.9430 C   0  0  0  0  0  3  0  0  0  0  0  0
  161.4560  205.5680  150.0920 C   0  0  0  0  0  0  0  0  0  0  0  0
  162.2530  208.4420  147.9160 N   0  0  0  0  0  0  0  0  0  0  0  0
  161.1640  204.1960  150.0880 C   0  0  0  0  0  3  0  0  0  0  0  0
  161.4050  208.7080  152.3380 C   0  0  0  0  0  0  0  0  0  0  0  0
  161.8890  206.2000  148.8950 C   0  0  0  0  0  0  0  0  0  0  0  0
  161.3770  208.4370  153.6660 C   0  0  1  0  0  3  0  0  0  0  0  0
  160.6150  203.5820  151.2120 C   0  0  0  0  0  3  0  0  0  0  0  0
  162.0560  207.5790  148.9420 C   0  0  0  0  0  0  0  0  0  0  0  0
  161.7050  210.4730  150.6600 N   0  0  0  0  0  2  0  0  0  0  0  0
  161.9690  209.5080  149.7530 C   0  0  0  0  0  0  0  0  0  0  0  0
  161.8890  208.2320  150.0830 N   0  0  0  0  0  0  0  0  0  0  0  0
  161.5430  207.7330  151.2870 C   0  0  0  0  0  0  0  0  0  0  0  0
  160.6290  205.6950  152.3830 C   0  0  0  0  0  3  0  0  0  0  0  0
  161.5140  206.7390  155.4670 C   0  0  0  0  0  1  0  0  0  0  0  0
  161.8140  207.2020  154.1580 O   0  0  0  0  0  0  0  0  0  0  0  0
  163.3800  205.1350  147.1970 C   0  0  0  0  0  1  0  0  0  0  0  0
  162.0440  205.4810  147.6650 N   0  0  0  0  0  0  0  0  0  0  0  0
  160.8570  205.1050  146.8930 C   0  0  1  0  0  3  0  0  0  0  0  0
  160.2200  206.2350  146.3690 O   0  0  0  0  0  0  0  0  0  0  0  0
  160.4560  206.1730  144.9950 C   0  0  0  0  0  1  0  0  0  0  0  0
  161.1840  204.0970  145.7890 C   0  0  0  0  0  2  0  0  0  0  0  0
  160.9850  202.7080  146.2230 C   0  0  0  0  0  0  0  0  0  0  0  0
  160.8200  201.5700  146.5810 C   0  0  0  0  0  3  0  0  0  0  0  0
  160.9800  209.5110  154.6520 C   0  0  0  0  0  2  0  0  0  0  0  0
  158.9210  210.8620  155.2750 C   0  0  0  0  0  0  0  0  0  0  0  0
  159.5570  211.5230  156.1380 O   0  0  0  0  0  0  0  0  0  0  0  0
  159.5750  209.8610  154.4910 N   0  0  0  0  0  2  0  0  0  0  0  0
  157.4680  211.1210  155.0770 C   0  0  0  0  0  2  0  0  0  0  0  0
  157.2710  212.0260  153.9540 N   0  0  0  0  0  2  0  0  0  0  0  0
  157.4370  213.3880  154.4460 C   0  0  2  0  0  3  0  0  0  0  0  0
  156.3440  214.2820  156.2120 O   0  0  0  0  0  1  0  0  0  0  0  0
  156.1610  213.9040  154.9240 N   0  0  0  0  0  2  0  0  0  0  0  0
  158.0080  214.2850  153.3510 C   0  0  0  0  0  2  0  0  0  0  0  0
  157.2630  214.1580  150.9930 C   0  0  0  0  0  1  0  0  0  0  0  0
  158.1790  213.5430  152.0340 C   0  0  1  0  0  3  0  0  0  0  0  0
  159.7190  213.5970  150.0730 C   0  0  0  0  0  1  0  0  0  0  0  0
  159.6260  213.6490  151.5860 C   0  0  0  0  0  2  0  0  0  0  0  0
  1 14  2  0  0  0  0
  2 17  2  0  0  0  0
  3 17  1  0  0  0  0
  4  8  2  0  0  0  0
  5  3  1  0  0  0  0
  6  1  1  0  0  0  0
  6 12  2  0  0  0  0
  7  5  1  0  0  0  0
  7 11  2  0  0  0  0
  8 10  1  0  0  0  0
  9 12  1  0  0  0  0
  9  5  2  0  0  0  0
 10 19  1  0  0  0  0
 10 28  1  1  0  0  0
 11  2  1  0  0  0  0
 12 15  1  0  0  0  0
 13  4  1  0  0  0  0
 14 15  1  0  0  0  0
 14 13  1  0  0  0  0
 15 16  1  0  0  0  0
 16  3  2  0  0  0  0
 16  8  1  0  0  0  0
 19 18  1  0  0  0  0
 20 21  1  0  0  0  0
 21  9  1  0  0  0  0
 22 25  1  6  0  0  0
 22 21  1  0  0  0  0
 23 22  1  0  0  0  0
 24 23  1  0  0  0  0
 25 26  1  0  0  0  0
 26 27  3  0  0  0  0
 29 30  2  0  0  0  0
 31 28  1  0  0  0  0
 31 29  1  0  0  0  0
 32 29  1  0  0  0  0
 33 34  1  0  0  0  0
 33 32  1  0  0  0  0
 34 37  1  6  0  0  0
 34 36  1  0  0  0  0
 36 35  1  0  0  0  0
 39 38  1  6  0  0  0
 39 37  1  0  0  0  0
 40 41  1  0  0  0  0
 41 39  1  0  0  0  0
M  END
>  <MODEL>
8

>  <REMARK>
 VINA RESULT:      -5.4      1.901      9.400
  Name = 
  15 active torsions:
  status: ('A' for Active; 'I' for Inactive)
    1  A    between atoms: C_6  and  C_11
    2  A    between atoms: C_6  and  C_25
    3  A    between atoms: C_11  and  N_13
    4  A    between atoms: C_11  and  N_31
    5  A    between atoms: C_14  and  N_39
    6  A    between atoms: O_15  and  C_18
    7  A    between atoms: C_16  and  O_24
    8  A    between atoms: C_16  and  C_34
    9  A    between atoms: C_16  and  N_39
   10  A    between atoms: C_17  and  C_40
   11  A    between atoms: C_18  and  C_37
   12  A    between atoms: C_23  and  C_25
   13  A    between atoms: N_31  and  C_40
   14  A    between atoms: C_34  and  C_38
   15  A    between atoms: N_35  and  C_37
                            x       y       z     vdW  Elec       q    Type
                         _______ _______ _______ _____ _____    ______ ____

>  <TORSDO>
F 15

$$$$
=
 OpenBabel11052412123D

 41 44  0  0  1  0  0  0  0  0999 V2000
  161.2160  211.4540  151.0100 N   0  0  0  0  0  0  0  0  0  0  0  0
  160.6670  206.9790  156.2080 C   0  0  0  0  0  3  0  0  0  0  0  0
  160.6710  208.2580  154.1320 C   0  0  0  0  0  0  0  0  0  0  0  0
  162.0100  207.9560  150.5770 C   0  0  0  0  0  3  0  0  0  0  0  0
  160.1850  209.4000  154.8670 C   0  0  0  0  0  0  0  0  0  0  0  0
  160.6700  211.8640  152.1610 N   0  0  0  0  0  0  0  0  0  0  0  0
  159.8910  209.2660  156.2320 C   0  0  0  0  0  3  0  0  0  0  0  0
  161.4720  207.4400  151.7990 C   0  0  0  0  0  0  0  0  0  0  0  0
  160.0690  210.6720  154.2430 C   0  0  0  0  0  0  0  0  0  0  0  0
  161.3630  206.0940  151.9190 C   0  0  1  0  0  3  0  0  0  0  0  0
  160.1210  208.0610  156.8950 C   0  0  0  0  0  3  0  0  0  0  0  0
  160.4790  210.7560  152.9180 C   0  0  0  0  0  0  0  0  0  0  0  0
  161.9490  209.2820  150.2500 N   0  0  0  0  0  2  0  0  0  0  0  0
  161.3310  210.1140  151.1150 C   0  0  0  0  0  0  0  0  0  0  0  0
  160.8770  209.6700  152.2730 N   0  0  0  0  0  0  0  0  0  0  0  0
  160.9670  208.4080  152.7400 C   0  0  0  0  0  0  0  0  0  0  0  0
  160.9500  207.0850  154.8460 C   0  0  0  0  0  3  0  0  0  0  0  0
  160.7080  204.3150  153.5160 C   0  0  0  0  0  1  0  0  0  0  0  0
  160.4510  205.5220  152.8130 O   0  0  0  0  0  0  0  0  0  0  0  0
  160.5490  212.4300  155.9520 C   0  0  0  0  0  1  0  0  0  0  0  0
  159.6570  211.8410  154.9620 N   0  0  0  0  0  0  0  0  0  0  0  0
  158.3420  212.4280  154.6930 C   0  0  1  0  0  3  0  0  0  0  0  0
  158.4500  213.5380  153.8490 O   0  0  0  0  0  0  0  0  0  0  0  0
  157.1560  214.0560  153.7730 C   0  0  0  0  0  1  0  0  0  0  0  0
  157.3580  211.4010  154.1280 C   0  0  0  0  0  2  0  0  0  0  0  0
  156.3430  210.9980  155.1100 C   0  0  0  0  0  0  0  0  0  0  0  0
  155.5120  210.6690  155.9180 C   0  0  0  0  0  3  0  0  0  0  0  0
  162.1450  205.1850  151.0000 C   0  0  0  0  0  2  0  0  0  0  0  0
  161.0430  202.9970  150.3270 C   0  0  0  0  0  0  0  0  0  0  0  0
  161.6250  202.3650  151.2490 O   0  0  0  0  0  0  0  0  0  0  0  0
  161.2460  204.4040  150.1630 N   0  0  0  0  0  2  0  0  0  0  0  0
  160.1410  202.2680  149.3940 C   0  0  0  0  0  2  0  0  0  0  0  0
  160.9240  201.5540  148.3970 N   0  0  0  0  0  2  0  0  0  0  0  0
  160.6170  202.1320  147.0950 C   0  0  2  0  0  3  0  0  0  0  0  0
  160.0750  200.9420  145.2500 O   0  0  0  0  0  1  0  0  0  0  0  0
  161.1280  201.2720  146.0350 N   0  0  0  0  0  2  0  0  0  0  0  0
  161.2070  203.5360  146.9820 C   0  0  0  0  0  2  0  0  0  0  0  0
  160.8120  204.4290  144.7070 C   0  0  0  0  0  1  0  0  0  0  0  0
  161.8370  203.7850  145.6200 C   0  0  1  0  0  3  0  0  0  0  0  0
  162.7090  205.8440  146.7250 C   0  0  0  0  0  1  0  0  0  0  0  0
  163.0380  204.7000  145.7860 C   0  0  0  0  0  2  0  0  0  0  0  0
  1 14  2  0  0  0  0
  1  6  1  0  0  0  0
  2 11  1  0  0  0  0
  3 17  1  0  0  0  0
  3  5  1  0  0  0  0
  4  8  2  0  0  0  0
  5  7  1  0  0  0  0
  6 12  2  0  0  0  0
  7 11  2  0  0  0  0
  8 10  1  0  0  0  0
  8 16  1  0  0  0  0
  9  5  2  0  0  0  0
  9 21  1  0  0  0  0
 10 28  1  6  0  0  0
 10 19  1  0  0  0  0
 12  9  1  0  0  0  0
 13  4  1  0  0  0  0
 13 14  1  0  0  0  0
 14 15  1  0  0  0  0
 15 16  1  0  0  0  0
 15 12  1  0  0  0  0
 16  3  2  0  0  0  0
 17  2  2  0  0  0  0
 19 18  1  0  0  0  0
 21 20  1  0  0  0  0
 22 25  1  6  0  0  0
 22 21  1  0  0  0  0
 23 22  1  0  0  0  0
 24 23  1  0  0  0  0
 25 26  1  0  0  0  0
 26 27  3  0  0  0  0
 29 30  2  0  0  0  0
 31 29  1  0  0  0  0
 31 28  1  0  0  0  0
 32 29  1  0  0  0  0
 33 32  1  0  0  0  0
 34 37  1  1  0  0  0
 34 33  1  0  0  0  0
 35 36  1  0  0  0  0
 36 34  1  0  0  0  0
 39 38  1  6  0  0  0
 39 41  1  0  0  0  0
 39 37  1  0  0  0  0
 41 40  1  0  0  0  0
M  END
>  <MODEL>
9

>  <REMARK>
 VINA RESULT:      -5.2      1.894      2.970
  Name = 
  15 active torsions:
  status: ('A' for Active; 'I' for Inactive)
    1  A    between atoms: C_6  and  C_11
    2  A    between atoms: C_6  and  C_25
    3  A    between atoms: C_11  and  N_13
    4  A    between atoms: C_11  and  N_31
    5  A    between atoms: C_14  and  N_39
    6  A    between atoms: O_15  and  C_18
    7  A    between atoms: C_16  and  O_24
    8  A    between atoms: C_16  and  C_34
    9  A    between atoms: C_16  and  N_39
   10  A    between atoms: C_17  and  C_40
   11  A    between atoms: C_18  and  C_37
   12  A    between atoms: C_23  and  C_25
   13  A    between atoms: N_31  and  C_40
   14  A    between atoms: C_34  and  C_38
   15  A    between atoms: N_35  and  C_37
                            x       y       z     vdW  Elec       q    Type
                         _______ _______ _______ _____ _____    ______ ____

>  <TORSDO>
F 15

$$$$
