=
 OpenBabel11042422533D

 29 31  0  0  1  0  0  0  0  0999 V2000
  160.9670  205.9930  151.0120 N   0  0  0  0  0  0  0  0  0  0  0  0
  161.7410  204.7690  151.1660 C   0  0  0  0  0  2  0  0  0  0  0  0
  160.8150  203.5940  151.4500 C   0  0  2  0  0  3  0  0  0  0  0  0
  160.4270  203.6040  152.7900 O   0  0  0  0  0  1  0  0  0  0  0  0
  161.4560  202.2540  151.0850 C   0  0  0  0  0  2  0  0  0  0  0  0
  160.7950  201.6000  149.9140 C   0  0  0  0  0  0  0  0  0  0  0  0
  161.4720  200.6340  149.1820 O   0  0  0  0  0  0  0  0  0  0  0  0
  159.6310  201.9400  149.5770 O   0  0  0  0  0  1  0  0  0  0  0  0
  161.8050  207.1050  151.4450 C   0  0  0  0  0  2  0  0  0  0  0  0
  160.4310  208.5080  155.6540 C   0  0  0  0  0  0  0  0  0  0  0  0
  161.6860  209.2550  152.7100 C   0  0  2  0  0  3  0  0  0  0  0  0
  159.7270  210.8790  152.9170 C   0  0  0  0  0  2  0  0  0  0  0  0
  161.9070  209.7830  154.1320 C   0  0  0  0  0  2  0  0  0  0  0  0
  160.6990  210.1660  151.9670 C   0  0  0  0  0  2  0  0  0  0  0  0
  161.4270  206.9830  153.9150 C   0  0  0  0  0  2  0  0  0  0  0  0
  161.1810  207.8020  152.6450 C   0  0  2  0  0  3  0  0  0  0  0  0
  160.1830  208.5380  156.9110 N   0  0  0  0  0  2  0  0  0  0  0  0
  160.2990  207.2030  154.9200 C   0  0  0  0  0  2  0  0  0  0  0  0
  160.5800  209.8040  154.9140 C   0  0  1  0  0  3  0  0  0  0  0  0
  159.4000  210.0210  154.0580 N   0  0  0  0  0  2  0  0  0  0  0  0
  160.6220  206.1660  149.5990 C   0  0  0  0  0  2  0  0  0  0  0  0
  161.7600  206.1240  148.7790 O   0  0  0  0  0  0  0  0  0  0  0  0
  161.4180  204.3400  145.0340 C   0  0  0  0  0  2  0  0  0  0  0  0
  161.2550  203.5630  146.3150 C   0  0  0  0  0  0  0  0  0  0  0  0
  161.1230  202.1470  146.2720 N   0  0  0  0  0  1  0  0  0  0  0  0
  162.1890  206.2220  146.4400 C   0  0  0  0  0  3  0  0  0  0  0  0
  162.2460  205.5810  145.2620 C   0  0  0  0  0  3  0  0  0  0  0  0
  161.2900  205.7050  147.5340 C   0  0  1  0  0  3  0  0  0  0  0  0
  161.2010  204.2010  147.4880 C   0  0  0  0  0  3  0  0  0  0  0  0
  1  2  1  0  0  0  0
  1  9  1  0  0  0  0
  2  3  1  0  0  0  0
  3  4  1  1  0  0  0
  5  3  1  0  0  0  0
  6  5  1  0  0  0  0
  7  6  2  0  0  0  0
  8  6  1  0  0  0  0
 10 17  2  0  0  0  0
 11 14  1  1  0  0  0
 11 13  1  0  0  0  0
 12 20  1  0  0  0  0
 14 12  1  0  0  0  0
 15 18  1  0  0  0  0
 16  9  1  6  0  0  0
 16 11  1  0  0  0  0
 16 15  1  0  0  0  0
 18 10  1  0  0  0  0
 19 13  1  6  0  0  0
 19 10  1  0  0  0  0
 20 19  1  0  0  0  0
 21  1  1  0  0  0  0
 22 21  1  0  0  0  0
 23 27  1  0  0  0  0
 23 24  1  0  0  0  0
 24 29  2  0  0  0  0
 25 24  1  0  0  0  0
 26 28  1  0  0  0  0
 27 26  2  0  0  0  0
 28 22  1  1  0  0  0
 29 28  1  0  0  0  0
M  END
>  <MODEL>
1

>  <REMARK>
 VINA RESULT:      -7.0      0.000      0.000
  Name = 
  9 active torsions:
  status: ('A' for Active; 'I' for Inactive)
    1  A    between atoms: C_4  and  C_7
    2  A    between atoms: C_4  and  C_15
    3  A    between atoms: C_6  and  C_15
    4  A    between atoms: C_7  and  N_18
    5  A    between atoms: C_10  and  C_12
    6  A    between atoms: C_12  and  N_18
    7  A    between atoms: N_18  and  C_29
    8  A    between atoms: C_26  and  O_28
    9  A    between atoms: O_28  and  C_29
                            x       y       z     vdW  Elec       q    Type
                         _______ _______ _______ _____ _____    ______ ____

>  <TORSDO>
F 9

$$$$
=
 OpenBabel11042422533D

 29 31  0  0  1  0  0  0  0  0999 V2000
  161.6880  206.6430  152.1180 N   0  0  0  0  0  0  0  0  0  0  0  0
  161.0440  207.2150  150.9430 C   0  0  0  0  0  2  0  0  0  0  0  0
  162.0820  207.8650  150.0410 C   0  0  2  0  0  3  0  0  0  0  0  0
  162.5920  209.0140  150.6490 O   0  0  0  0  0  1  0  0  0  0  0  0
  161.5170  208.1950  148.6580 C   0  0  0  0  0  2  0  0  0  0  0  0
  161.5260  207.0170  147.7370 C   0  0  0  0  0  0  0  0  0  0  0  0
  160.3320  206.5110  147.2410 O   0  0  0  0  0  0  0  0  0  0  0  0
  162.6160  206.4700  147.4250 O   0  0  0  0  0  1  0  0  0  0  0  0
  160.7620  206.7700  153.2370 C   0  0  0  0  0  2  0  0  0  0  0  0
  160.3890  211.2460  154.4240 C   0  0  0  0  0  0  0  0  0  0  0  0
  160.4220  208.0870  155.3330 C   0  0  2  0  0  3  0  0  0  0  0  0
  162.1770  209.1340  156.8630 C   0  0  0  0  0  2  0  0  0  0  0  0
  159.6680  209.3320  155.8160 C   0  0  0  0  0  2  0  0  0  0  0  0
  161.6440  207.8410  156.2280 C   0  0  0  0  0  2  0  0  0  0  0  0
  160.1270  209.1800  153.0090 C   0  0  0  0  0  2  0  0  0  0  0  0
  160.8760  208.1530  153.8630 C   0  0  2  0  0  3  0  0  0  0  0  0
  160.1190  212.4980  154.3980 N   0  0  0  0  0  2  0  0  0  0  0  0
  160.7690  210.5580  153.1430 C   0  0  0  0  0  2  0  0  0  0  0  0
  160.5760  210.5740  155.7520 C   0  0  1  0  0  3  0  0  0  0  0  0
  162.0040  210.2650  155.9510 N   0  0  0  0  0  2  0  0  0  0  0  0
  161.9580  205.2240  151.8720 C   0  0  0  0  0  2  0  0  0  0  0  0
  160.8400  204.5690  151.3340 O   0  0  0  0  0  0  0  0  0  0  0  0
  161.2990  201.4080  148.6640 C   0  0  0  0  0  2  0  0  0  0  0  0
  161.2270  202.8430  148.2090 C   0  0  0  0  0  0  0  0  0  0  0  0
  161.1650  203.1430  146.8200 N   0  0  0  0  0  1  0  0  0  0  0  0
  160.6600  202.2340  150.9060 C   0  0  0  0  0  3  0  0  0  0  0  0
  160.6320  201.2380  150.0080 C   0  0  0  0  0  3  0  0  0  0  0  0
  161.3690  203.5240  150.5750 C   0  0  1  0  0  3  0  0  0  0  0  0
  161.2530  203.8360  149.1040 C   0  0  0  0  0  3  0  0  0  0  0  0
  1  9  1  0  0  0  0
  2  1  1  0  0  0  0
  3  4  1  1  0  0  0
  3  2  1  0  0  0  0
  5  3  1  0  0  0  0
  6  5  1  0  0  0  0
  7  6  2  0  0  0  0
  8  6  1  0  0  0  0
 10 19  1  0  0  0  0
 11 13  1  1  0  0  0
 11 14  1  0  0  0  0
 14 12  1  0  0  0  0
 15 18  1  0  0  0  0
 15 16  1  0  0  0  0
 16  9  1  6  0  0  0
 16 11  1  0  0  0  0
 17 10  2  0  0  0  0
 18 10  1  0  0  0  0
 19 13  1  6  0  0  0
 19 20  1  0  0  0  0
 20 12  1  0  0  0  0
 21  1  1  0  0  0  0
 22 21  1  0  0  0  0
 23 27  1  0  0  0  0
 24 23  1  0  0  0  0
 24 29  2  0  0  0  0
 25 24  1  0  0  0  0
 27 26  2  0  0  0  0
 28 26  1  0  0  0  0
 28 22  1  1  0  0  0
 29 28  1  0  0  0  0
M  END
>  <MODEL>
2

>  <REMARK>
 VINA RESULT:      -6.9      1.923      4.153
  Name = 
  9 active torsions:
  status: ('A' for Active; 'I' for Inactive)
    1  A    between atoms: C_4  and  C_7
    2  A    between atoms: C_4  and  C_15
    3  A    between atoms: C_6  and  C_15
    4  A    between atoms: C_7  and  N_18
    5  A    between atoms: C_10  and  C_12
    6  A    between atoms: C_12  and  N_18
    7  A    between atoms: N_18  and  C_29
    8  A    between atoms: C_26  and  O_28
    9  A    between atoms: O_28  and  C_29
                            x       y       z     vdW  Elec       q    Type
                         _______ _______ _______ _____ _____    ______ ____

>  <TORSDO>
F 9

$$$$
=
 OpenBabel11042422533D

 29 31  0  0  1  0  0  0  0  0999 V2000
  161.5670  207.2960  151.1340 N   0  0  0  0  0  0  0  0  0  0  0  0
  162.6280  207.9890  150.4150 C   0  0  0  0  0  2  0  0  0  0  0  0
  162.0310  208.9110  149.3620 C   0  0  2  0  0  3  0  0  0  0  0  0
  162.5780  208.6230  148.1100 O   0  0  0  0  0  1  0  0  0  0  0  0
  162.2310  210.3880  149.7090 C   0  0  0  0  0  2  0  0  0  0  0  0
  162.1660  211.2750  148.5070 C   0  0  0  0  0  0  0  0  0  0  0  0
  161.0050  211.3340  147.7480 O   0  0  0  0  0  0  0  0  0  0  0  0
  163.1700  211.9540  148.1700 O   0  0  0  0  0  1  0  0  0  0  0  0
  160.5320  208.2730  151.4480 C   0  0  0  0  0  2  0  0  0  0  0  0
  160.9670  208.1400  156.0710 C   0  0  0  0  0  0  0  0  0  0  0  0
  160.8900  209.9090  153.3010 C   0  0  2  0  0  3  0  0  0  0  0  0
  159.1500  211.0720  154.7630 C   0  0  0  0  0  2  0  0  0  0  0  0
  161.6620  210.0220  154.6220 C   0  0  0  0  0  2  0  0  0  0  0  0
  159.6650  210.8320  153.3370 C   0  0  0  0  0  2  0  0  0  0  0  0
  161.2010  207.3720  153.6840 C   0  0  0  0  0  2  0  0  0  0  0  0
  160.4370  208.4790  152.9530 C   0  0  2  0  0  3  0  0  0  0  0  0
  161.2550  207.7600  157.2600 N   0  0  0  0  0  2  0  0  0  0  0  0
  160.5780  207.1060  155.0520 C   0  0  0  0  0  2  0  0  0  0  0  0
  160.7710  209.6030  155.8060 C   0  0  1  0  0  3  0  0  0  0  0  0
  159.3390  209.8770  155.5860 N   0  0  0  0  0  2  0  0  0  0  0  0
  161.0060  206.2540  150.2710 C   0  0  0  0  0  2  0  0  0  0  0  0
  160.7740  205.0640  150.9780 O   0  0  0  0  0  0  0  0  0  0  0  0
  161.2070  202.1920  147.9950 C   0  0  0  0  0  2  0  0  0  0  0  0
  161.3440  203.6680  147.7190 C   0  0  0  0  0  0  0  0  0  0  0  0
  161.4810  204.1280  146.3800 N   0  0  0  0  0  1  0  0  0  0  0  0
  160.3980  202.8320  150.2430 C   0  0  0  0  0  3  0  0  0  0  0  0
  160.3700  201.9540  149.2290 C   0  0  0  0  0  3  0  0  0  0  0  0
  161.2740  204.0560  150.1530 C   0  0  1  0  0  3  0  0  0  0  0  0
  161.3690  204.5430  148.7300 C   0  0  0  0  0  3  0  0  0  0  0  0
  1  9  1  0  0  0  0
  2  1  1  0  0  0  0
  3  4  1  6  0  0  0
  3  5  1  0  0  0  0
  3  2  1  0  0  0  0
  6  5  1  0  0  0  0
  7  6  2  0  0  0  0
  8  6  1  0  0  0  0
 10 17  2  0  0  0  0
 11 14  1  1  0  0  0
 11 13  1  0  0  0  0
 12 20  1  0  0  0  0
 14 12  1  0  0  0  0
 15 18  1  0  0  0  0
 16  9  1  6  0  0  0
 16 11  1  0  0  0  0
 16 15  1  0  0  0  0
 18 10  1  0  0  0  0
 19 13  1  6  0  0  0
 19 10  1  0  0  0  0
 20 19  1  0  0  0  0
 21 22  1  0  0  0  0
 21  1  1  0  0  0  0
 23 27  1  0  0  0  0
 24 23  1  0  0  0  0
 24 29  2  0  0  0  0
 25 24  1  0  0  0  0
 27 26  2  0  0  0  0
 28 26  1  0  0  0  0
 28 22  1  1  0  0  0
 29 28  1  0  0  0  0
M  END
>  <MODEL>
3

>  <REMARK>
 VINA RESULT:      -6.8      2.222      4.610
  Name = 
  9 active torsions:
  status: ('A' for Active; 'I' for Inactive)
    1  A    between atoms: C_4  and  C_7
    2  A    between atoms: C_4  and  C_15
    3  A    between atoms: C_6  and  C_15
    4  A    between atoms: C_7  and  N_18
    5  A    between atoms: C_10  and  C_12
    6  A    between atoms: C_12  and  N_18
    7  A    between atoms: N_18  and  C_29
    8  A    between atoms: C_26  and  O_28
    9  A    between atoms: O_28  and  C_29
                            x       y       z     vdW  Elec       q    Type
                         _______ _______ _______ _____ _____    ______ ____

>  <TORSDO>
F 9

$$$$
=
 OpenBabel11042422533D

 29 31  0  0  1  0  0  0  0  0999 V2000
  161.7560  207.8320  152.0400 N   0  0  0  0  0  0  0  0  0  0  0  0
  161.2400  208.4330  150.8180 C   0  0  0  0  0  2  0  0  0  0  0  0
  162.2690  209.3850  150.2260 C   0  0  2  0  0  3  0  0  0  0  0  0
  162.5410  210.4160  151.1270 O   0  0  0  0  0  1  0  0  0  0  0  0
  161.8190  209.9550  148.8790 C   0  0  0  0  0  2  0  0  0  0  0  0
  162.1120  211.4150  148.7450 C   0  0  0  0  0  0  0  0  0  0  0  0
  161.1960  212.3530  149.2040 O   0  0  0  0  0  1  0  0  0  0  0  0
  163.1790  211.7960  148.1980 O   0  0  0  0  0  0  0  0  0  0  0  0
  160.6730  207.8080  153.0150 C   0  0  0  0  0  2  0  0  0  0  0  0
  160.2790  211.8100  155.3410 C   0  0  0  0  0  0  0  0  0  0  0  0
  160.4290  208.5270  155.3950 C   0  0  2  0  0  3  0  0  0  0  0  0
  162.2490  209.2030  157.0530 C   0  0  0  0  0  2  0  0  0  0  0  0
  159.6790  209.5780  156.2230 C   0  0  0  0  0  2  0  0  0  0  0  0
  161.7060  208.1010  156.1310 C   0  0  0  0  0  2  0  0  0  0  0  0
  159.9760  210.1710  153.4520 C   0  0  0  0  0  2  0  0  0  0  0  0
  160.7950  208.9860  153.9710 C   0  0  2  0  0  3  0  0  0  0  0  0
  159.9820  213.0170  155.6540 N   0  0  0  0  0  2  0  0  0  0  0  0
  160.5970  211.4900  153.9070 C   0  0  0  0  0  2  0  0  0  0  0  0
  160.5570  210.8250  156.4360 C   0  0  1  0  0  3  0  0  0  0  0  0
  162.0000  210.5250  156.4750 N   0  0  0  0  0  2  0  0  0  0  0  0
  162.1830  206.4600  151.7550 C   0  0  0  0  0  2  0  0  0  0  0  0
  161.0870  205.5960  151.6120 O   0  0  0  0  0  0  0  0  0  0  0  0
  161.1910  202.9240  148.4210 C   0  0  0  0  0  2  0  0  0  0  0  0
  161.2710  204.4160  148.2260 C   0  0  0  0  0  0  0  0  0  0  0  0
  161.2340  204.9610  146.9130 N   0  0  0  0  0  1  0  0  0  0  0  0
  160.6570  203.4040  150.7880 C   0  0  0  0  0  3  0  0  0  0  0  0
  160.5170  202.5900  149.7300 C   0  0  0  0  0  3  0  0  0  0  0  0
  161.4970  204.6510  150.6700 C   0  0  1  0  0  3  0  0  0  0  0  0
  161.4070  205.2280  149.2790 C   0  0  0  0  0  3  0  0  0  0  0  0
  1  9  1  0  0  0  0
  2  1  1  0  0  0  0
  3  2  1  0  0  0  0
  3  4  1  1  0  0  0
  5  3  1  0  0  0  0
  6  5  1  0  0  0  0
  6  7  1  0  0  0  0
  8  6  2  0  0  0  0
 10 17  2  0  0  0  0
 10 19  1  0  0  0  0
 11 14  1  1  0  0  0
 11 13  1  0  0  0  0
 14 12  1  0  0  0  0
 15 18  1  0  0  0  0
 15 16  1  0  0  0  0
 16  9  1  6  0  0  0
 16 11  1  0  0  0  0
 18 10  1  0  0  0  0
 19 13  1  6  0  0  0
 19 20  1  0  0  0  0
 20 12  1  0  0  0  0
 21  1  1  0  0  0  0
 22 21  1  0  0  0  0
 23 27  1  0  0  0  0
 24 23  1  0  0  0  0
 24 29  2  0  0  0  0
 25 24  1  0  0  0  0
 27 26  2  0  0  0  0
 28 26  1  0  0  0  0
 28 22  1  1  0  0  0
 29 28  1  0  0  0  0
M  END
>  <MODEL>
4

>  <REMARK>
 VINA RESULT:      -6.6      2.626      5.242
  Name = 
  9 active torsions:
  status: ('A' for Active; 'I' for Inactive)
    1  A    between atoms: C_4  and  C_7
    2  A    between atoms: C_4  and  C_15
    3  A    between atoms: C_6  and  C_15
    4  A    between atoms: C_7  and  N_18
    5  A    between atoms: C_10  and  C_12
    6  A    between atoms: C_12  and  N_18
    7  A    between atoms: N_18  and  C_29
    8  A    between atoms: C_26  and  O_28
    9  A    between atoms: O_28  and  C_29
                            x       y       z     vdW  Elec       q    Type
                         _______ _______ _______ _____ _____    ______ ____

>  <TORSDO>
F 9

$$$$
=
 OpenBabel11042422533D

 29 31  0  0  1  0  0  0  0  0999 V2000
  161.9480  207.4480  149.2260 N   0  0  0  0  0  0  0  0  0  0  0  0
  162.4620  207.1560  150.5570 C   0  0  0  0  0  2  0  0  0  0  0  0
  161.4020  206.4400  151.3830 C   0  0  2  0  0  3  0  0  0  0  0  0
  160.8540  207.3180  152.3200 O   0  0  0  0  0  1  0  0  0  0  0  0
  161.9560  205.1930  152.0740 C   0  0  0  0  0  2  0  0  0  0  0  0
  161.2710  203.9390  151.6330 C   0  0  0  0  0  0  0  0  0  0  0  0
  161.9550  202.7310  151.6430 O   0  0  0  0  0  1  0  0  0  0  0  0
  160.0790  203.9810  151.2330 O   0  0  0  0  0  0  0  0  0  0  0  0
  160.7700  206.6150  149.0130 C   0  0  0  0  0  2  0  0  0  0  0  0
  161.2350  205.3960  144.5550 C   0  0  0  0  0  0  0  0  0  0  0  0
  162.0460  204.9140  147.7040 C   0  0  2  0  0  3  0  0  0  0  0  0
  161.3010  202.5910  146.9510 C   0  0  0  0  0  2  0  0  0  0  0  0
  162.8000  204.7930  146.3740 C   0  0  0  0  0  2  0  0  0  0  0  0
  161.5410  203.5320  148.1400 C   0  0  0  0  0  2  0  0  0  0  0  0
  160.9110  206.9200  146.5340 C   0  0  0  0  0  2  0  0  0  0  0  0
  160.8630  205.8990  147.6740 C   0  0  2  0  0  3  0  0  0  0  0  0
  161.3090  205.4440  143.2770 N   0  0  0  0  0  2  0  0  0  0  0  0
  160.2980  206.3330  145.2640 C   0  0  0  0  0  2  0  0  0  0  0  0
  161.8730  204.2440  145.2740 C   0  0  1  0  0  3  0  0  0  0  0  0
  160.8260  203.3420  145.7880 N   0  0  0  0  0  2  0  0  0  0  0  0
  161.5620  208.8600  149.1610 C   0  0  0  0  0  2  0  0  0  0  0  0
  162.4510  209.6030  148.3690 O   0  0  0  0  0  0  0  0  0  0  0  0
  161.6120  213.6540  147.9000 C   0  0  0  0  0  2  0  0  0  0  0  0
  160.6310  212.5770  147.5120 C   0  0  0  0  0  0  0  0  0  0  0  0
  159.4340  212.9240  146.8270 N   0  0  0  0  0  1  0  0  0  0  0  0
  163.2590  211.8380  148.2270 C   0  0  0  0  0  3  0  0  0  0  0  0
  163.0240  213.1180  147.8990 C   0  0  0  0  0  3  0  0  0  0  0  0
  162.1110  210.9360  148.6060 C   0  0  1  0  0  3  0  0  0  0  0  0
  160.8670  211.3020  147.8360 C   0  0  0  0  0  3  0  0  0  0  0  0
  1  2  1  0  0  0  0
  2  3  1  0  0  0  0
  3  5  1  0  0  0  0
  3  4  1  1  0  0  0
  6  7  1  0  0  0  0
  6  5  1  0  0  0  0
  8  6  2  0  0  0  0
  9  1  1  0  0  0  0
 10 18  1  0  0  0  0
 10 19  1  0  0  0  0
 11 13  1  6  0  0  0
 11 14  1  0  0  0  0
 12 14  1  0  0  0  0
 15 16  1  0  0  0  0
 16 11  1  0  0  0  0
 16  9  1  1  0  0  0
 17 10  2  0  0  0  0
 18 15  1  0  0  0  0
 19 20  1  0  0  0  0
 19 13  1  1  0  0  0
 20 12  1  0  0  0  0
 21  1  1  0  0  0  0
 22 21  1  0  0  0  0
 24 29  2  0  0  0  0
 24 23  1  0  0  0  0
 25 24  1  0  0  0  0
 26 28  1  0  0  0  0
 27 23  1  0  0  0  0
 27 26  2  0  0  0  0
 28 22  1  6  0  0  0
 29 28  1  0  0  0  0
M  END
>  <MODEL>
5

>  <REMARK>
 VINA RESULT:      -6.6      3.183      7.478
  Name = 
  9 active torsions:
  status: ('A' for Active; 'I' for Inactive)
    1  A    between atoms: C_4  and  C_7
    2  A    between atoms: C_4  and  C_15
    3  A    between atoms: C_6  and  C_15
    4  A    between atoms: C_7  and  N_18
    5  A    between atoms: C_10  and  C_12
    6  A    between atoms: C_12  and  N_18
    7  A    between atoms: N_18  and  C_29
    8  A    between atoms: C_26  and  O_28
    9  A    between atoms: O_28  and  C_29
                            x       y       z     vdW  Elec       q    Type
                         _______ _______ _______ _____ _____    ______ ____

>  <TORSDO>
F 9

$$$$
=
 OpenBabel11042422533D

 29 31  0  0  1  0  0  0  0  0999 V2000
  161.9450  206.7670  149.2510 N   0  0  0  0  0  0  0  0  0  0  0  0
  161.9010  207.1340  147.8430 C   0  0  0  0  0  2  0  0  0  0  0  0
  161.7300  205.8910  146.9820 C   0  0  2  0  0  3  0  0  0  0  0  0
  162.9700  205.4680  146.5020 O   0  0  0  0  0  1  0  0  0  0  0  0
  160.7560  206.1210  145.8240 C   0  0  0  0  0  2  0  0  0  0  0  0
  160.9800  205.1760  144.6870 C   0  0  0  0  0  0  0  0  0  0  0  0
  160.7200  203.8220  144.8470 O   0  0  0  0  0  1  0  0  0  0  0  0
  161.4230  205.6050  143.5910 O   0  0  0  0  0  0  0  0  0  0  0  0
  162.7070  207.7920  149.9540 C   0  0  0  0  0  2  0  0  0  0  0  0
  160.9340  208.4280  154.2000 C   0  0  0  0  0  0  0  0  0  0  0  0
  162.3710  209.7000  151.5310 C   0  0  2  0  0  3  0  0  0  0  0  0
  160.3150  211.1840  151.8270 C   0  0  0  0  0  2  0  0  0  0  0  0
  162.4520  209.9960  153.0330 C   0  0  0  0  0  2  0  0  0  0  0  0
  161.3970  210.6780  150.8610 C   0  0  0  0  0  2  0  0  0  0  0  0
  162.1460  207.2520  152.3310 C   0  0  0  0  0  2  0  0  0  0  0  0
  161.9540  208.2570  151.1920 C   0  0  2  0  0  3  0  0  0  0  0  0
  160.5890  208.2420  155.4200 N   0  0  0  0  0  2  0  0  0  0  0  0
  160.9320  207.2560  153.2580 C   0  0  0  0  0  2  0  0  0  0  0  0
  161.0690  209.8330  153.6920 C   0  0  1  0  0  3  0  0  0  0  0  0
  159.9490  210.1380  152.7830 N   0  0  0  0  0  2  0  0  0  0  0  0
  160.5790  206.7310  149.7790 C   0  0  0  0  0  2  0  0  0  0  0  0
  159.9600  205.4970  149.5310 O   0  0  0  0  0  0  0  0  0  0  0  0
  161.5450  202.0640  151.2720 C   0  0  0  0  0  2  0  0  0  0  0  0
  161.0990  202.1050  149.8330 C   0  0  0  0  0  0  0  0  0  0  0  0
  161.0730  200.9080  149.0650 N   0  0  0  0  0  1  0  0  0  0  0  0
  160.5030  204.2930  151.5120 C   0  0  0  0  0  3  0  0  0  0  0  0
  160.8420  203.1270  152.0820 C   0  0  0  0  0  3  0  0  0  0  0  0
  160.8320  204.5460  150.0620 C   0  0  1  0  0  3  0  0  0  0  0  0
  160.7590  203.2670  149.2660 C   0  0  0  0  0  3  0  0  0  0  0  0
  1 21  1  0  0  0  0
  1  9  1  0  0  0  0
  2  1  1  0  0  0  0
  3  4  1  6  0  0  0
  3  2  1  0  0  0  0
  5  3  1  0  0  0  0
  6  7  1  0  0  0  0
  6  5  1  0  0  0  0
  8  6  2  0  0  0  0
 10 17  2  0  0  0  0
 11 14  1  6  0  0  0
 11 13  1  0  0  0  0
 12 20  1  0  0  0  0
 14 12  1  0  0  0  0
 15 18  1  0  0  0  0
 16  9  1  6  0  0  0
 16 11  1  0  0  0  0
 16 15  1  0  0  0  0
 18 10  1  0  0  0  0
 19 13  1  6  0  0  0
 19 10  1  0  0  0  0
 20 19  1  0  0  0  0
 22 21  1  0  0  0  0
 23 27  1  0  0  0  0
 24 23  1  0  0  0  0
 25 24  1  0  0  0  0
 26 27  2  0  0  0  0
 28 22  1  6  0  0  0
 28 26  1  0  0  0  0
 29 24  2  0  0  0  0
 29 28  1  0  0  0  0
M  END
>  <MODEL>
6

>  <REMARK>
 VINA RESULT:      -6.6      1.938      3.992
  Name = 
  9 active torsions:
  status: ('A' for Active; 'I' for Inactive)
    1  A    between atoms: C_4  and  C_7
    2  A    between atoms: C_4  and  C_15
    3  A    between atoms: C_6  and  C_15
    4  A    between atoms: C_7  and  N_18
    5  A    between atoms: C_10  and  C_12
    6  A    between atoms: C_12  and  N_18
    7  A    between atoms: N_18  and  C_29
    8  A    between atoms: C_26  and  O_28
    9  A    between atoms: O_28  and  C_29
                            x       y       z     vdW  Elec       q    Type
                         _______ _______ _______ _____ _____    ______ ____

>  <TORSDO>
F 9

$$$$
=
 OpenBabel11042422533D

 29 31  0  0  1  0  0  0  0  0999 V2000
  161.3280  209.0540  151.0960 N   0  0  0  0  0  0  0  0  0  0  0  0
  161.9580  210.3480  150.8730 C   0  0  0  0  0  2  0  0  0  0  0  0
  161.6040  210.8730  149.4890 C   0  0  2  0  0  3  0  0  0  0  0  0
  162.6620  210.6460  148.6070 O   0  0  0  0  0  1  0  0  0  0  0  0
  161.2320  212.3560  149.5130 C   0  0  0  0  0  2  0  0  0  0  0  0
  161.1980  212.9630  148.1470 C   0  0  0  0  0  0  0  0  0  0  0  0
  160.2330  212.5640  147.2320 O   0  0  0  0  0  0  0  0  0  0  0  0
  162.0570  213.8210  147.8170 O   0  0  0  0  0  1  0  0  0  0  0  0
  162.3880  208.0690  151.2710 C   0  0  0  0  0  2  0  0  0  0  0  0
  160.8510  203.9510  149.7680 C   0  0  0  0  0  0  0  0  0  0  0  0
  161.2760  207.1650  149.2260 C   0  0  2  0  0  3  0  0  0  0  0  0
  162.3430  206.1000  147.1660 C   0  0  0  0  0  2  0  0  0  0  0  0
  160.1930  206.1490  148.8420 C   0  0  0  0  0  2  0  0  0  0  0  0
  162.2540  207.3460  148.0580 C   0  0  0  0  0  2  0  0  0  0  0  0
  161.3690  205.7880  151.4110 C   0  0  0  0  0  2  0  0  0  0  0  0
  162.0650  206.8000  150.4960 C   0  0  2  0  0  3  0  0  0  0  0  0
  160.3550  202.7700  149.7350 N   0  0  0  0  0  2  0  0  0  0  0  0
  161.6720  204.3610  150.9590 C   0  0  0  0  0  2  0  0  0  0  0  0
  160.8250  204.7820  148.5190 C   0  0  1  0  0  3  0  0  0  0  0  0
  162.1870  204.8830  147.9650 N   0  0  0  0  0  2  0  0  0  0  0  0
  160.5200  209.1200  152.3160 C   0  0  0  0  0  2  0  0  0  0  0  0
  160.8380  210.2470  153.0880 O   0  0  0  0  0  0  0  0  0  0  0  0
  161.5670  208.5400  156.8150 C   0  0  0  0  0  2  0  0  0  0  0  0
  162.1870  209.8470  156.3910 C   0  0  0  0  0  0  0  0  0  0  0  0
  163.1700  210.4640  157.2140 N   0  0  0  0  0  1  0  0  0  0  0  0
  160.7900  208.3150  154.4780 C   0  0  0  0  0  3  0  0  0  0  0  0
  161.1850  207.7140  155.6100 C   0  0  0  0  0  3  0  0  0  0  0  0
  160.7180  209.8200  154.4110 C   0  0  1  0  0  3  0  0  0  0  0  0
  161.7950  210.4450  155.2620 C   0  0  0  0  0  3  0  0  0  0  0  0
  1  9  1  0  0  0  0
  1 21  1  0  0  0  0
  2  1  1  0  0  0  0
  3  4  1  6  0  0  0
  3  5  1  0  0  0  0
  3  2  1  0  0  0  0
  6  5  1  0  0  0  0
  7  6  2  0  0  0  0
  8  6  1  0  0  0  0
 10 18  1  0  0  0  0
 11 14  1  6  0  0  0
 11 16  1  0  0  0  0
 12 20  1  0  0  0  0
 12 14  1  0  0  0  0
 13 11  1  0  0  0  0
 16  9  1  1  0  0  0
 16 15  1  0  0  0  0
 17 10  2  0  0  0  0
 18 15  1  0  0  0  0
 19 13  1  1  0  0  0
 19 10  1  0  0  0  0
 20 19  1  0  0  0  0
 21 22  1  0  0  0  0
 24 23  1  0  0  0  0
 24 25  1  0  0  0  0
 26 27  2  0  0  0  0
 27 23  1  0  0  0  0
 28 22  1  6  0  0  0
 28 26  1  0  0  0  0
 28 29  1  0  0  0  0
 29 24  2  0  0  0  0
M  END
>  <MODEL>
7

>  <REMARK>
 VINA RESULT:      -6.5      3.473      8.439
  Name = 
  9 active torsions:
  status: ('A' for Active; 'I' for Inactive)
    1  A    between atoms: C_4  and  C_7
    2  A    between atoms: C_4  and  C_15
    3  A    between atoms: C_6  and  C_15
    4  A    between atoms: C_7  and  N_18
    5  A    between atoms: C_10  and  C_12
    6  A    between atoms: C_12  and  N_18
    7  A    between atoms: N_18  and  C_29
    8  A    between atoms: C_26  and  O_28
    9  A    between atoms: O_28  and  C_29
                            x       y       z     vdW  Elec       q    Type
                         _______ _______ _______ _____ _____    ______ ____

>  <TORSDO>
F 9

$$$$
=
 OpenBabel11042422533D

 29 31  0  0  1  0  0  0  0  0999 V2000
  161.7300  208.0650  151.8350 N   0  0  0  0  0  0  0  0  0  0  0  0
  161.2720  208.9810  150.8000 C   0  0  0  0  0  2  0  0  0  0  0  0
  162.3200  210.0560  150.5490 C   0  0  2  0  0  3  0  0  0  0  0  0
  163.0610  210.2810  151.7110 O   0  0  0  0  0  1  0  0  0  0  0  0
  161.6980  211.3610  150.0470 C   0  0  0  0  0  2  0  0  0  0  0  0
  162.0190  211.6350  148.6120 C   0  0  0  0  0  0  0  0  0  0  0  0
  163.1860  212.3070  148.2760 O   0  0  0  0  0  1  0  0  0  0  0  0
  161.2200  211.2750  147.7090 O   0  0  0  0  0  0  0  0  0  0  0  0
  160.6680  207.9480  152.8270 C   0  0  0  0  0  2  0  0  0  0  0  0
  160.2400  211.8110  155.3710 C   0  0  0  0  0  0  0  0  0  0  0  0
  160.3810  208.5290  155.2390 C   0  0  2  0  0  3  0  0  0  0  0  0
  162.1710  209.1030  156.9670 C   0  0  0  0  0  2  0  0  0  0  0  0
  159.6180  209.5330  156.1120 C   0  0  0  0  0  2  0  0  0  0  0  0
  161.6430  208.0580  155.9740 C   0  0  0  0  0  2  0  0  0  0  0  0
  159.9680  210.2840  153.3860 C   0  0  0  0  0  2  0  0  0  0  0  0
  160.7750  209.0680  153.8510 C   0  0  2  0  0  3  0  0  0  0  0  0
  159.9400  212.9980  155.7480 N   0  0  0  0  0  2  0  0  0  0  0  0
  160.5840  211.5730  153.9270 C   0  0  0  0  0  2  0  0  0  0  0  0
  160.4950  210.7630  156.4130 C   0  0  1  0  0  3  0  0  0  0  0  0
  161.9360  210.4570  156.4620 N   0  0  0  0  0  2  0  0  0  0  0  0
  161.9800  206.7520  151.2350 C   0  0  0  0  0  2  0  0  0  0  0  0
  161.6540  206.7360  149.8700 O   0  0  0  0  0  0  0  0  0  0  0  0
  160.6480  202.7270  149.3720 C   0  0  0  0  0  2  0  0  0  0  0  0
  161.0070  203.3070  150.7160 C   0  0  0  0  0  0  0  0  0  0  0  0
  161.1560  202.4490  151.8410 N   0  0  0  0  0  1  0  0  0  0  0  0
  161.3860  204.8790  148.4040 C   0  0  0  0  0  3  0  0  0  0  0  0
  161.2400  203.5540  148.2570 C   0  0  0  0  0  3  0  0  0  0  0  0
  160.9490  205.5460  149.6850 C   0  0  1  0  0  3  0  0  0  0  0  0
  161.1550  204.6270  150.8630 C   0  0  0  0  0  3  0  0  0  0  0  0
  1  9  1  0  0  0  0
  2  1  1  0  0  0  0
  3  2  1  0  0  0  0
  3  4  1  1  0  0  0
  5  3  1  0  0  0  0
  6  5  1  0  0  0  0
  7  6  1  0  0  0  0
  8  6  2  0  0  0  0
 10 17  2  0  0  0  0
 10 19  1  0  0  0  0
 11 14  1  1  0  0  0
 11 13  1  0  0  0  0
 14 12  1  0  0  0  0
 15 16  1  0  0  0  0
 15 18  1  0  0  0  0
 16  9  1  6  0  0  0
 16 11  1  0  0  0  0
 18 10  1  0  0  0  0
 19 13  1  6  0  0  0
 19 20  1  0  0  0  0
 20 12  1  0  0  0  0
 21  1  1  0  0  0  0
 22 21  1  0  0  0  0
 23 24  1  0  0  0  0
 24 29  2  0  0  0  0
 24 25  1  0  0  0  0
 26 28  1  0  0  0  0
 27 26  2  0  0  0  0
 27 23  1  0  0  0  0
 28 22  1  1  0  0  0
 28 29  1  0  0  0  0
M  END
>  <MODEL>
8

>  <REMARK>
 VINA RESULT:      -6.4      2.596      5.289
  Name = 
  9 active torsions:
  status: ('A' for Active; 'I' for Inactive)
    1  A    between atoms: C_4  and  C_7
    2  A    between atoms: C_4  and  C_15
    3  A    between atoms: C_6  and  C_15
    4  A    between atoms: C_7  and  N_18
    5  A    between atoms: C_10  and  C_12
    6  A    between atoms: C_12  and  N_18
    7  A    between atoms: N_18  and  C_29
    8  A    between atoms: C_26  and  O_28
    9  A    between atoms: O_28  and  C_29
                            x       y       z     vdW  Elec       q    Type
                         _______ _______ _______ _____ _____    ______ ____

>  <TORSDO>
F 9

$$$$
=
 OpenBabel11042422533D

 29 31  0  0  1  0  0  0  0  0999 V2000
  161.4390  205.6630  151.1680 N   0  0  0  0  0  0  0  0  0  0  0  0
  161.9520  204.3210  151.4110 C   0  0  0  0  0  2  0  0  0  0  0  0
  160.8310  203.3000  151.2840 C   0  0  2  0  0  3  0  0  0  0  0  0
  160.1050  203.2370  152.4740 O   0  0  0  0  0  1  0  0  0  0  0  0
  161.3550  201.9150  150.9000 C   0  0  0  0  0  2  0  0  0  0  0  0
  160.7170  201.3830  149.6560 C   0  0  0  0  0  0  0  0  0  0  0  0
  161.4440  200.5780  148.7900 O   0  0  0  0  0  0  0  0  0  0  0  0
  159.5260  201.6820  149.3830 O   0  0  0  0  0  1  0  0  0  0  0  0
  162.5520  206.5950  151.3020 C   0  0  0  0  0  2  0  0  0  0  0  0
  160.8770  210.7870  152.3940 C   0  0  0  0  0  0  0  0  0  0  0  0
  160.9520  207.5510  152.9640 C   0  0  2  0  0  3  0  0  0  0  0  0
  161.4420  208.5410  155.2660 C   0  0  0  0  0  2  0  0  0  0  0  0
  159.8620  208.6270  153.0460 C   0  0  0  0  0  2  0  0  0  0  0  0
  161.5440  207.3060  154.3590 C   0  0  0  0  0  2  0  0  0  0  0  0
  161.7420  208.9320  150.9270 C   0  0  0  0  0  2  0  0  0  0  0  0
  162.0910  207.8760  151.9800 C   0  0  2  0  0  3  0  0  0  0  0  0
  160.4570  211.9950  152.3090 N   0  0  0  0  0  2  0  0  0  0  0  0
  161.9800  210.3360  151.4790 C   0  0  0  0  0  2  0  0  0  0  0  0
  160.4490  209.9530  153.5650 C   0  0  1  0  0  3  0  0  0  0  0  0
  161.5880  209.7690  154.4820 N   0  0  0  0  0  2  0  0  0  0  0  0
  160.9100  205.7320  149.8040 C   0  0  0  0  0  2  0  0  0  0  0  0
  161.9390  205.7840  148.8510 O   0  0  0  0  0  0  0  0  0  0  0  0
  161.1520  204.4590  144.9830 C   0  0  0  0  0  2  0  0  0  0  0  0
  161.2080  203.5200  146.1610 C   0  0  0  0  0  0  0  0  0  0  0  0
  161.1370  202.1150  145.9510 N   0  0  0  0  0  1  0  0  0  0  0  0
  162.0270  206.1980  146.5080 C   0  0  0  0  0  3  0  0  0  0  0  0
  161.9460  205.7130  145.2600 C   0  0  0  0  0  3  0  0  0  0  0  0
  161.3160  205.4930  147.6360 C   0  0  1  0  0  3  0  0  0  0  0  0
  161.2910  204.0030  147.4050 C   0  0  0  0  0  3  0  0  0  0  0  0
  1  9  1  0  0  0  0
  1  2  1  0  0  0  0
  3  2  1  0  0  0  0
  3  4  1  1  0  0  0
  5  3  1  0  0  0  0
  6  5  1  0  0  0  0
  7  6  2  0  0  0  0
  8  6  1  0  0  0  0
 10 19  1  0  0  0  0
 11 13  1  1  0  0  0
 11 14  1  0  0  0  0
 14 12  1  0  0  0  0
 15 18  1  0  0  0  0
 15 16  1  0  0  0  0
 16  9  1  6  0  0  0
 16 11  1  0  0  0  0
 17 10  2  0  0  0  0
 18 10  1  0  0  0  0
 19 13  1  6  0  0  0
 19 20  1  0  0  0  0
 20 12  1  0  0  0  0
 21  1  1  0  0  0  0
 22 21  1  0  0  0  0
 23 27  1  0  0  0  0
 23 24  1  0  0  0  0
 24 29  2  0  0  0  0
 25 24  1  0  0  0  0
 26 28  1  0  0  0  0
 27 26  2  0  0  0  0
 28 22  1  1  0  0  0
 29 28  1  0  0  0  0
M  END
>  <MODEL>
9

>  <REMARK>
 VINA RESULT:      -6.3      1.027      2.173
  Name = 
  9 active torsions:
  status: ('A' for Active; 'I' for Inactive)
    1  A    between atoms: C_4  and  C_7
    2  A    between atoms: C_4  and  C_15
    3  A    between atoms: C_6  and  C_15
    4  A    between atoms: C_7  and  N_18
    5  A    between atoms: C_10  and  C_12
    6  A    between atoms: C_12  and  N_18
    7  A    between atoms: N_18  and  C_29
    8  A    between atoms: C_26  and  O_28
    9  A    between atoms: O_28  and  C_29
                            x       y       z     vdW  Elec       q    Type
                         _______ _______ _______ _____ _____    ______ ____

>  <TORSDO>
F 9

$$$$
