=
 OpenBabel11052410063D

 33 37  0  0  1  0  0  0  0  0999 V2000
  161.4710  206.4730  148.9330 C   0  0  0  0  0  0  0  0  0  0  0  0
  160.7990  201.8830  150.4560 N   0  0  0  0  0  0  0  0  0  0  0  0
  161.4380  204.5700  147.1740 C   0  0  2  0  0  0  0  0  0  0  0  0
  161.6790  205.8280  147.7010 N   0  0  0  0  0  0  0  0  0  0  0  0
  162.6730  205.0670  146.8150 C   0  0  0  0  0  0  0  0  0  0  0  0
  160.9190  206.1460  151.2570 C   0  0  0  0  0  3  0  0  0  0  0  0
  160.4410  204.6170  146.1980 O   0  0  0  0  0  1  0  0  0  0  0  0
  161.5950  207.8480  149.1200 C   0  0  0  0  0  3  0  0  0  0  0  0
  161.1900  202.2570  148.1280 C   0  0  0  0  0  3  0  0  0  0  0  0
  161.2390  203.6340  148.3520 C   0  0  0  0  0  0  0  0  0  0  0  0
  160.9700  201.3920  149.2000 C   0  0  0  0  0  3  0  0  0  0  0  0
  161.0360  207.5280  151.4620 C   0  0  0  0  0  3  0  0  0  0  0  0
  161.1380  205.6100  149.9810 C   0  0  0  0  0  0  0  0  0  0  0  0
  163.8020  204.9490  146.2720 O   0  0  0  0  0  0  0  0  0  0  0  0
  161.3780  208.3800  150.4020 C   0  0  0  0  0  0  0  0  0  0  0  0
  160.8400  203.2170  150.7170 C   0  0  0  0  0  3  0  0  0  0  0  0
  161.0590  204.1370  149.6850 C   0  0  0  0  0  0  0  0  0  0  0  0
  161.4990  209.8540  150.6540 C   0  0  1  0  0  3  0  0  0  0  0  0
  160.9420  210.8010  152.9870 C   0  0  0  0  0  0  0  0  0  0  0  0
  161.7950  210.1050  152.0600 N   0  0  0  0  0  2  0  0  0  0  0  0
  160.1100  211.7300  152.6160 N   0  0  0  0  0  0  0  0  0  0  0  0
  161.0350  210.4940  154.3780 N   0  0  0  0  0  2  0  0  0  0  0  0
  158.6370  212.9950  151.1710 C   0  0  0  0  0  2  0  0  0  0  0  0
  159.9360  212.2180  151.2560 C   0  0  0  0  0  3  0  0  0  0  0  0
  159.9530  213.7330  151.2680 C   0  0  0  0  0  2  0  0  0  0  0  0
  161.9370  209.4720  154.8830 C   0  0  0  0  0  2  0  0  0  0  0  0
  161.8460  209.2490  157.2210 O   0  0  0  0  0  0  0  0  0  0  0  0
  161.3890  208.8990  156.1440 C   0  0  0  0  0  0  0  0  0  0  0  0
  160.2770  207.9040  156.0870 C   0  0  0  0  0  2  0  0  0  0  0  0
  160.4940  206.9370  154.9390 C   0  0  0  0  0  1  0  0  0  0  0  0
  162.5900  210.4690  149.7900 C   0  0  0  0  0  2  0  0  0  0  0  0
  162.8270  212.4110  148.2750 C   0  0  0  0  0  1  0  0  0  0  0  0
  161.9830  211.1990  148.6080 C   0  0  0  0  0  2  0  0  0  0  0  0
  1  8  2  0  0  0  0
  1 13  1  0  0  0  0
  2 16  1  0  0  0  0
  3  7  1  6  0  0  0
  3  4  1  0  0  0  0
  3 10  1  0  0  0  0
  4  1  1  0  0  0  0
  5  3  1  0  0  0  0
  5  4  1  0  0  0  0
  6 12  1  0  0  0  0
  8 15  1  0  0  0  0
  9 10  2  0  0  0  0
  9 11  1  0  0  0  0
 10 17  1  0  0  0  0
 11  2  2  0  0  0  0
 13  6  2  0  0  0  0
 14  5  2  0  0  0  0
 15 18  1  0  0  0  0
 15 12  2  0  0  0  0
 17 13  1  0  0  0  0
 17 16  2  0  0  0  0
 18 31  1  6  0  0  0
 18 20  1  0  0  0  0
 19 22  1  0  0  0  0
 20 19  1  0  0  0  0
 21 19  2  0  0  0  0
 22 26  1  0  0  0  0
 23 24  1  0  0  0  0
 23 25  1  0  0  0  0
 24 25  1  0  0  0  0
 24 21  1  0  0  0  0
 26 28  1  0  0  0  0
 28 27  2  0  0  0  0
 29 28  1  0  0  0  0
 30 29  1  0  0  0  0
 32 33  1  0  0  0  0
 33 31  1  0  0  0  0
M  END
>  <MODEL>
1

>  <REMARK>
 VINA RESULT:      -7.7      0.000      0.000
  Name = 
  8 active torsions:
  status: ('A' for Active; 'I' for Inactive)
    1  A    between atoms: C_2  and  C_10
    2  A    between atoms: C_2  and  C_30
    3  A    between atoms: N_5  and  C_30
    4  A    between atoms: N_8  and  C_20
    5  A    between atoms: N_13  and  C_14
    6  A    between atoms: C_14  and  C_19
    7  A    between atoms: C_19  and  C_27
    8  A    between atoms: C_29  and  C_30
                            x       y       z     vdW  Elec       q    Type
                         _______ _______ _______ _____ _____    ______ ____

>  <TORSDO>
F 8

$$$$
=
 OpenBabel11052410063D

 33 37  0  0  1  0  0  0  0  0999 V2000
  161.0130  207.8620  151.3770 C   0  0  0  0  0  0  0  0  0  0  0  0
  161.0990  203.0080  151.9000 N   0  0  0  0  0  0  0  0  0  0  0  0
  160.8840  206.3790  149.2560 C   0  0  2  0  0  0  0  0  0  0  0  0
  161.0760  207.5210  150.0150 N   0  0  0  0  0  0  0  0  0  0  0  0
  161.9810  207.1070  148.8470 C   0  0  0  0  0  0  0  0  0  0  0  0
  160.9010  206.9860  153.6210 C   0  0  0  0  0  3  0  0  0  0  0  0
  159.7370  206.4850  148.4680 O   0  0  0  0  0  1  0  0  0  0  0  0
  161.0210  209.1710  151.8520 C   0  0  0  0  0  3  0  0  0  0  0  0
  161.0480  203.9070  149.6860 C   0  0  0  0  0  3  0  0  0  0  0  0
  160.9880  205.2000  150.2080 C   0  0  0  0  0  0  0  0  0  0  0  0
  161.1050  202.8160  150.5550 C   0  0  0  0  0  3  0  0  0  0  0  0
  160.9040  208.2980  154.1160 C   0  0  0  0  0  3  0  0  0  0  0  0
  160.9560  206.7620  152.2390 C   0  0  0  0  0  0  0  0  0  0  0  0
  163.0070  207.2640  148.1370 O   0  0  0  0  0  0  0  0  0  0  0  0
  160.9690  209.3910  153.2380 C   0  0  0  0  0  0  0  0  0  0  0  0
  161.0420  204.2500  152.4480 C   0  0  0  0  0  3  0  0  0  0  0  0
  160.9840  205.3860  151.6310 C   0  0  0  0  0  0  0  0  0  0  0  0
  160.9740  210.7830  153.7980 C   0  0  1  0  0  3  0  0  0  0  0  0
  158.5390  211.5830  153.5210 C   0  0  0  0  0  0  0  0  0  0  0  0
  159.6530  211.1280  154.3100 N   0  0  0  0  0  2  0  0  0  0  0  0
  158.6880  212.2460  152.4110 N   0  0  0  0  0  0  0  0  0  0  0  0
  157.2130  211.3360  153.9870 N   0  0  0  0  0  2  0  0  0  0  0  0
  159.7270  213.0950  150.3980 C   0  0  0  0  0  2  0  0  0  0  0  0
  159.9580  212.6470  151.8270 C   0  0  0  0  0  3  0  0  0  0  0  0
  159.9060  214.1230  151.4920 C   0  0  0  0  0  2  0  0  0  0  0  0
  156.9520  210.6030  155.2160 C   0  0  0  0  0  2  0  0  0  0  0  0
  155.5180  211.9970  156.4500 O   0  0  0  0  0  0  0  0  0  0  0  0
  156.6500  211.5610  156.3160 C   0  0  0  0  0  0  0  0  0  0  0  0
  157.7330  211.9760  157.2570 C   0  0  0  0  0  2  0  0  0  0  0  0
  158.2570  213.3490  156.8840 C   0  0  0  0  0  1  0  0  0  0  0  0
  162.0000  210.9190  154.9130 C   0  0  0  0  0  2  0  0  0  0  0  0
  161.6700  210.2100  157.2610 C   0  0  0  0  0  1  0  0  0  0  0  0
  161.3190  211.2560  156.2250 C   0  0  0  0  0  2  0  0  0  0  0  0
  1  8  2  0  0  0  0
  1 13  1  0  0  0  0
  2 16  1  0  0  0  0
  3  7  1  6  0  0  0
  3  4  1  0  0  0  0
  3 10  1  0  0  0  0
  4  1  1  0  0  0  0
  5  3  1  0  0  0  0
  5  4  1  0  0  0  0
  6 12  1  0  0  0  0
  8 15  1  0  0  0  0
  9 10  2  0  0  0  0
  9 11  1  0  0  0  0
 10 17  1  0  0  0  0
 11  2  2  0  0  0  0
 13  6  2  0  0  0  0
 14  5  2  0  0  0  0
 15 18  1  0  0  0  0
 15 12  2  0  0  0  0
 17 13  1  0  0  0  0
 17 16  2  0  0  0  0
 18 20  1  0  0  0  0
 18 31  1  1  0  0  0
 19 22  1  0  0  0  0
 19 20  1  0  0  0  0
 21 19  2  0  0  0  0
 22 26  1  0  0  0  0
 23 25  1  0  0  0  0
 23 24  1  0  0  0  0
 24 21  1  0  0  0  0
 25 24  1  0  0  0  0
 26 28  1  0  0  0  0
 28 27  2  0  0  0  0
 28 29  1  0  0  0  0
 30 29  1  0  0  0  0
 31 33  1  0  0  0  0
 33 32  1  0  0  0  0
M  END
>  <MODEL>
2

>  <REMARK>
 VINA RESULT:      -7.6      2.634      3.963
  Name = 
  8 active torsions:
  status: ('A' for Active; 'I' for Inactive)
    1  A    between atoms: C_2  and  C_10
    2  A    between atoms: C_2  and  C_30
    3  A    between atoms: N_5  and  C_30
    4  A    between atoms: N_8  and  C_20
    5  A    between atoms: N_13  and  C_14
    6  A    between atoms: C_14  and  C_19
    7  A    between atoms: C_19  and  C_27
    8  A    between atoms: C_29  and  C_30
                            x       y       z     vdW  Elec       q    Type
                         _______ _______ _______ _____ _____    ______ ____

>  <TORSDO>
F 8

$$$$
=
 OpenBabel11052410063D

 33 37  0  0  1  0  0  0  0  0999 V2000
  161.2360  206.5280  151.1230 C   0  0  0  0  0  0  0  0  0  0  0  0
  161.1260  201.9290  149.4880 N   0  0  0  0  0  0  0  0  0  0  0  0
  160.9460  206.1180  148.5810 C   0  0  2  0  0  0  0  0  0  0  0  0
  161.2230  206.8120  149.7460 N   0  0  0  0  0  0  0  0  0  0  0  0
  162.0560  206.9280  148.4640 C   0  0  0  0  0  0  0  0  0  0  0  0
  161.1830  204.7670  152.7700 C   0  0  0  0  0  3  0  0  0  0  0  0
  159.7720  206.5800  147.9870 O   0  0  0  0  0  1  0  0  0  0  0  0
  161.3240  207.5010  152.1160 C   0  0  0  0  0  3  0  0  0  0  0  0
  161.0180  203.7020  147.8890 C   0  0  0  0  0  3  0  0  0  0  0  0
  161.0390  204.6400  148.9210 C   0  0  0  0  0  0  0  0  0  0  0  0
  161.0650  202.3410  148.1950 C   0  0  0  0  0  3  0  0  0  0  0  0
  161.2670  205.7340  153.7820 C   0  0  0  0  0  3  0  0  0  0  0  0
  161.1680  205.1650  151.4260 C   0  0  0  0  0  0  0  0  0  0  0  0
  163.0560  207.3560  147.8310 O   0  0  0  0  0  0  0  0  0  0  0  0
  161.3430  207.0970  153.4620 C   0  0  0  0  0  0  0  0  0  0  0  0
  161.1490  202.8110  150.5220 C   0  0  0  0  0  3  0  0  0  0  0  0
  161.1070  204.1900  150.2820 C   0  0  0  0  0  0  0  0  0  0  0  0
  161.4350  208.1070  154.5680 C   0  0  1  0  0  3  0  0  0  0  0  0
  161.1500  210.6410  154.1840 C   0  0  0  0  0  0  0  0  0  0  0  0
  160.6520  209.2920  154.2380 N   0  0  0  0  0  2  0  0  0  0  0  0
  162.1480  211.0510  154.9120 N   0  0  0  0  0  0  0  0  0  0  0  0
  160.5040  211.5840  153.3300 N   0  0  0  0  0  2  0  0  0  0  0  0
  163.5770  211.1700  156.8620 C   0  0  0  0  0  2  0  0  0  0  0  0
  162.8740  210.2490  155.8840 C   0  0  0  0  0  3  0  0  0  0  0  0
  162.2880  210.4890  157.2610 C   0  0  0  0  0  2  0  0  0  0  0  0
  159.3830  211.2150  152.4830 C   0  0  0  0  0  2  0  0  0  0  0  0
  158.3240  212.9570  151.3130 O   0  0  0  0  0  0  0  0  0  0  0  0
  158.4380  212.3620  152.3730 C   0  0  0  0  0  0  0  0  0  0  0  0
  157.6280  212.7740  153.5580 C   0  0  0  0  0  2  0  0  0  0  0  0
  157.2840  214.2480  153.4750 C   0  0  0  0  0  1  0  0  0  0  0  0
  160.9410  207.5230  155.8830 C   0  0  0  0  0  2  0  0  0  0  0  0
  158.6240  206.6580  155.9320 C   0  0  0  0  0  1  0  0  0  0  0  0
  159.4880  207.8870  156.1130 C   0  0  0  0  0  2  0  0  0  0  0  0
  1 13  2  0  0  0  0
  1  8  1  0  0  0  0
  2 16  1  0  0  0  0
  3  7  1  6  0  0  0
  3 10  1  0  0  0  0
  3  4  1  0  0  0  0
  4  1  1  0  0  0  0
  5  3  1  0  0  0  0
  5  4  1  0  0  0  0
  6 12  2  0  0  0  0
  8 15  2  0  0  0  0
  9 11  1  0  0  0  0
  9 10  2  0  0  0  0
 10 17  1  0  0  0  0
 11  2  2  0  0  0  0
 13  6  1  0  0  0  0
 14  5  2  0  0  0  0
 15 12  1  0  0  0  0
 15 18  1  0  0  0  0
 17 16  2  0  0  0  0
 17 13  1  0  0  0  0
 18 31  1  1  0  0  0
 19 20  1  0  0  0  0
 19 21  2  0  0  0  0
 20 18  1  0  0  0  0
 21 24  1  0  0  0  0
 22 19  1  0  0  0  0
 23 25  1  0  0  0  0
 24 23  1  0  0  0  0
 24 25  1  0  0  0  0
 26 22  1  0  0  0  0
 27 28  2  0  0  0  0
 28 26  1  0  0  0  0
 28 29  1  0  0  0  0
 30 29  1  0  0  0  0
 31 33  1  0  0  0  0
 32 33  1  0  0  0  0
M  END
>  <MODEL>
3

>  <REMARK>
 VINA RESULT:      -7.1      2.458      4.642
  Name = 
  8 active torsions:
  status: ('A' for Active; 'I' for Inactive)
    1  A    between atoms: C_2  and  C_10
    2  A    between atoms: C_2  and  C_30
    3  A    between atoms: N_5  and  C_30
    4  A    between atoms: N_8  and  C_20
    5  A    between atoms: N_13  and  C_14
    6  A    between atoms: C_14  and  C_19
    7  A    between atoms: C_19  and  C_27
    8  A    between atoms: C_29  and  C_30
                            x       y       z     vdW  Elec       q    Type
                         _______ _______ _______ _____ _____    ______ ____

>  <TORSDO>
F 8

$$$$
=
 OpenBabel11052410063D

 33 37  0  0  1  0  0  0  0  0999 V2000
  161.4660  205.2580  149.1100 C   0  0  0  0  0  0  0  0  0  0  0  0
  160.8470  200.4400  148.6090 N   0  0  0  0  0  0  0  0  0  0  0  0
  161.4360  204.2470  146.7230 C   0  0  2  0  0  0  0  0  0  0  0  0
  161.6700  205.1790  147.7210 N   0  0  0  0  0  0  0  0  0  0  0  0
  162.6640  204.8620  146.5970 C   0  0  0  0  0  0  0  0  0  0  0  0
  160.9360  203.9960  151.0950 C   0  0  0  0  0  3  0  0  0  0  0  0
  160.4310  204.6800  145.8570 O   0  0  0  0  0  1  0  0  0  0  0  0
  161.5800  206.4340  149.8460 C   0  0  0  0  0  3  0  0  0  0  0  0
  161.2160  201.7440  146.6410 C   0  0  0  0  0  3  0  0  0  0  0  0
  161.2540  202.9060  147.4120 C   0  0  0  0  0  0  0  0  0  0  0  0
  161.0120  200.5120  147.2630 C   0  0  0  0  0  3  0  0  0  0  0  0
  161.0420  205.1720  151.8510 C   0  0  0  0  0  3  0  0  0  0  0  0
  161.1500  204.0350  149.7100 C   0  0  0  0  0  0  0  0  0  0  0  0
  163.7890  204.9900  146.0490 O   0  0  0  0  0  0  0  0  0  0  0  0
  161.3690  206.3890  151.2340 C   0  0  0  0  0  0  0  0  0  0  0  0
  160.8780  201.5480  149.3960 C   0  0  0  0  0  3  0  0  0  0  0  0
  161.0810  202.8140  148.8340 C   0  0  0  0  0  0  0  0  0  0  0  0
  161.4790  207.6300  152.0710 C   0  0  1  0  0  3  0  0  0  0  0  0
  161.9100  210.1050  151.4900 C   0  0  0  0  0  0  0  0  0  0  0  0
  161.3180  208.8170  151.2390 N   0  0  0  0  0  2  0  0  0  0  0  0
  162.1860  210.5300  152.6880 N   0  0  0  0  0  0  0  0  0  0  0  0
  162.1710  210.9740  150.3880 N   0  0  0  0  0  2  0  0  0  0  0  0
  162.5360  210.5720  155.0830 C   0  0  0  0  0  2  0  0  0  0  0  0
  161.9210  209.8110  153.9250 C   0  0  0  0  0  3  0  0  0  0  0  0
  161.0500  210.6680  154.8200 C   0  0  0  0  0  2  0  0  0  0  0  0
  161.8950  210.5820  149.0160 C   0  0  0  0  0  2  0  0  0  0  0  0
  163.1670  212.2620  147.9750 O   0  0  0  0  0  0  0  0  0  0  0  0
  162.0650  211.7570  148.1150 C   0  0  0  0  0  0  0  0  0  0  0  0
  160.8870  212.3060  147.3810 C   0  0  0  0  0  2  0  0  0  0  0  0
  160.3610  213.5450  148.0790 C   0  0  0  0  0  1  0  0  0  0  0  0
  160.4310  207.6390  153.1730 C   0  0  0  0  0  2  0  0  0  0  0  0
  160.0690  207.1580  155.5730 C   0  0  0  0  0  1  0  0  0  0  0  0
  160.8930  206.8070  154.3530 C   0  0  0  0  0  2  0  0  0  0  0  0
  1 13  2  0  0  0  0
  1  8  1  0  0  0  0
  2 16  1  0  0  0  0
  3  7  1  6  0  0  0
  3 10  1  0  0  0  0
  3  4  1  0  0  0  0
  4  1  1  0  0  0  0
  5  3  1  0  0  0  0
  5  4  1  0  0  0  0
  6 12  2  0  0  0  0
  8 15  2  0  0  0  0
  9 11  1  0  0  0  0
  9 10  2  0  0  0  0
 10 17  1  0  0  0  0
 11  2  2  0  0  0  0
 13  6  1  0  0  0  0
 14  5  2  0  0  0  0
 15 12  1  0  0  0  0
 15 18  1  0  0  0  0
 17 16  2  0  0  0  0
 17 13  1  0  0  0  0
 18 31  1  1  0  0  0
 19 21  2  0  0  0  0
 20 19  1  0  0  0  0
 20 18  1  0  0  0  0
 21 24  1  0  0  0  0
 22 19  1  0  0  0  0
 24 25  1  0  0  0  0
 24 23  1  0  0  0  0
 25 23  1  0  0  0  0
 26 22  1  0  0  0  0
 27 28  2  0  0  0  0
 28 26  1  0  0  0  0
 29 30  1  0  0  0  0
 29 28  1  0  0  0  0
 31 33  1  0  0  0  0
 33 32  1  0  0  0  0
M  END
>  <MODEL>
4

>  <REMARK>
 VINA RESULT:      -6.9      2.270      4.651
  Name = 
  8 active torsions:
  status: ('A' for Active; 'I' for Inactive)
    1  A    between atoms: C_2  and  C_10
    2  A    between atoms: C_2  and  C_30
    3  A    between atoms: N_5  and  C_30
    4  A    between atoms: N_8  and  C_20
    5  A    between atoms: N_13  and  C_14
    6  A    between atoms: C_14  and  C_19
    7  A    between atoms: C_19  and  C_27
    8  A    between atoms: C_29  and  C_30
                            x       y       z     vdW  Elec       q    Type
                         _______ _______ _______ _____ _____    ______ ____

>  <TORSDO>
F 8

$$$$
=
 OpenBabel11052410063D

 33 37  0  0  1  0  0  0  0  0999 V2000
  161.0200  208.0860  152.2320 C   0  0  0  0  0  0  0  0  0  0  0  0
  160.2760  207.1260  156.9610 N   0  0  0  0  0  0  0  0  0  0  0  0
  160.8240  210.0690  153.8880 C   0  0  2  0  0  0  0  0  0  0  0  0
  160.8360  209.4080  152.6720 N   0  0  0  0  0  0  0  0  0  0  0  0
  159.8200  210.4950  153.0440 C   0  0  0  0  0  0  0  0  0  0  0  0
  161.1290  205.7790  152.9250 C   0  0  0  0  0  3  0  0  0  0  0  0
  161.9290  210.9100  154.0160 O   0  0  0  0  0  1  0  0  0  0  0  0
  161.2240  207.7300  150.9010 C   0  0  0  0  0  3  0  0  0  0  0  0
  160.3340  209.4120  156.2660 C   0  0  0  0  0  3  0  0  0  0  0  0
  160.6050  209.0120  154.9570 C   0  0  0  0  0  0  0  0  0  0  0  0
  160.1700  208.4480  157.2610 C   0  0  0  0  0  3  0  0  0  0  0  0
  161.3380  205.4040  151.5910 C   0  0  0  0  0  3  0  0  0  0  0  0
  160.9670  207.1320  153.2530 C   0  0  0  0  0  0  0  0  0  0  0  0
  158.7890  211.1740  152.7990 O   0  0  0  0  0  0  0  0  0  0  0  0
  161.3810  206.3730  150.5770 C   0  0  0  0  0  0  0  0  0  0  0  0
  160.5380  206.6950  155.6990 C   0  0  0  0  0  3  0  0  0  0  0  0
  160.7120  207.6120  154.6560 C   0  0  0  0  0  0  0  0  0  0  0  0
  161.6030  205.9400  149.1570 C   0  0  1  0  0  3  0  0  0  0  0  0
  161.2150  203.6780  147.9820 C   0  0  0  0  0  0  0  0  0  0  0  0
  160.8200  204.7450  148.8630 N   0  0  0  0  0  2  0  0  0  0  0  0
  161.9990  203.8640  146.9610 N   0  0  0  0  0  0  0  0  0  0  0  0
  160.6960  202.3680  148.2060 N   0  0  0  0  0  2  0  0  0  0  0  0
  163.4070  204.9270  145.3040 C   0  0  0  0  0  2  0  0  0  0  0  0
  162.5600  205.1400  146.5430 C   0  0  0  0  0  3  0  0  0  0  0  0
  162.0120  205.4970  145.1760 C   0  0  0  0  0  2  0  0  0  0  0  0
  159.8130  202.0680  149.3210 C   0  0  0  0  0  2  0  0  0  0  0  0
  160.9120  200.2480  150.3220 O   0  0  0  0  0  0  0  0  0  0  0  0
  160.5890  201.4210  150.4160 C   0  0  0  0  0  0  0  0  0  0  0  0
  160.9760  202.2140  151.6210 C   0  0  0  0  0  2  0  0  0  0  0  0
  162.4770  202.1600  151.8280 C   0  0  0  0  0  1  0  0  0  0  0  0
  161.2240  207.0460  148.1840 C   0  0  0  0  0  2  0  0  0  0  0  0
  161.9810  209.3860  148.4510 C   0  0  0  0  0  1  0  0  0  0  0  0
  162.3840  208.0030  147.9880 C   0  0  0  0  0  2  0  0  0  0  0  0
  1  4  1  0  0  0  0
  1 13  1  0  0  0  0
  2 11  1  0  0  0  0
  3  7  1  1  0  0  0
  3 10  1  0  0  0  0
  4  5  1  0  0  0  0
  4  3  1  0  0  0  0
  5  3  1  0  0  0  0
  6 13  2  0  0  0  0
  8  1  2  0  0  0  0
  9 11  2  0  0  0  0
 10  9  1  0  0  0  0
 12  6  1  0  0  0  0
 13 17  1  0  0  0  0
 14  5  2  0  0  0  0
 15  8  1  0  0  0  0
 15 12  2  0  0  0  0
 16  2  2  0  0  0  0
 17 10  2  0  0  0  0
 17 16  1  0  0  0  0
 18 31  1  6  0  0  0
 18 15  1  0  0  0  0
 19 22  1  0  0  0  0
 19 20  1  0  0  0  0
 20 18  1  0  0  0  0
 21 19  2  0  0  0  0
 22 26  1  0  0  0  0
 23 24  1  0  0  0  0
 24 21  1  0  0  0  0
 25 23  1  0  0  0  0
 25 24  1  0  0  0  0
 26 28  1  0  0  0  0
 27 28  2  0  0  0  0
 28 29  1  0  0  0  0
 29 30  1  0  0  0  0
 33 31  1  0  0  0  0
 33 32  1  0  0  0  0
M  END
>  <MODEL>
5

>  <REMARK>
 VINA RESULT:      -6.1      2.406      7.732
  Name = 
  8 active torsions:
  status: ('A' for Active; 'I' for Inactive)
    1  A    between atoms: C_2  and  C_10
    2  A    between atoms: C_2  and  C_30
    3  A    between atoms: N_5  and  C_30
    4  A    between atoms: N_8  and  C_20
    5  A    between atoms: N_13  and  C_14
    6  A    between atoms: C_14  and  C_19
    7  A    between atoms: C_19  and  C_27
    8  A    between atoms: C_29  and  C_30
                            x       y       z     vdW  Elec       q    Type
                         _______ _______ _______ _____ _____    ______ ____

>  <TORSDO>
F 8

$$$$
=
 OpenBabel11052410063D

 33 37  0  0  1  0  0  0  0  0999 V2000
  160.9760  206.6110  151.0300 C   0  0  0  0  0  0  0  0  0  0  0  0
  161.2330  201.8720  149.8820 N   0  0  0  0  0  0  0  0  0  0  0  0
  160.9120  205.9300  148.5300 C   0  0  2  0  0  0  0  0  0  0  0  0
  161.0590  206.7540  149.6340 N   0  0  0  0  0  0  0  0  0  0  0  0
  161.9840  206.7890  148.4110 C   0  0  0  0  0  0  0  0  0  0  0  0
  160.8840  205.0250  152.8440 C   0  0  0  0  0  3  0  0  0  0  0  0
  159.7660  206.2610  147.8060 O   0  0  0  0  0  1  0  0  0  0  0  0
  160.9350  207.6820  151.9190 C   0  0  0  0  0  3  0  0  0  0  0  0
  161.1620  203.4650  148.1020 C   0  0  0  0  0  3  0  0  0  0  0  0
  161.0530  204.5030  149.0290 C   0  0  0  0  0  0  0  0  0  0  0  0
  161.2540  202.1470  148.5520 C   0  0  0  0  0  3  0  0  0  0  0  0
  160.8370  206.0920  153.7520 C   0  0  0  0  0  3  0  0  0  0  0  0
  160.9550  205.2830  151.4680 C   0  0  0  0  0  0  0  0  0  0  0  0
  163.0080  207.2090  147.8130 O   0  0  0  0  0  0  0  0  0  0  0  0
  160.8680  207.4180  153.2970 C   0  0  0  0  0  0  0  0  0  0  0  0
  161.1280  202.8540  150.8170 C   0  0  0  0  0  3  0  0  0  0  0  0
  161.0350  204.1960  150.4310 C   0  0  0  0  0  0  0  0  0  0  0  0
  160.8200  208.5380  154.2950 C   0  0  1  0  0  3  0  0  0  0  0  0
  160.8370  211.0800  153.8600 C   0  0  0  0  0  0  0  0  0  0  0  0
  160.3130  209.7530  153.6680 N   0  0  0  0  0  2  0  0  0  0  0  0
  161.4240  211.4510  154.9610 N   0  0  0  0  0  0  0  0  0  0  0  0
  160.6770  212.0450  152.8210 N   0  0  0  0  0  2  0  0  0  0  0  0
  162.2140  211.4670  157.2480 C   0  0  0  0  0  2  0  0  0  0  0  0
  161.6100  210.6240  156.1430 C   0  0  0  0  0  3  0  0  0  0  0  0
  160.7350  211.1550  157.2610 C   0  0  0  0  0  2  0  0  0  0  0  0
  160.0340  211.7190  151.5590 C   0  0  0  0  0  2  0  0  0  0  0  0
  161.8350  210.6950  150.4480 O   0  0  0  0  0  0  0  0  0  0  0  0
  161.0590  211.6370  150.4810 C   0  0  0  0  0  0  0  0  0  0  0  0
  161.1280  212.7050  149.4390 C   0  0  0  0  0  2  0  0  0  0  0  0
  162.0670  212.2920  148.3230 C   0  0  0  0  0  1  0  0  0  0  0  0
  159.9400  208.1750  155.4810 C   0  0  0  0  0  2  0  0  0  0  0  0
  160.7700  206.6150  157.2130 C   0  0  0  0  0  1  0  0  0  0  0  0
  160.7710  208.0540  156.7430 C   0  0  0  0  0  2  0  0  0  0  0  0
  1 13  2  0  0  0  0
  1  8  1  0  0  0  0
  2 16  1  0  0  0  0
  3  7  1  6  0  0  0
  3 10  1  0  0  0  0
  3  4  1  0  0  0  0
  4  1  1  0  0  0  0
  5  3  1  0  0  0  0
  5  4  1  0  0  0  0
  6 12  2  0  0  0  0
  8 15  2  0  0  0  0
  9 11  1  0  0  0  0
  9 10  2  0  0  0  0
 10 17  1  0  0  0  0
 11  2  2  0  0  0  0
 13  6  1  0  0  0  0
 14  5  2  0  0  0  0
 15 12  1  0  0  0  0
 15 18  1  0  0  0  0
 17 16  2  0  0  0  0
 17 13  1  0  0  0  0
 18 31  1  1  0  0  0
 19 21  2  0  0  0  0
 20 19  1  0  0  0  0
 20 18  1  0  0  0  0
 21 24  1  0  0  0  0
 22 19  1  0  0  0  0
 23 25  1  0  0  0  0
 24 23  1  0  0  0  0
 24 25  1  0  0  0  0
 26 22  1  0  0  0  0
 27 28  2  0  0  0  0
 28 26  1  0  0  0  0
 29 28  1  0  0  0  0
 30 29  1  0  0  0  0
 31 33  1  0  0  0  0
 33 32  1  0  0  0  0
M  END
>  <MODEL>
6

>  <REMARK>
 VINA RESULT:      -5.8      1.887      4.664
  Name = 
  8 active torsions:
  status: ('A' for Active; 'I' for Inactive)
    1  A    between atoms: C_2  and  C_10
    2  A    between atoms: C_2  and  C_30
    3  A    between atoms: N_5  and  C_30
    4  A    between atoms: N_8  and  C_20
    5  A    between atoms: N_13  and  C_14
    6  A    between atoms: C_14  and  C_19
    7  A    between atoms: C_19  and  C_27
    8  A    between atoms: C_29  and  C_30
                            x       y       z     vdW  Elec       q    Type
                         _______ _______ _______ _____ _____    ______ ____

>  <TORSDO>
F 8

$$$$
=
 OpenBabel11052410063D

 33 37  0  0  1  0  0  0  0  0999 V2000
  161.2050  205.6820  150.9010 C   0  0  0  0  0  0  0  0  0  0  0  0
  161.5520  206.1800  146.0560 N   0  0  0  0  0  0  0  0  0  0  0  0
  161.2690  203.5480  149.4320 C   0  0  2  0  0  0  0  0  0  0  0  0
  161.0520  204.3280  150.5550 N   0  0  0  0  0  0  0  0  0  0  0  0
  160.0860  203.2400  150.0700 C   0  0  0  0  0  0  0  0  0  0  0  0
  161.5790  207.9030  150.0390 C   0  0  0  0  0  3  0  0  0  0  0  0
  162.3310  202.6660  149.6300 O   0  0  0  0  0  1  0  0  0  0  0  0
  161.1330  206.1640  152.2060 C   0  0  0  0  0  3  0  0  0  0  0  0
  161.3400  203.9760  146.9550 C   0  0  0  0  0  3  0  0  0  0  0  0
  161.3420  204.4980  148.2490 C   0  0  0  0  0  0  0  0  0  0  0  0
  161.4450  204.8390  145.8640 C   0  0  0  0  0  3  0  0  0  0  0  0
  161.5140  208.4040  151.3470 C   0  0  0  0  0  3  0  0  0  0  0  0
  161.4230  206.5290  149.8100 C   0  0  0  0  0  0  0  0  0  0  0  0
  158.9930  202.6210  150.1440 O   0  0  0  0  0  0  0  0  0  0  0  0
  161.2860  207.5420  152.4300 C   0  0  0  0  0  0  0  0  0  0  0  0
  161.5570  206.7290  147.3000 C   0  0  0  0  0  3  0  0  0  0  0  0
  161.4530  205.9170  148.4360 C   0  0  0  0  0  0  0  0  0  0  0  0
  161.2180  208.1090  153.8180 C   0  0  1  0  0  3  0  0  0  0  0  0
  160.6350  210.5930  154.1870 C   0  0  0  0  0  0  0  0  0  0  0  0
  160.2920  209.2340  153.8600 N   0  0  0  0  0  2  0  0  0  0  0  0
  161.6210  210.8980  154.9800 N   0  0  0  0  0  0  0  0  0  0  0  0
  159.8430  211.6550  153.6550 N   0  0  0  0  0  2  0  0  0  0  0  0
  163.4560  210.7060  156.5460 C   0  0  0  0  0  2  0  0  0  0  0  0
  162.4830  209.9480  155.6650 C   0  0  0  0  0  3  0  0  0  0  0  0
  162.2410  210.0450  157.1570 C   0  0  0  0  0  2  0  0  0  0  0  0
  158.7240  211.4080  152.7610 C   0  0  0  0  0  2  0  0  0  0  0  0
  158.3240  212.9660  151.0480 O   0  0  0  0  0  0  0  0  0  0  0  0
  158.2070  212.7020  152.2340 C   0  0  0  0  0  0  0  0  0  0  0  0
  157.5410  213.6670  153.1580 C   0  0  0  0  0  2  0  0  0  0  0  0
  156.5480  212.9450  154.0490 C   0  0  0  0  0  1  0  0  0  0  0  0
  160.7760  207.0520  154.8180 C   0  0  0  0  0  2  0  0  0  0  0  0
  160.0810  207.1080  157.1920 C   0  0  0  0  0  1  0  0  0  0  0  0
  159.7840  207.6350  155.8050 C   0  0  0  0  0  2  0  0  0  0  0  0
  1  8  1  0  0  0  0
  2 16  1  0  0  0  0
  3  7  1  1  0  0  0
  3  5  1  0  0  0  0
  3  4  1  0  0  0  0
  4  1  1  0  0  0  0
  5 14  2  0  0  0  0
  5  4  1  0  0  0  0
  6 12  2  0  0  0  0
  8 15  2  0  0  0  0
  9 10  2  0  0  0  0
 10 17  1  0  0  0  0
 10  3  1  0  0  0  0
 11  2  2  0  0  0  0
 11  9  1  0  0  0  0
 12 15  1  0  0  0  0
 13  6  1  0  0  0  0
 13  1  2  0  0  0  0
 15 18  1  0  0  0  0
 16 17  2  0  0  0  0
 17 13  1  0  0  0  0
 18 20  1  0  0  0  0
 18 31  1  1  0  0  0
 19 21  2  0  0  0  0
 20 19  1  0  0  0  0
 21 24  1  0  0  0  0
 22 19  1  0  0  0  0
 23 25  1  0  0  0  0
 24 23  1  0  0  0  0
 24 25  1  0  0  0  0
 26 22  1  0  0  0  0
 27 28  2  0  0  0  0
 28 26  1  0  0  0  0
 28 29  1  0  0  0  0
 29 30  1  0  0  0  0
 31 33  1  0  0  0  0
 33 32  1  0  0  0  0
M  END
>  <MODEL>
7

>  <REMARK>
 VINA RESULT:      -5.8      2.470      5.073
  Name = 
  8 active torsions:
  status: ('A' for Active; 'I' for Inactive)
    1  A    between atoms: C_2  and  C_10
    2  A    between atoms: C_2  and  C_30
    3  A    between atoms: N_5  and  C_30
    4  A    between atoms: N_8  and  C_20
    5  A    between atoms: N_13  and  C_14
    6  A    between atoms: C_14  and  C_19
    7  A    between atoms: C_19  and  C_27
    8  A    between atoms: C_29  and  C_30
                            x       y       z     vdW  Elec       q    Type
                         _______ _______ _______ _____ _____    ______ ____

>  <TORSDO>
F 8

$$$$
=
 OpenBabel11052410063D

 33 37  0  0  1  0  0  0  0  0999 V2000
  161.1880  205.6870  150.8690 C   0  0  0  0  0  0  0  0  0  0  0  0
  161.4430  206.1740  146.0170 N   0  0  0  0  0  0  0  0  0  0  0  0
  161.2540  203.5500  149.4050 C   0  0  2  0  0  0  0  0  0  0  0  0
  161.0460  204.3300  150.5300 N   0  0  0  0  0  0  0  0  0  0  0  0
  160.0860  203.2280  150.0650 C   0  0  0  0  0  0  0  0  0  0  0  0
  161.5190  207.9100  149.9940 C   0  0  0  0  0  3  0  0  0  0  0  0
  162.3300  202.6810  149.5860 O   0  0  0  0  0  1  0  0  0  0  0  0
  161.1330  206.1720  152.1730 C   0  0  0  0  0  3  0  0  0  0  0  0
  161.2760  203.9700  146.9260 C   0  0  0  0  0  3  0  0  0  0  0  0
  161.2940  204.4970  148.2180 C   0  0  0  0  0  0  0  0  0  0  0  0
  161.3510  204.8320  145.8310 C   0  0  0  0  0  3  0  0  0  0  0  0
  161.4710  208.4140  151.3020 C   0  0  0  0  0  3  0  0  0  0  0  0
  161.3760  206.5330  149.7720 C   0  0  0  0  0  0  0  0  0  0  0  0
  159.0030  202.5960  150.1590 O   0  0  0  0  0  0  0  0  0  0  0  0
  161.2730  207.5530  152.3910 C   0  0  0  0  0  0  0  0  0  0  0  0
  161.4640  206.7270  147.2590 C   0  0  0  0  0  3  0  0  0  0  0  0
  161.3900  205.9170  148.3990 C   0  0  0  0  0  0  0  0  0  0  0  0
  161.2220  208.1230  153.7780 C   0  0  1  0  0  3  0  0  0  0  0  0
  160.6250  210.6000  154.1750 C   0  0  0  0  0  0  0  0  0  0  0  0
  160.2900  209.2430  153.8310 N   0  0  0  0  0  2  0  0  0  0  0  0
  161.6060  210.9000  154.9740 N   0  0  0  0  0  0  0  0  0  0  0  0
  159.8280  211.6630  153.6530 N   0  0  0  0  0  2  0  0  0  0  0  0
  163.4570  210.7010  156.5210 C   0  0  0  0  0  2  0  0  0  0  0  0
  162.4720  209.9470  155.6500 C   0  0  0  0  0  3  0  0  0  0  0  0
  162.2460  210.0440  157.1450 C   0  0  0  0  0  2  0  0  0  0  0  0
  158.7120  211.4200  152.7530 C   0  0  0  0  0  2  0  0  0  0  0  0
  157.5650  213.4410  153.1010 O   0  0  0  0  0  0  0  0  0  0  0  0
  158.1400  212.7190  152.3020 C   0  0  0  0  0  0  0  0  0  0  0  0
  158.2800  213.1370  150.8760 C   0  0  0  0  0  2  0  0  0  0  0  0
  159.6850  213.6450  150.6110 C   0  0  0  0  0  1  0  0  0  0  0  0
  160.8020  207.0660  154.7880 C   0  0  0  0  0  2  0  0  0  0  0  0
  160.0440  207.0930  157.1430 C   0  0  0  0  0  1  0  0  0  0  0  0
  159.7780  207.6290  155.7530 C   0  0  0  0  0  2  0  0  0  0  0  0
  1  8  1  0  0  0  0
  2 16  1  0  0  0  0
  3  7  1  1  0  0  0
  3  5  1  0  0  0  0
  3  4  1  0  0  0  0
  4  1  1  0  0  0  0
  5 14  2  0  0  0  0
  5  4  1  0  0  0  0
  6 12  2  0  0  0  0
  8 15  2  0  0  0  0
  9 10  2  0  0  0  0
 10 17  1  0  0  0  0
 10  3  1  0  0  0  0
 11  2  2  0  0  0  0
 11  9  1  0  0  0  0
 12 15  1  0  0  0  0
 13  6  1  0  0  0  0
 13  1  2  0  0  0  0
 15 18  1  0  0  0  0
 16 17  2  0  0  0  0
 17 13  1  0  0  0  0
 18 20  1  0  0  0  0
 18 31  1  1  0  0  0
 19 21  2  0  0  0  0
 20 19  1  0  0  0  0
 21 24  1  0  0  0  0
 22 19  1  0  0  0  0
 23 25  1  0  0  0  0
 24 23  1  0  0  0  0
 24 25  1  0  0  0  0
 26 22  1  0  0  0  0
 28 26  1  0  0  0  0
 28 27  2  0  0  0  0
 29 28  1  0  0  0  0
 30 29  1  0  0  0  0
 31 33  1  0  0  0  0
 33 32  1  0  0  0  0
M  END
>  <MODEL>
8

>  <REMARK>
 VINA RESULT:      -5.8      2.294      5.094
  Name = 
  8 active torsions:
  status: ('A' for Active; 'I' for Inactive)
    1  A    between atoms: C_2  and  C_10
    2  A    between atoms: C_2  and  C_30
    3  A    between atoms: N_5  and  C_30
    4  A    between atoms: N_8  and  C_20
    5  A    between atoms: N_13  and  C_14
    6  A    between atoms: C_14  and  C_19
    7  A    between atoms: C_19  and  C_27
    8  A    between atoms: C_29  and  C_30
                            x       y       z     vdW  Elec       q    Type
                         _______ _______ _______ _____ _____    ______ ____

>  <TORSDO>
F 8

$$$$
=
 OpenBabel11052410063D

 33 37  0  0  1  0  0  0  0  0999 V2000
  160.8150  207.8330  150.9800 C   0  0  0  0  0  0  0  0  0  0  0  0
  161.3890  203.0880  151.9770 N   0  0  0  0  0  0  0  0  0  0  0  0
  160.9980  206.1600  149.0090 C   0  0  2  0  0  0  0  0  0  0  0  0
  161.0120  207.3800  149.6640 N   0  0  0  0  0  0  0  0  0  0  0  0
  162.0360  206.9700  148.5990 C   0  0  0  0  0  0  0  0  0  0  0  0
  160.6390  207.1560  153.2880 C   0  0  0  0  0  3  0  0  0  0  0  0
  159.9050  206.0640  148.1470 O   0  0  0  0  0  1  0  0  0  0  0  0
  160.6480  209.1720  151.3250 C   0  0  0  0  0  3  0  0  0  0  0  0
  161.3970  203.7720  149.6870 C   0  0  0  0  0  3  0  0  0  0  0  0
  161.1610  205.0910  150.0760 C   0  0  0  0  0  0  0  0  0  0  0  0
  161.5110  202.7780  150.6600 C   0  0  0  0  0  3  0  0  0  0  0  0
  160.4660  208.4990  153.6510 C   0  0  0  0  0  3  0  0  0  0  0  0
  160.8170  206.8160  151.9400 C   0  0  0  0  0  0  0  0  0  0  0  0
  163.0870  207.1780  147.9400 O   0  0  0  0  0  0  0  0  0  0  0  0
  160.4750  209.5080  152.6770 C   0  0  0  0  0  0  0  0  0  0  0  0
  161.1580  204.3600  152.3970 C   0  0  0  0  0  3  0  0  0  0  0  0
  161.0360  205.4030  151.4710 C   0  0  0  0  0  0  0  0  0  0  0  0
  160.2890  210.9370  153.0980 C   0  0  1  0  0  3  0  0  0  0  0  0
  160.2220  211.5010  155.6140 C   0  0  0  0  0  0  0  0  0  0  0  0
  160.9130  211.1670  154.3960 N   0  0  0  0  0  2  0  0  0  0  0  0
  159.0960  212.1530  155.6260 N   0  0  0  0  0  0  0  0  0  0  0  0
  160.8080  211.1410  156.8640 N   0  0  0  0  0  2  0  0  0  0  0  0
  157.1860  213.4520  154.9060 C   0  0  0  0  0  2  0  0  0  0  0  0
  158.3950  212.6580  154.4560 C   0  0  0  0  0  3  0  0  0  0  0  0
  158.4400  214.1720  154.4670 C   0  0  0  0  0  2  0  0  0  0  0  0
  162.0630  210.4120  156.9450 C   0  0  0  0  0  2  0  0  0  0  0  0
  162.7040  208.1540  156.8350 O   0  0  0  0  0  0  0  0  0  0  0  0
  161.7910  208.9480  156.9970 C   0  0  0  0  0  0  0  0  0  0  0  0
  160.4040  208.4590  157.2540 C   0  0  0  0  0  2  0  0  0  0  0  0
  160.2890  206.9900  156.8980 C   0  0  0  0  0  1  0  0  0  0  0  0
  160.8860  211.8890  152.0740 C   0  0  0  0  0  2  0  0  0  0  0  0
  160.4030  213.4970  150.2560 C   0  0  0  0  0  1  0  0  0  0  0  0
  159.7890  212.6270  151.3310 C   0  0  0  0  0  2  0  0  0  0  0  0
  1  8  2  0  0  0  0
  1 13  1  0  0  0  0
  2 16  1  0  0  0  0
  3  7  1  6  0  0  0
  3  4  1  0  0  0  0
  3 10  1  0  0  0  0
  4  1  1  0  0  0  0
  5  3  1  0  0  0  0
  5  4  1  0  0  0  0
  6 12  1  0  0  0  0
  8 15  1  0  0  0  0
  9 10  2  0  0  0  0
  9 11  1  0  0  0  0
 10 17  1  0  0  0  0
 11  2  2  0  0  0  0
 13  6  2  0  0  0  0
 14  5  2  0  0  0  0
 15 18  1  0  0  0  0
 15 12  2  0  0  0  0
 17 13  1  0  0  0  0
 17 16  2  0  0  0  0
 18 31  1  6  0  0  0
 18 20  1  0  0  0  0
 19 21  2  0  0  0  0
 19 22  1  0  0  0  0
 20 19  1  0  0  0  0
 22 26  1  0  0  0  0
 24 25  1  0  0  0  0
 24 23  1  0  0  0  0
 24 21  1  0  0  0  0
 25 23  1  0  0  0  0
 26 28  1  0  0  0  0
 27 28  2  0  0  0  0
 28 29  1  0  0  0  0
 30 29  1  0  0  0  0
 32 33  1  0  0  0  0
 33 31  1  0  0  0  0
M  END
>  <MODEL>
9

>  <REMARK>
 VINA RESULT:      -5.6      1.902      2.648
  Name = 
  8 active torsions:
  status: ('A' for Active; 'I' for Inactive)
    1  A    between atoms: C_2  and  C_10
    2  A    between atoms: C_2  and  C_30
    3  A    between atoms: N_5  and  C_30
    4  A    between atoms: N_8  and  C_20
    5  A    between atoms: N_13  and  C_14
    6  A    between atoms: C_14  and  C_19
    7  A    between atoms: C_19  and  C_27
    8  A    between atoms: C_29  and  C_30
                            x       y       z     vdW  Elec       q    Type
                         _______ _______ _______ _____ _____    ______ ____

>  <TORSDO>
F 8

$$$$
