=
 OpenBabel11042421533D

 47 54  0  0  1  0  0  0  0  0999 V2000
  160.4810  210.2330  153.5430 C   0  0  0  0  0  0  0  0  0  0  0  0
  160.6060  208.8190  153.9300 C   0  0  0  0  0  0  0  0  0  0  0  0
  160.8460  211.8880  151.8040 O   0  0  0  0  0  0  0  0  0  0  0  0
  160.4640  206.9650  154.9950 C   0  0  0  0  0  3  0  0  0  0  0  0
  159.3560  213.1180  153.2470 C   0  0  0  0  0  3  0  0  0  0  0  0
  159.9020  212.8910  152.0550 C   0  0  0  0  0  0  0  0  0  0  0  0
  160.0730  211.1630  154.6030 C   0  0  0  0  0  3  0  0  0  0  0  0
  161.1270  206.7010  153.8050 C   0  0  0  0  0  0  0  0  0  0  0  0
  161.8700  208.2500  151.8470 C   0  0  0  0  0  2  0  0  0  0  0  0
  160.1780  208.2540  155.0360 O   0  0  0  0  0  0  0  0  0  0  0  0
  159.5840  212.3960  154.5100 C   0  0  0  0  0  0  0  0  0  0  0  0
  161.2170  209.5130  151.2580 C   0  0  0  0  0  2  0  0  0  0  0  0
  161.1990  207.8930  153.1280 C   0  0  0  0  0  0  0  0  0  0  0  0
  160.8330  210.5780  152.2820 C   0  0  0  0  0  0  0  0  0  0  0  0
  157.5470  212.7610  150.3890 O   0  0  0  0  0  0  0  0  0  0  0  0
  159.5600  213.7880  150.9940 N   0  0  0  0  0  2  0  0  0  0  0  0
  158.4560  213.5920  150.1070 C   0  0  0  0  0  0  0  0  0  0  0  0
  158.3950  214.3230  148.9210 O   0  0  0  0  0  0  0  0  0  0  0  0
  158.5840  213.7090  147.6520 C   0  0  2  0  0  3  0  0  0  0  0  0
  160.1360  212.9730  145.0600 O   0  0  0  0  0  1  0  0  0  0  0  0
  162.3400  214.1800  147.2850 C   0  0  2  0  0  3  0  0  0  0  0  0
  162.1210  212.9530  146.4160 C   0  0  1  0  0  0  0  0  0  0  0  0
  162.8700  212.8190  147.7250 C   0  0  0  0  0  2  0  0  0  0  0  0
  160.0490  213.6720  147.3100 C   0  0  0  0  0  0  0  0  0  0  0  0
  160.6150  212.6940  146.3430 C   0  0  1  0  0  3  0  0  0  0  0  0
  162.8740  213.0190  145.2450 O   0  0  0  0  0  1  0  0  0  0  0  0
  160.9840  214.4530  147.8460 C   0  0  0  0  0  3  0  0  0  0  0  0
  157.7450  214.3900  146.6130 C   0  0  0  0  0  3  0  0  0  0  0  0
  156.7810  213.7240  145.9830 C   0  0  0  0  0  2  0  0  0  0  0  0
  159.2220  213.0150  155.7050 O   0  0  0  0  0  0  0  0  0  0  0  0
  160.0850  213.1040  156.7320 O   0  0  0  0  0  1  0  0  0  0  0  0
  161.5370  205.3580  153.3070 C   0  0  0  0  0  2  0  0  0  0  0  0
  160.4200  204.7740  152.4590 C   0  0  0  0  0  2  0  0  0  0  0  0
  161.4300  203.7120  150.4430 C   0  0  0  0  0  3  0  0  0  0  0  0
  160.9060  203.5980  151.6700 C   0  0  0  0  0  3  0  0  0  0  0  0
  160.8510  203.6400  147.6110 C   0  0  0  0  0  2  0  0  0  0  0  0
  162.3560  204.2920  145.6530 C   0  0  1  0  0  3  0  0  0  0  0  0
  161.8200  206.0860  147.3130 C   0  0  1  0  0  0  0  0  0  0  0  0
  161.2410  204.7800  144.7150 C   0  0  0  0  0  2  0  0  0  0  0  0
  162.9250  205.4630  146.4590 C   0  0  0  0  0  2  0  0  0  0  0  0
  160.2130  205.4830  149.2410 C   0  0  0  0  0  2  0  0  0  0  0  0
  160.7380  206.6420  146.3680 C   0  0  0  0  0  2  0  0  0  0  0  0
  161.5790  205.0330  149.7430 C   0  0  2  0  0  3  0  0  0  0  0  0
  160.1450  205.5630  145.4540 C   0  0  0  0  0  2  0  0  0  0  0  0
  161.2460  204.9830  148.2490 C   0  0  1  0  0  0  0  0  0  0  0  0
  161.9030  203.1710  146.5970 C   0  0  0  0  0  2  0  0  0  0  0  0
  162.4290  207.2610  148.0720 C   0  0  0  0  0  1  0  0  0  0  0  0
  1  2  1  0  0  0  0
  1  7  1  0  0  0  0
  2 10  1  0  0  0  0
  3  6  1  0  0  0  0
  3 14  1  0  0  0  0
  4 10  1  0  0  0  0
  5 11  1  0  0  0  0
  6  5  2  0  0  0  0
  8  4  2  0  0  0  0
  9 13  1  0  0  0  0
 11  7  2  0  0  0  0
 11 30  1  0  0  0  0
 12  9  1  0  0  0  0
 12 14  1  0  0  0  0
 13  8  1  0  0  0  0
 13  2  2  0  0  0  0
 14  1  2  0  0  0  0
 16  6  1  0  0  0  0
 17 15  2  0  0  0  0
 17 16  1  0  0  0  0
 18 17  1  0  0  0  0
 19 28  1  6  0  0  0
 19 18  1  0  0  0  0
 21 23  1  1  0  0  0
 21 27  1  0  0  0  0
 22 26  1  6  0  0  0
 22 21  1  0  0  0  0
 22 23  1  0  0  0  0
 24 19  1  0  0  0  0
 24 27  2  0  0  0  0
 25 20  1  6  0  0  0
 25 22  1  0  0  0  0
 25 24  1  0  0  0  0
 29 28  2  0  0  0  0
 30 31  1  0  0  0  0
 32  8  1  0  0  0  0
 33 32  1  0  0  0  0
 34 35  2  0  0  0  0
 35 33  1  0  0  0  0
 37 39  1  1  0  0  0
 37 40  1  0  0  0  0
 37 46  1  0  0  0  0
 38 47  1  1  0  0  0
 38 45  1  0  0  0  0
 39 44  1  0  0  0  0
 40 38  1  0  0  0  0
 41 43  1  0  0  0  0
 42 38  1  0  0  0  0
 43 34  1  1  0  0  0
 44 42  1  0  0  0  0
 45 36  1  6  0  0  0
 45 41  1  0  0  0  0
 45 43  1  0  0  0  0
 46 36  1  0  0  0  0
M  END
>  <MODEL>
1

>  <REMARK>
 VINA RESULT:      -9.1      0.000      0.000
  Name = 
  10 active torsions:
  status: ('A' for Active; 'I' for Inactive)
    1  A    between atoms: C_2  and  C_16
    2  A    between atoms: C_2  and  C_32
    3  A    between atoms: C_3  and  C_25
    4  A    between atoms: O_13  and  C_40
    5  A    between atoms: C_16  and  C_26
    6  A    between atoms: C_20  and  C_36
    7  A    between atoms: O_23  and  C_36
    8  A    between atoms: O_23  and  C_39
    9  A    between atoms: C_27  and  C_36
   10  A    between atoms: N_28  and  C_29
                            x       y       z     vdW  Elec       q    Type
                         _______ _______ _______ _____ _____    ______ ____

>  <TORSDO>
F 10

$$$$
=
 OpenBabel11042421533D

 47 54  0  0  1  0  0  0  0  0999 V2000
  160.6390  209.6270  153.6840 C   0  0  0  0  0  0  0  0  0  0  0  0
  160.7670  208.1730  153.8590 C   0  0  0  0  0  0  0  0  0  0  0  0
  161.0050  211.5220  152.2090 O   0  0  0  0  0  0  0  0  0  0  0  0
  160.6270  206.1820  154.6400 C   0  0  0  0  0  3  0  0  0  0  0  0
  159.5060  212.5220  153.8110 C   0  0  0  0  0  3  0  0  0  0  0  0
  160.0570  212.4740  152.6000 C   0  0  0  0  0  0  0  0  0  0  0  0
  160.2240  210.3910  154.8680 C   0  0  0  0  0  3  0  0  0  0  0  0
  161.2950  206.0980  153.4260 C   0  0  0  0  0  0  0  0  0  0  0  0
  162.0400  207.9190  151.7200 C   0  0  0  0  0  2  0  0  0  0  0  0
  160.3360  207.4500  154.8680 O   0  0  0  0  0  0  0  0  0  0  0  0
  159.7320  211.6230  154.9550 C   0  0  0  0  0  0  0  0  0  0  0  0
  161.3860  209.2530  151.3210 C   0  0  0  0  0  2  0  0  0  0  0  0
  161.3650  207.3770  152.9320 C   0  0  0  0  0  0  0  0  0  0  0  0
  160.9950  210.1550  152.4880 C   0  0  0  0  0  0  0  0  0  0  0  0
  157.7880  212.5140  150.8140 O   0  0  0  0  0  0  0  0  0  0  0  0
  159.7160  213.5170  151.6810 N   0  0  0  0  0  2  0  0  0  0  0  0
  158.6650  213.4200  150.7180 C   0  0  0  0  0  0  0  0  0  0  0  0
  158.6180  214.3310  149.6640 O   0  0  0  0  0  0  0  0  0  0  0  0
  159.5110  214.2470  148.5590 C   0  0  2  0  0  3  0  0  0  0  0  0
  160.3000  214.1030  145.5550 O   0  0  0  0  0  1  0  0  0  0  0  0
  157.2520  212.7390  145.8960 C   0  0  2  0  0  3  0  0  0  0  0  0
  157.9580  213.8180  145.0930 C   0  0  1  0  0  0  0  0  0  0  0  0
  156.4840  213.9630  145.4080 C   0  0  0  0  0  2  0  0  0  0  0  0
  158.7610  213.8360  147.3210 C   0  0  0  0  0  0  0  0  0  0  0  0
  159.0200  214.4530  145.9930 C   0  0  1  0  0  3  0  0  0  0  0  0
  158.3050  213.3610  143.8230 O   0  0  0  0  0  1  0  0  0  0  0  0
  157.7830  212.9340  147.2780 C   0  0  0  0  0  3  0  0  0  0  0  0
  160.6630  213.3470  148.8870 C   0  0  0  0  0  3  0  0  0  0  0  0
  161.9070  213.7100  148.5850 C   0  0  0  0  0  2  0  0  0  0  0  0
  159.3640  212.0590  156.2270 O   0  0  0  0  0  0  0  0  0  0  0  0
  158.5190  211.3440  156.9900 O   0  0  0  0  0  1  0  0  0  0  0  0
  161.7110  204.8430  152.7370 C   0  0  0  0  0  2  0  0  0  0  0  0
  160.4810  204.1380  152.1920 C   0  0  0  0  0  2  0  0  0  0  0  0
  161.3820  203.2830  150.0310 C   0  0  0  0  0  3  0  0  0  0  0  0
  160.8670  203.0450  151.2450 C   0  0  0  0  0  3  0  0  0  0  0  0
  160.7250  203.6420  147.2390 C   0  0  0  0  0  2  0  0  0  0  0  0
  162.2260  204.4340  145.3310 C   0  0  1  0  0  3  0  0  0  0  0  0
  161.8840  206.0230  147.2330 C   0  0  1  0  0  0  0  0  0  0  0  0
  161.1310  205.1310  144.5080 C   0  0  0  0  0  2  0  0  0  0  0  0
  162.9110  205.4370  146.2640 C   0  0  0  0  0  2  0  0  0  0  0  0
  160.2840  205.2910  149.1230 C   0  0  0  0  0  2  0  0  0  0  0  0
  160.8270  206.7850  146.4120 C   0  0  0  0  0  2  0  0  0  0  0  0
  161.6210  204.6710  149.5090 C   0  0  2  0  0  3  0  0  0  0  0  0
  160.1230  205.8890  145.3850 C   0  0  0  0  0  2  0  0  0  0  0  0
  161.2460  204.8510  148.0350 C   0  0  1  0  0  0  0  0  0  0  0  0
  161.7080  203.2330  146.1330 C   0  0  0  0  0  2  0  0  0  0  0  0
  162.6080  207.0320  148.1190 C   0  0  0  0  0  1  0  0  0  0  0  0
  1  2  1  0  0  0  0
  1  7  1  0  0  0  0
  2 10  1  0  0  0  0
  3 14  1  0  0  0  0
  3  6  1  0  0  0  0
  4 10  1  0  0  0  0
  5 11  1  0  0  0  0
  6  5  2  0  0  0  0
  7 11  2  0  0  0  0
  8  4  2  0  0  0  0
  9 13  1  0  0  0  0
 11 30  1  0  0  0  0
 12  9  1  0  0  0  0
 12 14  1  0  0  0  0
 13  8  1  0  0  0  0
 13  2  2  0  0  0  0
 14  1  2  0  0  0  0
 16  6  1  0  0  0  0
 17 15  2  0  0  0  0
 17 16  1  0  0  0  0
 18 17  1  0  0  0  0
 19 28  1  1  0  0  0
 19 18  1  0  0  0  0
 21 23  1  1  0  0  0
 21 27  1  0  0  0  0
 22 26  1  6  0  0  0
 22 23  1  0  0  0  0
 22 21  1  0  0  0  0
 22 25  1  0  0  0  0
 24 19  1  0  0  0  0
 25 20  1  6  0  0  0
 25 24  1  0  0  0  0
 27 24  2  0  0  0  0
 29 28  2  0  0  0  0
 30 31  1  0  0  0  0
 32  8  1  0  0  0  0
 33 32  1  0  0  0  0
 34 35  2  0  0  0  0
 35 33  1  0  0  0  0
 37 39  1  1  0  0  0
 37 46  1  0  0  0  0
 37 40  1  0  0  0  0
 38 45  1  0  0  0  0
 38 47  1  1  0  0  0
 39 44  1  0  0  0  0
 40 38  1  0  0  0  0
 41 43  1  0  0  0  0
 42 38  1  0  0  0  0
 43 34  1  6  0  0  0
 44 42  1  0  0  0  0
 45 36  1  6  0  0  0
 45 41  1  0  0  0  0
 45 43  1  0  0  0  0
 46 36  1  0  0  0  0
M  END
>  <MODEL>
2

>  <REMARK>
 VINA RESULT:      -8.3      0.985      2.117
  Name = 
  10 active torsions:
  status: ('A' for Active; 'I' for Inactive)
    1  A    between atoms: C_2  and  C_16
    2  A    between atoms: C_2  and  C_32
    3  A    between atoms: C_3  and  C_25
    4  A    between atoms: O_13  and  C_40
    5  A    between atoms: C_16  and  C_26
    6  A    between atoms: C_20  and  C_36
    7  A    between atoms: O_23  and  C_36
    8  A    between atoms: O_23  and  C_39
    9  A    between atoms: C_27  and  C_36
   10  A    between atoms: N_28  and  C_29
                            x       y       z     vdW  Elec       q    Type
                         _______ _______ _______ _____ _____    ______ ____

>  <TORSDO>
F 10

$$$$
=
 OpenBabel11042421533D

 47 54  0  0  1  0  0  0  0  0999 V2000
  161.6400  208.3960  152.1000 C   0  0  0  0  0  0  0  0  0  0  0  0
  161.6010  209.3110  153.2500 C   0  0  0  0  0  0  0  0  0  0  0  0
  161.4250  206.0990  151.3410 O   0  0  0  0  0  0  0  0  0  0  0  0
  161.5940  211.0750  154.4670 C   0  0  0  0  0  3  0  0  0  0  0  0
  161.2710  207.2530  149.2300 C   0  0  0  0  0  3  0  0  0  0  0  0
  161.0330  206.1950  150.0020 C   0  0  0  0  0  0  0  0  0  0  0  0
  162.0920  208.9710  150.8260 C   0  0  0  0  0  3  0  0  0  0  0  0
  161.4440  209.9910  155.3200 C   0  0  0  0  0  0  0  0  0  0  0  0
  161.3960  207.4250  154.8810 C   0  0  0  0  0  2  0  0  0  0  0  0
  161.6960  210.6220  153.2310 O   0  0  0  0  0  0  0  0  0  0  0  0
  161.9450  208.5120  149.5870 C   0  0  0  0  0  0  0  0  0  0  0  0
  160.8620  206.6170  153.6850 C   0  0  0  0  0  2  0  0  0  0  0  0
  161.4360  208.8710  154.5270 C   0  0  0  0  0  0  0  0  0  0  0  0
  161.3470  207.0920  152.3180 C   0  0  0  0  0  0  0  0  0  0  0  0
  161.5390  203.4200  150.6210 O   0  0  0  0  0  0  0  0  0  0  0  0
  160.4140  205.0590  149.3870 N   0  0  0  0  0  2  0  0  0  0  0  0
  160.8090  203.7070  149.6300 C   0  0  0  0  0  0  0  0  0  0  0  0
  160.3860  202.7050  148.7570 O   0  0  0  0  0  0  0  0  0  0  0  0
  161.2000  202.2560  147.6810 C   0  0  2  0  0  3  0  0  0  0  0  0
  163.4600  204.1850  146.7650 O   0  0  0  0  0  1  0  0  0  0  0  0
  160.8990  204.4890  144.6160 C   0  0  2  0  0  3  0  0  0  0  0  0
  161.7710  205.3520  145.5130 C   0  0  1  0  0  0  0  0  0  0  0  0
  160.3470  205.7760  145.2200 C   0  0  0  0  0  2  0  0  0  0  0  0
  161.2740  203.3150  146.6140 C   0  0  0  0  0  0  0  0  0  0  0  0
  162.1070  204.5370  146.7640 C   0  0  1  0  0  3  0  0  0  0  0  0
  162.7900  205.9680  144.7890 O   0  0  0  0  0  1  0  0  0  0  0  0
  160.5940  203.3020  145.4700 C   0  0  0  0  0  3  0  0  0  0  0  0
  160.7130  200.9320  147.1760 C   0  0  0  0  0  3  0  0  0  0  0  0
  161.5740  199.9500  146.9240 C   0  0  0  0  0  2  0  0  0  0  0  0
  162.4300  209.3220  148.5610 O   0  0  0  0  0  0  0  0  0  0  0  0
  161.8930  210.5290  148.3150 O   0  0  0  0  0  1  0  0  0  0  0  0
  161.1880  210.0570  156.7870 C   0  0  0  0  0  2  0  0  0  0  0  0
  159.7580  210.5110  157.0290 C   0  0  0  0  0  2  0  0  0  0  0  0
  157.6110  210.0580  155.8470 C   0  0  0  0  0  3  0  0  0  0  0  0
  158.7870  209.6220  156.3180 C   0  0  0  0  0  3  0  0  0  0  0  0
  157.6340  211.5740  153.3860 C   0  0  0  0  0  2  0  0  0  0  0  0
  158.8720  213.7440  152.8550 C   0  0  1  0  0  3  0  0  0  0  0  0
  157.2080  213.8200  154.7220 C   0  0  1  0  0  0  0  0  0  0  0  0
  157.8390  214.3110  151.8670 C   0  0  0  0  0  2  0  0  0  0  0  0
  158.5990  214.2650  154.2690 C   0  0  0  0  0  2  0  0  0  0  0  0
  155.8640  211.6700  155.2080 C   0  0  0  0  0  2  0  0  0  0  0  0
  156.1690  214.4510  153.7750 C   0  0  0  0  0  2  0  0  0  0  0  0
  157.1580  211.4820  155.9890 C   0  0  2  0  0  3  0  0  0  0  0  0
  156.3910  214.0540  152.3110 C   0  0  0  0  0  2  0  0  0  0  0  0
  157.1520  212.2650  154.6730 C   0  0  1  0  0  0  0  0  0  0  0  0
  158.9260  212.2110  152.8570 C   0  0  0  0  0  2  0  0  0  0  0  0
  156.9740  214.3850  156.1190 C   0  0  0  0  0  1  0  0  0  0  0  0
  1 14  2  0  0  0  0
  1  2  1  0  0  0  0
  2 13  2  0  0  0  0
  3 14  1  0  0  0  0
  4  8  2  0  0  0  0
  5 11  1  0  0  0  0
  5  6  2  0  0  0  0
  6  3  1  0  0  0  0
  7  1  1  0  0  0  0
  8 32  1  0  0  0  0
 10  2  1  0  0  0  0
 10  4  1  0  0  0  0
 11  7  2  0  0  0  0
 12  9  1  0  0  0  0
 13  9  1  0  0  0  0
 13  8  1  0  0  0  0
 14 12  1  0  0  0  0
 16 17  1  0  0  0  0
 16  6  1  0  0  0  0
 17 15  2  0  0  0  0
 18 17  1  0  0  0  0
 19 28  1  6  0  0  0
 19 18  1  0  0  0  0
 21 23  1  1  0  0  0
 21 27  1  0  0  0  0
 21 22  1  0  0  0  0
 22 26  1  6  0  0  0
 22 25  1  0  0  0  0
 23 22  1  0  0  0  0
 24 25  1  0  0  0  0
 24 19  1  0  0  0  0
 25 20  1  6  0  0  0
 27 24  2  0  0  0  0
 29 28  2  0  0  0  0
 30 11  1  0  0  0  0
 31 30  1  0  0  0  0
 32 33  1  0  0  0  0
 34 35  2  0  0  0  0
 35 33  1  0  0  0  0
 37 39  1  6  0  0  0
 37 46  1  0  0  0  0
 37 40  1  0  0  0  0
 38 47  1  1  0  0  0
 39 44  1  0  0  0  0
 40 38  1  0  0  0  0
 41 43  1  0  0  0  0
 42 38  1  0  0  0  0
 43 34  1  6  0  0  0
 44 42  1  0  0  0  0
 45 36  1  6  0  0  0
 45 38  1  0  0  0  0
 45 41  1  0  0  0  0
 45 43  1  0  0  0  0
 46 36  1  0  0  0  0
M  END
>  <MODEL>
3

>  <REMARK>
 VINA RESULT:      -7.6      3.414      9.092
  Name = 
  10 active torsions:
  status: ('A' for Active; 'I' for Inactive)
    1  A    between atoms: C_2  and  C_16
    2  A    between atoms: C_2  and  C_32
    3  A    between atoms: C_3  and  C_25
    4  A    between atoms: O_13  and  C_40
    5  A    between atoms: C_16  and  C_26
    6  A    between atoms: C_20  and  C_36
    7  A    between atoms: O_23  and  C_36
    8  A    between atoms: O_23  and  C_39
    9  A    between atoms: C_27  and  C_36
   10  A    between atoms: N_28  and  C_29
                            x       y       z     vdW  Elec       q    Type
                         _______ _______ _______ _____ _____    ______ ____

>  <TORSDO>
F 10

$$$$
=
 OpenBabel11042421533D

 47 54  0  0  1  0  0  0  0  0999 V2000
  161.1840  210.4060  151.2970 C   0  0  0  0  0  0  0  0  0  0  0  0
  160.9390  209.4030  152.3440 C   0  0  0  0  0  0  0  0  0  0  0  0
  162.2870  210.8960  149.1900 O   0  0  0  0  0  0  0  0  0  0  0  0
  160.1830  208.3860  154.0720 C   0  0  0  0  0  3  0  0  0  0  0  0
  160.7310  212.7350  149.2840 C   0  0  0  0  0  3  0  0  0  0  0  0
  161.5150  211.9030  148.6010 C   0  0  0  0  0  0  0  0  0  0  0  0
  160.6960  211.7640  151.5710 C   0  0  0  0  0  3  0  0  0  0  0  0
  161.0700  207.5210  153.4460 C   0  0  0  0  0  0  0  0  0  0  0  0
  162.5690  207.7950  151.3340 C   0  0  0  0  0  2  0  0  0  0  0  0
  160.1410  209.5110  153.3820 O   0  0  0  0  0  0  0  0  0  0  0  0
  160.4870  212.7760  150.7350 C   0  0  0  0  0  0  0  0  0  0  0  0
  162.3380  208.5780  150.0290 C   0  0  0  0  0  2  0  0  0  0  0  0
  161.5350  208.1790  152.3350 C   0  0  0  0  0  0  0  0  0  0  0  0
  161.9080  210.0300  150.2160 C   0  0  0  0  0  0  0  0  0  0  0  0
  161.4640  214.4530  147.2470 O   0  0  0  0  0  0  0  0  0  0  0  0
  161.6320  212.1200  147.1910 N   0  0  0  0  0  2  0  0  0  0  0  0
  161.4540  213.3910  146.5620 C   0  0  0  0  0  0  0  0  0  0  0  0
  161.2620  213.4490  145.1820 O   0  0  0  0  0  0  0  0  0  0  0  0
  160.3260  212.6070  144.5200 C   0  0  2  0  0  3  0  0  0  0  0  0
  163.0310  212.8950  143.0140 O   0  0  0  0  0  1  0  0  0  0  0  0
  160.7730  211.6460  140.8670 C   0  0  2  0  0  3  0  0  0  0  0  0
  161.7540  212.8020  140.9800 C   0  0  1  0  0  0  0  0  0  0  0  0
  160.4910  212.9680  140.1590 C   0  0  0  0  0  2  0  0  0  0  0  0
  160.7200  212.4320  143.0780 C   0  0  0  0  0  0  0  0  0  0  0  0
  161.8000  213.2350  142.4460 C   0  0  1  0  0  3  0  0  0  0  0  0
  162.9370  212.5320  140.2950 O   0  0  0  0  0  1  0  0  0  0  0  0
  160.1410  211.5970  142.2190 C   0  0  0  0  0  3  0  0  0  0  0  0
  158.9330  213.1320  144.6990 C   0  0  0  0  0  3  0  0  0  0  0  0
  158.1210  212.5900  145.6020 C   0  0  0  0  0  2  0  0  0  0  0  0
  159.9500  213.9390  151.2870 O   0  0  0  0  0  0  0  0  0  0  0  0
  159.1280  213.8900  152.3490 O   0  0  0  0  0  1  0  0  0  0  0  0
  161.3370  206.1060  153.8310 C   0  0  0  0  0  2  0  0  0  0  0  0
  162.1140  205.4210  152.7190 C   0  0  0  0  0  2  0  0  0  0  0  0
  160.9830  204.2780  150.8140 C   0  0  0  0  0  3  0  0  0  0  0  0
  161.3130  204.3120  152.1120 C   0  0  0  0  0  3  0  0  0  0  0  0
  160.5060  203.6310  148.0370 C   0  0  0  0  0  2  0  0  0  0  0  0
  162.1750  203.5460  146.1050 C   0  0  1  0  0  3  0  0  0  0  0  0
  161.9000  205.7460  147.2660 C   0  0  1  0  0  0  0  0  0  0  0  0
  161.1980  203.9710  144.9970 C   0  0  0  0  0  2  0  0  0  0  0  0
  162.9100  204.7670  146.6650 C   0  0  0  0  0  2  0  0  0  0  0  0
  160.1410  205.8870  149.1500 C   0  0  0  0  0  2  0  0  0  0  0  0
  160.9690  206.2290  146.1380 C   0  0  0  0  0  2  0  0  0  0  0  0
  161.3870  205.3530  149.8460 C   0  0  2  0  0  3  0  0  0  0  0  0
  160.2300  205.0740  145.4510 C   0  0  0  0  0  2  0  0  0  0  0  0
  161.1060  205.0050  148.3820 C   0  0  1  0  0  0  0  0  0  0  0  0
  161.4970  202.7700  147.2420 C   0  0  0  0  0  2  0  0  0  0  0  0
  162.6770  206.9520  147.7830 C   0  0  0  0  0  1  0  0  0  0  0  0
  1  7  1  0  0  0  0
  1  2  1  0  0  0  0
  2 10  1  0  0  0  0
  3 14  1  0  0  0  0
  5 11  1  0  0  0  0
  6  3  1  0  0  0  0
  6  5  2  0  0  0  0
  8 32  1  0  0  0  0
  8  4  2  0  0  0  0
  9 13  1  0  0  0  0
 10  4  1  0  0  0  0
 11 30  1  0  0  0  0
 11  7  2  0  0  0  0
 12 14  1  0  0  0  0
 12  9  1  0  0  0  0
 13  2  2  0  0  0  0
 13  8  1  0  0  0  0
 14  1  2  0  0  0  0
 16  6  1  0  0  0  0
 17 16  1  0  0  0  0
 17 15  2  0  0  0  0
 18 17  1  0  0  0  0
 19 28  1  6  0  0  0
 19 18  1  0  0  0  0
 21 23  1  6  0  0  0
 21 22  1  0  0  0  0
 21 27  1  0  0  0  0
 22 26  1  6  0  0  0
 22 25  1  0  0  0  0
 23 22  1  0  0  0  0
 24 19  1  0  0  0  0
 25 20  1  1  0  0  0
 25 24  1  0  0  0  0
 27 24  2  0  0  0  0
 28 29  2  0  0  0  0
 30 31  1  0  0  0  0
 33 32  1  0  0  0  0
 34 35  2  0  0  0  0
 35 33  1  0  0  0  0
 37 39  1  6  0  0  0
 37 40  1  0  0  0  0
 37 46  1  0  0  0  0
 38 47  1  1  0  0  0
 38 45  1  0  0  0  0
 39 44  1  0  0  0  0
 40 38  1  0  0  0  0
 41 43  1  0  0  0  0
 42 38  1  0  0  0  0
 43 34  1  1  0  0  0
 44 42  1  0  0  0  0
 45 36  1  6  0  0  0
 45 41  1  0  0  0  0
 45 43  1  0  0  0  0
 46 36  1  0  0  0  0
M  END
>  <MODEL>
4

>  <REMARK>
 VINA RESULT:      -7.4      2.413      3.337
  Name = 
  10 active torsions:
  status: ('A' for Active; 'I' for Inactive)
    1  A    between atoms: C_2  and  C_16
    2  A    between atoms: C_2  and  C_32
    3  A    between atoms: C_3  and  C_25
    4  A    between atoms: O_13  and  C_40
    5  A    between atoms: C_16  and  C_26
    6  A    between atoms: C_20  and  C_36
    7  A    between atoms: O_23  and  C_36
    8  A    between atoms: O_23  and  C_39
    9  A    between atoms: C_27  and  C_36
   10  A    between atoms: N_28  and  C_29
                            x       y       z     vdW  Elec       q    Type
                         _______ _______ _______ _____ _____    ______ ____

>  <TORSDO>
F 10

$$$$
=
 OpenBabel11042421533D

 47 54  0  0  1  0  0  0  0  0999 V2000
  161.2860  208.8690  152.4040 C   0  0  0  0  0  0  0  0  0  0  0  0
  161.0630  207.5020  152.8970 C   0  0  0  0  0  0  0  0  0  0  0  0
  162.3250  210.2560  150.7020 O   0  0  0  0  0  0  0  0  0  0  0  0
  160.3510  205.8150  154.0120 C   0  0  0  0  0  3  0  0  0  0  0  0
  160.7990  211.8530  151.6680 C   0  0  0  0  0  3  0  0  0  0  0  0
  161.5480  211.4180  150.6570 C   0  0  0  0  0  0  0  0  0  0  0  0
  160.8260  209.9590  153.2760 C   0  0  0  0  0  3  0  0  0  0  0  0
  161.2050  205.3260  153.0330 C   0  0  0  0  0  0  0  0  0  0  0  0
  162.6360  206.5240  151.2160 C   0  0  0  0  0  2  0  0  0  0  0  0
  160.3020  207.1310  153.9020 O   0  0  0  0  0  0  0  0  0  0  0  0
  160.6040  211.2380  152.9910 C   0  0  0  0  0  0  0  0  0  0  0  0
  162.3730  207.8080  150.4110 C   0  0  0  0  0  2  0  0  0  0  0  0
  161.6420  206.4150  152.3190 C   0  0  0  0  0  0  0  0  0  0  0  0
  161.9690  209.0210  151.2440 C   0  0  0  0  0  0  0  0  0  0  0  0
  161.1050  210.5810  147.9290 O   0  0  0  0  0  0  0  0  0  0  0  0
  161.6210  212.2450  149.4910 N   0  0  0  0  0  2  0  0  0  0  0  0
  161.5370  211.7480  148.1530 C   0  0  0  0  0  0  0  0  0  0  0  0
  161.9430  212.5610  147.0960 O   0  0  0  0  0  0  0  0  0  0  0  0
  161.3510  213.8320  146.8570 C   0  0  2  0  0  3  0  0  0  0  0  0
  159.1230  214.4520  148.9360 O   0  0  0  0  0  1  0  0  0  0  0  0
  157.6420  213.6510  146.0320 C   0  0  2  0  0  3  0  0  0  0  0  0
  157.6290  213.2400  147.4950 C   0  0  1  0  0  0  0  0  0  0  0  0
  157.3030  212.2170  146.4260 C   0  0  0  0  0  2  0  0  0  0  0  0
  159.8510  213.7040  146.8230 C   0  0  0  0  0  0  0  0  0  0  0  0
  159.0520  213.3860  148.0350 C   0  0  1  0  0  3  0  0  0  0  0  0
  156.5620  213.8230  148.1770 O   0  0  0  0  0  1  0  0  0  0  0  0
  159.0960  213.8140  145.7330 C   0  0  0  0  0  3  0  0  0  0  0  0
  161.9260  214.4520  145.6210 C   0  0  0  0  0  3  0  0  0  0  0  0
  162.6440  213.7210  144.7720 C   0  0  0  0  0  2  0  0  0  0  0  0
  160.1020  212.0270  154.0250 O   0  0  0  0  0  0  0  0  0  0  0  0
  159.4610  213.1810  153.7710 O   0  0  0  0  0  1  0  0  0  0  0  0
  161.4650  203.8900  152.7320 C   0  0  0  0  0  2  0  0  0  0  0  0
  160.4350  203.3910  151.7320 C   0  0  0  0  0  2  0  0  0  0  0  0
  161.6530  202.7270  149.6620 C   0  0  0  0  0  3  0  0  0  0  0  0
  161.0370  202.3860  150.8010 C   0  0  0  0  0  3  0  0  0  0  0  0
  160.7650  203.2280  146.9570 C   0  0  0  0  0  2  0  0  0  0  0  0
  162.0800  204.1980  144.9940 C   0  0  1  0  0  3  0  0  0  0  0  0
  161.8300  205.6520  147.0150 C   0  0  1  0  0  0  0  0  0  0  0  0
  160.8980  204.8970  144.3040 C   0  0  0  0  0  2  0  0  0  0  0  0
  162.7980  205.1700  145.9350 C   0  0  0  0  0  2  0  0  0  0  0  0
  160.4120  204.7380  148.9710 C   0  0  0  0  0  2  0  0  0  0  0  0
  160.6840  206.4170  146.3280 C   0  0  0  0  0  2  0  0  0  0  0  0
  161.7980  204.1530  149.2120 C   0  0  2  0  0  3  0  0  0  0  0  0
  159.9350  205.5570  145.3030 C   0  0  0  0  0  2  0  0  0  0  0  0
  161.3010  204.4070  147.7870 C   0  0  1  0  0  0  0  0  0  0  0  0
  161.6720  202.9300  145.7550 C   0  0  0  0  0  2  0  0  0  0  0  0
  162.5830  206.6340  147.9060 C   0  0  0  0  0  1  0  0  0  0  0  0
  1  2  1  0  0  0  0
  1  7  1  0  0  0  0
  2 10  1  0  0  0  0
  3 14  1  0  0  0  0
  5 11  1  0  0  0  0
  6  3  1  0  0  0  0
  6  5  2  0  0  0  0
  8  4  2  0  0  0  0
  9 13  1  0  0  0  0
 10  4  1  0  0  0  0
 11  7  2  0  0  0  0
 11 30  1  0  0  0  0
 12  9  1  0  0  0  0
 12 14  1  0  0  0  0
 13  2  2  0  0  0  0
 13  8  1  0  0  0  0
 14  1  2  0  0  0  0
 15 17  2  0  0  0  0
 16  6  1  0  0  0  0
 17 16  1  0  0  0  0
 18 17  1  0  0  0  0
 19 28  1  6  0  0  0
 19 18  1  0  0  0  0
 21 27  1  6  0  0  0
 21 23  1  0  0  0  0
 21 22  1  0  0  0  0
 22 25  1  0  0  0  0
 22 26  1  1  0  0  0
 23 22  1  0  0  0  0
 24 19  1  0  0  0  0
 24 25  1  0  0  0  0
 25 20  1  1  0  0  0
 27 24  2  0  0  0  0
 29 28  2  0  0  0  0
 31 30  1  0  0  0  0
 32  8  1  0  0  0  0
 33 32  1  0  0  0  0
 34 35  2  0  0  0  0
 35 33  1  0  0  0  0
 37 39  1  1  0  0  0
 37 46  1  0  0  0  0
 37 40  1  0  0  0  0
 38 45  1  0  0  0  0
 38 47  1  1  0  0  0
 39 44  1  0  0  0  0
 40 38  1  0  0  0  0
 41 43  1  0  0  0  0
 42 38  1  0  0  0  0
 43 34  1  6  0  0  0
 44 42  1  0  0  0  0
 45 36  1  6  0  0  0
 45 41  1  0  0  0  0
 45 43  1  0  0  0  0
 46 36  1  0  0  0  0
M  END
>  <MODEL>
5

>  <REMARK>
 VINA RESULT:      -6.6      1.458      2.835
  Name = 
  10 active torsions:
  status: ('A' for Active; 'I' for Inactive)
    1  A    between atoms: C_2  and  C_16
    2  A    between atoms: C_2  and  C_32
    3  A    between atoms: C_3  and  C_25
    4  A    between atoms: O_13  and  C_40
    5  A    between atoms: C_16  and  C_26
    6  A    between atoms: C_20  and  C_36
    7  A    between atoms: O_23  and  C_36
    8  A    between atoms: O_23  and  C_39
    9  A    between atoms: C_27  and  C_36
   10  A    between atoms: N_28  and  C_29
                            x       y       z     vdW  Elec       q    Type
                         _______ _______ _______ _____ _____    ______ ____

>  <TORSDO>
F 10

$$$$
=
 OpenBabel11042421533D

 47 54  0  0  1  0  0  0  0  0999 V2000
  161.2940  209.2810  152.1810 C   0  0  0  0  0  0  0  0  0  0  0  0
  161.2870  207.9060  152.7020 C   0  0  0  0  0  0  0  0  0  0  0  0
  161.9170  210.7390  150.3420 O   0  0  0  0  0  0  0  0  0  0  0  0
  160.9270  206.1730  153.9100 C   0  0  0  0  0  3  0  0  0  0  0  0
  160.4000  212.1890  151.5290 C   0  0  0  0  0  3  0  0  0  0  0  0
  161.0280  211.8170  150.4160 C   0  0  0  0  0  0  0  0  0  0  0  0
  160.8620  210.3310  153.1130 C   0  0  0  0  0  3  0  0  0  0  0  0
  161.6680  205.7580  152.8130 C   0  0  0  0  0  0  0  0  0  0  0  0
  162.6790  207.0650  150.8000 C   0  0  0  0  0  2  0  0  0  0  0  0
  160.7280  207.4750  153.8100 O   0  0  0  0  0  0  0  0  0  0  0  0
  160.4700  211.5770  152.8660 C   0  0  0  0  0  0  0  0  0  0  0  0
  162.1680  208.3040  150.0450 C   0  0  0  0  0  2  0  0  0  0  0  0
  161.8800  206.8730  152.0420 C   0  0  0  0  0  0  0  0  0  0  0  0
  161.7740  209.4830  150.9310 C   0  0  0  0  0  0  0  0  0  0  0  0
  159.2700  214.0960  150.1800 O   0  0  0  0  0  0  0  0  0  0  0  0
  160.8400  212.6290  149.2520 N   0  0  0  0  0  2  0  0  0  0  0  0
  159.8490  213.6540  149.1470 C   0  0  0  0  0  0  0  0  0  0  0  0
  159.5220  214.1600  147.8900 O   0  0  0  0  0  0  0  0  0  0  0  0
  158.7340  213.4200  146.9650 C   0  0  2  0  0  3  0  0  0  0  0  0
  161.7530  212.9550  146.3790 O   0  0  0  0  0  1  0  0  0  0  0  0
  160.0570  212.5120  143.5160 C   0  0  2  0  0  3  0  0  0  0  0  0
  161.2210  213.3220  144.0630 C   0  0  1  0  0  0  0  0  0  0  0  0
  160.3820  213.8850  142.9350 C   0  0  0  0  0  2  0  0  0  0  0  0
  159.5090  213.1920  145.6950 C   0  0  0  0  0  0  0  0  0  0  0  0
  160.9080  213.6650  145.5210 C   0  0  1  0  0  3  0  0  0  0  0  0
  162.4430  212.7420  143.7310 O   0  0  0  0  0  1  0  0  0  0  0  0
  159.0360  212.5990  144.6020 C   0  0  0  0  0  3  0  0  0  0  0  0
  157.4140  214.0930  146.7470 C   0  0  0  0  0  3  0  0  0  0  0  0
  156.5310  214.1810  147.7390 C   0  0  0  0  0  2  0  0  0  0  0  0
  160.0530  212.3280  153.9640 O   0  0  0  0  0  0  0  0  0  0  0  0
  159.1990  213.3560  153.8200 O   0  0  0  0  0  1  0  0  0  0  0  0
  162.0250  204.3500  152.4760 C   0  0  0  0  0  2  0  0  0  0  0  0
  160.9420  203.7560  151.5920 C   0  0  0  0  0  2  0  0  0  0  0  0
  160.0980  204.9140  149.5520 C   0  0  0  0  0  3  0  0  0  0  0  0
  160.1750  204.8310  150.8870 C   0  0  0  0  0  3  0  0  0  0  0  0
  161.0070  206.0410  147.0500 C   0  0  0  0  0  2  0  0  0  0  0  0
  160.4040  205.3430  144.6680 C   0  0  1  0  0  3  0  0  0  0  0  0
  161.5160  203.6210  146.1030 C   0  0  1  0  0  0  0  0  0  0  0  0
  161.7460  205.7180  144.0190 C   0  0  0  0  0  2  0  0  0  0  0  0
  160.4050  203.8690  145.0820 C   0  0  0  0  0  2  0  0  0  0  0  0
  162.2360  204.3330  148.4780 C   0  0  0  0  0  2  0  0  0  0  0  0
  162.8660  203.9250  145.4260 C   0  0  0  0  0  2  0  0  0  0  0  0
  160.7740  203.9340  148.6370 C   0  0  2  0  0  3  0  0  0  0  0  0
  162.9510  205.3630  144.9030 C   0  0  0  0  0  2  0  0  0  0  0  0
  161.2710  204.5510  147.3270 C   0  0  1  0  0  0  0  0  0  0  0  0
  160.0460  206.2300  145.8690 C   0  0  0  0  0  2  0  0  0  0  0  0
  161.4930  202.1390  146.4600 C   0  0  0  0  0  1  0  0  0  0  0  0
  1  2  1  0  0  0  0
  1  7  1  0  0  0  0
  2 10  1  0  0  0  0
  3  6  1  0  0  0  0
  3 14  1  0  0  0  0
  5 11  1  0  0  0  0
  6  5  2  0  0  0  0
  8  4  2  0  0  0  0
  9 13  1  0  0  0  0
 10  4  1  0  0  0  0
 11  7  2  0  0  0  0
 11 30  1  0  0  0  0
 12  9  1  0  0  0  0
 12 14  1  0  0  0  0
 13  2  2  0  0  0  0
 13  8  1  0  0  0  0
 14  1  2  0  0  0  0
 16  6  1  0  0  0  0
 17 16  1  0  0  0  0
 17 15  2  0  0  0  0
 18 17  1  0  0  0  0
 19 28  1  6  0  0  0
 19 18  1  0  0  0  0
 21 23  1  6  0  0  0
 21 22  1  0  0  0  0
 21 27  1  0  0  0  0
 22 26  1  6  0  0  0
 22 25  1  0  0  0  0
 23 22  1  0  0  0  0
 24 19  1  0  0  0  0
 25 24  1  0  0  0  0
 25 20  1  1  0  0  0
 27 24  2  0  0  0  0
 28 29  2  0  0  0  0
 31 30  1  0  0  0  0
 32  8  1  0  0  0  0
 33 32  1  0  0  0  0
 34 35  2  0  0  0  0
 35 33  1  0  0  0  0
 37 39  1  1  0  0  0
 37 40  1  0  0  0  0
 37 46  1  0  0  0  0
 38 47  1  1  0  0  0
 38 45  1  0  0  0  0
 39 44  1  0  0  0  0
 40 38  1  0  0  0  0
 41 43  1  0  0  0  0
 42 38  1  0  0  0  0
 43 34  1  1  0  0  0
 44 42  1  0  0  0  0
 45 36  1  6  0  0  0
 45 41  1  0  0  0  0
 45 43  1  0  0  0  0
 46 36  1  0  0  0  0
M  END
>  <MODEL>
6

>  <REMARK>
 VINA RESULT:      -6.6      1.534      2.474
  Name = 
  10 active torsions:
  status: ('A' for Active; 'I' for Inactive)
    1  A    between atoms: C_2  and  C_16
    2  A    between atoms: C_2  and  C_32
    3  A    between atoms: C_3  and  C_25
    4  A    between atoms: O_13  and  C_40
    5  A    between atoms: C_16  and  C_26
    6  A    between atoms: C_20  and  C_36
    7  A    between atoms: O_23  and  C_36
    8  A    between atoms: O_23  and  C_39
    9  A    between atoms: C_27  and  C_36
   10  A    between atoms: N_28  and  C_29
                            x       y       z     vdW  Elec       q    Type
                         _______ _______ _______ _____ _____    ______ ____

>  <TORSDO>
F 10

$$$$
