=
 OpenBabel11042420523D

 52 57  0  0  1  0  0  0  0  0999 V2000
  161.1960  203.1300  148.5750 C   0  0  0  0  0  0  0  0  0  0  0  0
  160.5240  206.8050  148.8770 C   0  0  0  0  0  2  0  0  0  0  0  0
  161.5580  199.9180  146.4810 C   0  0  0  0  0  1  0  0  0  0  0  0
  161.8300  206.3690  146.7570 C   0  0  1  0  0  3  0  0  0  0  0  0
  161.6780  207.2690  147.9920 C   0  0  1  0  0  3  0  0  0  0  0  0
  161.9440  202.1230  147.7430 C   0  0  0  0  0  2  0  0  0  0  0  0
  162.1720  204.9420  147.1960 C   0  0  0  0  0  2  0  0  0  0  0  0
  160.6730  205.3920  149.2060 N   0  0  0  0  0  2  0  0  0  0  0  0
  159.7600  201.3340  149.4630 C   0  0  0  0  0  0  0  0  0  0  0  0
  161.1610  200.8510  147.5660 C   0  0  0  0  0  0  0  0  0  0  0  0
  161.2950  204.4450  148.3220 C   0  0  0  0  0  0  0  0  0  0  0  0
  160.4390  202.6380  149.7750 C   0  0  1  0  0  3  0  0  0  0  0  0
  160.2010  200.5140  148.3740 N   0  0  0  0  0  0  0  0  0  0  0  0
  158.7890  200.9550  150.1680 O   0  0  0  0  0  0  0  0  0  0  0  0
  160.6430  206.1320  144.5570 C   0  0  0  0  0  3  0  0  0  0  0  0
  160.6080  206.3760  145.8750 C   0  0  0  0  0  3  0  0  0  0  0  0
  161.9020  205.8310  143.7950 C   0  0  0  0  0  2  0  0  0  0  0  0
  161.6310  205.6510  142.3090 C   0  0  0  0  0  2  0  0  0  0  0  0
  162.3950  206.1460  139.6270 O   0  0  0  0  0  0  0  0  0  0  0  0
  161.9900  207.1330  140.2990 C   0  0  0  0  0  0  0  0  0  0  0  0
  161.5590  206.9470  141.6480 N   0  0  0  0  0  2  0  0  0  0  0  0
  162.5280  212.1930  140.2600 S   0  0  0  0  0  0  0  0  0  0  0  0
  162.2960  209.5790  140.4020 N   0  0  0  0  0  0  0  0  0  0  0  0
  161.6210  208.7410  138.3490 C   0  0  1  0  0  3  0  0  0  0  0  0
  161.7220  210.3980  138.0910 S   0  0  0  0  0  0  0  0  0  0  0  0
  161.9730  208.4720  139.6770 C   0  0  0  0  0  0  0  0  0  0  0  0
  161.2080  207.7620  137.3050 C   0  0  0  0  0  1  0  0  0  0  0  0
  162.2050  210.7070  139.6660 C   0  0  0  0  0  0  0  0  0  0  0  0
  161.5980  208.7570  147.6570 C   0  0  0  0  0  2  0  0  0  0  0  0
  162.0960  209.5400  148.7000 O   0  0  0  0  0  1  0  0  0  0  0  0
  161.3920  202.4960  150.9570 C   0  0  0  0  0  2  0  0  0  0  0  0
  160.6910  202.7080  152.2240 N   0  0  0  0  0  0  0  0  0  0  0  0
  160.9430  204.0120  152.8290 C   0  0  2  0  0  3  0  0  0  0  0  0
  159.8470  203.7940  152.0540 O   0  0  0  0  0  0  0  0  0  0  0  0
  161.9050  204.9400  152.0750 C   0  0  0  0  0  2  0  0  0  0  0  0
  160.9650  207.9690  154.1400 C   0  0  0  0  0  0  0  0  0  0  0  0
  162.1460  207.4070  151.6700 C   0  0  0  0  0  3  0  0  0  0  0  0
  160.3990  208.2230  155.3460 F   0  0  0  0  0  0  0  0  0  0  0  0
  161.1270  206.6430  153.7250 C   0  0  0  0  0  3  0  0  0  0  0  0
  161.9790  208.7320  152.0820 C   0  0  0  0  0  3  0  0  0  0  0  0
  161.7090  206.3590  152.4880 C   0  0  0  0  0  0  0  0  0  0  0  0
  161.3900  209.0240  153.3210 C   0  0  0  0  0  0  0  0  0  0  0  0
  161.1980  210.3760  153.7680 N   0  0  0  0  0  2  0  0  0  0  0  0
  157.6650  213.4570  152.7210 C   0  0  0  0  0  3  0  0  0  0  0  0
  159.6310  212.8120  155.5460 O   0  0  0  0  0  0  0  0  0  0  0  0
  158.4690  210.6510  155.3840 O   0  0  0  0  0  0  0  0  0  0  0  0
  159.7700  212.8610  151.4570 C   0  0  0  0  0  2  0  0  0  0  0  0
  160.1390  211.2790  153.4190 C   0  0  1  0  0  3  0  0  0  0  0  0
  158.9120  213.9590  152.0100 C   0  0  0  0  0  2  0  0  0  0  0  0
  158.9800  211.8340  154.6080 S   0  0  0  0  0  0  0  0  0  0  0  0
  160.1070  211.9730  152.3320 C   0  0  0  0  0  2  0  0  0  0  0  0
  157.6040  212.6160  153.7830 C   0  0  0  0  0  3  0  0  0  0  0  0
  1 12  1  0  0  0  0
  2  8  1  0  0  0  0
  3 10  1  0  0  0  0
  4 16  1  1  0  0  0
  4  7  1  0  0  0  0
  4  5  1  0  0  0  0
  5 29  1  6  0  0  0
  5  2  1  0  0  0  0
  6  1  1  0  0  0  0
  7 11  1  0  0  0  0
  9 12  1  0  0  0  0
  9 14  2  0  0  0  0
 10  6  1  0  0  0  0
 10 13  2  0  0  0  0
 11  1  2  0  0  0  0
 11  8  1  0  0  0  0
 12 31  1  1  0  0  0
 13  9  1  0  0  0  0
 15 16  2  0  0  0  0
 17 15  1  0  0  0  0
 18 17  1  0  0  0  0
 19 20  2  0  0  0  0
 20 21  1  0  0  0  0
 21 18  1  0  0  0  0
 24 27  1  1  0  0  0
 24 26  1  0  0  0  0
 25 24  1  0  0  0  0
 25 28  1  0  0  0  0
 26 20  1  0  0  0  0
 26 23  2  0  0  0  0
 28 22  2  0  0  0  0
 28 23  1  0  0  0  0
 29 30  1  0  0  0  0
 31 32  1  0  0  0  0
 32 33  1  0  0  0  0
 33 35  1  6  0  0  0
 34 32  1  0  0  0  0
 34 33  1  0  0  0  0
 35 41  1  0  0  0  0
 36 38  1  0  0  0  0
 37 40  2  0  0  0  0
 37 41  1  0  0  0  0
 39 36  1  0  0  0  0
 40 42  1  0  0  0  0
 41 39  2  0  0  0  0
 42 43  1  0  0  0  0
 42 36  2  0  0  0  0
 44 52  2  0  0  0  0
 47 49  1  0  0  0  0
 47 51  1  0  0  0  0
 48 43  1  1  0  0  0
 48 50  1  0  0  0  0
 49 44  1  0  0  0  0
 50 46  2  0  0  0  0
 50 45  2  0  0  0  0
 51 48  1  0  0  0  0
 52 50  1  0  0  0  0
M  END
>  <MODEL>
1

>  <REMARK>
 VINA RESULT:      -6.4      0.000      0.000
  Name = 
  12 active torsions:
  status: ('A' for Active; 'I' for Inactive)
    1  A    between atoms: N_6  and  C_19
    2  A    between atoms: C_8  and  C_21
    3  A    between atoms: C_11  and  C_47
    4  A    between atoms: C_12  and  C_15
    5  A    between atoms: C_15  and  C_45
    6  A    between atoms: C_18  and  C_29
    7  A    between atoms: C_19  and  C_41
    8  A    between atoms: C_20  and  C_21
    9  A    between atoms: C_20  and  N_30
   10  A    between atoms: C_23  and  C_25
   11  A    between atoms: N_33  and  C_34
   12  A    between atoms: N_33  and  C_49
                            x       y       z     vdW  Elec       q    Type
                         _______ _______ _______ _____ _____    ______ ____

>  <TORSDO>
F 12

$$$$
=
 OpenBabel11042420523D

 52 57  0  0  1  0  0  0  0  0999 V2000
  160.1950  210.8480  152.7780 C   0  0  0  0  0  0  0  0  0  0  0  0
  157.1280  212.0130  154.5900 C   0  0  0  0  0  2  0  0  0  0  0  0
  162.6300  211.0120  149.7970 C   0  0  0  0  0  1  0  0  0  0  0  0
  158.2540  213.9960  153.5010 C   0  0  1  0  0  3  0  0  0  0  0  0
  157.5670  213.4640  154.7670 C   0  0  1  0  0  3  0  0  0  0  0  0
  161.3950  211.3570  152.0240 C   0  0  0  0  0  2  0  0  0  0  0  0
  159.5280  213.1930  153.2270 C   0  0  0  0  0  2  0  0  0  0  0  0
  158.2510  211.1920  154.1530 N   0  0  0  0  0  2  0  0  0  0  0  0
  160.5020  208.6200  151.7690 C   0  0  0  0  0  0  0  0  0  0  0  0
  161.7400  210.4730  150.8580 C   0  0  0  0  0  0  0  0  0  0  0  0
  159.3190  211.6990  153.3350 C   0  0  0  0  0  0  0  0  0  0  0  0
  160.0690  209.3690  152.9980 C   0  0  1  0  0  3  0  0  0  0  0  0
  161.3420  209.2380  150.7870 N   0  0  0  0  0  0  0  0  0  0  0  0
  160.1230  207.4320  151.5980 O   0  0  0  0  0  0  0  0  0  0  0  0
  157.7750  213.7350  151.0500 C   0  0  0  0  0  3  0  0  0  0  0  0
  157.3490  213.9860  152.2960 C   0  0  0  0  0  3  0  0  0  0  0  0
  159.2050  213.4420  150.6980 C   0  0  0  0  0  2  0  0  0  0  0  0
  159.7590  214.4530  149.7040 C   0  0  0  0  0  2  0  0  0  0  0  0
  161.9940  214.0430  148.0150 O   0  0  0  0  0  0  0  0  0  0  0  0
  160.8590  213.7650  147.5410 C   0  0  0  0  0  0  0  0  0  0  0  0
  159.6930  213.9190  148.3500 N   0  0  0  0  0  2  0  0  0  0  0  0
  162.5190  213.0710  142.7810 S   0  0  0  0  0  0  0  0  0  0  0  0
  161.7790  213.4770  145.2700 N   0  0  0  0  0  0  0  0  0  0  0  0
  159.6410  212.6420  145.5970 C   0  0  1  0  0  3  0  0  0  0  0  0
  159.9600  212.3050  143.9820 S   0  0  0  0  0  0  0  0  0  0  0  0
  160.7550  213.2880  146.1470 C   0  0  0  0  0  0  0  0  0  0  0  0
  158.3630  212.2970  146.2800 C   0  0  0  0  0  1  0  0  0  0  0  0
  161.4890  212.9900  144.0450 C   0  0  0  0  0  0  0  0  0  0  0  0
  156.4390  214.3610  155.2730 C   0  0  0  0  0  2  0  0  0  0  0  0
  155.2460  213.6500  155.4050 O   0  0  0  0  0  1  0  0  0  0  0  0
  160.8960  208.9610  154.2130 C   0  0  0  0  0  2  0  0  0  0  0  0
  160.1930  207.9580  155.0130 N   0  0  0  0  0  0  0  0  0  0  0  0
  160.8800  206.6720  155.0860 C   0  0  2  0  0  3  0  0  0  0  0  0
  161.0270  207.6070  156.0640 O   0  0  0  0  0  0  0  0  0  0  0  0
  162.1980  206.5570  154.3110 C   0  0  0  0  0  2  0  0  0  0  0  0
  160.8330  204.0980  151.7790 C   0  0  0  0  0  0  0  0  0  0  0  0
  162.7350  206.1430  151.8920 C   0  0  0  0  0  3  0  0  0  0  0  0
  159.8990  203.1140  151.7390 F   0  0  0  0  0  0  0  0  0  0  0  0
  161.0500  204.7900  152.9750 C   0  0  0  0  0  3  0  0  0  0  0  0
  162.5230  205.4470  150.6990 C   0  0  0  0  0  3  0  0  0  0  0  0
  162.0040  205.8070  153.0370 C   0  0  0  0  0  0  0  0  0  0  0  0
  161.5690  204.4210  150.6310 C   0  0  0  0  0  0  0  0  0  0  0  0
  161.3350  203.6840  149.4200 N   0  0  0  0  0  2  0  0  0  0  0  0
  160.7830  205.5230  145.0170 C   0  0  0  0  0  3  0  0  0  0  0  0
  162.4100  206.5490  147.9420 O   0  0  0  0  0  0  0  0  0  0  0  0
  160.0960  206.5440  148.7710 O   0  0  0  0  0  0  0  0  0  0  0  0
  161.4700  203.2110  145.7710 C   0  0  0  0  0  2  0  0  0  0  0  0
  161.1450  204.2020  148.0950 C   0  0  1  0  0  3  0  0  0  0  0  0
  161.7870  204.3870  144.8970 C   0  0  0  0  0  2  0  0  0  0  0  0
  161.0520  205.9240  147.7900 S   0  0  0  0  0  0  0  0  0  0  0  0
  161.3170  203.5140  147.0170 C   0  0  0  0  0  2  0  0  0  0  0  0
  160.4410  206.2060  146.1370 C   0  0  0  0  0  3  0  0  0  0  0  0
  1 12  1  0  0  0  0
  1 11  2  0  0  0  0
  2  5  1  0  0  0  0
  3 10  1  0  0  0  0
  4 16  1  6  0  0  0
  4  5  1  0  0  0  0
  5 29  1  6  0  0  0
  6  1  1  0  0  0  0
  7 11  1  0  0  0  0
  7  4  1  0  0  0  0
  8  2  1  0  0  0  0
  9 12  1  0  0  0  0
 10  6  1  0  0  0  0
 11  8  1  0  0  0  0
 12 31  1  1  0  0  0
 13 10  2  0  0  0  0
 13  9  1  0  0  0  0
 14  9  2  0  0  0  0
 15 16  2  0  0  0  0
 17 15  1  0  0  0  0
 18 17  1  0  0  0  0
 20 19  2  0  0  0  0
 20 21  1  0  0  0  0
 21 18  1  0  0  0  0
 22 28  2  0  0  0  0
 23 26  2  0  0  0  0
 24 26  1  0  0  0  0
 24 27  1  6  0  0  0
 25 28  1  0  0  0  0
 25 24  1  0  0  0  0
 26 20  1  0  0  0  0
 28 23  1  0  0  0  0
 29 30  1  0  0  0  0
 31 32  1  0  0  0  0
 32 33  1  0  0  0  0
 32 34  1  0  0  0  0
 33 35  1  6  0  0  0
 33 34  1  0  0  0  0
 36 39  1  0  0  0  0
 37 41  1  0  0  0  0
 38 36  1  0  0  0  0
 39 41  2  0  0  0  0
 40 37  2  0  0  0  0
 41 35  1  0  0  0  0
 42 40  1  0  0  0  0
 42 36  2  0  0  0  0
 43 42  1  0  0  0  0
 44 52  2  0  0  0  0
 47 51  1  0  0  0  0
 48 43  1  1  0  0  0
 49 44  1  0  0  0  0
 49 47  1  0  0  0  0
 50 45  2  0  0  0  0
 50 48  1  0  0  0  0
 50 46  2  0  0  0  0
 51 48  1  0  0  0  0
 52 50  1  0  0  0  0
M  END
>  <MODEL>
2

>  <REMARK>
 VINA RESULT:      -4.1      3.826      8.610
  Name = 
  12 active torsions:
  status: ('A' for Active; 'I' for Inactive)
    1  A    between atoms: N_6  and  C_19
    2  A    between atoms: C_8  and  C_21
    3  A    between atoms: C_11  and  C_47
    4  A    between atoms: C_12  and  C_15
    5  A    between atoms: C_15  and  C_45
    6  A    between atoms: C_18  and  C_29
    7  A    between atoms: C_19  and  C_41
    8  A    between atoms: C_20  and  C_21
    9  A    between atoms: C_20  and  N_30
   10  A    between atoms: C_23  and  C_25
   11  A    between atoms: N_33  and  C_34
   12  A    between atoms: N_33  and  C_49
                            x       y       z     vdW  Elec       q    Type
                         _______ _______ _______ _____ _____    ______ ____

>  <TORSDO>
F 12

$$$$
