=
 OpenBabel11052410213D

 55 60  0  0  1  0  0  0  0  0999 V2000
  161.7820  207.9560  148.5180 C   0  0  0  0  0  3  0  0  0  0  0  0
  161.7550  207.1870  149.6110 C   0  0  0  0  0  0  0  0  0  0  0  0
  161.9040  209.1350  151.0940 C   0  0  0  0  0  0  0  0  0  0  0  0
  161.0860  211.0760  152.2870 C   0  0  0  0  0  3  0  0  0  0  0  0
  161.9070  213.8260  148.7050 C   0  0  0  0  0  2  0  0  0  0  0  0
  160.3710  214.1530  150.6520 C   0  0  0  0  0  2  0  0  0  0  0  0
  161.3730  211.1720  149.8660 C   0  0  0  0  0  0  0  0  0  0  0  0
  162.2380  209.9980  149.9020 C   0  0  2  0  0  3  0  0  0  0  0  0
  160.7940  211.6980  150.9620 C   0  0  0  0  0  0  0  0  0  0  0  0
  161.3120  210.2130  147.7290 O   0  0  0  0  0  0  0  0  0  0  0  0
  161.6210  209.8460  152.3680 C   0  0  0  0  0  0  0  0  0  0  0  0
  161.7240  207.8180  150.9500 C   0  0  0  0  0  3  0  0  0  0  0  0
  159.7480  212.7750  150.8210 C   0  0  1  0  0  3  0  0  0  0  0  0
  160.6020  214.4520  149.1800 C   0  0  0  0  0  2  0  0  0  0  0  0
  161.8880  209.3790  148.6430 N   0  0  0  0  0  0  0  0  0  0  0  0
  161.7100  212.5840  147.8220 C   0  0  1  0  0  3  0  0  0  0  0  0
  160.9630  211.3910  148.4490 C   0  0  2  0  0  3  0  0  0  0  0  0
  158.5250  211.7330  152.7680 N   0  0  0  0  0  0  0  0  0  0  0  0
  157.7850  213.7480  152.1390 C   0  0  0  0  0  3  0  0  0  0  0  0
  157.4910  212.1510  153.5230 C   0  0  0  0  0  0  0  0  0  0  0  0
  158.6990  212.7440  151.8990 C   0  0  0  0  0  0  0  0  0  0  0  0
  157.0160  213.3650  153.1750 N   0  0  0  0  0  2  0  0  0  0  0  0
  156.9460  211.3600  154.6600 C   0  0  0  0  0  2  0  0  0  0  0  0
  157.2680  211.6940  156.9470 C   0  0  0  0  0  1  0  0  0  0  0  0
  157.9350  211.2860  155.7220 N   0  0  0  0  0  2  0  0  0  0  0  0
  160.9670  208.3760  154.2570 C   0  0  0  0  0  1  0  0  0  0  0  0
  161.8520  209.2930  153.6320 O   0  0  0  0  0  0  0  0  0  0  0  0
  161.2090  212.9280  146.4190 C   0  0  0  0  0  2  0  0  0  0  0  0
  162.0410  213.9450  145.7930 N   0  0  0  0  0  2  0  0  0  0  0  0
  161.4740  214.2040  144.4790 C   0  0  0  0  0  2  0  0  0  0  0  0
  162.1970  213.4050  143.4410 C   0  0  0  0  0  0  0  0  0  0  0  0
  163.3460  212.9600  143.7070 O   0  0  0  0  0  0  0  0  0  0  0  0
  158.1350  213.4280  140.7160 C   0  0  0  0  0  1  0  0  0  0  0  0
  159.3950  212.7270  141.1910 C   0  0  1  0  0  3  0  0  0  0  0  0
  160.0850  211.9940  140.0350 C   0  0  2  0  0  3  0  0  0  0  0  0
  161.6060  213.1540  142.1570 N   0  0  0  0  0  0  0  0  0  0  0  0
  162.3260  212.3710  141.1550 C   0  0  1  0  0  3  0  0  0  0  0  0
  159.1880  210.9010  139.4800 C   0  0  0  0  0  1  0  0  0  0  0  0
  160.3330  213.7710  141.7890 C   0  0  0  0  0  2  0  0  0  0  0  0
  161.3890  211.3510  140.5110 C   0  0  0  0  0  2  0  0  0  0  0  0
  162.9440  213.2820  140.1050 C   0  0  0  0  0  1  0  0  0  0  0  0
  161.6840  205.8020  149.4660 O   0  0  0  0  0  0  0  0  0  0  0  0
  161.4920  205.2190  148.2310 N   0  0  0  0  0  0  0  0  0  0  0  0
  161.3240  203.9400  148.0930 C   0  0  0  0  0  0  0  0  0  0  0  0
  160.8480  201.7470  148.8800 O   0  0  0  0  0  1  0  0  0  0  0  0
  161.3260  203.0020  149.2650 C   0  0  2  0  0  3  0  0  0  0  0  0
  160.4840  203.5640  150.4030 C   0  0  0  0  0  2  0  0  0  0  0  0
  161.1960  203.4570  151.7150 C   0  0  0  0  0  0  0  0  0  0  0  0
  161.1330  204.5800  152.6860 C   0  0  0  0  0  1  0  0  0  0  0  0
  161.8550  202.4660  151.9780 O   0  0  0  0  0  0  0  0  0  0  0  0
  161.0960  203.3820  146.7310 C   0  0  0  0  0  2  0  0  0  0  0  0
  160.7910  204.9680  144.7940 N   0  0  0  0  0  2  0  0  0  0  0  0
  161.6650  204.2900  145.6970 C   0  0  0  0  0  0  0  0  0  0  0  0
  161.2950  205.8000  143.7150 C   0  0  0  0  0  1  0  0  0  0  0  0
  162.9130  204.4290  145.6110 O   0  0  0  0  0  0  0  0  0  0  0  0
  1 15  1  0  0  0  0
  1  2  2  0  0  0  0
  2 12  1  0  0  0  0
  3 11  1  0  0  0  0
  4 11  2  0  0  0  0
  5 14  1  0  0  0  0
  6 13  1  0  0  0  0
  7  9  2  0  0  0  0
  8  7  1  1  0  0  0
  8  3  1  0  0  0  0
  9  4  1  0  0  0  0
 10 15  1  0  0  0  0
 11 27  1  0  0  0  0
 12  3  2  0  0  0  0
 13  9  1  0  0  0  0
 13 21  1  1  0  0  0
 14  6  1  0  0  0  0
 15  8  1  0  0  0  0
 16 28  1  6  0  0  0
 16 17  1  0  0  0  0
 16  5  1  0  0  0  0
 17 10  1  6  0  0  0
 17  7  1  0  0  0  0
 18 20  2  0  0  0  0
 19 22  1  0  0  0  0
 20 23  1  0  0  0  0
 21 19  2  0  0  0  0
 21 18  1  0  0  0  0
 22 20  1  0  0  0  0
 23 25  1  0  0  0  0
 25 24  1  0  0  0  0
 27 26  1  0  0  0  0
 29 28  1  0  0  0  0
 30 29  1  0  0  0  0
 31 32  2  0  0  0  0
 31 30  1  0  0  0  0
 34 33  1  6  0  0  0
 34 39  1  0  0  0  0
 35 38  1  1  0  0  0
 35 40  1  0  0  0  0
 35 34  1  0  0  0  0
 36 31  1  0  0  0  0
 37 41  1  6  0  0  0
 37 36  1  0  0  0  0
 39 36  1  0  0  0  0
 40 37  1  0  0  0  0
 42  2  1  0  0  0  0
 43 42  1  0  0  0  0
 44 43  2  0  0  0  0
 44 46  1  0  0  0  0
 46 45  1  6  0  0  0
 46 47  1  0  0  0  0
 47 48  1  0  0  0  0
 48 50  2  0  0  0  0
 48 49  1  0  0  0  0
 51 44  1  0  0  0  0
 52 53  1  0  0  0  0
 53 51  1  0  0  0  0
 54 52  1  0  0  0  0
 55 53  2  0  0  0  0
M  END
>  <MODEL>
1

>  <REMARK>
 VINA RESULT:      -7.0      0.000      0.000
  Name = 
  15 active torsions:
  status: ('A' for Active; 'I' for Inactive)
    1  A    between atoms: C_1  and  C_32
    2  A    between atoms: C_4  and  C_43
    3  A    between atoms: N_7  and  O_31
    4  A    between atoms: C_9  and  O_31
    5  A    between atoms: C_17  and  C_22
    6  A    between atoms: C_17  and  C_33
    7  A    between atoms: C_20  and  C_52
    8  A    between atoms: C_20  and  N_53
    9  A    between atoms: C_23  and  C_33
   10  A    between atoms: C_23  and  C_43
   11  A    between atoms: C_26  and  C_27
   12  A    between atoms: C_27  and  N_45
   13  A    between atoms: C_29  and  C_46
   14  A    between atoms: C_32  and  N_53
   15  A    between atoms: C_38  and  O_54
                            x       y       z     vdW  Elec       q    Type
                         _______ _______ _______ _____ _____    ______ ____

>  <TORSDO>
F 15

$$$$
=
 OpenBabel11052410213D

 55 60  0  0  1  0  0  0  0  0999 V2000
  161.6520  207.8760  148.9790 C   0  0  0  0  0  3  0  0  0  0  0  0
  161.5280  207.2060  150.1280 C   0  0  0  0  0  0  0  0  0  0  0  0
  161.6970  209.2640  151.4520 C   0  0  0  0  0  0  0  0  0  0  0  0
  160.9170  211.3350  152.4320 C   0  0  0  0  0  3  0  0  0  0  0  0
  162.0620  213.7300  148.6880 C   0  0  0  0  0  2  0  0  0  0  0  0
  160.4450  214.2910  150.5110 C   0  0  0  0  0  2  0  0  0  0  0  0
  161.3350  211.2110  150.0320 C   0  0  0  0  0  0  0  0  0  0  0  0
  162.1360  210.0060  150.2140 C   0  0  2  0  0  3  0  0  0  0  0  0
  160.7260  211.8540  151.0460 C   0  0  0  0  0  0  0  0  0  0  0  0
  161.3380  210.0780  147.9810 O   0  0  0  0  0  0  0  0  0  0  0  0
  161.3840  210.0930  152.6440 C   0  0  0  0  0  0  0  0  0  0  0  0
  161.4590  207.9490  151.4080 C   0  0  0  0  0  3  0  0  0  0  0  0
  159.7450  212.9620  150.7570 C   0  0  1  0  0  3  0  0  0  0  0  0
  160.7680  214.4530  149.0350 C   0  0  0  0  0  2  0  0  0  0  0  0
  161.8220  209.2990  148.9920 N   0  0  0  0  0  0  0  0  0  0  0  0
  161.8500  212.4270  147.9000 C   0  0  1  0  0  3  0  0  0  0  0  0
  161.0120  211.3280  148.5800 C   0  0  2  0  0  3  0  0  0  0  0  0
  158.3370  212.1240  152.6780 N   0  0  0  0  0  0  0  0  0  0  0  0
  157.8010  214.1570  151.9120 C   0  0  0  0  0  3  0  0  0  0  0  0
  157.3030  212.6630  153.3510 C   0  0  0  0  0  0  0  0  0  0  0  0
  158.6410  213.0720  151.7730 C   0  0  0  0  0  0  0  0  0  0  0  0
  156.9480  213.8910  152.9180 N   0  0  0  0  0  2  0  0  0  0  0  0
  156.6340  211.9780  154.4910 C   0  0  0  0  0  2  0  0  0  0  0  0
  155.7030  213.4390  156.0550 C   0  0  0  0  0  1  0  0  0  0  0  0
  156.9090  212.6990  155.7230 N   0  0  0  0  0  2  0  0  0  0  0  0
  160.4590  209.6480  154.9030 C   0  0  0  0  0  1  0  0  0  0  0  0
  161.5200  209.6400  153.9610 O   0  0  0  0  0  0  0  0  0  0  0  0
  161.4410  212.6730  146.4480 C   0  0  0  0  0  2  0  0  0  0  0  0
  162.4550  213.4340  145.7330 N   0  0  0  0  0  2  0  0  0  0  0  0
  161.7560  214.4500  144.9610 C   0  0  0  0  0  2  0  0  0  0  0  0
  160.7680  213.8050  144.0410 C   0  0  0  0  0  0  0  0  0  0  0  0
  159.6150  213.5390  144.4750 O   0  0  0  0  0  0  0  0  0  0  0  0
  163.9160  214.4500  140.3520 C   0  0  0  0  0  1  0  0  0  0  0  0
  162.4890  214.3840  140.8660 C   0  0  1  0  0  3  0  0  0  0  0  0
  161.5810  213.6500  139.8730 C   0  0  2  0  0  3  0  0  0  0  0  0
  161.1230  213.4800  142.6870 N   0  0  0  0  0  0  0  0  0  0  0  0
  160.1460  212.8500  141.8010 C   0  0  1  0  0  3  0  0  0  0  0  0
  161.5120  214.3990  138.5530 C   0  0  0  0  0  1  0  0  0  0  0  0
  162.4920  213.6640  142.2110 C   0  0  0  0  0  2  0  0  0  0  0  0
  160.1630  213.5290  140.4330 C   0  0  0  0  0  2  0  0  0  0  0  0
  160.4200  211.3600  141.6740 C   0  0  0  0  0  1  0  0  0  0  0  0
  161.3950  205.8190  150.0940 O   0  0  0  0  0  0  0  0  0  0  0  0
  161.5600  205.1110  148.9220 N   0  0  0  0  0  0  0  0  0  0  0  0
  161.2920  203.8440  148.8400 C   0  0  0  0  0  0  0  0  0  0  0  0
  161.1210  203.6960  151.2080 O   0  0  0  0  0  1  0  0  0  0  0  0
  160.7820  203.0570  150.0130 C   0  0  2  0  0  3  0  0  0  0  0  0
  161.3390  201.6400  149.9920 C   0  0  0  0  0  2  0  0  0  0  0  0
  160.5140  200.7400  149.1280 C   0  0  0  0  0  0  0  0  0  0  0  0
  159.0310  200.8100  149.1880 C   0  0  0  0  0  1  0  0  0  0  0  0
  161.0510  199.9250  148.3970 O   0  0  0  0  0  0  0  0  0  0  0  0
  161.4690  203.1490  147.5350 C   0  0  0  0  0  2  0  0  0  0  0  0
  160.8880  204.5910  145.5500 N   0  0  0  0  0  2  0  0  0  0  0  0
  161.8650  204.1220  146.4790 C   0  0  0  0  0  0  0  0  0  0  0  0
  161.2350  205.4760  144.4510 C   0  0  0  0  0  1  0  0  0  0  0  0
  163.0630  204.4990  146.4000 O   0  0  0  0  0  0  0  0  0  0  0  0
  1 15  1  0  0  0  0
  1  2  2  0  0  0  0
  2 12  1  0  0  0  0
  3 11  1  0  0  0  0
  4 11  2  0  0  0  0
  5 14  1  0  0  0  0
  6 13  1  0  0  0  0
  7  9  2  0  0  0  0
  8  7  1  6  0  0  0
  8  3  1  0  0  0  0
  9  4  1  0  0  0  0
 10 15  1  0  0  0  0
 11 27  1  0  0  0  0
 12  3  2  0  0  0  0
 13  9  1  0  0  0  0
 13 21  1  1  0  0  0
 14  6  1  0  0  0  0
 15  8  1  0  0  0  0
 16 28  1  6  0  0  0
 16 17  1  0  0  0  0
 16  5  1  0  0  0  0
 17 10  1  6  0  0  0
 17  7  1  0  0  0  0
 18 20  2  0  0  0  0
 19 22  1  0  0  0  0
 20 23  1  0  0  0  0
 21 19  2  0  0  0  0
 21 18  1  0  0  0  0
 22 20  1  0  0  0  0
 23 25  1  0  0  0  0
 25 24  1  0  0  0  0
 27 26  1  0  0  0  0
 29 28  1  0  0  0  0
 30 29  1  0  0  0  0
 31 32  2  0  0  0  0
 31 30  1  0  0  0  0
 34 33  1  6  0  0  0
 34 39  1  0  0  0  0
 35 38  1  6  0  0  0
 35 40  1  0  0  0  0
 35 34  1  0  0  0  0
 36 31  1  0  0  0  0
 37 41  1  6  0  0  0
 37 36  1  0  0  0  0
 39 36  1  0  0  0  0
 40 37  1  0  0  0  0
 42  2  1  0  0  0  0
 43 42  1  0  0  0  0
 44 43  2  0  0  0  0
 44 46  1  0  0  0  0
 46 45  1  1  0  0  0
 47 46  1  0  0  0  0
 48 49  1  0  0  0  0
 48 47  1  0  0  0  0
 50 48  2  0  0  0  0
 51 44  1  0  0  0  0
 52 53  1  0  0  0  0
 53 51  1  0  0  0  0
 54 52  1  0  0  0  0
 55 53  2  0  0  0  0
M  END
>  <MODEL>
2

>  <REMARK>
 VINA RESULT:      -5.2      1.219      1.997
  Name = 
  15 active torsions:
  status: ('A' for Active; 'I' for Inactive)
    1  A    between atoms: C_1  and  C_32
    2  A    between atoms: C_4  and  C_43
    3  A    between atoms: N_7  and  O_31
    4  A    between atoms: C_9  and  O_31
    5  A    between atoms: C_17  and  C_22
    6  A    between atoms: C_17  and  C_33
    7  A    between atoms: C_20  and  C_52
    8  A    between atoms: C_20  and  N_53
    9  A    between atoms: C_23  and  C_33
   10  A    between atoms: C_23  and  C_43
   11  A    between atoms: C_26  and  C_27
   12  A    between atoms: C_27  and  N_45
   13  A    between atoms: C_29  and  C_46
   14  A    between atoms: C_32  and  N_53
   15  A    between atoms: C_38  and  O_54
                            x       y       z     vdW  Elec       q    Type
                         _______ _______ _______ _____ _____    ______ ____

>  <TORSDO>
F 15

$$$$
=
 OpenBabel11052410213D

 55 60  0  0  1  0  0  0  0  0999 V2000
  162.2130  208.3600  148.8530 C   0  0  0  0  0  3  0  0  0  0  0  0
  162.4460  207.7970  150.0420 C   0  0  0  0  0  0  0  0  0  0  0  0
  162.2400  209.9490  151.2010 C   0  0  0  0  0  0  0  0  0  0  0  0
  161.0780  211.8330  152.1810 C   0  0  0  0  0  3  0  0  0  0  0  0
  160.9660  214.0610  148.1700 C   0  0  0  0  0  2  0  0  0  0  0  0
  159.5430  214.3600  150.2040 C   0  0  0  0  0  2  0  0  0  0  0  0
  161.1580  211.5850  149.7560 C   0  0  0  0  0  0  0  0  0  0  0  0
  162.2740  210.6540  149.8680 C   0  0  2  0  0  3  0  0  0  0  0  0
  160.5520  212.1450  150.8200 C   0  0  0  0  0  0  0  0  0  0  0  0
  161.1680  210.2940  147.8000 O   0  0  0  0  0  0  0  0  0  0  0  0
  161.8920  210.7820  152.3810 C   0  0  0  0  0  0  0  0  0  0  0  0
  162.3650  208.6200  151.2710 C   0  0  0  0  0  3  0  0  0  0  0  0
  159.2750  212.9260  150.6380 C   0  0  1  0  0  3  0  0  0  0  0  0
  159.5890  214.4530  148.6880 C   0  0  0  0  0  2  0  0  0  0  0  0
  161.9890  209.7720  148.7570 N   0  0  0  0  0  0  0  0  0  0  0  0
  161.0040  212.6760  147.5030 C   0  0  1  0  0  3  0  0  0  0  0  0
  160.6060  211.4690  148.3740 C   0  0  2  0  0  3  0  0  0  0  0  0
  158.2750  211.8050  152.6680 N   0  0  0  0  0  0  0  0  0  0  0  0
  157.4460  213.8250  152.1820 C   0  0  0  0  0  3  0  0  0  0  0  0
  157.3200  212.1830  153.5380 C   0  0  0  0  0  0  0  0  0  0  0  0
  158.3440  212.8450  151.8180 C   0  0  0  0  0  0  0  0  0  0  0  0
  156.7930  213.3980  153.2790 N   0  0  0  0  0  2  0  0  0  0  0  0
  156.9060  211.3480  154.6990 C   0  0  0  0  0  2  0  0  0  0  0  0
  155.1730  210.1670  155.7210 C   0  0  0  0  0  1  0  0  0  0  0  0
  155.5100  210.9720  154.5580 N   0  0  0  0  0  2  0  0  0  0  0  0
  161.5280  210.6760  154.8330 C   0  0  0  0  0  1  0  0  0  0  0  0
  162.3380  210.5120  153.6790 O   0  0  0  0  0  0  0  0  0  0  0  0
  160.3340  212.6630  146.1290 C   0  0  0  0  0  2  0  0  0  0  0  0
  161.1260  213.3890  145.1470 N   0  0  0  0  0  2  0  0  0  0  0  0
  160.6860  212.9400  143.8340 C   0  0  0  0  0  2  0  0  0  0  0  0
  161.8700  212.6640  142.9630 C   0  0  0  0  0  0  0  0  0  0  0  0
  163.0260  212.7790  143.4530 O   0  0  0  0  0  0  0  0  0  0  0  0
  158.8290  211.0510  139.4870 C   0  0  0  0  0  1  0  0  0  0  0  0
  160.1650  210.9740  140.2050 C   0  0  1  0  0  3  0  0  0  0  0  0
  161.3110  210.7510  139.2100 C   0  0  2  0  0  3  0  0  0  0  0  0
  161.7040  212.2860  141.5870 N   0  0  0  0  0  0  0  0  0  0  0  0
  162.8720  212.0190  140.7500 C   0  0  1  0  0  3  0  0  0  0  0  0
  161.1480  209.4230  138.4920 C   0  0  0  0  0  1  0  0  0  0  0  0
  160.3780  212.2740  140.9740 C   0  0  0  0  0  2  0  0  0  0  0  0
  162.6570  210.7440  139.9370 C   0  0  0  0  0  2  0  0  0  0  0  0
  163.1610  213.2040  139.8410 C   0  0  0  0  0  1  0  0  0  0  0  0
  162.6920  206.4270  150.1090 O   0  0  0  0  0  0  0  0  0  0  0  0
  161.6710  205.5230  150.3150 N   0  0  0  0  0  0  0  0  0  0  0  0
  161.1750  205.3040  151.4940 C   0  0  0  0  0  0  0  0  0  0  0  0
  162.9810  205.6190  153.0090 O   0  0  0  0  0  1  0  0  0  0  0  0
  161.6740  206.0170  152.7180 C   0  0  2  0  0  3  0  0  0  0  0  0
  160.7600  205.7500  153.9060 C   0  0  0  0  0  2  0  0  0  0  0  0
  160.7630  206.8940  154.8680 C   0  0  0  0  0  0  0  0  0  0  0  0
  159.4960  207.6050  155.1810 C   0  0  0  0  0  1  0  0  0  0  0  0
  161.8070  207.2700  155.3750 O   0  0  0  0  0  0  0  0  0  0  0  0
  160.0540  204.3340  151.6390 C   0  0  0  0  0  2  0  0  0  0  0  0
  160.1410  202.6070  149.8030 N   0  0  0  0  0  2  0  0  0  0  0  0
  160.4630  202.9910  151.1400 C   0  0  0  0  0  0  0  0  0  0  0  0
  160.4430  201.2820  149.2910 C   0  0  0  0  0  1  0  0  0  0  0  0
  161.0650  202.1990  151.9110 O   0  0  0  0  0  0  0  0  0  0  0  0
  1  2  2  0  0  0  0
  2 42  1  0  0  0  0
  2 12  1  0  0  0  0
  3 12  2  0  0  0  0
  3 11  1  0  0  0  0
  4 11  2  0  0  0  0
  5 14  1  0  0  0  0
  6 13  1  0  0  0  0
  7  9  2  0  0  0  0
  8  7  1  1  0  0  0
  8  3  1  0  0  0  0
  9  4  1  0  0  0  0
 10 15  1  0  0  0  0
 11 27  1  0  0  0  0
 13  9  1  0  0  0  0
 13 21  1  1  0  0  0
 14  6  1  0  0  0  0
 15  1  1  0  0  0  0
 15  8  1  0  0  0  0
 16 28  1  6  0  0  0
 16  5  1  0  0  0  0
 16 17  1  0  0  0  0
 17 10  1  6  0  0  0
 17  7  1  0  0  0  0
 18 20  2  0  0  0  0
 19 22  1  0  0  0  0
 20 23  1  0  0  0  0
 21 19  2  0  0  0  0
 21 18  1  0  0  0  0
 22 20  1  0  0  0  0
 25 23  1  0  0  0  0
 25 24  1  0  0  0  0
 27 26  1  0  0  0  0
 29 28  1  0  0  0  0
 30 29  1  0  0  0  0
 31 32  2  0  0  0  0
 31 30  1  0  0  0  0
 34 33  1  6  0  0  0
 34 39  1  0  0  0  0
 35 38  1  1  0  0  0
 35 40  1  0  0  0  0
 35 34  1  0  0  0  0
 36 31  1  0  0  0  0
 37 41  1  6  0  0  0
 37 36  1  0  0  0  0
 39 36  1  0  0  0  0
 40 37  1  0  0  0  0
 42 43  1  0  0  0  0
 43 44  2  0  0  0  0
 44 51  1  0  0  0  0
 44 46  1  0  0  0  0
 46 45  1  1  0  0  0
 46 47  1  0  0  0  0
 47 48  1  0  0  0  0
 48 49  1  0  0  0  0
 48 50  2  0  0  0  0
 52 53  1  0  0  0  0
 53 51  1  0  0  0  0
 53 55  2  0  0  0  0
 54 52  1  0  0  0  0
M  END
>  <MODEL>
3

>  <REMARK>
 VINA RESULT:      -4.0      1.938      2.796
  Name = 
  15 active torsions:
  status: ('A' for Active; 'I' for Inactive)
    1  A    between atoms: C_1  and  C_32
    2  A    between atoms: C_4  and  C_43
    3  A    between atoms: N_7  and  O_31
    4  A    between atoms: C_9  and  O_31
    5  A    between atoms: C_17  and  C_22
    6  A    between atoms: C_17  and  C_33
    7  A    between atoms: C_20  and  C_52
    8  A    between atoms: C_20  and  N_53
    9  A    between atoms: C_23  and  C_33
   10  A    between atoms: C_23  and  C_43
   11  A    between atoms: C_26  and  C_27
   12  A    between atoms: C_27  and  N_45
   13  A    between atoms: C_29  and  C_46
   14  A    between atoms: C_32  and  N_53
   15  A    between atoms: C_38  and  O_54
                            x       y       z     vdW  Elec       q    Type
                         _______ _______ _______ _____ _____    ______ ____

>  <TORSDO>
F 15

$$$$
