=
 OpenBabel11042420233D

 36 39  0  0  1  0  0  0  0  0999 V2000
  160.4010  209.8210  154.4920 C   0  0  0  0  0  0  0  0  0  0  0  0
  160.7440  209.1450  153.3180 C   0  0  0  0  0  3  0  0  0  0  0  0
  160.9280  207.1010  154.5950 C   0  0  0  0  0  3  0  0  0  0  0  0
  160.3330  209.1460  155.6720 N   0  0  0  0  0  0  0  0  0  0  0  0
  160.5840  207.8120  155.7460 C   0  0  0  0  0  3  0  0  0  0  0  0
  161.0090  207.7670  153.3610 C   0  0  0  0  0  0  0  0  0  0  0  0
  161.6120  207.7890  150.9150 C   0  0  0  0  0  2  0  0  0  0  0  0
  161.3720  207.0550  152.1640 N   0  0  0  0  0  0  0  0  0  0  0  0
  160.8030  204.9290  151.0490 C   0  0  0  0  0  2  0  0  0  0  0  0
  161.8880  206.8410  149.7490 C   0  0  0  0  0  2  0  0  0  0  0  0
  160.8450  205.7260  149.7380 C   0  0  1  0  0  3  0  0  0  0  0  0
  161.5560  205.6020  152.1980 C   0  0  0  0  0  2  0  0  0  0  0  0
  161.6160  205.0260  144.8580 C   0  0  0  0  0  1  0  0  0  0  0  0
  161.4100  204.4840  146.2280 C   0  0  0  0  0  0  0  0  0  0  0  0
  161.0430  204.8160  148.5720 C   0  0  0  0  0  0  0  0  0  0  0  0
  161.2100  202.6290  147.6810 C   0  0  0  0  0  0  0  0  0  0  0  0
  161.3940  203.1410  146.4350 N   0  0  0  0  0  0  0  0  0  0  0  0
  161.1860  201.2220  147.8740 N   0  0  0  0  0  1  0  0  0  0  0  0
  161.2320  205.3580  147.3010 C   0  0  0  0  0  3  0  0  0  0  0  0
  161.0310  203.4640  148.7380 N   0  0  0  0  0  0  0  0  0  0  0  0
  160.1720  211.2910  154.4590 C   0  0  0  0  0  2  0  0  0  0  0  0
  158.4090  212.3420  152.9420 N   0  0  0  0  0  0  0  0  0  0  0  0
  158.4370  213.0120  154.2500 C   0  0  0  0  0  2  0  0  0  0  0  0
  158.6910  211.5760  154.1880 C   0  0  2  0  0  3  0  0  0  0  0  0
  159.6060  212.7890  152.2280 C   0  0  0  0  0  2  0  0  0  0  0  0
  159.3330  214.1090  151.5200 C   0  0  0  0  0  2  0  0  0  0  0  0
  159.9430  214.1200  150.1260 C   0  0  0  0  0  2  0  0  0  0  0  0
  160.8280  212.8960  149.9240 C   0  0  0  0  0  2  0  0  0  0  0  0
  161.1410  212.6350  148.4510 C   0  0  2  0  0  3  0  0  0  0  0  0
  163.4400  212.2790  147.9310 O   0  0  0  0  0  0  0  0  0  0  0  0
  162.3480  211.7670  148.2890 C   0  0  0  0  0  0  0  0  0  0  0  0
  162.2720  210.3970  148.5160 O   0  0  0  0  0  1  0  0  0  0  0  0
  161.2720  213.9180  147.6250 C   0  0  0  0  0  2  0  0  0  0  0  0
  159.0710  213.4870  146.7420 O   0  0  0  0  0  1  0  0  0  0  0  0
  160.3440  213.9530  146.4120 C   0  0  2  0  0  3  0  0  0  0  0  0
  160.9110  213.1540  145.2520 C   0  0  0  0  0  1  0  0  0  0  0  0
  1  4  1  0  0  0  0
  2  6  1  0  0  0  0
  2  1  2  0  0  0  0
  3  5  1  0  0  0  0
  4  5  2  0  0  0  0
  6  3  2  0  0  0  0
  7  8  1  0  0  0  0
  8 12  1  0  0  0  0
  8  6  1  0  0  0  0
  9 12  1  0  0  0  0
 10  7  1  0  0  0  0
 11 15  1  6  0  0  0
 11 10  1  0  0  0  0
 11  9  1  0  0  0  0
 13 14  1  0  0  0  0
 14 17  1  0  0  0  0
 14 19  2  0  0  0  0
 15 20  2  0  0  0  0
 16 18  1  0  0  0  0
 16 20  1  0  0  0  0
 17 16  2  0  0  0  0
 19 15  1  0  0  0  0
 21  1  1  0  0  0  0
 22 24  1  0  0  0  0
 22 23  1  0  0  0  0
 24 23  1  0  0  0  0
 24 21  1  6  0  0  0
 25 22  1  0  0  0  0
 26 25  1  0  0  0  0
 27 26  1  0  0  0  0
 28 27  1  0  0  0  0
 29 33  1  6  0  0  0
 29 28  1  0  0  0  0
 30 31  2  0  0  0  0
 31 29  1  0  0  0  0
 31 32  1  0  0  0  0
 35 36  1  6  0  0  0
 35 34  1  0  0  0  0
 35 33  1  0  0  0  0
M  END
>  <MODEL>
1

>  <REMARK>
 VINA RESULT:      -7.6      0.000      0.000
  Name = 
  12 active torsions:
  status: ('A' for Active; 'I' for Inactive)
    1  A    between atoms: C_4  and  C_27
    2  A    between atoms: N_5  and  C_25
    3  A    between atoms: C_6  and  C_17
    4  A    between atoms: C_6  and  C_30
    5  A    between atoms: C_9  and  N_10
    6  A    between atoms: C_9  and  C_30
    7  A    between atoms: C_11  and  C_29
    8  A    between atoms: C_17  and  C_36
    9  A    between atoms: C_18  and  C_22
   10  A    between atoms: C_19  and  C_36
   11  A    between atoms: C_22  and  C_36
   12  A    between atoms: C_27  and  C_31
                            x       y       z     vdW  Elec       q    Type
                         _______ _______ _______ _____ _____    ______ ____

>  <TORSDO>
F 12

$$$$
=
 OpenBabel11042420233D

 36 39  0  0  1  0  0  0  0  0999 V2000
  161.6490  211.3570  149.0390 C   0  0  0  0  0  0  0  0  0  0  0  0
  161.6440  211.5560  147.6560 C   0  0  0  0  0  3  0  0  0  0  0  0
  160.7350  213.7660  148.0170 C   0  0  0  0  0  3  0  0  0  0  0  0
  161.2030  212.3370  149.8710 N   0  0  0  0  0  0  0  0  0  0  0  0
  160.7530  213.5280  149.3930 C   0  0  0  0  0  3  0  0  0  0  0  0
  161.1870  212.7750  147.1310 C   0  0  0  0  0  0  0  0  0  0  0  0
  160.0730  212.4540  144.8950 C   0  0  0  0  0  2  0  0  0  0  0  0
  161.1670  212.9960  145.7080 N   0  0  0  0  0  0  0  0  0  0  0  0
  162.7800  213.0990  143.8450 C   0  0  0  0  0  2  0  0  0  0  0  0
  160.2930  212.7170  143.4060 C   0  0  0  0  0  2  0  0  0  0  0  0
  161.7240  212.3430  143.0270 C   0  0  1  0  0  3  0  0  0  0  0  0
  162.2080  213.8080  145.0750 C   0  0  0  0  0  2  0  0  0  0  0  0
  164.2230  214.4530  139.2580 C   0  0  0  0  0  1  0  0  0  0  0  0
  163.1580  213.5430  139.7580 C   0  0  0  0  0  0  0  0  0  0  0  0
  161.9570  212.5250  141.5640 C   0  0  0  0  0  0  0  0  0  0  0  0
  161.3970  212.0260  139.3180 C   0  0  0  0  0  0  0  0  0  0  0  0
  162.3730  212.8650  138.8790 N   0  0  0  0  0  0  0  0  0  0  0  0
  160.5810  211.3350  138.3830 N   0  0  0  0  0  1  0  0  0  0  0  0
  162.9640  213.3870  141.1300 C   0  0  0  0  0  3  0  0  0  0  0  0
  161.1900  211.8650  140.6520 N   0  0  0  0  0  0  0  0  0  0  0  0
  162.0830  210.0470  149.5960 C   0  0  0  0  0  2  0  0  0  0  0  0
  161.2710  207.6680  149.1520 N   0  0  0  0  0  0  0  0  0  0  0  0
  162.6950  207.8050  148.8140 C   0  0  0  0  0  2  0  0  0  0  0  0
  161.8030  208.9360  148.5790 C   0  0  2  0  0  3  0  0  0  0  0  0
  161.1990  207.6550  150.6150 C   0  0  0  0  0  2  0  0  0  0  0  0
  161.3650  206.2340  151.1350 C   0  0  0  0  0  2  0  0  0  0  0  0
  160.5190  205.2540  150.3350 C   0  0  0  0  0  2  0  0  0  0  0  0
  161.3370  204.0220  149.9690 C   0  0  0  0  0  2  0  0  0  0  0  0
  161.0200  203.5020  148.5660 C   0  0  2  0  0  3  0  0  0  0  0  0
  160.8430  201.3990  147.4600 O   0  0  0  0  0  0  0  0  0  0  0  0
  160.8450  202.0170  148.5550 C   0  0  0  0  0  0  0  0  0  0  0  0
  160.6680  201.3160  149.7430 O   0  0  0  0  0  1  0  0  0  0  0  0
  162.0420  203.9440  147.5140 C   0  0  0  0  0  2  0  0  0  0  0  0
  161.2300  203.6860  145.2590 O   0  0  0  0  0  1  0  0  0  0  0  0
  161.4040  204.6050  146.2940 C   0  0  2  0  0  3  0  0  0  0  0  0
  162.2210  205.7910  145.8120 C   0  0  0  0  0  1  0  0  0  0  0  0
  1 21  1  0  0  0  0
  1  4  1  0  0  0  0
  2  1  2  0  0  0  0
  3  5  1  0  0  0  0
  5  4  2  0  0  0  0
  6  2  1  0  0  0  0
  6  3  2  0  0  0  0
  7  8  1  0  0  0  0
  8  6  1  0  0  0  0
  9 12  1  0  0  0  0
 10  7  1  0  0  0  0
 11 15  1  6  0  0  0
 11 10  1  0  0  0  0
 11  9  1  0  0  0  0
 12  8  1  0  0  0  0
 13 14  1  0  0  0  0
 14 19  2  0  0  0  0
 16 20  1  0  0  0  0
 17 16  2  0  0  0  0
 17 14  1  0  0  0  0
 18 16  1  0  0  0  0
 19 15  1  0  0  0  0
 20 15  2  0  0  0  0
 22 25  1  0  0  0  0
 23 22  1  0  0  0  0
 24 23  1  0  0  0  0
 24 22  1  0  0  0  0
 24 21  1  1  0  0  0
 25 26  1  0  0  0  0
 27 26  1  0  0  0  0
 28 27  1  0  0  0  0
 29 33  1  6  0  0  0
 29 28  1  0  0  0  0
 30 31  2  0  0  0  0
 31 29  1  0  0  0  0
 31 32  1  0  0  0  0
 34 35  1  0  0  0  0
 35 36  1  6  0  0  0
 35 33  1  0  0  0  0
M  END
>  <MODEL>
2

>  <REMARK>
 VINA RESULT:      -7.1      5.042      9.410
  Name = 
  12 active torsions:
  status: ('A' for Active; 'I' for Inactive)
    1  A    between atoms: C_4  and  C_27
    2  A    between atoms: N_5  and  C_25
    3  A    between atoms: C_6  and  C_17
    4  A    between atoms: C_6  and  C_30
    5  A    between atoms: C_9  and  N_10
    6  A    between atoms: C_9  and  C_30
    7  A    between atoms: C_11  and  C_29
    8  A    between atoms: C_17  and  C_36
    9  A    between atoms: C_18  and  C_22
   10  A    between atoms: C_19  and  C_36
   11  A    between atoms: C_22  and  C_36
   12  A    between atoms: C_27  and  C_31
                            x       y       z     vdW  Elec       q    Type
                         _______ _______ _______ _____ _____    ______ ____

>  <TORSDO>
F 12

$$$$
=
 OpenBabel11042420233D

 36 39  0  0  1  0  0  0  0  0999 V2000
  159.6300  211.3060  153.2630 C   0  0  0  0  0  0  0  0  0  0  0  0
  159.9770  210.2900  152.3670 C   0  0  0  0  0  3  0  0  0  0  0  0
  161.8790  209.7640  153.7630 C   0  0  0  0  0  3  0  0  0  0  0  0
  160.3950  211.5350  154.3640 N   0  0  0  0  0  0  0  0  0  0  0  0
  161.5010  210.7900  154.6320 C   0  0  0  0  0  3  0  0  0  0  0  0
  161.1120  209.5030  152.6160 C   0  0  0  0  0  0  0  0  0  0  0  0
  161.8130  208.7810  150.3070 C   0  0  0  0  0  2  0  0  0  0  0  0
  161.4900  208.4580  151.7010 N   0  0  0  0  0  0  0  0  0  0  0  0
  160.8720  206.1160  151.2330 C   0  0  0  0  0  2  0  0  0  0  0  0
  162.0930  207.5240  149.4860 C   0  0  0  0  0  2  0  0  0  0  0  0
  161.0020  206.4880  149.7490 C   0  0  1  0  0  3  0  0  0  0  0  0
  161.6080  207.0750  152.1710 C   0  0  0  0  0  2  0  0  0  0  0  0
  160.7070  201.5440  149.1390 C   0  0  0  0  0  1  0  0  0  0  0  0
  161.0650  202.8940  148.6270 C   0  0  0  0  0  0  0  0  0  0  0  0
  161.2050  205.2680  148.9150 C   0  0  0  0  0  0  0  0  0  0  0  0
  161.9230  204.2590  146.8960 C   0  0  0  0  0  0  0  0  0  0  0  0
  161.5930  203.0330  147.3820 N   0  0  0  0  0  0  0  0  0  0  0  0
  162.4830  204.3810  145.5960 N   0  0  0  0  0  1  0  0  0  0  0  0
  160.8590  204.0180  149.4260 C   0  0  0  0  0  3  0  0  0  0  0  0
  161.7340  205.3660  147.6620 N   0  0  0  0  0  0  0  0  0  0  0  0
  158.4570  212.1760  152.9750 C   0  0  0  0  0  2  0  0  0  0  0  0
  158.3680  214.2810  151.5340 N   0  0  0  0  0  0  0  0  0  0  0  0
  159.7150  213.6940  151.5160 C   0  0  0  0  0  2  0  0  0  0  0  0
  158.9280  213.6150  152.7430 C   0  0  2  0  0  3  0  0  0  0  0  0
  157.5330  213.4110  150.7030 C   0  0  0  0  0  2  0  0  0  0  0  0
  156.8130  214.2320  149.6420 C   0  0  0  0  0  2  0  0  0  0  0  0
  157.6970  214.4490  148.4230 C   0  0  0  0  0  2  0  0  0  0  0  0
  158.0790  213.1130  147.8000 C   0  0  0  0  0  2  0  0  0  0  0  0
  159.2700  213.2280  146.8480 C   0  0  2  0  0  3  0  0  0  0  0  0
  157.6600  213.5300  145.1170 O   0  0  0  0  0  1  0  0  0  0  0  0
  158.8370  213.2020  145.4170 C   0  0  0  0  0  0  0  0  0  0  0  0
  159.7180  212.8060  144.4170 O   0  0  0  0  0  0  0  0  0  0  0  0
  160.3570  212.1810  147.1130 C   0  0  0  0  0  2  0  0  0  0  0  0
  162.0360  212.3780  148.8310 O   0  0  0  0  0  1  0  0  0  0  0  0
  161.6890  212.7900  147.5440 C   0  0  2  0  0  3  0  0  0  0  0  0
  161.6610  214.3060  147.4690 C   0  0  0  0  0  1  0  0  0  0  0  0
  1  4  1  0  0  0  0
  2  6  1  0  0  0  0
  2  1  2  0  0  0  0
  3  5  1  0  0  0  0
  4  5  2  0  0  0  0
  6  3  2  0  0  0  0
  7  8  1  0  0  0  0
  8 12  1  0  0  0  0
  8  6  1  0  0  0  0
  9 12  1  0  0  0  0
 10 11  1  0  0  0  0
 10  7  1  0  0  0  0
 11 15  1  6  0  0  0
 11  9  1  0  0  0  0
 14 13  1  0  0  0  0
 14 19  2  0  0  0  0
 15 19  1  0  0  0  0
 16 17  2  0  0  0  0
 16 20  1  0  0  0  0
 17 14  1  0  0  0  0
 18 16  1  0  0  0  0
 20 15  2  0  0  0  0
 21  1  1  0  0  0  0
 22 24  1  0  0  0  0
 23 22  1  0  0  0  0
 23 24  1  0  0  0  0
 24 21  1  6  0  0  0
 25 22  1  0  0  0  0
 26 25  1  0  0  0  0
 27 26  1  0  0  0  0
 28 27  1  0  0  0  0
 29 33  1  6  0  0  0
 29 28  1  0  0  0  0
 30 31  1  0  0  0  0
 31 29  1  0  0  0  0
 32 31  2  0  0  0  0
 33 35  1  0  0  0  0
 35 36  1  1  0  0  0
 35 34  1  0  0  0  0
M  END
>  <MODEL>
3

>  <REMARK>
 VINA RESULT:      -7.0      1.698      2.958
  Name = 
  12 active torsions:
  status: ('A' for Active; 'I' for Inactive)
    1  A    between atoms: C_4  and  C_27
    2  A    between atoms: N_5  and  C_25
    3  A    between atoms: C_6  and  C_17
    4  A    between atoms: C_6  and  C_30
    5  A    between atoms: C_9  and  N_10
    6  A    between atoms: C_9  and  C_30
    7  A    between atoms: C_11  and  C_29
    8  A    between atoms: C_17  and  C_36
    9  A    between atoms: C_18  and  C_22
   10  A    between atoms: C_19  and  C_36
   11  A    between atoms: C_22  and  C_36
   12  A    between atoms: C_27  and  C_31
                            x       y       z     vdW  Elec       q    Type
                         _______ _______ _______ _____ _____    ______ ____

>  <TORSDO>
F 12

$$$$
=
 OpenBabel11042420233D

 36 39  0  0  1  0  0  0  0  0999 V2000
  158.5300  212.1320  153.1770 C   0  0  0  0  0  0  0  0  0  0  0  0
  158.8970  212.3520  151.8470 C   0  0  0  0  0  3  0  0  0  0  0  0
  157.1630  214.0290  151.6880 C   0  0  0  0  0  3  0  0  0  0  0  0
  157.5080  212.8410  153.7290 N   0  0  0  0  0  0  0  0  0  0  0  0
  156.8250  213.7780  153.0190 C   0  0  0  0  0  3  0  0  0  0  0  0
  158.2120  213.3130  151.0870 C   0  0  0  0  0  0  0  0  0  0  0  0
  157.5870  213.3190  148.6470 C   0  0  0  0  0  2  0  0  0  0  0  0
  158.5690  213.5480  149.7130 N   0  0  0  0  0  0  0  0  0  0  0  0
  160.5340  213.2510  148.2510 C   0  0  0  0  0  2  0  0  0  0  0  0
  158.1960  213.5340  147.2630 C   0  0  0  0  0  2  0  0  0  0  0  0
  159.5350  212.8040  147.1740 C   0  0  1  0  0  3  0  0  0  0  0  0
  159.8960  214.0690  149.3750 C   0  0  0  0  0  2  0  0  0  0  0  0
  159.0200  213.1000  142.2200 C   0  0  0  0  0  1  0  0  0  0  0  0
  159.8790  213.0760  143.4340 C   0  0  0  0  0  0  0  0  0  0  0  0
  160.1300  212.9370  145.8130 C   0  0  0  0  0  0  0  0  0  0  0  0
  162.0300  213.1510  144.4150 C   0  0  0  0  0  0  0  0  0  0  0  0
  161.2300  213.1680  143.3160 N   0  0  0  0  0  0  0  0  0  0  0  0
  163.4400  213.2380  144.2690 N   0  0  0  0  0  1  0  0  0  0  0  0
  159.2950  212.9560  144.6950 C   0  0  0  0  0  3  0  0  0  0  0  0
  161.4800  213.0310  145.6520 N   0  0  0  0  0  0  0  0  0  0  0  0
  159.2190  211.0760  153.9690 C   0  0  0  0  0  2  0  0  0  0  0  0
  161.5790  210.1120  154.0800 N   0  0  0  0  0  0  0  0  0  0  0  0
  161.3070  210.9600  155.2500 C   0  0  0  0  0  2  0  0  0  0  0  0
  160.7300  211.3300  153.9610 C   0  0  2  0  0  3  0  0  0  0  0  0
  160.8270  208.8740  154.2900 C   0  0  0  0  0  2  0  0  0  0  0  0
  161.5120  207.7160  153.5780 C   0  0  0  0  0  2  0  0  0  0  0  0
  160.7610  207.3290  152.3120 C   0  0  0  0  0  2  0  0  0  0  0  0
  161.3560  208.0400  151.1030 C   0  0  0  0  0  2  0  0  0  0  0  0
  161.7500  207.0710  149.9880 C   0  0  2  0  0  3  0  0  0  0  0  0
  162.4440  207.1410  147.7090 O   0  0  0  0  0  0  0  0  0  0  0  0
  162.1150  207.7960  148.7310 C   0  0  0  0  0  0  0  0  0  0  0  0
  162.1090  209.1860  148.6870 O   0  0  0  0  0  1  0  0  0  0  0  0
  160.6910  206.0000  149.7170 C   0  0  0  0  0  2  0  0  0  0  0  0
  161.0440  203.8770  148.6320 O   0  0  0  0  0  1  0  0  0  0  0  0
  161.2310  204.5750  149.8250 C   0  0  2  0  0  3  0  0  0  0  0  0
  160.5950  203.8220  150.9790 C   0  0  0  0  0  1  0  0  0  0  0  0
  1  4  1  0  0  0  0
  1 21  1  0  0  0  0
  2  1  2  0  0  0  0
  3  5  1  0  0  0  0
  5  4  2  0  0  0  0
  6  3  2  0  0  0  0
  6  2  1  0  0  0  0
  7  8  1  0  0  0  0
  8  6  1  0  0  0  0
  9 12  1  0  0  0  0
 10  7  1  0  0  0  0
 11 15  1  6  0  0  0
 11 10  1  0  0  0  0
 11  9  1  0  0  0  0
 12  8  1  0  0  0  0
 13 14  1  0  0  0  0
 14 19  2  0  0  0  0
 16 20  1  0  0  0  0
 17 14  1  0  0  0  0
 17 16  2  0  0  0  0
 18 16  1  0  0  0  0
 19 15  1  0  0  0  0
 20 15  2  0  0  0  0
 22 25  1  0  0  0  0
 22 23  1  0  0  0  0
 24 21  1  1  0  0  0
 24 22  1  0  0  0  0
 24 23  1  0  0  0  0
 26 25  1  0  0  0  0
 27 26  1  0  0  0  0
 28 27  1  0  0  0  0
 29 33  1  6  0  0  0
 29 28  1  0  0  0  0
 30 31  2  0  0  0  0
 31 29  1  0  0  0  0
 32 31  1  0  0  0  0
 33 35  1  0  0  0  0
 34 35  1  0  0  0  0
 35 36  1  1  0  0  0
M  END
>  <MODEL>
4

>  <REMARK>
 VINA RESULT:      -6.9      3.489      7.573
  Name = 
  12 active torsions:
  status: ('A' for Active; 'I' for Inactive)
    1  A    between atoms: C_4  and  C_27
    2  A    between atoms: N_5  and  C_25
    3  A    between atoms: C_6  and  C_17
    4  A    between atoms: C_6  and  C_30
    5  A    between atoms: C_9  and  N_10
    6  A    between atoms: C_9  and  C_30
    7  A    between atoms: C_11  and  C_29
    8  A    between atoms: C_17  and  C_36
    9  A    between atoms: C_18  and  C_22
   10  A    between atoms: C_19  and  C_36
   11  A    between atoms: C_22  and  C_36
   12  A    between atoms: C_27  and  C_31
                            x       y       z     vdW  Elec       q    Type
                         _______ _______ _______ _____ _____    ______ ____

>  <TORSDO>
F 12

$$$$
=
 OpenBabel11042420233D

 36 39  0  0  1  0  0  0  0  0999 V2000
  160.9850  204.1580  149.0870 C   0  0  0  0  0  0  0  0  0  0  0  0
  161.1820  205.2090  149.9880 C   0  0  0  0  0  3  0  0  0  0  0  0
  161.1100  203.6140  151.8030 C   0  0  0  0  0  3  0  0  0  0  0  0
  160.8510  202.8840  149.5450 N   0  0  0  0  0  0  0  0  0  0  0  0
  160.9120  202.5920  150.8710 C   0  0  0  0  0  3  0  0  0  0  0  0
  161.2500  204.9400  151.3640 C   0  0  0  0  0  0  0  0  0  0  0  0
  161.0930  205.8180  153.7200 C   0  0  0  0  0  2  0  0  0  0  0  0
  161.4440  206.0100  152.3080 N   0  0  0  0  0  0  0  0  0  0  0  0
  161.2190  208.4660  152.3700 C   0  0  0  0  0  2  0  0  0  0  0  0
  161.2840  207.1000  154.5280 C   0  0  0  0  0  2  0  0  0  0  0  0
  160.6500  208.2730  153.7830 C   0  0  1  0  0  3  0  0  0  0  0  0
  162.0430  207.2750  151.8750 C   0  0  0  0  0  2  0  0  0  0  0  0
  158.9500  212.8090  154.9800 C   0  0  0  0  0  1  0  0  0  0  0  0
  159.9420  211.7130  155.1430 C   0  0  0  0  0  0  0  0  0  0  0  0
  160.7590  209.5340  154.5730 C   0  0  0  0  0  0  0  0  0  0  0  0
  161.8860  210.8570  156.1820 C   0  0  0  0  0  0  0  0  0  0  0  0
  160.9730  211.8500  156.0180 N   0  0  0  0  0  0  0  0  0  0  0  0
  162.9620  211.0250  157.0940 N   0  0  0  0  0  1  0  0  0  0  0  0
  159.8130  210.5420  154.3950 C   0  0  0  0  0  3  0  0  0  0  0  0
  161.7800  209.7110  155.4590 N   0  0  0  0  0  0  0  0  0  0  0  0
  160.8590  204.4460  147.6320 C   0  0  0  0  0  2  0  0  0  0  0  0
  162.7220  206.0680  146.9890 N   0  0  0  0  0  0  0  0  0  0  0  0
  162.1490  205.4320  145.7940 C   0  0  0  0  0  2  0  0  0  0  0  0
  162.2500  204.6550  147.0260 C   0  0  2  0  0  3  0  0  0  0  0  0
  161.7310  207.0430  147.4480 C   0  0  0  0  0  2  0  0  0  0  0  0
  162.4060  208.1270  148.2770 C   0  0  0  0  0  2  0  0  0  0  0  0
  161.5090  209.3480  148.4180 C   0  0  0  0  0  2  0  0  0  0  0  0
  162.3040  210.5320  148.9520 C   0  0  0  0  0  2  0  0  0  0  0  0
  161.8880  211.8570  148.3100 C   0  0  2  0  0  3  0  0  0  0  0  0
  164.1800  212.0790  147.6970 O   0  0  0  0  0  1  0  0  0  0  0  0
  163.0740  212.6540  147.8700 C   0  0  0  0  0  0  0  0  0  0  0  0
  162.9710  214.0250  147.6660 O   0  0  0  0  0  0  0  0  0  0  0  0
  160.9630  212.6930  149.1990 C   0  0  0  0  0  2  0  0  0  0  0  0
  158.7150  213.5620  149.2060 O   0  0  0  0  0  1  0  0  0  0  0  0
  159.8560  213.4020  148.4210 C   0  0  2  0  0  3  0  0  0  0  0  0
  159.5140  212.6640  147.1390 C   0  0  0  0  0  1  0  0  0  0  0  0
  1  4  2  0  0  0  0
  1  2  1  0  0  0  0
  2  6  2  0  0  0  0
  4  5  1  0  0  0  0
  5  3  2  0  0  0  0
  6  3  1  0  0  0  0
  6  8  1  0  0  0  0
  7 10  1  0  0  0  0
  8  7  1  0  0  0  0
  9 11  1  0  0  0  0
 11 10  1  0  0  0  0
 11 15  1  1  0  0  0
 12  8  1  0  0  0  0
 12  9  1  0  0  0  0
 13 14  1  0  0  0  0
 14 17  1  0  0  0  0
 15 20  2  0  0  0  0
 16 18  1  0  0  0  0
 17 16  2  0  0  0  0
 19 15  1  0  0  0  0
 19 14  2  0  0  0  0
 20 16  1  0  0  0  0
 21  1  1  0  0  0  0
 22 24  1  0  0  0  0
 22 25  1  0  0  0  0
 23 22  1  0  0  0  0
 23 24  1  0  0  0  0
 24 21  1  1  0  0  0
 25 26  1  0  0  0  0
 26 27  1  0  0  0  0
 27 28  1  0  0  0  0
 29 28  1  1  0  0  0
 29 33  1  0  0  0  0
 30 31  1  0  0  0  0
 31 29  1  0  0  0  0
 32 31  2  0  0  0  0
 35 36  1  6  0  0  0
 35 33  1  0  0  0  0
 35 34  1  0  0  0  0
M  END
>  <MODEL>
5

>  <REMARK>
 VINA RESULT:      -6.8      1.729      7.412
  Name = 
  12 active torsions:
  status: ('A' for Active; 'I' for Inactive)
    1  A    between atoms: C_4  and  C_27
    2  A    between atoms: N_5  and  C_25
    3  A    between atoms: C_6  and  C_17
    4  A    between atoms: C_6  and  C_30
    5  A    between atoms: C_9  and  N_10
    6  A    between atoms: C_9  and  C_30
    7  A    between atoms: C_11  and  C_29
    8  A    between atoms: C_17  and  C_36
    9  A    between atoms: C_18  and  C_22
   10  A    between atoms: C_19  and  C_36
   11  A    between atoms: C_22  and  C_36
   12  A    between atoms: C_27  and  C_31
                            x       y       z     vdW  Elec       q    Type
                         _______ _______ _______ _____ _____    ______ ____

>  <TORSDO>
F 12

$$$$
=
 OpenBabel11042420233D

 36 39  0  0  1  0  0  0  0  0999 V2000
  161.2600  205.7130  150.5010 C   0  0  0  0  0  0  0  0  0  0  0  0
  161.1100  206.9390  151.1560 C   0  0  0  0  0  3  0  0  0  0  0  0
  161.3970  205.8000  153.2690 C   0  0  0  0  0  3  0  0  0  0  0  0
  161.4650  204.5760  151.2200 N   0  0  0  0  0  0  0  0  0  0  0  0
  161.5390  204.5950  152.5780 C   0  0  0  0  0  3  0  0  0  0  0  0
  161.1820  206.9910  152.5570 C   0  0  0  0  0  0  0  0  0  0  0  0
  160.8000  208.2570  154.7010 C   0  0  0  0  0  2  0  0  0  0  0  0
  161.0220  208.2430  153.2500 N   0  0  0  0  0  0  0  0  0  0  0  0
  159.9650  210.4370  152.8560 C   0  0  0  0  0  2  0  0  0  0  0  0
  160.5600  209.6740  155.2200 C   0  0  0  0  0  2  0  0  0  0  0  0
  159.5390  210.3790  154.3300 C   0  0  1  0  0  3  0  0  0  0  0  0
  161.1340  209.5080  152.5210 C   0  0  0  0  0  2  0  0  0  0  0  0
  156.6440  214.4430  154.3930 C   0  0  0  0  0  1  0  0  0  0  0  0
  157.8380  213.6950  154.8700 C   0  0  0  0  0  0  0  0  0  0  0  0
  159.2290  211.7440  154.8450 C   0  0  0  0  0  0  0  0  0  0  0  0
  159.7670  213.5850  156.2350 C   0  0  0  0  0  0  0  0  0  0  0  0
  158.6730  214.2550  155.7850 N   0  0  0  0  0  0  0  0  0  0  0  0
  160.6320  214.1930  157.1840 N   0  0  0  0  0  1  0  0  0  0  0  0
  158.1010  212.4180  154.3760 C   0  0  0  0  0  3  0  0  0  0  0  0
  160.0420  212.3410  155.7620 N   0  0  0  0  0  0  0  0  0  0  0  0
  161.1320  205.6460  149.0200 C   0  0  0  0  0  2  0  0  0  0  0  0
  161.4660  207.1310  146.9710 N   0  0  0  0  0  0  0  0  0  0  0  0
  162.5380  207.3480  147.9520 C   0  0  0  0  0  2  0  0  0  0  0  0
  161.1900  207.0600  148.4330 C   0  0  2  0  0  3  0  0  0  0  0  0
  161.7390  205.8340  146.3480 C   0  0  0  0  0  2  0  0  0  0  0  0
  160.8720  205.6540  145.1100 C   0  0  0  0  0  2  0  0  0  0  0  0
  160.4990  204.1920  144.9100 C   0  0  0  0  0  2  0  0  0  0  0  0
  161.6450  203.2870  145.3440 C   0  0  0  0  0  2  0  0  0  0  0  0
  161.1610  202.0470  146.0960 C   0  0  2  0  0  3  0  0  0  0  0  0
  159.1480  201.7780  144.8500 O   0  0  0  0  0  0  0  0  0  0  0  0
  160.2030  201.2430  145.2760 C   0  0  0  0  0  0  0  0  0  0  0  0
  160.4610  199.9070  144.9930 O   0  0  0  0  0  1  0  0  0  0  0  0
  160.5720  202.3690  147.4720 C   0  0  0  0  0  2  0  0  0  0  0  0
  161.5170  200.2900  148.2430 O   0  0  0  0  0  1  0  0  0  0  0  0
  161.2480  201.6080  148.6120 C   0  0  2  0  0  3  0  0  0  0  0  0
  160.4110  201.6390  149.8780 C   0  0  0  0  0  1  0  0  0  0  0  0
  1  2  2  0  0  0  0
  1  4  1  0  0  0  0
  2  6  1  0  0  0  0
  4  5  2  0  0  0  0
  5  3  1  0  0  0  0
  6  8  1  0  0  0  0
  6  3  2  0  0  0  0
  7 10  1  0  0  0  0
  8  7  1  0  0  0  0
  9 11  1  0  0  0  0
 11 15  1  1  0  0  0
 11 10  1  0  0  0  0
 12  9  1  0  0  0  0
 12  8  1  0  0  0  0
 13 14  1  0  0  0  0
 14 17  1  0  0  0  0
 15 20  2  0  0  0  0
 16 18  1  0  0  0  0
 17 16  2  0  0  0  0
 19 15  1  0  0  0  0
 19 14  2  0  0  0  0
 20 16  1  0  0  0  0
 21  1  1  0  0  0  0
 22 23  1  0  0  0  0
 22 24  1  0  0  0  0
 23 24  1  0  0  0  0
 24 21  1  6  0  0  0
 25 22  1  0  0  0  0
 26 25  1  0  0  0  0
 27 26  1  0  0  0  0
 27 28  1  0  0  0  0
 29 28  1  6  0  0  0
 29 33  1  0  0  0  0
 30 31  2  0  0  0  0
 31 29  1  0  0  0  0
 32 31  1  0  0  0  0
 33 35  1  0  0  0  0
 34 35  1  0  0  0  0
 35 36  1  1  0  0  0
M  END
>  <MODEL>
6

>  <REMARK>
 VINA RESULT:      -6.8      4.406      9.858
  Name = 
  12 active torsions:
  status: ('A' for Active; 'I' for Inactive)
    1  A    between atoms: C_4  and  C_27
    2  A    between atoms: N_5  and  C_25
    3  A    between atoms: C_6  and  C_17
    4  A    between atoms: C_6  and  C_30
    5  A    between atoms: C_9  and  N_10
    6  A    between atoms: C_9  and  C_30
    7  A    between atoms: C_11  and  C_29
    8  A    between atoms: C_17  and  C_36
    9  A    between atoms: C_18  and  C_22
   10  A    between atoms: C_19  and  C_36
   11  A    between atoms: C_22  and  C_36
   12  A    between atoms: C_27  and  C_31
                            x       y       z     vdW  Elec       q    Type
                         _______ _______ _______ _____ _____    ______ ____

>  <TORSDO>
F 12

$$$$
=
 OpenBabel11042420233D

 36 39  0  0  1  0  0  0  0  0999 V2000
  160.9830  204.0730  149.1590 C   0  0  0  0  0  0  0  0  0  0  0  0
  161.1770  205.1120  150.0740 C   0  0  0  0  0  3  0  0  0  0  0  0
  161.1390  203.4900  151.8650 C   0  0  0  0  0  3  0  0  0  0  0  0
  160.8670  202.7910  149.5990 N   0  0  0  0  0  0  0  0  0  0  0  0
  160.9430  202.4800  150.9210 C   0  0  0  0  0  3  0  0  0  0  0  0
  161.2610  204.8250  151.4450 C   0  0  0  0  0  0  0  0  0  0  0  0
  161.0470  205.6920  153.8000 C   0  0  0  0  0  2  0  0  0  0  0  0
  161.4530  205.8820  152.4030 N   0  0  0  0  0  0  0  0  0  0  0  0
  161.2980  208.3430  152.4740 C   0  0  0  0  0  2  0  0  0  0  0  0
  161.2470  206.9630  154.6230 C   0  0  0  0  0  2  0  0  0  0  0  0
  160.6750  208.1590  153.8650 C   0  0  1  0  0  3  0  0  0  0  0  0
  162.1030  207.1320  152.0000 C   0  0  0  0  0  2  0  0  0  0  0  0
  163.1260  210.9850  157.1670 C   0  0  0  0  0  1  0  0  0  0  0  0
  161.9720  210.7630  156.2560 C   0  0  0  0  0  0  0  0  0  0  0  0
  160.7930  209.4110  154.6680 C   0  0  0  0  0  0  0  0  0  0  0  0
  159.9380  211.5220  155.3160 C   0  0  0  0  0  0  0  0  0  0  0  0
  160.9980  211.7060  156.1470 N   0  0  0  0  0  0  0  0  0  0  0  0
  158.9260  212.5150  155.2250 N   0  0  0  0  0  1  0  0  0  0  0  0
  161.8880  209.5860  155.5130 C   0  0  0  0  0  3  0  0  0  0  0  0
  159.8370  210.3790  154.5870 N   0  0  0  0  0  0  0  0  0  0  0  0
  160.8400  204.3810  147.7100 C   0  0  0  0  0  2  0  0  0  0  0  0
  162.7460  205.9100  146.9740 N   0  0  0  0  0  0  0  0  0  0  0  0
  162.1300  205.2490  145.8140 C   0  0  0  0  0  2  0  0  0  0  0  0
  162.2270  204.5170  147.0730 C   0  0  2  0  0  3  0  0  0  0  0  0
  161.7970  206.9370  147.4090 C   0  0  0  0  0  2  0  0  0  0  0  0
  162.5050  207.9740  148.2690 C   0  0  0  0  0  2  0  0  0  0  0  0
  161.5770  209.1310  148.6080 C   0  0  0  0  0  2  0  0  0  0  0  0
  162.2390  210.0670  149.6110 C   0  0  0  0  0  2  0  0  0  0  0  0
  161.9800  211.5420  149.2980 C   0  0  2  0  0  3  0  0  0  0  0  0
  160.3330  213.1690  149.8640 O   0  0  0  0  0  0  0  0  0  0  0  0
  160.9440  212.1240  150.2060 C   0  0  0  0  0  0  0  0  0  0  0  0
  160.6620  211.5310  151.4320 O   0  0  0  0  0  1  0  0  0  0  0  0
  161.6290  211.7940  147.8290 C   0  0  0  0  0  2  0  0  0  0  0  0
  163.0140  213.7620  147.9690 O   0  0  0  0  0  1  0  0  0  0  0  0
  162.6130  212.7270  147.1250 C   0  0  2  0  0  3  0  0  0  0  0  0
  162.0270  213.2910  145.8430 C   0  0  0  0  0  1  0  0  0  0  0  0
  1  4  2  0  0  0  0
  1  2  1  0  0  0  0
  2  6  2  0  0  0  0
  4  5  1  0  0  0  0
  5  3  2  0  0  0  0
  6  3  1  0  0  0  0
  6  8  1  0  0  0  0
  7 10  1  0  0  0  0
  8  7  1  0  0  0  0
  9 11  1  0  0  0  0
 11 10  1  0  0  0  0
 11 15  1  1  0  0  0
 12  8  1  0  0  0  0
 12  9  1  0  0  0  0
 14 13  1  0  0  0  0
 15 19  1  0  0  0  0
 16 17  2  0  0  0  0
 17 14  1  0  0  0  0
 18 16  1  0  0  0  0
 19 14  2  0  0  0  0
 20 15  2  0  0  0  0
 20 16  1  0  0  0  0
 21  1  1  0  0  0  0
 22 24  1  0  0  0  0
 22 25  1  0  0  0  0
 23 22  1  0  0  0  0
 23 24  1  0  0  0  0
 24 21  1  1  0  0  0
 25 26  1  0  0  0  0
 26 27  1  0  0  0  0
 27 28  1  0  0  0  0
 29 33  1  6  0  0  0
 29 28  1  0  0  0  0
 29 31  1  0  0  0  0
 30 31  2  0  0  0  0
 31 32  1  0  0  0  0
 35 36  1  6  0  0  0
 35 33  1  0  0  0  0
 35 34  1  0  0  0  0
M  END
>  <MODEL>
7

>  <REMARK>
 VINA RESULT:      -6.8      1.874      7.553
  Name = 
  12 active torsions:
  status: ('A' for Active; 'I' for Inactive)
    1  A    between atoms: C_4  and  C_27
    2  A    between atoms: N_5  and  C_25
    3  A    between atoms: C_6  and  C_17
    4  A    between atoms: C_6  and  C_30
    5  A    between atoms: C_9  and  N_10
    6  A    between atoms: C_9  and  C_30
    7  A    between atoms: C_11  and  C_29
    8  A    between atoms: C_17  and  C_36
    9  A    between atoms: C_18  and  C_22
   10  A    between atoms: C_19  and  C_36
   11  A    between atoms: C_22  and  C_36
   12  A    between atoms: C_27  and  C_31
                            x       y       z     vdW  Elec       q    Type
                         _______ _______ _______ _____ _____    ______ ____

>  <TORSDO>
F 12

$$$$
=
 OpenBabel11042420233D

 36 39  0  0  1  0  0  0  0  0999 V2000
  158.7410  212.0140  153.3080 C   0  0  0  0  0  0  0  0  0  0  0  0
  159.0980  212.2620  151.9800 C   0  0  0  0  0  3  0  0  0  0  0  0
  157.4050  213.9850  151.8880 C   0  0  0  0  0  3  0  0  0  0  0  0
  157.7430  212.7330  153.8920 N   0  0  0  0  0  0  0  0  0  0  0  0
  157.0760  213.7060  153.2160 C   0  0  0  0  0  3  0  0  0  0  0  0
  158.4290  213.2610  151.2550 C   0  0  0  0  0  0  0  0  0  0  0  0
  157.7410  213.4930  148.8430 C   0  0  0  0  0  2  0  0  0  0  0  0
  158.7760  213.5250  149.8840 N   0  0  0  0  0  0  0  0  0  0  0  0
  160.6400  213.0500  148.3380 C   0  0  0  0  0  2  0  0  0  0  0  0
  158.3350  213.7040  147.4510 C   0  0  0  0  0  2  0  0  0  0  0  0
  159.5580  212.8070  147.2760 C   0  0  1  0  0  3  0  0  0  0  0  0
  160.1520  213.8810  149.5280 C   0  0  0  0  0  2  0  0  0  0  0  0
  163.4740  213.3590  144.2330 C   0  0  0  0  0  1  0  0  0  0  0  0
  162.0100  213.2050  144.4450 C   0  0  0  0  0  0  0  0  0  0  0  0
  160.1280  212.9370  145.9030 C   0  0  0  0  0  0  0  0  0  0  0  0
  159.8240  213.0430  143.5570 C   0  0  0  0  0  0  0  0  0  0  0  0
  161.1650  213.1870  143.3810 N   0  0  0  0  0  0  0  0  0  0  0  0
  158.9570  213.0370  142.4320 N   0  0  0  0  0  1  0  0  0  0  0  0
  161.5050  213.0800  145.7400 C   0  0  0  0  0  3  0  0  0  0  0  0
  159.3130  212.9250  144.8110 N   0  0  0  0  0  0  0  0  0  0  0  0
  159.4120  210.9210  154.0620 C   0  0  0  0  0  2  0  0  0  0  0  0
  161.4980  209.4590  153.8950 N   0  0  0  0  0  0  0  0  0  0  0  0
  161.7660  210.6600  154.6990 C   0  0  0  0  0  2  0  0  0  0  0  0
  160.8520  210.7600  153.5650 C   0  0  2  0  0  3  0  0  0  0  0  0
  160.6820  208.5800  154.7360 C   0  0  0  0  0  2  0  0  0  0  0  0
  160.7850  207.1420  154.2470 C   0  0  0  0  0  2  0  0  0  0  0  0
  161.1640  207.0900  152.7740 C   0  0  0  0  0  2  0  0  0  0  0  0
  161.2150  205.6460  152.2900 C   0  0  0  0  0  2  0  0  0  0  0  0
  160.9310  205.5180  150.7930 C   0  0  2  0  0  3  0  0  0  0  0  0
  160.9930  203.1740  151.2180 O   0  0  0  0  0  1  0  0  0  0  0  0
  160.8970  204.0880  150.3590 C   0  0  0  0  0  0  0  0  0  0  0  0
  160.7770  203.7580  149.0130 O   0  0  0  0  0  0  0  0  0  0  0  0
  161.8920  206.3350  149.9250 C   0  0  0  0  0  2  0  0  0  0  0  0
  161.0760  206.8420  147.7140 O   0  0  0  0  0  1  0  0  0  0  0  0
  161.1820  207.3350  149.0140 C   0  0  2  0  0  3  0  0  0  0  0  0
  161.8830  208.6810  149.0100 C   0  0  0  0  0  1  0  0  0  0  0  0
  1  4  1  0  0  0  0
  1 21  1  0  0  0  0
  2  1  2  0  0  0  0
  3  5  1  0  0  0  0
  5  4  2  0  0  0  0
  6  3  2  0  0  0  0
  6  2  1  0  0  0  0
  7  8  1  0  0  0  0
  8  6  1  0  0  0  0
  9 12  1  0  0  0  0
 10  7  1  0  0  0  0
 11 15  1  6  0  0  0
 11 10  1  0  0  0  0
 11  9  1  0  0  0  0
 12  8  1  0  0  0  0
 13 14  1  0  0  0  0
 14 19  2  0  0  0  0
 16 20  1  0  0  0  0
 17 16  2  0  0  0  0
 17 14  1  0  0  0  0
 18 16  1  0  0  0  0
 19 15  1  0  0  0  0
 20 15  2  0  0  0  0
 22 23  1  0  0  0  0
 22 25  1  0  0  0  0
 24 22  1  0  0  0  0
 24 21  1  1  0  0  0
 24 23  1  0  0  0  0
 26 25  1  0  0  0  0
 27 26  1  0  0  0  0
 28 27  1  0  0  0  0
 29 33  1  6  0  0  0
 29 28  1  0  0  0  0
 31 29  1  0  0  0  0
 31 30  1  0  0  0  0
 32 31  2  0  0  0  0
 34 35  1  0  0  0  0
 35 36  1  6  0  0  0
 35 33  1  0  0  0  0
M  END
>  <MODEL>
8

>  <REMARK>
 VINA RESULT:      -6.8      3.628      7.645
  Name = 
  12 active torsions:
  status: ('A' for Active; 'I' for Inactive)
    1  A    between atoms: C_4  and  C_27
    2  A    between atoms: N_5  and  C_25
    3  A    between atoms: C_6  and  C_17
    4  A    between atoms: C_6  and  C_30
    5  A    between atoms: C_9  and  N_10
    6  A    between atoms: C_9  and  C_30
    7  A    between atoms: C_11  and  C_29
    8  A    between atoms: C_17  and  C_36
    9  A    between atoms: C_18  and  C_22
   10  A    between atoms: C_19  and  C_36
   11  A    between atoms: C_22  and  C_36
   12  A    between atoms: C_27  and  C_31
                            x       y       z     vdW  Elec       q    Type
                         _______ _______ _______ _____ _____    ______ ____

>  <TORSDO>
F 12

$$$$
=
 OpenBabel11042420233D

 36 39  0  0  1  0  0  0  0  0999 V2000
  159.7670  209.6120  155.2180 C   0  0  0  0  0  0  0  0  0  0  0  0
  160.1080  209.0160  154.0010 C   0  0  0  0  0  3  0  0  0  0  0  0
  161.3480  207.3360  155.2180 C   0  0  0  0  0  3  0  0  0  0  0  0
  160.2140  209.0800  156.3880 N   0  0  0  0  0  0  0  0  0  0  0  0
  160.9880  207.9630  156.4130 C   0  0  0  0  0  3  0  0  0  0  0  0
  160.9050  207.8610  153.9930 C   0  0  0  0  0  0  0  0  0  0  0  0
  161.0920  207.9540  151.4830 C   0  0  0  0  0  2  0  0  0  0  0  0
  161.2740  207.2360  152.7500 N   0  0  0  0  0  0  0  0  0  0  0  0
  161.1940  204.9910  151.7290 C   0  0  0  0  0  2  0  0  0  0  0  0
  161.4530  207.0810  150.2830 C   0  0  0  0  0  2  0  0  0  0  0  0
  160.7960  205.7100  150.4320 C   0  0  1  0  0  3  0  0  0  0  0  0
  161.8820  205.9040  152.7470 C   0  0  0  0  0  2  0  0  0  0  0  0
  161.0670  201.2060  148.3020 C   0  0  0  0  0  1  0  0  0  0  0  0
  161.2050  202.6850  148.2260 C   0  0  0  0  0  0  0  0  0  0  0  0
  161.0730  204.8500  149.2440 C   0  0  0  0  0  0  0  0  0  0  0  0
  161.7200  204.6270  146.9780 C   0  0  0  0  0  0  0  0  0  0  0  0
  161.5930  203.2760  147.0650 N   0  0  0  0  0  0  0  0  0  0  0  0
  162.1380  205.2230  145.7580 N   0  0  0  0  0  1  0  0  0  0  0  0
  160.9350  203.4660  149.3500 C   0  0  0  0  0  3  0  0  0  0  0  0
  161.4660  205.4040  148.0630 N   0  0  0  0  0  0  0  0  0  0  0  0
  158.9660  210.8670  155.2270 C   0  0  0  0  0  2  0  0  0  0  0  0
  159.1890  213.0260  153.8850 N   0  0  0  0  0  0  0  0  0  0  0  0
  160.0820  211.9860  153.3530 C   0  0  0  0  0  2  0  0  0  0  0  0
  159.8450  212.0430  154.7920 C   0  0  2  0  0  3  0  0  0  0  0  0
  157.8350  212.6510  153.4720 C   0  0  0  0  0  2  0  0  0  0  0  0
  157.2100  213.7670  152.6470 C   0  0  0  0  0  2  0  0  0  0  0  0
  158.1760  214.2700  151.5840 C   0  0  0  0  0  2  0  0  0  0  0  0
  158.0720  213.4180  150.3260 C   0  0  0  0  0  2  0  0  0  0  0  0
  158.5900  214.1400  149.0820 C   0  0  2  0  0  3  0  0  0  0  0  0
  157.1790  212.6310  147.8950 O   0  0  0  0  0  1  0  0  0  0  0  0
  158.0640  213.5230  147.8260 C   0  0  0  0  0  0  0  0  0  0  0  0
  158.5540  213.9130  146.5850 O   0  0  0  0  0  0  0  0  0  0  0  0
  160.1170  214.2520  149.0420 C   0  0  0  0  0  2  0  0  0  0  0  0
  161.2270  212.2690  149.8460 O   0  0  0  0  0  1  0  0  0  0  0  0
  160.8100  212.9360  148.6940 C   0  0  2  0  0  3  0  0  0  0  0  0
  161.9850  213.1550  147.7580 C   0  0  0  0  0  1  0  0  0  0  0  0
  1 21  1  0  0  0  0
  1  4  1  0  0  0  0
  2  1  2  0  0  0  0
  3  5  1  0  0  0  0
  4  5  2  0  0  0  0
  6  2  1  0  0  0  0
  6  3  2  0  0  0  0
  7  8  1  0  0  0  0
  8  6  1  0  0  0  0
  9 12  1  0  0  0  0
 10 11  1  0  0  0  0
 10  7  1  0  0  0  0
 11 15  1  6  0  0  0
 11  9  1  0  0  0  0
 12  8  1  0  0  0  0
 14 13  1  0  0  0  0
 14 19  2  0  0  0  0
 15 19  1  0  0  0  0
 16 17  2  0  0  0  0
 16 20  1  0  0  0  0
 17 14  1  0  0  0  0
 18 16  1  0  0  0  0
 20 15  2  0  0  0  0
 22 24  1  0  0  0  0
 23 22  1  0  0  0  0
 23 24  1  0  0  0  0
 24 21  1  6  0  0  0
 25 22  1  0  0  0  0
 26 25  1  0  0  0  0
 27 26  1  0  0  0  0
 28 27  1  0  0  0  0
 29 33  1  6  0  0  0
 29 28  1  0  0  0  0
 31 30  1  0  0  0  0
 31 29  1  0  0  0  0
 32 31  2  0  0  0  0
 35 36  1  6  0  0  0
 35 33  1  0  0  0  0
 35 34  1  0  0  0  0
M  END
>  <MODEL>
9

>  <REMARK>
 VINA RESULT:      -6.7      1.357      2.626
  Name = 
  12 active torsions:
  status: ('A' for Active; 'I' for Inactive)
    1  A    between atoms: C_4  and  C_27
    2  A    between atoms: N_5  and  C_25
    3  A    between atoms: C_6  and  C_17
    4  A    between atoms: C_6  and  C_30
    5  A    between atoms: C_9  and  N_10
    6  A    between atoms: C_9  and  C_30
    7  A    between atoms: C_11  and  C_29
    8  A    between atoms: C_17  and  C_36
    9  A    between atoms: C_18  and  C_22
   10  A    between atoms: C_19  and  C_36
   11  A    between atoms: C_22  and  C_36
   12  A    between atoms: C_27  and  C_31
                            x       y       z     vdW  Elec       q    Type
                         _______ _______ _______ _____ _____    ______ ____

>  <TORSDO>
F 12

$$$$
