=
 OpenBabel11052410333D

 65 72  0  0  1  0  0  0  0  0999 V2000
  159.9320  213.4730  146.4440 C   0  0  2  0  0  3  0  0  0  0  0  0
  159.1020  214.3740  147.3500 C   0  0  0  0  0  2  0  0  0  0  0  0
  158.0580  213.5660  148.1020 C   0  0  0  0  0  2  0  0  0  0  0  0
  158.5600  213.2630  149.5000 C   0  0  0  0  0  2  0  0  0  0  0  0
  157.5430  213.6290  150.4760 N   0  0  0  0  0  2  0  0  0  0  0  0
  158.1660  213.7350  151.7900 C   0  0  1  0  0  0  0  0  0  0  0  0
  159.2080  212.7160  151.9490 N   0  0  0  0  0  2  0  0  0  0  0  0
  159.5570  214.1490  151.9050 C   0  0  0  0  0  2  0  0  0  0  0  0
  157.2930  213.7670  152.9620 N   0  0  0  0  0  0  0  0  0  0  0  0
  157.5850  213.2740  154.1290 C   0  0  0  0  0  0  0  0  0  0  0  0
  155.7360  212.3340  155.6770 N   0  0  0  0  0  0  0  0  0  0  0  0
  156.3890  214.4380  155.9690 C   0  0  0  0  0  3  0  0  0  0  0  0
  155.7800  210.9370  155.2810 C   0  0  0  0  0  1  0  0  0  0  0  0
  155.4130  214.0920  156.8950 O   0  0  0  0  0  0  0  0  0  0  0  0
  156.5990  213.3690  155.2270 C   0  0  0  0  0  0  0  0  0  0  0  0
  154.9860  212.7810  156.7730 N   0  0  0  0  0  2  0  0  0  0  0  0
  159.4570  212.9910  155.6330 N   0  0  0  0  0  1  0  0  0  0  0  0
  158.8860  212.5640  154.3680 C   0  0  0  0  0  2  0  0  0  0  0  0
  161.0020  212.7750  147.2720 C   0  0  0  0  0  2  0  0  0  0  0  0
  160.7190  211.2830  147.3540 C   0  0  0  0  0  2  0  0  0  0  0  0
  161.6010  209.3330  148.5410 C   0  0  0  0  0  0  0  0  0  0  0  0
  161.9620  210.0760  151.5360 C   0  0  0  0  0  0  0  0  0  0  0  0
  161.1590  208.6000  147.4830 F   0  0  0  0  0  0  0  0  0  0  0  0
  162.0720  208.8780  150.9730 C   0  0  0  0  0  3  0  0  0  0  0  0
  162.1780  211.3420  150.8280 C   0  0  0  0  0  3  0  0  0  0  0  0
  162.3140  208.6500  149.5830 N   0  0  0  0  0  0  0  0  0  0  0  0
  161.4270  210.6630  148.5200 C   0  0  0  0  0  0  0  0  0  0  0  0
  161.9510  211.5900  149.5400 C   0  0  0  0  0  3  0  0  0  0  0  0
  161.7620  210.1370  152.9560 C   0  0  0  0  0  0  0  0  0  0  0  0
  161.5920  210.1850  154.1500 C   0  0  0  0  0  0  0  0  0  0  0  0
  161.3920  210.2410  155.5020 O   0  0  0  0  0  0  0  0  0  0  0  0
  161.1370  209.0630  156.2520 C   0  0  0  0  0  2  0  0  0  0  0  0
  159.9930  208.2760  155.6360 C   0  0  0  0  0  1  0  0  0  0  0  0
  162.9940  207.4090  149.2470 C   0  0  0  0  0  2  0  0  0  0  0  0
  162.3990  206.8340  147.9650 C   0  0  0  0  0  2  0  0  0  0  0  0
  160.4010  205.6390  149.1700 C   0  0  0  0  0  2  0  0  0  0  0  0
  161.6770  204.8650  149.4900 C   0  0  0  0  0  2  0  0  0  0  0  0
  161.5340  205.5840  148.1670 C   0  0  0  0  0  0  0  0  0  0  0  0
  161.0670  204.0420  144.9500 N   0  0  0  0  0  0  0  0  0  0  0  0
  161.2610  203.3450  147.0500 N   0  0  0  0  0  0  0  0  0  0  0  0
  161.3280  202.4290  148.1820 C   0  0  0  0  0  2  0  0  0  0  0  0
  161.0550  201.5420  145.3720 C   0  0  0  0  0  2  0  0  0  0  0  0
  160.9360  199.3330  146.1470 C   0  0  0  0  0  1  0  0  0  0  0  0
  161.0820  202.9810  145.7760 C   0  0  0  0  0  0  0  0  0  0  0  0
  161.2050  205.1190  145.7190 N   0  0  0  0  0  0  0  0  0  0  0  0
  161.5750  201.0040  147.6620 C   0  0  0  0  0  2  0  0  0  0  0  0
  160.6860  200.7110  146.5280 N   0  0  0  0  0  0  0  0  0  0  0  0
  161.3030  204.6870  146.9940 C   0  0  0  0  0  0  0  0  0  0  0  0
  160.6140  214.2950  145.3610 C   0  0  0  0  0  2  0  0  0  0  0  0
  160.9820  213.4470  144.2390 N   0  0  0  0  0  2  0  0  0  0  0  0
  162.2410  214.4490  141.1630 O   0  0  0  0  0  1  0  0  0  0  0  0
  160.3890  212.9650  140.9100 C   0  0  2  0  0  3  0  0  0  0  0  0
  161.4470  213.5330  141.8510 C   0  0  2  0  0  3  0  0  0  0  0  0
  159.2960  214.3430  142.7470 C   0  0  0  0  0  2  0  0  0  0  0  0
  158.8080  212.8800  141.8050 S   0  0  0  0  0  0  0  0  0  0  0  0
  160.7790  214.2280  143.0290 C   0  0  1  0  0  3  0  0  0  0  0  0
  162.1980  210.0550  137.4930 C   0  0  0  0  0  1  0  0  0  0  0  0
  160.6410  211.3310  138.9640 N   0  0  0  0  0  0  0  0  0  0  0  0
  160.2860  211.6740  137.5530 C   0  0  0  0  0  0  0  0  0  0  0  0
  160.7490  210.3940  137.7970 C   0  0  0  0  0  0  0  0  0  0  0  0
  160.7760  211.6210  140.3540 C   0  0  0  0  0  0  0  0  0  0  0  0
  159.7540  209.2510  137.9100 C   0  0  0  0  0  1  0  0  0  0  0  0
  161.1460  210.7050  141.1350 O   0  0  0  0  0  0  0  0  0  0  0  0
  161.1490  212.6300  137.0120 O   0  0  0  0  0  1  0  0  0  0  0  0
  158.9160  211.8990  137.3980 O   0  0  0  0  0  1  0  0  0  0  0  0
  1 49  1  6  0  0  0
  1 19  1  0  0  0  0
  1  2  1  0  0  0  0
  2  3  1  0  0  0  0
  3  4  1  0  0  0  0
  4  5  1  0  0  0  0
  6  5  1  6  0  0  0
  6  8  1  0  0  0  0
  6  7  1  0  0  0  0
  6  9  1  0  0  0  0
  8  7  1  0  0  0  0
  9 10  2  0  0  0  0
 10 18  1  0  0  0  0
 10 15  1  0  0  0  0
 11 16  1  0  0  0  0
 12 14  1  0  0  0  0
 13 11  1  0  0  0  0
 15 11  1  0  0  0  0
 15 12  2  0  0  0  0
 16 14  1  0  0  0  0
 18 17  1  0  0  0  0
 19 20  1  0  0  0  0
 20 27  1  0  0  0  0
 21 26  1  0  0  0  0
 22 29  1  0  0  0  0
 23 21  1  0  0  0  0
 24 22  2  0  0  0  0
 25 22  1  0  0  0  0
 26 24  1  0  0  0  0
 27 21  2  0  0  0  0
 27 28  1  0  0  0  0
 28 25  2  0  0  0  0
 29 30  3  0  0  0  0
 30 31  1  0  0  0  0
 31 32  1  0  0  0  0
 33 32  1  0  0  0  0
 34 26  1  0  0  0  0
 35 38  1  0  0  0  0
 35 34  1  0  0  0  0
 36 37  1  0  0  0  0
 38 36  1  0  0  0  0
 38 37  1  0  0  0  0
 39 45  1  0  0  0  0
 39 44  2  0  0  0  0
 40 41  1  0  0  0  0
 42 44  1  0  0  0  0
 42 47  1  0  0  0  0
 43 47  1  0  0  0  0
 44 40  1  0  0  0  0
 45 48  2  0  0  0  0
 46 41  1  0  0  0  0
 47 46  1  0  0  0  0
 48 40  1  0  0  0  0
 48 38  1  0  0  0  0
 50 49  1  0  0  0  0
 52 61  1  1  0  0  0
 52 55  1  0  0  0  0
 52 53  1  0  0  0  0
 53 51  1  6  0  0  0
 53 56  1  0  0  0  0
 54 56  1  0  0  0  0
 55 54  1  0  0  0  0
 56 50  1  1  0  0  0
 57 60  1  0  0  0  0
 58 61  1  0  0  0  0
 59 60  1  0  0  0  0
 59 58  1  0  0  0  0
 60 62  1  0  0  0  0
 60 58  1  0  0  0  0
 61 63  2  0  0  0  0
 64 59  1  0  0  0  0
 65 59  1  0  0  0  0
M  END
>  <MODEL>
1

>  <REMARK>
 VINA RESULT:      -4.5      0.000      0.000
  Name = 
  22 active torsions:
  status: ('A' for Active; 'I' for Inactive)
    1  A    between atoms: C_2  and  C_36
    2  A    between atoms: C_8  and  C_9
    3  A    between atoms: C_10  and  O_32
    4  A    between atoms: C_11  and  C_27
    5  A    between atoms: C_11  and  C_48
    6  A    between atoms: C_12  and  C_33
    7  A    between atoms: C_12  and  C_50
    8  A    between atoms: C_14  and  C_43
    9  A    between atoms: C_14  and  C_52
   10  A    between atoms: C_18  and  C_21
   11  A    between atoms: C_18  and  N_54
   12  A    between atoms: N_20  and  C_29
   13  A    between atoms: C_21  and  C_50
   14  A    between atoms: C_21  and  C_52
   15  A    between atoms: C_27  and  C_62
   16  A    between atoms: C_29  and  N_58
   17  A    between atoms: O_32  and  C_40
   18  A    between atoms: C_33  and  N_58
   19  A    between atoms: N_39  and  C_48
   20  A    between atoms: C_42  and  N_54
   21  A    between atoms: C_46  and  C_57
   22  A    between atoms: C_57  and  C_60
                            x       y       z     vdW  Elec       q    Type
                         _______ _______ _______ _____ _____    ______ ____

>  <TORSDO>
F 22

$$$$
=
 OpenBabel11052410333D

 65 72  0  0  1  0  0  0  0  0999 V2000
  162.1690  207.9180  148.5790 C   0  0  2  0  0  3  0  0  0  0  0  0
  161.8770  207.5450  150.0280 C   0  0  0  0  0  2  0  0  0  0  0  0
  161.2370  206.1700  150.1100 C   0  0  0  0  0  2  0  0  0  0  0  0
  160.7230  205.9320  151.5170 C   0  0  0  0  0  2  0  0  0  0  0  0
  160.4760  207.2100  152.1710 N   0  0  0  0  0  2  0  0  0  0  0  0
  161.2270  207.2550  153.4190 C   0  0  1  0  0  0  0  0  0  0  0  0
  161.1660  205.9590  154.1030 N   0  0  0  0  0  2  0  0  0  0  0  0
  162.4430  206.4670  153.5660 C   0  0  0  0  0  2  0  0  0  0  0  0
  160.9440  208.3440  154.3510 N   0  0  0  0  0  0  0  0  0  0  0  0
  161.1770  209.6040  154.1260 C   0  0  0  0  0  0  0  0  0  0  0  0
  159.5460  210.9940  155.5770 N   0  0  0  0  0  0  0  0  0  0  0  0
  161.7300  211.2690  155.8840 C   0  0  0  0  0  3  0  0  0  0  0  0
  158.2930  210.3640  155.1990 C   0  0  0  0  0  1  0  0  0  0  0  0
  161.0050  212.0700  156.7580 O   0  0  0  0  0  0  0  0  0  0  0  0
  160.8490  210.6020  155.1670 C   0  0  0  0  0  0  0  0  0  0  0  0
  159.6350  211.9200  156.6250 N   0  0  0  0  0  2  0  0  0  0  0  0
  161.0500  211.1450  152.2670 N   0  0  0  0  0  1  0  0  0  0  0  0
  161.8190  210.0580  152.8470 C   0  0  0  0  0  2  0  0  0  0  0  0
  161.4460  209.2130  148.2380 C   0  0  0  0  0  2  0  0  0  0  0  0
  162.1650  210.4010  148.8590 C   0  0  0  0  0  2  0  0  0  0  0  0
  160.9010  212.2700  147.9090 C   0  0  0  0  0  0  0  0  0  0  0  0
  162.3320  213.2210  145.3210 C   0  0  0  0  0  0  0  0  0  0  0  0
  159.8590  211.8340  148.6700 F   0  0  0  0  0  0  0  0  0  0  0  0
  161.1430  213.5950  145.7820 C   0  0  0  0  0  3  0  0  0  0  0  0
  163.4210  212.7180  146.1640 C   0  0  0  0  0  3  0  0  0  0  0  0
  160.7200  213.4680  147.1410 N   0  0  0  0  0  0  0  0  0  0  0  0
  162.0670  211.6100  147.9790 C   0  0  0  0  0  0  0  0  0  0  0  0
  163.3060  212.0320  147.2990 C   0  0  0  0  0  3  0  0  0  0  0  0
  162.6220  213.4580  143.9350 C   0  0  0  0  0  0  0  0  0  0  0  0
  162.8640  213.6610  142.7710 C   0  0  0  0  0  0  0  0  0  0  0  0
  163.1340  213.8930  141.4500 O   0  0  0  0  0  0  0  0  0  0  0  0
  163.1330  212.8330  140.5060 C   0  0  0  0  0  2  0  0  0  0  0  0
  161.8930  212.8990  139.6310 C   0  0  0  0  0  1  0  0  0  0  0  0
  159.7240  214.4260  147.5930 C   0  0  0  0  0  2  0  0  0  0  0  0
  159.0380  213.8940  148.8470 C   0  0  0  0  0  2  0  0  0  0  0  0
  157.0530  212.5450  147.7940 C   0  0  0  0  0  2  0  0  0  0  0  0
  156.9160  214.0020  147.3610 C   0  0  0  0  0  2  0  0  0  0  0  0
  157.5300  213.6600  148.7010 C   0  0  0  0  0  0  0  0  0  0  0  0
  154.8700  214.3030  151.0360 N   0  0  0  0  0  0  0  0  0  0  0  0
  157.0560  213.9340  151.1570 N   0  0  0  0  0  0  0  0  0  0  0  0
  158.3780  213.7520  151.7460 C   0  0  0  0  0  2  0  0  0  0  0  0
  155.9250  214.1960  153.3390 C   0  0  0  0  0  2  0  0  0  0  0  0
  157.2530  214.1800  155.2710 C   0  0  0  0  0  1  0  0  0  0  0  0
  155.9390  214.1910  151.8440 C   0  0  0  0  0  0  0  0  0  0  0  0
  155.3200  214.1490  149.7940 N   0  0  0  0  0  0  0  0  0  0  0  0
  158.2270  213.4930  153.2520 C   0  0  0  0  0  2  0  0  0  0  0  0
  157.2810  214.4500  153.8450 N   0  0  0  0  0  0  0  0  0  0  0  0
  156.6520  213.9430  149.8760 C   0  0  0  0  0  0  0  0  0  0  0  0
  161.6790  206.8260  147.6420 C   0  0  0  0  0  2  0  0  0  0  0  0
  162.7850  205.9750  147.2350 N   0  0  0  0  0  2  0  0  0  0  0  0
  163.4060  203.7820  144.6160 O   0  0  0  0  0  1  0  0  0  0  0  0
  161.1180  203.7140  145.2920 C   0  0  2  0  0  3  0  0  0  0  0  0
  162.5380  204.1510  145.6430 C   0  0  2  0  0  3  0  0  0  0  0  0
  161.2750  206.2520  145.3610 C   0  0  0  0  0  2  0  0  0  0  0  0
  159.9750  205.0550  145.7430 S   0  0  0  0  0  0  0  0  0  0  0  0
  162.5880  205.6610  145.8290 C   0  0  1  0  0  3  0  0  0  0  0  0
  159.0790  201.1060  148.8220 C   0  0  0  0  0  1  0  0  0  0  0  0
  160.7290  202.2960  147.3800 N   0  0  0  0  0  0  0  0  0  0  0  0
  160.9110  202.8150  148.7710 C   0  0  0  0  0  0  0  0  0  0  0  0
  160.5360  201.4920  148.6320 C   0  0  0  0  0  0  0  0  0  0  0  0
  160.7340  202.4200  145.9590 C   0  0  0  0  0  0  0  0  0  0  0  0
  161.5880  200.4020  148.7570 C   0  0  0  0  0  1  0  0  0  0  0  0
  160.4930  201.4030  145.2580 O   0  0  0  0  0  0  0  0  0  0  0  0
  159.9530  203.7750  149.1030 O   0  0  0  0  0  1  0  0  0  0  0  0
  162.2450  203.1340  149.0390 O   0  0  0  0  0  1  0  0  0  0  0  0
  1 49  1  6  0  0  0
  1  2  1  0  0  0  0
  2  3  1  0  0  0  0
  3  4  1  0  0  0  0
  4  5  1  0  0  0  0
  6  5  1  6  0  0  0
  6  8  1  0  0  0  0
  6  7  1  0  0  0  0
  6  9  1  0  0  0  0
  8  7  1  0  0  0  0
 10  9  2  0  0  0  0
 10 15  1  0  0  0  0
 11 16  1  0  0  0  0
 12 14  1  0  0  0  0
 13 11  1  0  0  0  0
 15 11  1  0  0  0  0
 15 12  2  0  0  0  0
 16 14  1  0  0  0  0
 17 18  1  0  0  0  0
 18 10  1  0  0  0  0
 19  1  1  0  0  0  0
 19 20  1  0  0  0  0
 21 27  2  0  0  0  0
 21 23  1  0  0  0  0
 22 24  2  0  0  0  0
 22 25  1  0  0  0  0
 24 26  1  0  0  0  0
 25 28  2  0  0  0  0
 26 34  1  0  0  0  0
 26 21  1  0  0  0  0
 27 20  1  0  0  0  0
 28 27  1  0  0  0  0
 29 22  1  0  0  0  0
 30 29  3  0  0  0  0
 31 30  1  0  0  0  0
 32 31  1  0  0  0  0
 33 32  1  0  0  0  0
 34 35  1  0  0  0  0
 36 38  1  0  0  0  0
 37 36  1  0  0  0  0
 37 38  1  0  0  0  0
 38 35  1  0  0  0  0
 38 48  1  0  0  0  0
 39 44  2  0  0  0  0
 40 41  1  0  0  0  0
 40 44  1  0  0  0  0
 41 46  1  0  0  0  0
 42 47  1  0  0  0  0
 44 42  1  0  0  0  0
 45 48  2  0  0  0  0
 45 39  1  0  0  0  0
 46 47  1  0  0  0  0
 47 43  1  0  0  0  0
 48 40  1  0  0  0  0
 50 49  1  0  0  0  0
 52 53  1  0  0  0  0
 52 55  1  0  0  0  0
 52 61  1  1  0  0  0
 53 51  1  6  0  0  0
 53 56  1  0  0  0  0
 54 55  1  0  0  0  0
 54 56  1  0  0  0  0
 56 50  1  1  0  0  0
 58 60  1  0  0  0  0
 58 59  1  0  0  0  0
 59 65  1  0  0  0  0
 59 64  1  0  0  0  0
 60 62  1  0  0  0  0
 60 59  1  0  0  0  0
 60 57  1  0  0  0  0
 61 58  1  0  0  0  0
 63 61  2  0  0  0  0
M  END
>  <MODEL>
2

>  <REMARK>
 VINA RESULT:      -4.4      3.241     10.058
  Name = 
  22 active torsions:
  status: ('A' for Active; 'I' for Inactive)
    1  A    between atoms: C_2  and  C_36
    2  A    between atoms: C_8  and  C_9
    3  A    between atoms: C_10  and  O_32
    4  A    between atoms: C_11  and  C_27
    5  A    between atoms: C_11  and  C_48
    6  A    between atoms: C_12  and  C_33
    7  A    between atoms: C_12  and  C_50
    8  A    between atoms: C_14  and  C_43
    9  A    between atoms: C_14  and  C_52
   10  A    between atoms: C_18  and  C_21
   11  A    between atoms: C_18  and  N_54
   12  A    between atoms: N_20  and  C_29
   13  A    between atoms: C_21  and  C_50
   14  A    between atoms: C_21  and  C_52
   15  A    between atoms: C_27  and  C_62
   16  A    between atoms: C_29  and  N_58
   17  A    between atoms: O_32  and  C_40
   18  A    between atoms: C_33  and  N_58
   19  A    between atoms: N_39  and  C_48
   20  A    between atoms: C_42  and  N_54
   21  A    between atoms: C_46  and  C_57
   22  A    between atoms: C_57  and  C_60
                            x       y       z     vdW  Elec       q    Type
                         _______ _______ _______ _____ _____    ______ ____

>  <TORSDO>
F 22

$$$$
=
 OpenBabel11052410333D

 65 72  0  0  1  0  0  0  0  0999 V2000
  159.9110  213.5710  146.2580 C   0  0  2  0  0  3  0  0  0  0  0  0
  159.3320  214.4290  147.3770 C   0  0  0  0  0  2  0  0  0  0  0  0
  158.0280  213.8400  147.8870 C   0  0  0  0  0  2  0  0  0  0  0  0
  158.2350  213.2770  149.2800 C   0  0  0  0  0  2  0  0  0  0  0  0
  157.9220  214.2960  150.2710 N   0  0  0  0  0  2  0  0  0  0  0  0
  158.4240  213.8630  151.5690 C   0  0  1  0  0  0  0  0  0  0  0  0
  158.7980  212.4460  151.5300 N   0  0  0  0  0  2  0  0  0  0  0  0
  159.8230  213.4890  151.7210 C   0  0  0  0  0  2  0  0  0  0  0  0
  157.6110  214.1490  152.7500 N   0  0  0  0  0  0  0  0  0  0  0  0
  157.3690  213.3120  153.7150 C   0  0  0  0  0  0  0  0  0  0  0  0
  156.9250  213.8730  156.2020 N   0  0  0  0  0  0  0  0  0  0  0  0
  155.2450  214.0630  154.7610 C   0  0  0  0  0  3  0  0  0  0  0  0
  158.2870  213.8140  156.7070 C   0  0  0  0  0  1  0  0  0  0  0  0
  154.8400  214.4240  156.0410 O   0  0  0  0  0  0  0  0  0  0  0  0
  156.5180  213.7340  154.8480 C   0  0  0  0  0  0  0  0  0  0  0  0
  155.8570  214.3460  156.9760 N   0  0  0  0  0  2  0  0  0  0  0  0
  157.0360  211.0330  154.4510 N   0  0  0  0  0  1  0  0  0  0  0  0
  157.8970  211.9070  153.6750 C   0  0  0  0  0  2  0  0  0  0  0  0
  161.0380  212.7130  146.8130 C   0  0  0  0  0  2  0  0  0  0  0  0
  160.6120  211.2540  146.8750 C   0  0  0  0  0  2  0  0  0  0  0  0
  161.3460  209.1900  147.9670 C   0  0  0  0  0  0  0  0  0  0  0  0
  161.9800  209.8150  150.9430 C   0  0  0  0  0  0  0  0  0  0  0  0
  160.7560  208.5370  146.9280 F   0  0  0  0  0  0  0  0  0  0  0  0
  161.9190  208.6260  150.3530 C   0  0  0  0  0  3  0  0  0  0  0  0
  162.2910  211.0660  150.2440 C   0  0  0  0  0  3  0  0  0  0  0  0
  162.0440  208.4070  148.9460 N   0  0  0  0  0  0  0  0  0  0  0  0
  161.3200  210.5310  147.9800 C   0  0  0  0  0  0  0  0  0  0  0  0
  162.0090  211.3690  148.9780 C   0  0  0  0  0  3  0  0  0  0  0  0
  161.8810  209.8630  152.3740 C   0  0  0  0  0  0  0  0  0  0  0  0
  161.7950  209.9060  153.5770 C   0  0  0  0  0  0  0  0  0  0  0  0
  161.7000  209.9620  154.9400 O   0  0  0  0  0  0  0  0  0  0  0  0
  160.4880  209.6290  155.6030 C   0  0  0  0  0  2  0  0  0  0  0  0
  160.1680  208.1550  155.4190 C   0  0  0  0  0  1  0  0  0  0  0  0
  162.5570  207.1080  148.5440 C   0  0  0  0  0  2  0  0  0  0  0  0
  161.8360  206.6440  147.2820 C   0  0  0  0  0  2  0  0  0  0  0  0
  163.5180  204.9310  146.2280 C   0  0  0  0  0  2  0  0  0  0  0  0
  162.2610  204.9540  145.3610 C   0  0  0  0  0  2  0  0  0  0  0  0
  162.1650  205.2100  146.8490 C   0  0  0  0  0  0  0  0  0  0  0  0
  160.8430  202.1130  148.1170 N   0  0  0  0  0  0  0  0  0  0  0  0
  161.3830  204.0930  148.9650 N   0  0  0  0  0  0  0  0  0  0  0  0
  161.5710  205.1470  149.9540 C   0  0  0  0  0  2  0  0  0  0  0  0
  160.6050  202.4320  150.6210 C   0  0  0  0  0  2  0  0  0  0  0  0
  160.3740  203.1280  152.8470 C   0  0  0  0  0  1  0  0  0  0  0  0
  160.8970  202.8750  149.2230 C   0  0  0  0  0  0  0  0  0  0  0  0
  161.2730  202.8750  147.1150 N   0  0  0  0  0  0  0  0  0  0  0  0
  161.5220  204.5320  151.3610 C   0  0  0  0  0  2  0  0  0  0  0  0
  160.3850  203.6060  151.4770 N   0  0  0  0  0  0  0  0  0  0  0  0
  161.5820  204.0810  147.6360 C   0  0  0  0  0  0  0  0  0  0  0  0
  160.4700  214.4520  145.1510 C   0  0  0  0  0  2  0  0  0  0  0  0
  161.0680  213.6350  144.1080 N   0  0  0  0  0  2  0  0  0  0  0  0
  162.3280  214.4180  140.9700 O   0  0  0  0  0  1  0  0  0  0  0  0
  160.4610  212.9400  140.8200 C   0  0  2  0  0  3  0  0  0  0  0  0
  161.5270  213.5580  141.7190 C   0  0  2  0  0  3  0  0  0  0  0  0
  159.3880  214.4480  142.5640 C   0  0  0  0  0  2  0  0  0  0  0  0
  158.8820  212.9310  141.7220 S   0  0  0  0  0  0  0  0  0  0  0  0
  160.8700  214.3360  142.8500 C   0  0  1  0  0  3  0  0  0  0  0  0
  162.4060  209.8100  137.6830 C   0  0  0  0  0  1  0  0  0  0  0  0
  160.7940  211.2110  138.9700 N   0  0  0  0  0  0  0  0  0  0  0  0
  160.5660  211.5040  137.5220 C   0  0  0  0  0  0  0  0  0  0  0  0
  160.9530  210.2200  137.8560 C   0  0  0  0  0  0  0  0  0  0  0  0
  160.8320  211.5580  140.3530 C   0  0  0  0  0  0  0  0  0  0  0  0
  159.9050  209.1230  137.9360 C   0  0  0  0  0  1  0  0  0  0  0  0
  161.1000  210.6640  141.1980 O   0  0  0  0  0  0  0  0  0  0  0  0
  161.5080  212.4010  137.0130 O   0  0  0  0  0  1  0  0  0  0  0  0
  159.2240  211.7750  137.2480 O   0  0  0  0  0  1  0  0  0  0  0  0
  1 49  1  6  0  0  0
  1 19  1  0  0  0  0
  1  2  1  0  0  0  0
  2  3  1  0  0  0  0
  3  4  1  0  0  0  0
  4  5  1  0  0  0  0
  6  5  1  6  0  0  0
  6  8  1  0  0  0  0
  6  9  1  0  0  0  0
  7  6  1  0  0  0  0
  7  8  1  0  0  0  0
  9 10  2  0  0  0  0
 10 15  1  0  0  0  0
 11 13  1  0  0  0  0
 11 16  1  0  0  0  0
 12 15  2  0  0  0  0
 12 14  1  0  0  0  0
 14 16  1  0  0  0  0
 15 11  1  0  0  0  0
 18 10  1  0  0  0  0
 18 17  1  0  0  0  0
 19 20  1  0  0  0  0
 20 27  1  0  0  0  0
 21 27  2  0  0  0  0
 21 26  1  0  0  0  0
 22 29  1  0  0  0  0
 23 21  1  0  0  0  0
 24 22  2  0  0  0  0
 25 22  1  0  0  0  0
 26 24  1  0  0  0  0
 27 28  1  0  0  0  0
 28 25  2  0  0  0  0
 29 30  3  0  0  0  0
 30 31  1  0  0  0  0
 31 32  1  0  0  0  0
 33 32  1  0  0  0  0
 34 26  1  0  0  0  0
 35 34  1  0  0  0  0
 36 38  1  0  0  0  0
 37 36  1  0  0  0  0
 37 38  1  0  0  0  0
 38 35  1  0  0  0  0
 38 48  1  0  0  0  0
 39 44  2  0  0  0  0
 40 44  1  0  0  0  0
 40 41  1  0  0  0  0
 41 46  1  0  0  0  0
 42 47  1  0  0  0  0
 44 42  1  0  0  0  0
 45 48  2  0  0  0  0
 45 39  1  0  0  0  0
 46 47  1  0  0  0  0
 47 43  1  0  0  0  0
 48 40  1  0  0  0  0
 50 49  1  0  0  0  0
 52 61  1  1  0  0  0
 52 53  1  0  0  0  0
 52 55  1  0  0  0  0
 53 51  1  6  0  0  0
 53 56  1  0  0  0  0
 54 56  1  0  0  0  0
 55 54  1  0  0  0  0
 56 50  1  1  0  0  0
 57 60  1  0  0  0  0
 58 61  1  0  0  0  0
 59 60  1  0  0  0  0
 59 58  1  0  0  0  0
 60 62  1  0  0  0  0
 60 58  1  0  0  0  0
 61 63  2  0  0  0  0
 64 59  1  0  0  0  0
 65 59  1  0  0  0  0
M  END
>  <MODEL>
3

>  <REMARK>
 VINA RESULT:      -4.4      1.296      2.102
  Name = 
  22 active torsions:
  status: ('A' for Active; 'I' for Inactive)
    1  A    between atoms: C_2  and  C_36
    2  A    between atoms: C_8  and  C_9
    3  A    between atoms: C_10  and  O_32
    4  A    between atoms: C_11  and  C_27
    5  A    between atoms: C_11  and  C_48
    6  A    between atoms: C_12  and  C_33
    7  A    between atoms: C_12  and  C_50
    8  A    between atoms: C_14  and  C_43
    9  A    between atoms: C_14  and  C_52
   10  A    between atoms: C_18  and  C_21
   11  A    between atoms: C_18  and  N_54
   12  A    between atoms: N_20  and  C_29
   13  A    between atoms: C_21  and  C_50
   14  A    between atoms: C_21  and  C_52
   15  A    between atoms: C_27  and  C_62
   16  A    between atoms: C_29  and  N_58
   17  A    between atoms: O_32  and  C_40
   18  A    between atoms: C_33  and  N_58
   19  A    between atoms: N_39  and  C_48
   20  A    between atoms: C_42  and  N_54
   21  A    between atoms: C_46  and  C_57
   22  A    between atoms: C_57  and  C_60
                            x       y       z     vdW  Elec       q    Type
                         _______ _______ _______ _____ _____    ______ ____

>  <TORSDO>
F 22

$$$$
=
 OpenBabel11052410333D

 65 72  0  0  1  0  0  0  0  0999 V2000
  161.4290  208.7330  150.0220 C   0  0  2  0  0  3  0  0  0  0  0  0
  162.2680  208.4640  151.2650 C   0  0  0  0  0  2  0  0  0  0  0  0
  161.9540  209.4740  152.3560 C   0  0  0  0  0  2  0  0  0  0  0  0
  160.6200  209.1370  152.9910 C   0  0  0  0  0  2  0  0  0  0  0  0
  160.8380  208.5300  154.2970 N   0  0  0  0  0  2  0  0  0  0  0  0
  160.4080  209.4640  155.3300 C   0  0  1  0  0  0  0  0  0  0  0  0
  160.4580  208.8290  156.6510 N   0  0  0  0  0  2  0  0  0  0  0  0
  161.3620  209.9470  156.3180 C   0  0  0  0  0  2  0  0  0  0  0  0
  159.1360  210.1590  155.1400 N   0  0  0  0  0  0  0  0  0  0  0  0
  158.9840  211.4500  155.1080 C   0  0  0  0  0  0  0  0  0  0  0  0
  157.2260  212.8930  153.8730 N   0  0  0  0  0  0  0  0  0  0  0  0
  156.5930  211.7830  155.6920 C   0  0  0  0  0  3  0  0  0  0  0  0
  157.9930  213.2440  152.6910 C   0  0  0  0  0  1  0  0  0  0  0  0
  155.5240  212.4830  155.1440 O   0  0  0  0  0  0  0  0  0  0  0  0
  157.6330  212.0200  154.9180 C   0  0  0  0  0  0  0  0  0  0  0  0
  155.8590  213.1750  153.9930 N   0  0  0  0  0  2  0  0  0  0  0  0
  159.7030  213.6060  155.9370 N   0  0  0  0  0  1  0  0  0  0  0  0
  160.1510  212.3740  155.3110 C   0  0  0  0  0  2  0  0  0  0  0  0
  161.4380  207.4980  149.1330 C   0  0  0  0  0  2  0  0  0  0  0  0
  162.3280  207.7250  147.9200 C   0  0  0  0  0  2  0  0  0  0  0  0
  162.5500  205.5780  146.7660 C   0  0  0  0  0  0  0  0  0  0  0  0
  161.5760  205.9230  143.8360 C   0  0  0  0  0  0  0  0  0  0  0  0
  163.4130  205.2340  147.7610 F   0  0  0  0  0  0  0  0  0  0  0  0
  162.1890  204.8740  144.3750 C   0  0  0  0  0  3  0  0  0  0  0  0
  160.7690  206.8850  144.5940 C   0  0  0  0  0  3  0  0  0  0  0  0
  162.2350  204.5890  145.7750 N   0  0  0  0  0  0  0  0  0  0  0  0
  161.9720  206.7880  146.8070 C   0  0  0  0  0  0  0  0  0  0  0  0
  160.9390  207.2510  145.8620 C   0  0  0  0  0  3  0  0  0  0  0  0
  161.5820  206.0450  142.4060 C   0  0  0  0  0  0  0  0  0  0  0  0
  161.5830  206.1470  141.2030 C   0  0  0  0  0  0  0  0  0  0  0  0
  161.5800  206.2580  139.8400 O   0  0  0  0  0  0  0  0  0  0  0  0
  162.2340  207.3400  139.1930 C   0  0  0  0  0  2  0  0  0  0  0  0
  162.2000  207.1590  137.6850 C   0  0  0  0  0  1  0  0  0  0  0  0
  162.3750  203.1880  146.1370 C   0  0  0  0  0  2  0  0  0  0  0  0
  162.2240  203.0360  147.6480 C   0  0  0  0  0  2  0  0  0  0  0  0
  161.2100  200.6280  147.4300 C   0  0  0  0  0  2  0  0  0  0  0  0
  160.1180  201.6350  147.0760 C   0  0  0  0  0  2  0  0  0  0  0  0
  161.1870  201.9940  148.0840 C   0  0  0  0  0  0  0  0  0  0  0  0
  159.8610  201.3400  151.3640 N   0  0  0  0  0  0  0  0  0  0  0  0
  160.9890  202.9860  150.3890 N   0  0  0  0  0  0  0  0  0  0  0  0
  161.6790  204.2610  150.2330 C   0  0  0  0  0  2  0  0  0  0  0  0
  160.5440  203.3180  152.7980 C   0  0  0  0  0  2  0  0  0  0  0  0
  161.2040  205.3480  153.7650 C   0  0  0  0  0  1  0  0  0  0  0  0
  160.4170  202.5550  151.5170 C   0  0  0  0  0  0  0  0  0  0  0  0
  160.0510  200.9990  150.0930 N   0  0  0  0  0  0  0  0  0  0  0  0
  162.0040  204.8300  151.6220 C   0  0  0  0  0  2  0  0  0  0  0  0
  160.8330  204.7290  152.5060 N   0  0  0  0  0  0  0  0  0  0  0  0
  160.7200  202.0120  149.5040 C   0  0  0  0  0  0  0  0  0  0  0  0
  162.0050  209.9010  149.2370 C   0  0  0  0  0  2  0  0  0  0  0  0
  161.0320  210.9780  149.1470 N   0  0  0  0  0  2  0  0  0  0  0  0
  163.0120  212.3420  146.6430 O   0  0  0  0  0  1  0  0  0  0  0  0
  160.8020  213.2430  146.6010 C   0  0  2  0  0  3  0  0  0  0  0  0
  161.7180  212.1390  147.1200 C   0  0  2  0  0  3  0  0  0  0  0  0
  161.0380  213.4010  149.1280 C   0  0  0  0  0  2  0  0  0  0  0  0
  159.7130  213.7740  147.9570 S   0  0  0  0  0  0  0  0  0  0  0  0
  161.7340  212.1470  148.6430 C   0  0  1  0  0  3  0  0  0  0  0  0
  160.3130  211.1750  142.2530 C   0  0  0  0  0  1  0  0  0  0  0  0
  160.5740  212.8420  144.0890 N   0  0  0  0  0  0  0  0  0  0  0  0
  161.6810  213.0910  143.1150 C   0  0  0  0  0  0  0  0  0  0  0  0
  160.4750  212.6440  142.6060 C   0  0  0  0  0  0  0  0  0  0  0  0
  160.0070  212.8120  145.3980 C   0  0  0  0  0  0  0  0  0  0  0  0
  159.5160  213.6410  141.9770 C   0  0  0  0  0  1  0  0  0  0  0  0
  158.7950  212.4990  145.5290 O   0  0  0  0  0  0  0  0  0  0  0  0
  162.7370  212.1930  143.2790 O   0  0  0  0  0  1  0  0  0  0  0  0
  162.0090  214.4460  143.0320 O   0  0  0  0  0  1  0  0  0  0  0  0
  1 19  1  6  0  0  0
  1  2  1  0  0  0  0
  2  3  1  0  0  0  0
  3  4  1  0  0  0  0
  4  5  1  0  0  0  0
  6  5  1  6  0  0  0
  6  8  1  0  0  0  0
  6  7  1  0  0  0  0
  8  7  1  0  0  0  0
  9  6  1  0  0  0  0
 10  9  2  0  0  0  0
 10 18  1  0  0  0  0
 11 16  1  0  0  0  0
 11 15  1  0  0  0  0
 13 11  1  0  0  0  0
 14 12  1  0  0  0  0
 15 10  1  0  0  0  0
 15 12  2  0  0  0  0
 16 14  1  0  0  0  0
 18 17  1  0  0  0  0
 20 19  1  0  0  0  0
 21 27  2  0  0  0  0
 21 23  1  0  0  0  0
 22 24  2  0  0  0  0
 22 25  1  0  0  0  0
 24 26  1  0  0  0  0
 25 28  2  0  0  0  0
 26 34  1  0  0  0  0
 26 21  1  0  0  0  0
 27 20  1  0  0  0  0
 28 27  1  0  0  0  0
 29 22  1  0  0  0  0
 30 29  3  0  0  0  0
 31 30  1  0  0  0  0
 32 31  1  0  0  0  0
 33 32  1  0  0  0  0
 34 35  1  0  0  0  0
 35 38  1  0  0  0  0
 36 38  1  0  0  0  0
 37 36  1  0  0  0  0
 37 38  1  0  0  0  0
 38 48  1  0  0  0  0
 39 44  2  0  0  0  0
 40 44  1  0  0  0  0
 41 40  1  0  0  0  0
 41 46  1  0  0  0  0
 44 42  1  0  0  0  0
 45 39  1  0  0  0  0
 46 47  1  0  0  0  0
 47 42  1  0  0  0  0
 47 43  1  0  0  0  0
 48 45  2  0  0  0  0
 48 40  1  0  0  0  0
 49  1  1  0  0  0  0
 50 49  1  0  0  0  0
 52 61  1  6  0  0  0
 52 53  1  0  0  0  0
 52 55  1  0  0  0  0
 53 51  1  6  0  0  0
 53 56  1  0  0  0  0
 55 54  1  0  0  0  0
 56 54  1  0  0  0  0
 56 50  1  1  0  0  0
 57 60  1  0  0  0  0
 58 61  1  0  0  0  0
 59 64  1  0  0  0  0
 59 58  1  0  0  0  0
 60 59  1  0  0  0  0
 60 58  1  0  0  0  0
 61 63  2  0  0  0  0
 62 60  1  0  0  0  0
 65 59  1  0  0  0  0
M  END
>  <MODEL>
4

>  <REMARK>
 VINA RESULT:      -2.5      2.761      6.862
  Name = 
  22 active torsions:
  status: ('A' for Active; 'I' for Inactive)
    1  A    between atoms: C_2  and  C_36
    2  A    between atoms: C_8  and  C_9
    3  A    between atoms: C_10  and  O_32
    4  A    between atoms: C_11  and  C_27
    5  A    between atoms: C_11  and  C_48
    6  A    between atoms: C_12  and  C_33
    7  A    between atoms: C_12  and  C_50
    8  A    between atoms: C_14  and  C_43
    9  A    between atoms: C_14  and  C_52
   10  A    between atoms: C_18  and  C_21
   11  A    between atoms: C_18  and  N_54
   12  A    between atoms: N_20  and  C_29
   13  A    between atoms: C_21  and  C_50
   14  A    between atoms: C_21  and  C_52
   15  A    between atoms: C_27  and  C_62
   16  A    between atoms: C_29  and  N_58
   17  A    between atoms: O_32  and  C_40
   18  A    between atoms: C_33  and  N_58
   19  A    between atoms: N_39  and  C_48
   20  A    between atoms: C_42  and  N_54
   21  A    between atoms: C_46  and  C_57
   22  A    between atoms: C_57  and  C_60
                            x       y       z     vdW  Elec       q    Type
                         _______ _______ _______ _____ _____    ______ ____

>  <TORSDO>
F 22

$$$$
=
 OpenBabel11052410333D

 65 72  0  0  1  0  0  0  0  0999 V2000
  160.8090  211.5340  151.9430 C   0  0  2  0  0  3  0  0  0  0  0  0
  159.5510  212.2740  151.5040 C   0  0  0  0  0  2  0  0  0  0  0  0
  159.8230  213.7620  151.3670 C   0  0  0  0  0  2  0  0  0  0  0  0
  159.5560  214.1980  149.9400 C   0  0  0  0  0  2  0  0  0  0  0  0
  159.6410  213.0470  149.0520 N   0  0  0  0  0  2  0  0  0  0  0  0
  160.8600  213.1500  148.2600 C   0  0  1  0  0  0  0  0  0  0  0  0
  161.7060  214.2400  148.7570 N   0  0  0  0  0  2  0  0  0  0  0  0
  162.1480  212.8360  148.8630 C   0  0  0  0  0  2  0  0  0  0  0  0
  160.7310  213.2200  146.8060 N   0  0  0  0  0  0  0  0  0  0  0  0
  159.6590  212.9210  146.1330 C   0  0  0  0  0  0  0  0  0  0  0  0
  160.8140  213.2350  143.8380 N   0  0  0  0  0  0  0  0  0  0  0  0
  158.6130  212.9280  143.8800 C   0  0  0  0  0  3  0  0  0  0  0  0
  162.2030  213.1930  144.2620 C   0  0  0  0  0  1  0  0  0  0  0  0
  159.0680  213.0540  142.5730 O   0  0  0  0  0  0  0  0  0  0  0  0
  159.6720  213.0280  144.6580 C   0  0  0  0  0  0  0  0  0  0  0  0
  160.4390  213.2240  142.4880 N   0  0  0  0  0  2  0  0  0  0  0  0
  157.2600  213.1460  146.3420 N   0  0  0  0  0  1  0  0  0  0  0  0
  158.4230  212.4210  146.8240 C   0  0  0  0  0  2  0  0  0  0  0  0
  160.7950  210.1280  151.3590 C   0  0  0  0  0  2  0  0  0  0  0  0
  162.2160  209.6100  151.1920 C   0  0  0  0  0  2  0  0  0  0  0  0
  161.8820  208.0700  149.3180 C   0  0  0  0  0  0  0  0  0  0  0  0
  161.4740  205.2060  150.4500 C   0  0  0  0  0  0  0  0  0  0  0  0
  161.5810  209.1750  148.5810 F   0  0  0  0  0  0  0  0  0  0  0  0
  161.3210  205.6190  149.1960 C   0  0  0  0  0  3  0  0  0  0  0  0
  162.3570  205.8510  151.4270 C   0  0  0  0  0  3  0  0  0  0  0  0
  161.9100  206.8010  148.6500 N   0  0  0  0  0  0  0  0  0  0  0  0
  162.2210  208.2310  150.6070 C   0  0  0  0  0  0  0  0  0  0  0  0
  162.6760  207.1420  151.4910 C   0  0  0  0  0  3  0  0  0  0  0  0
  160.8510  203.9710  150.8330 C   0  0  0  0  0  0  0  0  0  0  0  0
  160.3260  202.9340  151.1580 C   0  0  0  0  0  0  0  0  0  0  0  0
  159.7300  201.7610  151.5320 O   0  0  0  0  0  0  0  0  0  0  0  0
  159.7310  200.6330  150.6700 C   0  0  0  0  0  2  0  0  0  0  0  0
  161.0610  200.5180  149.9440 C   0  0  0  0  0  1  0  0  0  0  0  0
  162.1620  206.7870  147.2180 C   0  0  0  0  0  2  0  0  0  0  0  0
  161.9880  205.3680  146.6850 C   0  0  0  0  0  2  0  0  0  0  0  0
  161.4010  206.1520  144.2530 C   0  0  0  0  0  2  0  0  0  0  0  0
  160.1940  206.4310  145.1440 C   0  0  0  0  0  2  0  0  0  0  0  0
  161.1020  205.2580  145.4380 C   0  0  0  0  0  0  0  0  0  0  0  0
  159.3780  202.4130  144.0680 N   0  0  0  0  0  0  0  0  0  0  0  0
  160.9020  202.7580  145.6460 N   0  0  0  0  0  0  0  0  0  0  0  0
  161.8500  202.4630  146.7140 C   0  0  0  0  0  2  0  0  0  0  0  0
  160.3180  200.3860  145.2670 C   0  0  0  0  0  2  0  0  0  0  0  0
  161.2900  198.7800  146.6720 C   0  0  0  0  0  1  0  0  0  0  0  0
  160.1550  201.8500  145.0110 C   0  0  0  0  0  0  0  0  0  0  0  0
  159.6080  203.7220  144.1250 N   0  0  0  0  0  0  0  0  0  0  0  0
  162.1580  200.9580  146.7130 C   0  0  0  0  0  2  0  0  0  0  0  0
  160.9150  200.1800  146.5940 N   0  0  0  0  0  0  0  0  0  0  0  0
  160.5220  203.9230  145.0980 C   0  0  0  0  0  0  0  0  0  0  0  0
  160.8610  211.4300  153.4590 C   0  0  0  0  0  2  0  0  0  0  0  0
  160.4600  210.1010  153.8900 N   0  0  0  0  0  2  0  0  0  0  0  0
  161.7300  211.6560  156.7210 O   0  0  0  0  0  1  0  0  0  0  0  0
  159.3590  211.4160  156.8430 C   0  0  2  0  0  3  0  0  0  0  0  0
  160.5990  211.3820  155.9540 C   0  0  2  0  0  3  0  0  0  0  0  0
  159.7570  209.0630  155.9630 C   0  0  0  0  0  2  0  0  0  0  0  0
  158.2840  210.0220  156.3850 S   0  0  0  0  0  0  0  0  0  0  0  0
  160.7440  210.0090  155.3130 C   0  0  1  0  0  3  0  0  0  0  0  0
  155.3940  214.1780  157.1040 C   0  0  0  0  0  1  0  0  0  0  0  0
  157.2860  212.7900  156.2620 N   0  0  0  0  0  0  0  0  0  0  0  0
  156.0300  212.1890  155.7170 C   0  0  0  0  0  0  0  0  0  0  0  0
  156.0570  213.5620  155.8840 C   0  0  0  0  0  0  0  0  0  0  0  0
  158.6230  212.7260  156.7540 C   0  0  0  0  0  0  0  0  0  0  0  0
  156.3110  214.4530  154.6800 C   0  0  0  0  0  1  0  0  0  0  0  0
  159.2200  213.7990  157.0360 O   0  0  0  0  0  0  0  0  0  0  0  0
  155.3780  211.3910  156.6600 O   0  0  0  0  0  1  0  0  0  0  0  0
  156.2210  211.6410  154.4470 O   0  0  0  0  0  1  0  0  0  0  0  0
  1 19  1  6  0  0  0
  1 49  1  0  0  0  0
  2  1  1  0  0  0  0
  3  2  1  0  0  0  0
  4  3  1  0  0  0  0
  5  4  1  0  0  0  0
  6  9  1  6  0  0  0
  6  7  1  0  0  0  0
  6  8  1  0  0  0  0
  6  5  1  0  0  0  0
  7  8  1  0  0  0  0
 10  9  2  0  0  0  0
 10 18  1  0  0  0  0
 11 13  1  0  0  0  0
 11 15  1  0  0  0  0
 12 15  2  0  0  0  0
 14 12  1  0  0  0  0
 15 10  1  0  0  0  0
 16 14  1  0  0  0  0
 16 11  1  0  0  0  0
 17 18  1  0  0  0  0
 20 19  1  0  0  0  0
 21 27  2  0  0  0  0
 22 29  1  0  0  0  0
 22 25  1  0  0  0  0
 23 21  1  0  0  0  0
 24 22  2  0  0  0  0
 25 28  2  0  0  0  0
 26 24  1  0  0  0  0
 26 21  1  0  0  0  0
 27 20  1  0  0  0  0
 27 28  1  0  0  0  0
 29 30  3  0  0  0  0
 30 31  1  0  0  0  0
 32 31  1  0  0  0  0
 33 32  1  0  0  0  0
 34 26  1  0  0  0  0
 35 34  1  0  0  0  0
 36 37  1  0  0  0  0
 36 38  1  0  0  0  0
 37 38  1  0  0  0  0
 38 35  1  0  0  0  0
 39 45  1  0  0  0  0
 39 44  2  0  0  0  0
 40 41  1  0  0  0  0
 42 47  1  0  0  0  0
 44 42  1  0  0  0  0
 44 40  1  0  0  0  0
 45 48  2  0  0  0  0
 46 41  1  0  0  0  0
 47 43  1  0  0  0  0
 47 46  1  0  0  0  0
 48 38  1  0  0  0  0
 48 40  1  0  0  0  0
 49 50  1  0  0  0  0
 52 61  1  6  0  0  0
 53 51  1  1  0  0  0
 53 52  1  0  0  0  0
 54 55  1  0  0  0  0
 55 52  1  0  0  0  0
 56 50  1  6  0  0  0
 56 53  1  0  0  0  0
 56 54  1  0  0  0  0
 58 61  1  0  0  0  0
 59 60  1  0  0  0  0
 59 58  1  0  0  0  0
 59 64  1  0  0  0  0
 60 58  1  0  0  0  0
 60 57  1  0  0  0  0
 61 63  2  0  0  0  0
 62 60  1  0  0  0  0
 65 59  1  0  0  0  0
M  END
>  <MODEL>
5

>  <REMARK>
 VINA RESULT:      -2.3      3.301     10.110
  Name = 
  22 active torsions:
  status: ('A' for Active; 'I' for Inactive)
    1  A    between atoms: C_2  and  C_36
    2  A    between atoms: C_8  and  C_9
    3  A    between atoms: C_10  and  O_32
    4  A    between atoms: C_11  and  C_27
    5  A    between atoms: C_11  and  C_48
    6  A    between atoms: C_12  and  C_33
    7  A    between atoms: C_12  and  C_50
    8  A    between atoms: C_14  and  C_43
    9  A    between atoms: C_14  and  C_52
   10  A    between atoms: C_18  and  C_21
   11  A    between atoms: C_18  and  N_54
   12  A    between atoms: N_20  and  C_29
   13  A    between atoms: C_21  and  C_50
   14  A    between atoms: C_21  and  C_52
   15  A    between atoms: C_27  and  C_62
   16  A    between atoms: C_29  and  N_58
   17  A    between atoms: O_32  and  C_40
   18  A    between atoms: C_33  and  N_58
   19  A    between atoms: N_39  and  C_48
   20  A    between atoms: C_42  and  N_54
   21  A    between atoms: C_46  and  C_57
   22  A    between atoms: C_57  and  C_60
                            x       y       z     vdW  Elec       q    Type
                         _______ _______ _______ _____ _____    ______ ____

>  <TORSDO>
F 22

$$$$
