=
 OpenBabel11052410133D

 48 52  0  0  1  0  0  0  0  0999 V2000
  160.9660  211.0070  151.2910 C   0  0  0  0  0  0  0  0  0  0  0  0
  160.8830  211.1170  149.7610 C   0  0  2  0  0  3  0  0  0  0  0  0
  160.7190  205.9160  149.5050 C   0  0  1  0  0  3  0  0  0  0  0  0
  161.8880  208.9180  148.9070 C   0  0  2  0  0  3  0  0  0  0  0  0
  161.8420  206.7540  150.1440 C   0  0  0  0  0  2  0  0  0  0  0  0
  163.9660  210.6360  147.9540 O   0  0  0  0  0  0  0  0  0  0  0  0
  160.0740  206.5620  148.2710 C   0  0  0  0  0  2  0  0  0  0  0  0
  161.7120  209.9820  151.9410 C   0  0  0  0  0  0  0  0  0  0  0  0
  162.1970  208.8420  151.2900 O   0  0  0  0  0  0  0  0  0  0  0  0
  161.3480  211.0370  154.0530 N   0  0  0  0  0  0  0  0  0  0  0  0
  162.9420  211.1530  148.4790 C   0  0  0  0  0  0  0  0  0  0  0  0
  160.9210  208.5550  147.7820 C   0  0  0  0  0  2  0  0  0  0  0  0
  161.4990  208.2370  150.2110 C   0  0  1  0  0  3  0  0  0  0  0  0
  160.2590  211.9240  152.1110 C   0  0  0  0  0  0  0  0  0  0  0  0
  160.5010  211.9330  153.4910 C   0  0  0  0  0  3  0  0  0  0  0  0
  161.9340  210.0640  153.3160 C   0  0  0  0  0  3  0  0  0  0  0  0
  161.0320  207.1930  147.4700 O   0  0  0  0  0  0  0  0  0  0  0  0
  162.7350  212.6170  148.5270 C   0  0  2  0  0  3  0  0  0  0  0  0
  161.9360  210.3610  149.0910 N   0  0  0  0  0  0  0  0  0  0  0  0
  161.0580  212.8620  149.1920 S   0  0  0  0  0  0  0  0  0  0  0  0
  161.1430  204.5050  149.2070 C   0  0  0  0  0  0  0  0  0  0  0  0
  161.6400  203.3100  147.0930 C   0  0  0  0  0  3  0  0  0  0  0  0
  160.6750  203.5310  149.9930 C   0  0  0  0  0  3  0  0  0  0  0  0
  162.1710  204.2140  148.1550 C   0  0  0  0  0  2  0  0  0  0  0  0
  161.2200  202.0600  147.3160 C   0  0  0  0  0  0  0  0  0  0  0  0
  161.1810  201.4550  148.6710 C   0  0  0  0  0  3  0  0  0  0  0  0
  160.9440  202.0900  149.8270 C   0  0  0  0  0  3  0  0  0  0  0  0
  160.1540  201.7310  145.2230 O   0  0  0  0  0  0  0  0  0  0  0  0
  161.2020  199.8440  146.1090 N   0  0  0  0  0  2  0  0  0  0  0  0
  160.8260  201.2260  146.1640 C   0  0  0  0  0  0  0  0  0  0  0  0
  159.4700  198.4660  145.1210 C   0  0  0  0  0  1  0  0  0  0  0  0
  160.8870  198.9860  144.9770 C   0  0  0  0  0  3  0  0  0  0  0  0
  161.8470  197.8120  144.9340 C   0  0  0  0  0  1  0  0  0  0  0  0
  157.7000  212.8900  153.3160 N   0  0  0  0  0  2  0  0  0  0  0  0
  159.2690  212.7970  151.5370 N   0  0  0  0  0  2  0  0  0  0  0  0
  157.1370  214.0500  151.3340 N   0  0  0  0  0  0  0  0  0  0  0  0
  157.4970  214.4470  149.9830 C   0  0  0  0  0  1  0  0  0  0  0  0
  158.0190  213.2200  152.1070 C   0  0  0  0  0  0  0  0  0  0  0  0
  154.8310  214.0110  150.9690 O   0  0  0  0  0  1  0  0  0  0  0  0
  155.8300  214.4530  151.8370 C   0  0  0  0  0  2  0  0  0  0  0  0
  162.7970  213.2100  147.1540 C   0  0  0  0  0  3  0  0  0  0  0  0
  160.8580  212.0820  146.4710 F   0  0  0  0  0  0  0  0  0  0  0  0
  161.8840  212.9420  146.2180 C   0  0  0  0  0  0  0  0  0  0  0  0
  163.4330  213.4050  144.3390 C   0  0  0  0  0  1  0  0  0  0  0  0
  162.0180  213.5720  144.8690 C   0  0  1  0  0  3  0  0  0  0  0  0
  159.8100  213.4060  143.9430 O   0  0  0  0  0  1  0  0  0  0  0  0
  161.4040  212.0840  142.9630 O   0  0  0  0  0  0  0  0  0  0  0  0
  161.0080  213.0130  143.9150 C   0  0  0  0  0  0  0  0  0  0  0  0
  1  8  2  0  0  0  0
  1 14  1  0  0  0  0
  2 20  1  1  0  0  0
  2  1  1  0  0  0  0
  3 21  1  6  0  0  0
  3  5  1  0  0  0  0
  4 12  1  6  0  0  0
  4 19  1  0  0  0  0
  4 13  1  0  0  0  0
  6 11  2  0  0  0  0
  7  3  1  0  0  0  0
  8 16  1  0  0  0  0
  9  8  1  0  0  0  0
 11 18  1  0  0  0  0
 11 19  1  0  0  0  0
 13  5  1  6  0  0  0
 13  9  1  0  0  0  0
 14 15  2  0  0  0  0
 15 10  1  0  0  0  0
 16 10  2  0  0  0  0
 17 12  1  0  0  0  0
 17  7  1  0  0  0  0
 18 41  1  6  0  0  0
 18 20  1  0  0  0  0
 19  2  1  0  0  0  0
 21 23  2  0  0  0  0
 22 25  2  0  0  0  0
 22 24  1  0  0  0  0
 24 21  1  0  0  0  0
 25 26  1  0  0  0  0
 26 27  2  0  0  0  0
 27 23  1  0  0  0  0
 28 30  2  0  0  0  0
 29 30  1  0  0  0  0
 30 25  1  0  0  0  0
 32 31  1  0  0  0  0
 32 29  1  0  0  0  0
 33 32  1  0  0  0  0
 35 38  1  0  0  0  0
 35 14  1  0  0  0  0
 36 40  1  0  0  0  0
 36 38  1  0  0  0  0
 37 36  1  0  0  0  0
 38 34  2  0  0  0  0
 39 40  1  0  0  0  0
 43 42  1  0  0  0  0
 43 41  2  0  0  0  0
 45 44  1  6  0  0  0
 45 43  1  0  0  0  0
 47 48  2  0  0  0  0
 48 46  1  0  0  0  0
 48 45  1  0  0  0  0
M  END
>  <MODEL>
1

>  <REMARK>
 VINA RESULT:      -3.2      0.000      0.000
  Name = 
  8 active torsions:
  status: ('A' for Active; 'I' for Inactive)
    1  A    between atoms: C_1  and  C_6
    2  A    between atoms: N_17  and  C_30
    3  A    between atoms: N_22  and  C_40
    4  A    between atoms: C_24  and  C_38
    5  A    between atoms: C_25  and  N_31
    6  A    between atoms: C_26  and  C_32
    7  A    between atoms: C_35  and  C_47
    8  A    between atoms: C_44  and  C_47
                            x       y       z     vdW  Elec       q    Type
                         _______ _______ _______ _____ _____    ______ ____

>  <TORSDO>
F 8

$$$$
=
 OpenBabel11052410133D

 48 52  0  0  1  0  0  0  0  0999 V2000
  160.2830  209.1800  154.3620 C   0  0  0  0  0  0  0  0  0  0  0  0
  159.9430  209.6330  152.9350 C   0  0  2  0  0  3  0  0  0  0  0  0
  160.5290  204.7040  151.3490 C   0  0  1  0  0  3  0  0  0  0  0  0
  161.1200  207.9270  151.4260 C   0  0  2  0  0  3  0  0  0  0  0  0
  161.5990  205.5610  152.0520 C   0  0  0  0  0  2  0  0  0  0  0  0
  162.7370  210.1780  150.7220 O   0  0  0  0  0  0  0  0  0  0  0  0
  159.6060  205.4940  150.4100 C   0  0  0  0  0  2  0  0  0  0  0  0
  161.2700  208.1870  154.6320 C   0  0  0  0  0  0  0  0  0  0  0  0
  161.8110  207.3450  153.6540 O   0  0  0  0  0  0  0  0  0  0  0  0
  161.0890  208.6240  156.9730 N   0  0  0  0  0  0  0  0  0  0  0  0
  161.7420  210.3550  151.4780 C   0  0  0  0  0  0  0  0  0  0  0  0
  160.0530  207.6670  150.3640 C   0  0  0  0  0  2  0  0  0  0  0  0
  161.0510  206.8950  152.5430 C   0  0  1  0  0  3  0  0  0  0  0  0
  159.5850  209.7280  155.4700 C   0  0  0  0  0  0  0  0  0  0  0  0
  160.0380  209.4540  156.7670 C   0  0  0  0  0  3  0  0  0  0  0  0
  161.6920  207.9800  155.9460 C   0  0  0  0  0  3  0  0  0  0  0  0
  160.3180  206.4640  149.6970 O   0  0  0  0  0  0  0  0  0  0  0  0
  161.3270  211.7010  151.9310 C   0  0  2  0  0  3  0  0  0  0  0  0
  160.9780  209.2670  151.9740 N   0  0  0  0  0  0  0  0  0  0  0  0
  159.7600  211.4640  152.8260 S   0  0  0  0  0  0  0  0  0  0  0  0
  161.1080  203.5090  150.6460 C   0  0  0  0  0  0  0  0  0  0  0  0
  161.5870  203.0310  148.2620 C   0  0  0  0  0  3  0  0  0  0  0  0
  160.8360  202.2990  151.1410 C   0  0  0  0  0  3  0  0  0  0  0  0
  162.0780  203.6750  149.5140 C   0  0  0  0  0  2  0  0  0  0  0  0
  161.3530  201.7190  148.1370 C   0  0  0  0  0  0  0  0  0  0  0  0
  161.5020  200.7660  149.2640 C   0  0  0  0  0  3  0  0  0  0  0  0
  161.2770  201.0150  150.5610 C   0  0  0  0  0  3  0  0  0  0  0  0
  160.2830  201.8850  146.0270 O   0  0  0  0  0  0  0  0  0  0  0  0
  161.4050  199.8770  146.4140 N   0  0  0  0  0  2  0  0  0  0  0  0
  160.9800  201.1860  146.8120 C   0  0  0  0  0  0  0  0  0  0  0  0
  159.7150  199.7290  144.6830 C   0  0  0  0  0  1  0  0  0  0  0  0
  161.1120  199.3180  145.1020 C   0  0  0  0  0  3  0  0  0  0  0  0
  161.1920  197.8040  145.1550 C   0  0  0  0  0  1  0  0  0  0  0  0
  158.9140  212.4250  156.5690 N   0  0  0  0  0  2  0  0  0  0  0  0
  158.3960  210.5120  155.2630 N   0  0  0  0  0  2  0  0  0  0  0  0
  156.7840  212.3770  155.5440 N   0  0  0  0  0  0  0  0  0  0  0  0
  155.8290  211.6810  154.6970 C   0  0  0  0  0  1  0  0  0  0  0  0
  158.0620  211.7890  155.8310 C   0  0  0  0  0  0  0  0  0  0  0  0
  155.5550  214.3420  155.2590 O   0  0  0  0  0  1  0  0  0  0  0  0
  156.3680  213.6370  156.1470 C   0  0  0  0  0  2  0  0  0  0  0  0
  161.0800  212.6040  150.7630 C   0  0  0  0  0  3  0  0  0  0  0  0
  158.9690  213.2340  151.5690 F   0  0  0  0  0  0  0  0  0  0  0  0
  159.9600  213.3200  150.6370 C   0  0  0  0  0  0  0  0  0  0  0  0
  161.0130  214.1270  148.5440 C   0  0  0  0  0  1  0  0  0  0  0  0
  159.7860  214.1960  149.4390 C   0  0  1  0  0  3  0  0  0  0  0  0
  158.5810  213.0240  147.7260 O   0  0  0  0  0  0  0  0  0  0  0  0
  157.3240  214.3700  149.0870 O   0  0  0  0  0  1  0  0  0  0  0  0
  158.5410  213.8370  148.6890 C   0  0  0  0  0  0  0  0  0  0  0  0
  1  8  2  0  0  0  0
  1 14  1  0  0  0  0
  2 20  1  1  0  0  0
  2  1  1  0  0  0  0
  3 21  1  6  0  0  0
  3  5  1  0  0  0  0
  4 12  1  6  0  0  0
  4 19  1  0  0  0  0
  4 13  1  0  0  0  0
  6 11  2  0  0  0  0
  7  3  1  0  0  0  0
  8 16  1  0  0  0  0
  9  8  1  0  0  0  0
 11 18  1  0  0  0  0
 11 19  1  0  0  0  0
 13  5  1  6  0  0  0
 13  9  1  0  0  0  0
 14 15  2  0  0  0  0
 15 10  1  0  0  0  0
 16 10  2  0  0  0  0
 17 12  1  0  0  0  0
 17  7  1  0  0  0  0
 18 41  1  6  0  0  0
 18 20  1  0  0  0  0
 19  2  1  0  0  0  0
 21 23  2  0  0  0  0
 22 24  1  0  0  0  0
 24 21  1  0  0  0  0
 25 22  2  0  0  0  0
 25 26  1  0  0  0  0
 26 27  2  0  0  0  0
 27 23  1  0  0  0  0
 28 30  2  0  0  0  0
 29 30  1  0  0  0  0
 30 25  1  0  0  0  0
 31 32  1  0  0  0  0
 32 33  1  0  0  0  0
 32 29  1  0  0  0  0
 35 14  1  0  0  0  0
 35 38  1  0  0  0  0
 36 38  1  0  0  0  0
 36 40  1  0  0  0  0
 37 36  1  0  0  0  0
 38 34  2  0  0  0  0
 39 40  1  0  0  0  0
 43 41  2  0  0  0  0
 43 42  1  0  0  0  0
 45 44  1  6  0  0  0
 45 43  1  0  0  0  0
 46 48  2  0  0  0  0
 48 47  1  0  0  0  0
 48 45  1  0  0  0  0
M  END
>  <MODEL>
2

>  <REMARK>
 VINA RESULT:      -0.8      2.709      3.520
  Name = 
  8 active torsions:
  status: ('A' for Active; 'I' for Inactive)
    1  A    between atoms: C_1  and  C_6
    2  A    between atoms: N_17  and  C_30
    3  A    between atoms: N_22  and  C_40
    4  A    between atoms: C_24  and  C_38
    5  A    between atoms: C_25  and  N_31
    6  A    between atoms: C_26  and  C_32
    7  A    between atoms: C_35  and  C_47
    8  A    between atoms: C_44  and  C_47
                            x       y       z     vdW  Elec       q    Type
                         _______ _______ _______ _____ _____    ______ ____

>  <TORSDO>
F 8

$$$$
=
 OpenBabel11052410133D

 48 52  0  0  1  0  0  0  0  0999 V2000
  160.8750  210.8850  152.9970 C   0  0  0  0  0  0  0  0  0  0  0  0
  160.4430  210.9220  151.5240 C   0  0  2  0  0  3  0  0  0  0  0  0
  160.8640  205.7300  151.3860 C   0  0  1  0  0  3  0  0  0  0  0  0
  161.4950  208.8210  150.4980 C   0  0  2  0  0  3  0  0  0  0  0  0
  161.9890  206.7190  151.7450 C   0  0  0  0  0  2  0  0  0  0  0  0
  163.0850  210.7260  149.0790 O   0  0  0  0  0  0  0  0  0  0  0  0
  159.8870  206.2460  150.3190 C   0  0  0  0  0  2  0  0  0  0  0  0
  161.8660  209.9810  153.4780 C   0  0  0  0  0  0  0  0  0  0  0  0
  162.3300  208.8790  152.7520 O   0  0  0  0  0  0  0  0  0  0  0  0
  161.8500  211.0740  155.6020 N   0  0  0  0  0  0  0  0  0  0  0  0
  162.1470  211.1420  149.8120 C   0  0  0  0  0  0  0  0  0  0  0  0
  160.3550  208.3010  149.6240 C   0  0  0  0  0  2  0  0  0  0  0  0
  161.4910  208.1540  151.8660 C   0  0  1  0  0  3  0  0  0  0  0  0
  160.2590  211.7480  153.9420 C   0  0  0  0  0  0  0  0  0  0  0  0
  160.7970  211.8420  155.2320 C   0  0  0  0  0  3  0  0  0  0  0  0
  162.3740  210.1450  154.7680 C   0  0  0  0  0  3  0  0  0  0  0  0
  160.5600  206.9500  149.3150 O   0  0  0  0  0  0  0  0  0  0  0  0
  161.7790  212.5740  149.8840 C   0  0  2  0  0  3  0  0  0  0  0  0
  161.4060  210.2660  150.6460 N   0  0  0  0  0  0  0  0  0  0  0  0
  160.2740  212.6500  150.9050 S   0  0  0  0  0  0  0  0  0  0  0  0
  161.3800  204.3670  151.0210 C   0  0  0  0  0  0  0  0  0  0  0  0
  161.7680  203.2440  148.8460 C   0  0  0  0  0  3  0  0  0  0  0  0
  161.0820  203.3470  151.8310 C   0  0  0  0  0  3  0  0  0  0  0  0
  162.3190  204.1810  149.8670 C   0  0  0  0  0  2  0  0  0  0  0  0
  161.4870  201.9580  149.0860 C   0  0  0  0  0  0  0  0  0  0  0  0
  161.6370  201.3390  150.4260 C   0  0  0  0  0  3  0  0  0  0  0  0
  161.4610  201.9370  151.6110 C   0  0  0  0  0  3  0  0  0  0  0  0
  161.2670  199.8600  148.0010 O   0  0  0  0  0  0  0  0  0  0  0  0
  160.4000  201.6790  146.8250 N   0  0  0  0  0  2  0  0  0  0  0  0
  161.0560  201.1040  147.9630 C   0  0  0  0  0  0  0  0  0  0  0  0
  160.9070  199.7860  145.4000 C   0  0  0  0  0  1  0  0  0  0  0  0
  159.9070  200.8820  145.7120 C   0  0  0  0  0  3  0  0  0  0  0  0
  159.7280  201.7580  144.4870 C   0  0  0  0  0  1  0  0  0  0  0  0
  157.5760  211.6760  155.2580 N   0  0  0  0  0  2  0  0  0  0  0  0
  159.0690  212.4750  153.5920 N   0  0  0  0  0  2  0  0  0  0  0  0
  156.6880  213.1710  153.6550 N   0  0  0  0  0  0  0  0  0  0  0  0
  156.8990  214.0070  152.4850 C   0  0  0  0  0  1  0  0  0  0  0  0
  157.7690  212.4010  154.2030 C   0  0  0  0  0  0  0  0  0  0  0  0
  154.4910  213.9490  153.5000 O   0  0  0  0  0  1  0  0  0  0  0  0
  155.3360  213.0820  154.1940 C   0  0  0  0  0  2  0  0  0  0  0  0
  161.4630  213.1130  148.5240 C   0  0  0  0  0  3  0  0  0  0  0  0
  163.7310  213.3950  147.9980 F   0  0  0  0  0  0  0  0  0  0  0  0
  162.4130  213.4750  147.6600 C   0  0  0  0  0  0  0  0  0  0  0  0
  163.0450  213.6310  145.2680 C   0  0  0  0  0  1  0  0  0  0  0  0
  162.0160  214.0080  146.3210 C   0  0  1  0  0  3  0  0  0  0  0  0
  160.4140  212.3080  145.7720 O   0  0  0  0  0  0  0  0  0  0  0  0
  159.6130  214.4530  145.8190 O   0  0  0  0  0  1  0  0  0  0  0  0
  160.6470  213.5350  145.9420 C   0  0  0  0  0  0  0  0  0  0  0  0
  1  8  2  0  0  0  0
  1 14  1  0  0  0  0
  2 20  1  6  0  0  0
  2  1  1  0  0  0  0
  3 21  1  6  0  0  0
  3  5  1  0  0  0  0
  4 12  1  6  0  0  0
  4 19  1  0  0  0  0
  4 13  1  0  0  0  0
  6 11  2  0  0  0  0
  7  3  1  0  0  0  0
  8 16  1  0  0  0  0
  9  8  1  0  0  0  0
 11 18  1  0  0  0  0
 11 19  1  0  0  0  0
 13  5  1  6  0  0  0
 13  9  1  0  0  0  0
 14 15  2  0  0  0  0
 15 10  1  0  0  0  0
 16 10  2  0  0  0  0
 17 12  1  0  0  0  0
 17  7  1  0  0  0  0
 18 41  1  6  0  0  0
 18 20  1  0  0  0  0
 19  2  1  0  0  0  0
 21 23  2  0  0  0  0
 22 25  2  0  0  0  0
 22 24  1  0  0  0  0
 24 21  1  0  0  0  0
 25 26  1  0  0  0  0
 26 27  2  0  0  0  0
 27 23  1  0  0  0  0
 29 30  1  0  0  0  0
 30 28  2  0  0  0  0
 30 25  1  0  0  0  0
 31 32  1  0  0  0  0
 32 29  1  0  0  0  0
 33 32  1  0  0  0  0
 35 14  1  0  0  0  0
 35 38  1  0  0  0  0
 36 40  1  0  0  0  0
 36 38  1  0  0  0  0
 37 36  1  0  0  0  0
 38 34  2  0  0  0  0
 39 40  1  0  0  0  0
 43 42  1  0  0  0  0
 43 41  2  0  0  0  0
 45 44  1  6  0  0  0
 45 43  1  0  0  0  0
 46 48  2  0  0  0  0
 47 48  1  0  0  0  0
 48 45  1  0  0  0  0
M  END
>  <MODEL>
3

>  <REMARK>
 VINA RESULT:      -0.5      1.738      2.152
  Name = 
  8 active torsions:
  status: ('A' for Active; 'I' for Inactive)
    1  A    between atoms: C_1  and  C_6
    2  A    between atoms: N_17  and  C_30
    3  A    between atoms: N_22  and  C_40
    4  A    between atoms: C_24  and  C_38
    5  A    between atoms: C_25  and  N_31
    6  A    between atoms: C_26  and  C_32
    7  A    between atoms: C_35  and  C_47
    8  A    between atoms: C_44  and  C_47
                            x       y       z     vdW  Elec       q    Type
                         _______ _______ _______ _____ _____    ______ ____

>  <TORSDO>
F 8

$$$$
