=
 OpenBabel11042422143D

 50 55  0  0  1  0  0  0  0  0999 V2000
  159.2040  211.4840  154.8260 C   0  0  0  0  0  0  0  0  0  0  0  0
  160.7530  208.7390  156.5880 N   0  0  0  0  0  0  0  0  0  0  0  0
  160.3940  211.2310  154.3080 C   0  0  0  0  0  3  0  0  0  0  0  0
  161.5490  208.2910  155.6740 C   0  0  0  0  0  0  0  0  0  0  0  0
  161.3590  207.3030  153.7450 C   0  0  1  0  0  3  0  0  0  0  0  0
  161.2830  207.0620  155.0140 N   0  0  0  0  0  2  0  0  0  0  0  0
  161.6790  208.7090  153.4540 C   0  0  0  0  0  0  0  0  0  0  0  0
  162.6010  209.5430  151.1640 C   0  0  0  0  0  3  0  0  0  0  0  0
  162.1430  209.1280  152.3080 C   0  0  0  0  0  0  0  0  0  0  0  0
  158.9350  210.7390  156.4420 S   0  0  0  0  0  0  0  0  0  0  0  0
  162.0470  209.3410  154.7570 C   0  0  1  0  0  3  0  0  0  0  0  0
  160.6760  210.1880  156.4710 C   0  0  2  0  0  3  0  0  0  0  0  0
  161.2420  210.4810  155.1650 N   0  0  0  0  0  0  0  0  0  0  0  0
  160.4150  206.4510  151.5740 O   0  0  0  0  0  1  0  0  0  0  0  0
  161.1220  204.9320  153.1890 O   0  0  0  0  0  0  0  0  0  0  0  0
  161.1660  206.2230  152.7280 C   0  0  0  0  0  0  0  0  0  0  0  0
  162.2270  205.3700  152.5520 O   0  0  0  0  0  0  0  0  0  0  0  0
  158.3960  213.7310  154.0940 C   0  0  0  0  0  0  0  0  0  0  0  0
  158.2210  212.3070  154.1640 N   0  0  0  0  0  0  0  0  0  0  0  0
  158.7210  214.3810  155.1230 O   0  0  0  0  0  0  0  0  0  0  0  0
  156.9770  211.7220  153.6560 C   0  0  0  0  0  2  0  0  0  0  0  0
  154.6010  211.6490  153.9560 F   0  0  0  0  0  0  0  0  0  0  0  0
  155.7840  212.0170  154.5620 C   0  0  0  0  0  3  0  0  0  0  0  0
  155.9050  211.3770  155.7820 F   0  0  0  0  0  0  0  0  0  0  0  0
  158.2660  214.4530  152.7970 C   0  0  0  0  0  2  0  0  0  0  0  0
  157.1550  214.3410  150.6470 C   0  0  1  0  0  3  0  0  0  0  0  0
  156.0520  214.2270  151.6980 C   0  0  0  0  0  0  0  0  0  0  0  0
  157.4440  213.6120  151.8410 C   0  0  2  0  0  3  0  0  0  0  0  0
  154.9250  214.4480  152.1080 O   0  0  0  0  0  0  0  0  0  0  0  0
  156.8730  213.3760  149.5120 C   0  0  0  0  0  2  0  0  0  0  0  0
  157.7530  213.6890  148.3130 C   0  0  0  0  0  2  0  0  0  0  0  0
  159.0950  213.6760  148.6930 O   0  0  0  0  0  1  0  0  0  0  0  0
  161.6760  209.7270  150.0160 C   0  0  2  0  0  3  0  0  0  0  0  0
  161.2790  208.3570  149.4800 C   0  0  0  0  0  2  0  0  0  0  0  0
  161.9620  208.0720  148.2300 N   0  0  0  0  0  2  0  0  0  0  0  0
  162.0300  206.6230  148.0930 C   0  0  0  0  0  2  0  0  0  0  0  0
  163.1040  204.9810  146.5160 C   0  0  0  0  0  2  0  0  0  0  0  0
  160.4580  204.5470  145.9110 C   0  0  0  0  0  2  0  0  0  0  0  0
  162.2130  206.2150  146.6340 C   0  0  1  0  0  3  0  0  0  0  0  0
  161.4970  203.6470  145.3690 N   0  0  0  0  0  0  0  0  0  0  0  0
  162.7780  204.2530  145.2850 N   0  0  0  0  0  2  0  0  0  0  0  0
  160.8740  206.0210  145.9230 C   0  0  0  0  0  2  0  0  0  0  0  0
  161.5940  202.4850  146.2450 C   0  0  0  0  0  2  0  0  0  0  0  0
  160.2420  202.1880  146.8790 C   0  0  0  0  0  2  0  0  0  0  0  0
  160.4190  201.8680  148.3520 C   0  0  0  0  0  3  0  0  0  0  0  0
  161.3370  200.6700  148.5010 C   0  0  0  0  0  1  0  0  0  0  0  0
  161.0260  203.0530  149.0810 C   0  0  0  0  0  1  0  0  0  0  0  0
  162.3680  210.5490  148.9420 C   0  0  0  0  0  2  0  0  0  0  0  0
  162.1500  212.6600  147.7730 N   0  0  0  0  0  1  0  0  0  0  0  0
  161.9630  212.0070  149.0530 C   0  0  0  0  0  2  0  0  0  0  0  0
  1 10  1  0  0  0  0
  3  1  2  0  0  0  0
  3 13  1  0  0  0  0
  4  2  2  0  0  0  0
  5 16  1  1  0  0  0
  5  6  1  0  0  0  0
  6  4  1  0  0  0  0
  7  5  1  0  0  0  0
  8  9  2  0  0  0  0
  9  7  2  0  0  0  0
 11  7  1  6  0  0  0
 11 13  1  0  0  0  0
 11  4  1  0  0  0  0
 12 10  1  6  0  0  0
 12  2  1  0  0  0  0
 13 12  1  0  0  0  0
 14 16  1  0  0  0  0
 16 15  1  0  0  0  0
 17 16  1  0  0  0  0
 17 15  1  0  0  0  0
 18 19  1  0  0  0  0
 18 20  2  0  0  0  0
 19  1  1  0  0  0  0
 21 19  1  0  0  0  0
 21 23  1  0  0  0  0
 22 23  1  0  0  0  0
 23 24  1  0  0  0  0
 25 18  1  0  0  0  0
 26 30  1  6  0  0  0
 26 27  1  0  0  0  0
 26 28  1  0  0  0  0
 27 28  1  0  0  0  0
 27 29  2  0  0  0  0
 28 25  1  1  0  0  0
 31 32  1  0  0  0  0
 31 30  1  0  0  0  0
 33 48  1  6  0  0  0
 33  8  1  0  0  0  0
 34 33  1  0  0  0  0
 35 34  1  0  0  0  0
 36 35  1  0  0  0  0
 37 39  1  0  0  0  0
 38 42  1  0  0  0  0
 39 36  1  1  0  0  0
 40 38  1  0  0  0  0
 40 43  1  0  0  0  0
 41 40  1  0  0  0  0
 41 37  1  0  0  0  0
 42 39  1  0  0  0  0
 43 44  1  0  0  0  0
 44 45  1  0  0  0  0
 45 46  1  0  0  0  0
 45 47  1  0  0  0  0
 48 50  1  0  0  0  0
 49 50  1  0  0  0  0
M  END
>  <MODEL>
1

>  <REMARK>
 VINA RESULT:      -5.2      0.000      0.000
  Name = 
  18 active torsions:
  status: ('A' for Active; 'I' for Inactive)
    1  A    between atoms: C_1  and  C_47
    2  A    between atoms: C_3  and  C_47
    3  A    between atoms: C_4  and  C_21
    4  A    between atoms: C_6  and  C_31
    5  A    between atoms: C_6  and  C_35
    6  A    between atoms: C_7  and  C_21
    7  A    between atoms: C_12  and  N_32
    8  A    between atoms: C_17  and  C_30
    9  A    between atoms: C_18  and  C_36
   10  A    between atoms: C_22  and  C_33
   11  A    between atoms: N_23  and  C_25
   12  A    between atoms: C_24  and  C_31
   13  A    between atoms: C_25  and  C_48
   14  A    between atoms: N_26  and  C_30
   15  A    between atoms: N_26  and  C_50
   16  A    between atoms: C_31  and  C_50
   17  A    between atoms: N_32  and  C_33
   18  A    between atoms: C_38  and  C_48
                            x       y       z     vdW  Elec       q    Type
                         _______ _______ _______ _____ _____    ______ ____

>  <TORSDO>
F 18

$$$$
=
 OpenBabel11042422143D

 50 55  0  0  1  0  0  0  0  0999 V2000
  158.5590  213.2770  154.2570 C   0  0  0  0  0  0  0  0  0  0  0  0
  159.6370  211.5850  157.2590 N   0  0  0  0  0  0  0  0  0  0  0  0
  159.7940  212.8300  154.1020 C   0  0  0  0  0  3  0  0  0  0  0  0
  160.5300  210.7880  156.7730 C   0  0  0  0  0  0  0  0  0  0  0  0
  160.5670  209.0560  155.4570 C   0  0  1  0  0  3  0  0  0  0  0  0
  160.2850  209.3920  156.6740 N   0  0  0  0  0  2  0  0  0  0  0  0
  161.0210  210.1960  154.6450 C   0  0  0  0  0  0  0  0  0  0  0  0
  162.3310  209.9520  152.4060 C   0  0  0  0  0  3  0  0  0  0  0  0
  161.6790  210.0750  153.5240 C   0  0  0  0  0  0  0  0  0  0  0  0
  158.0000  213.3110  155.9670 S   0  0  0  0  0  0  0  0  0  0  0  0
  161.2300  211.3350  155.5880 C   0  0  1  0  0  3  0  0  0  0  0  0
  159.6750  212.8370  156.5180 C   0  0  2  0  0  3  0  0  0  0  0  0
  160.4510  212.5340  155.3260 N   0  0  0  0  0  0  0  0  0  0  0  0
  159.3440  206.8620  155.3100 O   0  0  0  0  0  1  0  0  0  0  0  0
  161.6270  206.9330  154.8610 O   0  0  0  0  0  0  0  0  0  0  0  0
  160.4580  207.6400  154.9890 C   0  0  0  0  0  0  0  0  0  0  0  0
  160.9950  207.3730  153.7540 O   0  0  0  0  0  0  0  0  0  0  0  0
  158.2780  213.7490  151.8200 C   0  0  0  0  0  0  0  0  0  0  0  0
  157.7440  213.7230  153.1520 N   0  0  0  0  0  0  0  0  0  0  0  0
  159.4150  214.2460  151.6030 O   0  0  0  0  0  0  0  0  0  0  0  0
  156.4010  214.2640  153.3870 C   0  0  0  0  0  2  0  0  0  0  0  0
  154.3090  213.1690  152.9810 F   0  0  0  0  0  0  0  0  0  0  0  0
  155.4080  213.1860  153.8140 C   0  0  0  0  0  3  0  0  0  0  0  0
  155.9990  211.9350  153.8370 F   0  0  0  0  0  0  0  0  0  0  0  0
  157.5350  213.1290  150.6870 C   0  0  0  0  0  2  0  0  0  0  0  0
  157.1570  213.5020  148.3230 C   0  0  1  0  0  3  0  0  0  0  0  0
  158.5640  214.0230  148.6120 C   0  0  0  0  0  0  0  0  0  0  0  0
  157.3840  214.1500  149.5750 C   0  0  2  0  0  3  0  0  0  0  0  0
  159.7310  214.2050  148.3090 O   0  0  0  0  0  0  0  0  0  0  0  0
  156.4520  214.4530  147.3740 C   0  0  0  0  0  2  0  0  0  0  0  0
  156.7600  214.0930  145.9310 C   0  0  0  0  0  2  0  0  0  0  0  0
  156.7650  212.7060  145.7780 O   0  0  0  0  0  1  0  0  0  0  0  0
  161.6040  209.6100  151.1550 C   0  0  2  0  0  3  0  0  0  0  0  0
  161.5160  208.0940  151.0360 C   0  0  0  0  0  2  0  0  0  0  0  0
  160.8580  207.7090  149.7990 N   0  0  0  0  0  2  0  0  0  0  0  0
  161.1460  206.2990  149.5740 C   0  0  0  0  0  2  0  0  0  0  0  0
  162.2580  204.6290  148.0530 C   0  0  0  0  0  2  0  0  0  0  0  0
  160.7560  206.0090  146.2110 C   0  0  0  0  0  2  0  0  0  0  0  0
  162.0650  206.1090  148.3710 C   0  0  1  0  0  3  0  0  0  0  0  0
  161.4490  204.7660  145.8160 N   0  0  0  0  0  0  0  0  0  0  0  0
  162.5730  204.4660  146.6300 N   0  0  0  0  0  2  0  0  0  0  0  0
  161.5790  206.8950  147.1520 C   0  0  0  0  0  2  0  0  0  0  0  0
  160.4990  203.6640  145.9180 C   0  0  0  0  0  2  0  0  0  0  0  0
  161.2290  202.3310  145.8430 C   0  0  0  0  0  2  0  0  0  0  0  0
  160.5900  201.3350  146.7940 C   0  0  0  0  0  3  0  0  0  0  0  0
  161.5650  200.2090  147.0770 C   0  0  0  0  0  1  0  0  0  0  0  0
  160.2230  202.0150  148.1020 C   0  0  0  0  0  1  0  0  0  0  0  0
  162.3420  210.2060  149.9690 C   0  0  0  0  0  2  0  0  0  0  0  0
  162.4260  212.1230  148.4890 N   0  0  0  0  0  1  0  0  0  0  0  0
  161.5870  211.4060  149.4280 C   0  0  0  0  0  2  0  0  0  0  0  0
  1 10  1  0  0  0  0
  3  1  2  0  0  0  0
  3 13  1  0  0  0  0
  4  2  2  0  0  0  0
  5 16  1  1  0  0  0
  5  6  1  0  0  0  0
  6  4  1  0  0  0  0
  7  5  1  0  0  0  0
  8  9  2  0  0  0  0
  9  7  2  0  0  0  0
 11  7  1  6  0  0  0
 11  4  1  0  0  0  0
 12 10  1  6  0  0  0
 12  2  1  0  0  0  0
 13 11  1  0  0  0  0
 13 12  1  0  0  0  0
 15 16  1  0  0  0  0
 16 14  1  0  0  0  0
 17 15  1  0  0  0  0
 17 16  1  0  0  0  0
 18 19  1  0  0  0  0
 19 21  1  0  0  0  0
 19  1  1  0  0  0  0
 20 18  2  0  0  0  0
 21 23  1  0  0  0  0
 22 23  1  0  0  0  0
 23 24  1  0  0  0  0
 25 18  1  0  0  0  0
 26 30  1  6  0  0  0
 26 27  1  0  0  0  0
 26 28  1  0  0  0  0
 27 28  1  0  0  0  0
 28 25  1  1  0  0  0
 29 27  2  0  0  0  0
 31 30  1  0  0  0  0
 32 31  1  0  0  0  0
 33 48  1  6  0  0  0
 33  8  1  0  0  0  0
 34 33  1  0  0  0  0
 35 34  1  0  0  0  0
 36 35  1  0  0  0  0
 37 39  1  0  0  0  0
 38 42  1  0  0  0  0
 39 36  1  1  0  0  0
 40 43  1  0  0  0  0
 40 38  1  0  0  0  0
 40 41  1  0  0  0  0
 41 37  1  0  0  0  0
 42 39  1  0  0  0  0
 44 43  1  0  0  0  0
 44 45  1  0  0  0  0
 45 46  1  0  0  0  0
 45 47  1  0  0  0  0
 49 50  1  0  0  0  0
 50 48  1  0  0  0  0
M  END
>  <MODEL>
2

>  <REMARK>
 VINA RESULT:      -4.3      1.702      2.408
  Name = 
  18 active torsions:
  status: ('A' for Active; 'I' for Inactive)
    1  A    between atoms: C_1  and  C_47
    2  A    between atoms: C_3  and  C_47
    3  A    between atoms: C_4  and  C_21
    4  A    between atoms: C_6  and  C_31
    5  A    between atoms: C_6  and  C_35
    6  A    between atoms: C_7  and  C_21
    7  A    between atoms: C_12  and  N_32
    8  A    between atoms: C_17  and  C_30
    9  A    between atoms: C_18  and  C_36
   10  A    between atoms: C_22  and  C_33
   11  A    between atoms: N_23  and  C_25
   12  A    between atoms: C_24  and  C_31
   13  A    between atoms: C_25  and  C_48
   14  A    between atoms: N_26  and  C_30
   15  A    between atoms: N_26  and  C_50
   16  A    between atoms: C_31  and  C_50
   17  A    between atoms: N_32  and  C_33
   18  A    between atoms: C_38  and  C_48
                            x       y       z     vdW  Elec       q    Type
                         _______ _______ _______ _____ _____    ______ ____

>  <TORSDO>
F 18

$$$$
=
 OpenBabel11042422143D

 50 55  0  0  1  0  0  0  0  0999 V2000
  158.8320  212.9170  152.4010 C   0  0  0  0  0  0  0  0  0  0  0  0
  158.7880  212.2390  155.9480 N   0  0  0  0  0  0  0  0  0  0  0  0
  159.9990  212.4240  152.7790 C   0  0  0  0  0  3  0  0  0  0  0  0
  159.6870  211.3150  156.0220 C   0  0  0  0  0  0  0  0  0  0  0  0
  159.9100  209.2560  155.3540 C   0  0  1  0  0  3  0  0  0  0  0  0
  159.3250  209.9630  156.2660 N   0  0  0  0  0  2  0  0  0  0  0  0
  160.7070  210.0740  154.4280 C   0  0  0  0  0  0  0  0  0  0  0  0
  162.5770  209.1160  152.8870 C   0  0  0  0  0  3  0  0  0  0  0  0
  161.6450  209.5960  153.6570 C   0  0  0  0  0  0  0  0  0  0  0  0
  157.8060  213.4970  153.7610 S   0  0  0  0  0  0  0  0  0  0  0  0
  160.7600  211.4490  155.0100 C   0  0  1  0  0  3  0  0  0  0  0  0
  159.1830  213.1930  154.9220 C   0  0  2  0  0  3  0  0  0  0  0  0
  160.2330  212.5180  154.1770 N   0  0  0  0  0  0  0  0  0  0  0  0
  160.5680  207.0020  154.4490 O   0  0  0  0  0  1  0  0  0  0  0  0
  158.5420  207.2390  155.5720 O   0  0  0  0  0  0  0  0  0  0  0  0
  159.7820  207.7660  155.3140 C   0  0  0  0  0  0  0  0  0  0  0  0
  159.5050  207.1560  156.5120 O   0  0  0  0  0  0  0  0  0  0  0  0
  159.3670  213.4340  150.0160 C   0  0  0  0  0  0  0  0  0  0  0  0
  158.4300  213.0070  151.0180 N   0  0  0  0  0  0  0  0  0  0  0  0
  160.0820  214.4530  150.2120 O   0  0  0  0  0  0  0  0  0  0  0  0
  157.0360  212.7760  150.6290 C   0  0  0  0  0  2  0  0  0  0  0  0
  156.5790  214.1560  148.7240 F   0  0  0  0  0  0  0  0  0  0  0  0
  156.3690  214.0360  150.0820 C   0  0  0  0  0  3  0  0  0  0  0  0
  155.0120  214.0460  150.3500 F   0  0  0  0  0  0  0  0  0  0  0  0
  159.5620  212.6460  148.7670 C   0  0  0  0  0  2  0  0  0  0  0  0
  160.5580  212.7570  146.5610 C   0  0  1  0  0  3  0  0  0  0  0  0
  161.7230  212.7320  147.5490 C   0  0  0  0  0  0  0  0  0  0  0  0
  160.4000  213.4560  147.7960 C   0  0  2  0  0  3  0  0  0  0  0  0
  162.8470  212.3990  147.8830 O   0  0  0  0  0  0  0  0  0  0  0  0
  160.8600  213.7430  145.4490 C   0  0  0  0  0  2  0  0  0  0  0  0
  159.5730  214.2430  144.8140 C   0  0  0  0  0  2  0  0  0  0  0  0
  159.6490  214.1190  143.4270 O   0  0  0  0  0  1  0  0  0  0  0  0
  162.2120  208.4100  151.6300 C   0  0  2  0  0  3  0  0  0  0  0  0
  162.1590  209.4250  150.4940 C   0  0  0  0  0  2  0  0  0  0  0  0
  161.5730  208.8360  149.3020 N   0  0  0  0  0  2  0  0  0  0  0  0
  162.6350  208.1270  148.6020 C   0  0  0  0  0  2  0  0  0  0  0  0
  162.9640  206.1900  147.0270 C   0  0  0  0  0  2  0  0  0  0  0  0
  160.4830  205.5610  148.0270 C   0  0  0  0  0  2  0  0  0  0  0  0
  162.0950  207.3950  147.3760 C   0  0  1  0  0  3  0  0  0  0  0  0
  161.2090  204.5860  147.1890 N   0  0  0  0  0  0  0  0  0  0  0  0
  162.1590  205.1880  146.3210 N   0  0  0  0  0  2  0  0  0  0  0  0
  160.6250  207.0080  147.5440 C   0  0  0  0  0  2  0  0  0  0  0  0
  161.9140  203.6620  148.0710 C   0  0  0  0  0  2  0  0  0  0  0  0
  160.9200  202.8940  148.9300 C   0  0  0  0  0  2  0  0  0  0  0  0
  161.4350  201.4900  149.1900 C   0  0  0  0  0  3  0  0  0  0  0  0
  160.7250  200.9070  150.3960 C   0  0  0  0  0  1  0  0  0  0  0  0
  161.1800  200.6030  147.9850 C   0  0  0  0  0  1  0  0  0  0  0  0
  160.8680  207.7280  151.8110 C   0  0  0  0  0  2  0  0  0  0  0  0
  162.2900  205.7680  151.7150 N   0  0  0  0  0  1  0  0  0  0  0  0
  160.9620  206.2660  151.4160 C   0  0  0  0  0  2  0  0  0  0  0  0
  1  3  2  0  0  0  0
  1 10  1  0  0  0  0
  2  4  2  0  0  0  0
  3 13  1  0  0  0  0
  4  6  1  0  0  0  0
  5 16  1  1  0  0  0
  5  6  1  0  0  0  0
  7  5  1  0  0  0  0
  8  9  2  0  0  0  0
  9  7  2  0  0  0  0
 11  7  1  6  0  0  0
 11  4  1  0  0  0  0
 12 10  1  6  0  0  0
 12  2  1  0  0  0  0
 13 12  1  0  0  0  0
 13 11  1  0  0  0  0
 14 16  1  0  0  0  0
 15 17  1  0  0  0  0
 16 15  1  0  0  0  0
 16 17  1  0  0  0  0
 18 20  2  0  0  0  0
 18 19  1  0  0  0  0
 19  1  1  0  0  0  0
 21 19  1  0  0  0  0
 22 23  1  0  0  0  0
 23 24  1  0  0  0  0
 23 21  1  0  0  0  0
 25 18  1  0  0  0  0
 26 30  1  6  0  0  0
 26 27  1  0  0  0  0
 26 28  1  0  0  0  0
 27 28  1  0  0  0  0
 27 29  2  0  0  0  0
 28 25  1  1  0  0  0
 31 30  1  0  0  0  0
 32 31  1  0  0  0  0
 33 34  1  6  0  0  0
 33 48  1  0  0  0  0
 33  8  1  0  0  0  0
 35 34  1  0  0  0  0
 36 35  1  0  0  0  0
 37 39  1  0  0  0  0
 39 42  1  0  0  0  0
 39 36  1  1  0  0  0
 40 38  1  0  0  0  0
 40 43  1  0  0  0  0
 41 37  1  0  0  0  0
 41 40  1  0  0  0  0
 42 38  1  0  0  0  0
 43 44  1  0  0  0  0
 44 45  1  0  0  0  0
 45 46  1  0  0  0  0
 47 45  1  0  0  0  0
 50 49  1  0  0  0  0
 50 48  1  0  0  0  0
M  END
>  <MODEL>
3

>  <REMARK>
 VINA RESULT:      -4.3      2.510      4.021
  Name = 
  18 active torsions:
  status: ('A' for Active; 'I' for Inactive)
    1  A    between atoms: C_1  and  C_47
    2  A    between atoms: C_3  and  C_47
    3  A    between atoms: C_4  and  C_21
    4  A    between atoms: C_6  and  C_31
    5  A    between atoms: C_6  and  C_35
    6  A    between atoms: C_7  and  C_21
    7  A    between atoms: C_12  and  N_32
    8  A    between atoms: C_17  and  C_30
    9  A    between atoms: C_18  and  C_36
   10  A    between atoms: C_22  and  C_33
   11  A    between atoms: N_23  and  C_25
   12  A    between atoms: C_24  and  C_31
   13  A    between atoms: C_25  and  C_48
   14  A    between atoms: N_26  and  C_30
   15  A    between atoms: N_26  and  C_50
   16  A    between atoms: C_31  and  C_50
   17  A    between atoms: N_32  and  C_33
   18  A    between atoms: C_38  and  C_48
                            x       y       z     vdW  Elec       q    Type
                         _______ _______ _______ _____ _____    ______ ____

>  <TORSDO>
F 18

$$$$
=
 OpenBabel11042422143D

 50 55  0  0  1  0  0  0  0  0999 V2000
  162.1920  210.7620  149.7870 C   0  0  0  0  0  0  0  0  0  0  0  0
  162.3060  212.4820  146.6140 N   0  0  0  0  0  0  0  0  0  0  0  0
  161.7160  211.9880  149.9230 C   0  0  0  0  0  3  0  0  0  0  0  0
  161.3620  213.3480  146.7820 C   0  0  0  0  0  0  0  0  0  0  0  0
  159.1970  213.3190  146.9970 C   0  0  1  0  0  3  0  0  0  0  0  0
  160.1230  213.2170  146.0990 N   0  0  0  0  0  2  0  0  0  0  0  0
  159.7400  213.5240  148.3490 C   0  0  0  0  0  0  0  0  0  0  0  0
  158.3470  214.4530  150.3460 C   0  0  0  0  0  3  0  0  0  0  0  0
  159.0440  213.9900  149.3500 C   0  0  0  0  0  0  0  0  0  0  0  0
  163.1200  210.5000  148.2680 S   0  0  0  0  0  0  0  0  0  0  0  0
  161.2010  213.7850  148.1870 C   0  0  1  0  0  3  0  0  0  0  0  0
  162.9850  212.2800  147.8860 C   0  0  2  0  0  3  0  0  0  0  0  0
  162.0960  212.8670  148.8740 N   0  0  0  0  0  0  0  0  0  0  0  0
  157.1400  212.0520  146.2940 O   0  0  0  0  0  1  0  0  0  0  0  0
  157.2120  214.3620  146.0180 O   0  0  0  0  0  0  0  0  0  0  0  0
  157.7460  213.2620  146.6390 C   0  0  0  0  0  0  0  0  0  0  0  0
  156.9260  214.1300  147.3150 O   0  0  0  0  0  0  0  0  0  0  0  0
  161.9670  208.3510  150.4010 C   0  0  0  0  0  0  0  0  0  0  0  0
  162.0050  209.7340  150.7840 N   0  0  0  0  0  0  0  0  0  0  0  0
  161.2630  207.9830  149.4230 O   0  0  0  0  0  0  0  0  0  0  0  0
  161.7370  210.0890  152.1810 C   0  0  0  0  0  2  0  0  0  0  0  0
  160.8780  208.3450  153.5800 F   0  0  0  0  0  0  0  0  0  0  0  0
  160.5100  209.3710  152.7370 C   0  0  0  0  0  3  0  0  0  0  0  0
  159.6710  210.2480  153.4020 F   0  0  0  0  0  0  0  0  0  0  0  0
  162.8080  207.3410  151.1020 C   0  0  0  0  0  2  0  0  0  0  0  0
  160.7850  206.0080  151.0900 C   0  0  1  0  0  3  0  0  0  0  0  0
  161.6410  205.4650  152.2340 C   0  0  0  0  0  0  0  0  0  0  0  0
  162.2010  205.9660  150.9030 C   0  0  2  0  0  3  0  0  0  0  0  0
  161.7760  204.9910  153.3490 O   0  0  0  0  0  0  0  0  0  0  0  0
  160.1360  204.8510  150.3530 C   0  0  0  0  0  2  0  0  0  0  0  0
  161.1230  203.7090  150.1760 C   0  0  0  0  0  2  0  0  0  0  0  0
  161.4570  203.5750  148.8290 O   0  0  0  0  0  1  0  0  0  0  0  0
  157.4110  213.5590  151.0770 C   0  0  2  0  0  3  0  0  0  0  0  0
  158.1760  212.3290  151.5520 C   0  0  0  0  0  2  0  0  0  0  0  0
  157.9640  212.1050  152.9720 N   0  0  0  0  0  2  0  0  0  0  0  0
  157.6690  213.3980  153.5750 C   0  0  0  0  0  2  0  0  0  0  0  0
  157.3250  211.7830  155.4750 C   0  0  0  0  0  2  0  0  0  0  0  0
  159.3490  213.3170  156.5270 C   0  0  0  0  0  2  0  0  0  0  0  0
  157.3000  213.2480  155.0480 C   0  0  1  0  0  3  0  0  0  0  0  0
  158.9310  212.0760  157.2120 N   0  0  0  0  0  0  0  0  0  0  0  0
  157.5960  211.6930  156.9140 N   0  0  0  0  0  2  0  0  0  0  0  0
  158.1790  214.1180  155.9480 C   0  0  0  0  0  2  0  0  0  0  0  0
  159.8230  211.0020  156.7920 C   0  0  0  0  0  2  0  0  0  0  0  0
  161.0870  211.5800  156.1700 C   0  0  0  0  0  2  0  0  0  0  0  0
  162.1970  210.5460  156.1970 C   0  0  0  0  0  3  0  0  0  0  0  0
  163.2820  210.9960  157.1560 C   0  0  0  0  0  1  0  0  0  0  0  0
  161.6570  209.2020  156.6520 C   0  0  0  0  0  1  0  0  0  0  0  0
  156.2720  213.1650  150.1530 C   0  0  0  0  0  2  0  0  0  0  0  0
  155.1020  213.9820  152.1120 N   0  0  0  0  0  1  0  0  0  0  0  0
  154.9500  213.6650  150.7050 C   0  0  0  0  0  2  0  0  0  0  0  0
  1  3  2  0  0  0  0
  1 19  1  0  0  0  0
  2  4  2  0  0  0  0
  5 16  1  6  0  0  0
  5  7  1  0  0  0  0
  6  4  1  0  0  0  0
  6  5  1  0  0  0  0
  7  9  2  0  0  0  0
  8 33  1  0  0  0  0
  9  8  2  0  0  0  0
 10  1  1  0  0  0  0
 11  4  1  6  0  0  0
 11  7  1  0  0  0  0
 11 13  1  0  0  0  0
 12  2  1  6  0  0  0
 12 10  1  0  0  0  0
 12 13  1  0  0  0  0
 13  3  1  0  0  0  0
 14 16  1  0  0  0  0
 15 16  1  0  0  0  0
 15 17  1  0  0  0  0
 16 17  1  0  0  0  0
 18 19  1  0  0  0  0
 18 25  1  0  0  0  0
 19 21  1  0  0  0  0
 20 18  2  0  0  0  0
 21 23  1  0  0  0  0
 23 24  1  0  0  0  0
 23 22  1  0  0  0  0
 26 30  1  6  0  0  0
 26 27  1  0  0  0  0
 27 29  2  0  0  0  0
 28 26  1  0  0  0  0
 28 25  1  1  0  0  0
 28 27  1  0  0  0  0
 31 30  1  0  0  0  0
 32 31  1  0  0  0  0
 33 48  1  6  0  0  0
 33 34  1  0  0  0  0
 34 35  1  0  0  0  0
 35 36  1  0  0  0  0
 37 41  1  0  0  0  0
 38 40  1  0  0  0  0
 39 36  1  6  0  0  0
 39 37  1  0  0  0  0
 39 42  1  0  0  0  0
 41 40  1  0  0  0  0
 42 38  1  0  0  0  0
 43 40  1  0  0  0  0
 44 45  1  0  0  0  0
 44 43  1  0  0  0  0
 45 47  1  0  0  0  0
 45 46  1  0  0  0  0
 48 50  1  0  0  0  0
 50 49  1  0  0  0  0
M  END
>  <MODEL>
4

>  <REMARK>
 VINA RESULT:      -3.9      3.520      9.711
  Name = 
  18 active torsions:
  status: ('A' for Active; 'I' for Inactive)
    1  A    between atoms: C_1  and  C_47
    2  A    between atoms: C_3  and  C_47
    3  A    between atoms: C_4  and  C_21
    4  A    between atoms: C_6  and  C_31
    5  A    between atoms: C_6  and  C_35
    6  A    between atoms: C_7  and  C_21
    7  A    between atoms: C_12  and  N_32
    8  A    between atoms: C_17  and  C_30
    9  A    between atoms: C_18  and  C_36
   10  A    between atoms: C_22  and  C_33
   11  A    between atoms: N_23  and  C_25
   12  A    between atoms: C_24  and  C_31
   13  A    between atoms: C_25  and  C_48
   14  A    between atoms: N_26  and  C_30
   15  A    between atoms: N_26  and  C_50
   16  A    between atoms: C_31  and  C_50
   17  A    between atoms: N_32  and  C_33
   18  A    between atoms: C_38  and  C_48
                            x       y       z     vdW  Elec       q    Type
                         _______ _______ _______ _____ _____    ______ ____

>  <TORSDO>
F 18

$$$$
=
 OpenBabel11042422143D

 50 55  0  0  1  0  0  0  0  0999 V2000
  158.6140  213.5480  151.4740 C   0  0  0  0  0  0  0  0  0  0  0  0
  157.7840  213.7650  154.9820 N   0  0  0  0  0  0  0  0  0  0  0  0
  159.6630  213.2120  152.2060 C   0  0  0  0  0  3  0  0  0  0  0  0
  158.6310  212.9260  155.4770 C   0  0  0  0  0  0  0  0  0  0  0  0
  158.9660  210.7770  155.4100 C   0  0  1  0  0  3  0  0  0  0  0  0
  158.2050  211.6620  155.9670 N   0  0  0  0  0  2  0  0  0  0  0  0
  159.9590  211.3730  154.5030 C   0  0  0  0  0  0  0  0  0  0  0  0
  162.1070  210.1430  153.6920 C   0  0  0  0  0  3  0  0  0  0  0  0
  161.0360  210.7580  154.0970 C   0  0  0  0  0  0  0  0  0  0  0  0
  157.3230  214.4030  152.3910 S   0  0  0  0  0  0  0  0  0  0  0  0
  159.9010  212.8500  154.7200 C   0  0  1  0  0  3  0  0  0  0  0  0
  158.4080  214.4520  153.8600 C   0  0  2  0  0  3  0  0  0  0  0  0
  159.5850  213.6580  153.5530 N   0  0  0  0  0  0  0  0  0  0  0  0
  157.6990  208.6050  155.3140 O   0  0  0  0  0  1  0  0  0  0  0  0
  159.4010  208.8700  156.8790 O   0  0  0  0  0  0  0  0  0  0  0  0
  158.8290  209.3190  155.7170 C   0  0  0  0  0  0  0  0  0  0  0  0
  159.9920  208.5910  155.7000 O   0  0  0  0  0  0  0  0  0  0  0  0
  157.2910  213.4740  149.3570 C   0  0  0  0  0  0  0  0  0  0  0  0
  158.5270  213.2760  150.0590 N   0  0  0  0  0  0  0  0  0  0  0  0
  156.2120  213.0320  149.8370 O   0  0  0  0  0  0  0  0  0  0  0  0
  159.6620  212.6890  149.3410 C   0  0  0  0  0  2  0  0  0  0  0  0
  161.2680  214.4390  149.6610 F   0  0  0  0  0  0  0  0  0  0  0  0
  160.5560  213.7490  148.7020 C   0  0  0  0  0  3  0  0  0  0  0  0
  161.4260  213.1900  147.7830 F   0  0  0  0  0  0  0  0  0  0  0  0
  157.2460  214.2610  148.0930 C   0  0  0  0  0  2  0  0  0  0  0  0
  158.1750  213.7490  145.9150 C   0  0  1  0  0  3  0  0  0  0  0  0
  156.6880  214.0160  145.6870 C   0  0  0  0  0  0  0  0  0  0  0  0
  157.2560  213.3060  146.9150 C   0  0  2  0  0  3  0  0  0  0  0  0
  155.7580  214.4530  145.0300 O   0  0  0  0  0  0  0  0  0  0  0  0
  158.6120  212.5720  145.0630 C   0  0  0  0  0  2  0  0  0  0  0  0
  159.1910  213.0530  143.7430 C   0  0  0  0  0  2  0  0  0  0  0  0
  160.2460  212.2260  143.3580 O   0  0  0  0  0  1  0  0  0  0  0  0
  162.0170  209.1340  152.6030 C   0  0  2  0  0  3  0  0  0  0  0  0
  161.2960  209.7580  151.4140 C   0  0  0  0  0  2  0  0  0  0  0  0
  161.1860  208.8070  150.3200 N   0  0  0  0  0  2  0  0  0  0  0  0
  162.1410  209.2120  149.2970 C   0  0  0  0  0  2  0  0  0  0  0  0
  163.0780  206.9430  148.7420 C   0  0  0  0  0  2  0  0  0  0  0  0
  160.4050  206.4540  148.3360 C   0  0  0  0  0  2  0  0  0  0  0  0
  162.2850  208.1380  148.2220 C   0  0  1  0  0  3  0  0  0  0  0  0
  161.3690  205.3350  148.3290 N   0  0  0  0  0  0  0  0  0  0  0  0
  162.6920  205.7350  148.0050 N   0  0  0  0  0  2  0  0  0  0  0  0
  160.9310  207.7180  147.6490 C   0  0  0  0  0  2  0  0  0  0  0  0
  161.3810  204.7370  149.6600 C   0  0  0  0  0  2  0  0  0  0  0  0
  160.2740  203.7000  149.7820 C   0  0  0  0  0  2  0  0  0  0  0  0
  160.8620  202.3030  149.7100 C   0  0  0  0  0  3  0  0  0  0  0  0
  160.0880  201.3820  150.6320 C   0  0  0  0  0  1  0  0  0  0  0  0
  160.7820  201.7680  148.2910 C   0  0  0  0  0  1  0  0  0  0  0  0
  161.2700  207.9140  153.1120 C   0  0  0  0  0  2  0  0  0  0  0  0
  161.2700  205.4910  153.1690 N   0  0  0  0  0  1  0  0  0  0  0  0
  162.0640  206.6530  152.8250 C   0  0  0  0  0  2  0  0  0  0  0  0
  1  3  2  0  0  0  0
  1 10  1  0  0  0  0
  2  4  2  0  0  0  0
  3 13  1  0  0  0  0
  4  6  1  0  0  0  0
  5 16  1  1  0  0  0
  5  6  1  0  0  0  0
  7  5  1  0  0  0  0
  8  9  2  0  0  0  0
  9  7  2  0  0  0  0
 11  7  1  6  0  0  0
 11  4  1  0  0  0  0
 12 10  1  6  0  0  0
 12  2  1  0  0  0  0
 13 12  1  0  0  0  0
 13 11  1  0  0  0  0
 14 16  1  0  0  0  0
 16 15  1  0  0  0  0
 17 16  1  0  0  0  0
 17 15  1  0  0  0  0
 18 20  2  0  0  0  0
 18 19  1  0  0  0  0
 19  1  1  0  0  0  0
 21 19  1  0  0  0  0
 23 21  1  0  0  0  0
 23 22  1  0  0  0  0
 24 23  1  0  0  0  0
 25 18  1  0  0  0  0
 26 30  1  6  0  0  0
 26 28  1  0  0  0  0
 27 26  1  0  0  0  0
 27 28  1  0  0  0  0
 28 25  1  1  0  0  0
 29 27  2  0  0  0  0
 31 30  1  0  0  0  0
 32 31  1  0  0  0  0
 33 34  1  6  0  0  0
 33 48  1  0  0  0  0
 33  8  1  0  0  0  0
 35 34  1  0  0  0  0
 36 35  1  0  0  0  0
 39 37  1  0  0  0  0
 39 36  1  1  0  0  0
 40 38  1  0  0  0  0
 40 43  1  0  0  0  0
 41 40  1  0  0  0  0
 41 37  1  0  0  0  0
 42 39  1  0  0  0  0
 42 38  1  0  0  0  0
 43 44  1  0  0  0  0
 45 44  1  0  0  0  0
 45 46  1  0  0  0  0
 47 45  1  0  0  0  0
 50 48  1  0  0  0  0
 50 49  1  0  0  0  0
M  END
>  <MODEL>
5

>  <REMARK>
 VINA RESULT:      -2.8      3.155      4.915
  Name = 
  18 active torsions:
  status: ('A' for Active; 'I' for Inactive)
    1  A    between atoms: C_1  and  C_47
    2  A    between atoms: C_3  and  C_47
    3  A    between atoms: C_4  and  C_21
    4  A    between atoms: C_6  and  C_31
    5  A    between atoms: C_6  and  C_35
    6  A    between atoms: C_7  and  C_21
    7  A    between atoms: C_12  and  N_32
    8  A    between atoms: C_17  and  C_30
    9  A    between atoms: C_18  and  C_36
   10  A    between atoms: C_22  and  C_33
   11  A    between atoms: N_23  and  C_25
   12  A    between atoms: C_24  and  C_31
   13  A    between atoms: C_25  and  C_48
   14  A    between atoms: N_26  and  C_30
   15  A    between atoms: N_26  and  C_50
   16  A    between atoms: C_31  and  C_50
   17  A    between atoms: N_32  and  C_33
   18  A    between atoms: C_38  and  C_48
                            x       y       z     vdW  Elec       q    Type
                         _______ _______ _______ _____ _____    ______ ____

>  <TORSDO>
F 18

$$$$
=
 OpenBabel11042422143D

 50 55  0  0  1  0  0  0  0  0999 V2000
  161.9440  210.5940  148.6480 C   0  0  0  0  0  0  0  0  0  0  0  0
  160.7340  213.4030  146.7280 N   0  0  0  0  0  0  0  0  0  0  0  0
  161.8470  211.6610  149.4230 C   0  0  0  0  0  3  0  0  0  0  0  0
  160.1930  214.1120  147.6630 C   0  0  0  0  0  0  0  0  0  0  0  0
  158.4860  213.9420  149.0020 C   0  0  1  0  0  3  0  0  0  0  0  0
  158.7810  214.2190  147.7730 N   0  0  0  0  0  2  0  0  0  0  0  0
  159.6740  213.6270  149.8110 C   0  0  0  0  0  0  0  0  0  0  0  0
  159.7090  213.6790  152.4160 C   0  0  0  0  0  3  0  0  0  0  0  0
  159.6930  213.6540  151.1160 C   0  0  0  0  0  0  0  0  0  0  0  0
  161.8910  210.9610  146.8860 S   0  0  0  0  0  0  0  0  0  0  0  0
  160.8630  213.9710  148.9760 C   0  0  1  0  0  3  0  0  0  0  0  0
  161.9180  212.7480  147.2640 C   0  0  2  0  0  3  0  0  0  0  0  0
  161.7920  212.8850  148.7060 N   0  0  0  0  0  0  0  0  0  0  0  0
  156.7860  214.4310  150.7910 O   0  0  0  0  0  1  0  0  0  0  0  0
  156.2140  213.0340  149.0190 O   0  0  0  0  0  0  0  0  0  0  0  0
  157.0770  213.9870  149.5000 C   0  0  0  0  0  0  0  0  0  0  0  0
  156.1210  214.3010  148.5670 O   0  0  0  0  0  0  0  0  0  0  0  0
  161.7020  208.1210  148.3900 C   0  0  0  0  0  0  0  0  0  0  0  0
  162.1060  209.2580  149.1690 N   0  0  0  0  0  0  0  0  0  0  0  0
  160.5780  208.1110  147.8200 O   0  0  0  0  0  0  0  0  0  0  0  0
  162.5760  209.0440  150.5410 C   0  0  0  0  0  2  0  0  0  0  0  0
  160.5170  207.8830  150.9290 F   0  0  0  0  0  0  0  0  0  0  0  0
  161.8640  207.8790  151.2240 C   0  0  0  0  0  3  0  0  0  0  0  0
  162.4200  206.6650  150.8620 F   0  0  0  0  0  0  0  0  0  0  0  0
  162.6240  206.9700  148.1830 C   0  0  0  0  0  2  0  0  0  0  0  0
  162.1760  204.6100  147.8700 C   0  0  1  0  0  3  0  0  0  0  0  0
  162.9680  205.0560  146.6410 C   0  0  0  0  0  0  0  0  0  0  0  0
  161.9220  205.9160  147.3490 C   0  0  2  0  0  3  0  0  0  0  0  0
  163.7940  204.8690  145.7640 O   0  0  0  0  0  0  0  0  0  0  0  0
  161.0700  203.6640  147.4410 C   0  0  0  0  0  2  0  0  0  0  0  0
  160.9080  202.5390  148.4500 C   0  0  0  0  0  2  0  0  0  0  0  0
  160.1640  201.5020  147.8890 O   0  0  0  0  0  1  0  0  0  0  0  0
  159.1320  212.5470  153.1880 C   0  0  2  0  0  3  0  0  0  0  0  0
  159.6930  211.2410  152.6380 C   0  0  0  0  0  2  0  0  0  0  0  0
  160.4700  210.5450  153.6500 N   0  0  0  0  0  2  0  0  0  0  0  0
  159.5680  210.2340  154.7510 C   0  0  0  0  0  2  0  0  0  0  0  0
  159.3800  207.8020  155.3730 C   0  0  0  0  0  2  0  0  0  0  0  0
  161.9610  207.8430  154.4290 C   0  0  0  0  0  2  0  0  0  0  0  0
  160.1260  209.1100  155.6190 C   0  0  1  0  0  3  0  0  0  0  0  0
  161.3070  206.5540  154.7340 N   0  0  0  0  0  0  0  0  0  0  0  0
  160.2560  206.6670  155.6830 N   0  0  0  0  0  2  0  0  0  0  0  0
  161.6360  208.9460  155.4410 C   0  0  0  0  0  2  0  0  0  0  0  0
  160.7530  206.0210  153.4950 C   0  0  0  0  0  2  0  0  0  0  0  0
  161.5040  204.7640  153.0800 C   0  0  0  0  0  2  0  0  0  0  0  0
  160.6260  203.9070  152.1850 C   0  0  0  0  0  3  0  0  0  0  0  0
  160.0970  204.7500  151.0420 C   0  0  0  0  0  1  0  0  0  0  0  0
  161.4230  202.7460  151.6190 C   0  0  0  0  0  1  0  0  0  0  0  0
  157.6180  212.5810  153.0690 C   0  0  0  0  0  2  0  0  0  0  0  0
  155.9160  212.4740  154.7910 N   0  0  0  0  0  1  0  0  0  0  0  0
  156.9860  211.7300  154.1550 C   0  0  0  0  0  2  0  0  0  0  0  0
  1 19  1  0  0  0  0
  1  3  2  0  0  0  0
  2  4  2  0  0  0  0
  4  6  1  0  0  0  0
  5 16  1  1  0  0  0
  5  7  1  0  0  0  0
  6  5  1  0  0  0  0
  7  9  2  0  0  0  0
  9  8  2  0  0  0  0
 10 12  1  0  0  0  0
 10  1  1  0  0  0  0
 11  4  1  6  0  0  0
 11  7  1  0  0  0  0
 12  2  1  6  0  0  0
 12 13  1  0  0  0  0
 13 11  1  0  0  0  0
 13  3  1  0  0  0  0
 15 16  1  0  0  0  0
 16 14  1  0  0  0  0
 17 15  1  0  0  0  0
 17 16  1  0  0  0  0
 18 19  1  0  0  0  0
 19 21  1  0  0  0  0
 20 18  2  0  0  0  0
 21 23  1  0  0  0  0
 22 23  1  0  0  0  0
 24 23  1  0  0  0  0
 25 18  1  0  0  0  0
 26 30  1  6  0  0  0
 27 28  1  0  0  0  0
 27 26  1  0  0  0  0
 28 26  1  0  0  0  0
 28 25  1  1  0  0  0
 29 27  2  0  0  0  0
 30 31  1  0  0  0  0
 32 31  1  0  0  0  0
 33  8  1  6  0  0  0
 34 33  1  0  0  0  0
 34 35  1  0  0  0  0
 35 36  1  0  0  0  0
 37 39  1  0  0  0  0
 37 41  1  0  0  0  0
 38 40  1  0  0  0  0
 38 42  1  0  0  0  0
 39 36  1  6  0  0  0
 40 41  1  0  0  0  0
 42 39  1  0  0  0  0
 43 40  1  0  0  0  0
 44 43  1  0  0  0  0
 45 44  1  0  0  0  0
 46 45  1  0  0  0  0
 47 45  1  0  0  0  0
 48 33  1  0  0  0  0
 48 50  1  0  0  0  0
 50 49  1  0  0  0  0
M  END
>  <MODEL>
6

>  <REMARK>
 VINA RESULT:      -2.6      3.166      8.872
  Name = 
  18 active torsions:
  status: ('A' for Active; 'I' for Inactive)
    1  A    between atoms: C_1  and  C_47
    2  A    between atoms: C_3  and  C_47
    3  A    between atoms: C_4  and  C_21
    4  A    between atoms: C_6  and  C_31
    5  A    between atoms: C_6  and  C_35
    6  A    between atoms: C_7  and  C_21
    7  A    between atoms: C_12  and  N_32
    8  A    between atoms: C_17  and  C_30
    9  A    between atoms: C_18  and  C_36
   10  A    between atoms: C_22  and  C_33
   11  A    between atoms: N_23  and  C_25
   12  A    between atoms: C_24  and  C_31
   13  A    between atoms: C_25  and  C_48
   14  A    between atoms: N_26  and  C_30
   15  A    between atoms: N_26  and  C_50
   16  A    between atoms: C_31  and  C_50
   17  A    between atoms: N_32  and  C_33
   18  A    between atoms: C_38  and  C_48
                            x       y       z     vdW  Elec       q    Type
                         _______ _______ _______ _____ _____    ______ ____

>  <TORSDO>
F 18

$$$$
