=
 OpenBabel11052411153D

 26 30  0  0  1  0  0  0  0  0999 V2000
  161.9480  206.2900  153.5040 C   0  0  0  0  0  1  0  0  0  0  0  0
  160.9470  206.8990  152.5370 C   0  0  1  0  0  3  0  0  0  0  0  0
  159.5470  212.2640  153.0260 N   0  0  0  0  0  0  0  0  0  0  0  0
  158.8240  212.4400  155.2900 N   0  0  0  0  0  2  0  0  0  0  0  0
  160.3340  210.1100  155.3420 C   0  0  0  0  0  0  0  0  0  0  0  0
  158.9260  211.6510  156.5260 C   0  0  0  0  0  2  0  0  0  0  0  0
  161.2030  210.6630  153.2980 N   0  0  0  0  0  0  0  0  0  0  0  0
  159.3650  210.2860  156.1960 N   0  0  0  0  0  0  0  0  0  0  0  0
  160.9170  211.2520  154.5850 C   0  0  1  0  0  3  0  0  0  0  0  0
  160.9680  209.2590  153.4550 C   0  0  0  0  0  0  0  0  0  0  0  0
  159.8110  212.1840  154.2860 C   0  0  0  0  0  0  0  0  0  0  0  0
  161.1900  208.3280  152.3950 N   0  0  0  0  0  2  0  0  0  0  0  0
  160.5090  211.4520  152.2840 C   0  0  0  0  0  2  0  0  0  0  0  0
  160.4780  208.9070  154.6040 N   0  0  0  0  0  0  0  0  0  0  0  0
  161.2280  205.0500  148.7660 C   0  0  0  0  0  0  0  0  0  0  0  0
  161.3560  206.3940  148.8600 N   0  0  0  0  0  0  0  0  0  0  0  0
  161.2640  206.9670  150.0670 N   0  0  0  0  0  0  0  0  0  0  0  0
  161.0990  203.0570  148.1590 C   0  0  0  0  0  0  0  0  0  0  0  0
  160.9100  204.8320  151.1240 C   0  0  0  0  0  3  0  0  0  0  0  0
  161.0430  206.2300  151.2070 C   0  0  0  0  0  0  0  0  0  0  0  0
  161.0120  204.2830  149.8560 C   0  0  0  0  0  0  0  0  0  0  0  0
  161.2910  204.3060  147.6520 N   0  0  0  0  0  0  0  0  0  0  0  0
  160.9320  203.0370  149.4750 O   0  0  0  0  0  0  0  0  0  0  0  0
  161.0820  201.8460  147.3290 C   0  0  0  0  0  0  0  0  0  0  0  0
  161.3240  200.5120  147.9420 C   0  0  0  0  0  1  0  0  0  0  0  0
  160.8690  201.9310  146.0580 N   0  0  0  0  0  2  0  0  0  0  0  0
  2  1  1  1  0  0  0
  3 11  2  0  0  0  0
  4  6  1  0  0  0  0
  5  8  2  0  0  0  0
  7 10  1  0  0  0  0
  7  9  1  0  0  0  0
  8  6  1  0  0  0  0
  9 11  1  6  0  0  0
  9  5  1  0  0  0  0
 10 14  2  0  0  0  0
 11  4  1  0  0  0  0
 12  2  1  0  0  0  0
 12 10  1  0  0  0  0
 13  3  1  0  0  0  0
 13  7  1  0  0  0  0
 14  5  1  0  0  0  0
 15 16  2  0  0  0  0
 15 21  1  0  0  0  0
 16 17  1  0  0  0  0
 17 20  2  0  0  0  0
 18 23  1  0  0  0  0
 19 20  1  0  0  0  0
 20  2  1  0  0  0  0
 21 19  2  0  0  0  0
 22 18  2  0  0  0  0
 22 15  1  0  0  0  0
 23 21  1  0  0  0  0
 24 25  1  0  0  0  0
 24 18  1  0  0  0  0
 26 24  2  0  0  0  0
M  END
>  <MODEL>
1

>  <REMARK>
 VINA RESULT:      -8.1      0.000      0.000
  Name = 
  3 active torsions:
  status: ('A' for Active; 'I' for Inactive)
    1  A    between atoms: C_1  and  C_14
    2  A    between atoms: C_18  and  C_22
    3  A    between atoms: N_21  and  C_22
                            x       y       z     vdW  Elec       q    Type
                         _______ _______ _______ _____ _____    ______ ____

>  <TORSDO>
F 3

$$$$
=
 OpenBabel11052411153D

 26 30  0  0  1  0  0  0  0  0999 V2000
  162.1170  205.3050  152.7080 C   0  0  0  0  0  1  0  0  0  0  0  0
  161.1770  206.0570  151.7810 C   0  0  1  0  0  3  0  0  0  0  0  0
  160.2970  211.5170  152.4070 N   0  0  0  0  0  0  0  0  0  0  0  0
  159.5070  211.6930  154.6490 N   0  0  0  0  0  2  0  0  0  0  0  0
  160.7760  209.2240  154.6740 C   0  0  0  0  0  0  0  0  0  0  0  0
  159.4820  210.8600  155.8590 C   0  0  0  0  0  2  0  0  0  0  0  0
  161.7740  209.7500  152.6820 N   0  0  0  0  0  0  0  0  0  0  0  0
  159.7960  209.4690  155.4970 N   0  0  0  0  0  0  0  0  0  0  0  0
  161.4980  210.3250  153.9780 C   0  0  1  0  0  3  0  0  0  0  0  0
  161.3960  208.3730  152.7820 C   0  0  0  0  0  0  0  0  0  0  0  0
  160.5030  211.3720  153.6730 C   0  0  0  0  0  0  0  0  0  0  0  0
  161.5660  207.4580  151.6980 N   0  0  0  0  0  2  0  0  0  0  0  0
  161.2030  210.6370  151.6730 C   0  0  0  0  0  2  0  0  0  0  0  0
  160.8290  208.0360  153.8980 N   0  0  0  0  0  0  0  0  0  0  0  0
  161.2340  204.3590  147.9300 C   0  0  0  0  0  0  0  0  0  0  0  0
  161.4470  205.6880  148.0750 N   0  0  0  0  0  0  0  0  0  0  0  0
  161.4250  206.2130  149.3070 N   0  0  0  0  0  0  0  0  0  0  0  0
  160.9670  202.4050  147.2460 C   0  0  0  0  0  0  0  0  0  0  0  0
  160.9740  204.0590  150.2860 C   0  0  0  0  0  3  0  0  0  0  0  0
  161.1940  205.4420  150.4220 C   0  0  0  0  0  0  0  0  0  0  0  0
  161.0040  203.5600  148.9930 C   0  0  0  0  0  0  0  0  0  0  0  0
  161.2200  203.6620  146.7840 N   0  0  0  0  0  0  0  0  0  0  0  0
  160.8380  202.3390  148.5640 O   0  0  0  0  0  0  0  0  0  0  0  0
  160.8520  201.2350  146.3670 C   0  0  0  0  0  0  0  0  0  0  0  0
  160.0730  201.3180  145.1020 C   0  0  0  0  0  1  0  0  0  0  0  0
  161.4170  200.1190  146.6910 N   0  0  0  0  0  2  0  0  0  0  0  0
  2  1  1  1  0  0  0
  3 11  2  0  0  0  0
  4  6  1  0  0  0  0
  5  8  2  0  0  0  0
  7 10  1  0  0  0  0
  7  9  1  0  0  0  0
  8  6  1  0  0  0  0
  9 11  1  6  0  0  0
  9  5  1  0  0  0  0
 10 14  2  0  0  0  0
 11  4  1  0  0  0  0
 12  2  1  0  0  0  0
 12 10  1  0  0  0  0
 13  3  1  0  0  0  0
 13  7  1  0  0  0  0
 14  5  1  0  0  0  0
 15 16  2  0  0  0  0
 15 21  1  0  0  0  0
 16 17  1  0  0  0  0
 17 20  2  0  0  0  0
 18 23  1  0  0  0  0
 19 20  1  0  0  0  0
 20  2  1  0  0  0  0
 21 19  2  0  0  0  0
 22 18  2  0  0  0  0
 22 15  1  0  0  0  0
 23 21  1  0  0  0  0
 24 26  2  0  0  0  0
 24 18  1  0  0  0  0
 25 24  1  0  0  0  0
M  END
>  <MODEL>
2

>  <REMARK>
 VINA RESULT:      -8.0      1.209      1.346
  Name = 
  3 active torsions:
  status: ('A' for Active; 'I' for Inactive)
    1  A    between atoms: C_1  and  C_14
    2  A    between atoms: C_18  and  C_22
    3  A    between atoms: N_21  and  C_22
                            x       y       z     vdW  Elec       q    Type
                         _______ _______ _______ _____ _____    ______ ____

>  <TORSDO>
F 3

$$$$
=
 OpenBabel11052411153D

 26 30  0  0  1  0  0  0  0  0999 V2000
  161.6800  205.8300  153.8920 C   0  0  0  0  0  1  0  0  0  0  0  0
  160.8220  206.3930  152.7720 C   0  0  1  0  0  3  0  0  0  0  0  0
  159.9130  211.8780  152.5080 N   0  0  0  0  0  0  0  0  0  0  0  0
  159.0560  212.3980  154.6710 N   0  0  0  0  0  2  0  0  0  0  0  0
  160.3280  209.9710  155.1190 C   0  0  0  0  0  0  0  0  0  0  0  0
  158.9960  211.7640  155.9960 C   0  0  0  0  0  2  0  0  0  0  0  0
  161.3850  210.1860  153.1000 N   0  0  0  0  0  0  0  0  0  0  0  0
  159.3230  210.3350  155.8650 N   0  0  0  0  0  0  0  0  0  0  0  0
  161.0680  210.9540  154.2810 C   0  0  1  0  0  3  0  0  0  0  0  0
  161.0070  208.8380  153.4030 C   0  0  0  0  0  0  0  0  0  0  0  0
  160.0810  211.9340  153.7870 C   0  0  0  0  0  0  0  0  0  0  0  0
  161.2110  207.7660  152.4810 N   0  0  0  0  0  2  0  0  0  0  0  0
  160.8410  210.8990  151.9480 C   0  0  0  0  0  2  0  0  0  0  0  0
  160.4070  208.6760  154.5420 N   0  0  0  0  0  0  0  0  0  0  0  0
  161.2080  203.9890  149.3380 C   0  0  0  0  0  0  0  0  0  0  0  0
  161.0950  203.4020  150.5520 N   0  0  0  0  0  0  0  0  0  0  0  0
  160.9720  204.1810  151.6350 N   0  0  0  0  0  0  0  0  0  0  0  0
  161.4030  204.4460  147.3110 C   0  0  0  0  0  0  0  0  0  0  0  0
  161.0750  206.1760  150.2900 C   0  0  0  0  0  3  0  0  0  0  0  0
  160.9610  205.5530  151.5460 C   0  0  0  0  0  0  0  0  0  0  0  0
  161.1990  205.3320  149.1980 C   0  0  0  0  0  0  0  0  0  0  0  0
  161.3370  203.3770  148.1520 N   0  0  0  0  0  0  0  0  0  0  0  0
  161.3210  205.6160  147.9300 O   0  0  0  0  0  0  0  0  0  0  0  0
  161.5470  204.3170  145.8560 C   0  0  0  0  0  0  0  0  0  0  0  0
  162.0830  205.4470  145.0500 C   0  0  0  0  0  1  0  0  0  0  0  0
  161.1990  203.2230  145.2610 N   0  0  0  0  0  2  0  0  0  0  0  0
  2  1  1  1  0  0  0
  3 11  2  0  0  0  0
  4  6  1  0  0  0  0
  5  8  2  0  0  0  0
  7 10  1  0  0  0  0
  7  9  1  0  0  0  0
  8  6  1  0  0  0  0
  9 11  1  6  0  0  0
  9  5  1  0  0  0  0
 10 14  2  0  0  0  0
 11  4  1  0  0  0  0
 12  2  1  0  0  0  0
 12 10  1  0  0  0  0
 13  3  1  0  0  0  0
 13  7  1  0  0  0  0
 14  5  1  0  0  0  0
 15 16  1  0  0  0  0
 16 17  2  0  0  0  0
 18 23  1  0  0  0  0
 18 22  2  0  0  0  0
 19 20  2  0  0  0  0
 20 17  1  0  0  0  0
 20  2  1  0  0  0  0
 21 15  2  0  0  0  0
 21 19  1  0  0  0  0
 22 15  1  0  0  0  0
 23 21  1  0  0  0  0
 24 18  1  0  0  0  0
 25 24  1  0  0  0  0
 26 24  2  0  0  0  0
M  END
>  <MODEL>
3

>  <REMARK>
 VINA RESULT:      -7.8      1.555      1.858
  Name = 
  3 active torsions:
  status: ('A' for Active; 'I' for Inactive)
    1  A    between atoms: C_1  and  C_14
    2  A    between atoms: C_18  and  C_22
    3  A    between atoms: N_21  and  C_22
                            x       y       z     vdW  Elec       q    Type
                         _______ _______ _______ _____ _____    ______ ____

>  <TORSDO>
F 3

$$$$
=
 OpenBabel11052411153D

 26 30  0  0  1  0  0  0  0  0999 V2000
  161.1960  207.6630  150.8300 C   0  0  0  0  0  1  0  0  0  0  0  0
  161.6030  206.5250  151.7500 C   0  0  1  0  0  3  0  0  0  0  0  0
  161.0630  207.7900  157.1440 N   0  0  0  0  0  0  0  0  0  0  0  0
  161.8290  210.0440  157.2590 N   0  0  0  0  0  2  0  0  0  0  0  0
  161.2390  209.7700  154.5600 C   0  0  0  0  0  0  0  0  0  0  0  0
  162.0940  211.1500  156.3270 C   0  0  0  0  0  2  0  0  0  0  0  0
  160.0960  207.8450  155.0360 N   0  0  0  0  0  0  0  0  0  0  0  0
  162.1410  210.6250  154.9530 N   0  0  0  0  0  0  0  0  0  0  0  0
  160.2440  209.2010  155.5100 C   0  0  1  0  0  3  0  0  0  0  0  0
  160.8180  207.7870  153.8000 C   0  0  0  0  0  0  0  0  0  0  0  0
  160.9290  209.0290  156.8060 C   0  0  0  0  0  0  0  0  0  0  0  0
  160.8660  206.6020  153.0030 N   0  0  0  0  0  2  0  0  0  0  0  0
  160.4000  206.9510  156.1500 C   0  0  0  0  0  2  0  0  0  0  0  0
  161.4770  208.8610  153.4950 N   0  0  0  0  0  0  0  0  0  0  0  0
  160.8760  202.8030  149.9230 C   0  0  0  0  0  0  0  0  0  0  0  0
  160.7340  202.9260  151.2630 N   0  0  0  0  0  0  0  0  0  0  0  0
  160.9690  204.1170  151.8290 N   0  0  0  0  0  0  0  0  0  0  0  0
  160.9650  202.1660  147.9370 C   0  0  0  0  0  0  0  0  0  0  0  0
  161.4990  205.0990  149.6950 C   0  0  0  0  0  3  0  0  0  0  0  0
  161.3500  205.2120  151.0890 C   0  0  0  0  0  0  0  0  0  0  0  0
  161.2450  203.8490  149.1520 C   0  0  0  0  0  0  0  0  0  0  0  0
  160.6840  201.7000  149.1850 N   0  0  0  0  0  0  0  0  0  0  0  0
  161.3010  203.4490  147.9110 O   0  0  0  0  0  0  0  0  0  0  0  0
  160.8990  201.3290  146.7330 C   0  0  0  0  0  0  0  0  0  0  0  0
  160.3700  201.8860  145.4580 C   0  0  0  0  0  1  0  0  0  0  0  0
  161.2890  200.0980  146.7730 N   0  0  0  0  0  2  0  0  0  0  0  0
  2  1  1  6  0  0  0
  2 12  1  0  0  0  0
  5  8  2  0  0  0  0
  6  4  1  0  0  0  0
  7  9  1  0  0  0  0
  7 13  1  0  0  0  0
  8  6  1  0  0  0  0
  9  5  1  6  0  0  0
  9 11  1  0  0  0  0
 10  7  1  0  0  0  0
 11  3  2  0  0  0  0
 11  4  1  0  0  0  0
 12 10  1  0  0  0  0
 13  3  1  0  0  0  0
 14 10  2  0  0  0  0
 14  5  1  0  0  0  0
 15 16  1  0  0  0  0
 16 17  2  0  0  0  0
 18 22  2  0  0  0  0
 19 20  2  0  0  0  0
 20  2  1  0  0  0  0
 20 17  1  0  0  0  0
 21 19  1  0  0  0  0
 21 15  2  0  0  0  0
 22 15  1  0  0  0  0
 23 18  1  0  0  0  0
 23 21  1  0  0  0  0
 24 26  2  0  0  0  0
 24 18  1  0  0  0  0
 25 24  1  0  0  0  0
M  END
>  <MODEL>
4

>  <REMARK>
 VINA RESULT:      -7.7      2.160      3.010
  Name = 
  3 active torsions:
  status: ('A' for Active; 'I' for Inactive)
    1  A    between atoms: C_1  and  C_14
    2  A    between atoms: C_18  and  C_22
    3  A    between atoms: N_21  and  C_22
                            x       y       z     vdW  Elec       q    Type
                         _______ _______ _______ _____ _____    ______ ____

>  <TORSDO>
F 3

$$$$
=
 OpenBabel11052411153D

 26 30  0  0  1  0  0  0  0  0999 V2000
  161.9570  208.5490  149.3260 C   0  0  0  0  0  1  0  0  0  0  0  0
  161.1190  207.4410  149.9420 C   0  0  1  0  0  3  0  0  0  0  0  0
  160.8730  202.6530  147.1150 N   0  0  0  0  0  0  0  0  0  0  0  0
  160.4050  203.3540  144.8850 N   0  0  0  0  0  2  0  0  0  0  0  0
  161.4160  205.6760  146.0240 C   0  0  0  0  0  0  0  0  0  0  0  0
  160.4570  204.5990  144.1060 C   0  0  0  0  0  2  0  0  0  0  0  0
  162.1910  204.4390  147.7870 N   0  0  0  0  0  0  0  0  0  0  0  0
  160.5820  205.7420  145.0250 N   0  0  0  0  0  0  0  0  0  0  0  0
  162.1460  204.4180  146.3430 C   0  0  1  0  0  3  0  0  0  0  0  0
  161.6950  205.7270  148.1700 C   0  0  0  0  0  0  0  0  0  0  0  0
  161.2270  203.2980  146.0550 C   0  0  0  0  0  0  0  0  0  0  0  0
  161.6300  206.1400  149.5360 N   0  0  0  0  0  2  0  0  0  0  0  0
  161.5820  203.2020  148.2680 C   0  0  0  0  0  2  0  0  0  0  0  0
  161.2490  206.4580  147.1970 N   0  0  0  0  0  0  0  0  0  0  0  0
  161.1570  207.7130  154.1420 C   0  0  0  0  0  0  0  0  0  0  0  0
  161.2170  206.4960  153.5530 N   0  0  0  0  0  0  0  0  0  0  0  0
  161.2040  206.4270  152.2160 N   0  0  0  0  0  0  0  0  0  0  0  0
  161.0870  209.3370  155.4510 C   0  0  0  0  0  0  0  0  0  0  0  0
  161.0700  208.8240  152.0290 C   0  0  0  0  0  3  0  0  0  0  0  0
  161.1310  207.5530  151.4300 C   0  0  0  0  0  0  0  0  0  0  0  0
  161.0860  208.8480  153.4150 C   0  0  0  0  0  0  0  0  0  0  0  0
  161.1600  207.9770  155.4570 N   0  0  0  0  0  0  0  0  0  0  0  0
  161.0420  209.8630  154.2340 O   0  0  0  0  0  0  0  0  0  0  0  0
  161.0620  210.1460  156.6760 C   0  0  0  0  0  0  0  0  0  0  0  0
  159.7670  210.6030  157.2490 C   0  0  0  0  0  1  0  0  0  0  0  0
  162.1660  210.4770  157.2610 N   0  0  0  0  0  2  0  0  0  0  0  0
  2  1  1  6  0  0  0
  2 20  1  0  0  0  0
  3 13  1  0  0  0  0
  4 11  1  0  0  0  0
  5 14  1  0  0  0  0
  6  4  1  0  0  0  0
  6  8  1  0  0  0  0
  7 10  1  0  0  0  0
  7 13  1  0  0  0  0
  8  5  2  0  0  0  0
  9  5  1  1  0  0  0
  9  7  1  0  0  0  0
 10 12  1  0  0  0  0
 11  9  1  0  0  0  0
 11  3  2  0  0  0  0
 12  2  1  0  0  0  0
 14 10  2  0  0  0  0
 15 22  1  0  0  0  0
 16 15  1  0  0  0  0
 17 16  2  0  0  0  0
 18 22  2  0  0  0  0
 18 24  1  0  0  0  0
 19 21  1  0  0  0  0
 20 19  2  0  0  0  0
 20 17  1  0  0  0  0
 21 15  2  0  0  0  0
 21 23  1  0  0  0  0
 23 18  1  0  0  0  0
 24 25  1  0  0  0  0
 24 26  2  0  0  0  0
M  END
>  <MODEL>
5

>  <REMARK>
 VINA RESULT:      -7.5      2.788      9.297
  Name = 
  3 active torsions:
  status: ('A' for Active; 'I' for Inactive)
    1  A    between atoms: C_1  and  C_14
    2  A    between atoms: C_18  and  C_22
    3  A    between atoms: N_21  and  C_22
                            x       y       z     vdW  Elec       q    Type
                         _______ _______ _______ _____ _____    ______ ____

>  <TORSDO>
F 3

$$$$
=
 OpenBabel11052411153D

 26 30  0  0  1  0  0  0  0  0999 V2000
  161.5840  205.8320  153.2530 C   0  0  0  0  0  1  0  0  0  0  0  0
  160.9780  206.0050  151.8700 C   0  0  1  0  0  3  0  0  0  0  0  0
  161.5150  210.7240  148.9680 N   0  0  0  0  0  0  0  0  0  0  0  0
  160.4900  212.3540  150.3740 N   0  0  0  0  0  2  0  0  0  0  0  0
  161.0320  210.3030  152.1640 C   0  0  0  0  0  0  0  0  0  0  0  0
  160.0690  212.4660  151.7770 C   0  0  0  0  0  2  0  0  0  0  0  0
  162.4090  209.3460  150.6050 N   0  0  0  0  0  0  0  0  0  0  0  0
  160.0470  211.1260  152.3860 N   0  0  0  0  0  0  0  0  0  0  0  0
  162.1150  210.6310  151.1960 C   0  0  1  0  0  3  0  0  0  0  0  0
  161.6650  208.3910  151.3700 C   0  0  0  0  0  0  0  0  0  0  0  0
  161.4910  211.3740  150.0830 C   0  0  0  0  0  0  0  0  0  0  0  0
  161.7360  206.9880  151.1080 N   0  0  0  0  0  2  0  0  0  0  0  0
  162.2460  209.4750  149.1600 C   0  0  0  0  0  2  0  0  0  0  0  0
  160.8750  208.8960  152.2660 N   0  0  0  0  0  0  0  0  0  0  0  0
  160.9310  202.3030  149.8680 C   0  0  0  0  0  0  0  0  0  0  0  0
  160.9320  202.3280  151.2220 N   0  0  0  0  0  0  0  0  0  0  0  0
  160.9470  203.5140  151.8430 N   0  0  0  0  0  0  0  0  0  0  0  0
  160.9190  201.7940  147.8440 C   0  0  0  0  0  0  0  0  0  0  0  0
  160.9580  204.6890  149.7400 C   0  0  0  0  0  3  0  0  0  0  0  0
  160.9620  204.7000  151.1470 C   0  0  0  0  0  0  0  0  0  0  0  0
  160.9420  203.4400  149.1400 C   0  0  0  0  0  0  0  0  0  0  0  0
  160.9150  201.2190  149.0780 N   0  0  0  0  0  0  0  0  0  0  0  0
  160.9350  203.1200  147.8740 O   0  0  0  0  0  0  0  0  0  0  0  0
  160.9030  201.0200  146.5970 C   0  0  0  0  0  0  0  0  0  0  0  0
  160.3470  201.6150  145.3500 C   0  0  0  0  0  1  0  0  0  0  0  0
  161.3610  199.8120  146.5730 N   0  0  0  0  0  2  0  0  0  0  0  0
  2  1  1  1  0  0  0
  3 13  1  0  0  0  0
  3 11  2  0  0  0  0
  4  6  1  0  0  0  0
  5 14  1  0  0  0  0
  5  8  2  0  0  0  0
  6  8  1  0  0  0  0
  7  9  1  0  0  0  0
  7 10  1  0  0  0  0
  9 11  1  6  0  0  0
  9  5  1  0  0  0  0
 10 14  2  0  0  0  0
 11  4  1  0  0  0  0
 12 10  1  0  0  0  0
 12  2  1  0  0  0  0
 13  7  1  0  0  0  0
 15 16  1  0  0  0  0
 16 17  2  0  0  0  0
 18 23  1  0  0  0  0
 18 22  2  0  0  0  0
 19 20  2  0  0  0  0
 20 17  1  0  0  0  0
 20  2  1  0  0  0  0
 21 19  1  0  0  0  0
 21 15  2  0  0  0  0
 22 15  1  0  0  0  0
 23 21  1  0  0  0  0
 24 18  1  0  0  0  0
 25 24  1  0  0  0  0
 26 24  2  0  0  0  0
M  END
>  <MODEL>
6

>  <REMARK>
 VINA RESULT:      -7.4      2.213      3.172
  Name = 
  3 active torsions:
  status: ('A' for Active; 'I' for Inactive)
    1  A    between atoms: C_1  and  C_14
    2  A    between atoms: C_18  and  C_22
    3  A    between atoms: N_21  and  C_22
                            x       y       z     vdW  Elec       q    Type
                         _______ _______ _______ _____ _____    ______ ____

>  <TORSDO>
F 3

$$$$
=
 OpenBabel11052411153D

 26 30  0  0  1  0  0  0  0  0999 V2000
  162.0720  210.5390  149.3560 C   0  0  0  0  0  1  0  0  0  0  0  0
  162.0320  209.9310  150.7480 C   0  0  1  0  0  3  0  0  0  0  0  0
  158.7120  210.3990  155.1910 N   0  0  0  0  0  0  0  0  0  0  0  0
  160.1800  209.9800  157.0210 N   0  0  0  0  0  2  0  0  0  0  0  0
  161.9560  210.6490  154.9950 C   0  0  0  0  0  0  0  0  0  0  0  0
  161.6290  209.9310  157.2610 C   0  0  0  0  0  2  0  0  0  0  0  0
  160.2030  211.4630  153.7680 N   0  0  0  0  0  0  0  0  0  0  0  0
  162.3320  209.8710  155.9690 N   0  0  0  0  0  0  0  0  0  0  0  0
  160.7390  211.5010  155.1080 C   0  0  1  0  0  3  0  0  0  0  0  0
  161.1940  210.8000  152.9740 C   0  0  0  0  0  0  0  0  0  0  0  0
  159.7450  210.7360  155.8870 C   0  0  0  0  0  0  0  0  0  0  0  0
  161.0380  210.6110  151.5660 N   0  0  0  0  0  2  0  0  0  0  0  0
  158.8290  210.9750  153.8530 C   0  0  0  0  0  2  0  0  0  0  0  0
  162.2050  210.3280  153.6350 N   0  0  0  0  0  0  0  0  0  0  0  0
  161.1250  205.8250  150.5570 C   0  0  0  0  0  0  0  0  0  0  0  0
  160.9830  206.4840  151.7310 N   0  0  0  0  0  0  0  0  0  0  0  0
  161.2760  207.7910  151.7750 N   0  0  0  0  0  0  0  0  0  0  0  0
  161.1910  204.4370  148.9990 C   0  0  0  0  0  0  0  0  0  0  0  0
  161.8650  207.8030  149.4390 C   0  0  0  0  0  3  0  0  0  0  0  0
  161.7150  208.4750  150.6660 C   0  0  0  0  0  0  0  0  0  0  0  0
  161.5510  206.4530  149.4400 C   0  0  0  0  0  0  0  0  0  0  0  0
  160.8810  204.5270  150.3220 N   0  0  0  0  0  0  0  0  0  0  0  0
  161.5920  205.5840  148.4670 O   0  0  0  0  0  0  0  0  0  0  0  0
  161.0890  203.1890  148.2330 C   0  0  0  0  0  0  0  0  0  0  0  0
  160.8300  201.8990  148.9290 C   0  0  0  0  0  1  0  0  0  0  0  0
  161.2340  203.1980  146.9490 N   0  0  0  0  0  2  0  0  0  0  0  0
  2  1  1  6  0  0  0
  2 12  1  0  0  0  0
  3 11  2  0  0  0  0
  4  6  1  0  0  0  0
  5  8  2  0  0  0  0
  7 13  1  0  0  0  0
  7  9  1  0  0  0  0
  8  6  1  0  0  0  0
  9  5  1  6  0  0  0
  9 11  1  0  0  0  0
 10 14  2  0  0  0  0
 10  7  1  0  0  0  0
 11  4  1  0  0  0  0
 12 10  1  0  0  0  0
 13  3  1  0  0  0  0
 14  5  1  0  0  0  0
 15 16  1  0  0  0  0
 16 17  2  0  0  0  0
 18 22  2  0  0  0  0
 19 21  1  0  0  0  0
 19 20  2  0  0  0  0
 20  2  1  0  0  0  0
 20 17  1  0  0  0  0
 21 15  2  0  0  0  0
 22 15  1  0  0  0  0
 23 18  1  0  0  0  0
 23 21  1  0  0  0  0
 24 25  1  0  0  0  0
 24 18  1  0  0  0  0
 26 24  2  0  0  0  0
M  END
>  <MODEL>
7

>  <REMARK>
 VINA RESULT:      -7.4      1.788      2.660
  Name = 
  3 active torsions:
  status: ('A' for Active; 'I' for Inactive)
    1  A    between atoms: C_1  and  C_14
    2  A    between atoms: C_18  and  C_22
    3  A    between atoms: N_21  and  C_22
                            x       y       z     vdW  Elec       q    Type
                         _______ _______ _______ _____ _____    ______ ____

>  <TORSDO>
F 3

$$$$
=
 OpenBabel11052411153D

 26 30  0  0  1  0  0  0  0  0999 V2000
  161.7400  206.8270  154.1460 C   0  0  0  0  0  1  0  0  0  0  0  0
  160.7780  207.3730  153.1040 C   0  0  1  0  0  3  0  0  0  0  0  0
  159.2150  212.7140  152.9920 N   0  0  0  0  0  0  0  0  0  0  0  0
  158.1480  213.0190  155.1020 N   0  0  0  0  0  2  0  0  0  0  0  0
  159.6780  210.7450  155.5490 C   0  0  0  0  0  0  0  0  0  0  0  0
  158.0740  212.3180  156.3920 C   0  0  0  0  0  2  0  0  0  0  0  0
  160.8400  211.1850  153.6260 N   0  0  0  0  0  0  0  0  0  0  0  0
  158.5850  210.9470  156.2290 N   0  0  0  0  0  0  0  0  0  0  0  0
  160.3470  211.8510  154.8100 C   0  0  1  0  0  3  0  0  0  0  0  0
  160.6120  209.7880  153.8450 C   0  0  0  0  0  0  0  0  0  0  0  0
  159.2830  212.7270  154.2810 C   0  0  0  0  0  0  0  0  0  0  0  0
  161.0130  208.7960  152.8990 N   0  0  0  0  0  2  0  0  0  0  0  0
  160.2950  211.8840  152.4660 C   0  0  0  0  0  2  0  0  0  0  0  0
  159.9570  209.4990  154.9270 N   0  0  0  0  0  0  0  0  0  0  0  0
  161.2430  205.2630  149.4910 C   0  0  0  0  0  0  0  0  0  0  0  0
  161.2210  204.5830  150.6610 N   0  0  0  0  0  0  0  0  0  0  0  0
  161.0720  205.2690  151.8020 N   0  0  0  0  0  0  0  0  0  0  0  0
  161.3270  205.8800  147.4980 C   0  0  0  0  0  0  0  0  0  0  0  0
  160.9620  207.3580  150.6070 C   0  0  0  0  0  3  0  0  0  0  0  0
  160.9430  206.6390  151.8160 C   0  0  0  0  0  0  0  0  0  0  0  0
  161.1180  206.6070  149.4520 C   0  0  0  0  0  0  0  0  0  0  0  0
  161.3800  204.7510  148.2590 N   0  0  0  0  0  0  0  0  0  0  0  0
  161.1710  206.9910  148.2050 O   0  0  0  0  0  0  0  0  0  0  0  0
  161.4310  205.8680  146.0340 C   0  0  0  0  0  0  0  0  0  0  0  0
  160.2280  206.1130  145.1940 C   0  0  0  0  0  1  0  0  0  0  0  0
  162.5660  205.6330  145.4630 N   0  0  0  0  0  2  0  0  0  0  0  0
  2  1  1  1  0  0  0
  3 11  2  0  0  0  0
  4  6  1  0  0  0  0
  5  8  2  0  0  0  0
  7 10  1  0  0  0  0
  7  9  1  0  0  0  0
  8  6  1  0  0  0  0
  9 11  1  6  0  0  0
  9  5  1  0  0  0  0
 10 14  2  0  0  0  0
 11  4  1  0  0  0  0
 12  2  1  0  0  0  0
 12 10  1  0  0  0  0
 13  3  1  0  0  0  0
 13  7  1  0  0  0  0
 14  5  1  0  0  0  0
 15 16  1  0  0  0  0
 16 17  2  0  0  0  0
 17 20  1  0  0  0  0
 18 23  1  0  0  0  0
 18 22  2  0  0  0  0
 19 20  2  0  0  0  0
 20  2  1  0  0  0  0
 21 15  2  0  0  0  0
 21 19  1  0  0  0  0
 22 15  1  0  0  0  0
 23 21  1  0  0  0  0
 24 18  1  0  0  0  0
 25 24  1  0  0  0  0
 26 24  2  0  0  0  0
M  END
>  <MODEL>
8

>  <REMARK>
 VINA RESULT:      -7.4      1.987      2.292
  Name = 
  3 active torsions:
  status: ('A' for Active; 'I' for Inactive)
    1  A    between atoms: C_1  and  C_14
    2  A    between atoms: C_18  and  C_22
    3  A    between atoms: N_21  and  C_22
                            x       y       z     vdW  Elec       q    Type
                         _______ _______ _______ _____ _____    ______ ____

>  <TORSDO>
F 3

$$$$
=
 OpenBabel11052411153D

 26 30  0  0  1  0  0  0  0  0999 V2000
  161.1210  205.2060  153.0260 C   0  0  0  0  0  1  0  0  0  0  0  0
  161.7010  206.6050  152.9150 C   0  0  1  0  0  3  0  0  0  0  0  0
  162.3300  206.9590  147.3960 N   0  0  0  0  0  0  0  0  0  0  0  0
  162.0900  204.7010  146.6690 N   0  0  0  0  0  2  0  0  0  0  0  0
  160.8870  204.6360  149.1710 C   0  0  0  0  0  0  0  0  0  0  0  0
  161.5810  203.4350  147.2130 C   0  0  0  0  0  2  0  0  0  0  0  0
  160.8440  206.9250  149.1770 N   0  0  0  0  0  0  0  0  0  0  0  0
  161.4260  203.5600  148.6720 N   0  0  0  0  0  0  0  0  0  0  0  0
  160.5520  205.8060  148.3120 C   0  0  1  0  0  3  0  0  0  0  0  0
  161.1180  206.3580  150.4630 C   0  0  0  0  0  0  0  0  0  0  0  0
  161.6010  205.9000  147.2780 C   0  0  0  0  0  0  0  0  0  0  0  0
  161.4110  207.1680  151.6040 N   0  0  0  0  0  2  0  0  0  0  0  0
  161.8090  207.7770  148.4880 C   0  0  0  0  0  2  0  0  0  0  0  0
  161.1480  205.0620  150.5000 N   0  0  0  0  0  0  0  0  0  0  0  0
  160.1120  209.0470  155.9530 C   0  0  0  0  0  0  0  0  0  0  0  0
  160.2900  207.7250  156.1860 N   0  0  0  0  0  0  0  0  0  0  0  0
  160.7970  206.9620  155.2090 N   0  0  0  0  0  0  0  0  0  0  0  0
  159.6790  211.0870  156.0420 C   0  0  0  0  0  0  0  0  0  0  0  0
  160.9610  208.8550  153.7280 C   0  0  0  0  0  3  0  0  0  0  0  0
  161.1380  207.4830  153.9820 C   0  0  0  0  0  0  0  0  0  0  0  0
  160.4340  209.6060  154.7670 C   0  0  0  0  0  0  0  0  0  0  0  0
  159.6230  209.9600  156.8050 N   0  0  0  0  0  0  0  0  0  0  0  0
  160.1620  210.8810  154.8240 O   0  0  0  0  0  0  0  0  0  0  0  0
  159.2480  212.4050  156.5220 C   0  0  0  0  0  0  0  0  0  0  0  0
  157.8500  212.6160  156.9870 C   0  0  0  0  0  1  0  0  0  0  0  0
  160.0760  213.3980  156.5340 N   0  0  0  0  0  2  0  0  0  0  0  0
  2  1  1  6  0  0  0
  2 20  1  0  0  0  0
  3 13  1  0  0  0  0
  4  6  1  0  0  0  0
  4 11  1  0  0  0  0
  5 14  1  0  0  0  0
  6  8  1  0  0  0  0
  7 10  1  0  0  0  0
  8  5  2  0  0  0  0
  9 11  1  6  0  0  0
  9  5  1  0  0  0  0
  9  7  1  0  0  0  0
 10 14  2  0  0  0  0
 10 12  1  0  0  0  0
 11  3  2  0  0  0  0
 12  2  1  0  0  0  0
 13  7  1  0  0  0  0
 15 16  1  0  0  0  0
 15 22  1  0  0  0  0
 17 16  2  0  0  0  0
 18 24  1  0  0  0  0
 18 22  2  0  0  0  0
 19 20  2  0  0  0  0
 19 21  1  0  0  0  0
 20 17  1  0  0  0  0
 21 23  1  0  0  0  0
 21 15  2  0  0  0  0
 23 18  1  0  0  0  0
 24 26  2  0  0  0  0
 24 25  1  0  0  0  0
M  END
>  <MODEL>
9

>  <REMARK>
 VINA RESULT:      -7.0      2.630      8.946
  Name = 
  3 active torsions:
  status: ('A' for Active; 'I' for Inactive)
    1  A    between atoms: C_1  and  C_14
    2  A    between atoms: C_18  and  C_22
    3  A    between atoms: N_21  and  C_22
                            x       y       z     vdW  Elec       q    Type
                         _______ _______ _______ _____ _____    ______ ____

>  <TORSDO>
F 3

$$$$
