=
 OpenBabel11042420143D

 25 27  0  0  1  0  0  0  0  0999 V2000
  161.9010  207.7720  150.9400 C   0  0  0  0  0  3  0  0  0  0  0  0
  161.2460  211.2120  151.7120 N   0  0  0  0  0  0  0  0  0  0  0  0
  160.5720  209.0530  152.6400 C   0  0  0  0  0  2  0  0  0  0  0  0
  160.4930  210.5770  152.8100 C   0  0  2  0  0  0  0  0  0  0  0  0
  161.4270  208.9070  151.4550 C   0  0  0  0  0  0  0  0  0  0  0  0
  161.8090  210.1660  150.9680 N   0  0  0  0  0  0  0  0  0  0  0  0
  161.2340  205.0650  149.2390 C   0  0  0  0  0  3  0  0  0  0  0  0
  161.2570  204.7440  152.7690 N   0  0  0  0  0  0  0  0  0  0  0  0
  161.2720  205.2940  150.6130 C   0  0  0  0  0  0  0  0  0  0  0  0
  161.5470  206.0390  152.6810 N   0  0  0  0  0  2  0  0  0  0  0  0
  161.5490  206.4090  151.3790 C   0  0  0  0  0  0  0  0  0  0  0  0
  160.8180  202.9790  151.1240 C   0  0  0  0  0  3  0  0  0  0  0  0
  160.9560  203.7560  148.8080 C   0  0  0  0  0  3  0  0  0  0  0  0
  160.7410  202.7110  149.7430 C   0  0  0  0  0  0  0  0  0  0  0  0
  161.0880  204.2860  151.5180 C   0  0  0  0  0  0  0  0  0  0  0  0
  161.2520  200.7210  148.3660 C   0  0  0  0  0  1  0  0  0  0  0  0
  160.4600  201.4070  149.3270 O   0  0  0  0  0  0  0  0  0  0  0  0
  159.0330  211.0470  152.7390 C   0  0  0  0  0  2  0  0  0  0  0  0
  158.6300  211.9780  153.8780 C   0  0  0  0  0  2  0  0  0  0  0  0
  157.4140  211.4340  154.6010 C   0  0  0  0  0  1  0  0  0  0  0  0
  161.1360  210.9530  154.1460 C   0  0  0  0  0  2  0  0  0  0  0  0
  161.4760  209.7650  154.9160 N   0  0  0  0  0  2  0  0  0  0  0  0
  160.7640  209.8700  156.1760 C   0  0  0  0  0  2  0  0  0  0  0  0
  159.6190  209.0750  156.1290 O   0  0  0  0  0  0  0  0  0  0  0  0
  160.1040  207.7680  156.0760 C   0  0  0  0  0  1  0  0  0  0  0  0
  1 11  1  0  0  0  0
  1  5  2  0  0  0  0
  2  4  1  0  0  0  0
  3  4  1  0  0  0  0
  4 18  1  6  0  0  0
  4 21  1  0  0  0  0
  5  3  1  0  0  0  0
  6  5  1  0  0  0  0
  6  2  2  0  0  0  0
  7  9  1  0  0  0  0
  9 11  2  0  0  0  0
  9 15  1  0  0  0  0
 10  8  1  0  0  0  0
 11 10  1  0  0  0  0
 12 15  1  0  0  0  0
 13  7  2  0  0  0  0
 13 14  1  0  0  0  0
 14 12  2  0  0  0  0
 15  8  2  0  0  0  0
 16 17  1  0  0  0  0
 17 14  1  0  0  0  0
 18 19  1  0  0  0  0
 19 20  1  0  0  0  0
 21 22  1  0  0  0  0
 22 23  1  0  0  0  0
 24 23  1  0  0  0  0
 25 24  1  0  0  0  0
M  END
>  <MODEL>
1

>  <REMARK>
 VINA RESULT:      -6.9      0.000      0.000
  Name = 
  8 active torsions:
  status: ('A' for Active; 'I' for Inactive)
    1  A    between atoms: N_2  and  C_15
    2  A    between atoms: N_2  and  C_21
    3  A    between atoms: O_5  and  C_23
    4  A    between atoms: C_6  and  C_13
    5  A    between atoms: C_7  and  C_10
    6  A    between atoms: O_8  and  C_21
    7  A    between atoms: C_10  and  C_19
    8  A    between atoms: C_15  and  C_19
                            x       y       z     vdW  Elec       q    Type
                         _______ _______ _______ _____ _____    ______ ____

>  <TORSDO>
F 8

$$$$
=
 OpenBabel11042420143D

 25 27  0  0  1  0  0  0  0  0999 V2000
  162.3260  208.4750  150.8180 C   0  0  0  0  0  3  0  0  0  0  0  0
  161.7110  210.6540  153.5980 N   0  0  0  0  0  0  0  0  0  0  0  0
  160.5540  208.7610  152.5710 C   0  0  0  0  0  2  0  0  0  0  0  0
  160.5410  209.7650  153.7320 C   0  0  2  0  0  0  0  0  0  0  0  0
  161.7860  209.1160  151.8550 C   0  0  0  0  0  0  0  0  0  0  0  0
  162.4290  210.1890  152.4890 N   0  0  0  0  0  0  0  0  0  0  0  0
  161.9970  205.3230  151.6080 C   0  0  0  0  0  3  0  0  0  0  0  0
  160.5770  206.3310  148.5210 N   0  0  0  0  0  0  0  0  0  0  0  0
  161.6100  206.0240  150.4680 C   0  0  0  0  0  0  0  0  0  0  0  0
  161.0710  207.5030  148.9100 N   0  0  0  0  0  0  0  0  0  0  0  0
  161.7210  207.3470  150.0870 C   0  0  0  0  0  0  0  0  0  0  0  0
  160.5530  204.0820  149.4990 C   0  0  0  0  0  3  0  0  0  0  0  0
  161.6670  203.9580  151.6740 C   0  0  0  0  0  2  0  0  0  0  0  0
  160.9520  203.3310  150.6210 C   0  0  0  0  0  0  0  0  0  0  0  0
  160.9010  205.4290  149.4620 C   0  0  0  0  0  0  0  0  0  0  0  0
  160.8460  201.0880  149.5840 C   0  0  0  0  0  1  0  0  0  0  0  0
  160.6210  201.9740  150.6730 O   0  0  0  0  0  0  0  0  0  0  0  0
  159.2670  210.6210  153.6860 C   0  0  0  0  0  2  0  0  0  0  0  0
  159.5180  212.0800  153.3210 C   0  0  0  0  0  2  0  0  0  0  0  0
  158.6780  212.4790  152.1250 C   0  0  0  0  0  1  0  0  0  0  0  0
  160.6450  208.9910  155.0480 C   0  0  0  0  0  2  0  0  0  0  0  0
  160.2640  209.8250  156.1780 N   0  0  0  0  0  2  0  0  0  0  0  0
  161.1720  209.4980  157.2610 C   0  0  0  0  0  2  0  0  0  0  0  0
  162.4630  209.3520  156.7550 O   0  0  0  0  0  0  0  0  0  0  0  0
  163.1620  210.4480  157.2580 C   0  0  0  0  0  1  0  0  0  0  0  0
  1  5  2  0  0  0  0
  2  4  1  0  0  0  0
  3  4  1  0  0  0  0
  4 18  1  6  0  0  0
  4 21  1  0  0  0  0
  5  6  1  0  0  0  0
  5  3  1  0  0  0  0
  6  2  2  0  0  0  0
  7 13  1  0  0  0  0
  8 10  1  0  0  0  0
  8 15  2  0  0  0  0
  9  7  2  0  0  0  0
 10 11  2  0  0  0  0
 11  9  1  0  0  0  0
 11  1  1  0  0  0  0
 12 14  2  0  0  0  0
 14 17  1  0  0  0  0
 14 13  1  0  0  0  0
 15 12  1  0  0  0  0
 15  9  1  0  0  0  0
 16 17  1  0  0  0  0
 19 18  1  0  0  0  0
 20 19  1  0  0  0  0
 21 22  1  0  0  0  0
 22 23  1  0  0  0  0
 24 25  1  0  0  0  0
 24 23  1  0  0  0  0
M  END
>  <MODEL>
2

>  <REMARK>
 VINA RESULT:      -6.7      1.780      2.253
  Name = 
  8 active torsions:
  status: ('A' for Active; 'I' for Inactive)
    1  A    between atoms: N_2  and  C_15
    2  A    between atoms: N_2  and  C_21
    3  A    between atoms: O_5  and  C_23
    4  A    between atoms: C_6  and  C_13
    5  A    between atoms: C_7  and  C_10
    6  A    between atoms: O_8  and  C_21
    7  A    between atoms: C_10  and  C_19
    8  A    between atoms: C_15  and  C_19
                            x       y       z     vdW  Elec       q    Type
                         _______ _______ _______ _____ _____    ______ ____

>  <TORSDO>
F 8

$$$$
=
 OpenBabel11042420143D

 25 27  0  0  1  0  0  0  0  0999 V2000
  161.7680  207.3370  150.4600 C   0  0  0  0  0  3  0  0  0  0  0  0
  161.4950  210.7520  151.5180 N   0  0  0  0  0  0  0  0  0  0  0  0
  160.8360  208.5820  152.4290 C   0  0  0  0  0  2  0  0  0  0  0  0
  160.8930  210.0930  152.6920 C   0  0  2  0  0  0  0  0  0  0  0  0
  161.4680  208.4620  151.1090 C   0  0  0  0  0  0  0  0  0  0  0  0
  161.8520  209.7250  150.6330 N   0  0  0  0  0  0  0  0  0  0  0  0
  161.3370  204.5980  148.7350 C   0  0  0  0  0  3  0  0  0  0  0  0
  160.9980  204.3170  152.2520 N   0  0  0  0  0  0  0  0  0  0  0  0
  161.2270  204.8430  150.1020 C   0  0  0  0  0  0  0  0  0  0  0  0
  161.2700  205.6160  152.1770 N   0  0  0  0  0  2  0  0  0  0  0  0
  161.4010  205.9720  150.8780 C   0  0  0  0  0  0  0  0  0  0  0  0
  160.7690  202.5240  150.5930 C   0  0  0  0  0  3  0  0  0  0  0  0
  161.1330  203.2780  148.2940 C   0  0  0  0  0  3  0  0  0  0  0  0
  160.8430  202.2400  149.2160 C   0  0  0  0  0  0  0  0  0  0  0  0
  160.9710  203.8410  150.9960 C   0  0  0  0  0  0  0  0  0  0  0  0
  161.3710  200.3360  147.7280 C   0  0  0  0  0  1  0  0  0  0  0  0
  160.6330  200.9250  148.7900 O   0  0  0  0  0  0  0  0  0  0  0  0
  159.4790  210.6540  152.8980 C   0  0  0  0  0  2  0  0  0  0  0  0
  159.3360  212.1230  152.5120 C   0  0  0  0  0  2  0  0  0  0  0  0
  158.5210  212.8660  153.5510 C   0  0  0  0  0  1  0  0  0  0  0  0
  161.7760  210.3420  153.9170 C   0  0  0  0  0  2  0  0  0  0  0  0
  161.0390  210.1040  155.1500 N   0  0  0  0  0  2  0  0  0  0  0  0
  161.4350  211.1460  156.0780 C   0  0  0  0  0  2  0  0  0  0  0  0
  160.3160  211.8960  156.4380 O   0  0  0  0  0  0  0  0  0  0  0  0
  159.3220  210.9470  156.6760 C   0  0  0  0  0  1  0  0  0  0  0  0
  1 11  1  0  0  0  0
  1  5  2  0  0  0  0
  2  4  1  0  0  0  0
  3  4  1  0  0  0  0
  4 18  1  1  0  0  0
  4 21  1  0  0  0  0
  5  3  1  0  0  0  0
  6  5  1  0  0  0  0
  6  2  2  0  0  0  0
  7  9  1  0  0  0  0
  9 11  2  0  0  0  0
  9 15  1  0  0  0  0
 10  8  1  0  0  0  0
 11 10  1  0  0  0  0
 12 15  1  0  0  0  0
 13  7  2  0  0  0  0
 13 14  1  0  0  0  0
 14 12  2  0  0  0  0
 15  8  2  0  0  0  0
 16 17  1  0  0  0  0
 17 14  1  0  0  0  0
 19 18  1  0  0  0  0
 19 20  1  0  0  0  0
 21 22  1  0  0  0  0
 22 23  1  0  0  0  0
 23 24  1  0  0  0  0
 24 25  1  0  0  0  0
M  END
>  <MODEL>
3

>  <REMARK>
 VINA RESULT:      -6.6      1.204      1.228
  Name = 
  8 active torsions:
  status: ('A' for Active; 'I' for Inactive)
    1  A    between atoms: N_2  and  C_15
    2  A    between atoms: N_2  and  C_21
    3  A    between atoms: O_5  and  C_23
    4  A    between atoms: C_6  and  C_13
    5  A    between atoms: C_7  and  C_10
    6  A    between atoms: O_8  and  C_21
    7  A    between atoms: C_10  and  C_19
    8  A    between atoms: C_15  and  C_19
                            x       y       z     vdW  Elec       q    Type
                         _______ _______ _______ _____ _____    ______ ____

>  <TORSDO>
F 8

$$$$
=
 OpenBabel11042420143D

 25 27  0  0  1  0  0  0  0  0999 V2000
  161.0770  206.4410  153.8410 C   0  0  0  0  0  3  0  0  0  0  0  0
  160.7890  208.8300  156.5000 N   0  0  0  0  0  0  0  0  0  0  0  0
  160.8570  208.9310  154.0590 C   0  0  0  0  0  2  0  0  0  0  0  0
  160.6840  209.7450  155.3480 C   0  0  2  0  0  0  0  0  0  0  0  0
  161.0040  207.5600  154.5630 C   0  0  0  0  0  0  0  0  0  0  0  0
  160.9370  207.5430  155.9640 N   0  0  0  0  0  0  0  0  0  0  0  0
  160.9730  203.8860  151.8100 C   0  0  0  0  0  3  0  0  0  0  0  0
  161.2100  207.0870  150.3070 N   0  0  0  0  0  0  0  0  0  0  0  0
  161.1140  205.2490  151.5560 C   0  0  0  0  0  0  0  0  0  0  0  0
  161.2030  207.4620  151.5830 N   0  0  0  0  0  2  0  0  0  0  0  0
  161.1610  206.3630  152.3710 C   0  0  0  0  0  0  0  0  0  0  0  0
  161.0960  204.9200  149.1650 C   0  0  0  0  0  3  0  0  0  0  0  0
  160.9150  203.0230  150.7010 C   0  0  0  0  0  3  0  0  0  0  0  0
  160.9830  203.5320  149.3790 C   0  0  0  0  0  0  0  0  0  0  0  0
  161.1560  205.7460  150.2840 C   0  0  0  0  0  0  0  0  0  0  0  0
  161.0970  201.2770  148.3700 C   0  0  0  0  0  1  0  0  0  0  0  0
  160.9310  202.6850  148.2680 O   0  0  0  0  0  0  0  0  0  0  0  0
  161.7890  210.8060  155.4640 C   0  0  0  0  0  2  0  0  0  0  0  0
  162.1930  211.1220  156.9000 C   0  0  0  0  0  2  0  0  0  0  0  0
  163.6960  211.0260  157.0610 C   0  0  0  0  0  1  0  0  0  0  0  0
  159.2950  210.3860  155.3390 C   0  0  0  0  0  2  0  0  0  0  0  0
  159.3090  211.6560  154.6260 N   0  0  0  0  0  2  0  0  0  0  0  0
  158.2830  211.5700  153.6050 C   0  0  0  0  0  2  0  0  0  0  0  0
  158.8680  211.6980  152.3460 O   0  0  0  0  0  0  0  0  0  0  0  0
  159.2200  213.0440  152.2600 C   0  0  0  0  0  1  0  0  0  0  0  0
  1  5  2  0  0  0  0
  3  5  1  0  0  0  0
  3  4  1  0  0  0  0
  4 21  1  1  0  0  0
  4 18  1  0  0  0  0
  4  2  1  0  0  0  0
  5  6  1  0  0  0  0
  6  2  2  0  0  0  0
  8 10  1  0  0  0  0
  9  7  1  0  0  0  0
  9 11  2  0  0  0  0
 10 11  1  0  0  0  0
 11  1  1  0  0  0  0
 12 14  2  0  0  0  0
 12 15  1  0  0  0  0
 13  7  2  0  0  0  0
 14 13  1  0  0  0  0
 15  8  2  0  0  0  0
 15  9  1  0  0  0  0
 17 16  1  0  0  0  0
 17 14  1  0  0  0  0
 18 19  1  0  0  0  0
 19 20  1  0  0  0  0
 22 21  1  0  0  0  0
 23 22  1  0  0  0  0
 24 23  1  0  0  0  0
 25 24  1  0  0  0  0
M  END
>  <MODEL>
4

>  <REMARK>
 VINA RESULT:      -6.5      1.938      3.551
  Name = 
  8 active torsions:
  status: ('A' for Active; 'I' for Inactive)
    1  A    between atoms: N_2  and  C_15
    2  A    between atoms: N_2  and  C_21
    3  A    between atoms: O_5  and  C_23
    4  A    between atoms: C_6  and  C_13
    5  A    between atoms: C_7  and  C_10
    6  A    between atoms: O_8  and  C_21
    7  A    between atoms: C_10  and  C_19
    8  A    between atoms: C_15  and  C_19
                            x       y       z     vdW  Elec       q    Type
                         _______ _______ _______ _____ _____    ______ ____

>  <TORSDO>
F 8

$$$$
=
 OpenBabel11042420143D

 25 27  0  0  1  0  0  0  0  0999 V2000
  161.3390  208.6240  151.7250 C   0  0  0  0  0  3  0  0  0  0  0  0
  160.3040  211.9130  152.7130 N   0  0  0  0  0  0  0  0  0  0  0  0
  160.0850  209.6600  153.6360 C   0  0  0  0  0  2  0  0  0  0  0  0
  159.8090  211.1510  153.8750 C   0  0  2  0  0  0  0  0  0  0  0  0
  160.7810  209.6660  152.3430 C   0  0  0  0  0  0  0  0  0  0  0  0
  160.9050  210.9770  151.8600 N   0  0  0  0  0  0  0  0  0  0  0  0
  160.9640  205.8700  150.0110 C   0  0  0  0  0  3  0  0  0  0  0  0
  161.3610  205.5050  153.5140 N   0  0  0  0  0  0  0  0  0  0  0  0
  161.0900  206.0820  151.3820 C   0  0  0  0  0  0  0  0  0  0  0  0
  161.4300  206.8310  153.4390 N   0  0  0  0  0  2  0  0  0  0  0  0
  161.2530  207.2160  152.1530 C   0  0  0  0  0  0  0  0  0  0  0  0
  161.0630  203.7170  151.8620 C   0  0  0  0  0  3  0  0  0  0  0  0
  160.8620  204.5400  149.5670 C   0  0  0  0  0  3  0  0  0  0  0  0
  160.9050  203.4610  150.4870 C   0  0  0  0  0  0  0  0  0  0  0  0
  161.1550  205.0450  152.2690 C   0  0  0  0  0  0  0  0  0  0  0  0
  160.5280  201.7830  148.7080 C   0  0  0  0  0  1  0  0  0  0  0  0
  160.8010  202.1340  150.0590 O   0  0  0  0  0  0  0  0  0  0  0  0
  158.3010  211.3990  154.0180 C   0  0  0  0  0  2  0  0  0  0  0  0
  157.9340  212.3110  155.1850 C   0  0  0  0  0  2  0  0  0  0  0  0
  156.8750  211.6610  156.0520 C   0  0  0  0  0  1  0  0  0  0  0  0
  160.5690  211.5930  155.1270 C   0  0  0  0  0  2  0  0  0  0  0  0
  160.9830  210.4450  155.9210 N   0  0  0  0  0  2  0  0  0  0  0  0
  162.3850  210.6430  156.2370 C   0  0  0  0  0  2  0  0  0  0  0  0
  162.8260  209.6100  157.0620 O   0  0  0  0  0  0  0  0  0  0  0  0
  161.9500  208.5570  156.8000 C   0  0  0  0  0  1  0  0  0  0  0  0
  1 11  1  0  0  0  0
  1  5  2  0  0  0  0
  2  4  1  0  0  0  0
  3  4  1  0  0  0  0
  4 18  1  1  0  0  0
  4 21  1  0  0  0  0
  5  3  1  0  0  0  0
  6  5  1  0  0  0  0
  6  2  2  0  0  0  0
  7  9  1  0  0  0  0
  9 11  2  0  0  0  0
  9 15  1  0  0  0  0
 10  8  1  0  0  0  0
 11 10  1  0  0  0  0
 12 15  1  0  0  0  0
 13  7  2  0  0  0  0
 13 14  1  0  0  0  0
 14 12  2  0  0  0  0
 15  8  2  0  0  0  0
 16 17  1  0  0  0  0
 17 14  1  0  0  0  0
 18 19  1  0  0  0  0
 19 20  1  0  0  0  0
 21 22  1  0  0  0  0
 22 23  1  0  0  0  0
 23 24  1  0  0  0  0
 25 24  1  0  0  0  0
M  END
>  <MODEL>
5

>  <REMARK>
 VINA RESULT:      -6.5      1.311      1.485
  Name = 
  8 active torsions:
  status: ('A' for Active; 'I' for Inactive)
    1  A    between atoms: N_2  and  C_15
    2  A    between atoms: N_2  and  C_21
    3  A    between atoms: O_5  and  C_23
    4  A    between atoms: C_6  and  C_13
    5  A    between atoms: C_7  and  C_10
    6  A    between atoms: O_8  and  C_21
    7  A    between atoms: C_10  and  C_19
    8  A    between atoms: C_15  and  C_19
                            x       y       z     vdW  Elec       q    Type
                         _______ _______ _______ _____ _____    ______ ____

>  <TORSDO>
F 8

$$$$
=
 OpenBabel11042420143D

 25 27  0  0  1  0  0  0  0  0999 V2000
  161.1680  206.6330  151.9190 C   0  0  0  0  0  3  0  0  0  0  0  0
  160.7580  208.4310  154.9950 N   0  0  0  0  0  0  0  0  0  0  0  0
  161.1270  209.0320  152.6540 C   0  0  0  0  0  2  0  0  0  0  0  0
  160.8680  209.5730  154.0670 C   0  0  2  0  0  0  0  0  0  0  0  0
  161.1010  207.5780  152.8570 C   0  0  0  0  0  0  0  0  0  0  0  0
  160.8640  207.2760  154.2070 N   0  0  0  0  0  0  0  0  0  0  0  0
  161.2050  204.5650  149.3920 C   0  0  0  0  0  3  0  0  0  0  0  0
  161.7390  207.9870  148.6370 N   0  0  0  0  0  0  0  0  0  0  0  0
  161.4270  205.9400  149.4500 C   0  0  0  0  0  0  0  0  0  0  0  0
  161.5970  208.0890  149.9550 N   0  0  0  0  0  2  0  0  0  0  0  0
  161.4200  206.8560  150.4840 C   0  0  0  0  0  0  0  0  0  0  0  0
  161.6760  206.1130  147.0560 C   0  0  0  0  0  3  0  0  0  0  0  0
  161.2450  203.9550  148.1250 C   0  0  0  0  0  3  0  0  0  0  0  0
  161.4860  204.7210  146.9560 C   0  0  0  0  0  0  0  0  0  0  0  0
  161.6370  206.6850  148.3240 C   0  0  0  0  0  0  0  0  0  0  0  0
  160.9180  204.7060  144.5490 C   0  0  0  0  0  1  0  0  0  0  0  0
  161.5320  204.1260  145.6920 O   0  0  0  0  0  0  0  0  0  0  0  0
  162.0330  210.4630  154.5210 C   0  0  0  0  0  2  0  0  0  0  0  0
  161.8930  210.9810  155.9490 C   0  0  0  0  0  2  0  0  0  0  0  0
  163.0650  210.5230  156.7950 C   0  0  0  0  0  1  0  0  0  0  0  0
  159.5470  210.3440  154.0600 C   0  0  0  0  0  2  0  0  0  0  0  0
  159.3710  211.0690  152.8100 N   0  0  0  0  0  2  0  0  0  0  0  0
  158.3260  212.0490  153.0430 C   0  0  0  0  0  2  0  0  0  0  0  0
  158.4620  213.0960  152.1320 O   0  0  0  0  0  0  0  0  0  0  0  0
  159.7060  212.8850  151.5400 C   0  0  0  0  0  1  0  0  0  0  0  0
  1  5  2  0  0  0  0
  3  5  1  0  0  0  0
  3  4  1  0  0  0  0
  4 21  1  1  0  0  0
  4 18  1  0  0  0  0
  4  2  1  0  0  0  0
  5  6  1  0  0  0  0
  6  2  2  0  0  0  0
  7  9  1  0  0  0  0
  8 10  1  0  0  0  0
  9 11  2  0  0  0  0
 10 11  1  0  0  0  0
 11  1  1  0  0  0  0
 12 15  1  0  0  0  0
 13  7  2  0  0  0  0
 14 12  2  0  0  0  0
 14 13  1  0  0  0  0
 15  8  2  0  0  0  0
 15  9  1  0  0  0  0
 16 17  1  0  0  0  0
 17 14  1  0  0  0  0
 18 19  1  0  0  0  0
 19 20  1  0  0  0  0
 22 23  1  0  0  0  0
 22 21  1  0  0  0  0
 24 23  1  0  0  0  0
 25 24  1  0  0  0  0
M  END
>  <MODEL>
6

>  <REMARK>
 VINA RESULT:      -6.4      2.383      3.897
  Name = 
  8 active torsions:
  status: ('A' for Active; 'I' for Inactive)
    1  A    between atoms: N_2  and  C_15
    2  A    between atoms: N_2  and  C_21
    3  A    between atoms: O_5  and  C_23
    4  A    between atoms: C_6  and  C_13
    5  A    between atoms: C_7  and  C_10
    6  A    between atoms: O_8  and  C_21
    7  A    between atoms: C_10  and  C_19
    8  A    between atoms: C_15  and  C_19
                            x       y       z     vdW  Elec       q    Type
                         _______ _______ _______ _____ _____    ______ ____

>  <TORSDO>
F 8

$$$$
=
 OpenBabel11042420143D

 25 27  0  0  1  0  0  0  0  0999 V2000
  161.0510  206.8800  151.9550 C   0  0  0  0  0  3  0  0  0  0  0  0
  160.5660  208.5500  155.0910 N   0  0  0  0  0  0  0  0  0  0  0  0
  161.2180  209.2240  152.8330 C   0  0  0  0  0  2  0  0  0  0  0  0
  160.8920  209.7180  154.2500 C   0  0  2  0  0  0  0  0  0  0  0  0
  161.0060  207.7760  152.9420 C   0  0  0  0  0  0  0  0  0  0  0  0
  160.6110  207.4340  154.2440 N   0  0  0  0  0  0  0  0  0  0  0  0
  161.2440  204.9140  149.3550 C   0  0  0  0  0  3  0  0  0  0  0  0
  162.0220  208.3290  148.8110 N   0  0  0  0  0  0  0  0  0  0  0  0
  161.5270  206.2710  149.4960 C   0  0  0  0  0  0  0  0  0  0  0  0
  161.7510  208.3870  150.1120 N   0  0  0  0  0  2  0  0  0  0  0  0
  161.4600  207.1450  150.5640 C   0  0  0  0  0  0  0  0  0  0  0  0
  162.0290  206.5250  147.1490 C   0  0  0  0  0  3  0  0  0  0  0  0
  161.3830  204.3530  148.0730 C   0  0  0  0  0  3  0  0  0  0  0  0
  161.7810  205.1500  146.9690 C   0  0  0  0  0  0  0  0  0  0  0  0
  161.8880  207.0470  148.4310 C   0  0  0  0  0  0  0  0  0  0  0  0
  160.8190  204.3280  144.8430 C   0  0  0  0  0  1  0  0  0  0  0  0
  161.9270  204.6040  145.6910 O   0  0  0  0  0  0  0  0  0  0  0  0
  162.1050  210.4370  154.8580 C   0  0  0  0  0  2  0  0  0  0  0  0
  162.3860  210.0530  156.3070 C   0  0  0  0  0  2  0  0  0  0  0  0
  162.2400  211.2600  157.2120 C   0  0  0  0  0  1  0  0  0  0  0  0
  159.6750  210.6410  154.1770 C   0  0  0  0  0  2  0  0  0  0  0  0
  158.9800  210.6950  155.4550 N   0  0  0  0  0  2  0  0  0  0  0  0
  157.8540  211.5920  155.2790 C   0  0  0  0  0  2  0  0  0  0  0  0
  156.6760  210.9320  155.6240 O   0  0  0  0  0  0  0  0  0  0  0  0
  155.7980  211.9520  155.9870 C   0  0  0  0  0  1  0  0  0  0  0  0
  1  5  2  0  0  0  0
  3  5  1  0  0  0  0
  3  4  1  0  0  0  0
  4 21  1  6  0  0  0
  4 18  1  0  0  0  0
  4  2  1  0  0  0  0
  5  6  1  0  0  0  0
  6  2  2  0  0  0  0
  7  9  1  0  0  0  0
  8 10  1  0  0  0  0
  9 11  2  0  0  0  0
 10 11  1  0  0  0  0
 11  1  1  0  0  0  0
 12 15  1  0  0  0  0
 13  7  2  0  0  0  0
 14 12  2  0  0  0  0
 14 13  1  0  0  0  0
 15  8  2  0  0  0  0
 15  9  1  0  0  0  0
 16 17  1  0  0  0  0
 17 14  1  0  0  0  0
 18 19  1  0  0  0  0
 19 20  1  0  0  0  0
 21 22  1  0  0  0  0
 23 22  1  0  0  0  0
 23 24  1  0  0  0  0
 24 25  1  0  0  0  0
M  END
>  <MODEL>
7

>  <REMARK>
 VINA RESULT:      -6.2      2.264      3.721
  Name = 
  8 active torsions:
  status: ('A' for Active; 'I' for Inactive)
    1  A    between atoms: N_2  and  C_15
    2  A    between atoms: N_2  and  C_21
    3  A    between atoms: O_5  and  C_23
    4  A    between atoms: C_6  and  C_13
    5  A    between atoms: C_7  and  C_10
    6  A    between atoms: O_8  and  C_21
    7  A    between atoms: C_10  and  C_19
    8  A    between atoms: C_15  and  C_19
                            x       y       z     vdW  Elec       q    Type
                         _______ _______ _______ _____ _____    ______ ____

>  <TORSDO>
F 8

$$$$
=
 OpenBabel11042420143D

 25 27  0  0  1  0  0  0  0  0999 V2000
  161.3970  210.0980  152.7250 C   0  0  0  0  0  2  0  0  0  0  0  0
  162.6070  207.6340  150.4170 N   0  0  0  0  0  2  0  0  0  0  0  0
  160.9250  207.6920  152.1900 C   0  0  0  0  0  2  0  0  0  0  0  0
  161.5550  206.8400  151.0790 C   0  0  2  0  0  0  0  0  0  0  0  0
  161.6400  208.9680  152.0600 C   0  0  0  0  0  0  0  0  0  0  0  0
  162.5780  208.9000  151.0190 N   0  0  0  0  0  0  0  0  0  0  0  0
  158.7300  211.9580  153.0140 C   0  0  0  0  0  3  0  0  0  0  0  0
  159.4730  209.8320  155.7510 N   0  0  0  0  0  0  0  0  0  0  0  0
  159.3230  211.0680  153.9070 C   0  0  0  0  0  0  0  0  0  0  0  0
  160.4940  209.5120  154.9620 N   0  0  0  0  0  0  0  0  0  0  0  0
  160.4400  210.2600  153.8350 C   0  0  0  0  0  0  0  0  0  0  0  0
  157.5770  211.3740  155.5460 C   0  0  0  0  0  3  0  0  0  0  0  0
  157.5380  212.5860  153.4200 C   0  0  0  0  0  3  0  0  0  0  0  0
  156.9610  212.3030  154.6850 C   0  0  0  0  0  0  0  0  0  0  0  0
  158.7580  210.7760  155.1170 C   0  0  1  0  0  3  0  0  0  0  0  0
  155.6600  213.5830  156.3540 C   0  0  0  0  0  1  0  0  0  0  0  0
  155.7790  212.9230  155.1010 O   0  0  0  0  0  0  0  0  0  0  0  0
  162.1940  205.5760  151.6720 C   0  0  0  0  0  2  0  0  0  0  0  0
  161.2050  204.6640  152.3900 C   0  0  0  0  0  2  0  0  0  0  0  0
  161.2030  203.2850  151.7600 C   0  0  0  0  0  1  0  0  0  0  0  0
  160.4700  206.4910  150.0580 C   0  0  0  0  0  2  0  0  0  0  0  0
  160.8170  206.9890  148.7350 N   0  0  0  0  0  2  0  0  0  0  0  0
  160.8980  205.8320  147.8640 C   0  0  0  0  0  2  0  0  0  0  0  0
  160.8460  204.6690  148.6300 O   0  0  0  0  0  0  0  0  0  0  0  0
  161.5570  203.7280  147.8860 C   0  0  0  0  0  1  0  0  0  0  0  0
  1 11  1  0  0  0  0
  2  6  1  0  0  0  0
  2  4  1  0  0  0  0
  4 21  1  6  0  0  0
  4 18  1  0  0  0  0
  4  3  1  0  0  0  0
  5  3  1  0  0  0  0
  5  1  1  0  0  0  0
  6  5  2  0  0  0  0
  7 13  2  0  0  0  0
  7  9  1  0  0  0  0
  9 15  1  0  0  0  0
 10  8  2  0  0  0  0
 11  9  2  0  0  0  0
 11 10  1  0  0  0  0
 13 14  1  0  0  0  0
 14 17  1  0  0  0  0
 14 12  2  0  0  0  0
 15 12  1  6  0  0  0
 15  8  1  0  0  0  0
 17 16  1  0  0  0  0
 18 19  1  0  0  0  0
 20 19  1  0  0  0  0
 22 21  1  0  0  0  0
 23 24  1  0  0  0  0
 23 22  1  0  0  0  0
 25 24  1  0  0  0  0
M  END
>  <MODEL>
8

>  <REMARK>
 VINA RESULT:      -6.1      2.224      8.043
  Name = 
  8 active torsions:
  status: ('A' for Active; 'I' for Inactive)
    1  A    between atoms: N_2  and  C_15
    2  A    between atoms: N_2  and  C_21
    3  A    between atoms: O_5  and  C_23
    4  A    between atoms: C_6  and  C_13
    5  A    between atoms: C_7  and  C_10
    6  A    between atoms: O_8  and  C_21
    7  A    between atoms: C_10  and  C_19
    8  A    between atoms: C_15  and  C_19
                            x       y       z     vdW  Elec       q    Type
                         _______ _______ _______ _____ _____    ______ ____

>  <TORSDO>
F 8

$$$$
=
 OpenBabel11042420143D

 25 27  0  0  1  0  0  0  0  0999 V2000
  161.5310  208.0390  152.9960 C   0  0  0  0  0  3  0  0  0  0  0  0
  160.5000  211.0280  154.6880 N   0  0  0  0  0  0  0  0  0  0  0  0
  160.0530  210.0080  152.5110 C   0  0  0  0  0  2  0  0  0  0  0  0
  159.7110  211.1740  153.4500 C   0  0  2  0  0  0  0  0  0  0  0  0
  161.0030  209.2230  153.3090 C   0  0  0  0  0  0  0  0  0  0  0  0
  161.2140  209.8290  154.5570 N   0  0  0  0  0  0  0  0  0  0  0  0
  161.2050  204.8640  152.3090 C   0  0  0  0  0  3  0  0  0  0  0  0
  161.0420  207.0960  149.5610 N   0  0  0  0  0  0  0  0  0  0  0  0
  161.2400  205.9790  151.4750 C   0  0  0  0  0  0  0  0  0  0  0  0
  161.2320  207.9840  150.5330 N   0  0  0  0  0  0  0  0  0  0  0  0
  161.3710  207.3340  151.7120 C   0  0  0  0  0  0  0  0  0  0  0  0
  160.8380  204.6530  149.4980 C   0  0  0  0  0  3  0  0  0  0  0  0
  161.0030  203.6100  151.7050 C   0  0  0  0  0  2  0  0  0  0  0  0
  160.8250  203.4970  150.3030 C   0  0  0  0  0  0  0  0  0  0  0  0
  161.0460  205.8780  150.1260 C   0  0  0  0  0  0  0  0  0  0  0  0
  160.9490  202.0130  148.3280 C   0  0  0  0  0  1  0  0  0  0  0  0
  160.6270  202.2560  149.6910 O   0  0  0  0  0  0  0  0  0  0  0  0
  160.0730  212.5140  152.7930 C   0  0  0  0  0  2  0  0  0  0  0  0
  159.1960  212.8700  151.5970 C   0  0  0  0  0  2  0  0  0  0  0  0
  160.0030  213.6130  150.5520 C   0  0  0  0  0  1  0  0  0  0  0  0
  158.2210  211.1040  153.7910 C   0  0  0  0  0  2  0  0  0  0  0  0
  158.0180  210.9850  155.2280 N   0  0  0  0  0  2  0  0  0  0  0  0
  156.6540  211.4050  155.4900 C   0  0  0  0  0  2  0  0  0  0  0  0
  156.3440  212.5020  154.6870 O   0  0  0  0  0  0  0  0  0  0  0  0
  155.7310  213.4060  155.5540 C   0  0  0  0  0  1  0  0  0  0  0  0
  1  5  2  0  0  0  0
  3  5  1  0  0  0  0
  3  4  1  0  0  0  0
  4 18  1  6  0  0  0
  4 21  1  0  0  0  0
  4  2  1  0  0  0  0
  5  6  1  0  0  0  0
  6  2  2  0  0  0  0
  8 15  2  0  0  0  0
  8 10  1  0  0  0  0
  9 11  1  0  0  0  0
  9  7  2  0  0  0  0
 10 11  2  0  0  0  0
 11  1  1  0  0  0  0
 12 15  1  0  0  0  0
 12 14  2  0  0  0  0
 13  7  1  0  0  0  0
 14 13  1  0  0  0  0
 15  9  1  0  0  0  0
 16 17  1  0  0  0  0
 17 14  1  0  0  0  0
 19 18  1  0  0  0  0
 20 19  1  0  0  0  0
 21 22  1  0  0  0  0
 22 23  1  0  0  0  0
 24 23  1  0  0  0  0
 24 25  1  0  0  0  0
M  END
>  <MODEL>
9

>  <REMARK>
 VINA RESULT:      -5.9      2.009      3.140
  Name = 
  8 active torsions:
  status: ('A' for Active; 'I' for Inactive)
    1  A    between atoms: N_2  and  C_15
    2  A    between atoms: N_2  and  C_21
    3  A    between atoms: O_5  and  C_23
    4  A    between atoms: C_6  and  C_13
    5  A    between atoms: C_7  and  C_10
    6  A    between atoms: O_8  and  C_21
    7  A    between atoms: C_10  and  C_19
    8  A    between atoms: C_15  and  C_19
                            x       y       z     vdW  Elec       q    Type
                         _______ _______ _______ _____ _____    ______ ____

>  <TORSDO>
F 8

$$$$
