=
 OpenBabel11052412163D

 41 45  0  0  1  0  0  0  0  0999 V2000
  159.1790  213.3670  151.8200 C   0  0  2  0  0  3  0  0  0  0  0  0
  161.8540  213.8470  147.7510 Cl  0  0  0  0  0  0  0  0  0  0  0  0
  160.6730  212.8670  148.5740 N   0  0  0  0  0  0  0  0  0  0  0  0
  162.0950  211.3480  151.0740 C   0  0  0  0  0  2  0  0  0  0  0  0
  160.7050  211.9210  150.8400 C   0  0  2  0  0  3  0  0  0  0  0  0
  158.6290  214.4370  149.6850 N   0  0  0  0  0  2  0  0  0  0  0  0
  160.7850  213.1830  150.0110 C   0  0  2  0  0  3  0  0  0  0  0  0
  158.3110  213.2920  148.9440 N   0  0  0  0  0  2  0  0  0  0  0  0
  160.1130  212.2880  152.1230 N   0  0  2  0  0  0  0  0  0  0  0  0
  160.2700  210.0660  153.1470 C   0  0  0  0  0  2  0  0  0  0  0  0
  162.0970  209.8390  151.3550 C   0  0  0  0  0  2  0  0  0  0  0  0
  159.3420  211.1560  152.6220 C   0  0  0  0  0  2  0  0  0  0  0  0
  159.3710  213.1530  147.9540 C   0  0  2  0  0  3  0  0  0  0  0  0
  160.8170  209.2560  151.9770 C   0  0  1  0  0  3  0  0  0  0  0  0
  159.7170  214.1100  150.6070 C   0  0  2  0  0  3  0  0  0  0  0  0
  159.6450  212.2490  144.8960 N   0  0  0  0  0  0  0  0  0  0  0  0
  158.6370  212.8030  145.6380 O   0  0  0  0  0  0  0  0  0  0  0  0
  160.2060  211.6150  146.0690 C   0  0  0  0  0  2  0  0  0  0  0  0
  159.0340  212.1550  146.8230 C   0  0  1  0  0  3  0  0  0  0  0  0
  161.0560  214.4350  145.5170 O   0  0  0  0  0  1  0  0  0  0  0  0
  159.9080  214.4500  143.1750 O   0  0  0  0  0  0  0  0  0  0  0  0
  160.7130  213.5390  144.3510 P   0  0  0  0  0  0  0  0  0  0  0  0
  162.1380  212.9210  143.6800 O   0  0  0  0  0  1  0  0  0  0  0  0
  161.0040  207.7870  152.3520 C   0  0  0  0  0  2  0  0  0  0  0  0
  162.8690  207.3280  150.2050 O   0  0  0  0  0  0  0  0  0  0  0  0
  160.7950  206.9100  151.2050 N   0  0  0  0  0  2  0  0  0  0  0  0
  161.7350  206.7810  150.1350 C   0  0  0  0  0  0  0  0  0  0  0  0
  161.3040  205.8590  148.7080 S   0  0  0  0  0  0  0  0  0  0  0  0
  160.3360  206.6530  147.8740 O   0  0  0  0  0  0  0  0  0  0  0  0
  162.5460  205.5830  147.9040 O   0  0  0  0  0  0  0  0  0  0  0  0
  160.5850  204.3630  149.1970 N   0  0  0  0  0  2  0  0  0  0  0  0
  161.1080  203.3170  148.3280 C   0  0  0  0  0  2  0  0  0  0  0  0
  161.2110  200.8580  147.9690 C   0  0  0  0  0  1  0  0  0  0  0  0
  160.8880  201.9560  148.9630 C   0  0  0  0  0  2  0  0  0  0  0  0
  159.0630  214.3050  153.0160 C   0  0  0  0  0  2  0  0  0  0  0  0
  155.4550  214.2530  152.2720 C   0  0  0  0  0  1  0  0  0  0  0  0
  156.7320  213.5340  152.6580 C   0  0  2  0  0  3  0  0  0  0  0  0
  156.5490  214.3500  155.4910 N   0  0  0  0  0  1  0  0  0  0  0  0
  156.5160  212.7660  153.8750 N   0  0  0  0  0  2  0  0  0  0  0  0
  157.3650  213.6160  154.6170 N   0  0  0  0  0  0  0  0  0  0  0  0
  157.6110  214.4520  153.4530 C   0  0  1  0  0  3  0  0  0  0  0  0
  1  9  1  0  0  0  0
  1 35  1  1  0  0  0
  2  3  1  0  0  0  0
  4 11  1  0  0  0  0
  5  4  1  1  0  0  0
  5  9  1  0  0  0  0
  7  3  1  6  0  0  0
  7 15  1  0  0  0  0
  7  5  1  0  0  0  0
  8  6  1  0  0  0  0
  9 12  1  6  0  0  0
 11 14  1  0  0  0  0
 12 10  1  0  0  0  0
 13  3  1  0  0  0  0
 13  8  1  1  0  0  0
 14 24  1  1  0  0  0
 14 10  1  0  0  0  0
 15  6  1  6  0  0  0
 15  1  1  0  0  0  0
 16 17  1  0  0  0  0
 16 18  1  0  0  0  0
 17 19  1  0  0  0  0
 19 18  1  6  0  0  0
 19 13  1  0  0  0  0
 21 22  2  0  0  0  0
 22 16  1  0  0  0  0
 22 20  1  0  0  0  0
 23 22  1  0  0  0  0
 26 24  1  0  0  0  0
 27 25  2  0  0  0  0
 27 26  1  0  0  0  0
 28 31  1  0  0  0  0
 28 27  1  0  0  0  0
 29 28  2  0  0  0  0
 30 28  2  0  0  0  0
 32 34  1  0  0  0  0
 32 31  1  0  0  0  0
 33 34  1  0  0  0  0
 37 36  1  1  0  0  0
 37 41  1  0  0  0  0
 37 39  1  0  0  0  0
 39 40  1  0  0  0  0
 40 38  1  0  0  0  0
 41 35  1  6  0  0  0
 41 40  1  0  0  0  0
M  END
>  <MODEL>
1

>  <REMARK>
 VINA RESULT:      -4.9      0.000      0.000
  Name = 
  10 active torsions:
  status: ('A' for Active; 'I' for Inactive)
    1  A    between atoms: C_1  and  C_30
    2  A    between atoms: S_7  and  N_21
    3  A    between atoms: S_7  and  C_41
    4  A    between atoms: N_10  and  P_29
    5  A    between atoms: N_16  and  C_18
    6  A    between atoms: C_18  and  C_37
    7  A    between atoms: N_21  and  C_40
    8  A    between atoms: C_24  and  C_40
    9  A    between atoms: C_30  and  C_34
   10  A    between atoms: C_36  and  C_39
                            x       y       z     vdW  Elec       q    Type
                         _______ _______ _______ _____ _____    ______ ____

>  <TORSDO>
F 10

$$$$
=
 OpenBabel11052412163D

 41 45  0  0  1  0  0  0  0  0999 V2000
  161.1580  210.0790  151.0930 C   0  0  2  0  0  3  0  0  0  0  0  0
  163.7460  212.4120  147.6570 Cl  0  0  0  0  0  0  0  0  0  0  0  0
  162.2990  211.4980  147.9780 N   0  0  0  0  0  0  0  0  0  0  0  0
  163.0930  208.3940  148.5350 C   0  0  0  0  0  2  0  0  0  0  0  0
  162.0140  209.3200  149.0760 C   0  0  2  0  0  3  0  0  0  0  0  0
  161.0110  212.3950  150.3040 N   0  0  0  0  0  2  0  0  0  0  0  0
  162.5460  210.7290  149.2130 C   0  0  2  0  0  3  0  0  0  0  0  0
  160.2750  212.1790  149.1330 N   0  0  0  0  0  2  0  0  0  0  0  0
  161.6260  208.8780  150.4110 N   0  0  2  0  0  0  0  0  0  0  0  0
  160.9590  206.6080  149.7680 C   0  0  0  0  0  2  0  0  0  0  0  0
  162.5360  207.1570  147.8160 C   0  0  0  0  0  2  0  0  0  0  0  0
  160.4960  207.9640  150.2900 C   0  0  0  0  0  2  0  0  0  0  0  0
  161.1870  212.4590  148.0320 C   0  0  2  0  0  3  0  0  0  0  0  0
  161.1420  206.6790  148.2560 C   0  0  1  0  0  3  0  0  0  0  0  0
  161.9130  211.2610  150.5050 C   0  0  2  0  0  3  0  0  0  0  0  0
  158.5530  213.1330  146.3440 N   0  0  0  0  0  0  0  0  0  0  0  0
  159.2240  211.9770  146.6400 O   0  0  0  0  0  0  0  0  0  0  0  0
  159.7720  213.9070  146.4470 C   0  0  0  0  0  2  0  0  0  0  0  0
  160.4810  212.6100  146.6660 C   0  0  1  0  0  3  0  0  0  0  0  0
  158.2570  214.3000  148.7330 O   0  0  0  0  0  1  0  0  0  0  0  0
  156.9340  212.0810  148.3800 O   0  0  0  0  0  1  0  0  0  0  0  0
  157.4880  213.5230  147.6920 P   0  0  0  0  0  0  0  0  0  0  0  0
  156.1550  214.4330  147.1850 O   0  0  0  0  0  0  0  0  0  0  0  0
  160.7720  205.3580  147.5850 C   0  0  0  0  0  2  0  0  0  0  0  0
  161.0900  202.5830  146.8810 O   0  0  0  0  0  0  0  0  0  0  0  0
  160.8590  204.2400  148.5180 N   0  0  0  0  0  2  0  0  0  0  0  0
  160.9450  202.8750  148.0990 C   0  0  0  0  0  0  0  0  0  0  0  0
  160.8410  201.5940  149.2910 S   0  0  0  0  0  0  0  0  0  0  0  0
  159.3960  201.3300  149.6160 O   0  0  0  0  0  0  0  0  0  0  0  0
  161.4620  200.3440  148.7290 O   0  0  0  0  0  0  0  0  0  0  0  0
  161.6960  202.0770  150.7160 N   0  0  0  0  0  2  0  0  0  0  0  0
  160.8780  203.0630  151.4090 C   0  0  0  0  0  2  0  0  0  0  0  0
  160.9830  205.1660  152.7330 C   0  0  0  0  0  1  0  0  0  0  0  0
  161.7540  203.9410  152.2850 C   0  0  0  0  0  2  0  0  0  0  0  0
  161.4230  209.9650  152.5900 C   0  0  0  0  0  2  0  0  0  0  0  0
  159.6340  210.2720  155.7970 C   0  0  0  0  0  1  0  0  0  0  0  0
  160.5550  210.8480  154.7400 C   0  0  2  0  0  3  0  0  0  0  0  0
  158.3290  211.6200  152.9590 N   0  0  0  0  0  1  0  0  0  0  0  0
  160.0630  212.1490  154.3140 N   0  0  0  0  0  2  0  0  0  0  0  0
  159.7290  211.6550  153.0340 N   0  0  0  0  0  0  0  0  0  0  0  0
  160.1760  210.3180  153.3910 C   0  0  1  0  0  3  0  0  0  0  0  0
  1 35  1  1  0  0  0
  2  3  1  0  0  0  0
  3 13  1  0  0  0  0
  5  4  1  1  0  0  0
  5  7  1  0  0  0  0
  5  9  1  0  0  0  0
  7  3  1  6  0  0  0
  7 15  1  0  0  0  0
  8  6  1  0  0  0  0
  9 12  1  6  0  0  0
  9  1  1  0  0  0  0
 10 12  1  0  0  0  0
 11 14  1  0  0  0  0
 11  4  1  0  0  0  0
 13  8  1  1  0  0  0
 14 24  1  6  0  0  0
 14 10  1  0  0  0  0
 15  6  1  6  0  0  0
 15  1  1  0  0  0  0
 16 18  1  0  0  0  0
 16 17  1  0  0  0  0
 16 22  1  0  0  0  0
 17 19  1  0  0  0  0
 19 18  1  1  0  0  0
 19 13  1  0  0  0  0
 22 21  1  0  0  0  0
 22 20  1  0  0  0  0
 23 22  2  0  0  0  0
 24 26  1  0  0  0  0
 25 27  2  0  0  0  0
 27 26  1  0  0  0  0
 27 28  1  0  0  0  0
 28 29  2  0  0  0  0
 28 31  1  0  0  0  0
 30 28  2  0  0  0  0
 31 32  1  0  0  0  0
 32 34  1  0  0  0  0
 34 33  1  0  0  0  0
 37 36  1  1  0  0  0
 38 40  1  0  0  0  0
 39 37  1  0  0  0  0
 40 41  1  0  0  0  0
 40 39  1  0  0  0  0
 41 35  1  6  0  0  0
 41 37  1  0  0  0  0
M  END
>  <MODEL>
2

>  <REMARK>
 VINA RESULT:      -4.8      3.020      4.297
  Name = 
  10 active torsions:
  status: ('A' for Active; 'I' for Inactive)
    1  A    between atoms: C_1  and  C_30
    2  A    between atoms: S_7  and  N_21
    3  A    between atoms: S_7  and  C_41
    4  A    between atoms: N_10  and  P_29
    5  A    between atoms: N_16  and  C_18
    6  A    between atoms: C_18  and  C_37
    7  A    between atoms: N_21  and  C_40
    8  A    between atoms: C_24  and  C_40
    9  A    between atoms: C_30  and  C_34
   10  A    between atoms: C_36  and  C_39
                            x       y       z     vdW  Elec       q    Type
                         _______ _______ _______ _____ _____    ______ ____

>  <TORSDO>
F 10

$$$$
=
 OpenBabel11052412163D

 41 45  0  0  1  0  0  0  0  0999 V2000
  159.6030  212.3320  152.6930 C   0  0  2  0  0  3  0  0  0  0  0  0
  161.5070  214.3860  148.6810 Cl  0  0  0  0  0  0  0  0  0  0  0  0
  160.4400  213.1470  149.2800 N   0  0  0  0  0  0  0  0  0  0  0  0
  162.2020  210.8020  150.6840 C   0  0  0  0  0  2  0  0  0  0  0  0
  160.8300  211.4000  150.9600 C   0  0  2  0  0  3  0  0  0  0  0  0
  158.7360  214.1360  151.2790 N   0  0  0  0  0  2  0  0  0  0  0  0
  160.8330  212.8860  150.6770 C   0  0  2  0  0  3  0  0  0  0  0  0
  158.2170  213.3620  150.2330 N   0  0  0  0  0  2  0  0  0  0  0  0
  160.5090  211.2340  152.3740 N   0  0  2  0  0  0  0  0  0  0  0  0
  160.7150  208.7920  152.4210 C   0  0  0  0  0  2  0  0  0  0  0  0
  162.1630  209.3020  150.3610 C   0  0  0  0  0  2  0  0  0  0  0  0
  159.7750  209.9860  152.5420 C   0  0  0  0  0  2  0  0  0  0  0  0
  159.0660  213.6310  149.0800 C   0  0  2  0  0  3  0  0  0  0  0  0
  160.9860  208.5040  150.9490 C   0  0  1  0  0  3  0  0  0  0  0  0
  159.9530  213.4940  151.7760 C   0  0  2  0  0  3  0  0  0  0  0  0
  159.4720  212.7360  146.0340 N   0  0  0  0  0  0  0  0  0  0  0  0
  158.9680  213.8560  146.6380 O   0  0  0  0  0  0  0  0  0  0  0  0
  159.0920  211.9150  147.1650 C   0  0  0  0  0  2  0  0  0  0  0  0
  158.4650  213.1420  147.7420 C   0  0  1  0  0  3  0  0  0  0  0  0
  161.8490  211.8840  146.9190 O   0  0  0  0  0  1  0  0  0  0  0  0
  161.6630  214.4410  146.4380 O   0  0  0  0  0  1  0  0  0  0  0  0
  161.2260  212.8770  145.9660 P   0  0  0  0  0  0  0  0  0  0  0  0
  161.8090  212.5960  144.4030 O   0  0  0  0  0  0  0  0  0  0  0  0
  161.1480  207.0080  150.6910 C   0  0  0  0  0  2  0  0  0  0  0  0
  160.6600  204.4790  149.4000 O   0  0  0  0  0  0  0  0  0  0  0  0
  161.3130  206.7230  149.2700 N   0  0  0  0  0  2  0  0  0  0  0  0
  161.1210  205.4240  148.7030 C   0  0  0  0  0  0  0  0  0  0  0  0
  161.5370  205.1390  147.0250 S   0  0  0  0  0  0  0  0  0  0  0  0
  160.3620  205.4870  146.1530 O   0  0  0  0  0  0  0  0  0  0  0  0
  162.7100  206.0050  146.6520 O   0  0  0  0  0  0  0  0  0  0  0  0
  161.9600  203.4730  146.8220 N   0  0  0  0  0  2  0  0  0  0  0  0
  160.9690  202.8700  145.9400 C   0  0  0  0  0  2  0  0  0  0  0  0
  161.2030  201.2260  147.7920 C   0  0  0  0  0  1  0  0  0  0  0  0
  160.6600  201.4550  146.3950 C   0  0  0  0  0  2  0  0  0  0  0  0
  159.7680  212.7340  154.1550 C   0  0  0  0  0  2  0  0  0  0  0  0
  157.1020  214.2880  156.1690 C   0  0  0  0  0  1  0  0  0  0  0  0
  157.7210  213.9680  154.8230 C   0  0  2  0  0  3  0  0  0  0  0  0
  156.6430  211.2180  154.7780 N   0  0  0  0  0  1  0  0  0  0  0  0
  156.7330  213.3280  153.9670 N   0  0  0  0  0  2  0  0  0  0  0  0
  157.4230  212.0970  154.0120 N   0  0  0  0  0  0  0  0  0  0  0  0
  158.4380  212.6530  154.8930 C   0  0  1  0  0  3  0  0  0  0  0  0
  1 35  1  1  0  0  0
  2  3  1  0  0  0  0
  5  4  1  1  0  0  0
  5  9  1  0  0  0  0
  7  3  1  6  0  0  0
  7  5  1  0  0  0  0
  7 15  1  0  0  0  0
  8  6  1  0  0  0  0
  9 12  1  6  0  0  0
  9  1  1  0  0  0  0
 10 12  1  0  0  0  0
 11  4  1  0  0  0  0
 11 14  1  0  0  0  0
 13  3  1  0  0  0  0
 13  8  1  1  0  0  0
 14 24  1  1  0  0  0
 14 10  1  0  0  0  0
 15  6  1  6  0  0  0
 15  1  1  0  0  0  0
 16 17  1  0  0  0  0
 16 18  1  0  0  0  0
 17 19  1  0  0  0  0
 19 18  1  6  0  0  0
 19 13  1  0  0  0  0
 22 16  1  0  0  0  0
 22 21  1  0  0  0  0
 22 20  1  0  0  0  0
 23 22  2  0  0  0  0
 26 24  1  0  0  0  0
 27 26  1  0  0  0  0
 27 25  2  0  0  0  0
 28 27  1  0  0  0  0
 29 28  2  0  0  0  0
 30 28  2  0  0  0  0
 31 28  1  0  0  0  0
 32 34  1  0  0  0  0
 32 31  1  0  0  0  0
 34 33  1  0  0  0  0
 37 41  1  0  0  0  0
 37 36  1  1  0  0  0
 39 40  1  0  0  0  0
 39 37  1  0  0  0  0
 40 38  1  0  0  0  0
 40 41  1  0  0  0  0
 41 35  1  6  0  0  0
M  END
>  <MODEL>
3

>  <REMARK>
 VINA RESULT:      -4.3      1.596      1.975
  Name = 
  10 active torsions:
  status: ('A' for Active; 'I' for Inactive)
    1  A    between atoms: C_1  and  C_30
    2  A    between atoms: S_7  and  N_21
    3  A    between atoms: S_7  and  C_41
    4  A    between atoms: N_10  and  P_29
    5  A    between atoms: N_16  and  C_18
    6  A    between atoms: C_18  and  C_37
    7  A    between atoms: N_21  and  C_40
    8  A    between atoms: C_24  and  C_40
    9  A    between atoms: C_30  and  C_34
   10  A    between atoms: C_36  and  C_39
                            x       y       z     vdW  Elec       q    Type
                         _______ _______ _______ _____ _____    ______ ____

>  <TORSDO>
F 10

$$$$
=
 OpenBabel11052412163D

 41 45  0  0  1  0  0  0  0  0999 V2000
  159.0190  213.0730  151.8050 C   0  0  2  0  0  3  0  0  0  0  0  0
  162.5160  213.9640  148.5020 Cl  0  0  0  0  0  0  0  0  0  0  0  0
  161.2300  212.8830  148.9620 N   0  0  0  0  0  0  0  0  0  0  0  0
  162.1240  211.2170  151.6080 C   0  0  0  0  0  2  0  0  0  0  0  0
  160.7960  211.7610  151.1020 C   0  0  2  0  0  3  0  0  0  0  0  0
  158.9130  214.2920  149.6820 N   0  0  0  0  0  2  0  0  0  0  0  0
  160.9980  213.0870  150.4040 C   0  0  2  0  0  3  0  0  0  0  0  0
  158.8280  213.2010  148.8090 N   0  0  0  0  0  2  0  0  0  0  0  0
  159.9130  212.0050  152.2370 N   0  0  2  0  0  0  0  0  0  0  0  0
  159.9450  209.7140  153.1110 C   0  0  0  0  0  2  0  0  0  0  0  0
  162.1380  209.6900  151.7740 C   0  0  0  0  0  2  0  0  0  0  0  0
  159.1060  210.8110  152.4650 C   0  0  0  0  0  2  0  0  0  0  0  0
  160.0900  213.1750  148.0810 C   0  0  2  0  0  3  0  0  0  0  0  0
  160.7820  209.0180  152.0430 C   0  0  1  0  0  3  0  0  0  0  0  0
  159.7790  213.9280  150.8040 C   0  0  2  0  0  3  0  0  0  0  0  0
  158.7120  212.2850  145.3320 N   0  0  0  0  0  0  0  0  0  0  0  0
  158.7870  211.7330  146.5830 O   0  0  0  0  0  0  0  0  0  0  0  0
  159.9770  212.9640  145.5200 C   0  0  0  0  0  2  0  0  0  0  0  0
  160.0670  212.2600  146.8350 C   0  0  1  0  0  3  0  0  0  0  0  0
  156.0770  212.7420  145.2640 O   0  0  0  0  0  1  0  0  0  0  0  0
  157.5590  214.4330  143.9420 O   0  0  0  0  0  0  0  0  0  0  0  0
  157.4020  213.4640  145.3190 P   0  0  0  0  0  0  0  0  0  0  0  0
  157.4460  214.4530  146.6910 O   0  0  0  0  0  1  0  0  0  0  0  0
  160.9520  207.5310  152.3470 C   0  0  0  0  0  2  0  0  0  0  0  0
  162.8310  206.9310  150.2480 O   0  0  0  0  0  0  0  0  0  0  0  0
  160.6920  206.7100  151.1700 N   0  0  0  0  0  2  0  0  0  0  0  0
  161.6490  206.5090  150.1270 C   0  0  0  0  0  0  0  0  0  0  0  0
  161.1740  205.6750  148.6610 S   0  0  0  0  0  0  0  0  0  0  0  0
  161.0310  204.2050  148.9460 O   0  0  0  0  0  0  0  0  0  0  0  0
  159.8540  206.2210  148.1860 O   0  0  0  0  0  0  0  0  0  0  0  0
  162.3790  205.9330  147.4460 N   0  0  0  0  0  2  0  0  0  0  0  0
  162.2680  204.8520  146.4760 C   0  0  0  0  0  2  0  0  0  0  0  0
  160.5360  205.6360  144.8730 C   0  0  0  0  0  1  0  0  0  0  0  0
  162.0200  205.4210  145.0910 C   0  0  0  0  0  2  0  0  0  0  0  0
  158.5890  213.9090  153.0060 C   0  0  0  0  0  2  0  0  0  0  0  0
  160.0790  212.1810  155.9000 C   0  0  0  0  0  1  0  0  0  0  0  0
  159.4920  213.4270  155.2670 C   0  0  2  0  0  3  0  0  0  0  0  0
  156.7050  212.5270  155.6500 N   0  0  0  0  0  1  0  0  0  0  0  0
  158.4140  213.9400  156.0990 N   0  0  0  0  0  2  0  0  0  0  0  0
  157.4430  213.6010  155.1310 N   0  0  0  0  0  0  0  0  0  0  0  0
  158.4580  213.0420  154.2520 C   0  0  1  0  0  3  0  0  0  0  0  0
  1  9  1  0  0  0  0
  1 35  1  1  0  0  0
  2  3  1  0  0  0  0
  4 11  1  0  0  0  0
  5  4  1  1  0  0  0
  5  9  1  0  0  0  0
  7  3  1  6  0  0  0
  7 15  1  0  0  0  0
  7  5  1  0  0  0  0
  8  6  1  0  0  0  0
  9 12  1  6  0  0  0
 11 14  1  0  0  0  0
 12 10  1  0  0  0  0
 13  8  1  1  0  0  0
 13  3  1  0  0  0  0
 14 24  1  1  0  0  0
 14 10  1  0  0  0  0
 15  6  1  6  0  0  0
 15  1  1  0  0  0  0
 16 18  1  0  0  0  0
 16 17  1  0  0  0  0
 17 19  1  0  0  0  0
 19 18  1  6  0  0  0
 19 13  1  0  0  0  0
 20 22  1  0  0  0  0
 21 22  2  0  0  0  0
 22 16  1  0  0  0  0
 22 23  1  0  0  0  0
 26 24  1  0  0  0  0
 27 25  2  0  0  0  0
 27 26  1  0  0  0  0
 28 29  2  0  0  0  0
 28 27  1  0  0  0  0
 30 28  2  0  0  0  0
 31 28  1  0  0  0  0
 32 31  1  0  0  0  0
 33 34  1  0  0  0  0
 34 32  1  0  0  0  0
 37 36  1  1  0  0  0
 37 39  1  0  0  0  0
 40 38  1  0  0  0  0
 40 39  1  0  0  0  0
 41 35  1  6  0  0  0
 41 40  1  0  0  0  0
 41 37  1  0  0  0  0
M  END
>  <MODEL>
4

>  <REMARK>
 VINA RESULT:      -4.2      1.853      2.484
  Name = 
  10 active torsions:
  status: ('A' for Active; 'I' for Inactive)
    1  A    between atoms: C_1  and  C_30
    2  A    between atoms: S_7  and  N_21
    3  A    between atoms: S_7  and  C_41
    4  A    between atoms: N_10  and  P_29
    5  A    between atoms: N_16  and  C_18
    6  A    between atoms: C_18  and  C_37
    7  A    between atoms: N_21  and  C_40
    8  A    between atoms: C_24  and  C_40
    9  A    between atoms: C_30  and  C_34
   10  A    between atoms: C_36  and  C_39
                            x       y       z     vdW  Elec       q    Type
                         _______ _______ _______ _____ _____    ______ ____

>  <TORSDO>
F 10

$$$$
=
 OpenBabel11052412163D

 41 45  0  0  1  0  0  0  0  0999 V2000
  159.7620  212.2820  151.8450 C   0  0  2  0  0  3  0  0  0  0  0  0
  163.1130  213.2850  148.4240 Cl  0  0  0  0  0  0  0  0  0  0  0  0
  161.7790  212.2520  148.8540 N   0  0  0  0  0  0  0  0  0  0  0  0
  162.7020  210.2500  151.2450 C   0  0  0  0  0  2  0  0  0  0  0  0
  161.3910  210.9350  150.8900 C   0  0  2  0  0  3  0  0  0  0  0  0
  159.6220  213.7290  149.8730 N   0  0  0  0  0  2  0  0  0  0  0  0
  161.6500  212.3130  150.3230 C   0  0  2  0  0  3  0  0  0  0  0  0
  159.4030  212.7480  148.8980 N   0  0  0  0  0  2  0  0  0  0  0  0
  160.5980  211.1140  152.1020 N   0  0  2  0  0  0  0  0  0  0  0  0
  160.5100  208.7450  152.7280 C   0  0  0  0  0  2  0  0  0  0  0  0
  162.6110  208.7170  151.2500 C   0  0  0  0  0  2  0  0  0  0  0  0
  159.7190  209.9610  152.2590 C   0  0  0  0  0  2  0  0  0  0  0  0
  160.6130  212.7150  148.0880 C   0  0  2  0  0  3  0  0  0  0  0  0
  161.2260  208.1140  151.5390 C   0  0  1  0  0  3  0  0  0  0  0  0
  160.5240  213.1860  150.8890 C   0  0  2  0  0  3  0  0  0  0  0  0
  159.0220  212.2410  145.3510 N   0  0  0  0  0  0  0  0  0  0  0  0
  159.1140  211.5520  146.5310 O   0  0  0  0  0  0  0  0  0  0  0  0
  160.3490  212.7920  145.5310 C   0  0  0  0  0  2  0  0  0  0  0  0
  160.4470  211.9450  146.7580 C   0  0  1  0  0  3  0  0  0  0  0  0
  157.8380  214.4070  144.3210 O   0  0  0  0  0  0  0  0  0  0  0  0
  158.2140  214.4360  146.9010 O   0  0  0  0  0  1  0  0  0  0  0  0
  157.8200  213.5150  145.5390 P   0  0  0  0  0  0  0  0  0  0  0  0
  156.2680  212.8760  145.7430 O   0  0  0  0  0  1  0  0  0  0  0  0
  161.3020  206.5940  151.6740 C   0  0  0  0  0  2  0  0  0  0  0  0
  160.3510  207.2680  149.0400 O   0  0  0  0  0  0  0  0  0  0  0  0
  161.7150  205.9650  150.4250 N   0  0  0  0  0  2  0  0  0  0  0  0
  161.1500  206.2990  149.1540 C   0  0  0  0  0  0  0  0  0  0  0  0
  161.5670  205.3490  147.7420 S   0  0  0  0  0  0  0  0  0  0  0  0
  160.4170  205.3660  146.7710 O   0  0  0  0  0  0  0  0  0  0  0  0
  162.7830  205.9440  147.0860 O   0  0  0  0  0  0  0  0  0  0  0  0
  161.9090  203.7250  148.2340 N   0  0  0  0  0  2  0  0  0  0  0  0
  160.7910  203.2650  149.0460 C   0  0  0  0  0  2  0  0  0  0  0  0
  161.5040  200.9350  148.5440 C   0  0  0  0  0  1  0  0  0  0  0  0
  160.3330  201.8970  148.5720 C   0  0  0  0  0  2  0  0  0  0  0  0
  159.4700  213.0090  153.1530 C   0  0  0  0  0  2  0  0  0  0  0  0
  156.6510  211.4890  154.9750 C   0  0  0  0  0  1  0  0  0  0  0  0
  157.7960  212.4800  154.9070 C   0  0  2  0  0  3  0  0  0  0  0  0
  156.2480  214.4370  153.3270 N   0  0  0  0  0  1  0  0  0  0  0  0
  157.3120  213.8140  155.2250 N   0  0  0  0  0  2  0  0  0  0  0  0
  157.5160  214.2540  153.8990 N   0  0  0  0  0  0  0  0  0  0  0  0
  157.9860  212.9390  153.4930 C   0  0  1  0  0  3  0  0  0  0  0  0
  1  9  1  0  0  0  0
  1 35  1  1  0  0  0
  2  3  1  0  0  0  0
  4 11  1  0  0  0  0
  5  4  1  1  0  0  0
  5  9  1  0  0  0  0
  7  3  1  6  0  0  0
  7 15  1  0  0  0  0
  7  5  1  0  0  0  0
  8  6  1  0  0  0  0
  9 12  1  6  0  0  0
 11 14  1  0  0  0  0
 12 10  1  0  0  0  0
 13  3  1  0  0  0  0
 13  8  1  1  0  0  0
 14 24  1  1  0  0  0
 14 10  1  0  0  0  0
 15  6  1  6  0  0  0
 15  1  1  0  0  0  0
 16 18  1  0  0  0  0
 16 22  1  0  0  0  0
 16 17  1  0  0  0  0
 17 19  1  0  0  0  0
 19 18  1  6  0  0  0
 19 13  1  0  0  0  0
 20 22  2  0  0  0  0
 22 23  1  0  0  0  0
 22 21  1  0  0  0  0
 25 27  2  0  0  0  0
 26 24  1  0  0  0  0
 27 26  1  0  0  0  0
 28 31  1  0  0  0  0
 28 27  1  0  0  0  0
 29 28  2  0  0  0  0
 30 28  2  0  0  0  0
 31 32  1  0  0  0  0
 33 34  1  0  0  0  0
 34 32  1  0  0  0  0
 37 36  1  6  0  0  0
 37 39  1  0  0  0  0
 38 40  1  0  0  0  0
 40 39  1  0  0  0  0
 41 35  1  1  0  0  0
 41 40  1  0  0  0  0
 41 37  1  0  0  0  0
M  END
>  <MODEL>
5

>  <REMARK>
 VINA RESULT:      -4.0      1.660      2.033
  Name = 
  10 active torsions:
  status: ('A' for Active; 'I' for Inactive)
    1  A    between atoms: C_1  and  C_30
    2  A    between atoms: S_7  and  N_21
    3  A    between atoms: S_7  and  C_41
    4  A    between atoms: N_10  and  P_29
    5  A    between atoms: N_16  and  C_18
    6  A    between atoms: C_18  and  C_37
    7  A    between atoms: N_21  and  C_40
    8  A    between atoms: C_24  and  C_40
    9  A    between atoms: C_30  and  C_34
   10  A    between atoms: C_36  and  C_39
                            x       y       z     vdW  Elec       q    Type
                         _______ _______ _______ _____ _____    ______ ____

>  <TORSDO>
F 10

$$$$
=
 OpenBabel11052412163D

 41 45  0  0  1  0  0  0  0  0999 V2000
  161.8310  208.6020  148.8340 C   0  0  2  0  0  3  0  0  0  0  0  0
  163.4850  210.6590  152.9540 Cl  0  0  0  0  0  0  0  0  0  0  0  0
  162.1180  210.5040  151.8860 N   0  0  0  0  0  0  0  0  0  0  0  0
  162.7310  212.1010  149.1200 C   0  0  0  0  0  2  0  0  0  0  0  0
  161.9620  210.8320  149.4580 C   0  0  2  0  0  3  0  0  0  0  0  0
  161.6850  207.8290  151.1550 N   0  0  0  0  0  2  0  0  0  0  0  0
  162.6470  210.0790  150.5760 C   0  0  2  0  0  3  0  0  0  0  0  0
  160.6130  208.6230  151.5810 N   0  0  0  0  0  2  0  0  0  0  0  0
  161.9510  209.9520  148.2940 N   0  0  2  0  0  0  0  0  0  0  0  0
  160.8990  211.5430  146.7530 C   0  0  0  0  0  2  0  0  0  0  0  0
  161.8630  213.1900  148.4730 C   0  0  0  0  0  2  0  0  0  0  0  0
  160.7520  210.2290  147.5110 C   0  0  0  0  0  2  0  0  0  0  0  0
  161.1760  209.5760  152.5290 C   0  0  2  0  0  3  0  0  0  0  0  0
  160.6250  212.7090  147.6970 C   0  0  1  0  0  3  0  0  0  0  0  0
  162.4880  208.6000  150.2050 C   0  0  2  0  0  3  0  0  0  0  0  0
  159.7660  210.1120  155.3520 N   0  0  0  0  0  0  0  0  0  0  0  0
  159.3960  209.4470  154.2130 O   0  0  0  0  0  0  0  0  0  0  0  0
  160.6190  211.0030  154.5940 C   0  0  0  0  0  2  0  0  0  0  0  0
  160.1100  210.3170  153.3680 C   0  0  1  0  0  3  0  0  0  0  0  0
  159.8680  208.2350  157.2560 O   0  0  0  0  0  1  0  0  0  0  0  0
  161.8190  209.9660  157.2590 O   0  0  0  0  0  1  0  0  0  0  0  0
  160.7570  209.0340  156.3320 P   0  0  0  0  0  0  0  0  0  0  0  0
  161.6580  207.9750  155.3680 O   0  0  0  0  0  0  0  0  0  0  0  0
  159.9410  213.8670  146.9730 C   0  0  0  0  0  2  0  0  0  0  0  0
  158.1390  213.8040  144.7270 O   0  0  0  0  0  0  0  0  0  0  0  0
  160.3210  213.9180  145.5650 N   0  0  0  0  0  2  0  0  0  0  0  0
  159.3780  213.8110  144.4950 C   0  0  0  0  0  0  0  0  0  0  0  0
  159.9510  213.6800  142.8440 S   0  0  0  0  0  0  0  0  0  0  0  0
  158.9190  214.2520  141.9100 O   0  0  0  0  0  0  0  0  0  0  0  0
  161.2350  214.4530  142.7030 O   0  0  0  0  0  0  0  0  0  0  0  0
  160.2340  212.0130  142.4740 N   0  0  0  0  0  2  0  0  0  0  0  0
  160.0770  211.8480  141.0350 C   0  0  0  0  0  2  0  0  0  0  0  0
  162.4940  211.4310  140.6180 C   0  0  0  0  0  1  0  0  0  0  0  0
  161.0970  210.8520  140.5120 C   0  0  0  0  0  2  0  0  0  0  0  0
  162.5210  207.6080  147.9060 C   0  0  0  0  0  2  0  0  0  0  0  0
  160.8640  205.5030  145.3770 C   0  0  0  0  0  1  0  0  0  0  0  0
  162.0480  205.7990  146.2760 C   0  0  2  0  0  3  0  0  0  0  0  0
  160.7470  204.6550  148.6680 N   0  0  0  0  0  1  0  0  0  0  0  0
  162.3590  204.6270  147.0800 N   0  0  0  0  0  2  0  0  0  0  0  0
  161.9410  205.2720  148.2640 N   0  0  0  0  0  0  0  0  0  0  0  0
  161.5780  206.4730  147.5290 C   0  0  1  0  0  3  0  0  0  0  0  0
  1 35  1  6  0  0  0
  1 15  1  0  0  0  0
  3 13  1  0  0  0  0
  3  2  1  0  0  0  0
  5  4  1  6  0  0  0
  5  7  1  0  0  0  0
  6  8  1  0  0  0  0
  7  3  1  1  0  0  0
  9 12  1  6  0  0  0
  9  1  1  0  0  0  0
  9  5  1  0  0  0  0
 10 12  1  0  0  0  0
 10 14  1  0  0  0  0
 11  4  1  0  0  0  0
 13  8  1  6  0  0  0
 13 19  1  0  0  0  0
 14 24  1  6  0  0  0
 14 11  1  0  0  0  0
 15  7  1  0  0  0  0
 15  6  1  1  0  0  0
 16 22  1  0  0  0  0
 17 16  1  0  0  0  0
 18 16  1  0  0  0  0
 19 17  1  0  0  0  0
 19 18  1  1  0  0  0
 22 20  1  0  0  0  0
 22 21  1  0  0  0  0
 23 22  2  0  0  0  0
 26 24  1  0  0  0  0
 27 25  2  0  0  0  0
 27 26  1  0  0  0  0
 28 27  1  0  0  0  0
 29 28  2  0  0  0  0
 30 28  2  0  0  0  0
 31 28  1  0  0  0  0
 32 31  1  0  0  0  0
 34 33  1  0  0  0  0
 34 32  1  0  0  0  0
 37 36  1  6  0  0  0
 37 39  1  0  0  0  0
 37 41  1  0  0  0  0
 39 40  1  0  0  0  0
 40 38  1  0  0  0  0
 41 35  1  1  0  0  0
 41 40  1  0  0  0  0
M  END
>  <MODEL>
6

>  <REMARK>
 VINA RESULT:      -3.7      4.398      9.330
  Name = 
  10 active torsions:
  status: ('A' for Active; 'I' for Inactive)
    1  A    between atoms: C_1  and  C_30
    2  A    between atoms: S_7  and  N_21
    3  A    between atoms: S_7  and  C_41
    4  A    between atoms: N_10  and  P_29
    5  A    between atoms: N_16  and  C_18
    6  A    between atoms: C_18  and  C_37
    7  A    between atoms: N_21  and  C_40
    8  A    between atoms: C_24  and  C_40
    9  A    between atoms: C_30  and  C_34
   10  A    between atoms: C_36  and  C_39
                            x       y       z     vdW  Elec       q    Type
                         _______ _______ _______ _____ _____    ______ ____

>  <TORSDO>
F 10

$$$$
=
 OpenBabel11052412163D

 41 45  0  0  1  0  0  0  0  0999 V2000
  161.0680  207.3410  153.5090 C   0  0  2  0  0  3  0  0  0  0  0  0
  161.9750  210.8230  156.8240 Cl  0  0  0  0  0  0  0  0  0  0  0  0
  161.0660  210.4160  155.3950 N   0  0  0  0  0  0  0  0  0  0  0  0
  163.0830  210.2790  152.8470 C   0  0  0  0  0  2  0  0  0  0  0  0
  161.8270  209.5160  153.2410 C   0  0  2  0  0  3  0  0  0  0  0  0
  159.9100  207.8670  155.6040 N   0  0  0  0  0  2  0  0  0  0  0  0
  161.7820  209.3060  154.7380 C   0  0  2  0  0  3  0  0  0  0  0  0
  159.1430  208.9520  155.1610 N   0  0  0  0  0  2  0  0  0  0  0  0
  161.8540  208.1940  152.6240 N   0  0  2  0  0  0  0  0  0  0  0  0
  162.0310  208.9730  150.3060 C   0  0  0  0  0  2  0  0  0  0  0  0
  162.9450  211.0430  151.5220 C   0  0  0  0  0  2  0  0  0  0  0  0
  161.1650  208.2630  151.3410 C   0  0  0  0  0  2  0  0  0  0  0  0
  159.6920  210.1250  155.8290 C   0  0  2  0  0  3  0  0  0  0  0  0
  161.9340  210.4800  150.5080 C   0  0  1  0  0  3  0  0  0  0  0  0
  161.2020  207.8970  154.9170 C   0  0  2  0  0  3  0  0  0  0  0  0
  158.3830  212.4760  154.0950 N   0  0  0  0  0  0  0  0  0  0  0  0
  159.3810  212.4260  155.0320 O   0  0  0  0  0  0  0  0  0  0  0  0
  157.7280  211.3260  154.6810 C   0  0  0  0  0  2  0  0  0  0  0  0
  158.7790  211.3700  155.7430 C   0  0  1  0  0  3  0  0  0  0  0  0
  160.4060  212.7070  152.3600 O   0  0  0  0  0  1  0  0  0  0  0  0
  158.0200  212.5790  151.3140 O   0  0  0  0  0  0  0  0  0  0  0  0
  159.0630  212.0380  152.5300 P   0  0  0  0  0  0  0  0  0  0  0  0
  159.2490  210.3630  152.3840 O   0  0  0  0  0  1  0  0  0  0  0  0
  162.0080  211.2290  149.1790 C   0  0  0  0  0  2  0  0  0  0  0  0
  161.5100  213.0230  146.9810 O   0  0  0  0  0  0  0  0  0  0  0  0
  160.7180  211.8050  148.8160 N   0  0  0  0  0  2  0  0  0  0  0  0
  160.5520  212.7470  147.7530 C   0  0  0  0  0  0  0  0  0  0  0  0
  159.0020  213.5320  147.5240 S   0  0  0  0  0  0  0  0  0  0  0  0
  157.9190  212.4910  147.4560 O   0  0  0  0  0  0  0  0  0  0  0  0
  158.7370  214.4530  148.6850 O   0  0  0  0  0  0  0  0  0  0  0  0
  159.0430  214.4480  146.0560 N   0  0  0  0  0  2  0  0  0  0  0  0
  158.0370  213.8930  145.1610 C   0  0  0  0  0  2  0  0  0  0  0  0
  160.1450  213.5340  143.8890 C   0  0  0  0  0  1  0  0  0  0  0  0
  158.6380  213.6580  143.7860 C   0  0  0  0  0  2  0  0  0  0  0  0
  161.5860  205.9080  153.4460 C   0  0  0  0  0  2  0  0  0  0  0  0
  160.7390  205.3420  149.9050 C   0  0  0  0  0  1  0  0  0  0  0  0
  161.6650  205.1410  151.0880 C   0  0  2  0  0  3  0  0  0  0  0  0
  160.0090  202.9880  152.2480 N   0  0  0  0  0  1  0  0  0  0  0  0
  161.9180  203.7210  151.2790 N   0  0  0  0  0  2  0  0  0  0  0  0
  161.1900  203.7060  152.4880 N   0  0  0  0  0  0  0  0  0  0  0  0
  160.8700  205.1190  152.3580 C   0  0  1  0  0  3  0  0  0  0  0  0
  1 35  1  1  0  0  0
  1 15  1  0  0  0  0
  3 13  1  0  0  0  0
  3  2  1  0  0  0  0
  5  4  1  1  0  0  0
  5  7  1  0  0  0  0
  7 15  1  0  0  0  0
  7  3  1  1  0  0  0
  8  6  1  0  0  0  0
  9 12  1  6  0  0  0
  9  5  1  0  0  0  0
  9  1  1  0  0  0  0
 10 14  1  0  0  0  0
 10 12  1  0  0  0  0
 11  4  1  0  0  0  0
 13  8  1  6  0  0  0
 14 24  1  6  0  0  0
 14 11  1  0  0  0  0
 15  6  1  6  0  0  0
 16 18  1  0  0  0  0
 16 17  1  0  0  0  0
 17 19  1  0  0  0  0
 19 18  1  6  0  0  0
 19 13  1  0  0  0  0
 20 22  1  0  0  0  0
 21 22  2  0  0  0  0
 22 16  1  0  0  0  0
 23 22  1  0  0  0  0
 25 27  2  0  0  0  0
 26 24  1  0  0  0  0
 27 26  1  0  0  0  0
 28 27  1  0  0  0  0
 28 30  2  0  0  0  0
 29 28  2  0  0  0  0
 31 28  1  0  0  0  0
 32 31  1  0  0  0  0
 34 33  1  0  0  0  0
 34 32  1  0  0  0  0
 37 36  1  6  0  0  0
 37 39  1  0  0  0  0
 37 41  1  0  0  0  0
 38 40  1  0  0  0  0
 39 40  1  0  0  0  0
 41 40  1  0  0  0  0
 41 35  1  1  0  0  0
M  END
>  <MODEL>
7

>  <REMARK>
 VINA RESULT:      -3.5      3.866      8.398
  Name = 
  10 active torsions:
  status: ('A' for Active; 'I' for Inactive)
    1  A    between atoms: C_1  and  C_30
    2  A    between atoms: S_7  and  N_21
    3  A    between atoms: S_7  and  C_41
    4  A    between atoms: N_10  and  P_29
    5  A    between atoms: N_16  and  C_18
    6  A    between atoms: C_18  and  C_37
    7  A    between atoms: N_21  and  C_40
    8  A    between atoms: C_24  and  C_40
    9  A    between atoms: C_30  and  C_34
   10  A    between atoms: C_36  and  C_39
                            x       y       z     vdW  Elec       q    Type
                         _______ _______ _______ _____ _____    ______ ____

>  <TORSDO>
F 10

$$$$
=
 OpenBabel11052412163D

 41 45  0  0  1  0  0  0  0  0999 V2000
  160.8830  207.6910  153.1790 C   0  0  2  0  0  3  0  0  0  0  0  0
  161.8180  211.6480  155.9000 Cl  0  0  0  0  0  0  0  0  0  0  0  0
  160.9410  211.0370  154.5250 N   0  0  0  0  0  0  0  0  0  0  0  0
  163.0300  210.4080  152.1130 C   0  0  0  0  0  2  0  0  0  0  0  0
  161.7330  209.7640  152.5810 C   0  0  2  0  0  3  0  0  0  0  0  0
  159.6810  208.5990  155.1120 N   0  0  0  0  0  2  0  0  0  0  0  0
  161.6340  209.8100  154.0900 C   0  0  2  0  0  3  0  0  0  0  0  0
  158.9710  209.6190  154.4670 N   0  0  0  0  0  2  0  0  0  0  0  0
  161.7290  208.3570  152.1950 N   0  0  2  0  0  0  0  0  0  0  0  0
  162.0090  208.7290  149.7880 C   0  0  0  0  0  2  0  0  0  0  0  0
  162.9640  210.9430  150.6750 C   0  0  0  0  0  2  0  0  0  0  0  0
  161.0840  208.2320  150.8930 C   0  0  0  0  0  2  0  0  0  0  0  0
  159.5430  210.8690  154.9490 C   0  0  2  0  0  3  0  0  0  0  0  0
  161.9640  210.2520  149.7320 C   0  0  1  0  0  3  0  0  0  0  0  0
  160.9940  208.4710  154.4790 C   0  0  2  0  0  3  0  0  0  0  0  0
  156.7760  212.4570  155.2080 N   0  0  0  0  0  0  0  0  0  0  0  0
  157.3860  211.7660  154.1960 O   0  0  0  0  0  0  0  0  0  0  0  0
  158.0560  212.7880  155.7980 C   0  0  0  0  0  2  0  0  0  0  0  0
  158.6820  212.1110  154.6230 C   0  0  1  0  0  3  0  0  0  0  0  0
  155.1900  210.3100  155.3770 O   0  0  0  0  0  0  0  0  0  0  0  0
  154.8070  212.1520  157.1840 O   0  0  0  0  0  1  0  0  0  0  0  0
  155.9260  211.3080  156.2380 P   0  0  0  0  0  0  0  0  0  0  0  0
  156.9950  210.4860  157.2600 O   0  0  0  0  0  1  0  0  0  0  0  0
  162.1090  210.7640  148.3010 C   0  0  0  0  0  2  0  0  0  0  0  0
  162.0300  212.8700  146.3370 O   0  0  0  0  0  0  0  0  0  0  0  0
  160.9210  211.4920  147.8690 N   0  0  0  0  0  2  0  0  0  0  0  0
  160.9620  212.5770  146.9390 C   0  0  0  0  0  0  0  0  0  0  0  0
  159.5130  213.5170  146.6380 S   0  0  0  0  0  0  0  0  0  0  0  0
  158.3400  212.5890  146.4780 O   0  0  0  0  0  0  0  0  0  0  0  0
  159.2680  214.4350  147.8040 O   0  0  0  0  0  0  0  0  0  0  0  0
  159.7350  214.4530  145.1990 N   0  0  0  0  0  2  0  0  0  0  0  0
  159.1890  213.6880  144.0860 C   0  0  0  0  0  2  0  0  0  0  0  0
  160.3780  211.7830  143.0150 C   0  0  0  0  0  1  0  0  0  0  0  0
  160.3020  213.2920  143.1320 C   0  0  0  0  0  2  0  0  0  0  0  0
  161.3470  206.2520  153.3760 C   0  0  0  0  0  2  0  0  0  0  0  0
  161.1270  205.2510  149.8360 C   0  0  0  0  0  1  0  0  0  0  0  0
  161.8100  205.1780  151.1870 C   0  0  2  0  0  3  0  0  0  0  0  0
  159.8520  203.2520  152.2750 N   0  0  0  0  0  1  0  0  0  0  0  0
  161.9430  203.7880  151.5960 N   0  0  0  0  0  2  0  0  0  0  0  0
  161.0080  203.9570  152.6400 N   0  0  0  0  0  0  0  0  0  0  0  0
  160.7970  205.3490  152.2790 C   0  0  1  0  0  3  0  0  0  0  0  0
  1 35  1  1  0  0  0
  1 15  1  0  0  0  0
  3 13  1  0  0  0  0
  3  2  1  0  0  0  0
  5  4  1  1  0  0  0
  5  7  1  0  0  0  0
  7 15  1  0  0  0  0
  7  3  1  6  0  0  0
  8  6  1  0  0  0  0
  9 12  1  6  0  0  0
  9  5  1  0  0  0  0
  9  1  1  0  0  0  0
 10 12  1  0  0  0  0
 11  4  1  0  0  0  0
 13  8  1  6  0  0  0
 14 24  1  6  0  0  0
 14 10  1  0  0  0  0
 14 11  1  0  0  0  0
 15  6  1  6  0  0  0
 16 18  1  0  0  0  0
 16 22  1  0  0  0  0
 17 19  1  0  0  0  0
 17 16  1  0  0  0  0
 19 13  1  0  0  0  0
 19 18  1  1  0  0  0
 20 22  2  0  0  0  0
 22 21  1  0  0  0  0
 22 23  1  0  0  0  0
 25 27  2  0  0  0  0
 26 24  1  0  0  0  0
 27 26  1  0  0  0  0
 28 27  1  0  0  0  0
 28 30  2  0  0  0  0
 29 28  2  0  0  0  0
 31 28  1  0  0  0  0
 32 31  1  0  0  0  0
 33 34  1  0  0  0  0
 34 32  1  0  0  0  0
 37 36  1  6  0  0  0
 37 39  1  0  0  0  0
 37 41  1  0  0  0  0
 38 40  1  0  0  0  0
 39 40  1  0  0  0  0
 41 40  1  0  0  0  0
 41 35  1  1  0  0  0
M  END
>  <MODEL>
8

>  <REMARK>
 VINA RESULT:      -3.3      4.663      8.868
  Name = 
  10 active torsions:
  status: ('A' for Active; 'I' for Inactive)
    1  A    between atoms: C_1  and  C_30
    2  A    between atoms: S_7  and  N_21
    3  A    between atoms: S_7  and  C_41
    4  A    between atoms: N_10  and  P_29
    5  A    between atoms: N_16  and  C_18
    6  A    between atoms: C_18  and  C_37
    7  A    between atoms: N_21  and  C_40
    8  A    between atoms: C_24  and  C_40
    9  A    between atoms: C_30  and  C_34
   10  A    between atoms: C_36  and  C_39
                            x       y       z     vdW  Elec       q    Type
                         _______ _______ _______ _____ _____    ______ ____

>  <TORSDO>
F 10

$$$$
=
 OpenBabel11052412163D

 41 45  0  0  1  0  0  0  0  0999 V2000
  160.8820  207.7060  153.1920 C   0  0  2  0  0  3  0  0  0  0  0  0
  161.9540  211.6570  155.8720 Cl  0  0  0  0  0  0  0  0  0  0  0  0
  161.0370  211.0580  154.5170 N   0  0  0  0  0  0  0  0  0  0  0  0
  163.0670  210.3700  152.0700 C   0  0  0  0  0  2  0  0  0  0  0  0
  161.7660  209.7570  152.5660 C   0  0  2  0  0  3  0  0  0  0  0  0
  159.7360  208.6510  155.1410 N   0  0  0  0  0  2  0  0  0  0  0  0
  161.6950  209.8130  154.0760 C   0  0  2  0  0  3  0  0  0  0  0  0
  159.0360  209.6830  154.5030 N   0  0  0  0  0  2  0  0  0  0  0  0
  161.7240  208.3480  152.1880 N   0  0  2  0  0  0  0  0  0  0  0  0
  161.9670  208.7010  149.7740 C   0  0  0  0  0  2  0  0  0  0  0  0
  162.9860  210.8980  150.6300 C   0  0  0  0  0  2  0  0  0  0  0  0
  161.0520  208.2310  150.8990 C   0  0  0  0  0  2  0  0  0  0  0  0
  159.6440  210.9220  154.9680 C   0  0  2  0  0  3  0  0  0  0  0  0
  161.9540  210.2240  149.7110 C   0  0  1  0  0  3  0  0  0  0  0  0
  161.0340  208.4910  154.4850 C   0  0  2  0  0  3  0  0  0  0  0  0
  156.9080  212.5590  155.2450 N   0  0  0  0  0  0  0  0  0  0  0  0
  157.5010  211.8610  154.2270 O   0  0  0  0  0  0  0  0  0  0  0  0
  158.1950  212.8640  155.8310 C   0  0  0  0  0  2  0  0  0  0  0  0
  158.8050  212.1810  154.6500 C   0  0  1  0  0  3  0  0  0  0  0  0
  155.0650  212.1740  157.1450 O   0  0  0  0  0  1  0  0  0  0  0  0
  157.1590  210.6230  157.2600 O   0  0  0  0  0  1  0  0  0  0  0  0
  156.0420  211.4210  156.2740 P   0  0  0  0  0  0  0  0  0  0  0  0
  155.2040  210.2720  155.3570 O   0  0  0  0  0  0  0  0  0  0  0  0
  162.0830  210.7250  148.2730 C   0  0  0  0  0  2  0  0  0  0  0  0
  161.8200  213.3430  147.1010 O   0  0  0  0  0  0  0  0  0  0  0  0
  160.8440  211.3360  147.8050 N   0  0  0  0  0  2  0  0  0  0  0  0
  160.7710  212.6710  147.2970 C   0  0  0  0  0  0  0  0  0  0  0  0
  159.2080  213.3830  146.9490 S   0  0  0  0  0  0  0  0  0  0  0  0
  159.2810  214.1390  145.6510 O   0  0  0  0  0  0  0  0  0  0  0  0
  158.1810  212.2890  146.8330 O   0  0  0  0  0  0  0  0  0  0  0  0
  158.7740  214.4520  148.2390 N   0  0  0  0  0  2  0  0  0  0  0  0
  158.7050  213.6620  149.4620 C   0  0  0  0  0  2  0  0  0  0  0  0
  159.7960  213.2540  151.6600 C   0  0  0  0  0  1  0  0  0  0  0  0
  159.9640  213.8700  150.2860 C   0  0  0  0  0  2  0  0  0  0  0  0
  161.3180  206.2580  153.3880 C   0  0  0  0  0  2  0  0  0  0  0  0
  161.3780  205.2160  149.8540 C   0  0  0  0  0  1  0  0  0  0  0  0
  161.9150  205.1160  151.2680 C   0  0  2  0  0  3  0  0  0  0  0  0
  159.7190  203.3580  152.1700 N   0  0  0  0  0  1  0  0  0  0  0  0
  161.9020  203.7270  151.7020 N   0  0  0  0  0  2  0  0  0  0  0  0
  160.8830  203.9820  152.6440 N   0  0  0  0  0  0  0  0  0  0  0  0
  160.8140  205.3800  152.2500 C   0  0  1  0  0  3  0  0  0  0  0  0
  1 35  1  1  0  0  0
  1 15  1  0  0  0  0
  3 13  1  0  0  0  0
  3  2  1  0  0  0  0
  5  4  1  1  0  0  0
  5  7  1  0  0  0  0
  7 15  1  0  0  0  0
  7  3  1  6  0  0  0
  8  6  1  0  0  0  0
  9 12  1  6  0  0  0
  9  5  1  0  0  0  0
  9  1  1  0  0  0  0
 10 12  1  0  0  0  0
 11  4  1  0  0  0  0
 13  8  1  6  0  0  0
 14 24  1  6  0  0  0
 14 10  1  0  0  0  0
 14 11  1  0  0  0  0
 15  6  1  6  0  0  0
 16 18  1  0  0  0  0
 16 22  1  0  0  0  0
 17 19  1  0  0  0  0
 17 16  1  0  0  0  0
 19 13  1  0  0  0  0
 19 18  1  1  0  0  0
 22 20  1  0  0  0  0
 22 21  1  0  0  0  0
 23 22  2  0  0  0  0
 25 27  2  0  0  0  0
 26 24  1  0  0  0  0
 27 26  1  0  0  0  0
 28 27  1  0  0  0  0
 28 31  1  0  0  0  0
 29 28  2  0  0  0  0
 30 28  2  0  0  0  0
 31 32  1  0  0  0  0
 32 34  1  0  0  0  0
 34 33  1  0  0  0  0
 37 36  1  6  0  0  0
 37 39  1  0  0  0  0
 37 41  1  0  0  0  0
 38 40  1  0  0  0  0
 39 40  1  0  0  0  0
 41 40  1  0  0  0  0
 41 35  1  1  0  0  0
M  END
>  <MODEL>
9

>  <REMARK>
 VINA RESULT:      -3.3      4.551      8.824
  Name = 
  10 active torsions:
  status: ('A' for Active; 'I' for Inactive)
    1  A    between atoms: C_1  and  C_30
    2  A    between atoms: S_7  and  N_21
    3  A    between atoms: S_7  and  C_41
    4  A    between atoms: N_10  and  P_29
    5  A    between atoms: N_16  and  C_18
    6  A    between atoms: C_18  and  C_37
    7  A    between atoms: N_21  and  C_40
    8  A    between atoms: C_24  and  C_40
    9  A    between atoms: C_30  and  C_34
   10  A    between atoms: C_36  and  C_39
                            x       y       z     vdW  Elec       q    Type
                         _______ _______ _______ _____ _____    ______ ____

>  <TORSDO>
F 10

$$$$
