=
 OpenBabel11042422363D

 33 37  0  0  1  0  0  0  0  0999 V2000
  159.6490  211.9510  154.0530 C   0  0  0  0  0  2  0  0  0  0  0  0
  161.5080  208.5650  149.9020 C   0  0  1  0  0  3  0  0  0  0  0  0
  161.3680  212.3190  147.5200 C   0  0  0  0  0  0  0  0  0  0  0  0
  161.8580  210.9950  149.2090 C   0  0  1  0  0  3  0  0  0  0  0  0
  160.6760  207.4810  154.4710 C   0  0  0  0  0  3  0  0  0  0  0  0
  160.0590  208.7790  156.4820 C   0  0  0  0  0  2  0  0  0  0  0  0
  162.7000  208.1880  150.7770 C   0  0  0  0  0  2  0  0  0  0  0  0
  161.1360  209.8110  156.2870 C   0  0  0  0  0  0  0  0  0  0  0  0
  159.8020  212.5060  152.6760 C   0  0  0  0  0  3  0  0  0  0  0  0
  161.7030  209.6420  153.7320 C   0  0  1  0  0  3  0  0  0  0  0  0
  159.8350  205.2520  149.7840 O   0  0  0  0  0  1  0  0  0  0  0  0
  161.0120  211.8800  154.7240 C   0  0  0  0  0  2  0  0  0  0  0  0
  161.7710  210.1820  157.2600 O   0  0  0  0  0  0  0  0  0  0  0  0
  161.9650  209.5240  148.8190 C   0  0  0  0  0  2  0  0  0  0  0  0
  160.6680  206.2500  150.1630 N   0  0  0  0  0  0  0  0  0  0  0  0
  162.3810  211.7780  148.0910 N   0  0  0  0  0  0  0  0  0  0  0  0
  161.6850  208.1410  153.8820 C   0  0  0  0  0  0  0  0  0  0  0  0
  161.4500  213.1260  146.3460 N   0  0  0  0  0  2  0  0  0  0  0  0
  161.4210  210.4340  154.9430 C   0  0  1  0  0  0  0  0  0  0  0  0
  161.2030  205.1570  152.1570 O   0  0  0  0  0  0  0  0  0  0  0  0
  161.3970  206.1410  151.3910 C   0  0  0  0  0  0  0  0  0  0  0  0
  162.8120  210.2070  154.5260 N   0  0  0  0  0  2  0  0  0  0  0  0
  160.1960  212.0540  148.1800 O   0  0  0  0  0  0  0  0  0  0  0  0
  160.9800  207.3090  149.2080 C   0  0  0  0  0  2  0  0  0  0  0  0
  158.4490  207.1920  155.4670 C   0  0  0  0  0  1  0  0  0  0  0  0
  160.3460  212.3750  150.4050 C   0  0  0  0  0  2  0  0  0  0  0  0
  162.3160  207.1780  151.7610 N   0  0  0  0  0  0  0  0  0  0  0  0
  159.5550  208.1820  155.1730 C   0  0  2  0  0  3  0  0  0  0  0  0
  162.7210  207.3510  153.1500 C   0  0  0  0  0  2  0  0  0  0  0  0
  160.1670  211.7660  151.6940 N   0  0  0  0  0  0  0  0  0  0  0  0
  160.4330  211.3690  149.3520 N   0  0  2  0  0  0  0  0  0  0  0  0
  162.6670  213.3640  145.6900 C   0  0  0  0  0  0  0  0  0  0  0  0
  163.7120  213.5670  145.1240 C   0  0  0  0  0  3  0  0  0  0  0  0
  1 12  1  0  0  0  0
  2 14  1  6  0  0  0
  2  7  1  0  0  0  0
  3 16  2  0  0  0  0
  3 23  1  0  0  0  0
  4 14  1  6  0  0  0
  4 31  1  0  0  0  0
  5 28  1  0  0  0  0
  7 27  1  0  0  0  0
  8  6  1  0  0  0  0
  8 13  2  0  0  0  0
  9  1  1  0  0  0  0
 10 17  1  1  0  0  0
 10 22  1  0  0  0  0
 10 19  1  0  0  0  0
 11 15  1  0  0  0  0
 15 21  1  0  0  0  0
 16  4  1  0  0  0  0
 17  5  2  0  0  0  0
 18  3  1  0  0  0  0
 19 12  1  6  0  0  0
 19  8  1  0  0  0  0
 21 27  1  0  0  0  0
 21 20  2  0  0  0  0
 22 19  1  0  0  0  0
 23 31  1  0  0  0  0
 24  2  1  0  0  0  0
 24 15  1  0  0  0  0
 26 30  1  0  0  0  0
 27 29  1  0  0  0  0
 28 25  1  1  0  0  0
 28  6  1  0  0  0  0
 29 17  1  0  0  0  0
 30  9  2  0  0  0  0
 31 26  1  1  0  0  0
 32 18  1  0  0  0  0
 33 32  3  0  0  0  0
M  END
>  <MODEL>
1

>  <REMARK>
 VINA RESULT:       0.4      0.000      0.000
  Name = 
  1 active torsions:
  status: ('A' for Active; 'I' for Inactive)
    1  A    between atoms: C_4  and  N_19
                            x       y       z     vdW  Elec       q    Type
                         _______ _______ _______ _____ _____    ______ ____

>  <TORSDO>
F 1

$$$$
=
 OpenBabel11042422363D

 33 37  0  0  1  0  0  0  0  0999 V2000
  162.5270  208.3400  147.8820 C   0  0  0  0  0  2  0  0  0  0  0  0
  161.2740  204.7880  152.1200 C   0  0  1  0  0  3  0  0  0  0  0  0
  161.2720  208.5280  154.5270 C   0  0  0  0  0  0  0  0  0  0  0  0
  160.7720  207.1760  152.8640 C   0  0  1  0  0  3  0  0  0  0  0  0
  161.8530  203.8010  147.4910 C   0  0  0  0  0  3  0  0  0  0  0  0
  162.2090  205.1570  145.4550 C   0  0  0  0  0  2  0  0  0  0  0  0
  160.0560  204.3150  151.3310 C   0  0  0  0  0  2  0  0  0  0  0  0
  161.0650  206.0930  145.7390 C   0  0  0  0  0  0  0  0  0  0  0  0
  162.4310  208.8740  149.2720 C   0  0  0  0  0  3  0  0  0  0  0  0
  160.7050  205.8640  148.3270 C   0  0  1  0  0  3  0  0  0  0  0  0
  163.2240  201.6280  152.0780 O   0  0  0  0  0  1  0  0  0  0  0  0
  161.1300  208.1570  147.3120 C   0  0  0  0  0  2  0  0  0  0  0  0
  160.3300  206.4130  144.8200 O   0  0  0  0  0  0  0  0  0  0  0  0
  160.8190  205.6990  153.2440 C   0  0  0  0  0  2  0  0  0  0  0  0
  162.2840  202.5540  151.7720 N   0  0  0  0  0  0  0  0  0  0  0  0
  160.2690  207.9060  154.0260 N   0  0  0  0  0  0  0  0  0  0  0  0
  160.8390  204.3700  148.1600 C   0  0  0  0  0  0  0  0  0  0  0  0
  161.2090  209.3200  155.7130 N   0  0  0  0  0  2  0  0  0  0  0  0
  160.8290  206.6830  147.1070 C   0  0  1  0  0  0  0  0  0  0  0  0
  161.6970  201.4290  149.8110 O   0  0  0  0  0  0  0  0  0  0  0  0
  161.4780  202.3890  150.6000 C   0  0  0  0  0  0  0  0  0  0  0  0
  159.4970  206.3360  147.6230 N   0  0  0  0  0  2  0  0  0  0  0  0
  162.4100  208.3670  153.7800 O   0  0  0  0  0  0  0  0  0  0  0  0
  161.9560  203.5780  152.7590 C   0  0  0  0  0  2  0  0  0  0  0  0
  164.0170  203.7080  146.3300 C   0  0  0  0  0  1  0  0  0  0  0  0
  162.0690  208.6860  151.5760 C   0  0  0  0  0  2  0  0  0  0  0  0
  160.4500  203.3470  150.3100 N   0  0  0  0  0  0  0  0  0  0  0  0
  162.8560  204.5990  146.7160 C   0  0  2  0  0  3  0  0  0  0  0  0
  159.9310  203.4910  148.9570 C   0  0  0  0  0  2  0  0  0  0  0  0
  162.2030  208.1010  150.2700 N   0  0  0  0  0  0  0  0  0  0  0  0
  162.1450  207.6710  152.6210 N   0  0  2  0  0  0  0  0  0  0  0  0
  160.0290  209.4500  156.4600 C   0  0  0  0  0  0  0  0  0  0  0  0
  159.0140  209.5630  157.1010 C   0  0  0  0  0  3  0  0  0  0  0  0
  1  9  1  0  0  0  0
  2  7  1  1  0  0  0
  2 24  1  0  0  0  0
  2 14  1  0  0  0  0
  3 18  1  0  0  0  0
  4 14  1  1  0  0  0
  4 16  1  0  0  0  0
  5 17  2  0  0  0  0
  6  8  1  0  0  0  0
  6 28  1  0  0  0  0
  8 19  1  0  0  0  0
  9 30  2  0  0  0  0
 10 22  1  6  0  0  0
 12  1  1  0  0  0  0
 13  8  2  0  0  0  0
 15 11  1  0  0  0  0
 15 24  1  0  0  0  0
 16  3  2  0  0  0  0
 17 10  1  0  0  0  0
 17 29  1  0  0  0  0
 18 32  1  0  0  0  0
 19 12  1  1  0  0  0
 19 22  1  0  0  0  0
 19 10  1  0  0  0  0
 20 21  2  0  0  0  0
 21 15  1  0  0  0  0
 23  3  1  0  0  0  0
 27 21  1  0  0  0  0
 27  7  1  0  0  0  0
 28 25  1  6  0  0  0
 28  5  1  0  0  0  0
 29 27  1  0  0  0  0
 30 26  1  0  0  0  0
 31 26  1  6  0  0  0
 31  4  1  0  0  0  0
 31 23  1  0  0  0  0
 32 33  3  0  0  0  0
M  END
>  <MODEL>
2

>  <REMARK>
 VINA RESULT:       2.0      3.392      7.891
  Name = 
  1 active torsions:
  status: ('A' for Active; 'I' for Inactive)
    1  A    between atoms: C_4  and  N_19
                            x       y       z     vdW  Elec       q    Type
                         _______ _______ _______ _____ _____    ______ ____

>  <TORSDO>
F 1

$$$$
=
 OpenBabel11042422363D

 33 37  0  0  1  0  0  0  0  0999 V2000
  162.6820  208.8910  151.8410 C   0  0  0  0  0  2  0  0  0  0  0  0
  158.7000  212.6930  153.1940 C   0  0  1  0  0  3  0  0  0  0  0  0
  158.9760  213.7090  148.8730 C   0  0  0  0  0  0  0  0  0  0  0  0
  158.7730  212.4370  150.6570 C   0  0  1  0  0  3  0  0  0  0  0  0
  160.7430  209.4120  155.9860 C   0  0  0  0  0  3  0  0  0  0  0  0
  162.3290  207.5530  155.6110 C   0  0  0  0  0  2  0  0  0  0  0  0
  157.8270  211.5560  153.7190 C   0  0  0  0  0  2  0  0  0  0  0  0
  161.5570  206.9750  154.4570 C   0  0  0  0  0  0  0  0  0  0  0  0
  162.2140  209.8540  150.8010 C   0  0  0  0  0  3  0  0  0  0  0  0
  160.1220  208.9940  153.5970 C   0  0  1  0  0  3  0  0  0  0  0  0
  159.3120  214.4530  156.4060 O   0  0  0  0  0  1  0  0  0  0  0  0
  161.6660  207.7700  151.9880 C   0  0  0  0  0  2  0  0  0  0  0  0
  161.4150  205.7650  154.3980 O   0  0  0  0  0  0  0  0  0  0  0  0
  158.1620  213.1590  151.8550 C   0  0  0  0  0  2  0  0  0  0  0  0
  158.9490  213.4900  155.5250 N   0  0  0  0  0  0  0  0  0  0  0  0
  158.1180  212.9570  149.4580 N   0  0  0  0  0  0  0  0  0  0  0  0
  159.8010  209.3110  155.0360 C   0  0  0  0  0  0  0  0  0  0  0  0
  158.7060  214.4530  147.6840 N   0  0  0  0  0  2  0  0  0  0  0  0
  160.9980  207.8340  153.3500 C   0  0  1  0  0  0  0  0  0  0  0  0
  158.8700  211.8690  157.2050 O   0  0  0  0  0  0  0  0  0  0  0  0
  158.6860  212.1620  155.9910 C   0  0  0  0  0  0  0  0  0  0  0  0
  159.5400  207.6870  153.2350 N   0  0  0  0  0  2  0  0  0  0  0  0
  160.1920  213.7020  149.5050 O   0  0  0  0  0  0  0  0  0  0  0  0
  158.6120  213.8770  154.1580 C   0  0  0  0  0  2  0  0  0  0  0  0
  163.0230  209.5560  156.8940 C   0  0  0  0  0  1  0  0  0  0  0  0
  160.9060  211.6260  150.0140 C   0  0  0  0  0  2  0  0  0  0  0  0
  158.2520  211.1610  155.0600 N   0  0  0  0  0  0  0  0  0  0  0  0
  162.1790  209.0640  155.7380 C   0  0  2  0  0  3  0  0  0  0  0  0
  158.4100  209.7450  155.3660 C   0  0  0  0  0  2  0  0  0  0  0  0
  161.3550  210.7660  151.0740 N   0  0  0  0  0  0  0  0  0  0  0  0
  160.2050  212.7930  150.5400 N   0  0  2  0  0  0  0  0  0  0  0  0
  157.4430  214.4480  147.0740 C   0  0  0  0  0  0  0  0  0  0  0  0
  156.3570  214.4430  146.5500 C   0  0  0  0  0  3  0  0  0  0  0  0
  1 12  1  0  0  0  0
  2 14  1  6  0  0  0
  2  7  1  0  0  0  0
  2 24  1  0  0  0  0
  3 16  2  0  0  0  0
  3 23  1  0  0  0  0
  4 14  1  1  0  0  0
  6 28  1  0  0  0  0
  7 27  1  0  0  0  0
  8  6  1  0  0  0  0
  9 30  2  0  0  0  0
  9  1  1  0  0  0  0
 10 22  1  6  0  0  0
 10 17  1  0  0  0  0
 13  8  2  0  0  0  0
 15 21  1  0  0  0  0
 15 11  1  0  0  0  0
 16  4  1  0  0  0  0
 17 29  1  0  0  0  0
 17  5  2  0  0  0  0
 18  3  1  0  0  0  0
 19 12  1  6  0  0  0
 19 10  1  0  0  0  0
 19  8  1  0  0  0  0
 21 20  2  0  0  0  0
 22 19  1  0  0  0  0
 23 31  1  0  0  0  0
 24 15  1  0  0  0  0
 26 30  1  0  0  0  0
 27 29  1  0  0  0  0
 27 21  1  0  0  0  0
 28  5  1  0  0  0  0
 28 25  1  1  0  0  0
 31 26  1  6  0  0  0
 31  4  1  0  0  0  0
 32 18  1  0  0  0  0
 33 32  3  0  0  0  0
M  END
>  <MODEL>
3

>  <REMARK>
 VINA RESULT:       2.9      2.641      5.399
  Name = 
  1 active torsions:
  status: ('A' for Active; 'I' for Inactive)
    1  A    between atoms: C_4  and  N_19
                            x       y       z     vdW  Elec       q    Type
                         _______ _______ _______ _____ _____    ______ ____

>  <TORSDO>
F 1

$$$$
=
 OpenBabel11042422363D

 33 37  0  0  1  0  0  0  0  0999 V2000
  162.3070  209.7070  147.4030 C   0  0  0  0  0  2  0  0  0  0  0  0
  159.1680  211.7240  151.6720 C   0  0  1  0  0  3  0  0  0  0  0  0
  161.1100  208.4240  153.9360 C   0  0  0  0  0  0  0  0  0  0  0  0
  160.9670  210.1830  152.6210 C   0  0  1  0  0  3  0  0  0  0  0  0
  159.5650  213.4030  147.2270 C   0  0  0  0  0  3  0  0  0  0  0  0
  160.9720  212.8390  145.2740 C   0  0  0  0  0  2  0  0  0  0  0  0
  159.8250  213.0880  151.4780 C   0  0  0  0  0  2  0  0  0  0  0  0
  162.2600  212.8610  146.0500 C   0  0  0  0  0  0  0  0  0  0  0  0
  162.3120  208.9880  148.7100 C   0  0  0  0  0  3  0  0  0  0  0  0
  161.4960  212.4860  148.5310 C   0  0  1  0  0  3  0  0  0  0  0  0
  155.7000  212.6340  150.7070 O   0  0  0  0  0  1  0  0  0  0  0  0
  163.2140  210.9240  147.4910 C   0  0  0  0  0  2  0  0  0  0  0  0
  163.2340  213.3980  145.5500 O   0  0  0  0  0  0  0  0  0  0  0  0
  159.7500  211.0590  152.9050 C   0  0  0  0  0  2  0  0  0  0  0  0
  157.0440  212.7050  150.8630 N   0  0  0  0  0  0  0  0  0  0  0  0
  161.4350  209.6640  153.9050 N   0  0  0  0  0  0  0  0  0  0  0  0
  160.3880  213.4790  148.2850 C   0  0  0  0  0  0  0  0  0  0  0  0
  161.3440  207.5650  155.0520 N   0  0  0  0  0  2  0  0  0  0  0  0
  162.3990  212.2020  147.4000 C   0  0  1  0  0  0  0  0  0  0  0  0
  157.2120  214.4530  149.3240 O   0  0  0  0  0  0  0  0  0  0  0  0
  157.7910  213.6990  150.1530 C   0  0  0  0  0  0  0  0  0  0  0  0
  162.8030  213.1650  148.4340 N   0  0  0  0  0  2  0  0  0  0  0  0
  160.5300  208.0080  152.7650 O   0  0  0  0  0  0  0  0  0  0  0  0
  157.6720  211.9200  151.9210 C   0  0  0  0  0  2  0  0  0  0  0  0
  158.5360  212.3880  145.2400 C   0  0  0  0  0  1  0  0  0  0  0  0
  161.6680  208.6700  150.9370 C   0  0  0  0  0  2  0  0  0  0  0  0
  159.2060  213.8010  150.3630 N   0  0  0  0  0  0  0  0  0  0  0  0
  159.7710  212.4230  146.1140 C   0  0  2  0  0  3  0  0  0  0  0  0
  160.0580  214.4470  149.3740 C   0  0  0  0  0  2  0  0  0  0  0  0
  161.5770  209.3740  149.6880 N   0  0  0  0  0  0  0  0  0  0  0  0
  160.5570  209.0090  151.8190 N   0  0  2  0  0  0  0  0  0  0  0  0
  161.9270  208.0300  156.2400 C   0  0  0  0  0  0  0  0  0  0  0  0
  162.4280  208.4320  157.2610 C   0  0  0  0  0  3  0  0  0  0  0  0
  1 12  1  0  0  0  0
  1  9  1  0  0  0  0
  2  7  1  1  0  0  0
  2 24  1  0  0  0  0
  2 14  1  0  0  0  0
  3 18  1  0  0  0  0
  4 14  1  1  0  0  0
  4 16  1  0  0  0  0
  5 17  2  0  0  0  0
  6  8  1  0  0  0  0
  6 28  1  0  0  0  0
  8 19  1  0  0  0  0
  9 30  2  0  0  0  0
 10 17  1  6  0  0  0
 11 15  1  0  0  0  0
 13  8  2  0  0  0  0
 15 24  1  0  0  0  0
 16  3  2  0  0  0  0
 17 29  1  0  0  0  0
 18 32  1  0  0  0  0
 19 12  1  1  0  0  0
 19 22  1  0  0  0  0
 19 10  1  0  0  0  0
 20 21  2  0  0  0  0
 21 27  1  0  0  0  0
 21 15  1  0  0  0  0
 22 10  1  0  0  0  0
 23  3  1  0  0  0  0
 27  7  1  0  0  0  0
 28 25  1  6  0  0  0
 28  5  1  0  0  0  0
 29 27  1  0  0  0  0
 30 26  1  0  0  0  0
 31 26  1  6  0  0  0
 31  4  1  0  0  0  0
 31 23  1  0  0  0  0
 32 33  3  0  0  0  0
M  END
>  <MODEL>
4

>  <REMARK>
 VINA RESULT:       3.1      2.397      8.239
  Name = 
  1 active torsions:
  status: ('A' for Active; 'I' for Inactive)
    1  A    between atoms: C_4  and  N_19
                            x       y       z     vdW  Elec       q    Type
                         _______ _______ _______ _____ _____    ______ ____

>  <TORSDO>
F 1

$$$$
