=
 OpenBabel11052411263D

 43 46  0  0  1  0  0  0  0  0999 V2000
  159.8930  202.9930  151.6590 C   0  0  0  0  0  3  0  0  0  0  0  0
  160.8220  207.5500  152.8980 C   0  0  0  0  0  0  0  0  0  0  0  0
  163.6020  208.0940  149.8030 C   0  0  0  0  0  2  0  0  0  0  0  0
  160.1420  204.0910  152.4800 C   0  0  0  0  0  3  0  0  0  0  0  0
  163.0980  208.3290  148.3780 C   0  0  0  0  0  2  0  0  0  0  0  0
  161.3520  203.9260  149.9860 C   0  0  0  0  0  3  0  0  0  0  0  0
  160.8840  208.4380  153.9750 C   0  0  0  0  0  3  0  0  0  0  0  0
  160.9870  205.1360  152.0710 C   0  0  0  0  0  0  0  0  0  0  0  0
  161.8150  209.1640  148.3820 C   0  0  1  0  0  3  0  0  0  0  0  0
  160.4980  202.9000  150.4050 C   0  0  0  0  0  0  0  0  0  0  0  0
  161.7050  205.8190  154.3360 C   0  0  0  0  0  3  0  0  0  0  0  0
  161.2340  206.2050  153.0730 C   0  0  0  0  0  0  0  0  0  0  0  0
  161.7760  206.7140  155.3580 N   0  0  0  0  0  0  0  0  0  0  0  0
  161.6030  205.0460  150.7870 C   0  0  0  0  0  0  0  0  0  0  0  0
  162.5590  207.3600  150.6450 C   0  0  2  0  0  3  0  0  0  0  0  0
  161.3750  208.0020  155.2070 C   0  0  0  0  0  0  0  0  0  0  0  0
  162.4690  206.0050  150.2390 O   0  0  0  0  0  0  0  0  0  0  0  0
  160.7130  208.4840  149.1990 C   0  0  0  0  0  2  0  0  0  0  0  0
  161.2150  208.0270  150.5360 C   0  0  0  0  0  0  0  0  0  0  0  0
  160.4120  208.0910  151.5950 C   0  0  0  0  0  3  0  0  0  0  0  0
  159.7170  212.5020  145.0230 N   0  0  0  0  0  2  0  0  0  0  0  0
  162.1170  212.8120  148.5950 O   0  0  0  0  0  0  0  0  0  0  0  0
  160.6910  212.6740  146.0610 C   0  0  0  0  0  0  0  0  0  0  0  0
  162.0870  210.5080  148.8770 N   0  0  0  0  0  2  0  0  0  0  0  0
  160.9130  211.6050  146.9850 N   0  0  0  0  0  2  0  0  0  0  0  0
  161.7260  211.6920  148.1650 C   0  0  0  0  0  0  0  0  0  0  0  0
  161.3700  213.7350  146.1310 O   0  0  0  0  0  0  0  0  0  0  0  0
  160.4760  214.4140  143.9370 O   0  0  0  0  0  1  0  0  0  0  0  0
  159.4500  213.4680  143.9580 C   0  0  0  0  0  0  0  0  0  0  0  0
  158.1320  214.1770  144.2090 C   0  0  0  0  0  1  0  0  0  0  0  0
  159.4020  212.7700  142.6080 C   0  0  0  0  0  1  0  0  0  0  0  0
  161.3530  201.0010  148.8760 C   0  0  0  0  0  1  0  0  0  0  0  0
  159.0540  201.3390  149.3460 O   0  0  0  0  0  0  0  0  0  0  0  0
  160.2360  201.7340  149.5380 C   0  0  0  0  0  0  0  0  0  0  0  0
  161.4050  208.9300  156.3700 C   0  0  0  0  0  2  0  0  0  0  0  0
  160.9800  211.2040  155.9050 C   0  0  0  0  0  3  0  0  0  0  0  0
  160.5160  210.0310  156.1230 N   0  0  0  0  0  0  0  0  0  0  0  0
  160.0570  212.3540  155.6480 C   0  0  0  0  0  2  0  0  0  0  0  0
  159.0330  212.0130  154.5720 C   0  0  0  0  0  2  0  0  0  0  0  0
  159.1340  212.9440  153.4560 N   0  0  0  0  0  2  0  0  0  0  0  0
  160.5280  211.4200  152.1420 O   0  0  0  0  0  1  0  0  0  0  0  0
  159.8330  212.6190  152.2540 C   0  0  0  0  0  0  0  0  0  0  0  0
  159.8230  213.4270  151.2880 O   0  0  0  0  0  0  0  0  0  0  0  0
  1  4  1  0  0  0  0
  2 12  2  0  0  0  0
  2  7  1  0  0  0  0
  5  9  1  0  0  0  0
  5  3  1  0  0  0  0
  6 10  1  0  0  0  0
  6 14  2  0  0  0  0
  7 16  2  0  0  0  0
  8  4  2  0  0  0  0
  8 12  1  0  0  0  0
  9 24  1  1  0  0  0
  9 18  1  0  0  0  0
 10  1  2  0  0  0  0
 11 13  2  0  0  0  0
 12 11  1  0  0  0  0
 14  8  1  0  0  0  0
 15  3  1  6  0  0  0
 16 13  1  0  0  0  0
 16 35  1  0  0  0  0
 17 15  1  0  0  0  0
 17 14  1  0  0  0  0
 18 19  1  0  0  0  0
 19 15  1  0  0  0  0
 19 20  2  0  0  0  0
 20  2  1  0  0  0  0
 21 23  1  0  0  0  0
 23 27  2  0  0  0  0
 23 25  1  0  0  0  0
 25 26  1  0  0  0  0
 26 22  2  0  0  0  0
 26 24  1  0  0  0  0
 28 29  1  0  0  0  0
 29 30  1  0  0  0  0
 29 21  1  0  0  0  0
 31 29  1  0  0  0  0
 32 34  1  0  0  0  0
 33 34  2  0  0  0  0
 34 10  1  0  0  0  0
 36 37  2  0  0  0  0
 37 35  1  0  0  0  0
 38 36  1  0  0  0  0
 39 38  1  0  0  0  0
 40 39  1  0  0  0  0
 41 42  1  0  0  0  0
 42 40  1  0  0  0  0
 43 42  2  0  0  0  0
M  END
>  <MODEL>
1

>  <REMARK>
 VINA RESULT:      -2.1      0.000      0.000
  Name = 
  8 active torsions:
  status: ('A' for Active; 'I' for Inactive)
    1  A    between atoms: N_1  and  C_13
    2  A    between atoms: N_5  and  C_31
    3  A    between atoms: C_6  and  C_29
    4  A    between atoms: C_6  and  C_31
    5  A    between atoms: C_17  and  N_23
    6  A    between atoms: C_18  and  C_35
    7  A    between atoms: C_33  and  C_40
    8  A    between atoms: C_40  and  N_43
                            x       y       z     vdW  Elec       q    Type
                         _______ _______ _______ _____ _____    ______ ____

>  <TORSDO>
F 8

$$$$
=
 OpenBabel11052411263D

 43 46  0  0  1  0  0  0  0  0999 V2000
  162.0020  205.7920  148.9300 C   0  0  0  0  0  3  0  0  0  0  0  0
  162.4440  210.3900  150.2820 C   0  0  0  0  0  0  0  0  0  0  0  0
  159.6070  210.0270  153.3510 C   0  0  0  0  0  2  0  0  0  0  0  0
  162.1380  207.1730  148.8110 C   0  0  0  0  0  3  0  0  0  0  0  0
  160.0070  209.3500  154.6630 C   0  0  0  0  0  2  0  0  0  0  0  0
  160.6790  206.1040  150.9170 C   0  0  0  0  0  3  0  0  0  0  0  0
  162.7300  211.6790  149.8270 C   0  0  0  0  0  3  0  0  0  0  0  0
  161.5630  208.0500  149.7460 C   0  0  0  0  0  0  0  0  0  0  0  0
  161.4580  209.6720  155.0250 C   0  0  1  0  0  3  0  0  0  0  0  0
  161.2690  205.2450  149.9840 C   0  0  0  0  0  0  0  0  0  0  0  0
  161.2860  209.9630  148.2040 C   0  0  0  0  0  3  0  0  0  0  0  0
  161.7110  209.5000  149.4570 C   0  0  0  0  0  0  0  0  0  0  0  0
  161.5590  211.2320  147.7990 N   0  0  0  0  0  0  0  0  0  0  0  0
  160.8170  207.4930  150.8280 C   0  0  0  0  0  0  0  0  0  0  0  0
  160.4990  209.5700  152.1970 C   0  0  2  0  0  3  0  0  0  0  0  0
  162.2700  212.0910  148.5750 C   0  0  0  0  0  0  0  0  0  0  0  0
  160.1840  208.2350  151.8370 O   0  0  0  0  0  0  0  0  0  0  0  0
  162.4180  209.2300  153.9170 C   0  0  0  0  0  2  0  0  0  0  0  0
  161.9530  209.6810  152.5660 C   0  0  0  0  0  0  0  0  0  0  0  0
  162.8470  210.0490  151.6530 C   0  0  0  0  0  3  0  0  0  0  0  0
  156.8060  211.4480  156.4530 N   0  0  0  0  0  2  0  0  0  0  0  0
  160.6960  213.1830  155.7620 O   0  0  0  0  0  0  0  0  0  0  0  0
  157.9980  212.1210  156.0270 C   0  0  0  0  0  0  0  0  0  0  0  0
  161.6040  211.0940  155.3130 N   0  0  0  0  0  2  0  0  0  0  0  0
  159.2120  211.3740  155.9120 N   0  0  0  0  0  2  0  0  0  0  0  0
  160.5070  211.9390  155.6620 C   0  0  0  0  0  0  0  0  0  0  0  0
  157.9650  213.3440  155.7190 O   0  0  0  0  0  0  0  0  0  0  0  0
  155.0040  212.2700  155.2320 O   0  0  0  0  0  1  0  0  0  0  0  0
  155.4800  212.0610  156.5280 C   0  0  0  0  0  0  0  0  0  0  0  0
  155.5570  213.3960  157.2450 C   0  0  0  0  0  1  0  0  0  0  0  0
  154.5130  211.1450  157.2610 C   0  0  0  0  0  1  0  0  0  0  0  0
  161.2520  203.1020  151.4270 C   0  0  0  0  0  1  0  0  0  0  0  0
  160.8830  203.0800  149.0860 O   0  0  0  0  0  0  0  0  0  0  0  0
  161.1230  203.7810  150.1060 C   0  0  0  0  0  0  0  0  0  0  0  0
  162.6050  213.4480  148.0640 C   0  0  0  0  0  2  0  0  0  0  0  0
  161.4850  214.1660  146.1150 C   0  0  0  0  0  3  0  0  0  0  0  0
  162.4270  213.4760  146.6380 N   0  0  0  0  0  0  0  0  0  0  0  0
  161.2960  214.1970  144.6300 C   0  0  0  0  0  2  0  0  0  0  0  0
  162.5180  213.6480  143.9040 C   0  0  0  0  0  2  0  0  0  0  0  0
  162.1370  212.5660  143.0060 N   0  0  0  0  0  2  0  0  0  0  0  0
  162.8450  213.7980  141.0120 O   0  0  0  0  0  1  0  0  0  0  0  0
  162.3450  212.6380  141.5960 C   0  0  0  0  0  0  0  0  0  0  0  0
  162.0720  211.6440  140.8720 O   0  0  0  0  0  0  0  0  0  0  0  0
  1 10  1  0  0  0  0
  2 20  1  0  0  0  0
  3  5  1  0  0  0  0
  4  1  2  0  0  0  0
  4  8  1  0  0  0  0
  5  9  1  0  0  0  0
  7  2  1  0  0  0  0
  8 14  2  0  0  0  0
  9 24  1  6  0  0  0
 10 34  1  0  0  0  0
 10  6  2  0  0  0  0
 11 12  1  0  0  0  0
 12  8  1  0  0  0  0
 12  2  2  0  0  0  0
 13 11  2  0  0  0  0
 13 16  1  0  0  0  0
 14  6  1  0  0  0  0
 14 17  1  0  0  0  0
 15 19  1  0  0  0  0
 15  3  1  1  0  0  0
 16  7  2  0  0  0  0
 17 15  1  0  0  0  0
 18  9  1  0  0  0  0
 19 18  1  0  0  0  0
 20 19  2  0  0  0  0
 21 29  1  0  0  0  0
 23 21  1  0  0  0  0
 24 26  1  0  0  0  0
 25 23  1  0  0  0  0
 26 22  2  0  0  0  0
 26 25  1  0  0  0  0
 27 23  2  0  0  0  0
 28 29  1  0  0  0  0
 29 30  1  0  0  0  0
 29 31  1  0  0  0  0
 33 34  2  0  0  0  0
 34 32  1  0  0  0  0
 35 16  1  0  0  0  0
 36 37  2  0  0  0  0
 37 35  1  0  0  0  0
 38 36  1  0  0  0  0
 39 38  1  0  0  0  0
 40 39  1  0  0  0  0
 41 42  1  0  0  0  0
 42 40  1  0  0  0  0
 43 42  2  0  0  0  0
M  END
>  <MODEL>
2

>  <REMARK>
 VINA RESULT:      -2.0      2.731      8.286
  Name = 
  8 active torsions:
  status: ('A' for Active; 'I' for Inactive)
    1  A    between atoms: N_1  and  C_13
    2  A    between atoms: N_5  and  C_31
    3  A    between atoms: C_6  and  C_29
    4  A    between atoms: C_6  and  C_31
    5  A    between atoms: C_17  and  N_23
    6  A    between atoms: C_18  and  C_35
    7  A    between atoms: C_33  and  C_40
    8  A    between atoms: C_40  and  N_43
                            x       y       z     vdW  Elec       q    Type
                         _______ _______ _______ _____ _____    ______ ____

>  <TORSDO>
F 8

$$$$
=
 OpenBabel11052411263D

 43 46  0  0  1  0  0  0  0  0999 V2000
  162.0090  205.6140  149.3570 C   0  0  0  0  0  3  0  0  0  0  0  0
  162.4320  210.2890  150.4200 C   0  0  0  0  0  0  0  0  0  0  0  0
  159.5350  210.1240  153.4500 C   0  0  0  0  0  2  0  0  0  0  0  0
  162.1500  206.9850  149.1520 C   0  0  0  0  0  3  0  0  0  0  0  0
  159.9080  209.5320  154.8100 C   0  0  0  0  0  2  0  0  0  0  0  0
  160.6490  206.0530  151.2940 C   0  0  0  0  0  3  0  0  0  0  0  0
  162.7280  211.5470  149.8880 C   0  0  0  0  0  3  0  0  0  0  0  0
  161.5580  207.9200  150.0180 C   0  0  0  0  0  0  0  0  0  0  0  0
  161.3530  209.8770  155.1790 C   0  0  1  0  0  3  0  0  0  0  0  0
  161.2560  205.1360  150.4290 C   0  0  0  0  0  0  0  0  0  0  0  0
  161.3140  209.7300  148.3510 C   0  0  0  0  0  3  0  0  0  0  0  0
  161.7140  209.3490  149.6400 C   0  0  0  0  0  0  0  0  0  0  0  0
  161.5960  210.9710  147.8710 N   0  0  0  0  0  0  0  0  0  0  0  0
  160.7900  207.4340  151.1180 C   0  0  0  0  0  0  0  0  0  0  0  0
  160.4480  209.5940  152.3460 C   0  0  2  0  0  3  0  0  0  0  0  0
  162.2930  211.8770  148.6040 C   0  0  0  0  0  0  0  0  0  0  0  0
  160.1390  208.2380  152.0660 O   0  0  0  0  0  0  0  0  0  0  0  0
  162.3330  209.3640  154.1210 C   0  0  0  0  0  2  0  0  0  0  0  0
  161.8950  209.7280  152.7350 C   0  0  0  0  0  0  0  0  0  0  0  0
  162.8070  210.0370  151.8180 C   0  0  0  0  0  3  0  0  0  0  0  0
  156.7000  211.7230  156.5140 N   0  0  0  0  0  2  0  0  0  0  0  0
  160.5810  213.4240  155.7010 O   0  0  0  0  0  0  0  0  0  0  0  0
  157.8880  212.3720  156.0420 C   0  0  0  0  0  0  0  0  0  0  0  0
  161.4950  211.3140  155.3780 N   0  0  0  0  0  2  0  0  0  0  0  0
  159.1040  211.6230  155.9690 N   0  0  0  0  0  2  0  0  0  0  0  0
  160.3960  212.1760  155.6790 C   0  0  0  0  0  0  0  0  0  0  0  0
  157.8500  213.5740  155.6590 O   0  0  0  0  0  0  0  0  0  0  0  0
  155.4510  213.5380  157.2610 O   0  0  0  0  0  1  0  0  0  0  0  0
  155.3730  212.3350  156.5570 C   0  0  0  0  0  0  0  0  0  0  0  0
  154.3920  211.4160  157.2600 C   0  0  0  0  0  1  0  0  0  0  0  0
  154.8770  212.6250  155.1490 C   0  0  0  0  0  1  0  0  0  0  0  0
  160.7190  202.7770  149.5230 C   0  0  0  0  0  1  0  0  0  0  0  0
  161.3060  203.1850  151.7820 O   0  0  0  0  0  0  0  0  0  0  0  0
  161.1050  203.6820  150.6420 C   0  0  0  0  0  0  0  0  0  0  0  0
  162.6390  213.1990  148.0140 C   0  0  0  0  0  2  0  0  0  0  0  0
  162.2740  213.5410  145.7070 C   0  0  0  0  0  3  0  0  0  0  0  0
  161.7850  213.4540  146.8860 N   0  0  0  0  0  0  0  0  0  0  0  0
  161.3880  213.8080  144.5310 C   0  0  0  0  0  2  0  0  0  0  0  0
  160.2150  212.8360  144.4890 C   0  0  0  0  0  2  0  0  0  0  0  0
  158.9600  213.5550  144.3120 N   0  0  0  0  0  2  0  0  0  0  0  0
  158.0370  212.7230  146.4210 O   0  0  0  0  0  1  0  0  0  0  0  0
  157.9210  213.5240  145.2900 C   0  0  0  0  0  0  0  0  0  0  0  0
  156.8890  214.2270  145.1270 O   0  0  0  0  0  0  0  0  0  0  0  0
  1 10  1  0  0  0  0
  2 20  1  0  0  0  0
  3  5  1  0  0  0  0
  4  1  2  0  0  0  0
  4  8  1  0  0  0  0
  5  9  1  0  0  0  0
  7  2  1  0  0  0  0
  8 14  2  0  0  0  0
  9 24  1  6  0  0  0
 10 34  1  0  0  0  0
 10  6  2  0  0  0  0
 11 12  1  0  0  0  0
 12  8  1  0  0  0  0
 12  2  2  0  0  0  0
 13 11  2  0  0  0  0
 13 16  1  0  0  0  0
 14  6  1  0  0  0  0
 14 17  1  0  0  0  0
 15 19  1  0  0  0  0
 15  3  1  1  0  0  0
 16  7  2  0  0  0  0
 17 15  1  0  0  0  0
 18  9  1  0  0  0  0
 19 18  1  0  0  0  0
 20 19  2  0  0  0  0
 21 29  1  0  0  0  0
 23 21  1  0  0  0  0
 24 26  1  0  0  0  0
 25 23  1  0  0  0  0
 26 22  2  0  0  0  0
 26 25  1  0  0  0  0
 27 23  2  0  0  0  0
 29 30  1  0  0  0  0
 29 28  1  0  0  0  0
 31 29  1  0  0  0  0
 32 34  1  0  0  0  0
 34 33  2  0  0  0  0
 35 16  1  0  0  0  0
 36 37  2  0  0  0  0
 37 35  1  0  0  0  0
 38 36  1  0  0  0  0
 39 38  1  0  0  0  0
 40 39  1  0  0  0  0
 40 42  1  0  0  0  0
 42 41  1  0  0  0  0
 43 42  2  0  0  0  0
M  END
>  <MODEL>
3

>  <REMARK>
 VINA RESULT:      -1.6      2.674      7.851
  Name = 
  8 active torsions:
  status: ('A' for Active; 'I' for Inactive)
    1  A    between atoms: N_1  and  C_13
    2  A    between atoms: N_5  and  C_31
    3  A    between atoms: C_6  and  C_29
    4  A    between atoms: C_6  and  C_31
    5  A    between atoms: C_17  and  N_23
    6  A    between atoms: C_18  and  C_35
    7  A    between atoms: C_33  and  C_40
    8  A    between atoms: C_40  and  N_43
                            x       y       z     vdW  Elec       q    Type
                         _______ _______ _______ _____ _____    ______ ____

>  <TORSDO>
F 8

$$$$
=
 OpenBabel11052411263D

 43 46  0  0  1  0  0  0  0  0999 V2000
  162.0490  205.6380  148.8940 C   0  0  0  0  0  3  0  0  0  0  0  0
  162.4130  210.2650  150.1670 C   0  0  0  0  0  0  0  0  0  0  0  0
  159.5960  209.9010  153.2550 C   0  0  0  0  0  2  0  0  0  0  0  0
  162.1600  207.0200  148.7510 C   0  0  0  0  0  3  0  0  0  0  0  0
  160.0150  209.2530  154.5770 C   0  0  0  0  0  2  0  0  0  0  0  0
  160.7300  205.9590  150.8820 C   0  0  0  0  0  3  0  0  0  0  0  0
  162.6730  211.5520  149.6890 C   0  0  0  0  0  3  0  0  0  0  0  0
  161.5720  207.9010  149.6740 C   0  0  0  0  0  0  0  0  0  0  0  0
  161.4610  209.6090  154.9270 C   0  0  1  0  0  3  0  0  0  0  0  0
  161.3320  205.0950  149.9600 C   0  0  0  0  0  0  0  0  0  0  0  0
  161.2530  209.7830  148.1030 C   0  0  0  0  0  3  0  0  0  0  0  0
  161.6930  209.3490  149.3610 C   0  0  0  0  0  0  0  0  0  0  0  0
  161.5010  211.0500  147.6750 N   0  0  0  0  0  0  0  0  0  0  0  0
  160.8420  207.3490  150.7690 C   0  0  0  0  0  0  0  0  0  0  0  0
  160.4910  209.4410  152.1050 C   0  0  2  0  0  3  0  0  0  0  0  0
  162.1990  211.9340  148.4330 C   0  0  0  0  0  0  0  0  0  0  0  0
  160.2000  208.0950  151.7690 O   0  0  0  0  0  0  0  0  0  0  0  0
  162.4250  209.1650  153.8220 C   0  0  0  0  0  2  0  0  0  0  0  0
  161.9450  209.5850  152.4650 C   0  0  0  0  0  0  0  0  0  0  0  0
  162.8280  209.9550  151.5420 C   0  0  0  0  0  3  0  0  0  0  0  0
  156.7770  211.3270  156.3190 N   0  0  0  0  0  2  0  0  0  0  0  0
  160.6380  213.1170  155.6030 O   0  0  0  0  0  0  0  0  0  0  0  0
  157.9580  212.0140  155.8830 C   0  0  0  0  0  0  0  0  0  0  0  0
  161.5830  211.0370  155.1910 N   0  0  0  0  0  2  0  0  0  0  0  0
  159.1850  211.2860  155.7820 N   0  0  0  0  0  2  0  0  0  0  0  0
  160.4700  211.8690  155.5230 C   0  0  0  0  0  0  0  0  0  0  0  0
  157.9050  213.2310  155.5540 O   0  0  0  0  0  0  0  0  0  0  0  0
  155.0450  212.2810  155.0940 O   0  0  0  0  0  1  0  0  0  0  0  0
  155.4410  211.9180  156.3820 C   0  0  0  0  0  0  0  0  0  0  0  0
  155.4540  213.1550  157.2600 C   0  0  0  0  0  1  0  0  0  0  0  0
  154.4430  210.9130  156.9340 C   0  0  0  0  0  1  0  0  0  0  0  0
  160.8410  202.7690  148.9490 C   0  0  0  0  0  1  0  0  0  0  0  0
  161.4310  203.0860  151.2220 O   0  0  0  0  0  0  0  0  0  0  0  0
  161.2140  203.6310  150.1070 C   0  0  0  0  0  0  0  0  0  0  0  0
  162.5070  213.2890  147.8980 C   0  0  0  0  0  2  0  0  0  0  0  0
  160.1530  213.4450  147.8390 C   0  0  0  0  0  3  0  0  0  0  0  0
  161.2850  213.9260  147.4880 N   0  0  0  0  0  0  0  0  0  0  0  0
  158.8790  214.1040  147.4130 C   0  0  0  0  0  2  0  0  0  0  0  0
  157.7670  213.8730  148.4300 C   0  0  0  0  0  2  0  0  0  0  0  0
  158.2550  214.1070  149.7830 N   0  0  0  0  0  2  0  0  0  0  0  0
  155.9970  214.1440  150.7290 O   0  0  0  0  0  0  0  0  0  0  0  0
  157.3760  214.1920  150.9050 C   0  0  0  0  0  0  0  0  0  0  0  0
  157.8530  214.3150  152.0640 O   0  0  0  0  0  1  0  0  0  0  0  0
  1 10  1  0  0  0  0
  2 20  1  0  0  0  0
  3  5  1  0  0  0  0
  4  1  2  0  0  0  0
  4  8  1  0  0  0  0
  5  9  1  0  0  0  0
  7  2  1  0  0  0  0
  8 14  2  0  0  0  0
  9 24  1  6  0  0  0
 10 34  1  0  0  0  0
 10  6  2  0  0  0  0
 11 12  1  0  0  0  0
 12  8  1  0  0  0  0
 12  2  2  0  0  0  0
 13 11  2  0  0  0  0
 13 16  1  0  0  0  0
 14  6  1  0  0  0  0
 14 17  1  0  0  0  0
 15 19  1  0  0  0  0
 15  3  1  1  0  0  0
 16  7  2  0  0  0  0
 17 15  1  0  0  0  0
 18  9  1  0  0  0  0
 19 18  1  0  0  0  0
 20 19  2  0  0  0  0
 21 29  1  0  0  0  0
 23 21  1  0  0  0  0
 24 26  1  0  0  0  0
 25 23  1  0  0  0  0
 26 22  2  0  0  0  0
 26 25  1  0  0  0  0
 27 23  2  0  0  0  0
 28 29  1  0  0  0  0
 29 31  1  0  0  0  0
 29 30  1  0  0  0  0
 32 34  1  0  0  0  0
 34 33  2  0  0  0  0
 35 16  1  0  0  0  0
 37 36  2  0  0  0  0
 37 35  1  0  0  0  0
 38 36  1  0  0  0  0
 38 39  1  0  0  0  0
 39 40  1  0  0  0  0
 40 42  1  0  0  0  0
 41 42  2  0  0  0  0
 42 43  1  0  0  0  0
M  END
>  <MODEL>
4

>  <REMARK>
 VINA RESULT:      -1.4      2.883      7.304
  Name = 
  8 active torsions:
  status: ('A' for Active; 'I' for Inactive)
    1  A    between atoms: N_1  and  C_13
    2  A    between atoms: N_5  and  C_31
    3  A    between atoms: C_6  and  C_29
    4  A    between atoms: C_6  and  C_31
    5  A    between atoms: C_17  and  N_23
    6  A    between atoms: C_18  and  C_35
    7  A    between atoms: C_33  and  C_40
    8  A    between atoms: C_40  and  N_43
                            x       y       z     vdW  Elec       q    Type
                         _______ _______ _______ _____ _____    ______ ____

>  <TORSDO>
F 8

$$$$
=
 OpenBabel11052411263D

 43 46  0  0  1  0  0  0  0  0999 V2000
  159.9530  214.4390  143.2540 C   0  0  0  0  0  3  0  0  0  0  0  0
  158.7850  213.8770  147.8880 C   0  0  0  0  0  0  0  0  0  0  0  0
  160.8170  210.2220  148.2210 C   0  0  0  0  0  2  0  0  0  0  0  0
  159.1710  214.4530  144.4070 C   0  0  0  0  0  3  0  0  0  0  0  0
  162.3410  210.2230  148.3550 C   0  0  0  0  0  2  0  0  0  0  0  0
  161.1080  212.4920  144.0710 C   0  0  0  0  0  3  0  0  0  0  0  0
  157.8100  214.1550  148.8500 C   0  0  0  0  0  3  0  0  0  0  0  0
  159.3480  213.4990  145.4230 C   0  0  0  0  0  0  0  0  0  0  0  0
  162.8170  211.4170  149.1840 C   0  0  1  0  0  3  0  0  0  0  0  0
  160.9280  213.4580  143.0750 C   0  0  0  0  0  0  0  0  0  0  0  0
  157.0240  213.5530  146.2650 C   0  0  0  0  0  3  0  0  0  0  0  0
  158.3940  213.5740  146.5610 C   0  0  0  0  0  0  0  0  0  0  0  0
  156.0980  213.8040  147.2290 N   0  0  0  0  0  0  0  0  0  0  0  0
  160.3470  212.4960  145.2450 C   0  0  0  0  0  0  0  0  0  0  0  0
  160.3190  211.4990  147.5460 C   0  0  2  0  0  3  0  0  0  0  0  0
  156.4590  214.1070  148.5030 C   0  0  0  0  0  0  0  0  0  0  0  0
  160.6410  211.4780  146.1650 O   0  0  0  0  0  0  0  0  0  0  0  0
  162.3650  212.7410  148.5600 C   0  0  0  0  0  2  0  0  0  0  0  0
  160.9110  212.7180  148.2000 C   0  0  0  0  0  0  0  0  0  0  0  0
  160.1830  213.8230  148.3360 C   0  0  0  0  0  3  0  0  0  0  0  0
  161.9480  206.3910  150.0880 N   0  0  0  0  0  2  0  0  0  0  0  0
  161.4170  210.0630  152.2910 O   0  0  0  0  0  0  0  0  0  0  0  0
  161.5360  207.5740  150.7850 C   0  0  0  0  0  0  0  0  0  0  0  0
  162.3510  211.2970  150.5600 N   0  0  0  0  0  2  0  0  0  0  0  0
  162.1210  208.8290  150.4260 N   0  0  0  0  0  2  0  0  0  0  0  0
  161.9350  210.0600  151.1400 C   0  0  0  0  0  0  0  0  0  0  0  0
  160.6410  207.5140  151.6720 O   0  0  0  0  0  0  0  0  0  0  0  0
  159.9940  205.1860  150.4640 O   0  0  0  0  0  1  0  0  0  0  0  0
  161.3730  205.0610  150.2840 C   0  0  0  0  0  0  0  0  0  0  0  0
  161.9720  204.4050  151.5140 C   0  0  0  0  0  1  0  0  0  0  0  0
  161.6290  204.1880  149.0660 C   0  0  0  0  0  1  0  0  0  0  0  0
  161.2120  212.9140  140.5650 C   0  0  0  0  0  1  0  0  0  0  0  0
  162.9330  213.8840  141.8760 O   0  0  0  0  0  0  0  0  0  0  0  0
  161.7520  213.4430  141.8500 C   0  0  0  0  0  0  0  0  0  0  0  0
  155.4160  214.4420  149.5100 C   0  0  0  0  0  2  0  0  0  0  0  0
  155.2390  214.3750  151.8620 C   0  0  0  0  0  3  0  0  0  0  0  0
  155.9900  214.3850  150.8260 N   0  0  0  0  0  0  0  0  0  0  0  0
  155.8330  214.3160  153.2340 C   0  0  0  0  0  2  0  0  0  0  0  0
  157.0180  213.3590  153.2850 C   0  0  0  0  0  2  0  0  0  0  0  0
  157.6460  213.3900  154.5990 N   0  0  0  0  0  2  0  0  0  0  0  0
  159.7700  212.5210  153.7490 O   0  0  0  0  0  0  0  0  0  0  0  0
  159.0090  213.0190  154.8010 C   0  0  0  0  0  0  0  0  0  0  0  0
  159.5280  213.1410  155.9420 O   0  0  0  0  0  1  0  0  0  0  0  0
  1  4  1  0  0  0  0
  2 20  1  0  0  0  0
  2  7  1  0  0  0  0
  3  5  1  0  0  0  0
  4  8  2  0  0  0  0
  5  9  1  0  0  0  0
  6 14  2  0  0  0  0
  8 12  1  0  0  0  0
  9 24  1  1  0  0  0
 10  1  2  0  0  0  0
 10  6  1  0  0  0  0
 11 12  1  0  0  0  0
 11 13  2  0  0  0  0
 12  2  2  0  0  0  0
 13 16  1  0  0  0  0
 14  8  1  0  0  0  0
 14 17  1  0  0  0  0
 15 19  1  0  0  0  0
 15  3  1  1  0  0  0
 16  7  2  0  0  0  0
 16 35  1  0  0  0  0
 17 15  1  0  0  0  0
 18  9  1  0  0  0  0
 19 20  2  0  0  0  0
 19 18  1  0  0  0  0
 21 29  1  0  0  0  0
 21 23  1  0  0  0  0
 23 27  2  0  0  0  0
 24 26  1  0  0  0  0
 25 23  1  0  0  0  0
 25 26  1  0  0  0  0
 26 22  2  0  0  0  0
 29 28  1  0  0  0  0
 29 30  1  0  0  0  0
 31 29  1  0  0  0  0
 32 34  1  0  0  0  0
 34 33  2  0  0  0  0
 34 10  1  0  0  0  0
 35 37  1  0  0  0  0
 36 38  1  0  0  0  0
 37 36  2  0  0  0  0
 38 39  1  0  0  0  0
 39 40  1  0  0  0  0
 40 42  1  0  0  0  0
 41 42  2  0  0  0  0
 42 43  1  0  0  0  0
M  END
>  <MODEL>
5

>  <REMARK>
 VINA RESULT:      -1.2      2.721      8.917
  Name = 
  8 active torsions:
  status: ('A' for Active; 'I' for Inactive)
    1  A    between atoms: N_1  and  C_13
    2  A    between atoms: N_5  and  C_31
    3  A    between atoms: C_6  and  C_29
    4  A    between atoms: C_6  and  C_31
    5  A    between atoms: C_17  and  N_23
    6  A    between atoms: C_18  and  C_35
    7  A    between atoms: C_33  and  C_40
    8  A    between atoms: C_40  and  N_43
                            x       y       z     vdW  Elec       q    Type
                         _______ _______ _______ _____ _____    ______ ____

>  <TORSDO>
F 8

$$$$
=
 OpenBabel11052411263D

 43 46  0  0  1  0  0  0  0  0999 V2000
  160.2020  201.7080  149.0910 C   0  0  0  0  0  3  0  0  0  0  0  0
  160.5270  205.9040  151.4250 C   0  0  0  0  0  0  0  0  0  0  0  0
  163.4910  207.3950  148.8560 C   0  0  0  0  0  2  0  0  0  0  0  0
  160.2590  202.5970  150.1620 C   0  0  0  0  0  3  0  0  0  0  0  0
  163.0900  207.9170  147.4750 C   0  0  0  0  0  2  0  0  0  0  0  0
  161.6920  203.1280  147.8430 C   0  0  0  0  0  3  0  0  0  0  0  0
  160.4010  206.5150  152.6750 C   0  0  0  0  0  3  0  0  0  0  0  0
  161.0200  203.7760  150.0950 C   0  0  0  0  0  0  0  0  0  0  0  0
  161.7300  208.6160  147.5280 C   0  0  1  0  0  3  0  0  0  0  0  0
  160.9190  201.9650  147.9230 C   0  0  0  0  0  0  0  0  0  0  0  0
  161.4620  203.9640  152.5200 C   0  0  0  0  0  3  0  0  0  0  0  0
  161.0640  204.5960  151.3340 C   0  0  0  0  0  0  0  0  0  0  0  0
  161.3490  204.5940  153.7200 N   0  0  0  0  0  0  0  0  0  0  0  0
  161.7520  204.0450  148.8990 C   0  0  0  0  0  0  0  0  0  0  0  0
  162.4640  206.3980  149.3910 C   0  0  2  0  0  3  0  0  0  0  0  0
  160.8270  205.8430  153.8220 C   0  0  0  0  0  0  0  0  0  0  0  0
  162.5550  205.1750  148.6810 O   0  0  0  0  0  0  0  0  0  0  0  0
  160.6410  207.6730  148.0450 C   0  0  0  0  0  2  0  0  0  0  0  0
  161.0710  206.9570  149.2890 C   0  0  0  0  0  0  0  0  0  0  0  0
  160.1770  206.7010  150.2410 C   0  0  0  0  0  3  0  0  0  0  0  0
  159.5680  212.4610  144.8130 N   0  0  0  0  0  2  0  0  0  0  0  0
  161.6160  212.1230  148.5960 O   0  0  0  0  0  0  0  0  0  0  0  0
  160.4280  212.4660  145.9600 C   0  0  0  0  0  0  0  0  0  0  0  0
  161.8130  209.8230  148.3410 N   0  0  0  0  0  2  0  0  0  0  0  0
  160.6880  211.2320  146.6350 N   0  0  0  0  0  2  0  0  0  0  0  0
  161.3860  211.1070  147.8830 C   0  0  0  0  0  0  0  0  0  0  0  0
  160.9800  213.5350  146.3410 O   0  0  0  0  0  0  0  0  0  0  0  0
  160.4210  214.4380  143.9310 O   0  0  0  0  0  1  0  0  0  0  0  0
  159.2870  213.6250  143.9730 C   0  0  0  0  0  0  0  0  0  0  0  0
  158.1320  214.4230  144.5490 C   0  0  0  0  0  1  0  0  0  0  0  0
  158.9470  213.1880  142.5570 C   0  0  0  0  0  1  0  0  0  0  0  0
  160.1440  201.3700  145.5310 C   0  0  0  0  0  1  0  0  0  0  0  0
  161.4210  199.8930  146.8750 O   0  0  0  0  0  0  0  0  0  0  0  0
  160.8600  201.0190  146.7900 C   0  0  0  0  0  0  0  0  0  0  0  0
  160.6570  206.4690  155.1610 C   0  0  0  0  0  2  0  0  0  0  0  0
  160.9340  208.6890  155.9130 C   0  0  0  0  0  3  0  0  0  0  0  0
  161.3620  207.7210  155.1930 N   0  0  0  0  0  0  0  0  0  0  0  0
  161.6650  209.9940  155.9480 C   0  0  0  0  0  2  0  0  0  0  0  0
  162.2800  210.3220  154.5930 C   0  0  0  0  0  2  0  0  0  0  0  0
  161.2460  210.7010  153.6390 N   0  0  0  0  0  2  0  0  0  0  0  0
  162.7060  210.3270  151.7100 O   0  0  0  0  0  1  0  0  0  0  0  0
  161.4570  210.6540  152.2280 C   0  0  0  0  0  0  0  0  0  0  0  0
  160.5060  210.9140  151.4450 O   0  0  0  0  0  0  0  0  0  0  0  0
  1  4  1  0  0  0  0
  2  7  1  0  0  0  0
  5  9  1  0  0  0  0
  5  3  1  0  0  0  0
  6 10  1  0  0  0  0
  6 14  2  0  0  0  0
  7 16  2  0  0  0  0
  8  4  2  0  0  0  0
  8 12  1  0  0  0  0
  9 18  1  0  0  0  0
  9 24  1  1  0  0  0
 10  1  2  0  0  0  0
 11 13  2  0  0  0  0
 12  2  2  0  0  0  0
 12 11  1  0  0  0  0
 13 16  1  0  0  0  0
 14  8  1  0  0  0  0
 15  3  1  6  0  0  0
 16 35  1  0  0  0  0
 17 14  1  0  0  0  0
 17 15  1  0  0  0  0
 18 19  1  0  0  0  0
 19 15  1  0  0  0  0
 19 20  2  0  0  0  0
 20  2  1  0  0  0  0
 21 23  1  0  0  0  0
 23 27  2  0  0  0  0
 23 25  1  0  0  0  0
 25 26  1  0  0  0  0
 26 24  1  0  0  0  0
 26 22  2  0  0  0  0
 28 29  1  0  0  0  0
 29 30  1  0  0  0  0
 29 21  1  0  0  0  0
 31 29  1  0  0  0  0
 32 34  1  0  0  0  0
 34 33  2  0  0  0  0
 34 10  1  0  0  0  0
 35 37  1  0  0  0  0
 36 38  1  0  0  0  0
 37 36  2  0  0  0  0
 39 38  1  0  0  0  0
 40 39  1  0  0  0  0
 41 42  1  0  0  0  0
 42 40  1  0  0  0  0
 43 42  2  0  0  0  0
M  END
>  <MODEL>
6

>  <REMARK>
 VINA RESULT:      -0.9      1.573      2.179
  Name = 
  8 active torsions:
  status: ('A' for Active; 'I' for Inactive)
    1  A    between atoms: N_1  and  C_13
    2  A    between atoms: N_5  and  C_31
    3  A    between atoms: C_6  and  C_29
    4  A    between atoms: C_6  and  C_31
    5  A    between atoms: C_17  and  N_23
    6  A    between atoms: C_18  and  C_35
    7  A    between atoms: C_33  and  C_40
    8  A    between atoms: C_40  and  N_43
                            x       y       z     vdW  Elec       q    Type
                         _______ _______ _______ _____ _____    ______ ____

>  <TORSDO>
F 8

$$$$
=
 OpenBabel11052411263D

 43 46  0  0  1  0  0  0  0  0999 V2000
  155.8310  212.6030  154.4700 C   0  0  0  0  0  3  0  0  0  0  0  0
  159.6460  211.7390  151.6670 C   0  0  0  0  0  0  0  0  0  0  0  0
  161.8430  209.9630  154.7690 C   0  0  0  0  0  2  0  0  0  0  0  0
  156.8060  212.8240  153.5010 C   0  0  0  0  0  3  0  0  0  0  0  0
  161.5210  208.5280  155.1870 C   0  0  0  0  0  2  0  0  0  0  0  0
  157.4110  211.3220  155.7560 C   0  0  0  0  0  3  0  0  0  0  0  0
  160.3630  212.2000  150.5600 C   0  0  0  0  0  3  0  0  0  0  0  0
  158.0990  212.2900  153.6280 C   0  0  0  0  0  0  0  0  0  0  0  0
  161.1250  207.6800  153.9760 C   0  0  1  0  0  3  0  0  0  0  0  0
  156.1250  211.8510  155.6070 C   0  0  0  0  0  0  0  0  0  0  0  0
  159.2550  214.0350  152.3120 C   0  0  0  0  0  3  0  0  0  0  0  0
  159.0690  212.6690  152.5670 C   0  0  0  0  0  0  0  0  0  0  0  0
  159.9790  214.4530  151.2390 N   0  0  0  0  0  0  0  0  0  0  0  0
  158.4030  211.5160  154.7880 C   0  0  0  0  0  0  0  0  0  0  0  0
  160.6430  210.6270  154.0960 C   0  0  2  0  0  3  0  0  0  0  0  0
  160.5280  213.5720  150.3630 C   0  0  0  0  0  0  0  0  0  0  0  0
  159.6430  210.9190  155.0580 O   0  0  0  0  0  0  0  0  0  0  0  0
  159.9140  208.2780  153.2530 C   0  0  0  0  0  2  0  0  0  0  0  0
  160.0810  209.7480  153.0120 C   0  0  0  0  0  0  0  0  0  0  0  0
  159.6060  210.2880  151.8930 C   0  0  0  0  0  3  0  0  0  0  0  0
  160.1910  203.5380  151.0090 N   0  0  0  0  0  2  0  0  0  0  0  0
  163.4610  206.3090  151.5050 O   0  0  0  0  0  0  0  0  0  0  0  0
  161.3930  204.2730  151.2760 C   0  0  0  0  0  0  0  0  0  0  0  0
  162.2570  207.5290  153.0710 N   0  0  0  0  0  2  0  0  0  0  0  0
  161.3010  205.5220  151.9670 N   0  0  0  0  0  2  0  0  0  0  0  0
  162.3880  206.4400  152.1550 C   0  0  0  0  0  0  0  0  0  0  0  0
  162.5150  203.8040  150.9420 O   0  0  0  0  0  0  0  0  0  0  0  0
  158.8160  201.7700  150.3800 O   0  0  0  0  0  1  0  0  0  0  0  0
  160.1400  202.2120  150.3960 C   0  0  0  0  0  0  0  0  0  0  0  0
  160.9760  201.2300  151.1960 C   0  0  0  0  0  1  0  0  0  0  0  0
  160.6520  202.2680  148.9660 C   0  0  0  0  0  1  0  0  0  0  0  0
  154.6170  210.2450  156.9570 C   0  0  0  0  0  1  0  0  0  0  0  0
  154.5900  212.5950  157.2610 O   0  0  0  0  0  0  0  0  0  0  0  0
  155.0900  211.6220  156.6350 C   0  0  0  0  0  0  0  0  0  0  0  0
  161.2540  214.0740  149.1650 C   0  0  0  0  0  2  0  0  0  0  0  0
  161.1060  213.6920  146.8410 C   0  0  0  0  0  3  0  0  0  0  0  0
  160.9180  213.2580  148.0300 N   0  0  0  0  0  0  0  0  0  0  0  0
  160.7560  212.8470  145.6560 C   0  0  0  0  0  2  0  0  0  0  0  0
  160.5010  213.7030  144.4210 C   0  0  0  0  0  2  0  0  0  0  0  0
  160.0480  212.8760  143.3100 N   0  0  0  0  0  2  0  0  0  0  0  0
  162.3080  212.6310  142.4030 O   0  0  0  0  0  1  0  0  0  0  0  0
  160.9530  212.3210  142.3560 C   0  0  0  0  0  0  0  0  0  0  0  0
  160.5210  211.5470  141.4610 O   0  0  0  0  0  0  0  0  0  0  0  0
  1 10  1  0  0  0  0
  2 20  1  0  0  0  0
  2 12  1  0  0  0  0
  3  5  1  0  0  0  0
  4  8  1  0  0  0  0
  4  1  2  0  0  0  0
  7  2  2  0  0  0  0
  8 14  2  0  0  0  0
  9 24  1  6  0  0  0
  9  5  1  0  0  0  0
 10  6  2  0  0  0  0
 10 34  1  0  0  0  0
 11 12  2  0  0  0  0
 12  8  1  0  0  0  0
 13 11  1  0  0  0  0
 14 17  1  0  0  0  0
 14  6  1  0  0  0  0
 15  3  1  1  0  0  0
 15 17  1  0  0  0  0
 16  7  1  0  0  0  0
 16 13  2  0  0  0  0
 18  9  1  0  0  0  0
 19 18  1  0  0  0  0
 19 15  1  0  0  0  0
 20 19  2  0  0  0  0
 21 23  1  0  0  0  0
 22 26  2  0  0  0  0
 23 25  1  0  0  0  0
 25 26  1  0  0  0  0
 26 24  1  0  0  0  0
 27 23  2  0  0  0  0
 28 29  1  0  0  0  0
 29 21  1  0  0  0  0
 29 30  1  0  0  0  0
 31 29  1  0  0  0  0
 34 32  1  0  0  0  0
 34 33  2  0  0  0  0
 35 16  1  0  0  0  0
 36 37  2  0  0  0  0
 37 35  1  0  0  0  0
 38 36  1  0  0  0  0
 39 38  1  0  0  0  0
 40 39  1  0  0  0  0
 42 41  1  0  0  0  0
 42 40  1  0  0  0  0
 43 42  2  0  0  0  0
M  END
>  <MODEL>
7

>  <REMARK>
 VINA RESULT:      -0.9      2.663      9.409
  Name = 
  8 active torsions:
  status: ('A' for Active; 'I' for Inactive)
    1  A    between atoms: N_1  and  C_13
    2  A    between atoms: N_5  and  C_31
    3  A    between atoms: C_6  and  C_29
    4  A    between atoms: C_6  and  C_31
    5  A    between atoms: C_17  and  N_23
    6  A    between atoms: C_18  and  C_35
    7  A    between atoms: C_33  and  C_40
    8  A    between atoms: C_40  and  N_43
                            x       y       z     vdW  Elec       q    Type
                         _______ _______ _______ _____ _____    ______ ____

>  <TORSDO>
F 8

$$$$
=
 OpenBabel11052411263D

 43 46  0  0  1  0  0  0  0  0999 V2000
  160.1840  203.2210  151.9490 C   0  0  0  0  0  3  0  0  0  0  0  0
  160.7250  207.8640  153.0920 C   0  0  0  0  0  0  0  0  0  0  0  0
  163.6870  208.4980  150.1900 C   0  0  0  0  0  2  0  0  0  0  0  0
  160.3000  204.3570  152.7470 C   0  0  0  0  0  3  0  0  0  0  0  0
  163.2760  208.6560  148.7240 C   0  0  0  0  0  2  0  0  0  0  0  0
  161.7010  204.1980  150.3550 C   0  0  0  0  0  3  0  0  0  0  0  0
  160.6500  208.7870  154.1390 C   0  0  0  0  0  3  0  0  0  0  0  0
  161.1050  205.4430  152.3640 C   0  0  0  0  0  0  0  0  0  0  0  0
  161.9460  209.4040  148.6060 C   0  0  1  0  0  3  0  0  0  0  0  0
  160.8850  203.1310  150.7460 C   0  0  0  0  0  0  0  0  0  0  0  0
  161.6070  206.2400  154.6500 C   0  0  0  0  0  3  0  0  0  0  0  0
  161.2080  206.5560  153.3430 C   0  0  0  0  0  0  0  0  0  0  0  0
  161.5450  207.1680  155.6420 N   0  0  0  0  0  0  0  0  0  0  0  0
  161.8190  205.3560  151.1320 C   0  0  0  0  0  0  0  0  0  0  0  0
  162.6330  207.7230  150.9790 C   0  0  2  0  0  3  0  0  0  0  0  0
  161.0750  208.4220  155.4180 C   0  0  0  0  0  0  0  0  0  0  0  0
  162.6610  206.3530  150.6150 O   0  0  0  0  0  0  0  0  0  0  0  0
  160.8320  208.6770  149.3650 C   0  0  0  0  0  2  0  0  0  0  0  0
  161.2610  208.2950  150.7500 C   0  0  0  0  0  0  0  0  0  0  0  0
  160.3800  208.3370  151.7450 C   0  0  0  0  0  3  0  0  0  0  0  0
  160.1090  212.5050  144.8870 N   0  0  0  0  0  2  0  0  0  0  0  0
  162.0490  213.0680  148.6990 O   0  0  0  0  0  0  0  0  0  0  0  0
  160.9440  212.7640  146.0230 C   0  0  0  0  0  0  0  0  0  0  0  0
  162.0940  210.7770  149.0720 N   0  0  0  0  0  2  0  0  0  0  0  0
  161.1040  211.7430  147.0120 N   0  0  0  0  0  2  0  0  0  0  0  0
  161.7650  211.9140  148.2730 C   0  0  0  0  0  0  0  0  0  0  0  0
  161.5590  213.8610  146.1270 O   0  0  0  0  0  0  0  0  0  0  0  0
  161.0560  214.2290  143.6440 O   0  0  0  0  0  1  0  0  0  0  0  0
  159.9260  213.4170  143.7580 C   0  0  0  0  0  0  0  0  0  0  0  0
  158.7090  214.2950  143.9820 C   0  0  0  0  0  1  0  0  0  0  0  0
  159.7560  212.6340  142.4660 C   0  0  0  0  0  1  0  0  0  0  0  0
  161.0620  201.9720  148.4440 C   0  0  0  0  0  1  0  0  0  0  0  0
  160.4050  200.8290  150.4130 O   0  0  0  0  0  0  0  0  0  0  0  0
  160.7630  201.9240  149.9040 C   0  0  0  0  0  0  0  0  0  0  0  0
  160.9590  209.3840  156.5470 C   0  0  0  0  0  2  0  0  0  0  0  0
  163.0340  210.5000  156.6810 C   0  0  0  0  0  3  0  0  0  0  0  0
  161.8130  210.5130  156.2980 N   0  0  0  0  0  0  0  0  0  0  0  0
  163.9260  211.6740  156.4250 C   0  0  0  0  0  2  0  0  0  0  0  0
  165.2700  211.5130  157.1260 C   0  0  0  0  0  2  0  0  0  0  0  0
  166.1160  212.6740  156.8830 N   0  0  0  0  0  2  0  0  0  0  0  0
  166.8150  211.8660  154.6800 O   0  0  0  0  0  0  0  0  0  0  0  0
  166.8310  212.8530  155.6600 C   0  0  0  0  0  0  0  0  0  0  0  0
  167.4850  213.9120  155.4680 O   0  0  0  0  0  1  0  0  0  0  0  0
  1  4  1  0  0  0  0
  2 12  2  0  0  0  0
  2  7  1  0  0  0  0
  5  3  1  0  0  0  0
  6 10  1  0  0  0  0
  6 14  2  0  0  0  0
  7 16  2  0  0  0  0
  8  4  2  0  0  0  0
  8 12  1  0  0  0  0
  9  5  1  0  0  0  0
  9 24  1  1  0  0  0
  9 18  1  0  0  0  0
 10  1  2  0  0  0  0
 11 13  2  0  0  0  0
 12 11  1  0  0  0  0
 14  8  1  0  0  0  0
 15  3  1  6  0  0  0
 16 13  1  0  0  0  0
 16 35  1  0  0  0  0
 17 15  1  0  0  0  0
 17 14  1  0  0  0  0
 18 19  1  0  0  0  0
 19 15  1  0  0  0  0
 19 20  2  0  0  0  0
 20  2  1  0  0  0  0
 21 23  1  0  0  0  0
 23 27  2  0  0  0  0
 23 25  1  0  0  0  0
 25 26  1  0  0  0  0
 26 22  2  0  0  0  0
 26 24  1  0  0  0  0
 28 29  1  0  0  0  0
 29 30  1  0  0  0  0
 29 21  1  0  0  0  0
 31 29  1  0  0  0  0
 32 34  1  0  0  0  0
 34 33  2  0  0  0  0
 34 10  1  0  0  0  0
 37 35  1  0  0  0  0
 37 36  2  0  0  0  0
 38 36  1  0  0  0  0
 38 39  1  0  0  0  0
 40 39  1  0  0  0  0
 41 42  2  0  0  0  0
 42 40  1  0  0  0  0
 43 42  1  0  0  0  0
M  END
>  <MODEL>
8

>  <REMARK>
 VINA RESULT:      -0.7      2.342      2.747
  Name = 
  8 active torsions:
  status: ('A' for Active; 'I' for Inactive)
    1  A    between atoms: N_1  and  C_13
    2  A    between atoms: N_5  and  C_31
    3  A    between atoms: C_6  and  C_29
    4  A    between atoms: C_6  and  C_31
    5  A    between atoms: C_17  and  N_23
    6  A    between atoms: C_18  and  C_35
    7  A    between atoms: C_33  and  C_40
    8  A    between atoms: C_40  and  N_43
                            x       y       z     vdW  Elec       q    Type
                         _______ _______ _______ _____ _____    ______ ____

>  <TORSDO>
F 8

$$$$
=
 OpenBabel11052411263D

 43 46  0  0  1  0  0  0  0  0999 V2000
  160.5260  204.8480  153.3660 C   0  0  0  0  0  3  0  0  0  0  0  0
  160.5740  209.6480  153.7110 C   0  0  0  0  0  0  0  0  0  0  0  0
  163.4790  210.0890  150.7170 C   0  0  0  0  0  2  0  0  0  0  0  0
  160.5170  206.1070  153.9620 C   0  0  0  0  0  3  0  0  0  0  0  0
  163.0670  209.9560  149.2490 C   0  0  0  0  0  2  0  0  0  0  0  0
  161.9470  205.6950  151.6180 C   0  0  0  0  0  3  0  0  0  0  0  0
  160.3940  210.7200  154.5890 C   0  0  0  0  0  3  0  0  0  0  0  0
  161.2080  207.1910  153.3950 C   0  0  0  0  0  0  0  0  0  0  0  0
  161.6670  210.5320  149.0200 C   0  0  1  0  0  3  0  0  0  0  0  0
  161.2430  204.6300  152.1890 C   0  0  0  0  0  0  0  0  0  0  0  0
  161.6060  208.4080  155.5100 C   0  0  0  0  0  3  0  0  0  0  0  0
  161.1870  208.4570  154.1730 C   0  0  0  0  0  0  0  0  0  0  0  0
  161.4400  209.4770  156.3340 N   0  0  0  0  0  0  0  0  0  0  0  0
  161.9390  206.9730  152.1880 C   0  0  0  0  0  0  0  0  0  0  0  0
  162.5040  209.3520  151.6340 C   0  0  2  0  0  3  0  0  0  0  0  0
  160.8440  210.6200  155.9070 C   0  0  0  0  0  0  0  0  0  0  0  0
  162.6760  207.9510  151.5040 O   0  0  0  0  0  0  0  0  0  0  0  0
  160.6280  209.8310  149.9000 C   0  0  0  0  0  2  0  0  0  0  0  0
  161.0820  209.7330  151.3240 C   0  0  0  0  0  0  0  0  0  0  0  0
  160.1930  209.8500  152.3060 C   0  0  0  0  0  3  0  0  0  0  0  0
  161.3330  212.8320  144.3900 N   0  0  0  0  0  2  0  0  0  0  0  0
  161.8050  214.1550  148.4700 O   0  0  0  0  0  0  0  0  0  0  0  0
  161.7150  213.3280  145.6800 C   0  0  0  0  0  0  0  0  0  0  0  0
  161.6680  211.9720  149.2480 N   0  0  0  0  0  2  0  0  0  0  0  0
  161.4930  212.5080  146.8310 N   0  0  0  0  0  2  0  0  0  0  0  0
  161.6670  212.9320  148.1910 C   0  0  0  0  0  0  0  0  0  0  0  0
  162.2750  214.4530  145.7920 O   0  0  0  0  0  0  0  0  0  0  0  0
  162.7490  214.2740  143.2380 O   0  0  0  0  0  1  0  0  0  0  0  0
  161.5810  213.5180  143.1230 C   0  0  0  0  0  0  0  0  0  0  0  0
  160.4260  214.4440  142.7910 C   0  0  0  0  0  1  0  0  0  0  0  0
  161.7620  212.5090  142.0000 C   0  0  0  0  0  1  0  0  0  0  0  0
  160.4870  203.0240  150.3120 C   0  0  0  0  0  1  0  0  0  0  0  0
  161.9200  202.3560  152.0780 O   0  0  0  0  0  0  0  0  0  0  0  0
  161.2540  203.2940  151.5620 C   0  0  0  0  0  0  0  0  0  0  0  0
  160.6200  211.7400  156.8600 C   0  0  0  0  0  2  0  0  0  0  0  0
  159.8840  213.2780  155.2290 C   0  0  0  0  0  3  0  0  0  0  0  0
  159.6440  212.6420  156.3130 N   0  0  0  0  0  0  0  0  0  0  0  0
  158.8700  214.2180  154.6560 C   0  0  0  0  0  2  0  0  0  0  0  0
  158.3210  213.7020  153.3310 C   0  0  0  0  0  2  0  0  0  0  0  0
  156.8650  213.6560  153.3630 N   0  0  0  0  0  2  0  0  0  0  0  0
  156.8300  211.5580  154.6250 O   0  0  0  0  0  1  0  0  0  0  0  0
  156.1510  212.6220  154.0410 C   0  0  0  0  0  0  0  0  0  0  0  0
  154.8940  212.6720  154.1080 O   0  0  0  0  0  0  0  0  0  0  0  0
  1  4  1  0  0  0  0
  2 12  2  0  0  0  0
  2  7  1  0  0  0  0
  5  3  1  0  0  0  0
  6 14  2  0  0  0  0
  6 10  1  0  0  0  0
  7 16  2  0  0  0  0
  8  4  2  0  0  0  0
  8 12  1  0  0  0  0
  9 24  1  1  0  0  0
  9  5  1  0  0  0  0
  9 18  1  0  0  0  0
 10  1  2  0  0  0  0
 11 13  2  0  0  0  0
 12 11  1  0  0  0  0
 14  8  1  0  0  0  0
 15  3  1  6  0  0  0
 16 13  1  0  0  0  0
 16 35  1  0  0  0  0
 17 15  1  0  0  0  0
 17 14  1  0  0  0  0
 18 19  1  0  0  0  0
 19 15  1  0  0  0  0
 19 20  2  0  0  0  0
 20  2  1  0  0  0  0
 21 23  1  0  0  0  0
 23 27  2  0  0  0  0
 23 25  1  0  0  0  0
 25 26  1  0  0  0  0
 26 22  2  0  0  0  0
 26 24  1  0  0  0  0
 29 28  1  0  0  0  0
 29 21  1  0  0  0  0
 30 29  1  0  0  0  0
 31 29  1  0  0  0  0
 32 34  1  0  0  0  0
 34 33  2  0  0  0  0
 34 10  1  0  0  0  0
 36 37  2  0  0  0  0
 37 35  1  0  0  0  0
 38 36  1  0  0  0  0
 39 40  1  0  0  0  0
 39 38  1  0  0  0  0
 40 42  1  0  0  0  0
 42 43  2  0  0  0  0
 42 41  1  0  0  0  0
M  END
>  <MODEL>
9

>  <REMARK>
 VINA RESULT:      -0.3      2.050      2.583
  Name = 
  8 active torsions:
  status: ('A' for Active; 'I' for Inactive)
    1  A    between atoms: N_1  and  C_13
    2  A    between atoms: N_5  and  C_31
    3  A    between atoms: C_6  and  C_29
    4  A    between atoms: C_6  and  C_31
    5  A    between atoms: C_17  and  N_23
    6  A    between atoms: C_18  and  C_35
    7  A    between atoms: C_33  and  C_40
    8  A    between atoms: C_40  and  N_43
                            x       y       z     vdW  Elec       q    Type
                         _______ _______ _______ _____ _____    ______ ____

>  <TORSDO>
F 8

$$$$
