=
 OpenBabel11052411243D

 41 46  0  0  1  0  0  0  0  0999 V2000
  159.7690  213.6860  150.8380 O   0  0  0  0  0  0  0  0  0  0  0  0
  159.4440  212.2730  154.2070 N   0  0  0  0  0  0  0  0  0  0  0  0
  161.6890  208.3710  150.9620 C   0  0  0  0  0  3  0  0  0  0  0  0
  159.2560  213.4900  148.3840 C   0  0  1  0  0  3  0  0  0  0  0  0
  162.2620  213.2230  149.4690 C   0  0  0  0  0  2  0  0  0  0  0  0
  160.2440  212.3420  148.1350 C   0  0  1  0  0  3  0  0  0  0  0  0
  157.9800  213.1930  147.7480 N   0  0  0  0  0  0  0  0  0  0  0  0
  159.3000  213.3200  153.2690 C   0  0  0  0  0  0  0  0  0  0  0  0
  157.6150  213.1980  149.9880 N   0  0  0  0  0  0  0  0  0  0  0  0
  160.8940  212.3520  146.7470 C   0  0  2  0  0  3  0  0  0  0  0  0
  162.1570  208.6240  149.6780 C   0  0  0  0  0  0  0  0  0  0  0  0
  161.0670  209.3810  151.6880 C   0  0  0  0  0  3  0  0  0  0  0  0
  158.8610  213.4770  149.8080 C   0  0  0  0  0  0  0  0  0  0  0  0
  157.0900  213.0350  148.6760 C   0  0  0  0  0  3  0  0  0  0  0  0
  161.2490  212.2010  149.2010 N   0  0  0  0  0  0  0  0  0  0  0  0
  160.8860  210.6770  151.1700 C   0  0  0  0  0  0  0  0  0  0  0  0
  158.8230  214.4520  153.5420 O   0  0  0  0  0  0  0  0  0  0  0  0
  162.3110  214.4530  147.3150 C   0  0  0  0  0  2  0  0  0  0  0  0
  161.3700  210.9320  149.8460 C   0  0  0  0  0  0  0  0  0  0  0  0
  161.9990  209.8970  149.1230 C   0  0  0  0  0  0  0  0  0  0  0  0
  162.4890  210.1380  147.8810 F   0  0  0  0  0  0  0  0  0  0  0  0
  160.2330  211.6430  152.1220 C   0  0  0  0  0  0  0  0  0  0  0  0
  159.9850  211.2970  153.5460 C   0  0  0  0  0  3  0  0  0  0  0  0
  159.7820  212.8950  151.9760 C   0  0  0  0  0  0  0  0  0  0  0  0
  163.0950  213.5280  148.2320 C   0  0  0  0  0  2  0  0  0  0  0  0
  161.4350  213.7180  146.2950 C   0  0  0  0  0  2  0  0  0  0  0  0
  162.8140  207.5970  148.9290 N   0  0  0  0  0  2  0  0  0  0  0  0
  162.3180  207.1370  147.7550 O   0  0  0  0  0  0  0  0  0  0  0  0
  161.0920  206.5490  148.0780 C   0  0  0  0  0  2  0  0  0  0  0  0
  161.1300  205.0520  147.7910 C   0  0  0  0  0  2  0  0  0  0  0  0
  160.8790  202.7780  151.4260 C   0  0  0  0  0  3  0  0  0  0  0  0
  160.9320  204.9130  150.2790 C   0  0  0  0  0  3  0  0  0  0  0  0
  161.0470  202.8520  149.0100 C   0  0  0  0  0  3  0  0  0  0  0  0
  161.0290  204.2530  149.0490 C   0  0  0  0  0  0  0  0  0  0  0  0
  160.8550  204.1760  151.4670 C   0  0  0  0  0  3  0  0  0  0  0  0
  160.9730  202.1160  150.1980 C   0  0  0  0  0  3  0  0  0  0  0  0
  159.9720  211.8270  145.7550 N   0  0  0  0  0  2  0  0  0  0  0  0
  159.8960  212.8090  144.6860 C   0  0  0  0  0  2  0  0  0  0  0  0
  161.8460  212.4150  143.1800 O   0  0  0  0  0  1  0  0  0  0  0  0
  159.7690  211.6090  142.6350 O   0  0  0  0  0  0  0  0  0  0  0  0
  160.4920  212.2460  143.4440 C   0  0  0  0  0  0  0  0  0  0  0  0
  1 24  1  0  0  0  0
  3 12  1  0  0  0  0
  4  7  1  6  0  0  0
  4 13  1  0  0  0  0
  6  4  1  0  0  0  0
  6 15  1  1  0  0  0
  7 14  2  0  0  0  0
  8 17  2  0  0  0  0
  8  2  1  0  0  0  0
 10 37  1  6  0  0  0
 10  6  1  0  0  0  0
 11  3  2  0  0  0  0
 13  9  2  0  0  0  0
 13  1  1  0  0  0  0
 14  9  1  0  0  0  0
 15  5  1  0  0  0  0
 15 19  1  0  0  0  0
 16 12  2  0  0  0  0
 16 22  1  0  0  0  0
 18 25  1  0  0  0  0
 19 16  1  0  0  0  0
 20 11  1  0  0  0  0
 20 19  2  0  0  0  0
 21 20  1  0  0  0  0
 22 23  1  0  0  0  0
 23  2  2  0  0  0  0
 24 22  2  0  0  0  0
 24  8  1  0  0  0  0
 25  5  1  0  0  0  0
 26 10  1  0  0  0  0
 26 18  1  0  0  0  0
 27 11  1  0  0  0  0
 28 29  1  0  0  0  0
 28 27  1  0  0  0  0
 30 29  1  0  0  0  0
 30 34  1  0  0  0  0
 31 35  1  0  0  0  0
 32 35  2  0  0  0  0
 33 34  2  0  0  0  0
 33 36  1  0  0  0  0
 34 32  1  0  0  0  0
 36 31  2  0  0  0  0
 38 37  1  0  0  0  0
 39 41  1  0  0  0  0
 40 41  2  0  0  0  0
 41 38  1  0  0  0  0
M  END
>  <MODEL>
1

>  <REMARK>
 VINA RESULT:      -6.5      0.000      0.000
  Name = 
  8 active torsions:
  status: ('A' for Active; 'I' for Inactive)
    1  A    between atoms: N_3  and  O_14
    2  A    between atoms: N_3  and  C_21
    3  A    between atoms: N_9  and  C_20
    4  A    between atoms: N_9  and  C_29
    5  A    between atoms: O_14  and  C_41
    6  A    between atoms: C_17  and  C_27
    7  A    between atoms: C_24  and  C_29
    8  A    between atoms: C_27  and  C_41
                            x       y       z     vdW  Elec       q    Type
                         _______ _______ _______ _____ _____    ______ ____

>  <TORSDO>
F 8

$$$$
=
 OpenBabel11052411243D

 41 46  0  0  1  0  0  0  0  0999 V2000
  161.0630  212.1370  151.9380 O   0  0  0  0  0  0  0  0  0  0  0  0
  160.9240  209.7220  154.6950 N   0  0  0  0  0  0  0  0  0  0  0  0
  161.0710  206.8440  149.9520 C   0  0  0  0  0  3  0  0  0  0  0  0
  160.0610  212.9870  149.7930 C   0  0  1  0  0  3  0  0  0  0  0  0
  162.9500  211.5950  149.8280 C   0  0  0  0  0  2  0  0  0  0  0  0
  160.5400  211.7990  148.9450 C   0  0  1  0  0  3  0  0  0  0  0  0
  158.6640  213.2740  149.5000 N   0  0  0  0  0  0  0  0  0  0  0  0
  160.9660  211.0400  154.1850 C   0  0  0  0  0  0  0  0  0  0  0  0
  158.7510  212.5520  151.6500 N   0  0  0  0  0  0  0  0  0  0  0  0
  160.8810  212.1520  147.4930 C   0  0  2  0  0  3  0  0  0  0  0  0
  161.3460  207.4220  148.7170 C   0  0  0  0  0  0  0  0  0  0  0  0
  160.9740  207.6420  151.0880 C   0  0  0  0  0  3  0  0  0  0  0  0
  159.9610  212.5540  151.2030 C   0  0  0  0  0  0  0  0  0  0  0  0
  157.9650  213.0180  150.5600 C   0  0  0  0  0  3  0  0  0  0  0  0
  161.6210  211.0310  149.5830 N   0  0  0  0  0  0  0  0  0  0  0  0
  161.1450  209.0370  151.0430 C   0  0  0  0  0  0  0  0  0  0  0  0
  160.9580  212.0740  154.9000 O   0  0  0  0  0  0  0  0  0  0  0  0
  163.0010  213.4710  148.2060 C   0  0  0  0  0  2  0  0  0  0  0  0
  161.4270  209.6280  149.7680 C   0  0  0  0  0  0  0  0  0  0  0  0
  161.5230  208.8060  148.6270 C   0  0  0  0  0  0  0  0  0  0  0  0
  161.8220  209.3520  147.4210 F   0  0  0  0  0  0  0  0  0  0  0  0
  161.0470  209.7200  152.3810 C   0  0  0  0  0  0  0  0  0  0  0  0
  160.9710  208.9530  153.6510 C   0  0  0  0  0  3  0  0  0  0  0  0
  161.0240  211.0090  152.7420 C   0  0  0  0  0  0  0  0  0  0  0  0
  163.5870  212.1100  148.5450 C   0  0  0  0  0  2  0  0  0  0  0  0
  161.7530  213.4050  147.3190 C   0  0  0  0  0  2  0  0  0  0  0  0
  161.4660  206.6100  147.5460 N   0  0  0  0  0  2  0  0  0  0  0  0
  162.6720  206.2780  147.0260 O   0  0  0  0  0  0  0  0  0  0  0  0
  162.7160  204.8810  147.0590 C   0  0  0  0  0  2  0  0  0  0  0  0
  161.3040  204.3060  147.0840 C   0  0  0  0  0  2  0  0  0  0  0  0
  160.9030  201.1470  149.9650 C   0  0  0  0  0  3  0  0  0  0  0  0
  161.2080  201.8790  147.6750 C   0  0  0  0  0  3  0  0  0  0  0  0
  161.0130  203.5120  149.4540 C   0  0  0  0  0  3  0  0  0  0  0  0
  161.1780  203.2130  148.0950 C   0  0  0  0  0  0  0  0  0  0  0  0
  161.0730  200.8460  148.6100 C   0  0  0  0  0  3  0  0  0  0  0  0
  160.8740  202.4800  150.3880 C   0  0  0  0  0  3  0  0  0  0  0  0
  159.6670  212.2760  146.7060 N   0  0  0  0  0  2  0  0  0  0  0  0
  159.8560  213.4060  145.8110 C   0  0  0  0  0  2  0  0  0  0  0  0
  158.4860  213.7880  143.7610 O   0  0  0  0  0  0  0  0  0  0  0  0
  159.9470  212.0250  143.8750 O   0  0  0  0  0  1  0  0  0  0  0  0
  159.4360  213.0290  144.4330 C   0  0  0  0  0  0  0  0  0  0  0  0
  1 24  1  0  0  0  0
  3 12  1  0  0  0  0
  4  7  1  6  0  0  0
  4 13  1  0  0  0  0
  6 15  1  1  0  0  0
  6  4  1  0  0  0  0
  7 14  2  0  0  0  0
  8  2  1  0  0  0  0
  8 17  2  0  0  0  0
 10 37  1  6  0  0  0
 10  6  1  0  0  0  0
 11  3  2  0  0  0  0
 13  9  2  0  0  0  0
 13  1  1  0  0  0  0
 14  9  1  0  0  0  0
 15 19  1  0  0  0  0
 15  5  1  0  0  0  0
 16 12  2  0  0  0  0
 16 22  1  0  0  0  0
 18 25  1  0  0  0  0
 19 16  1  0  0  0  0
 20 11  1  0  0  0  0
 20 19  2  0  0  0  0
 21 20  1  0  0  0  0
 22 24  2  0  0  0  0
 22 23  1  0  0  0  0
 23  2  2  0  0  0  0
 24  8  1  0  0  0  0
 25  5  1  0  0  0  0
 26 10  1  0  0  0  0
 26 18  1  0  0  0  0
 27 11  1  0  0  0  0
 28 29  1  0  0  0  0
 28 27  1  0  0  0  0
 29 30  1  0  0  0  0
 30 34  1  0  0  0  0
 31 36  1  0  0  0  0
 32 34  2  0  0  0  0
 32 35  1  0  0  0  0
 33 36  2  0  0  0  0
 34 33  1  0  0  0  0
 35 31  2  0  0  0  0
 38 37  1  0  0  0  0
 39 41  2  0  0  0  0
 40 41  1  0  0  0  0
 41 38  1  0  0  0  0
M  END
>  <MODEL>
2

>  <REMARK>
 VINA RESULT:      -4.5      1.530      2.085
  Name = 
  8 active torsions:
  status: ('A' for Active; 'I' for Inactive)
    1  A    between atoms: N_3  and  O_14
    2  A    between atoms: N_3  and  C_21
    3  A    between atoms: N_9  and  C_20
    4  A    between atoms: N_9  and  C_29
    5  A    between atoms: O_14  and  C_41
    6  A    between atoms: C_17  and  C_27
    7  A    between atoms: C_24  and  C_29
    8  A    between atoms: C_27  and  C_41
                            x       y       z     vdW  Elec       q    Type
                         _______ _______ _______ _____ _____    ______ ____

>  <TORSDO>
F 8

$$$$
=
 OpenBabel11052411243D

 41 46  0  0  1  0  0  0  0  0999 V2000
  158.1700  212.3000  155.4990 O   0  0  0  0  0  0  0  0  0  0  0  0
  156.3950  214.0380  152.8010 N   0  0  0  0  0  0  0  0  0  0  0  0
  160.7770  211.4830  150.5500 C   0  0  0  0  0  3  0  0  0  0  0  0
  160.3240  211.9300  156.7450 C   0  0  1  0  0  3  0  0  0  0  0  0
  159.0250  209.6000  154.9650 C   0  0  0  0  0  2  0  0  0  0  0  0
  160.9910  211.1280  155.6170 C   0  0  1  0  0  3  0  0  0  0  0  0
  161.2520  212.9260  157.2600 N   0  0  0  0  0  0  0  0  0  0  0  0
  156.5570  213.6580  154.1530 C   0  0  0  0  0  0  0  0  0  0  0  0
  159.5530  214.0590  156.2700 N   0  0  0  0  0  0  0  0  0  0  0  0
  161.9520  210.0360  156.0980 C   0  0  2  0  0  3  0  0  0  0  0  0
  161.5520  210.5530  151.2340 C   0  0  0  0  0  0  0  0  0  0  0  0
  159.7410  212.1410  151.2040 C   0  0  0  0  0  3  0  0  0  0  0  0
  159.2850  212.8020  156.1570 C   0  0  0  0  0  0  0  0  0  0  0  0
  160.7870  214.1020  156.9750 C   0  0  0  0  0  3  0  0  0  0  0  0
  160.0310  210.6090  154.6300 N   0  0  0  0  0  0  0  0  0  0  0  0
  159.4340  211.9020  152.5560 C   0  0  0  0  0  0  0  0  0  0  0  0
  155.7790  214.0010  155.0800 O   0  0  0  0  0  0  0  0  0  0  0  0
  160.0020  208.5790  157.0040 C   0  0  0  0  0  2  0  0  0  0  0  0
  160.2350  210.9430  153.2560 C   0  0  0  0  0  0  0  0  0  0  0  0
  161.2820  210.2840  152.5790 C   0  0  0  0  0  0  0  0  0  0  0  0
  162.0250  209.3510  153.2240 F   0  0  0  0  0  0  0  0  0  0  0  0
  158.2510  212.6770  153.0720 C   0  0  0  0  0  0  0  0  0  0  0  0
  157.3770  213.4710  152.1700 C   0  0  0  0  0  3  0  0  0  0  0  0
  157.7280  212.8270  154.2960 C   0  0  0  0  0  0  0  0  0  0  0  0
  159.6600  208.3420  155.5420 C   0  0  0  0  0  2  0  0  0  0  0  0
  161.4090  209.1460  157.2270 C   0  0  0  0  0  2  0  0  0  0  0  0
  162.6080  209.8560  150.5670 N   0  0  0  0  0  2  0  0  0  0  0  0
  162.4020  209.1800  149.4110 O   0  0  0  0  0  0  0  0  0  0  0  0
  161.5860  208.0990  149.7570 C   0  0  0  0  0  2  0  0  0  0  0  0
  162.3440  207.1270  150.6550 C   0  0  0  0  0  2  0  0  0  0  0  0
  160.5280  203.2370  150.7200 C   0  0  0  0  0  3  0  0  0  0  0  0
  161.4370  205.1540  151.8910 C   0  0  0  0  0  3  0  0  0  0  0  0
  161.3720  205.1320  149.4700 C   0  0  0  0  0  3  0  0  0  0  0  0
  161.7000  205.7800  150.6680 C   0  0  0  0  0  0  0  0  0  0  0  0
  160.8500  203.8840  151.9180 C   0  0  0  0  0  3  0  0  0  0  0  0
  160.7880  203.8610  149.4960 C   0  0  0  0  0  3  0  0  0  0  0  0
  163.2230  210.6180  156.4900 N   0  0  0  0  0  2  0  0  0  0  0  0
  163.8440  211.1330  155.2810 C   0  0  0  0  0  2  0  0  0  0  0  0
  166.1730  211.7420  154.6260 O   0  0  0  0  0  0  0  0  0  0  0  0
  165.4310  212.1050  156.7640 O   0  0  0  0  0  1  0  0  0  0  0  0
  165.1880  211.6850  155.6040 C   0  0  0  0  0  0  0  0  0  0  0  0
  1 13  1  0  0  0  0
  2  8  1  0  0  0  0
  3 12  2  0  0  0  0
  3 11  1  0  0  0  0
  4 13  1  6  0  0  0
  4  7  1  0  0  0  0
  5 25  1  0  0  0  0
  6 15  1  1  0  0  0
  6 10  1  0  0  0  0
  6  4  1  0  0  0  0
  8 24  1  0  0  0  0
  8 17  2  0  0  0  0
  9 14  1  0  0  0  0
 10 37  1  1  0  0  0
 10 26  1  0  0  0  0
 11 20  2  0  0  0  0
 12 16  1  0  0  0  0
 13  9  2  0  0  0  0
 14  7  2  0  0  0  0
 15  5  1  0  0  0  0
 16 22  1  0  0  0  0
 16 19  2  0  0  0  0
 18 26  1  0  0  0  0
 19 15  1  0  0  0  0
 20 21  1  0  0  0  0
 20 19  1  0  0  0  0
 22 24  2  0  0  0  0
 23  2  2  0  0  0  0
 23 22  1  0  0  0  0
 24  1  1  0  0  0  0
 25 18  1  0  0  0  0
 27 11  1  0  0  0  0
 28 29  1  0  0  0  0
 28 27  1  0  0  0  0
 29 30  1  0  0  0  0
 30 34  1  0  0  0  0
 31 35  1  0  0  0  0
 32 35  2  0  0  0  0
 33 36  1  0  0  0  0
 33 34  2  0  0  0  0
 34 32  1  0  0  0  0
 36 31  2  0  0  0  0
 38 41  1  0  0  0  0
 38 37  1  0  0  0  0
 39 41  2  0  0  0  0
 41 40  1  0  0  0  0
M  END
>  <MODEL>
3

>  <REMARK>
 VINA RESULT:      -4.4      3.499      6.965
  Name = 
  8 active torsions:
  status: ('A' for Active; 'I' for Inactive)
    1  A    between atoms: N_3  and  O_14
    2  A    between atoms: N_3  and  C_21
    3  A    between atoms: N_9  and  C_20
    4  A    between atoms: N_9  and  C_29
    5  A    between atoms: O_14  and  C_41
    6  A    between atoms: C_17  and  C_27
    7  A    between atoms: C_24  and  C_29
    8  A    between atoms: C_27  and  C_41
                            x       y       z     vdW  Elec       q    Type
                         _______ _______ _______ _____ _____    ______ ____

>  <TORSDO>
F 8

$$$$
