=
 OpenBabel11052410023D

 39 44  0  0  1  0  0  0  0  0999 V2000
  160.2390  210.3950  154.7300 N   0  0  0  0  0  0  0  0  0  0  0  0
  161.5780  208.0700  148.8600 C   0  0  2  0  0  3  0  0  0  0  0  0
  159.8850  213.5900  149.3830 N   0  0  0  0  0  0  0  0  0  0  0  0
  160.5460  205.8620  149.1030 O   0  0  0  0  0  1  0  0  0  0  0  0
  162.5640  213.2970  146.9700 C   0  0  0  0  0  2  0  0  0  0  0  0
  161.7600  210.6020  148.6610 C   0  0  1  0  0  3  0  0  0  0  0  0
  161.1420  213.1700  147.4480 C   0  0  1  0  0  3  0  0  0  0  0  0
  161.3000  206.4390  154.1930 C   0  0  0  0  0  3  0  0  0  0  0  0
  159.8630  212.2750  152.7030 C   0  0  0  0  0  0  0  0  0  0  0  0
  159.9070  212.7080  154.1050 C   0  0  0  0  0  3  0  0  0  0  0  0
  159.7450  213.1340  151.7300 C   0  0  0  0  0  0  0  0  0  0  0  0
  161.2020  213.1600  148.9420 C   0  0  2  0  0  3  0  0  0  0  0  0
  160.0860  209.9370  153.5190 C   0  0  0  0  0  0  0  0  0  0  0  0
  162.3340  206.2330  153.1320 C   0  0  0  0  0  2  0  0  0  0  0  0
  161.7640  211.8550  149.5280 C   0  0  2  0  0  3  0  0  0  0  0  0
  160.4430  208.5440  153.1850 C   0  0  0  0  0  0  0  0  0  0  0  0
  159.5780  213.9590  150.7320 C   0  0  0  0  0  3  0  0  0  0  0  0
  163.0330  211.4300  148.7530 C   0  0  2  0  0  3  0  0  0  0  0  0
  161.9380  209.3940  149.5560 C   0  0  0  0  0  2  0  0  0  0  0  0
  160.0690  211.7870  155.0610 C   0  0  0  0  0  3  0  0  0  0  0  0
  160.6940  207.1160  149.7030 C   0  0  1  0  0  3  0  0  0  0  0  0
  161.7600  206.0780  151.7490 C   0  0  0  0  0  0  0  0  0  0  0  0
  159.5910  210.8410  152.4120 C   0  0  0  0  0  2  0  0  0  0  0  0
  159.2380  214.3210  148.3010 C   0  0  0  0  0  2  0  0  0  0  0  0
  160.6330  208.2850  151.8900 C   0  0  0  0  0  3  0  0  0  0  0  0
  160.2330  214.3340  147.1400 C   0  0  0  0  0  2  0  0  0  0  0  0
  163.2950  211.9960  147.3290 C   0  0  0  0  0  2  0  0  0  0  0  0
  160.5010  207.5040  154.2310 C   0  0  0  0  0  3  0  0  0  0  0  0
  161.0220  207.0560  151.1830 C   0  0  0  0  0  0  0  0  0  0  0  0
  162.6730  207.4460  148.2220 O   0  0  0  0  0  0  0  0  0  0  0  0
  162.2070  206.7400  147.1020 C   0  0  0  0  0  1  0  0  0  0  0  0
  162.0800  204.9370  151.0040 O   0  0  0  0  0  0  0  0  0  0  0  0
  161.9330  203.6180  151.5110 C   0  0  0  0  0  2  0  0  0  0  0  0
  160.6470  203.0080  150.9880 C   0  0  0  0  0  2  0  0  0  0  0  0
  160.9520  201.7550  150.1910 C   0  0  0  0  0  2  0  0  0  0  0  0
  160.1020  201.7320  148.9370 C   0  0  0  0  0  2  0  0  0  0  0  0
  160.9400  202.0790  147.7580 C   0  0  0  0  0  0  0  0  0  0  0  0
  161.6620  203.1100  147.7810 O   0  0  0  0  0  1  0  0  0  0  0  0
  160.9040  201.2830  146.6210 O   0  0  0  0  0  0  0  0  0  0  0  0
  1 20  1  0  0  0  0
  2 30  1  1  0  0  0
  2 19  1  0  0  0  0
  2 21  1  0  0  0  0
  3 17  1  0  0  0  0
  4 21  1  0  0  0  0
  5 27  1  0  0  0  0
  6 18  1  0  0  0  0
  6 15  1  0  0  0  0
  6 19  1  1  0  0  0
  7  5  1  6  0  0  0
  7 12  1  0  0  0  0
  8 28  2  0  0  0  0
  9 10  1  0  0  0  0
 10 20  2  0  0  0  0
 11  9  2  0  0  0  0
 12  3  1  1  0  0  0
 12 15  1  0  0  0  0
 13  1  2  0  0  0  0
 14  8  1  0  0  0  0
 16 13  1  0  0  0  0
 16 28  1  0  0  0  0
 17 11  2  0  0  0  0
 18 15  1  0  0  0  0
 21 29  1  0  0  0  0
 22 14  1  0  0  0  0
 23  9  1  0  0  0  0
 23 13  1  0  0  0  0
 24  3  1  0  0  0  0
 25 16  2  0  0  0  0
 26  7  1  0  0  0  0
 26 24  1  0  0  0  0
 27 18  1  0  0  0  0
 29 22  2  0  0  0  0
 29 25  1  0  0  0  0
 31 30  1  0  0  0  0
 32 33  1  0  0  0  0
 32 22  1  0  0  0  0
 34 33  1  0  0  0  0
 35 34  1  0  0  0  0
 36 35  1  0  0  0  0
 37 38  1  0  0  0  0
 37 36  1  0  0  0  0
 39 37  2  0  0  0  0
M  END
>  <MODEL>
1

>  <REMARK>
 VINA RESULT:      -8.3      0.000      0.000
  Name = 
  7 active torsions:
  status: ('A' for Active; 'I' for Inactive)
    1  A    between atoms: C_2  and  O_8
    2  A    between atoms: O_6  and  C_19
    3  A    between atoms: O_6  and  C_28
    4  A    between atoms: C_19  and  C_27
    5  A    between atoms: C_25  and  C_29
    6  A    between atoms: C_25  and  C_39
    7  A    between atoms: C_27  and  C_39
                            x       y       z     vdW  Elec       q    Type
                         _______ _______ _______ _____ _____    ______ ____

>  <TORSDO>
F 7

$$$$
=
 OpenBabel11052410023D

 39 44  0  0  1  0  0  0  0  0999 V2000
  160.7710  209.3080  154.7670 N   0  0  0  0  0  0  0  0  0  0  0  0
  161.3350  207.9830  148.4750 C   0  0  2  0  0  3  0  0  0  0  0  0
  159.7700  213.3240  150.0980 N   0  0  0  0  0  0  0  0  0  0  0  0
  160.3220  205.7530  148.4840 O   0  0  0  0  0  1  0  0  0  0  0  0
  162.1200  213.4580  147.3510 C   0  0  0  0  0  2  0  0  0  0  0  0
  161.5130  210.5160  148.6690 C   0  0  1  0  0  3  0  0  0  0  0  0
  160.7680  213.2390  147.9770 C   0  0  1  0  0  3  0  0  0  0  0  0
  161.7200  205.5040  153.4630 C   0  0  0  0  0  3  0  0  0  0  0  0
  160.1580  211.4870  153.1360 C   0  0  0  0  0  0  0  0  0  0  0  0
  160.3830  211.6880  154.5720 C   0  0  0  0  0  3  0  0  0  0  0  0
  159.9250  212.4920  152.3380 C   0  0  0  0  0  0  0  0  0  0  0  0
  161.0170  212.9870  149.4300 C   0  0  2  0  0  3  0  0  0  0  0  0
  160.4610  209.0510  153.5260 C   0  0  0  0  0  0  0  0  0  0  0  0
  162.6100  205.4850  152.2610 C   0  0  0  0  0  2  0  0  0  0  0  0
  161.6380  211.6110  149.7210 C   0  0  2  0  0  3  0  0  0  0  0  0
  160.7610  207.7350  152.9280 C   0  0  0  0  0  0  0  0  0  0  0  0
  159.6400  213.4660  151.5170 C   0  0  0  0  0  3  0  0  0  0  0  0
  162.7950  211.3330  148.7320 C   0  0  2  0  0  3  0  0  0  0  0  0
  161.7920  209.1800  149.3250 C   0  0  0  0  0  2  0  0  0  0  0  0
  160.6560  210.6250  155.3380 C   0  0  0  0  0  3  0  0  0  0  0  0
  160.5560  206.8940  149.2570 C   0  0  1  0  0  3  0  0  0  0  0  0
  161.8630  205.5510  150.9550 C   0  0  0  0  0  0  0  0  0  0  0  0
  159.8380  210.1170  152.6530 C   0  0  0  0  0  2  0  0  0  0  0  0
  158.9980  214.2130  149.2390 C   0  0  0  0  0  2  0  0  0  0  0  0
  160.7830  207.6920  151.5950 C   0  0  0  0  0  3  0  0  0  0  0  0
  159.8380  214.4270  147.9800 C   0  0  0  0  0  2  0  0  0  0  0  0
  162.8790  212.1260  147.3980 C   0  0  0  0  0  2  0  0  0  0  0  0
  160.9420  206.5390  153.7750 C   0  0  0  0  0  3  0  0  0  0  0  0
  161.0680  206.5990  150.6540 C   0  0  0  0  0  0  0  0  0  0  0  0
  162.3350  207.4840  147.6100 O   0  0  0  0  0  0  0  0  0  0  0  0
  161.7910  206.4510  146.8320 C   0  0  0  0  0  1  0  0  0  0  0  0
  162.0760  204.5500  150.0000 O   0  0  0  0  0  0  0  0  0  0  0  0
  161.4160  203.2920  150.0400 C   0  0  0  0  0  2  0  0  0  0  0  0
  161.3460  202.7060  148.6420 C   0  0  0  0  0  2  0  0  0  0  0  0
  160.6920  201.3390  148.6840 C   0  0  0  0  0  2  0  0  0  0  0  0
  161.5890  200.3270  148.0000 C   0  0  0  0  0  2  0  0  0  0  0  0
  161.1680  200.1620  146.5830 C   0  0  0  0  0  0  0  0  0  0  0  0
  160.8430  201.1700  145.9010 O   0  0  0  0  0  0  0  0  0  0  0  0
  161.1040  198.8950  146.0200 O   0  0  0  0  0  1  0  0  0  0  0  0
  1 20  1  0  0  0  0
  2 30  1  1  0  0  0
  2 21  1  0  0  0  0
  2 19  1  0  0  0  0
  3 17  1  0  0  0  0
  4 21  1  0  0  0  0
  5 27  1  0  0  0  0
  6 18  1  0  0  0  0
  6 19  1  1  0  0  0
  6 15  1  0  0  0  0
  7  5  1  6  0  0  0
  7 26  1  0  0  0  0
  7 12  1  0  0  0  0
  8 28  2  0  0  0  0
  9 10  1  0  0  0  0
 10 20  2  0  0  0  0
 11  9  2  0  0  0  0
 12 15  1  0  0  0  0
 12  3  1  1  0  0  0
 13  1  2  0  0  0  0
 14  8  1  0  0  0  0
 16 13  1  0  0  0  0
 16 28  1  0  0  0  0
 17 11  2  0  0  0  0
 18 15  1  0  0  0  0
 21 29  1  0  0  0  0
 22 14  1  0  0  0  0
 23  9  1  0  0  0  0
 23 13  1  0  0  0  0
 24  3  1  0  0  0  0
 25 16  2  0  0  0  0
 26 24  1  0  0  0  0
 27 18  1  0  0  0  0
 29 22  2  0  0  0  0
 29 25  1  0  0  0  0
 31 30  1  0  0  0  0
 32 33  1  0  0  0  0
 32 22  1  0  0  0  0
 34 35  1  0  0  0  0
 34 33  1  0  0  0  0
 36 35  1  0  0  0  0
 37 36  1  0  0  0  0
 38 37  2  0  0  0  0
 39 37  1  0  0  0  0
M  END
>  <MODEL>
2

>  <REMARK>
 VINA RESULT:      -6.7      0.968      1.222
  Name = 
  7 active torsions:
  status: ('A' for Active; 'I' for Inactive)
    1  A    between atoms: C_2  and  O_8
    2  A    between atoms: O_6  and  C_19
    3  A    between atoms: O_6  and  C_28
    4  A    between atoms: C_19  and  C_27
    5  A    between atoms: C_25  and  C_29
    6  A    between atoms: C_25  and  C_39
    7  A    between atoms: C_27  and  C_39
                            x       y       z     vdW  Elec       q    Type
                         _______ _______ _______ _____ _____    ______ ____

>  <TORSDO>
F 7

$$$$
