=
 OpenBabel11042421033D

 36 42  0  0  1  0  0  0  0  0999 V2000
  162.5280  208.6960  148.4390 C   0  0  0  0  0  2  0  0  0  0  0  0
  161.2220  208.0140  155.4080 C   0  0  1  0  0  3  0  0  0  0  0  0
  158.5850  212.0000  154.3970 S   0  0  0  0  0  0  0  0  0  0  0  0
  162.4340  210.0970  148.9700 C   0  0  1  0  0  3  0  0  0  0  0  0
  160.2220  206.9320  155.4420 N   0  0  0  0  0  2  0  0  0  0  0  0
  161.4420  210.6610  151.9780 N   0  0  0  0  0  2  0  0  0  0  0  0
  159.6180  212.9060  151.9910 N   0  0  0  0  0  2  0  0  0  0  0  0
  161.1680  214.4530  147.6460 C   0  0  0  0  0  1  0  0  0  0  0  0
  162.0230  211.0430  147.9400 N   0  0  0  0  0  2  0  0  0  0  0  0
  161.3700  208.2250  151.5800 C   0  0  0  0  0  0  0  0  0  0  0  0
  162.2360  212.3810  148.4870 C   0  0  0  0  0  2  0  0  0  0  0  0
  161.4630  208.1760  149.3930 C   0  0  1  0  0  3  0  0  0  0  0  0
  161.0460  207.7650  152.9870 C   0  0  1  0  0  3  0  0  0  0  0  0
  160.6220  210.9950  153.1310 C   0  0  2  0  0  3  0  0  0  0  0  0
  159.3860  210.4700  155.0730 C   0  0  0  0  0  2  0  0  0  0  0  0
  160.1010  209.8260  153.8980 C   0  0  2  0  0  3  0  0  0  0  0  0
  161.6180  206.6380  155.0600 C   0  0  1  0  0  3  0  0  0  0  0  0
  161.3350  209.5040  151.1570 C   0  0  2  0  0  3  0  0  0  0  0  0
  160.5420  213.5810  149.8540 C   0  0  0  0  0  3  0  0  0  0  0  0
  160.9440  213.1980  148.4630 C   0  0  1  0  0  3  0  0  0  0  0  0
  161.4850  207.3290  150.4100 C   0  0  0  0  0  3  0  0  0  0  0  0
  159.9550  212.6740  150.6200 C   0  0  0  0  0  3  0  0  0  0  0  0
  159.3530  211.7050  152.7710 C   0  0  1  0  0  3  0  0  0  0  0  0
  161.7670  206.5540  153.5280 C   0  0  1  0  0  3  0  0  0  0  0  0
  161.2260  209.6120  149.6840 C   0  0  1  0  0  3  0  0  0  0  0  0
  161.1950  208.7890  154.0910 C   0  0  1  0  0  3  0  0  0  0  0  0
  160.0770  204.8570  153.3890 O   0  0  0  0  0  0  0  0  0  0  0  0
  161.1990  205.2770  152.9920 C   0  0  0  0  0  0  0  0  0  0  0  0
  161.9500  204.5330  152.0300 N   0  0  0  0  0  2  0  0  0  0  0  0
  161.4860  203.2670  151.4810 C   0  0  0  0  0  2  0  0  0  0  0  0
  160.6060  203.5080  150.3460 N   0  0  0  0  0  2  0  0  0  0  0  0
  161.3560  200.9830  150.0410 O   0  0  0  0  0  0  0  0  0  0  0  0
  159.1450  201.6270  149.2100 O   0  0  0  0  0  0  0  0  0  0  0  0
  160.5690  202.0750  149.3720 S   0  0  0  0  0  0  0  0  0  0  0  0
  161.9830  203.5830  147.8050 F   0  0  0  0  0  0  0  0  0  0  0  0
  161.2620  202.4050  147.7670 C   0  0  0  0  0  2  0  0  0  0  0  0
  2  5  1  6  0  0  0
  3 15  1  0  0  0  0
  4  1  1  6  0  0  0
  4 25  1  0  0  0  0
  9 11  1  0  0  0  0
  9  4  1  0  0  0  0
 12  1  1  1  0  0  0
 12 25  1  0  0  0  0
 12 21  1  0  0  0  0
 13 10  1  6  0  0  0
 13 24  1  0  0  0  0
 13 26  1  0  0  0  0
 14  6  1  6  0  0  0
 14 16  1  0  0  0  0
 16 26  1  0  0  0  0
 16 15  1  1  0  0  0
 17  2  1  0  0  0  0
 17  5  1  6  0  0  0
 18 10  1  6  0  0  0
 18  6  1  0  0  0  0
 19 22  2  0  0  0  0
 20  8  1  6  0  0  0
 20 11  1  0  0  0  0
 20 19  1  0  0  0  0
 21 10  2  0  0  0  0
 22  7  1  0  0  0  0
 23  7  1  1  0  0  0
 23 14  1  0  0  0  0
 23  3  1  0  0  0  0
 24 28  1  6  0  0  0
 24 17  1  0  0  0  0
 25 18  1  0  0  0  0
 26  2  1  0  0  0  0
 28 27  2  0  0  0  0
 29 28  1  0  0  0  0
 30 29  1  0  0  0  0
 31 30  1  0  0  0  0
 33 34  2  0  0  0  0
 34 32  2  0  0  0  0
 34 31  1  0  0  0  0
 36 35  1  0  0  0  0
 36 34  1  0  0  0  0
M  END
>  <MODEL>
1

>  <REMARK>
 VINA RESULT:      -6.2      0.000      0.000
  Name = 
  5 active torsions:
  status: ('A' for Active; 'I' for Inactive)
    1  A    between atoms: C_3  and  N_24
    2  A    between atoms: C_3  and  N_26
    3  A    between atoms: C_15  and  C_33
    4  A    between atoms: N_26  and  S_36
    5  A    between atoms: C_31  and  S_36
                            x       y       z     vdW  Elec       q    Type
                         _______ _______ _______ _____ _____    ______ ____

>  <TORSDO>
F 5

$$$$
=
 OpenBabel11042421033D

 36 42  0  0  1  0  0  0  0  0999 V2000
  161.3700  201.4650  150.8620 C   0  0  0  0  0  2  0  0  0  0  0  0
  162.6150  208.1300  148.6800 C   0  0  1  0  0  3  0  0  0  0  0  0
  160.5600  206.2520  144.6660 S   0  0  0  0  0  0  0  0  0  0  0  0
  161.7330  201.3520  149.4110 C   0  0  1  0  0  3  0  0  0  0  0  0
  161.5190  208.8840  149.3140 N   0  0  0  0  0  2  0  0  0  0  0  0
  162.0350  203.9750  147.5730 N   0  0  0  0  0  2  0  0  0  0  0  0
  160.7830  203.5100  145.0080 N   0  0  0  0  0  0  0  0  0  0  0  0
  160.8820  198.6820  145.6050 C   0  0  0  0  0  1  0  0  0  0  0  0
  161.1510  200.1650  148.7950 N   0  0  0  0  0  2  0  0  0  0  0  0
  161.3820  204.6880  149.8450 C   0  0  0  0  0  0  0  0  0  0  0  0
  161.7890  200.0120  147.4890 C   0  0  0  0  0  2  0  0  0  0  0  0
  160.6540  202.7930  150.6640 C   0  0  1  0  0  3  0  0  0  0  0  0
  161.5200  206.1880  149.6720 C   0  0  1  0  0  3  0  0  0  0  0  0
  161.7710  205.0470  146.6270 C   0  0  2  0  0  3  0  0  0  0  0  0
  161.2620  207.2770  146.0420 C   0  0  0  0  0  2  0  0  0  0  0  0
  161.3660  206.3470  147.2380 C   0  0  2  0  0  3  0  0  0  0  0  0
  162.5990  208.3110  150.1420 C   0  0  1  0  0  3  0  0  0  0  0  0
  161.4260  203.7860  148.8450 C   0  0  2  0  0  3  0  0  0  0  0  0
  160.9630  201.1300  145.4270 C   0  0  0  0  0  2  0  0  0  0  0  0
  160.7490  199.9840  146.3680 C   0  0  1  0  0  3  0  0  0  0  0  0
  160.8940  204.0280  151.0740 C   0  0  0  0  0  3  0  0  0  0  0  0
  160.5450  202.3340  145.7870 C   0  0  0  0  0  3  0  0  0  0  0  0
  160.6100  204.7680  145.7230 C   0  0  1  0  0  3  0  0  0  0  0  0
  162.1560  206.9820  150.7860 C   0  0  1  0  0  3  0  0  0  0  0  0
  160.8060  202.4950  149.2180 C   0  0  1  0  0  3  0  0  0  0  0  0
  162.2470  206.6670  148.4340 C   0  0  1  0  0  3  0  0  0  0  0  0
  160.1310  207.8410  151.7420 O   0  0  0  0  0  0  0  0  0  0  0  0
  161.2100  207.2130  151.9230 C   0  0  0  0  0  0  0  0  0  0  0  0
  161.5500  206.7180  153.2200 N   0  0  0  0  0  2  0  0  0  0  0  0
  160.7020  206.9240  154.3850 C   0  0  0  0  0  2  0  0  0  0  0  0
  161.4290  207.6620  155.4080 N   0  0  0  0  0  2  0  0  0  0  0  0
  159.1960  209.0120  155.8830 O   0  0  0  0  0  0  0  0  0  0  0  0
  161.2890  209.9100  156.7840 O   0  0  0  0  0  0  0  0  0  0  0  0
  160.6630  209.2030  155.6150 S   0  0  0  0  0  0  0  0  0  0  0  0
  162.1100  209.9440  153.5940 F   0  0  0  0  0  0  0  0  0  0  0  0
  160.8730  210.1960  154.1530 C   0  0  0  0  0  2  0  0  0  0  0  0
  2  5  1  6  0  0  0
  2 17  1  0  0  0  0
  3 15  1  0  0  0  0
  4  1  1  1  0  0  0
  7 23  1  0  0  0  0
  7 22  2  0  0  0  0
  9  4  1  0  0  0  0
 10 21  2  0  0  0  0
 11  9  1  0  0  0  0
 12  1  1  1  0  0  0
 12 21  1  0  0  0  0
 13 10  1  1  0  0  0
 13 24  1  0  0  0  0
 14 16  1  0  0  0  0
 14  6  1  1  0  0  0
 16 15  1  6  0  0  0
 16 26  1  0  0  0  0
 17  5  1  6  0  0  0
 17 24  1  0  0  0  0
 18  6  1  1  0  0  0
 18 25  1  0  0  0  0
 18 10  1  0  0  0  0
 19 22  1  0  0  0  0
 19 20  1  0  0  0  0
 20  8  1  6  0  0  0
 20 11  1  0  0  0  0
 23  3  1  6  0  0  0
 23 14  1  0  0  0  0
 24 28  1  1  0  0  0
 25  4  1  0  0  0  0
 25 12  1  0  0  0  0
 26  2  1  0  0  0  0
 26 13  1  0  0  0  0
 27 28  2  0  0  0  0
 28 29  1  0  0  0  0
 29 30  1  0  0  0  0
 30 31  1  0  0  0  0
 31 34  1  0  0  0  0
 34 32  2  0  0  0  0
 34 33  2  0  0  0  0
 35 36  1  0  0  0  0
 36 34  1  0  0  0  0
M  END
>  <MODEL>
2

>  <REMARK>
 VINA RESULT:      -6.0      3.666      8.704
  Name = 
  5 active torsions:
  status: ('A' for Active; 'I' for Inactive)
    1  A    between atoms: C_3  and  N_24
    2  A    between atoms: C_3  and  N_26
    3  A    between atoms: C_15  and  C_33
    4  A    between atoms: N_26  and  S_36
    5  A    between atoms: C_31  and  S_36
                            x       y       z     vdW  Elec       q    Type
                         _______ _______ _______ _____ _____    ______ ____

>  <TORSDO>
F 5

$$$$
=
 OpenBabel11042421033D

 36 42  0  0  1  0  0  0  0  0999 V2000
  160.9830  204.8420  144.7330 C   0  0  0  0  0  2  0  0  0  0  0  0
  160.6410  206.7240  151.5950 C   0  0  1  0  0  3  0  0  0  0  0  0
  162.0890  202.0780  152.0200 S   0  0  0  0  0  0  0  0  0  0  0  0
  160.5050  203.6210  145.4620 C   0  0  1  0  0  3  0  0  0  0  0  0
  161.8820  207.4960  151.7770 N   0  0  0  0  0  2  0  0  0  0  0  0
  160.4860  203.5160  148.6770 N   0  0  0  0  0  2  0  0  0  0  0  0
  161.4660  200.9450  149.5680 N   0  0  0  0  0  2  0  0  0  0  0  0
  160.6590  198.9030  145.2260 C   0  0  0  0  0  1  0  0  0  0  0  0
  160.8500  202.3940  144.7530 N   0  0  0  0  0  2  0  0  0  0  0  0
  161.4020  205.7000  147.9750 C   0  0  0  0  0  0  0  0  0  0  0  0
  160.1050  201.3130  145.3940 C   0  0  0  0  0  2  0  0  0  0  0  0
  161.8810  205.2770  145.8820 C   0  0  1  0  0  3  0  0  0  0  0  0
  161.4870  206.3680  149.3330 C   0  0  1  0  0  3  0  0  0  0  0  0
  160.8460  203.2540  150.0610 C   0  0  2  0  0  3  0  0  0  0  0  0
  161.6540  203.8720  152.1910 C   0  0  0  0  0  2  0  0  0  0  0  0
  161.4910  204.3940  150.7750 C   0  0  2  0  0  3  0  0  0  0  0  0
  160.7870  208.0400  150.9480 C   0  0  1  0  0  3  0  0  0  0  0  0
  161.1470  204.3920  147.7710 C   0  0  2  0  0  3  0  0  0  0  0  0
  160.9470  200.0620  147.3720 C   0  0  0  0  0  3  0  0  0  0  0  0
  161.0460  200.2110  145.8840 C   0  0  1  0  0  3  0  0  0  0  0  0
  161.8660  206.3080  146.7110 C   0  0  0  0  0  3  0  0  0  0  0  0
  161.5720  200.9400  148.1410 C   0  0  0  0  0  3  0  0  0  0  0  0
  161.8830  202.1840  150.2120 C   0  0  1  0  0  3  0  0  0  0  0  0
  161.0620  207.8120  149.4490 C   0  0  1  0  0  3  0  0  0  0  0  0
  161.5830  203.9310  146.4340 C   0  0  1  0  0  3  0  0  0  0  0  0
  160.7580  205.6910  150.4740 C   0  0  1  0  0  3  0  0  0  0  0  0
  163.2680  208.3280  148.6630 O   0  0  0  0  0  0  0  0  0  0  0  0
  162.1110  208.7480  148.9350 C   0  0  0  0  0  0  0  0  0  0  0  0
  161.7840  210.1290  148.7650 N   0  0  0  0  0  2  0  0  0  0  0  0
  162.7520  211.1130  148.3000 C   0  0  0  0  0  2  0  0  0  0  0  0
  162.2660  212.4580  148.5710 N   0  0  0  0  0  2  0  0  0  0  0  0
  160.3900  212.0850  146.7340 O   0  0  0  0  0  0  0  0  0  0  0  0
  160.8510  214.3820  147.4480 O   0  0  0  0  0  0  0  0  0  0  0  0
  161.4690  213.0460  147.1490 S   0  0  0  0  0  0  0  0  0  0  0  0
  162.0790  212.7760  144.6420 F   0  0  0  0  0  0  0  0  0  0  0  0
  162.6390  213.2310  145.8200 C   0  0  0  0  0  2  0  0  0  0  0  0
  2  5  1  1  0  0  0
  3 15  1  0  0  0  0
  4  1  1  6  0  0  0
  4 25  1  0  0  0  0
  9 11  1  0  0  0  0
  9  4  1  0  0  0  0
 11 20  1  0  0  0  0
 12  1  1  6  0  0  0
 12 25  1  0  0  0  0
 12 21  1  0  0  0  0
 13 10  1  6  0  0  0
 13 24  1  0  0  0  0
 13 26  1  0  0  0  0
 14  6  1  6  0  0  0
 14 23  1  0  0  0  0
 14 16  1  0  0  0  0
 16 15  1  1  0  0  0
 17  2  1  0  0  0  0
 17  5  1  1  0  0  0
 18 10  1  6  0  0  0
 18  6  1  0  0  0  0
 19 22  2  0  0  0  0
 20  8  1  6  0  0  0
 20 19  1  0  0  0  0
 21 10  2  0  0  0  0
 22  7  1  0  0  0  0
 23  7  1  1  0  0  0
 23  3  1  0  0  0  0
 24 28  1  1  0  0  0
 24 17  1  0  0  0  0
 25 18  1  0  0  0  0
 26 16  1  0  0  0  0
 26  2  1  0  0  0  0
 27 28  2  0  0  0  0
 29 28  1  0  0  0  0
 30 31  1  0  0  0  0
 30 29  1  0  0  0  0
 32 34  2  0  0  0  0
 34 33  2  0  0  0  0
 34 31  1  0  0  0  0
 35 36  1  0  0  0  0
 36 34  1  0  0  0  0
M  END
>  <MODEL>
3

>  <REMARK>
 VINA RESULT:      -5.5      4.149      8.884
  Name = 
  5 active torsions:
  status: ('A' for Active; 'I' for Inactive)
    1  A    between atoms: C_3  and  N_24
    2  A    between atoms: C_3  and  N_26
    3  A    between atoms: C_15  and  C_33
    4  A    between atoms: N_26  and  S_36
    5  A    between atoms: C_31  and  S_36
                            x       y       z     vdW  Elec       q    Type
                         _______ _______ _______ _____ _____    ______ ____

>  <TORSDO>
F 5

$$$$
=
 OpenBabel11042421033D

 36 42  0  0  1  0  0  0  0  0999 V2000
  161.5120  206.2670  146.9910 C   0  0  0  0  0  2  0  0  0  0  0  0
  160.2080  210.3550  152.6770 C   0  0  1  0  0  3  0  0  0  0  0  0
  161.5700  206.2040  154.8620 S   0  0  0  0  0  0  0  0  0  0  0  0
  160.9340  205.3460  148.0240 C   0  0  1  0  0  3  0  0  0  0  0  0
  161.4130  211.2000  152.7460 N   0  0  0  0  0  2  0  0  0  0  0  0
  160.4600  206.3420  151.0460 N   0  0  0  0  0  2  0  0  0  0  0  0
  161.2980  204.2770  152.8890 N   0  0  0  0  0  2  0  0  0  0  0  0
  161.1070  200.8430  149.4470 C   0  0  0  0  0  1  0  0  0  0  0  0
  161.3720  203.9690  147.8330 N   0  0  0  0  0  2  0  0  0  0  0  0
  161.4710  208.1960  149.7660 C   0  0  0  0  0  0  0  0  0  0  0  0
  160.5410  203.1380  148.7010 C   0  0  0  0  0  2  0  0  0  0  0  0
  162.2400  207.1080  148.0300 C   0  0  1  0  0  3  0  0  0  0  0  0
  161.3650  209.2900  150.8100 C   0  0  1  0  0  3  0  0  0  0  0  0
  160.6200  206.5840  152.4710 C   0  0  2  0  0  3  0  0  0  0  0  0
  161.1200  207.9270  154.3470 C   0  0  0  0  0  2  0  0  0  0  0  0
  161.1600  207.9280  152.8290 C   0  0  2  0  0  3  0  0  0  0  0  0
  160.4480  211.3780  151.6430 C   0  0  1  0  0  3  0  0  0  0  0  0
  161.2440  206.8870  149.9920 C   0  0  2  0  0  3  0  0  0  0  0  0
  161.0920  202.6750  151.0820 C   0  0  0  0  0  3  0  0  0  0  0  0
  161.4010  202.3140  149.6610 C   0  0  1  0  0  3  0  0  0  0  0  0
  162.1100  208.3580  148.4440 C   0  0  0  0  0  3  0  0  0  0  0  0
  161.6050  203.7910  151.5790 C   0  0  0  0  0  3  0  0  0  0  0  0
  161.6220  205.6780  153.1180 C   0  0  1  0  0  3  0  0  0  0  0  0
  160.9310  210.6660  150.3650 C   0  0  1  0  0  3  0  0  0  0  0  0
  161.8640  206.0190  148.9650 C   0  0  1  0  0  3  0  0  0  0  0  0
  160.4800  209.0090  152.0050 C   0  0  1  0  0  3  0  0  0  0  0  0
  163.2470  211.1650  149.9890 O   0  0  0  0  0  0  0  0  0  0  0  0
  162.0440  211.4190  149.7050 C   0  0  0  0  0  0  0  0  0  0  0  0
  161.7250  212.4370  148.7540 N   0  0  0  0  0  2  0  0  0  0  0  0
  162.7440  213.2370  148.0890 C   0  0  0  0  0  2  0  0  0  0  0  0
  162.7420  212.9610  146.6600 N   0  0  0  0  0  2  0  0  0  0  0  0
  160.5710  214.4450  147.0060 O   0  0  0  0  0  0  0  0  0  0  0  0
  161.6160  214.4470  144.7910 O   0  0  0  0  0  0  0  0  0  0  0  0
  161.2790  213.5990  145.9840 S   0  0  0  0  0  0  0  0  0  0  0  0
  159.1080  212.2160  146.3050 F   0  0  0  0  0  0  0  0  0  0  0  0
  160.2080  212.2730  145.4720 C   0  0  0  0  0  2  0  0  0  0  0  0
  2  5  1  1  0  0  0
  4  1  1  6  0  0  0
  4 25  1  0  0  0  0
  9  4  1  0  0  0  0
  9 11  1  0  0  0  0
 11 20  1  0  0  0  0
 12  1  1  6  0  0  0
 12 21  1  0  0  0  0
 12 25  1  0  0  0  0
 13 10  1  6  0  0  0
 13 26  1  0  0  0  0
 14  6  1  6  0  0  0
 14 16  1  0  0  0  0
 14 23  1  0  0  0  0
 15  3  1  0  0  0  0
 16 15  1  1  0  0  0
 17  2  1  0  0  0  0
 17  5  1  1  0  0  0
 18 10  1  6  0  0  0
 18  6  1  0  0  0  0
 19 22  2  0  0  0  0
 20  8  1  1  0  0  0
 20 19  1  0  0  0  0
 21 10  2  0  0  0  0
 22  7  1  0  0  0  0
 23  7  1  1  0  0  0
 23  3  1  0  0  0  0
 24 28  1  1  0  0  0
 24 13  1  0  0  0  0
 24 17  1  0  0  0  0
 25 18  1  0  0  0  0
 26  2  1  0  0  0  0
 26 16  1  0  0  0  0
 28 27  2  0  0  0  0
 29 28  1  0  0  0  0
 30 29  1  0  0  0  0
 31 30  1  0  0  0  0
 33 34  2  0  0  0  0
 34 31  1  0  0  0  0
 34 32  2  0  0  0  0
 36 34  1  0  0  0  0
 36 35  1  0  0  0  0
M  END
>  <MODEL>
4

>  <REMARK>
 VINA RESULT:      -5.1      4.269      7.769
  Name = 
  5 active torsions:
  status: ('A' for Active; 'I' for Inactive)
    1  A    between atoms: C_3  and  N_24
    2  A    between atoms: C_3  and  N_26
    3  A    between atoms: C_15  and  C_33
    4  A    between atoms: N_26  and  S_36
    5  A    between atoms: C_31  and  S_36
                            x       y       z     vdW  Elec       q    Type
                         _______ _______ _______ _____ _____    ______ ____

>  <TORSDO>
F 5

$$$$
=
 OpenBabel11042421033D

 36 42  0  0  1  0  0  0  0  0999 V2000
  160.7670  203.5260  152.3570 C   0  0  0  0  0  2  0  0  0  0  0  0
  162.6920  210.3630  152.8970 C   0  0  1  0  0  3  0  0  0  0  0  0
  161.6290  210.1140  148.1360 S   0  0  0  0  0  0  0  0  0  0  0  0
  161.4700  203.8490  151.0710 C   0  0  1  0  0  3  0  0  0  0  0  0
  161.4960  210.9860  153.4910 N   0  0  0  0  0  2  0  0  0  0  0  0
  162.2850  206.8760  150.3480 N   0  0  0  0  0  2  0  0  0  0  0  0
  161.6850  207.4020  147.5680 N   0  0  0  0  0  2  0  0  0  0  0  0
  161.5010  202.6590  146.4980 C   0  0  0  0  0  1  0  0  0  0  0  0
  161.0240  202.9950  149.9770 N   0  0  0  0  0  2  0  0  0  0  0  0
  161.1160  206.8840  152.5230 C   0  0  0  0  0  0  0  0  0  0  0  0
  161.9570  203.2030  148.8720 C   0  0  0  0  0  2  0  0  0  0  0  0
  160.1590  204.9170  152.4680 C   0  0  1  0  0  3  0  0  0  0  0  0
  161.3340  208.3350  152.9040 C   0  0  1  0  0  3  0  0  0  0  0  0
  162.2900  208.2170  149.7880 C   0  0  2  0  0  3  0  0  0  0  0  0
  162.0010  210.5580  149.8970 C   0  0  0  0  0  2  0  0  0  0  0  0
  161.7840  209.2870  150.6970 C   0  0  2  0  0  3  0  0  0  0  0  0
  162.3240  210.0630  154.2920 C   0  0  1  0  0  3  0  0  0  0  0  0
  161.3790  206.3540  151.3120 C   0  0  2  0  0  3  0  0  0  0  0  0
  161.6910  205.0090  147.1840 C   0  0  0  0  0  3  0  0  0  0  0  0
  161.2220  203.6510  147.6080 C   0  0  1  0  0  3  0  0  0  0  0  0
  160.3250  205.9190  153.3150 C   0  0  0  0  0  3  0  0  0  0  0  0
  161.2310  206.0710  147.8280 C   0  0  0  0  0  3  0  0  0  0  0  0
  161.3780  208.3720  148.6100 C   0  0  1  0  0  3  0  0  0  0  0  0
  161.7010  208.6540  154.3330 C   0  0  1  0  0  3  0  0  0  0  0  0
  160.6500  205.0860  151.0780 C   0  0  1  0  0  3  0  0  0  0  0  0
  162.3550  209.1060  152.0940 C   0  0  1  0  0  3  0  0  0  0  0  0
  160.1830  207.5290  155.8090 O   0  0  0  0  0  0  0  0  0  0  0  0
  160.5130  208.6060  155.2410 C   0  0  0  0  0  0  0  0  0  0  0  0
  159.7510  209.7970  155.4500 N   0  0  0  0  0  2  0  0  0  0  0  0
  158.5650  209.8320  156.2930 C   0  0  0  0  0  2  0  0  0  0  0  0
  158.2240  211.2090  156.6200 N   0  0  0  0  0  2  0  0  0  0  0  0
  156.0290  210.5530  155.2850 O   0  0  0  0  0  0  0  0  0  0  0  0
  156.1500  212.8000  156.2520 O   0  0  0  0  0  0  0  0  0  0  0  0
  156.9380  211.7150  155.5750 S   0  0  0  0  0  0  0  0  0  0  0  0
  158.0900  211.2970  153.2880 F   0  0  0  0  0  0  0  0  0  0  0  0
  157.5990  212.3430  154.0460 C   0  0  0  0  0  2  0  0  0  0  0  0
  2  5  1  6  0  0  0
  2 17  1  0  0  0  0
  3 23  1  0  0  0  0
  3 15  1  0  0  0  0
  4 25  1  0  0  0  0
  4  1  1  1  0  0  0
  7 22  1  0  0  0  0
  9  4  1  0  0  0  0
 10 21  2  0  0  0  0
 11  9  1  0  0  0  0
 12  1  1  1  0  0  0
 12 21  1  0  0  0  0
 13 10  1  1  0  0  0
 13 24  1  0  0  0  0
 14  6  1  1  0  0  0
 14 16  1  0  0  0  0
 16 15  1  6  0  0  0
 16 26  1  0  0  0  0
 17  5  1  6  0  0  0
 17 24  1  0  0  0  0
 18  6  1  1  0  0  0
 18 10  1  0  0  0  0
 19 20  1  0  0  0  0
 19 22  2  0  0  0  0
 20  8  1  6  0  0  0
 20 11  1  0  0  0  0
 23  7  1  6  0  0  0
 23 14  1  0  0  0  0
 24 28  1  1  0  0  0
 25 18  1  0  0  0  0
 25 12  1  0  0  0  0
 26  2  1  0  0  0  0
 26 13  1  0  0  0  0
 28 29  1  0  0  0  0
 28 27  2  0  0  0  0
 29 30  1  0  0  0  0
 30 31  1  0  0  0  0
 32 34  2  0  0  0  0
 34 33  2  0  0  0  0
 34 31  1  0  0  0  0
 35 36  1  0  0  0  0
 36 34  1  0  0  0  0
M  END
>  <MODEL>
5

>  <REMARK>
 VINA RESULT:      -4.7      3.654      7.359
  Name = 
  5 active torsions:
  status: ('A' for Active; 'I' for Inactive)
    1  A    between atoms: C_3  and  N_24
    2  A    between atoms: C_3  and  N_26
    3  A    between atoms: C_15  and  C_33
    4  A    between atoms: N_26  and  S_36
    5  A    between atoms: C_31  and  S_36
                            x       y       z     vdW  Elec       q    Type
                         _______ _______ _______ _____ _____    ______ ____

>  <TORSDO>
F 5

$$$$
=
 OpenBabel11042421033D

 36 42  0  0  1  0  0  0  0  0999 V2000
  162.5960  209.2020  149.2200 C   0  0  0  0  0  2  0  0  0  0  0  0
  160.4240  210.0090  155.9560 C   0  0  1  0  0  3  0  0  0  0  0  0
  157.6630  213.3650  153.7250 S   0  0  0  0  0  0  0  0  0  0  0  0
  162.3300  210.6700  149.3840 C   0  0  1  0  0  3  0  0  0  0  0  0
  159.5100  208.8670  156.1360 N   0  0  0  0  0  2  0  0  0  0  0  0
  160.9070  211.8060  152.0360 N   0  0  0  0  0  2  0  0  0  0  0  0
  158.9400  213.7950  151.3030 N   0  0  0  0  0  2  0  0  0  0  0  0
  160.9400  214.4530  146.9170 C   0  0  0  0  0  1  0  0  0  0  0  0
  161.9930  211.3070  148.1170 N   0  0  0  0  0  2  0  0  0  0  0  0
  161.0660  209.3490  152.2300 C   0  0  0  0  0  0  0  0  0  0  0  0
  162.0340  212.7490  148.3460 C   0  0  0  0  0  2  0  0  0  0  0  0
  161.4530  208.8090  150.1450 C   0  0  1  0  0  3  0  0  0  0  0  0
  160.5910  209.1940  153.6620 C   0  0  1  0  0  3  0  0  0  0  0  0
  159.9190  212.3100  152.9750 C   0  0  2  0  0  3  0  0  0  0  0  0
  158.4760  212.1220  154.8340 C   0  0  0  0  0  2  0  0  0  0  0  0
  159.3860  211.3020  153.9380 C   0  0  2  0  0  3  0  0  0  0  0  0
  160.9620  208.6380  155.9960 C   0  0  1  0  0  3  0  0  0  0  0  0
  160.9950  210.4860  151.5110 C   0  0  2  0  0  3  0  0  0  0  0  0
  160.0890  214.0530  149.1850 C   0  0  0  0  0  3  0  0  0  0  0  0
  160.7000  213.4030  147.9810 C   0  0  1  0  0  3  0  0  0  0  0  0
  161.4010  208.2250  151.3310 C   0  0  0  0  0  3  0  0  0  0  0  0
  159.4730  213.2900  150.0750 C   0  0  0  0  0  3  0  0  0  0  0  0
  158.6610  212.7850  152.3150 C   0  0  1  0  0  3  0  0  0  0  0  0
  161.3190  208.2190  154.5560 C   0  0  1  0  0  3  0  0  0  0  0  0
  161.0760  210.2420  150.0530 C   0  0  1  0  0  3  0  0  0  0  0  0
  160.5170  210.4540  154.4960 C   0  0  1  0  0  3  0  0  0  0  0  0
  160.0680  206.2240  155.0090 O   0  0  0  0  0  0  0  0  0  0  0  0
  160.9230  206.8020  154.2830 C   0  0  0  0  0  0  0  0  0  0  0  0
  161.5320  206.1090  153.1920 N   0  0  0  0  0  2  0  0  0  0  0  0
  161.2260  204.7210  152.8750 C   0  0  0  0  0  2  0  0  0  0  0  0
  161.9930  204.2940  151.7130 N   0  0  0  0  0  2  0  0  0  0  0  0
  160.9060  202.0890  150.7180 O   0  0  0  0  0  0  0  0  0  0  0  0
  159.5130  204.1000  150.8310 O   0  0  0  0  0  0  0  0  0  0  0  0
  160.9000  203.5850  150.5700 S   0  0  0  0  0  0  0  0  0  0  0  0
  161.1360  205.3600  148.6930 F   0  0  0  0  0  0  0  0  0  0  0  0
  161.3790  204.0170  148.9110 C   0  0  0  0  0  2  0  0  0  0  0  0
  2 17  1  0  0  0  0
  2  5  1  6  0  0  0
  3 15  1  0  0  0  0
  4  1  1  6  0  0  0
  4 25  1  0  0  0  0
  9 11  1  0  0  0  0
  9  4  1  0  0  0  0
 12  1  1  1  0  0  0
 12 21  1  0  0  0  0
 13 10  1  6  0  0  0
 13 26  1  0  0  0  0
 13 24  1  0  0  0  0
 14  6  1  6  0  0  0
 14 16  1  0  0  0  0
 16 26  1  0  0  0  0
 16 15  1  1  0  0  0
 17  5  1  6  0  0  0
 18  6  1  1  0  0  0
 18 10  1  0  0  0  0
 19 22  2  0  0  0  0
 20  8  1  6  0  0  0
 20 11  1  0  0  0  0
 20 19  1  0  0  0  0
 21 10  2  0  0  0  0
 22  7  1  0  0  0  0
 23  7  1  6  0  0  0
 23 14  1  0  0  0  0
 23  3  1  0  0  0  0
 24 28  1  6  0  0  0
 24 17  1  0  0  0  0
 25 12  1  0  0  0  0
 25 18  1  0  0  0  0
 26  2  1  0  0  0  0
 28 27  2  0  0  0  0
 29 28  1  0  0  0  0
 30 29  1  0  0  0  0
 31 30  1  0  0  0  0
 34 32  2  0  0  0  0
 34 33  2  0  0  0  0
 34 31  1  0  0  0  0
 35 36  1  0  0  0  0
 36 34  1  0  0  0  0
M  END
>  <MODEL>
6

>  <REMARK>
 VINA RESULT:      -4.6      1.344      1.640
  Name = 
  5 active torsions:
  status: ('A' for Active; 'I' for Inactive)
    1  A    between atoms: C_3  and  N_24
    2  A    between atoms: C_3  and  N_26
    3  A    between atoms: C_15  and  C_33
    4  A    between atoms: N_26  and  S_36
    5  A    between atoms: C_31  and  S_36
                            x       y       z     vdW  Elec       q    Type
                         _______ _______ _______ _____ _____    ______ ____

>  <TORSDO>
F 5

$$$$
=
 OpenBabel11042421033D

 36 42  0  0  1  0  0  0  0  0999 V2000
  162.2080  209.0680  149.2970 C   0  0  0  0  0  2  0  0  0  0  0  0
  162.1430  202.5680  146.3830 C   0  0  1  0  0  3  0  0  0  0  0  0
  159.7080  201.7060  150.5290 S   0  0  0  0  0  0  0  0  0  0  0  0
  162.3290  208.1100  150.4460 C   0  0  1  0  0  3  0  0  0  0  0  0
  161.0800  202.6820  145.3690 N   0  0  0  0  0  2  0  0  0  0  0  0
  161.9540  204.9450  150.0070 N   0  0  0  0  0  2  0  0  0  0  0  0
  160.3570  203.8530  152.1570 N   0  0  0  0  0  0  0  0  0  0  0  0
  161.2120  207.6940  155.0190 C   0  0  0  0  0  1  0  0  0  0  0  0
  161.8180  208.6800  151.6860 N   0  0  0  0  0  2  0  0  0  0  0  0
  161.6070  206.0770  147.8400 C   0  0  0  0  0  0  0  0  0  0  0  0
  162.2380  207.7900  152.7650 C   0  0  0  0  0  2  0  0  0  0  0  0
  161.2950  208.1370  148.5120 C   0  0  1  0  0  3  0  0  0  0  0  0
  161.5080  204.8550  146.9480 C   0  0  1  0  0  3  0  0  0  0  0  0
  161.3890  203.6070  149.9580 C   0  0  2  0  0  3  0  0  0  0  0  0
  160.4890  201.7280  148.8480 C   0  0  0  0  0  2  0  0  0  0  0  0
  160.9210  203.1640  148.6120 C   0  0  2  0  0  3  0  0  0  0  0  0
  162.3530  203.4090  145.1910 C   0  0  1  0  0  3  0  0  0  0  0  0
  161.6020  206.0530  149.1880 C   0  0  2  0  0  3  0  0  0  0  0  0
  160.9280  205.8010  153.4810 C   0  0  0  0  0  2  0  0  0  0  0  0
  161.0360  207.2930  153.5690 C   0  0  1  0  0  3  0  0  0  0  0  0
  161.4310  207.4690  147.3780 C   0  0  0  0  0  3  0  0  0  0  0  0
  160.4180  205.2640  152.3830 C   0  0  0  0  0  3  0  0  0  0  0  0
  160.1390  203.4600  150.7710 C   0  0  1  0  0  3  0  0  0  0  0  0
  162.2120  204.8840  145.6130 C   0  0  1  0  0  3  0  0  0  0  0  0
  161.2360  207.3620  149.7760 C   0  0  1  0  0  3  0  0  0  0  0  0
  161.9410  203.5350  147.5490 C   0  0  1  0  0  3  0  0  0  0  0  0
  160.3380  206.1920  144.8850 O   0  0  0  0  0  0  0  0  0  0  0  0
  161.4510  205.6750  144.5950 C   0  0  0  0  0  0  0  0  0  0  0  0
  162.0000  205.8290  143.2840 N   0  0  0  0  0  2  0  0  0  0  0  0
  161.3130  206.5560  142.2260 C   0  0  0  0  0  2  0  0  0  0  0  0
  161.9540  206.2970  140.9450 N   0  0  0  0  0  2  0  0  0  0  0  0
  160.6350  208.5040  140.2970 O   0  0  0  0  0  0  0  0  0  0  0  0
  163.0800  208.6140  140.3720 O   0  0  0  0  0  0  0  0  0  0  0  0
  161.9050  207.7530  140.0070 S   0  0  0  0  0  0  0  0  0  0  0  0
  162.3310  206.0440  138.1030 F   0  0  0  0  0  0  0  0  0  0  0  0
  161.9800  207.3690  138.2710 C   0  0  0  0  0  2  0  0  0  0  0  0
  2  5  1  6  0  0  0
  2 26  1  0  0  0  0
  4  1  1  6  0  0  0
  4  9  1  0  0  0  0
  7 22  2  0  0  0  0
  9 11  1  0  0  0  0
 11 20  1  0  0  0  0
 12 21  1  6  0  0  0
 12  1  1  0  0  0  0
 12 25  1  0  0  0  0
 13 26  1  0  0  0  0
 13 10  1  1  0  0  0
 14  6  1  6  0  0  0
 14 23  1  0  0  0  0
 15  3  1  0  0  0  0
 16 15  1  1  0  0  0
 16 14  1  0  0  0  0
 17  5  1  6  0  0  0
 17 24  1  0  0  0  0
 17  2  1  0  0  0  0
 18 10  1  6  0  0  0
 18 25  1  0  0  0  0
 18  6  1  0  0  0  0
 19 20  1  0  0  0  0
 20  8  1  1  0  0  0
 21 10  2  0  0  0  0
 22 19  1  0  0  0  0
 23  3  1  1  0  0  0
 23  7  1  0  0  0  0
 24 28  1  6  0  0  0
 24 13  1  0  0  0  0
 25  4  1  0  0  0  0
 26 16  1  0  0  0  0
 28 27  2  0  0  0  0
 29 28  1  0  0  0  0
 30 29  1  0  0  0  0
 31 30  1  0  0  0  0
 34 32  2  0  0  0  0
 34 33  2  0  0  0  0
 34 31  1  0  0  0  0
 35 36  1  0  0  0  0
 36 34  1  0  0  0  0
M  END
>  <MODEL>
7

>  <REMARK>
 VINA RESULT:      -3.4      5.072      8.415
  Name = 
  5 active torsions:
  status: ('A' for Active; 'I' for Inactive)
    1  A    between atoms: C_3  and  N_24
    2  A    between atoms: C_3  and  N_26
    3  A    between atoms: C_15  and  C_33
    4  A    between atoms: N_26  and  S_36
    5  A    between atoms: C_31  and  S_36
                            x       y       z     vdW  Elec       q    Type
                         _______ _______ _______ _____ _____    ______ ____

>  <TORSDO>
F 5

$$$$
=
 OpenBabel11042421033D

 36 42  0  0  1  0  0  0  0  0999 V2000
  161.2800  205.4730  153.8390 C   0  0  0  0  0  2  0  0  0  0  0  0
  162.5290  210.2500  148.7040 C   0  0  1  0  0  3  0  0  0  0  0  0
  160.5920  206.6130  146.0810 S   0  0  0  0  0  0  0  0  0  0  0  0
  161.6810  204.6740  152.6340 C   0  0  1  0  0  3  0  0  0  0  0  0
  161.4120  211.1970  148.8690 N   0  0  0  0  0  2  0  0  0  0  0  0
  162.0100  206.0730  149.7560 N   0  0  0  0  0  2  0  0  0  0  0  0
  160.8270  204.3920  147.7210 N   0  0  0  0  0  0  0  0  0  0  0  0
  160.9480  200.4710  150.6000 C   0  0  0  0  0  1  0  0  0  0  0  0
  161.1250  203.3270  152.6650 N   0  0  0  0  0  2  0  0  0  0  0  0
  161.2930  207.7910  151.3790 C   0  0  0  0  0  0  0  0  0  0  0  0
  161.7970  202.5680  151.6130 C   0  0  0  0  0  2  0  0  0  0  0  0
  160.5600  206.5230  153.0040 C   0  0  1  0  0  3  0  0  0  0  0  0
  161.4240  209.0180  150.4970 C   0  0  1  0  0  3  0  0  0  0  0  0
  161.7620  206.5420  148.4030 C   0  0  2  0  0  3  0  0  0  0  0  0
  161.2510  208.1920  146.7940 C   0  0  0  0  0  2  0  0  0  0  0  0
  161.3310  207.9660  148.2930 C   0  0  2  0  0  3  0  0  0  0  0  0
  162.4750  211.1210  149.8920 C   0  0  1  0  0  3  0  0  0  0  0  0
  161.3700  206.5170  150.9470 C   0  0  2  0  0  3  0  0  0  0  0  0
  161.0160  202.5230  149.2530 C   0  0  0  0  0  2  0  0  0  0  0  0
  160.7860  201.9770  150.6290 C   0  0  1  0  0  3  0  0  0  0  0  0
  160.7800  207.8050  152.7640 C   0  0  0  0  0  3  0  0  0  0  0  0
  160.5790  203.7400  148.9710 C   0  0  0  0  0  3  0  0  0  0  0  0
  160.6270  205.8350  147.7280 C   0  0  1  0  0  3  0  0  0  0  0  0
  162.0260  210.2670  151.0940 C   0  0  1  0  0  3  0  0  0  0  0  0
  160.7510  205.5590  151.8910 C   0  0  1  0  0  3  0  0  0  0  0  0
  162.1790  208.8460  149.1970 C   0  0  1  0  0  3  0  0  0  0  0  0
  160.1210  211.6830  151.4370 O   0  0  0  0  0  0  0  0  0  0  0  0
  161.0500  211.0050  151.9560 C   0  0  0  0  0  0  0  0  0  0  0  0
  161.1890  210.9360  153.3760 N   0  0  0  0  0  2  0  0  0  0  0  0
  160.3010  211.6470  154.2860 C   0  0  0  0  0  2  0  0  0  0  0  0
  159.1060  210.8550  154.5380 N   0  0  0  0  0  2  0  0  0  0  0  0
  158.0370  212.9360  155.7860 O   0  0  0  0  0  0  0  0  0  0  0  0
  157.5560  212.6630  153.4000 O   0  0  0  0  0  0  0  0  0  0  0  0
  157.7610  211.9350  154.6990 S   0  0  0  0  0  0  0  0  0  0  0  0
  155.8240  211.4040  156.3410 F   0  0  0  0  0  0  0  0  0  0  0  0
  156.2840  211.0240  155.0950 C   0  0  0  0  0  2  0  0  0  0  0  0
  2  5  1  6  0  0  0
  2 26  1  0  0  0  0
  2 17  1  0  0  0  0
  3 15  1  0  0  0  0
  4  9  1  0  0  0  0
  4  1  1  1  0  0  0
  7 23  1  0  0  0  0
  7 22  2  0  0  0  0
 10 21  2  0  0  0  0
 11  9  1  0  0  0  0
 12 21  1  6  0  0  0
 12  1  1  0  0  0  0
 13 24  1  0  0  0  0
 13 10  1  1  0  0  0
 14  6  1  1  0  0  0
 16 15  1  6  0  0  0
 16 14  1  0  0  0  0
 16 26  1  0  0  0  0
 17  5  1  6  0  0  0
 17 24  1  0  0  0  0
 18  6  1  1  0  0  0
 18 10  1  0  0  0  0
 18 25  1  0  0  0  0
 19 20  1  0  0  0  0
 20  8  1  6  0  0  0
 20 11  1  0  0  0  0
 22 19  1  0  0  0  0
 23  3  1  6  0  0  0
 23 14  1  0  0  0  0
 24 28  1  6  0  0  0
 25  4  1  0  0  0  0
 25 12  1  0  0  0  0
 26 13  1  0  0  0  0
 27 28  2  0  0  0  0
 28 29  1  0  0  0  0
 29 30  1  0  0  0  0
 30 31  1  0  0  0  0
 31 34  1  0  0  0  0
 33 34  2  0  0  0  0
 34 36  1  0  0  0  0
 34 32  2  0  0  0  0
 36 35  1  0  0  0  0
M  END
>  <MODEL>
8

>  <REMARK>
 VINA RESULT:      -3.4      4.072      8.481
  Name = 
  5 active torsions:
  status: ('A' for Active; 'I' for Inactive)
    1  A    between atoms: C_3  and  N_24
    2  A    between atoms: C_3  and  N_26
    3  A    between atoms: C_15  and  C_33
    4  A    between atoms: N_26  and  S_36
    5  A    between atoms: C_31  and  S_36
                            x       y       z     vdW  Elec       q    Type
                         _______ _______ _______ _____ _____    ______ ____

>  <TORSDO>
F 5

$$$$
=
 OpenBabel11042421033D

 36 42  0  0  1  0  0  0  0  0999 V2000
  160.1600  206.1930  155.7430 C   0  0  0  0  0  2  0  0  0  0  0  0
  160.5120  206.6440  148.6420 C   0  0  1  0  0  3  0  0  0  0  0  0
  162.7140  210.8160  149.9070 S   0  0  0  0  0  0  0  0  0  0  0  0
  159.9880  207.6480  155.4230 C   0  0  1  0  0  3  0  0  0  0  0  0
  161.6310  205.7410  148.3200 N   0  0  0  0  0  2  0  0  0  0  0  0
  160.4450  208.7500  152.4350 N   0  0  0  0  0  2  0  0  0  0  0  0
  161.9320  211.2280  152.5340 N   0  0  0  0  0  0  0  0  0  0  0  0
  160.8420  211.9340  157.2230 C   0  0  0  0  0  1  0  0  0  0  0  0
  160.4150  208.5020  156.5250 N   0  0  0  0  0  2  0  0  0  0  0  0
  160.8980  206.3220  152.4470 C   0  0  0  0  0  0  0  0  0  0  0  0
  159.9480  209.8520  156.2190 C   0  0  0  0  0  2  0  0  0  0  0  0
  161.1330  205.9710  154.5950 C   0  0  1  0  0  3  0  0  0  0  0  0
  161.0710  206.1060  150.9560 C   0  0  1  0  0  3  0  0  0  0  0  0
  161.0360  209.3540  151.2520 C   0  0  2  0  0  3  0  0  0  0  0  0
  162.0330  209.2850  149.1140 C   0  0  0  0  0  2  0  0  0  0  0  0
  161.5900  208.3900  150.2570 C   0  0  2  0  0  3  0  0  0  0  0  0
  160.3570  205.1890  148.8250 C   0  0  1  0  0  3  0  0  0  0  0  0
  160.8240  207.5250  153.0510 C   0  0  2  0  0  3  0  0  0  0  0  0
  161.2490  211.4670  154.8470 C   0  0  0  0  0  2  0  0  0  0  0  0
  161.1100  210.8460  156.2030 C   0  0  1  0  0  3  0  0  0  0  0  0
  161.0760  205.2730  153.4720 C   0  0  0  0  0  3  0  0  0  0  0  0
  161.8330  210.7690  153.8850 C   0  0  0  0  0  3  0  0  0  0  0  0
  162.2380  210.1960  151.5530 C   0  0  1  0  0  3  0  0  0  0  0  0
  160.4470  204.8820  150.3330 C   0  0  1  0  0  3  0  0  0  0  0  0
  161.1320  207.4530  154.4980 C   0  0  1  0  0  3  0  0  0  0  0  0
  160.6270  207.2330  150.0480 C   0  0  1  0  0  3  0  0  0  0  0  0
  162.3220  203.7080  151.2580 O   0  0  0  0  0  0  0  0  0  0  0  0
  161.2520  203.6470  150.5930 C   0  0  0  0  0  0  0  0  0  0  0  0
  160.7940  202.3980  150.0700 N   0  0  0  0  0  2  0  0  0  0  0  0
  161.5310  201.1550  150.2510 C   0  0  0  0  0  2  0  0  0  0  0  0
  162.1950  200.7830  149.0090 N   0  0  0  0  0  2  0  0  0  0  0  0
  161.2060  199.8140  146.7470 O   0  0  0  0  0  0  0  0  0  0  0  0
  159.6660  200.9540  148.2730 O   0  0  0  0  0  0  0  0  0  0  0  0
  161.0600  200.9580  147.7120 S   0  0  0  0  0  0  0  0  0  0  0  0
  161.0450  202.3350  145.5130 F   0  0  0  0  0  0  0  0  0  0  0  0
  161.3370  202.4930  146.8540 C   0  0  0  0  0  2  0  0  0  0  0  0
  2  5  1  6  0  0  0
  2 17  1  0  0  0  0
  2 26  1  0  0  0  0
  4  1  1  1  0  0  0
  4  9  1  0  0  0  0
  7 22  2  0  0  0  0
 10 18  1  0  0  0  0
 10 21  2  0  0  0  0
 11  9  1  0  0  0  0
 12 21  1  6  0  0  0
 12  1  1  0  0  0  0
 13 10  1  1  0  0  0
 14 23  1  0  0  0  0
 14  6  1  1  0  0  0
 15  3  1  0  0  0  0
 16 15  1  6  0  0  0
 16 14  1  0  0  0  0
 17  5  1  6  0  0  0
 17 24  1  0  0  0  0
 18  6  1  1  0  0  0
 18 25  1  0  0  0  0
 19 20  1  0  0  0  0
 20 11  1  0  0  0  0
 20  8  1  1  0  0  0
 22 19  1  0  0  0  0
 23  3  1  6  0  0  0
 23  7  1  0  0  0  0
 24 28  1  6  0  0  0
 24 13  1  0  0  0  0
 25 12  1  0  0  0  0
 25  4  1  0  0  0  0
 26 16  1  0  0  0  0
 26 13  1  0  0  0  0
 28 27  2  0  0  0  0
 29 30  1  0  0  0  0
 29 28  1  0  0  0  0
 31 30  1  0  0  0  0
 32 34  2  0  0  0  0
 34 33  2  0  0  0  0
 34 31  1  0  0  0  0
 35 36  1  0  0  0  0
 36 34  1  0  0  0  0
M  END
>  <MODEL>
9

>  <REMARK>
 VINA RESULT:      -3.3      2.531      5.167
  Name = 
  5 active torsions:
  status: ('A' for Active; 'I' for Inactive)
    1  A    between atoms: C_3  and  N_24
    2  A    between atoms: C_3  and  N_26
    3  A    between atoms: C_15  and  C_33
    4  A    between atoms: N_26  and  S_36
    5  A    between atoms: C_31  and  S_36
                            x       y       z     vdW  Elec       q    Type
                         _______ _______ _______ _____ _____    ______ ____

>  <TORSDO>
F 5

$$$$
