=
 OpenBabel11042420303D

 31 31  0  0  1  0  0  0  0  0999 V2000
  161.4160  206.2170  151.6500 N   0  0  0  0  0  0  0  0  0  0  0  0
  160.7410  209.2560  153.8580 C   0  0  0  0  0  2  0  0  0  0  0  0
  160.4330  207.1740  155.2080 C   0  0  0  0  0  2  0  0  0  0  0  0
  161.3610  208.4460  152.7210 C   0  0  0  0  0  2  0  0  0  0  0  0
  160.8270  207.0120  152.7360 C   0  0  2  0  0  3  0  0  0  0  0  0
  161.0220  208.5810  155.2000 C   0  0  2  0  0  3  0  0  0  0  0  0
  161.0570  206.3400  154.0920 C   0  0  0  0  0  2  0  0  0  0  0  0
  160.4190  209.3900  156.3320 C   0  0  0  0  0  2  0  0  0  0  0  0
  159.2080  210.0500  155.8770 N   0  0  0  0  0  2  0  0  0  0  0  0
  159.2370  211.3950  156.4240 C   0  0  0  0  0  2  0  0  0  0  0  0
  159.5560  212.7850  154.5190 O   0  0  0  0  0  0  0  0  0  0  0  0
  157.4010  212.7800  155.3880 N   0  0  0  0  0  1  0  0  0  0  0  0
  158.7610  212.3620  155.3980 C   0  0  0  0  0  0  0  0  0  0  0  0
  161.5980  206.6830  149.3230 C   0  0  0  0  0  3  0  0  0  0  0  0
  162.0450  206.8030  150.5330 N   0  0  0  0  0  0  0  0  0  0  0  0
  162.0130  208.7710  148.1790 N   0  0  0  0  0  1  0  0  0  0  0  0
  162.2980  207.3430  148.1840 C   0  0  2  0  0  3  0  0  0  0  0  0
  161.9060  206.6910  146.8510 C   0  0  1  0  0  3  0  0  0  0  0  0
  163.3860  204.5270  146.2990 C   0  0  0  0  0  3  0  0  0  0  0  0
  162.7170  205.5000  146.5510 C   0  0  0  0  0  0  0  0  0  0  0  0
  159.9780  206.2400  145.5140 O   0  0  0  0  0  1  0  0  0  0  0  0
  160.4300  206.3270  146.8310 C   0  0  0  0  0  2  0  0  0  0  0  0
  160.9740  204.0210  150.7220 C   0  0  0  0  0  3  0  0  0  0  0  0
  161.4100  204.7870  151.7210 C   0  0  0  0  0  3  0  0  0  0  0  0
  161.2140  202.0030  151.9120 O   0  0  0  0  0  0  0  0  0  0  0  0
  160.9660  202.5550  150.8080 C   0  0  0  0  0  0  0  0  0  0  0  0
  160.6460  201.7030  149.6230 C   0  0  0  0  0  2  0  0  0  0  0  0
  160.9210  202.4720  148.3410 C   0  0  0  0  0  2  0  0  0  0  0  0
  160.6920  201.9780  145.9500 C   0  0  0  0  0  2  0  0  0  0  0  0
  161.5200  200.1690  147.3570 C   0  0  0  0  0  1  0  0  0  0  0  0
  160.9690  201.5400  147.1760 C   0  0  0  0  0  0  0  0  0  0  0  0
  1 24  1  0  0  0  0
  2  6  1  0  0  0  0
  4  5  1  0  0  0  0
  4  2  1  0  0  0  0
  5  1  1  6  0  0  0
  5  7  1  0  0  0  0
  6  3  1  0  0  0  0
  6  8  1  1  0  0  0
  7  3  1  0  0  0  0
  9  8  1  0  0  0  0
  9 10  1  0  0  0  0
 11 13  2  0  0  0  0
 12 13  1  0  0  0  0
 13 10  1  0  0  0  0
 14 15  2  0  0  0  0
 15  1  1  0  0  0  0
 17 16  1  6  0  0  0
 17 14  1  0  0  0  0
 18 20  1  1  0  0  0
 18 17  1  0  0  0  0
 19 20  3  0  0  0  0
 21 22  1  0  0  0  0
 22 18  1  0  0  0  0
 23 26  1  0  0  0  0
 23 24  2  0  0  0  0
 26 25  2  0  0  0  0
 27 26  1  0  0  0  0
 28 27  1  0  0  0  0
 29 31  2  0  0  0  0
 31 30  1  0  0  0  0
 31 28  1  0  0  0  0
M  END
>  <MODEL>
1

>  <REMARK>
 VINA RESULT:      -6.8      0.000      0.000
  Name = 
  15 active torsions:
  status: ('A' for Active; 'I' for Inactive)
    1  A    between atoms: C_1  and  N_3
    2  A    between atoms: C_1  and  C_21
    3  A    between atoms: N_3  and  C_31
    4  A    between atoms: C_5  and  C_10
    5  A    between atoms: C_5  and  C_20
    6  A    between atoms: C_14  and  C_20
    7  A    between atoms: C_17  and  C_20
    8  A    between atoms: C_18  and  N_28
    9  A    between atoms: N_19  and  N_28
   10  A    between atoms: C_22  and  C_23
   11  A    between atoms: C_22  and  C_29
   12  A    between atoms: C_24  and  N_28
   13  A    between atoms: C_25  and  C_26
   14  A    between atoms: C_26  and  C_29
   15  A    between atoms: C_27  and  C_31
                            x       y       z     vdW  Elec       q    Type
                         _______ _______ _______ _____ _____    ______ ____

>  <TORSDO>
F 15

$$$$
=
 OpenBabel11042420303D

 31 31  0  0  1  0  0  0  0  0999 V2000
  161.3970  206.9310  152.1250 N   0  0  0  0  0  0  0  0  0  0  0  0
  161.0440  204.3080  149.3760 C   0  0  0  0  0  2  0  0  0  0  0  0
  161.4130  203.1580  151.5650 C   0  0  0  0  0  2  0  0  0  0  0  0
  160.8320  205.6390  150.0920 C   0  0  0  0  0  2  0  0  0  0  0  0
  161.5920  205.6560  151.4200 C   0  0  2  0  0  3  0  0  0  0  0  0
  160.6030  203.1510  150.2720 C   0  0  2  0  0  3  0  0  0  0  0  0
  161.1970  204.4740  152.3090 C   0  0  0  0  0  2  0  0  0  0  0  0
  160.8000  201.8280  149.5590 C   0  0  0  0  0  2  0  0  0  0  0  0
  160.0990  201.8420  148.2870 N   0  0  0  0  0  2  0  0  0  0  0  0
  160.9600  201.1740  147.3290 C   0  0  0  0  0  2  0  0  0  0  0  0
  160.1590  201.1380  145.0880 O   0  0  0  0  0  0  0  0  0  0  0  0
  161.2560  203.0880  145.7140 N   0  0  0  0  0  1  0  0  0  0  0  0
  160.7730  201.7770  145.9820 C   0  0  0  0  0  0  0  0  0  0  0  0
  160.8350  207.9300  154.2100 C   0  0  0  0  0  3  0  0  0  0  0  0
  161.4930  207.0480  153.5260 N   0  0  0  0  0  0  0  0  0  0  0  0
  159.9880  207.1110  156.3200 N   0  0  0  0  0  1  0  0  0  0  0  0
  160.9640  207.9920  155.6950 C   0  0  2  0  0  3  0  0  0  0  0  0
  160.8150  209.4350  156.1950 C   0  0  1  0  0  3  0  0  0  0  0  0
  163.1840  210.6290  156.5660 C   0  0  0  0  0  3  0  0  0  0  0  0
  162.1150  210.0950  156.3960 C   0  0  0  0  0  0  0  0  0  0  0  0
  158.6500  210.3240  155.7150 O   0  0  0  0  0  1  0  0  0  0  0  0
  159.9610  210.2610  155.2450 C   0  0  0  0  0  2  0  0  0  0  0  0
  162.1130  208.9840  151.0530 C   0  0  0  0  0  3  0  0  0  0  0  0
  161.1460  208.1300  151.3840 C   0  0  0  0  0  3  0  0  0  0  0  0
  161.4470  211.2380  150.9140 O   0  0  0  0  0  0  0  0  0  0  0  0
  161.8440  210.2150  150.2980 C   0  0  0  0  0  0  0  0  0  0  0  0
  162.0540  210.2900  148.8210 C   0  0  0  0  0  2  0  0  0  0  0  0
  162.6450  211.6400  148.4480 C   0  0  0  0  0  2  0  0  0  0  0  0
  160.6970  212.0750  147.0240 C   0  0  0  0  0  2  0  0  0  0  0  0
  161.4020  213.8950  148.4830 C   0  0  0  0  0  1  0  0  0  0  0  0
  161.5860  212.5370  147.9000 C   0  0  0  0  0  0  0  0  0  0  0  0
  1 15  1  0  0  0  0
  2  4  1  0  0  0  0
  2  6  1  0  0  0  0
  3  7  1  0  0  0  0
  4  5  1  0  0  0  0
  5  1  1  1  0  0  0
  5  7  1  0  0  0  0
  6  8  1  6  0  0  0
  6  3  1  0  0  0  0
  9  8  1  0  0  0  0
 10  9  1  0  0  0  0
 11 13  2  0  0  0  0
 12 13  1  0  0  0  0
 13 10  1  0  0  0  0
 14 17  1  0  0  0  0
 15 14  2  0  0  0  0
 17 18  1  0  0  0  0
 17 16  1  1  0  0  0
 18 22  1  6  0  0  0
 18 20  1  0  0  0  0
 20 19  3  0  0  0  0
 22 21  1  0  0  0  0
 23 24  2  0  0  0  0
 24  1  1  0  0  0  0
 26 25  2  0  0  0  0
 26 23  1  0  0  0  0
 27 26  1  0  0  0  0
 28 27  1  0  0  0  0
 29 31  2  0  0  0  0
 31 28  1  0  0  0  0
 31 30  1  0  0  0  0
M  END
>  <MODEL>
2

>  <REMARK>
 VINA RESULT:      -6.6      3.125      9.335
  Name = 
  15 active torsions:
  status: ('A' for Active; 'I' for Inactive)
    1  A    between atoms: C_1  and  N_3
    2  A    between atoms: C_1  and  C_21
    3  A    between atoms: N_3  and  C_31
    4  A    between atoms: C_5  and  C_10
    5  A    between atoms: C_5  and  C_20
    6  A    between atoms: C_14  and  C_20
    7  A    between atoms: C_17  and  C_20
    8  A    between atoms: C_18  and  N_28
    9  A    between atoms: N_19  and  N_28
   10  A    between atoms: C_22  and  C_23
   11  A    between atoms: C_22  and  C_29
   12  A    between atoms: C_24  and  N_28
   13  A    between atoms: C_25  and  C_26
   14  A    between atoms: C_26  and  C_29
   15  A    between atoms: C_27  and  C_31
                            x       y       z     vdW  Elec       q    Type
                         _______ _______ _______ _____ _____    ______ ____

>  <TORSDO>
F 15

$$$$
=
 OpenBabel11042420303D

 31 31  0  0  1  0  0  0  0  0999 V2000
  161.9390  208.5680  149.4170 N   0  0  0  0  0  0  0  0  0  0  0  0
  160.4720  208.6160  152.9400 C   0  0  0  0  0  2  0  0  0  0  0  0
  161.5550  206.4000  152.5310 C   0  0  0  0  0  2  0  0  0  0  0  0
  161.0940  209.1740  151.6620 C   0  0  0  0  0  2  0  0  0  0  0  0
  161.3380  208.0490  150.6540 C   0  0  2  0  0  3  0  0  0  0  0  0
  161.3720  207.5340  153.5350 C   0  0  2  0  0  3  0  0  0  0  0  0
  162.1970  206.9330  151.2530 C   0  0  0  0  0  2  0  0  0  0  0  0
  160.7640  206.9870  154.8120 C   0  0  0  0  0  2  0  0  0  0  0  0
  161.3000  207.6980  155.9590 N   0  0  0  0  0  2  0  0  0  0  0  0
  160.1810  208.3770  156.5870 C   0  0  0  0  0  2  0  0  0  0  0  0
  161.4550  210.3320  156.1210 O   0  0  0  0  0  0  0  0  0  0  0  0
  159.2080  210.7040  156.5790 N   0  0  0  0  0  1  0  0  0  0  0  0
  160.3340  209.8480  156.4250 C   0  0  0  0  0  0  0  0  0  0  0  0
  161.3130  206.9500  147.7880 C   0  0  0  0  0  3  0  0  0  0  0  0
  162.1940  207.7550  148.2950 N   0  0  0  0  0  0  0  0  0  0  0  0
  160.5370  206.1790  145.6330 N   0  0  0  0  0  1  0  0  0  0  0  0
  161.6370  206.1280  146.5860 C   0  0  2  0  0  3  0  0  0  0  0  0
  161.9630  204.6830  146.9860 C   0  0  1  0  0  3  0  0  0  0  0  0
  160.8730  204.0140  149.3390 C   0  0  0  0  0  3  0  0  0  0  0  0
  161.3670  204.3120  148.2800 C   0  0  0  0  0  0  0  0  0  0  0  0
  161.1770  202.4810  146.4950 O   0  0  0  0  0  1  0  0  0  0  0  0
  161.5160  203.7020  145.9130 C   0  0  0  0  0  2  0  0  0  0  0  0
  161.6730  210.7470  148.3880 C   0  0  0  0  0  3  0  0  0  0  0  0
  162.2470  209.9610  149.2980 C   0  0  0  0  0  3  0  0  0  0  0  0
  161.3870  213.0050  148.9880 O   0  0  0  0  0  0  0  0  0  0  0  0
  162.0000  212.1740  148.2690 C   0  0  0  0  0  0  0  0  0  0  0  0
  163.0590  212.6600  147.3350 C   0  0  0  0  0  2  0  0  0  0  0  0
  162.5280  213.8160  146.5040 C   0  0  0  0  0  2  0  0  0  0  0  0
  163.2020  213.2460  144.2170 C   0  0  0  0  0  2  0  0  0  0  0  0
  160.8660  212.8520  144.7890 C   0  0  0  0  0  1  0  0  0  0  0  0
  162.2270  213.3640  145.1150 C   0  0  0  0  0  0  0  0  0  0  0  0
  2  6  1  0  0  0  0
  3  6  1  0  0  0  0
  4  2  1  0  0  0  0
  5  1  1  6  0  0  0
  5  7  1  0  0  0  0
  5  4  1  0  0  0  0
  6  8  1  1  0  0  0
  7  3  1  0  0  0  0
  8  9  1  0  0  0  0
  9 10  1  0  0  0  0
 11 13  2  0  0  0  0
 13 12  1  0  0  0  0
 13 10  1  0  0  0  0
 14 15  2  0  0  0  0
 15  1  1  0  0  0  0
 17 16  1  6  0  0  0
 17 18  1  0  0  0  0
 17 14  1  0  0  0  0
 18 22  1  6  0  0  0
 18 20  1  0  0  0  0
 20 19  3  0  0  0  0
 22 21  1  0  0  0  0
 23 24  2  0  0  0  0
 24  1  1  0  0  0  0
 26 23  1  0  0  0  0
 26 25  2  0  0  0  0
 27 26  1  0  0  0  0
 28 27  1  0  0  0  0
 29 31  2  0  0  0  0
 30 31  1  0  0  0  0
 31 28  1  0  0  0  0
M  END
>  <MODEL>
3

>  <REMARK>
 VINA RESULT:      -6.6      3.484      6.250
  Name = 
  15 active torsions:
  status: ('A' for Active; 'I' for Inactive)
    1  A    between atoms: C_1  and  N_3
    2  A    between atoms: C_1  and  C_21
    3  A    between atoms: N_3  and  C_31
    4  A    between atoms: C_5  and  C_10
    5  A    between atoms: C_5  and  C_20
    6  A    between atoms: C_14  and  C_20
    7  A    between atoms: C_17  and  C_20
    8  A    between atoms: C_18  and  N_28
    9  A    between atoms: N_19  and  N_28
   10  A    between atoms: C_22  and  C_23
   11  A    between atoms: C_22  and  C_29
   12  A    between atoms: C_24  and  N_28
   13  A    between atoms: C_25  and  C_26
   14  A    between atoms: C_26  and  C_29
   15  A    between atoms: C_27  and  C_31
                            x       y       z     vdW  Elec       q    Type
                         _______ _______ _______ _____ _____    ______ ____

>  <TORSDO>
F 15

$$$$
=
 OpenBabel11042420303D

 31 31  0  0  1  0  0  0  0  0999 V2000
  162.0400  208.8560  150.1830 N   0  0  0  0  0  0  0  0  0  0  0  0
  161.3770  205.4220  148.6560 C   0  0  0  0  0  2  0  0  0  0  0  0
  161.3030  205.2410  151.1480 C   0  0  0  0  0  2  0  0  0  0  0  0
  161.3910  206.9460  148.7510 C   0  0  0  0  0  2  0  0  0  0  0  0
  162.0200  207.3910  150.0740 C   0  0  2  0  0  3  0  0  0  0  0  0
  160.6250  204.8270  149.8460 C   0  0  2  0  0  3  0  0  0  0  0  0
  161.3080  206.7630  151.2740 C   0  0  0  0  0  2  0  0  0  0  0  0
  160.5970  203.3150  149.7480 C   0  0  0  0  0  2  0  0  0  0  0  0
  161.1950  202.8890  148.4950 N   0  0  0  0  0  2  0  0  0  0  0  0
  161.1140  201.4400  148.4660 C   0  0  0  0  0  2  0  0  0  0  0  0
  161.5290  199.8070  146.7850 O   0  0  0  0  0  0  0  0  0  0  0  0
  160.6390  201.8110  146.0170 N   0  0  0  0  0  1  0  0  0  0  0  0
  161.1220  200.9670  147.0550 C   0  0  0  0  0  0  0  0  0  0  0  0
  162.1260  210.9900  149.1330 C   0  0  0  0  0  3  0  0  0  0  0  0
  161.9800  209.7050  149.0590 N   0  0  0  0  0  0  0  0  0  0  0  0
  163.2390  212.7020  147.8400 N   0  0  0  0  0  1  0  0  0  0  0  0
  162.0720  211.8330  147.9040 C   0  0  2  0  0  3  0  0  0  0  0  0
  160.7690  212.6430  147.8560 C   0  0  1  0  0  3  0  0  0  0  0  0
  160.4250  214.1580  150.0370 C   0  0  0  0  0  3  0  0  0  0  0  0
  160.5840  213.4760  149.0550 C   0  0  0  0  0  0  0  0  0  0  0  0
  160.6160  212.7110  145.4730 O   0  0  0  0  0  1  0  0  0  0  0  0
  160.7090  213.5130  146.6100 C   0  0  0  0  0  2  0  0  0  0  0  0
  160.9690  209.8810  152.1020 C   0  0  0  0  0  3  0  0  0  0  0  0
  162.0720  209.4800  151.4720 C   0  0  0  0  0  3  0  0  0  0  0  0
  160.6660  211.7310  153.5260 O   0  0  0  0  0  0  0  0  0  0  0  0
  161.0130  210.5260  153.4210 C   0  0  0  0  0  0  0  0  0  0  0  0
  161.4340  209.7790  154.6440 C   0  0  0  0  0  2  0  0  0  0  0  0
  160.2130  209.2440  155.3720 C   0  0  0  0  0  2  0  0  0  0  0  0
  160.1720  207.3620  156.9430 C   0  0  0  0  0  2  0  0  0  0  0  0
  160.6430  206.8210  154.6140 C   0  0  0  0  0  1  0  0  0  0  0  0
  160.3980  207.8020  155.7080 C   0  0  0  0  0  0  0  0  0  0  0  0
  1 24  1  0  0  0  0
  2  4  1  0  0  0  0
  2  6  1  0  0  0  0
  3  7  1  0  0  0  0
  4  5  1  0  0  0  0
  5  1  1  1  0  0  0
  5  7  1  0  0  0  0
  6  8  1  6  0  0  0
  6  3  1  0  0  0  0
  9  8  1  0  0  0  0
 10  9  1  0  0  0  0
 11 13  2  0  0  0  0
 12 13  1  0  0  0  0
 13 10  1  0  0  0  0
 15 14  2  0  0  0  0
 15  1  1  0  0  0  0
 17 16  1  1  0  0  0
 17 14  1  0  0  0  0
 18 22  1  6  0  0  0
 18 17  1  0  0  0  0
 18 20  1  0  0  0  0
 20 19  3  0  0  0  0
 21 22  1  0  0  0  0
 23 26  1  0  0  0  0
 24 23  2  0  0  0  0
 26 25  2  0  0  0  0
 26 27  1  0  0  0  0
 27 28  1  0  0  0  0
 28 31  1  0  0  0  0
 30 31  1  0  0  0  0
 31 29  2  0  0  0  0
M  END
>  <MODEL>
4

>  <REMARK>
 VINA RESULT:      -6.6      3.477      8.659
  Name = 
  15 active torsions:
  status: ('A' for Active; 'I' for Inactive)
    1  A    between atoms: C_1  and  N_3
    2  A    between atoms: C_1  and  C_21
    3  A    between atoms: N_3  and  C_31
    4  A    between atoms: C_5  and  C_10
    5  A    between atoms: C_5  and  C_20
    6  A    between atoms: C_14  and  C_20
    7  A    between atoms: C_17  and  C_20
    8  A    between atoms: C_18  and  N_28
    9  A    between atoms: N_19  and  N_28
   10  A    between atoms: C_22  and  C_23
   11  A    between atoms: C_22  and  C_29
   12  A    between atoms: C_24  and  N_28
   13  A    between atoms: C_25  and  C_26
   14  A    between atoms: C_26  and  C_29
   15  A    between atoms: C_27  and  C_31
                            x       y       z     vdW  Elec       q    Type
                         _______ _______ _______ _____ _____    ______ ____

>  <TORSDO>
F 15

$$$$
=
 OpenBabel11042420303D

 31 31  0  0  1  0  0  0  0  0999 V2000
  161.9950  209.0280  149.2570 N   0  0  0  0  0  0  0  0  0  0  0  0
  161.2490  207.3960  152.6250 C   0  0  0  0  0  2  0  0  0  0  0  0
  161.8280  209.8010  152.9880 C   0  0  0  0  0  2  0  0  0  0  0  0
  161.1620  207.6270  151.1190 C   0  0  0  0  0  2  0  0  0  0  0  0
  162.0680  208.7890  150.7050 C   0  0  2  0  0  3  0  0  0  0  0  0
  160.8780  208.6740  153.3770 C   0  0  2  0  0  3  0  0  0  0  0  0
  161.7400  210.0640  151.4860 C   0  0  0  0  0  2  0  0  0  0  0  0
  160.9500  208.4440  154.8730 C   0  0  0  0  0  2  0  0  0  0  0  0
  161.5410  209.6000  155.5240 N   0  0  0  0  0  2  0  0  0  0  0  0
  160.5750  210.0660  156.5020 C   0  0  0  0  0  2  0  0  0  0  0  0
  158.4360  210.8080  155.7690 O   0  0  0  0  0  0  0  0  0  0  0  0
  160.1750  212.3070  155.4160 N   0  0  0  0  0  1  0  0  0  0  0  0
  159.6650  211.0600  155.8710 C   0  0  0  0  0  0  0  0  0  0  0  0
  161.4060  211.0360  148.1240 C   0  0  0  0  0  3  0  0  0  0  0  0
  162.2980  210.2750  148.6740 N   0  0  0  0  0  0  0  0  0  0  0  0
  163.1020  212.7550  148.0220 N   0  0  0  0  0  1  0  0  0  0  0  0
  161.7860  212.3550  147.5410 C   0  0  2  0  0  3  0  0  0  0  0  0
  160.7270  213.4190  147.8620 C   0  0  1  0  0  3  0  0  0  0  0  0
  158.3370  212.8300  146.8070 C   0  0  0  0  0  3  0  0  0  0  0  0
  159.4150  213.0960  147.2780 C   0  0  0  0  0  0  0  0  0  0  0  0
  159.4360  214.3560  149.6400 O   0  0  0  0  0  1  0  0  0  0  0  0
  160.5880  213.6190  149.3630 C   0  0  0  0  0  2  0  0  0  0  0  0
  162.4970  206.9730  148.0720 C   0  0  0  0  0  3  0  0  0  0  0  0
  161.6510  207.9580  148.3690 C   0  0  0  0  0  3  0  0  0  0  0  0
  162.2100  206.0780  145.9130 O   0  0  0  0  0  0  0  0  0  0  0  0
  162.1370  205.8840  147.1550 C   0  0  0  0  0  0  0  0  0  0  0  0
  161.7110  204.5440  147.6590 C   0  0  0  0  0  2  0  0  0  0  0  0
  160.9010  204.7030  148.9350 C   0  0  0  0  0  2  0  0  0  0  0  0
  160.8030  202.2560  149.0560 C   0  0  0  0  0  2  0  0  0  0  0  0
  161.1270  203.4340  151.1640 C   0  0  0  0  0  1  0  0  0  0  0  0
  160.8740  203.4200  149.6970 C   0  0  0  0  0  0  0  0  0  0  0  0
  2  6  1  0  0  0  0
  3  6  1  0  0  0  0
  4  2  1  0  0  0  0
  5  1  1  6  0  0  0
  5  4  1  0  0  0  0
  5  7  1  0  0  0  0
  6  8  1  1  0  0  0
  7  3  1  0  0  0  0
  8  9  1  0  0  0  0
  9 10  1  0  0  0  0
 11 13  2  0  0  0  0
 12 13  1  0  0  0  0
 13 10  1  0  0  0  0
 14 15  2  0  0  0  0
 15  1  1  0  0  0  0
 17 18  1  0  0  0  0
 17 16  1  1  0  0  0
 17 14  1  0  0  0  0
 18 20  1  1  0  0  0
 18 22  1  0  0  0  0
 19 20  3  0  0  0  0
 22 21  1  0  0  0  0
 23 24  2  0  0  0  0
 24  1  1  0  0  0  0
 25 26  2  0  0  0  0
 26 27  1  0  0  0  0
 26 23  1  0  0  0  0
 27 28  1  0  0  0  0
 28 31  1  0  0  0  0
 29 31  2  0  0  0  0
 31 30  1  0  0  0  0
M  END
>  <MODEL>
5

>  <REMARK>
 VINA RESULT:      -6.6      3.141      4.802
  Name = 
  15 active torsions:
  status: ('A' for Active; 'I' for Inactive)
    1  A    between atoms: C_1  and  N_3
    2  A    between atoms: C_1  and  C_21
    3  A    between atoms: N_3  and  C_31
    4  A    between atoms: C_5  and  C_10
    5  A    between atoms: C_5  and  C_20
    6  A    between atoms: C_14  and  C_20
    7  A    between atoms: C_17  and  C_20
    8  A    between atoms: C_18  and  N_28
    9  A    between atoms: N_19  and  N_28
   10  A    between atoms: C_22  and  C_23
   11  A    between atoms: C_22  and  C_29
   12  A    between atoms: C_24  and  N_28
   13  A    between atoms: C_25  and  C_26
   14  A    between atoms: C_26  and  C_29
   15  A    between atoms: C_27  and  C_31
                            x       y       z     vdW  Elec       q    Type
                         _______ _______ _______ _____ _____    ______ ____

>  <TORSDO>
F 15

$$$$
=
 OpenBabel11042420303D

 31 31  0  0  1  0  0  0  0  0999 V2000
  161.8820  208.4220  149.3310 N   0  0  0  0  0  0  0  0  0  0  0  0
  160.4930  208.6780  152.8760 C   0  0  0  0  0  2  0  0  0  0  0  0
  161.3960  206.3760  152.5130 C   0  0  0  0  0  2  0  0  0  0  0  0
  161.1300  209.1520  151.5720 C   0  0  0  0  0  2  0  0  0  0  0  0
  161.2670  207.9840  150.5930 C   0  0  2  0  0  3  0  0  0  0  0  0
  161.3190  207.5470  153.4870 C   0  0  2  0  0  3  0  0  0  0  0  0
  162.0510  206.8230  151.2080 C   0  0  0  0  0  2  0  0  0  0  0  0
  160.6970  207.0840  154.7890 C   0  0  0  0  0  2  0  0  0  0  0  0
  161.2870  207.8040  155.9030 N   0  0  0  0  0  2  0  0  0  0  0  0
  160.2020  208.5020  156.5690 C   0  0  0  0  0  2  0  0  0  0  0  0
  159.6210  210.7620  157.0400 O   0  0  0  0  0  0  0  0  0  0  0  0
  161.6020  210.4770  155.8610 N   0  0  0  0  0  1  0  0  0  0  0  0
  160.4380  209.9700  156.5020 C   0  0  0  0  0  0  0  0  0  0  0  0
  161.5570  210.5920  148.4110 C   0  0  0  0  0  3  0  0  0  0  0  0
  162.2710  209.7560  149.0970 N   0  0  0  0  0  0  0  0  0  0  0  0
  161.4150  212.8660  149.2180 N   0  0  0  0  0  1  0  0  0  0  0  0
  162.0140  211.9980  148.2130 C   0  0  2  0  0  3  0  0  0  0  0  0
  161.6910  212.4810  146.7930 C   0  0  1  0  0  3  0  0  0  0  0  0
  159.0560  212.6600  146.3460 C   0  0  0  0  0  3  0  0  0  0  0  0
  160.2420  212.5780  146.5510 C   0  0  0  0  0  0  0  0  0  0  0  0
  162.6370  213.9280  145.1430 O   0  0  0  0  0  1  0  0  0  0  0  0
  162.3520  213.8200  146.5040 C   0  0  0  0  0  2  0  0  0  0  0  0
  161.2770  206.5380  147.9300 C   0  0  0  0  0  3  0  0  0  0  0  0
  162.1550  207.4700  148.2970 C   0  0  0  0  0  3  0  0  0  0  0  0
  161.5870  205.9440  145.6730 O   0  0  0  0  0  0  0  0  0  0  0  0
  161.5690  205.5620  146.8720 C   0  0  0  0  0  0  0  0  0  0  0  0
  161.8700  204.1330  147.1860 C   0  0  0  0  0  2  0  0  0  0  0  0
  161.2410  203.7490  148.5150 C   0  0  0  0  0  2  0  0  0  0  0  0
  160.8700  201.6010  147.3920 C   0  0  0  0  0  2  0  0  0  0  0  0
  160.7720  201.5830  149.8270 C   0  0  0  0  0  1  0  0  0  0  0  0
  160.8950  202.2970  148.5260 C   0  0  0  0  0  0  0  0  0  0  0  0
  2  6  1  0  0  0  0
  3  6  1  0  0  0  0
  4  2  1  0  0  0  0
  5  1  1  6  0  0  0
  5  7  1  0  0  0  0
  5  4  1  0  0  0  0
  6  8  1  1  0  0  0
  7  3  1  0  0  0  0
  8  9  1  0  0  0  0
  9 10  1  0  0  0  0
 12 13  1  0  0  0  0
 13 10  1  0  0  0  0
 13 11  2  0  0  0  0
 14 15  2  0  0  0  0
 15  1  1  0  0  0  0
 17 14  1  0  0  0  0
 17 16  1  1  0  0  0
 18 22  1  1  0  0  0
 18 17  1  0  0  0  0
 19 20  3  0  0  0  0
 20 18  1  0  0  0  0
 21 22  1  0  0  0  0
 23 24  2  0  0  0  0
 24  1  1  0  0  0  0
 25 26  2  0  0  0  0
 26 27  1  0  0  0  0
 26 23  1  0  0  0  0
 27 28  1  0  0  0  0
 28 31  1  0  0  0  0
 29 31  2  0  0  0  0
 31 30  1  0  0  0  0
M  END
>  <MODEL>
6

>  <REMARK>
 VINA RESULT:      -6.6      3.215      4.476
  Name = 
  15 active torsions:
  status: ('A' for Active; 'I' for Inactive)
    1  A    between atoms: C_1  and  N_3
    2  A    between atoms: C_1  and  C_21
    3  A    between atoms: N_3  and  C_31
    4  A    between atoms: C_5  and  C_10
    5  A    between atoms: C_5  and  C_20
    6  A    between atoms: C_14  and  C_20
    7  A    between atoms: C_17  and  C_20
    8  A    between atoms: C_18  and  N_28
    9  A    between atoms: N_19  and  N_28
   10  A    between atoms: C_22  and  C_23
   11  A    between atoms: C_22  and  C_29
   12  A    between atoms: C_24  and  N_28
   13  A    between atoms: C_25  and  C_26
   14  A    between atoms: C_26  and  C_29
   15  A    between atoms: C_27  and  C_31
                            x       y       z     vdW  Elec       q    Type
                         _______ _______ _______ _____ _____    ______ ____

>  <TORSDO>
F 15

$$$$
=
 OpenBabel11042420303D

 31 31  0  0  1  0  0  0  0  0999 V2000
  161.8650  209.4550  150.3330 N   0  0  0  0  0  0  0  0  0  0  0  0
  161.6780  206.1700  148.4000 C   0  0  0  0  0  2  0  0  0  0  0  0
  161.2730  205.7200  150.8250 C   0  0  0  0  0  2  0  0  0  0  0  0
  161.5660  207.6730  148.6430 C   0  0  0  0  0  2  0  0  0  0  0  0
  161.9700  208.0110  150.0800 C   0  0  2  0  0  3  0  0  0  0  0  0
  160.8150  205.4070  149.4050 C   0  0  2  0  0  3  0  0  0  0  0  0
  161.1470  207.2170  151.0980 C   0  0  0  0  0  2  0  0  0  0  0  0
  160.9140  203.9150  149.1570 C   0  0  0  0  0  2  0  0  0  0  0  0
  161.5840  203.6660  147.8930 N   0  0  0  0  0  2  0  0  0  0  0  0
  161.0760  202.4000  147.3950 C   0  0  0  0  0  2  0  0  0  0  0  0
  161.3470  203.4680  145.2860 O   0  0  0  0  0  0  0  0  0  0  0  0
  160.2490  201.4210  145.2230 N   0  0  0  0  0  1  0  0  0  0  0  0
  160.8970  202.4790  145.9200 C   0  0  0  0  0  0  0  0  0  0  0  0
  162.0510  210.0110  152.6390 C   0  0  0  0  0  3  0  0  0  0  0  0
  161.3650  209.9820  151.5410 N   0  0  0  0  0  0  0  0  0  0  0  0
  162.4880  210.6680  154.9240 N   0  0  0  0  0  1  0  0  0  0  0  0
  161.4730  210.6000  153.8820 C   0  0  2  0  0  3  0  0  0  0  0  0
  160.2490  209.7990  154.3450 C   0  0  1  0  0  3  0  0  0  0  0  0
  160.8370  207.2330  154.8370 C   0  0  0  0  0  3  0  0  0  0  0  0
  160.5710  208.3880  154.6110 C   0  0  0  0  0  0  0  0  0  0  0  0
  158.9630  211.6070  155.2340 O   0  0  0  0  0  1  0  0  0  0  0  0
  159.6180  210.4250  155.5800 C   0  0  0  0  0  2  0  0  0  0  0  0
  161.7030  211.5450  149.1150 C   0  0  0  0  0  3  0  0  0  0  0  0
  162.3250  210.3920  149.3520 C   0  0  0  0  0  3  0  0  0  0  0  0
  163.4180  212.6380  147.9290 O   0  0  0  0  0  0  0  0  0  0  0  0
  162.1800  212.4970  148.1030 C   0  0  0  0  0  0  0  0  0  0  0  0
  161.2310  213.2820  147.2580 C   0  0  0  0  0  2  0  0  0  0  0  0
  159.8220  212.7330  147.4120 C   0  0  0  0  0  2  0  0  0  0  0  0
  159.8700  212.2190  145.0150 C   0  0  0  0  0  2  0  0  0  0  0  0
  157.6840  212.7070  145.9760 C   0  0  0  0  0  1  0  0  0  0  0  0
  159.1660  212.6020  146.0780 C   0  0  0  0  0  0  0  0  0  0  0  0
  1 15  1  0  0  0  0
  2  4  1  0  0  0  0
  2  6  1  0  0  0  0
  3  7  1  0  0  0  0
  4  5  1  0  0  0  0
  5  1  1  1  0  0  0
  5  7  1  0  0  0  0
  6  8  1  6  0  0  0
  6  3  1  0  0  0  0
  9  8  1  0  0  0  0
 10  9  1  0  0  0  0
 11 13  2  0  0  0  0
 12 13  1  0  0  0  0
 13 10  1  0  0  0  0
 14 17  1  0  0  0  0
 15 14  2  0  0  0  0
 17 18  1  0  0  0  0
 17 16  1  1  0  0  0
 18 20  1  1  0  0  0
 18 22  1  0  0  0  0
 20 19  3  0  0  0  0
 21 22  1  0  0  0  0
 23 24  2  0  0  0  0
 24  1  1  0  0  0  0
 25 26  2  0  0  0  0
 26 23  1  0  0  0  0
 27 28  1  0  0  0  0
 27 26  1  0  0  0  0
 29 31  2  0  0  0  0
 30 31  1  0  0  0  0
 31 28  1  0  0  0  0
M  END
>  <MODEL>
7

>  <REMARK>
 VINA RESULT:      -6.4      3.842      9.319
  Name = 
  15 active torsions:
  status: ('A' for Active; 'I' for Inactive)
    1  A    between atoms: C_1  and  N_3
    2  A    between atoms: C_1  and  C_21
    3  A    between atoms: N_3  and  C_31
    4  A    between atoms: C_5  and  C_10
    5  A    between atoms: C_5  and  C_20
    6  A    between atoms: C_14  and  C_20
    7  A    between atoms: C_17  and  C_20
    8  A    between atoms: C_18  and  N_28
    9  A    between atoms: N_19  and  N_28
   10  A    between atoms: C_22  and  C_23
   11  A    between atoms: C_22  and  C_29
   12  A    between atoms: C_24  and  N_28
   13  A    between atoms: C_25  and  C_26
   14  A    between atoms: C_26  and  C_29
   15  A    between atoms: C_27  and  C_31
                            x       y       z     vdW  Elec       q    Type
                         _______ _______ _______ _____ _____    ______ ____

>  <TORSDO>
F 15

$$$$
=
 OpenBabel11042420303D

 31 31  0  0  1  0  0  0  0  0999 V2000
  161.9570  208.7160  149.5030 N   0  0  0  0  0  0  0  0  0  0  0  0
  161.9710  206.5710  152.6600 C   0  0  0  0  0  2  0  0  0  0  0  0
  160.9160  208.7790  153.1710 C   0  0  0  0  0  2  0  0  0  0  0  0
  161.9390  206.8830  151.1660 C   0  0  0  0  0  2  0  0  0  0  0  0
  161.9900  208.3960  150.9380 C   0  0  2  0  0  3  0  0  0  0  0  0
  160.8120  207.2710  153.3700 C   0  0  2  0  0  3  0  0  0  0  0  0
  160.8640  209.1160  151.6830 C   0  0  0  0  0  2  0  0  0  0  0  0
  160.8330  206.9510  154.8510 C   0  0  0  0  0  2  0  0  0  0  0  0
  160.2370  208.0430  155.6010 N   0  0  0  0  0  2  0  0  0  0  0  0
  161.0730  208.2500  156.7700 C   0  0  0  0  0  2  0  0  0  0  0  0
  160.9020  210.5920  156.3840 O   0  0  0  0  0  0  0  0  0  0  0  0
  162.9620  209.8700  157.1810 N   0  0  0  0  0  1  0  0  0  0  0  0
  161.6270  209.6310  156.7510 C   0  0  0  0  0  0  0  0  0  0  0  0
  162.2400  207.0160  147.8620 C   0  0  0  0  0  3  0  0  0  0  0  0
  161.4720  207.8150  148.5340 N   0  0  0  0  0  0  0  0  0  0  0  0
  160.2270  206.2790  146.7440 N   0  0  0  0  0  1  0  0  0  0  0  0
  161.6640  206.0710  146.8620 C   0  0  2  0  0  3  0  0  0  0  0  0
  161.9890  204.6190  147.2350 C   0  0  1  0  0  3  0  0  0  0  0  0
  160.8290  203.8760  149.5320 C   0  0  0  0  0  3  0  0  0  0  0  0
  161.3550  204.2100  148.4990 C   0  0  0  0  0  0  0  0  0  0  0  0
  162.1640  204.0580  144.9180 O   0  0  0  0  0  1  0  0  0  0  0  0
  161.5840  203.6620  146.1240 C   0  0  0  0  0  2  0  0  0  0  0  0
  161.5850  210.8200  148.3590 C   0  0  0  0  0  3  0  0  0  0  0  0
  162.3830  210.0040  149.0440 C   0  0  0  0  0  3  0  0  0  0  0  0
  163.1520  212.5750  148.2620 O   0  0  0  0  0  0  0  0  0  0  0  0
  162.0330  212.1370  147.8860 C   0  0  0  0  0  0  0  0  0  0  0  0
  161.2050  212.9570  146.9520 C   0  0  0  0  0  2  0  0  0  0  0  0
  159.9130  212.2270  146.6260 C   0  0  0  0  0  2  0  0  0  0  0  0
  158.9070  214.3850  147.2120 C   0  0  0  0  0  2  0  0  0  0  0  0
  157.3630  212.5790  146.6710 C   0  0  0  0  0  1  0  0  0  0  0  0
  158.7370  213.0990  146.9130 C   0  0  0  0  0  0  0  0  0  0  0  0
  2  6  1  0  0  0  0
  3  6  1  0  0  0  0
  4  2  1  0  0  0  0
  5  1  1  6  0  0  0
  5  4  1  0  0  0  0
  5  7  1  0  0  0  0
  6  8  1  1  0  0  0
  7  3  1  0  0  0  0
  8  9  1  0  0  0  0
  9 10  1  0  0  0  0
 11 13  2  0  0  0  0
 13 10  1  0  0  0  0
 13 12  1  0  0  0  0
 14 15  2  0  0  0  0
 15  1  1  0  0  0  0
 17 16  1  1  0  0  0
 17 18  1  0  0  0  0
 17 14  1  0  0  0  0
 18 22  1  6  0  0  0
 18 20  1  0  0  0  0
 20 19  3  0  0  0  0
 21 22  1  0  0  0  0
 23 24  2  0  0  0  0
 24  1  1  0  0  0  0
 26 25  2  0  0  0  0
 26 23  1  0  0  0  0
 27 26  1  0  0  0  0
 28 31  1  0  0  0  0
 28 27  1  0  0  0  0
 30 31  1  0  0  0  0
 31 29  2  0  0  0  0
M  END
>  <MODEL>
8

>  <REMARK>
 VINA RESULT:      -6.4      3.599      6.343
  Name = 
  15 active torsions:
  status: ('A' for Active; 'I' for Inactive)
    1  A    between atoms: C_1  and  N_3
    2  A    between atoms: C_1  and  C_21
    3  A    between atoms: N_3  and  C_31
    4  A    between atoms: C_5  and  C_10
    5  A    between atoms: C_5  and  C_20
    6  A    between atoms: C_14  and  C_20
    7  A    between atoms: C_17  and  C_20
    8  A    between atoms: C_18  and  N_28
    9  A    between atoms: N_19  and  N_28
   10  A    between atoms: C_22  and  C_23
   11  A    between atoms: C_22  and  C_29
   12  A    between atoms: C_24  and  N_28
   13  A    between atoms: C_25  and  C_26
   14  A    between atoms: C_26  and  C_29
   15  A    between atoms: C_27  and  C_31
                            x       y       z     vdW  Elec       q    Type
                         _______ _______ _______ _____ _____    ______ ____

>  <TORSDO>
F 15

$$$$
=
 OpenBabel11042420303D

 31 31  0  0  1  0  0  0  0  0999 V2000
  161.2510  206.4920  152.2440 N   0  0  0  0  0  0  0  0  0  0  0  0
  160.5760  207.6500  155.8170 C   0  0  0  0  0  2  0  0  0  0  0  0
  161.1660  209.6300  154.4090 C   0  0  0  0  0  2  0  0  0  0  0  0
  160.4560  206.7780  154.5690 C   0  0  0  0  0  2  0  0  0  0  0  0
  161.3550  207.3180  153.4550 C   0  0  2  0  0  3  0  0  0  0  0  0
  160.2220  209.0990  155.4830 C   0  0  2  0  0  3  0  0  0  0  0  0
  161.0460  208.7840  153.1430 C   0  0  0  0  0  2  0  0  0  0  0  0
  160.3270  209.9650  156.7230 C   0  0  0  0  0  2  0  0  0  0  0  0
  159.9050  211.3200  156.4170 N   0  0  0  0  0  2  0  0  0  0  0  0
  158.5730  211.4780  156.9740 C   0  0  0  0  0  2  0  0  0  0  0  0
  156.4120  211.4220  155.9800 O   0  0  0  0  0  0  0  0  0  0  0  0
  158.0340  212.5440  154.7530 N   0  0  0  0  0  1  0  0  0  0  0  0
  157.6100  211.7930  155.8850 C   0  0  0  0  0  0  0  0  0  0  0  0
  160.9500  204.3570  151.2350 C   0  0  0  0  0  3  0  0  0  0  0  0
  161.1460  205.0870  152.2870 N   0  0  0  0  0  0  0  0  0  0  0  0
  162.1340  202.3330  151.8180 N   0  0  0  0  0  1  0  0  0  0  0  0
  160.8670  202.8720  151.3430 C   0  0  2  0  0  3  0  0  0  0  0  0
  160.4640  202.2500  150.0000 C   0  0  1  0  0  3  0  0  0  0  0  0
  161.5820  203.5090  147.9180 C   0  0  0  0  0  3  0  0  0  0  0  0
  161.0750  202.9440  148.8550 C   0  0  0  0  0  0  0  0  0  0  0  0
  161.2480  200.4240  148.6720 O   0  0  0  0  0  1  0  0  0  0  0  0
  160.8150  200.7710  149.9520 C   0  0  0  0  0  2  0  0  0  0  0  0
  162.2980  207.4790  150.2930 C   0  0  0  0  0  3  0  0  0  0  0  0
  161.2020  207.1110  150.9530 C   0  0  0  0  0  3  0  0  0  0  0  0
  162.1190  209.3700  148.9020 O   0  0  0  0  0  0  0  0  0  0  0  0
  162.2370  208.1190  148.9720 C   0  0  0  0  0  0  0  0  0  0  0  0
  162.3370  207.3240  147.7110 C   0  0  0  0  0  2  0  0  0  0  0  0
  160.9480  206.9510  147.2210 C   0  0  0  0  0  2  0  0  0  0  0  0
  159.9430  205.8770  145.2590 C   0  0  0  0  0  2  0  0  0  0  0  0
  162.3760  205.8260  145.3970 C   0  0  0  0  0  1  0  0  0  0  0  0
  161.0380  206.1500  145.9660 C   0  0  0  0  0  0  0  0  0  0  0  0
  1 15  1  0  0  0  0
  3  6  1  0  0  0  0
  4  2  1  0  0  0  0
  5  1  1  6  0  0  0
  5  4  1  0  0  0  0
  6  2  1  0  0  0  0
  6  8  1  1  0  0  0
  7  5  1  0  0  0  0
  7  3  1  0  0  0  0
  9  8  1  0  0  0  0
  9 10  1  0  0  0  0
 12 13  1  0  0  0  0
 13 11  2  0  0  0  0
 13 10  1  0  0  0  0
 14 17  1  0  0  0  0
 14 15  2  0  0  0  0
 17 16  1  6  0  0  0
 18 20  1  6  0  0  0
 18 17  1  0  0  0  0
 19 20  3  0  0  0  0
 21 22  1  0  0  0  0
 22 18  1  0  0  0  0
 23 24  2  0  0  0  0
 24  1  1  0  0  0  0
 25 26  2  0  0  0  0
 26 23  1  0  0  0  0
 27 26  1  0  0  0  0
 28 27  1  0  0  0  0
 29 31  2  0  0  0  0
 30 31  1  0  0  0  0
 31 28  1  0  0  0  0
M  END
>  <MODEL>
9

>  <REMARK>
 VINA RESULT:      -6.3      1.974      4.202
  Name = 
  15 active torsions:
  status: ('A' for Active; 'I' for Inactive)
    1  A    between atoms: C_1  and  N_3
    2  A    between atoms: C_1  and  C_21
    3  A    between atoms: N_3  and  C_31
    4  A    between atoms: C_5  and  C_10
    5  A    between atoms: C_5  and  C_20
    6  A    between atoms: C_14  and  C_20
    7  A    between atoms: C_17  and  C_20
    8  A    between atoms: C_18  and  N_28
    9  A    between atoms: N_19  and  N_28
   10  A    between atoms: C_22  and  C_23
   11  A    between atoms: C_22  and  C_29
   12  A    between atoms: C_24  and  N_28
   13  A    between atoms: C_25  and  C_26
   14  A    between atoms: C_26  and  C_29
   15  A    between atoms: C_27  and  C_31
                            x       y       z     vdW  Elec       q    Type
                         _______ _______ _______ _____ _____    ______ ____

>  <TORSDO>
F 15

$$$$
