=
 OpenBabel11052409493D

 26 29  0  0  1  0  0  0  0  0999 V2000
  162.6800  203.5870  146.3090 C   0  0  0  0  0  2  0  0  0  0  0  0
  160.0320  201.7130  149.7560 N   0  0  0  0  0  0  0  0  0  0  0  0
  161.9250  205.7710  145.4240 C   0  0  2  0  0  3  0  0  0  0  0  0
  162.0620  203.8970  147.6810 C   0  0  1  0  0  3  0  0  0  0  0  0
  161.0770  206.0900  146.6550 C   0  0  2  0  0  3  0  0  0  0  0  0
  160.8360  202.7660  149.5010 C   0  0  0  0  0  0  0  0  0  0  0  0
  160.4740  201.5700  146.1390 C   0  0  0  0  0  1  0  0  0  0  0  0
  161.4290  206.4400  144.3050 O   0  0  0  0  0  1  0  0  0  0  0  0
  161.4900  205.2830  147.8630 C   0  0  0  0  0  0  0  0  0  0  0  0
  161.2620  205.7810  149.0950 C   0  0  0  0  0  0  0  0  0  0  0  0
  160.4860  201.8730  147.5980 C   0  0  0  0  0  0  0  0  0  0  0  0
  161.4930  205.0000  150.3460 C   0  0  0  0  0  3  0  0  0  0  0  0
  161.1500  202.8810  148.2000 N   0  0  0  0  0  0  0  0  0  0  0  0
  161.9450  204.2740  145.1670 C   0  0  0  0  0  2  0  0  0  0  0  0
  159.7220  205.8750  146.3910 O   0  0  0  0  0  1  0  0  0  0  0  0
  159.8020  201.1480  148.5500 C   0  0  0  0  0  3  0  0  0  0  0  0
  161.3220  203.6850  150.5470 C   0  0  0  0  0  0  0  0  0  0  0  0
  161.5240  203.1750  151.8610 N   0  0  0  0  0  1  0  0  0  0  0  0
  160.8440  207.1210  149.1900 O   0  0  0  0  0  0  0  0  0  0  0  0
  162.3480  209.9990  151.0250 C   0  0  0  0  0  3  0  0  0  0  0  0
  161.1790  208.0300  150.2050 C   0  0  0  0  0  0  0  0  0  0  0  0
  162.1610  210.6060  153.3220 F   0  0  0  0  0  0  0  0  0  0  0  0
  161.0160  208.6660  152.5430 C   0  0  0  0  0  3  0  0  0  0  0  0
  161.8430  209.7670  152.3080 C   0  0  0  0  0  0  0  0  0  0  0  0
  162.0200  209.1330  149.9790 C   0  0  0  0  0  3  0  0  0  0  0  0
  160.6890  207.8010  151.4950 C   0  0  0  0  0  3  0  0  0  0  0  0
  3  8  1  6  0  0  0
  3  5  1  0  0  0  0
  4  1  1  6  0  0  0
  4  9  1  0  0  0  0
  4 13  1  0  0  0  0
  5 15  1  6  0  0  0
  5  9  1  0  0  0  0
  6  2  2  0  0  0  0
  6 17  1  0  0  0  0
  7 11  1  0  0  0  0
  9 10  2  0  0  0  0
 10 19  1  0  0  0  0
 10 12  1  0  0  0  0
 11 13  1  0  0  0  0
 11 16  2  0  0  0  0
 12 17  2  0  0  0  0
 13  6  1  0  0  0  0
 14  3  1  0  0  0  0
 14  1  1  0  0  0  0
 16  2  1  0  0  0  0
 17 18  1  0  0  0  0
 19 21  1  0  0  0  0
 20 24  1  0  0  0  0
 21 26  2  0  0  0  0
 24 23  2  0  0  0  0
 24 22  1  0  0  0  0
 25 21  1  0  0  0  0
 25 20  2  0  0  0  0
 26 23  1  0  0  0  0
M  END
>  <MODEL>
1

>  <REMARK>
 VINA RESULT:      -7.6      0.000      0.000
  Name = 
  2 active torsions:
  status: ('A' for Active; 'I' for Inactive)
    1  A    between atoms: O_1  and  C_5
    2  A    between atoms: O_1  and  C_15
                            x       y       z     vdW  Elec       q    Type
                         _______ _______ _______ _____ _____    ______ ____

>  <TORSDO>
F 2

$$$$
=
 OpenBabel11052409493D

 26 29  0  0  1  0  0  0  0  0999 V2000
  162.2340  210.3350  155.4760 C   0  0  0  0  0  2  0  0  0  0  0  0
  160.0230  212.0910  151.6760 N   0  0  0  0  0  0  0  0  0  0  0  0
  161.4880  208.1010  156.2310 C   0  0  2  0  0  3  0  0  0  0  0  0
  161.8480  210.0060  154.0260 C   0  0  1  0  0  3  0  0  0  0  0  0
  160.8540  207.7470  154.8860 C   0  0  2  0  0  3  0  0  0  0  0  0
  160.8420  211.0840  152.0450 C   0  0  0  0  0  0  0  0  0  0  0  0
  159.9100  212.2180  155.3190 C   0  0  0  0  0  1  0  0  0  0  0  0
  160.8710  207.3910  157.2600 O   0  0  0  0  0  1  0  0  0  0  0  0
  161.3930  208.5920  153.7560 C   0  0  0  0  0  0  0  0  0  0  0  0
  161.3830  208.0950  152.5020 C   0  0  0  0  0  0  0  0  0  0  0  0
  160.1590  211.9330  153.8780 C   0  0  0  0  0  0  0  0  0  0  0  0
  161.7500  208.9030  151.3020 C   0  0  0  0  0  3  0  0  0  0  0  0
  160.9640  210.9730  153.3780 N   0  0  0  0  0  0  0  0  0  0  0  0
  161.3800  209.5930  156.4920 C   0  0  0  0  0  2  0  0  0  0  0  0
  159.4640  207.8790  154.9450 O   0  0  0  0  0  1  0  0  0  0  0  0
  159.5820  212.6280  152.8350 C   0  0  0  0  0  3  0  0  0  0  0  0
  161.5330  210.2090  151.0810 C   0  0  0  0  0  0  0  0  0  0  0  0
  161.8970  210.7450  149.8140 N   0  0  0  0  0  1  0  0  0  0  0  0
  161.0640  206.7340  152.3410 O   0  0  0  0  0  0  0  0  0  0  0  0
  161.0310  205.8780  148.7110 C   0  0  0  0  0  3  0  0  0  0  0  0
  161.0770  206.0110  151.1390 C   0  0  0  0  0  0  0  0  0  0  0  0
  161.0400  203.7440  147.6490 F   0  0  0  0  0  0  0  0  0  0  0  0
  161.0740  203.8500  150.0300 C   0  0  0  0  0  3  0  0  0  0  0  0
  161.0500  204.4820  148.7850 C   0  0  0  0  0  0  0  0  0  0  0  0
  161.0420  206.6390  149.8830 C   0  0  0  0  0  3  0  0  0  0  0  0
  161.0850  204.6130  151.2020 C   0  0  0  0  0  3  0  0  0  0  0  0
  1 14  1  0  0  0  0
  2  6  2  0  0  0  0
  2 16  1  0  0  0  0
  3 14  1  0  0  0  0
  3  8  1  1  0  0  0
  4  1  1  1  0  0  0
  5 15  1  1  0  0  0
  5  3  1  0  0  0  0
  6 13  1  0  0  0  0
  9  4  1  0  0  0  0
  9  5  1  0  0  0  0
 10  9  2  0  0  0  0
 11  7  1  0  0  0  0
 12 10  1  0  0  0  0
 13 11  1  0  0  0  0
 13  4  1  0  0  0  0
 16 11  2  0  0  0  0
 17 12  2  0  0  0  0
 17  6  1  0  0  0  0
 18 17  1  0  0  0  0
 19 10  1  0  0  0  0
 20 24  2  0  0  0  0
 20 25  1  0  0  0  0
 21 26  1  0  0  0  0
 21 19  1  0  0  0  0
 22 24  1  0  0  0  0
 23 26  2  0  0  0  0
 24 23  1  0  0  0  0
 25 21  2  0  0  0  0
M  END
>  <MODEL>
2

>  <REMARK>
 VINA RESULT:      -7.4      4.407      8.689
  Name = 
  2 active torsions:
  status: ('A' for Active; 'I' for Inactive)
    1  A    between atoms: O_1  and  C_5
    2  A    between atoms: O_1  and  C_15
                            x       y       z     vdW  Elec       q    Type
                         _______ _______ _______ _____ _____    ______ ____

>  <TORSDO>
F 2

$$$$
=
 OpenBabel11052409493D

 26 29  0  0  1  0  0  0  0  0999 V2000
  159.1320  211.0840  153.1370 C   0  0  0  0  0  2  0  0  0  0  0  0
  160.7050  209.3730  157.2610 N   0  0  0  0  0  0  0  0  0  0  0  0
  160.6820  210.8920  151.2190 C   0  0  2  0  0  3  0  0  0  0  0  0
  159.7380  209.8320  153.7890 C   0  0  1  0  0  3  0  0  0  0  0  0
  161.5140  209.7880  151.8720 C   0  0  2  0  0  3  0  0  0  0  0  0
  160.3570  208.9740  156.0200 C   0  0  0  0  0  0  0  0  0  0  0  0
  160.4560  212.5080  155.4140 C   0  0  0  0  0  1  0  0  0  0  0  0
  161.4540  211.6020  150.2980 O   0  0  0  0  0  1  0  0  0  0  0  0
  160.7650  209.0810  152.9760 C   0  0  0  0  0  0  0  0  0  0  0  0
  161.0850  207.8050  153.2730 C   0  0  0  0  0  0  0  0  0  0  0  0
  160.4690  211.0990  155.8990 C   0  0  0  0  0  0  0  0  0  0  0  0
  160.5120  207.0720  154.4410 C   0  0  0  0  0  3  0  0  0  0  0  0
  160.1840  210.0000  155.1700 N   0  0  0  0  0  0  0  0  0  0  0  0
  160.1330  211.8370  152.2730 C   0  0  0  0  0  2  0  0  0  0  0  0
  162.7100  210.3050  152.3770 O   0  0  0  0  0  1  0  0  0  0  0  0
  160.7840  210.7200  157.1860 C   0  0  0  0  0  3  0  0  0  0  0  0
  160.1780  207.5590  155.6460 C   0  0  0  0  0  0  0  0  0  0  0  0
  159.7280  206.6430  156.6380 N   0  0  0  0  0  1  0  0  0  0  0  0
  161.9570  207.1300  152.4000 O   0  0  0  0  0  0  0  0  0  0  0  0
  160.8840  205.2930  149.3360 C   0  0  0  0  0  3  0  0  0  0  0  0
  161.6160  206.0990  151.5120 C   0  0  0  0  0  0  0  0  0  0  0  0
  160.5470  202.9580  149.0000 F   0  0  0  0  0  0  0  0  0  0  0  0
  161.2530  203.7270  151.1430 C   0  0  0  0  0  3  0  0  0  0  0  0
  160.8930  203.9810  149.8170 C   0  0  0  0  0  0  0  0  0  0  0  0
  161.2410  206.3480  150.1800 C   0  0  0  0  0  3  0  0  0  0  0  0
  161.6100  204.7830  151.9860 C   0  0  0  0  0  3  0  0  0  0  0  0
  3  8  1  6  0  0  0
  3  5  1  0  0  0  0
  3 14  1  0  0  0  0
  4  1  1  6  0  0  0
  4 13  1  0  0  0  0
  5 15  1  1  0  0  0
  5  9  1  0  0  0  0
  6  2  2  0  0  0  0
  7 11  1  0  0  0  0
  9 10  2  0  0  0  0
  9  4  1  0  0  0  0
 10 12  1  0  0  0  0
 11 16  2  0  0  0  0
 12 17  2  0  0  0  0
 13 11  1  0  0  0  0
 13  6  1  0  0  0  0
 14  1  1  0  0  0  0
 16  2  1  0  0  0  0
 17  6  1  0  0  0  0
 17 18  1  0  0  0  0
 19 10  1  0  0  0  0
 20 24  2  0  0  0  0
 20 25  1  0  0  0  0
 21 26  1  0  0  0  0
 21 19  1  0  0  0  0
 22 24  1  0  0  0  0
 23 26  2  0  0  0  0
 24 23  1  0  0  0  0
 25 21  2  0  0  0  0
M  END
>  <MODEL>
3

>  <REMARK>
 VINA RESULT:      -7.3      4.463      8.162
  Name = 
  2 active torsions:
  status: ('A' for Active; 'I' for Inactive)
    1  A    between atoms: O_1  and  C_5
    2  A    between atoms: O_1  and  C_15
                            x       y       z     vdW  Elec       q    Type
                         _______ _______ _______ _____ _____    ______ ____

>  <TORSDO>
F 2

$$$$
=
 OpenBabel11052409493D

 26 29  0  0  1  0  0  0  0  0999 V2000
  161.0110  211.3330  156.3660 C   0  0  0  0  0  2  0  0  0  0  0  0
  157.8940  212.2780  152.9310 N   0  0  0  0  0  0  0  0  0  0  0  0
  161.8180  208.9980  156.4890 C   0  0  2  0  0  3  0  0  0  0  0  0
  160.7860  211.2060  154.8520 C   0  0  1  0  0  3  0  0  0  0  0  0
  161.4190  208.6770  155.0480 C   0  0  2  0  0  3  0  0  0  0  0  0
  159.1800  211.9100  153.1140 C   0  0  0  0  0  0  0  0  0  0  0  0
  158.0200  211.4130  156.4720 C   0  0  0  0  0  1  0  0  0  0  0  0
  161.8350  207.8340  157.2580 O   0  0  0  0  0  1  0  0  0  0  0  0
  161.2510  209.9210  154.2090 C   0  0  0  0  0  0  0  0  0  0  0  0
  161.4410  209.8440  152.8760 C   0  0  0  0  0  0  0  0  0  0  0  0
  158.2730  211.6990  155.0320 C   0  0  0  0  0  0  0  0  0  0  0  0
  161.1520  210.9740  151.9440 C   0  0  0  0  0  3  0  0  0  0  0  0
  159.4510  211.5720  154.3850 N   0  0  0  0  0  0  0  0  0  0  0  0
  160.8580  210.0060  157.0940 C   0  0  0  0  0  2  0  0  0  0  0  0
  160.2380  207.9310  155.0180 O   0  0  0  0  0  1  0  0  0  0  0  0
  157.3140  212.1380  154.1430 C   0  0  0  0  0  3  0  0  0  0  0  0
  160.1790  211.8940  152.0290 C   0  0  0  0  0  0  0  0  0  0  0  0
  160.0460  212.8310  150.9670 N   0  0  0  0  0  1  0  0  0  0  0  0
  161.9910  208.6550  152.3620 O   0  0  0  0  0  0  0  0  0  0  0  0
  161.6030  207.9980  148.7110 C   0  0  0  0  0  3  0  0  0  0  0  0
  161.6640  208.0440  151.1430 C   0  0  0  0  0  0  0  0  0  0  0  0
  160.5690  206.1630  147.5950 F   0  0  0  0  0  0  0  0  0  0  0  0
  160.6070  206.1930  149.9790 C   0  0  0  0  0  3  0  0  0  0  0  0
  160.9240  206.7770  148.7490 C   0  0  0  0  0  0  0  0  0  0  0  0
  161.9690  208.6300  149.9020 C   0  0  0  0  0  3  0  0  0  0  0  0
  160.9750  206.8270  151.1690 C   0  0  0  0  0  3  0  0  0  0  0  0
  1 14  1  0  0  0  0
  2  6  2  0  0  0  0
  2 16  1  0  0  0  0
  3 14  1  0  0  0  0
  3  8  1  1  0  0  0
  4  1  1  1  0  0  0
  5 15  1  1  0  0  0
  5  3  1  0  0  0  0
  6 13  1  0  0  0  0
  9  4  1  0  0  0  0
  9  5  1  0  0  0  0
 10  9  2  0  0  0  0
 11  7  1  0  0  0  0
 12 17  2  0  0  0  0
 12 10  1  0  0  0  0
 13  4  1  0  0  0  0
 13 11  1  0  0  0  0
 16 11  2  0  0  0  0
 17  6  1  0  0  0  0
 18 17  1  0  0  0  0
 19 10  1  0  0  0  0
 20 24  2  0  0  0  0
 20 25  1  0  0  0  0
 21 26  1  0  0  0  0
 21 19  1  0  0  0  0
 22 24  1  0  0  0  0
 23 26  2  0  0  0  0
 24 23  1  0  0  0  0
 25 21  2  0  0  0  0
M  END
>  <MODEL>
4

>  <REMARK>
 VINA RESULT:      -6.8      5.129      9.172
  Name = 
  2 active torsions:
  status: ('A' for Active; 'I' for Inactive)
    1  A    between atoms: O_1  and  C_5
    2  A    between atoms: O_1  and  C_15
                            x       y       z     vdW  Elec       q    Type
                         _______ _______ _______ _____ _____    ______ ____

>  <TORSDO>
F 2

$$$$
=
 OpenBabel11052409493D

 26 29  0  0  1  0  0  0  0  0999 V2000
  163.0540  205.3330  146.8300 C   0  0  0  0  0  2  0  0  0  0  0  0
  160.3820  201.5290  145.9340 N   0  0  0  0  0  0  0  0  0  0  0  0
  161.9950  207.1080  148.1880 C   0  0  2  0  0  3  0  0  0  0  0  0
  162.1900  204.2590  147.5090 C   0  0  1  0  0  3  0  0  0  0  0  0
  160.9280  206.1750  148.7600 C   0  0  2  0  0  3  0  0  0  0  0  0
  160.9760  202.1810  146.9560 C   0  0  0  0  0  0  0  0  0  0  0  0
  161.3700  204.7030  144.4350 C   0  0  0  0  0  1  0  0  0  0  0  0
  161.5390  208.4270  148.1900 O   0  0  0  0  0  1  0  0  0  0  0  0
  161.3190  204.7210  148.6520 C   0  0  0  0  0  0  0  0  0  0  0  0
  160.8140  203.8380  149.5380 C   0  0  0  0  0  0  0  0  0  0  0  0
  161.1050  203.5210  145.3020 C   0  0  0  0  0  0  0  0  0  0  0  0
  161.0170  202.3630  149.4250 C   0  0  0  0  0  3  0  0  0  0  0  0
  161.4460  203.3890  146.6010 N   0  0  0  0  0  0  0  0  0  0  0  0
  162.3670  206.6890  146.7770 C   0  0  0  0  0  2  0  0  0  0  0  0
  159.7020  206.3770  148.1200 O   0  0  0  0  0  1  0  0  0  0  0  0
  160.4560  202.3780  144.8860 C   0  0  0  0  0  3  0  0  0  0  0  0
  161.1000  201.6180  148.3130 C   0  0  0  0  0  0  0  0  0  0  0  0
  161.2080  200.2060  148.4570 N   0  0  0  0  0  1  0  0  0  0  0  0
  160.1140  204.3510  150.6450 O   0  0  0  0  0  0  0  0  0  0  0  0
  161.6610  205.7600  153.7330 C   0  0  0  0  0  3  0  0  0  0  0  0
  160.6070  205.2530  151.5990 C   0  0  0  0  0  0  0  0  0  0  0  0
  161.9570  208.0320  154.3870 F   0  0  0  0  0  0  0  0  0  0  0  0
  160.9110  207.5590  152.2980 C   0  0  0  0  0  3  0  0  0  0  0  0
  161.5160  207.1270  153.4810 C   0  0  0  0  0  0  0  0  0  0  0  0
  161.2060  204.8270  152.7970 C   0  0  0  0  0  3  0  0  0  0  0  0
  160.4570  206.6240  151.3640 C   0  0  0  0  0  3  0  0  0  0  0  0
  2  6  2  0  0  0  0
  3  8  1  6  0  0  0
  3  5  1  0  0  0  0
  4  1  1  6  0  0  0
  4  9  1  0  0  0  0
  5 15  1  6  0  0  0
  6 17  1  0  0  0  0
  7 11  1  0  0  0  0
  9  5  1  0  0  0  0
  9 10  2  0  0  0  0
 10 19  1  0  0  0  0
 11 13  1  0  0  0  0
 12 10  1  0  0  0  0
 13  6  1  0  0  0  0
 13  4  1  0  0  0  0
 14  1  1  0  0  0  0
 14  3  1  0  0  0  0
 16 11  2  0  0  0  0
 16  2  1  0  0  0  0
 17 18  1  0  0  0  0
 17 12  2  0  0  0  0
 19 21  1  0  0  0  0
 21 25  1  0  0  0  0
 23 24  2  0  0  0  0
 24 20  1  0  0  0  0
 24 22  1  0  0  0  0
 25 20  2  0  0  0  0
 26 21  2  0  0  0  0
 26 23  1  0  0  0  0
M  END
>  <MODEL>
5

>  <REMARK>
 VINA RESULT:      -6.6      2.019      3.072
  Name = 
  2 active torsions:
  status: ('A' for Active; 'I' for Inactive)
    1  A    between atoms: O_1  and  C_5
    2  A    between atoms: O_1  and  C_15
                            x       y       z     vdW  Elec       q    Type
                         _______ _______ _______ _____ _____    ______ ____

>  <TORSDO>
F 2

$$$$
=
 OpenBabel11052409493D

 26 29  0  0  1  0  0  0  0  0999 V2000
  162.7220  205.8280  152.7520 C   0  0  0  0  0  2  0  0  0  0  0  0
  160.8200  209.9770  151.4950 N   0  0  0  0  0  0  0  0  0  0  0  0
  161.5540  203.8060  151.9360 C   0  0  2  0  0  3  0  0  0  0  0  0
  162.2390  206.6330  151.5360 C   0  0  1  0  0  3  0  0  0  0  0  0
  160.8270  204.5540  150.8180 C   0  0  2  0  0  3  0  0  0  0  0  0
  161.4250  208.8930  150.9660 C   0  0  0  0  0  0  0  0  0  0  0  0
  160.8280  207.5950  154.2570 C   0  0  0  0  0  1  0  0  0  0  0  0
  160.8310  202.6740  152.3120 O   0  0  0  0  0  1  0  0  0  0  0  0
  161.4980  205.8610  150.4700 C   0  0  0  0  0  0  0  0  0  0  0  0
  161.3550  206.3620  149.2270 C   0  0  0  0  0  0  0  0  0  0  0  0
  160.9770  208.3420  152.9760 C   0  0  0  0  0  0  0  0  0  0  0  0
  161.8490  207.7140  148.8300 C   0  0  0  0  0  3  0  0  0  0  0  0
  161.5560  207.8860  151.8460 N   0  0  0  0  0  0  0  0  0  0  0  0
  161.7600  204.7140  153.1350 C   0  0  0  0  0  2  0  0  0  0  0  0
  159.4950  204.7920  151.1690 O   0  0  0  0  0  1  0  0  0  0  0  0
  160.5280  209.6290  152.7680 C   0  0  0  0  0  3  0  0  0  0  0  0
  161.8980  208.8310  149.5710 C   0  0  0  0  0  0  0  0  0  0  0  0
  162.3310  210.0340  148.9450 N   0  0  0  0  0  1  0  0  0  0  0  0
  160.7610  205.5370  148.2540 O   0  0  0  0  0  0  0  0  0  0  0  0
  160.4570  206.1720  144.5910 C   0  0  0  0  0  3  0  0  0  0  0  0
  161.0190  205.5520  146.8760 C   0  0  0  0  0  0  0  0  0  0  0  0
  161.8550  205.4530  142.8000 F   0  0  0  0  0  0  0  0  0  0  0  0
  162.4180  204.8250  145.0290 C   0  0  0  0  0  3  0  0  0  0  0  0
  161.5810  205.4840  144.1260 C   0  0  0  0  0  0  0  0  0  0  0  0
  160.1750  206.2030  145.9600 C   0  0  0  0  0  3  0  0  0  0  0  0
  162.1350  204.8570  146.3980 C   0  0  0  0  0  3  0  0  0  0  0  0
  1 14  1  0  0  0  0
  2 16  1  0  0  0  0
  3  8  1  1  0  0  0
  3 14  1  0  0  0  0
  4 13  1  0  0  0  0
  4  1  1  1  0  0  0
  5 15  1  1  0  0  0
  5  3  1  0  0  0  0
  6  2  2  0  0  0  0
  6 13  1  0  0  0  0
  9  5  1  0  0  0  0
  9  4  1  0  0  0  0
 10  9  2  0  0  0  0
 11  7  1  0  0  0  0
 12 10  1  0  0  0  0
 12 17  2  0  0  0  0
 13 11  1  0  0  0  0
 16 11  2  0  0  0  0
 17  6  1  0  0  0  0
 18 17  1  0  0  0  0
 19 10  1  0  0  0  0
 20 25  1  0  0  0  0
 21 19  1  0  0  0  0
 22 24  1  0  0  0  0
 23 26  2  0  0  0  0
 24 20  2  0  0  0  0
 24 23  1  0  0  0  0
 25 21  2  0  0  0  0
 26 21  1  0  0  0  0
M  END
>  <MODEL>
6

>  <REMARK>
 VINA RESULT:      -6.6      3.648      6.955
  Name = 
  2 active torsions:
  status: ('A' for Active; 'I' for Inactive)
    1  A    between atoms: O_1  and  C_5
    2  A    between atoms: O_1  and  C_15
                            x       y       z     vdW  Elec       q    Type
                         _______ _______ _______ _____ _____    ______ ____

>  <TORSDO>
F 2

$$$$
=
 OpenBabel11052409493D

 26 29  0  0  1  0  0  0  0  0999 V2000
  159.7980  204.6990  151.2500 C   0  0  0  0  0  2  0  0  0  0  0  0
  161.5810  203.6950  146.9810 N   0  0  0  0  0  0  0  0  0  0  0  0
  161.2270  206.0760  152.7270 C   0  0  2  0  0  3  0  0  0  0  0  0
  160.4170  205.3460  150.0010 C   0  0  1  0  0  3  0  0  0  0  0  0
  162.0740  206.6150  151.5740 C   0  0  2  0  0  3  0  0  0  0  0  0
  161.1510  204.7370  147.7230 C   0  0  0  0  0  0  0  0  0  0  0  0
  161.2840  202.2690  150.3240 C   0  0  0  0  0  1  0  0  0  0  0  0
  161.9560  206.0960  153.9160 O   0  0  0  0  0  1  0  0  0  0  0  0
  161.3780  206.4850  150.2400 C   0  0  0  0  0  0  0  0  0  0  0  0
  161.6900  207.3470  149.2510 C   0  0  0  0  0  0  0  0  0  0  0  0
  161.2980  203.1110  149.0950 C   0  0  0  0  0  0  0  0  0  0  0  0
  161.1740  207.2090  147.8570 C   0  0  0  0  0  3  0  0  0  0  0  0
  160.9490  204.4120  149.0110 N   0  0  0  0  0  0  0  0  0  0  0  0
  160.7600  204.6620  152.4280 C   0  0  0  0  0  2  0  0  0  0  0  0
  163.3090  205.9610  151.5220 O   0  0  0  0  0  1  0  0  0  0  0  0
  161.6810  202.6640  147.8480 C   0  0  0  0  0  3  0  0  0  0  0  0
  160.9220  206.0840  147.1710 C   0  0  0  0  0  0  0  0  0  0  0  0
  160.5140  206.2030  145.8130 N   0  0  0  0  0  1  0  0  0  0  0  0
  162.4950  208.4530  149.5780 O   0  0  0  0  0  0  0  0  0  0  0  0
  161.1490  211.6570  150.9350 C   0  0  0  0  0  3  0  0  0  0  0  0
  162.0760  209.7880  149.6830 C   0  0  0  0  0  0  0  0  0  0  0  0
  160.7890  213.7430  149.8390 F   0  0  0  0  0  0  0  0  0  0  0  0
  161.6880  211.9220  148.5900 C   0  0  0  0  0  3  0  0  0  0  0  0
  161.2060  212.4550  149.7890 C   0  0  0  0  0  0  0  0  0  0  0  0
  161.5790  210.3280  150.8810 C   0  0  0  0  0  3  0  0  0  0  0  0
  162.1180  210.5930  148.5390 C   0  0  0  0  0  3  0  0  0  0  0  0
  1 14  1  0  0  0  0
  2  6  2  0  0  0  0
  2 16  1  0  0  0  0
  3  8  1  1  0  0  0
  4  9  1  0  0  0  0
  4  1  1  1  0  0  0
  5 15  1  6  0  0  0
  5  3  1  0  0  0  0
  6 13  1  0  0  0  0
  9  5  1  0  0  0  0
 10 19  1  0  0  0  0
 10  9  2  0  0  0  0
 11  7  1  0  0  0  0
 12 10  1  0  0  0  0
 13 11  1  0  0  0  0
 13  4  1  0  0  0  0
 14  3  1  0  0  0  0
 16 11  2  0  0  0  0
 17  6  1  0  0  0  0
 17 12  2  0  0  0  0
 18 17  1  0  0  0  0
 19 21  1  0  0  0  0
 21 25  2  0  0  0  0
 23 24  1  0  0  0  0
 24 22  1  0  0  0  0
 24 20  2  0  0  0  0
 25 20  1  0  0  0  0
 26 23  2  0  0  0  0
 26 21  1  0  0  0  0
M  END
>  <MODEL>
7

>  <REMARK>
 VINA RESULT:      -6.5      2.474      4.587
  Name = 
  2 active torsions:
  status: ('A' for Active; 'I' for Inactive)
    1  A    between atoms: O_1  and  C_5
    2  A    between atoms: O_1  and  C_15
                            x       y       z     vdW  Elec       q    Type
                         _______ _______ _______ _____ _____    ______ ____

>  <TORSDO>
F 2

$$$$
=
 OpenBabel11052409493D

 26 29  0  0  1  0  0  0  0  0999 V2000
  159.7010  204.1320  149.6500 C   0  0  0  0  0  2  0  0  0  0  0  0
  162.6790  206.8070  147.1240 N   0  0  0  0  0  0  0  0  0  0  0  0
  160.4580  203.5140  151.9230 C   0  0  2  0  0  3  0  0  0  0  0  0
  160.5190  205.4320  149.7010 C   0  0  1  0  0  3  0  0  0  0  0  0
  161.4850  204.6440  151.9980 C   0  0  2  0  0  3  0  0  0  0  0  0
  161.9130  206.8470  148.2330 C   0  0  0  0  0  0  0  0  0  0  0  0
  161.7380  203.3180  147.6110 C   0  0  0  0  0  1  0  0  0  0  0  0
  160.8360  202.4590  152.7530 O   0  0  0  0  0  1  0  0  0  0  0  0
  161.1940  205.7510  151.0130 C   0  0  0  0  0  0  0  0  0  0  0  0
  161.6170  207.0020  151.2870 C   0  0  0  0  0  0  0  0  0  0  0  0
  161.9440  204.7930  147.6630 C   0  0  0  0  0  0  0  0  0  0  0  0
  161.5140  208.1300  150.3140 C   0  0  0  0  0  3  0  0  0  0  0  0
  161.4310  205.6410  148.5780 N   0  0  0  0  0  0  0  0  0  0  0  0
  160.3130  203.0230  150.4930 C   0  0  0  0  0  2  0  0  0  0  0  0
  162.7750  204.1540  151.7810 O   0  0  0  0  0  1  0  0  0  0  0  0
  162.7070  205.5050  146.7630 C   0  0  0  0  0  3  0  0  0  0  0  0
  161.6310  208.0880  148.9780 C   0  0  0  0  0  0  0  0  0  0  0  0
  161.5810  209.3160  148.2610 N   0  0  0  0  0  1  0  0  0  0  0  0
  162.1250  207.2520  152.5750 O   0  0  0  0  0  0  0  0  0  0  0  0
  160.1370  207.6190  155.7100 C   0  0  0  0  0  3  0  0  0  0  0  0
  161.4250  207.8100  153.6550 C   0  0  0  0  0  0  0  0  0  0  0  0
  159.3010  209.5870  156.7610 F   0  0  0  0  0  0  0  0  0  0  0  0
  160.5500  209.7980  154.7420 C   0  0  0  0  0  3  0  0  0  0  0  0
  159.9900  209.0080  155.7490 C   0  0  0  0  0  0  0  0  0  0  0  0
  160.8490  207.0220  154.6660 C   0  0  0  0  0  3  0  0  0  0  0  0
  161.2610  209.1990  153.6980 C   0  0  0  0  0  3  0  0  0  0  0  0
  1 14  1  0  0  0  0
  2  6  2  0  0  0  0
  3  5  1  0  0  0  0
  3  8  1  1  0  0  0
  4  1  1  1  0  0  0
  4  9  1  0  0  0  0
  5 15  1  6  0  0  0
  6 13  1  0  0  0  0
  6 17  1  0  0  0  0
  7 11  1  0  0  0  0
  9 10  2  0  0  0  0
  9  5  1  0  0  0  0
 10 19  1  0  0  0  0
 11 13  1  0  0  0  0
 12 10  1  0  0  0  0
 13  4  1  0  0  0  0
 14  3  1  0  0  0  0
 16  2  1  0  0  0  0
 16 11  2  0  0  0  0
 17 12  2  0  0  0  0
 18 17  1  0  0  0  0
 19 21  1  0  0  0  0
 20 24  1  0  0  0  0
 21 26  2  0  0  0  0
 21 25  1  0  0  0  0
 23 24  2  0  0  0  0
 24 22  1  0  0  0  0
 25 20  2  0  0  0  0
 26 23  1  0  0  0  0
M  END
>  <MODEL>
8

>  <REMARK>
 VINA RESULT:      -5.6      2.978      4.887
  Name = 
  2 active torsions:
  status: ('A' for Active; 'I' for Inactive)
    1  A    between atoms: O_1  and  C_5
    2  A    between atoms: O_1  and  C_15
                            x       y       z     vdW  Elec       q    Type
                         _______ _______ _______ _____ _____    ______ ____

>  <TORSDO>
F 2

$$$$
=
 OpenBabel11052409493D

 26 29  0  0  1  0  0  0  0  0999 V2000
  159.7310  204.1520  150.8710 C   0  0  0  0  0  2  0  0  0  0  0  0
  161.8650  203.9680  146.6490 N   0  0  0  0  0  0  0  0  0  0  0  0
  160.9720  205.3190  152.6650 C   0  0  2  0  0  3  0  0  0  0  0  0
  160.3990  205.0280  149.8000 C   0  0  1  0  0  3  0  0  0  0  0  0
  161.8660  206.0830  151.6880 C   0  0  2  0  0  3  0  0  0  0  0  0
  161.3260  204.8480  147.5180 C   0  0  0  0  0  0  0  0  0  0  0  0
  161.4150  201.9830  149.6750 C   0  0  0  0  0  1  0  0  0  0  0  0
  161.6130  205.1680  153.8950 O   0  0  0  0  0  1  0  0  0  0  0  0
  161.2750  206.1510  150.3010 C   0  0  0  0  0  0  0  0  0  0  0  0
  161.6070  207.1810  149.4960 C   0  0  0  0  0  0  0  0  0  0  0  0
  161.4670  203.0210  148.6080 C   0  0  0  0  0  0  0  0  0  0  0  0
  161.1980  207.2610  148.0620 C   0  0  0  0  0  3  0  0  0  0  0  0
  161.0520  204.3000  148.7140 N   0  0  0  0  0  0  0  0  0  0  0  0
  160.6090  203.9580  152.0990 C   0  0  0  0  0  2  0  0  0  0  0  0
  163.1360  205.5030  151.6260 O   0  0  0  0  0  1  0  0  0  0  0  0
  161.9630  202.8100  147.3380 C   0  0  0  0  0  3  0  0  0  0  0  0
  161.0600  206.2590  147.1810 C   0  0  0  0  0  0  0  0  0  0  0  0
  160.7430  206.5890  145.8340 N   0  0  0  0  0  1  0  0  0  0  0  0
  162.3220  208.2510  150.0650 O   0  0  0  0  0  0  0  0  0  0  0  0
  161.2130  211.7380  150.7920 C   0  0  0  0  0  3  0  0  0  0  0  0
  161.7760  209.3720  150.7080 C   0  0  0  0  0  0  0  0  0  0  0  0
  160.2030  212.6360  152.7540 F   0  0  0  0  0  0  0  0  0  0  0  0
  160.7580  210.3190  152.6990 C   0  0  0  0  0  3  0  0  0  0  0  0
  160.7170  211.5750  152.0880 C   0  0  0  0  0  0  0  0  0  0  0  0
  161.7430  210.6410  150.1050 C   0  0  0  0  0  3  0  0  0  0  0  0
  161.2880  209.2240  152.0100 C   0  0  0  0  0  3  0  0  0  0  0  0
  1 14  1  0  0  0  0
  2 16  1  0  0  0  0
  2  6  2  0  0  0  0
  3  8  1  1  0  0  0
  4  9  1  0  0  0  0
  4  1  1  1  0  0  0
  5 15  1  6  0  0  0
  5  3  1  0  0  0  0
  6 13  1  0  0  0  0
  9  5  1  0  0  0  0
 10 19  1  0  0  0  0
 10  9  2  0  0  0  0
 11 13  1  0  0  0  0
 11  7  1  0  0  0  0
 12 10  1  0  0  0  0
 13  4  1  0  0  0  0
 14  3  1  0  0  0  0
 16 11  2  0  0  0  0
 17  6  1  0  0  0  0
 17 12  2  0  0  0  0
 18 17  1  0  0  0  0
 19 21  1  0  0  0  0
 20 24  1  0  0  0  0
 21 26  2  0  0  0  0
 24 23  2  0  0  0  0
 24 22  1  0  0  0  0
 25 21  1  0  0  0  0
 25 20  2  0  0  0  0
 26 23  1  0  0  0  0
M  END
>  <MODEL>
9

>  <REMARK>
 VINA RESULT:      -5.5      2.314      4.265
  Name = 
  2 active torsions:
  status: ('A' for Active; 'I' for Inactive)
    1  A    between atoms: O_1  and  C_5
    2  A    between atoms: O_1  and  C_15
                            x       y       z     vdW  Elec       q    Type
                         _______ _______ _______ _____ _____    ______ ____

>  <TORSDO>
F 2

$$$$
