=
 OpenBabel11042423133D

 29 31  0  0  1  0  0  0  0  0999 V2000
  160.9680  203.8700  150.9230 C   0  0  0  0  0  0  0  0  0  0  0  0
  162.9170  208.3290  148.2670 O   0  0  0  0  0  1  0  0  0  0  0  0
  161.3600  205.4200  148.6950 C   0  0  0  0  0  0  0  0  0  0  0  0
  161.2130  204.0770  148.4940 N   0  0  0  0  0  0  0  0  0  0  0  0
  161.1170  205.2410  151.1200 C   0  0  0  0  0  3  0  0  0  0  0  0
  160.8440  201.9530  149.7110 C   0  0  0  0  0  0  0  0  0  0  0  0
  160.6820  201.6640  151.0660 C   0  0  0  0  0  3  0  0  0  0  0  0
  161.4940  207.3960  149.8700 N   0  0  0  0  0  0  0  0  0  0  0  0
  161.6540  207.7690  148.4620 C   0  0  2  0  0  3  0  0  0  0  0  0
  161.3210  205.9950  149.9520 C   0  0  0  0  0  0  0  0  0  0  0  0
  160.7580  202.8450  151.8190 C   0  0  0  0  0  2  0  0  0  0  0  0
  161.0230  203.3090  149.5980 C   0  0  0  0  0  0  0  0  0  0  0  0
  161.5420  206.4580  147.6420 C   0  0  2  0  0  3  0  0  0  0  0  0
  161.3420  207.7020  152.1800 O   0  0  0  0  0  1  0  0  0  0  0  0
  161.1630  208.3280  150.9430 C   0  0  1  0  0  3  0  0  0  0  0  0
  162.0270  209.5870  150.8590 C   0  0  1  0  0  3  0  0  0  0  0  0
  162.1630  211.2740  149.4270 C   0  0  0  0  0  1  0  0  0  0  0  0
  161.2870  210.6390  150.3100 O   0  0  0  0  0  0  0  0  0  0  0  0
  161.4580  210.6980  152.9510 N   0  0  0  0  0  1  0  0  0  0  0  0
  162.5070  209.9790  152.2500 C   0  0  0  0  0  2  0  0  0  0  0  0
  160.3210  206.5040  146.7710 C   0  0  0  0  0  3  0  0  0  0  0  0
  160.3100  206.1380  145.4830 C   0  0  0  0  0  3  0  0  0  0  0  0
  161.5200  205.6440  144.7540 C   0  0  0  0  0  2  0  0  0  0  0  0
  161.7500  204.1760  145.0550 C   0  0  0  0  0  2  0  0  0  0  0  0
  160.4490  203.4200  144.8960 C   0  0  0  0  0  2  0  0  0  0  0  0
  160.6030  202.0260  145.4690 C   0  0  0  0  0  2  0  0  0  0  0  0
  159.8740  201.1240  144.6960 O   0  0  0  0  0  1  0  0  0  0  0  0
  161.8700  200.2690  148.3310 N   0  0  0  0  0  2  0  0  0  0  0  0
  160.8190  200.9580  148.6340 C   0  0  0  0  0  3  0  0  0  0  0  0
  1  5  1  0  0  0  0
  1 11  1  0  0  0  0
  3 10  1  0  0  0  0
  4  3  2  0  0  0  0
  4 12  1  0  0  0  0
  6  7  2  0  0  0  0
  7 11  1  0  0  0  0
  8 10  1  0  0  0  0
  8 15  1  0  0  0  0
  9  2  1  1  0  0  0
  9  8  1  0  0  0  0
 10  5  2  0  0  0  0
 12  6  1  0  0  0  0
 12  1  2  0  0  0  0
 13 21  1  6  0  0  0
 13  9  1  0  0  0  0
 13  3  1  0  0  0  0
 15 14  1  1  0  0  0
 16 15  1  0  0  0  0
 16 20  1  1  0  0  0
 17 18  1  0  0  0  0
 18 16  1  0  0  0  0
 20 19  1  0  0  0  0
 22 21  2  0  0  0  0
 23 24  1  0  0  0  0
 23 22  1  0  0  0  0
 25 24  1  0  0  0  0
 25 26  1  0  0  0  0
 27 26  1  0  0  0  0
 28 29  2  0  0  0  0
 29  6  1  0  0  0  0
M  END
>  <MODEL>
1

>  <REMARK>
 VINA RESULT:      -7.4      0.000      0.000
  Name = 
  10 active torsions:
  status: ('A' for Active; 'I' for Inactive)
    1  A    between atoms: C_1  and  C_26
    2  A    between atoms: C_8  and  C_27
    3  A    between atoms: C_9  and  C_10
    4  A    between atoms: C_9  and  N_14
    5  A    between atoms: C_10  and  O_25
    6  A    between atoms: C_10  and  C_28
    7  A    between atoms: C_11  and  C_16
    8  A    between atoms: C_21  and  C_24
    9  A    between atoms: C_21  and  C_29
   10  A    between atoms: C_26  and  C_29
                            x       y       z     vdW  Elec       q    Type
                         _______ _______ _______ _____ _____    ______ ____

>  <TORSDO>
F 10

$$$$
=
 OpenBabel11042423133D

 29 31  0  0  1  0  0  0  0  0999 V2000
  161.2010  205.6350  149.5460 C   0  0  0  0  0  0  0  0  0  0  0  0
  163.0510  210.4860  151.4910 O   0  0  0  0  0  1  0  0  0  0  0  0
  161.9890  208.2470  149.2710 C   0  0  0  0  0  0  0  0  0  0  0  0
  162.1570  207.4340  148.1860 N   0  0  0  0  0  0  0  0  0  0  0  0
  161.0310  206.4710  150.6480 C   0  0  0  0  0  3  0  0  0  0  0  0
  161.8120  205.1040  147.4250 C   0  0  0  0  0  0  0  0  0  0  0  0
  161.2860  203.9780  148.0580 C   0  0  0  0  0  3  0  0  0  0  0  0
  161.3890  208.8450  151.4120 N   0  0  0  0  0  0  0  0  0  0  0  0
  161.9140  210.0680  150.8000 C   0  0  2  0  0  3  0  0  0  0  0  0
  161.4530  207.7980  150.4640 C   0  0  0  0  0  0  0  0  0  0  0  0
  160.9070  204.3010  149.3690 C   0  0  0  0  0  2  0  0  0  0  0  0
  161.7700  206.1390  148.3240 C   0  0  0  0  0  0  0  0  0  0  0  0
  162.3040  209.7010  149.3440 C   0  0  2  0  0  3  0  0  0  0  0  0
  161.2120  208.0290  153.5930 O   0  0  0  0  0  1  0  0  0  0  0  0
  160.5740  208.8060  152.6230 C   0  0  1  0  0  3  0  0  0  0  0  0
  160.3250  210.2170  153.1580 C   0  0  1  0  0  3  0  0  0  0  0  0
  159.2270  212.0050  152.4380 C   0  0  0  0  0  1  0  0  0  0  0  0
  159.0560  210.6590  152.7700 O   0  0  0  0  0  0  0  0  0  0  0  0
  161.5420  211.0290  155.1060 N   0  0  0  0  0  1  0  0  0  0  0  0
  160.4170  210.2180  154.6770 C   0  0  0  0  0  2  0  0  0  0  0  0
  161.4320  210.4490  148.3790 C   0  0  0  0  0  3  0  0  0  0  0  0
  161.7310  211.6580  147.8870 C   0  0  0  0  0  3  0  0  0  0  0  0
  162.9730  212.4130  148.2480 C   0  0  0  0  0  2  0  0  0  0  0  0
  162.8850  213.8390  147.7390 C   0  0  0  0  0  2  0  0  0  0  0  0
  161.7850  213.9380  146.7060 C   0  0  0  0  0  2  0  0  0  0  0  0
  162.3790  214.3450  145.3730 C   0  0  0  0  0  2  0  0  0  0  0  0
  163.0400  213.2550  144.8080 O   0  0  0  0  0  1  0  0  0  0  0  0
  161.6420  205.7180  145.1030 N   0  0  0  0  0  2  0  0  0  0  0  0
  162.3070  205.1330  146.0440 C   0  0  0  0  0  3  0  0  0  0  0  0
  1  5  1  0  0  0  0
  3 13  1  0  0  0  0
  3 10  1  0  0  0  0
  4 12  1  0  0  0  0
  4  3  2  0  0  0  0
  6  7  2  0  0  0  0
  6 12  1  0  0  0  0
  7 11  1  0  0  0  0
  8 15  1  0  0  0  0
  9  8  1  0  0  0  0
  9  2  1  1  0  0  0
 10  5  2  0  0  0  0
 10  8  1  0  0  0  0
 11  1  1  0  0  0  0
 12  1  2  0  0  0  0
 13 21  1  6  0  0  0
 13  9  1  0  0  0  0
 15 16  1  0  0  0  0
 15 14  1  1  0  0  0
 16 20  1  1  0  0  0
 17 18  1  0  0  0  0
 18 16  1  0  0  0  0
 20 19  1  0  0  0  0
 22 23  1  0  0  0  0
 22 21  2  0  0  0  0
 24 23  1  0  0  0  0
 25 24  1  0  0  0  0
 26 25  1  0  0  0  0
 27 26  1  0  0  0  0
 28 29  2  0  0  0  0
 29  6  1  0  0  0  0
M  END
>  <MODEL>
2

>  <REMARK>
 VINA RESULT:      -7.1      3.169      5.562
  Name = 
  10 active torsions:
  status: ('A' for Active; 'I' for Inactive)
    1  A    between atoms: C_1  and  C_26
    2  A    between atoms: C_8  and  C_27
    3  A    between atoms: C_9  and  C_10
    4  A    between atoms: C_9  and  N_14
    5  A    between atoms: C_10  and  O_25
    6  A    between atoms: C_10  and  C_28
    7  A    between atoms: C_11  and  C_16
    8  A    between atoms: C_21  and  C_24
    9  A    between atoms: C_21  and  C_29
   10  A    between atoms: C_26  and  C_29
                            x       y       z     vdW  Elec       q    Type
                         _______ _______ _______ _____ _____    ______ ____

>  <TORSDO>
F 10

$$$$
=
 OpenBabel11042423133D

 29 31  0  0  1  0  0  0  0  0999 V2000
  161.0730  206.0000  152.4660 C   0  0  0  0  0  0  0  0  0  0  0  0
  160.0540  206.4480  147.0350 O   0  0  0  0  0  1  0  0  0  0  0  0
  161.1460  207.3090  150.0580 C   0  0  0  0  0  0  0  0  0  0  0  0
  161.1310  208.0850  151.1820 N   0  0  0  0  0  2  0  0  0  0  0  0
  161.0890  205.2150  151.3150 C   0  0  0  0  0  3  0  0  0  0  0  0
  161.0710  207.9360  153.6520 C   0  0  0  0  0  0  0  0  0  0  0  0
  161.0400  206.8500  154.5260 C   0  0  0  0  0  3  0  0  0  0  0  0
  161.1490  205.3790  148.8020 N   0  0  0  0  0  0  0  0  0  0  0  0
  161.2000  206.4750  147.8310 C   0  0  2  0  0  3  0  0  0  0  0  0
  161.1210  205.9270  150.1050 C   0  0  0  0  0  0  0  0  0  0  0  0
  161.0410  205.6510  153.7990 C   0  0  0  0  0  3  0  0  0  0  0  0
  161.0910  207.4360  152.3750 C   0  0  0  0  0  0  0  0  0  0  0  0
  161.2240  207.7910  148.6510 C   0  0  2  0  0  3  0  0  0  0  0  0
  160.4670  203.1530  148.9760 O   0  0  0  0  0  1  0  0  0  0  0  0
  161.4810  203.9890  148.5030 C   0  0  1  0  0  3  0  0  0  0  0  0
  161.6750  203.7860  147.0000 C   0  0  1  0  0  3  0  0  0  0  0  0
  162.9960  204.7570  145.5070 C   0  0  0  0  0  1  0  0  0  0  0  0
  163.0190  203.9720  146.6620 O   0  0  0  0  0  0  0  0  0  0  0  0
  160.5880  202.4020  145.3150 N   0  0  0  0  0  1  0  0  0  0  0  0
  161.2470  202.3780  146.6090 C   0  0  0  0  0  2  0  0  0  0  0  0
  162.5300  208.4990  148.4390 C   0  0  0  0  0  3  0  0  0  0  0  0
  162.6630  209.8320  148.4360 C   0  0  0  0  0  3  0  0  0  0  0  0
  161.5200  210.7770  148.6390 C   0  0  0  0  0  2  0  0  0  0  0  0
  162.0070  212.2110  148.5640 C   0  0  0  0  0  2  0  0  0  0  0  0
  161.5640  212.8260  147.2550 C   0  0  0  0  0  2  0  0  0  0  0  0
  160.1490  212.3830  146.9430 C   0  0  0  0  0  2  0  0  0  0  0  0
  160.0290  212.1440  145.5750 O   0  0  0  0  0  1  0  0  0  0  0  0
  160.0770  210.1210  153.8290 N   0  0  0  0  0  2  0  0  0  0  0  0
  161.0810  209.3440  154.0660 C   0  0  0  0  0  3  0  0  0  0  0  0
  1 11  1  0  0  0  0
  3 10  2  0  0  0  0
  3  4  1  0  0  0  0
  4 12  1  0  0  0  0
  5  1  2  0  0  0  0
  6 29  1  0  0  0  0
  6  7  1  0  0  0  0
  8 10  1  0  0  0  0
  9  2  1  6  0  0  0
  9 13  1  0  0  0  0
  9  8  1  0  0  0  0
 10  5  1  0  0  0  0
 11  7  2  0  0  0  0
 12  1  1  0  0  0  0
 12  6  2  0  0  0  0
 13 21  1  1  0  0  0
 13  3  1  0  0  0  0
 15  8  1  0  0  0  0
 15 14  1  6  0  0  0
 16 20  1  1  0  0  0
 16 15  1  0  0  0  0
 17 18  1  0  0  0  0
 18 16  1  0  0  0  0
 19 20  1  0  0  0  0
 22 21  2  0  0  0  0
 22 23  1  0  0  0  0
 24 23  1  0  0  0  0
 25 24  1  0  0  0  0
 26 25  1  0  0  0  0
 27 26  1  0  0  0  0
 28 29  2  0  0  0  0
M  END
>  <MODEL>
3

>  <REMARK>
 VINA RESULT:      -6.7      2.534      6.812
  Name = 
  10 active torsions:
  status: ('A' for Active; 'I' for Inactive)
    1  A    between atoms: C_1  and  C_26
    2  A    between atoms: C_8  and  C_27
    3  A    between atoms: C_9  and  C_10
    4  A    between atoms: C_9  and  N_14
    5  A    between atoms: C_10  and  O_25
    6  A    between atoms: C_10  and  C_28
    7  A    between atoms: C_11  and  C_16
    8  A    between atoms: C_21  and  C_24
    9  A    between atoms: C_21  and  C_29
   10  A    between atoms: C_26  and  C_29
                            x       y       z     vdW  Elec       q    Type
                         _______ _______ _______ _____ _____    ______ ____

>  <TORSDO>
F 10

$$$$
=
 OpenBabel11042423133D

 29 31  0  0  1  0  0  0  0  0999 V2000
  161.0080  206.7540  153.1710 C   0  0  0  0  0  0  0  0  0  0  0  0
  159.8860  206.0820  147.7840 O   0  0  0  0  0  1  0  0  0  0  0  0
  161.0900  207.5110  150.5370 C   0  0  0  0  0  0  0  0  0  0  0  0
  161.1410  208.5090  151.4670 N   0  0  0  0  0  2  0  0  0  0  0  0
  160.9580  205.7410  152.2160 C   0  0  0  0  0  3  0  0  0  0  0  0
  161.1330  208.8970  153.9120 C   0  0  0  0  0  0  0  0  0  0  0  0
  161.0670  208.0280  155.0000 C   0  0  0  0  0  3  0  0  0  0  0  0
  160.9670  205.3590  149.7260 N   0  0  0  0  0  0  0  0  0  0  0  0
  161.0500  206.2170  148.5410 C   0  0  2  0  0  3  0  0  0  0  0  0
  160.9970  206.1740  150.8810 C   0  0  0  0  0  0  0  0  0  0  0  0
  160.9900  206.7020  154.5480 C   0  0  0  0  0  3  0  0  0  0  0  0
  161.0970  208.1340  152.7720 C   0  0  0  0  0  0  0  0  0  0  0  0
  161.1600  207.6740  149.0580 C   0  0  2  0  0  3  0  0  0  0  0  0
  160.4800  203.3170  150.7480 O   0  0  0  0  0  1  0  0  0  0  0  0
  161.2210  203.9210  149.7300 C   0  0  1  0  0  3  0  0  0  0  0  0
  160.8650  203.3010  148.3780 C   0  0  1  0  0  3  0  0  0  0  0  0
  161.5400  203.3880  146.2670 C   0  0  0  0  0  1  0  0  0  0  0  0
  162.0070  203.2210  147.5730 O   0  0  0  0  0  0  0  0  0  0  0  0
  161.3750  200.9420  148.7130 N   0  0  0  0  0  1  0  0  0  0  0  0
  160.2950  201.9040  148.5840 C   0  0  0  0  0  2  0  0  0  0  0  0
  162.4950  208.2490  148.6830 C   0  0  0  0  0  3  0  0  0  0  0  0
  162.7100  209.5520  148.4650 C   0  0  0  0  0  3  0  0  0  0  0  0
  161.6410  210.5950  148.5650 C   0  0  0  0  0  2  0  0  0  0  0  0
  162.2620  211.9740  148.6700 C   0  0  0  0  0  2  0  0  0  0  0  0
  161.3710  212.9820  147.9770 C   0  0  0  0  0  2  0  0  0  0  0  0
  160.4640  212.2640  146.9980 C   0  0  0  0  0  2  0  0  0  0  0  0
  160.7500  212.6910  145.7020 O   0  0  0  0  0  1  0  0  0  0  0  0
  161.3680  210.9450  155.1540 N   0  0  0  0  0  2  0  0  0  0  0  0
  161.2230  210.3580  154.0130 C   0  0  0  0  0  3  0  0  0  0  0  0
  1 11  1  0  0  0  0
  3 10  2  0  0  0  0
  3  4  1  0  0  0  0
  4 12  1  0  0  0  0
  5  1  2  0  0  0  0
  6 29  1  0  0  0  0
  6  7  1  0  0  0  0
  8 15  1  0  0  0  0
  8 10  1  0  0  0  0
  9  2  1  6  0  0  0
  9 13  1  0  0  0  0
  9  8  1  0  0  0  0
 10  5  1  0  0  0  0
 11  7  2  0  0  0  0
 12  1  1  0  0  0  0
 12  6  2  0  0  0  0
 13 21  1  1  0  0  0
 13  3  1  0  0  0  0
 15 14  1  1  0  0  0
 16 20  1  1  0  0  0
 16 15  1  0  0  0  0
 17 18  1  0  0  0  0
 18 16  1  0  0  0  0
 20 19  1  0  0  0  0
 22 23  1  0  0  0  0
 22 21  2  0  0  0  0
 23 24  1  0  0  0  0
 25 24  1  0  0  0  0
 26 25  1  0  0  0  0
 27 26  1  0  0  0  0
 29 28  2  0  0  0  0
M  END
>  <MODEL>
4

>  <REMARK>
 VINA RESULT:      -6.6      2.445      7.074
  Name = 
  10 active torsions:
  status: ('A' for Active; 'I' for Inactive)
    1  A    between atoms: C_1  and  C_26
    2  A    between atoms: C_8  and  C_27
    3  A    between atoms: C_9  and  C_10
    4  A    between atoms: C_9  and  N_14
    5  A    between atoms: C_10  and  O_25
    6  A    between atoms: C_10  and  C_28
    7  A    between atoms: C_11  and  C_16
    8  A    between atoms: C_21  and  C_24
    9  A    between atoms: C_21  and  C_29
   10  A    between atoms: C_26  and  C_29
                            x       y       z     vdW  Elec       q    Type
                         _______ _______ _______ _____ _____    ______ ____

>  <TORSDO>
F 10

$$$$
=
 OpenBabel11042423133D

 29 31  0  0  1  0  0  0  0  0999 V2000
  161.9060  210.0020  150.9380 C   0  0  0  0  0  0  0  0  0  0  0  0
  159.5220  207.8480  155.4560 O   0  0  0  0  0  1  0  0  0  0  0  0
  161.0870  207.9180  152.5200 C   0  0  0  0  0  0  0  0  0  0  0  0
  161.1680  207.6790  151.1780 N   0  0  0  0  0  0  0  0  0  0  0  0
  161.8230  210.2390  152.3090 C   0  0  0  0  0  3  0  0  0  0  0  0
  161.7470  208.7740  149.0350 C   0  0  0  0  0  0  0  0  0  0  0  0
  162.1810  210.0630  148.7270 C   0  0  0  0  0  3  0  0  0  0  0  0
  161.2290  209.1140  154.4840 N   0  0  0  0  0  0  0  0  0  0  0  0
  160.7880  207.7720  154.8760 C   0  0  2  0  0  3  0  0  0  0  0  0
  161.3940  209.1450  153.0800 C   0  0  0  0  0  0  0  0  0  0  0  0
  162.2810  210.8260  149.9000 C   0  0  0  0  0  3  0  0  0  0  0  0
  161.5700  208.7130  150.3940 C   0  0  2  0  0  3  0  0  0  0  0  0
  160.7080  206.9350  153.5730 C   0  0  2  0  0  3  0  0  0  0  0  0
  162.9330  210.6730  154.8300 O   0  0  0  0  0  1  0  0  0  0  0  0
  161.7900  210.1040  155.3980 C   0  0  1  0  0  3  0  0  0  0  0  0
  160.7640  211.1900  155.7220 C   0  0  1  0  0  3  0  0  0  0  0  0
  159.5760  212.2680  154.1900 C   0  0  0  0  0  1  0  0  0  0  0  0
  159.6490  211.0600  154.8870 O   0  0  0  0  0  0  0  0  0  0  0  0
  158.8740  211.0490  157.2520 N   0  0  0  0  0  1  0  0  0  0  0  0
  160.3240  211.0700  157.1740 C   0  0  0  0  0  2  0  0  0  0  0  0
  161.7230  205.8310  153.6130 C   0  0  0  0  0  3  0  0  0  0  0  0
  161.6340  204.7100  152.8860 C   0  0  0  0  0  3  0  0  0  0  0  0
  160.5040  204.4210  151.9470 C   0  0  0  0  0  2  0  0  0  0  0  0
  160.9380  203.4160  150.8990 C   0  0  0  0  0  2  0  0  0  0  0  0
  160.9310  204.0740  149.5370 C   0  0  0  0  0  2  0  0  0  0  0  0
  161.0810  203.0140  148.4640 C   0  0  0  0  0  2  0  0  0  0  0  0
  161.5590  203.6030  147.2950 O   0  0  0  0  0  1  0  0  0  0  0  0
  162.4680  206.8630  147.7620 N   0  0  0  0  0  2  0  0  0  0  0  0
  161.5330  207.7060  148.0520 C   0  0  0  0  0  3  0  0  0  0  0  0
  1  5  1  0  0  0  0
  3 10  1  0  0  0  0
  3 13  1  0  0  0  0
  4  3  2  0  0  0  0
  5 10  2  0  0  0  0
  7  6  2  0  0  0  0
  7 11  1  0  0  0  0
  8  9  1  0  0  0  0
  8 15  1  0  0  0  0
  9  2  1  6  0  0  0
 10  8  1  0  0  0  0
 11  1  2  0  0  0  0
 12  6  1  1  0  0  0
 12  1  1  0  0  0  0
 12  4  1  0  0  0  0
 13 21  1  1  0  0  0
 13  9  1  0  0  0  0
 15 14  1  6  0  0  0
 15 16  1  0  0  0  0
 16 20  1  1  0  0  0
 17 18  1  0  0  0  0
 18 16  1  0  0  0  0
 20 19  1  0  0  0  0
 22 21  2  0  0  0  0
 23 22  1  0  0  0  0
 24 23  1  0  0  0  0
 25 24  1  0  0  0  0
 26 25  1  0  0  0  0
 27 26  1  0  0  0  0
 28 29  2  0  0  0  0
 29  6  1  0  0  0  0
M  END
>  <MODEL>
5

>  <REMARK>
 VINA RESULT:      -6.5      2.822      5.969
  Name = 
  10 active torsions:
  status: ('A' for Active; 'I' for Inactive)
    1  A    between atoms: C_1  and  C_26
    2  A    between atoms: C_8  and  C_27
    3  A    between atoms: C_9  and  C_10
    4  A    between atoms: C_9  and  N_14
    5  A    between atoms: C_10  and  O_25
    6  A    between atoms: C_10  and  C_28
    7  A    between atoms: C_11  and  C_16
    8  A    between atoms: C_21  and  C_24
    9  A    between atoms: C_21  and  C_29
   10  A    between atoms: C_26  and  C_29
                            x       y       z     vdW  Elec       q    Type
                         _______ _______ _______ _____ _____    ______ ____

>  <TORSDO>
F 10

$$$$
=
 OpenBabel11042423133D

 29 31  0  0  1  0  0  0  0  0999 V2000
  160.7440  202.6860  150.7820 C   0  0  0  0  0  0  0  0  0  0  0  0
  163.0540  207.7180  150.5070 O   0  0  0  0  0  1  0  0  0  0  0  0
  161.5100  204.9630  149.4600 C   0  0  0  0  0  0  0  0  0  0  0  0
  161.4340  203.8170  148.7220 N   0  0  0  0  0  0  0  0  0  0  0  0
  160.8230  203.8600  151.5290 C   0  0  0  0  0  3  0  0  0  0  0  0
  160.8910  201.4090  148.9100 C   0  0  0  0  0  0  0  0  0  0  0  0
  160.4860  200.6200  149.9860 C   0  0  0  0  0  3  0  0  0  0  0  0
  161.3790  206.3080  151.3250 N   0  0  0  0  0  0  0  0  0  0  0  0
  161.7900  207.1960  150.2330 C   0  0  2  0  0  3  0  0  0  0  0  0
  161.2240  205.0000  150.8130 C   0  0  0  0  0  0  0  0  0  0  0  0
  160.3920  201.4050  151.1450 C   0  0  0  0  0  2  0  0  0  0  0  0
  161.0580  202.6880  149.3770 C   0  0  0  0  0  0  0  0  0  0  0  0
  161.8630  206.3200  148.9560 C   0  0  2  0  0  3  0  0  0  0  0  0
  161.2660  205.9150  153.6230 O   0  0  0  0  0  1  0  0  0  0  0  0
  160.8310  206.7610  152.6000 C   0  0  1  0  0  3  0  0  0  0  0  0
  161.2500  208.2020  152.8930 C   0  0  1  0  0  3  0  0  0  0  0  0
  161.0050  210.2510  152.0800 C   0  0  0  0  0  1  0  0  0  0  0  0
  160.2930  209.0900  152.3890 O   0  0  0  0  0  0  0  0  0  0  0  0
  160.0830  208.6740  154.9780 N   0  0  0  0  0  1  0  0  0  0  0  0
  161.3860  208.4060  154.3950 C   0  0  0  0  0  2  0  0  0  0  0  0
  160.8260  206.7690  147.9690 C   0  0  0  0  0  3  0  0  0  0  0  0
  160.9880  206.7150  146.6410 C   0  0  0  0  0  3  0  0  0  0  0  0
  162.2300  206.2030  145.9800 C   0  0  0  0  0  2  0  0  0  0  0  0
  162.0920  204.7230  145.6810 C   0  0  0  0  0  2  0  0  0  0  0  0
  160.8570  204.4920  144.8380 C   0  0  0  0  0  2  0  0  0  0  0  0
  160.4160  203.0500  144.9740 C   0  0  0  0  0  2  0  0  0  0  0  0
  159.3270  202.8170  144.1360 O   0  0  0  0  0  1  0  0  0  0  0  0
  161.6290  199.7670  147.3130 N   0  0  0  0  0  2  0  0  0  0  0  0
  161.0910  200.9190  147.5420 C   0  0  0  0  0  3  0  0  0  0  0  0
  1 11  1  0  0  0  0
  1  5  1  0  0  0  0
  3 10  1  0  0  0  0
  4 12  1  0  0  0  0
  4  3  2  0  0  0  0
  6 12  1  0  0  0  0
  6  7  2  0  0  0  0
  7 11  1  0  0  0  0
  8 15  1  0  0  0  0
  9  2  1  1  0  0  0
  9  8  1  0  0  0  0
 10  8  1  0  0  0  0
 10  5  2  0  0  0  0
 12  1  2  0  0  0  0
 13 21  1  6  0  0  0
 13  3  1  0  0  0  0
 13  9  1  0  0  0  0
 15 16  1  0  0  0  0
 15 14  1  1  0  0  0
 16 20  1  1  0  0  0
 17 18  1  0  0  0  0
 18 16  1  0  0  0  0
 20 19  1  0  0  0  0
 22 21  2  0  0  0  0
 23 22  1  0  0  0  0
 24 23  1  0  0  0  0
 25 26  1  0  0  0  0
 25 24  1  0  0  0  0
 27 26  1  0  0  0  0
 28 29  2  0  0  0  0
 29  6  1  0  0  0  0
M  END
>  <MODEL>
6

>  <REMARK>
 VINA RESULT:      -6.5      1.512      1.813
  Name = 
  10 active torsions:
  status: ('A' for Active; 'I' for Inactive)
    1  A    between atoms: C_1  and  C_26
    2  A    between atoms: C_8  and  C_27
    3  A    between atoms: C_9  and  C_10
    4  A    between atoms: C_9  and  N_14
    5  A    between atoms: C_10  and  O_25
    6  A    between atoms: C_10  and  C_28
    7  A    between atoms: C_11  and  C_16
    8  A    between atoms: C_21  and  C_24
    9  A    between atoms: C_21  and  C_29
   10  A    between atoms: C_26  and  C_29
                            x       y       z     vdW  Elec       q    Type
                         _______ _______ _______ _____ _____    ______ ____

>  <TORSDO>
F 10

$$$$
=
 OpenBabel11042423133D

 29 31  0  0  1  0  0  0  0  0999 V2000
  161.0400  203.2930  150.0960 C   0  0  0  0  0  0  0  0  0  0  0  0
  160.0040  206.4060  145.6270 O   0  0  0  0  0  1  0  0  0  0  0  0
  161.1460  205.6210  148.6520 C   0  0  0  0  0  0  0  0  0  0  0  0
  161.1670  205.7380  150.0130 N   0  0  0  0  0  2  0  0  0  0  0  0
  161.0200  203.1820  148.7070 C   0  0  0  0  0  3  0  0  0  0  0  0
  161.1170  204.3850  152.0850 C   0  0  0  0  0  0  0  0  0  0  0  0
  161.0510  203.0090  152.3070 C   0  0  0  0  0  3  0  0  0  0  0  0
  161.0700  204.5700  146.6050 N   0  0  0  0  0  0  0  0  0  0  0  0
  161.1550  206.0020  146.3040 C   0  0  2  0  0  3  0  0  0  0  0  0
  161.0710  204.4000  148.0080 C   0  0  0  0  0  0  0  0  0  0  0  0
  161.0030  202.3300  151.0800 C   0  0  0  0  0  3  0  0  0  0  0  0
  161.1100  204.5840  150.7280 C   0  0  0  0  0  0  0  0  0  0  0  0
  161.2340  206.7360  147.6670 C   0  0  2  0  0  3  0  0  0  0  0  0
  162.6870  203.1150  145.7570 O   0  0  0  0  0  1  0  0  0  0  0  0
  161.3490  203.5030  145.6490 C   0  0  1  0  0  3  0  0  0  0  0  0
  160.4310  202.3030  145.8870 C   0  0  1  0  0  3  0  0  0  0  0  0
  159.3250  203.1690  144.1710 C   0  0  0  0  0  1  0  0  0  0  0  0
  159.7770  201.9580  144.6990 O   0  0  0  0  0  0  0  0  0  0  0  0
  160.8890  199.9250  145.6270 N   0  0  0  0  0  1  0  0  0  0  0  0
  161.2480  201.1160  146.3760 C   0  0  0  0  0  2  0  0  0  0  0  0
  162.5630  207.4170  147.8040 C   0  0  0  0  0  3  0  0  0  0  0  0
  162.7690  208.5050  148.5580 C   0  0  0  0  0  3  0  0  0  0  0  0
  161.6930  209.1750  149.3540 C   0  0  0  0  0  2  0  0  0  0  0  0
  161.9320  208.9690  150.8370 C   0  0  0  0  0  2  0  0  0  0  0  0
  161.4930  210.2030  151.5940 C   0  0  0  0  0  2  0  0  0  0  0  0
  160.5200  209.8070  152.6850 C   0  0  0  0  0  2  0  0  0  0  0  0
  159.4110  210.6500  152.6460 O   0  0  0  0  0  1  0  0  0  0  0  0
  162.1290  206.2780  153.1730 N   0  0  0  0  0  2  0  0  0  0  0  0
  161.1820  205.4000  153.1420 C   0  0  0  0  0  3  0  0  0  0  0  0
  1 12  1  0  0  0  0
  1 11  1  0  0  0  0
  3  4  1  0  0  0  0
  4 12  1  0  0  0  0
  5  1  2  0  0  0  0
  6  7  1  0  0  0  0
  6 29  1  0  0  0  0
  8 10  1  0  0  0  0
  9  2  1  1  0  0  0
  9  8  1  0  0  0  0
  9 13  1  0  0  0  0
 10  3  2  0  0  0  0
 10  5  1  0  0  0  0
 11  7  2  0  0  0  0
 12  6  2  0  0  0  0
 13 21  1  6  0  0  0
 13  3  1  0  0  0  0
 15 14  1  1  0  0  0
 15 16  1  0  0  0  0
 15  8  1  0  0  0  0
 16 20  1  6  0  0  0
 17 18  1  0  0  0  0
 18 16  1  0  0  0  0
 19 20  1  0  0  0  0
 21 22  2  0  0  0  0
 22 23  1  0  0  0  0
 23 24  1  0  0  0  0
 24 25  1  0  0  0  0
 25 26  1  0  0  0  0
 27 26  1  0  0  0  0
 29 28  2  0  0  0  0
M  END
>  <MODEL>
7

>  <REMARK>
 VINA RESULT:      -6.3      1.901      6.836
  Name = 
  10 active torsions:
  status: ('A' for Active; 'I' for Inactive)
    1  A    between atoms: C_1  and  C_26
    2  A    between atoms: C_8  and  C_27
    3  A    between atoms: C_9  and  C_10
    4  A    between atoms: C_9  and  N_14
    5  A    between atoms: C_10  and  O_25
    6  A    between atoms: C_10  and  C_28
    7  A    between atoms: C_11  and  C_16
    8  A    between atoms: C_21  and  C_24
    9  A    between atoms: C_21  and  C_29
   10  A    between atoms: C_26  and  C_29
                            x       y       z     vdW  Elec       q    Type
                         _______ _______ _______ _____ _____    ______ ____

>  <TORSDO>
F 10

$$$$
=
 OpenBabel11042423133D

 29 31  0  0  1  0  0  0  0  0999 V2000
  161.5080  206.0220  148.4320 C   0  0  0  0  0  0  0  0  0  0  0  0
  159.9900  209.8350  152.1590 O   0  0  0  0  0  1  0  0  0  0  0  0
  161.0040  206.8920  150.9820 C   0  0  0  0  0  0  0  0  0  0  0  0
  160.8450  205.5570  150.7430 N   0  0  0  0  0  2  0  0  0  0  0  0
  161.6690  207.3830  148.6830 C   0  0  0  0  0  3  0  0  0  0  0  0
  161.0210  203.8640  148.9460 C   0  0  0  0  0  0  0  0  0  0  0  0
  161.3810  203.9570  147.6020 C   0  0  0  0  0  3  0  0  0  0  0  0
  161.4850  209.0960  150.5210 N   0  0  0  0  0  0  0  0  0  0  0  0
  161.1330  209.0640  151.9430 C   0  0  2  0  0  3  0  0  0  0  0  0
  161.3950  207.7850  150.0010 C   0  0  0  0  0  0  0  0  0  0  0  0
  161.6840  205.2880  147.2790 C   0  0  0  0  0  3  0  0  0  0  0  0
  161.0910  205.1270  149.4790 C   0  0  0  0  0  0  0  0  0  0  0  0
  160.8270  207.5840  152.2900 C   0  0  2  0  0  3  0  0  0  0  0  0
  162.7220  209.7480  148.6510 O   0  0  0  0  0  1  0  0  0  0  0  0
  162.1920  210.1920  149.8650 C   0  0  1  0  0  3  0  0  0  0  0  0
  161.2590  211.3810  149.6310 C   0  0  1  0  0  3  0  0  0  0  0  0
  160.0680  212.9740  150.6120 C   0  0  0  0  0  1  0  0  0  0  0  0
  161.2040  212.1790  150.7780 O   0  0  0  0  0  0  0  0  0  0  0  0
  160.8000  212.1810  147.3760 N   0  0  0  0  0  1  0  0  0  0  0  0
  161.7650  212.2130  148.4610 C   0  0  0  0  0  2  0  0  0  0  0  0
  161.8430  207.0690  153.2670 C   0  0  0  0  0  3  0  0  0  0  0  0
  161.6200  206.9550  154.5820 C   0  0  0  0  0  3  0  0  0  0  0  0
  160.3280  207.3340  155.2380 C   0  0  0  0  0  2  0  0  0  0  0  0
  160.4380  208.7170  155.8500 C   0  0  0  0  0  2  0  0  0  0  0  0
  161.7670  208.8500  156.5590 C   0  0  0  0  0  2  0  0  0  0  0  0
  162.3350  210.2320  156.3110 C   0  0  0  0  0  2  0  0  0  0  0  0
  162.1200  210.5890  154.9810 O   0  0  0  0  0  1  0  0  0  0  0  0
  160.0170  201.6780  149.0050 N   0  0  0  0  0  2  0  0  0  0  0  0
  160.6430  202.6210  149.6270 C   0  0  0  0  0  3  0  0  0  0  0  0
  1  5  2  0  0  0  0
  1 12  1  0  0  0  0
  3 13  1  0  0  0  0
  4  3  1  0  0  0  0
  5 10  1  0  0  0  0
  6 12  2  0  0  0  0
  6 29  1  0  0  0  0
  7  6  1  0  0  0  0
  8  9  1  0  0  0  0
  9  2  1  6  0  0  0
  9 13  1  0  0  0  0
 10  8  1  0  0  0  0
 10  3  2  0  0  0  0
 11  7  2  0  0  0  0
 11  1  1  0  0  0  0
 12  4  1  0  0  0  0
 13 21  1  1  0  0  0
 15 14  1  6  0  0  0
 15  8  1  0  0  0  0
 16 20  1  6  0  0  0
 16 15  1  0  0  0  0
 16 18  1  0  0  0  0
 17 18  1  0  0  0  0
 19 20  1  0  0  0  0
 21 22  2  0  0  0  0
 22 23  1  0  0  0  0
 23 24  1  0  0  0  0
 24 25  1  0  0  0  0
 26 25  1  0  0  0  0
 27 26  1  0  0  0  0
 28 29  2  0  0  0  0
M  END
>  <MODEL>
8

>  <REMARK>
 VINA RESULT:      -6.2      2.636      6.439
  Name = 
  10 active torsions:
  status: ('A' for Active; 'I' for Inactive)
    1  A    between atoms: C_1  and  C_26
    2  A    between atoms: C_8  and  C_27
    3  A    between atoms: C_9  and  C_10
    4  A    between atoms: C_9  and  N_14
    5  A    between atoms: C_10  and  O_25
    6  A    between atoms: C_10  and  C_28
    7  A    between atoms: C_11  and  C_16
    8  A    between atoms: C_21  and  C_24
    9  A    between atoms: C_21  and  C_29
   10  A    between atoms: C_26  and  C_29
                            x       y       z     vdW  Elec       q    Type
                         _______ _______ _______ _____ _____    ______ ____

>  <TORSDO>
F 10

$$$$
=
 OpenBabel11042423133D

 29 31  0  0  1  0  0  0  0  0999 V2000
  161.4040  210.1070  153.0560 C   0  0  0  0  0  0  0  0  0  0  0  0
  163.5480  208.6710  148.1500 O   0  0  0  0  0  1  0  0  0  0  0  0
  161.6860  208.4400  150.8970 C   0  0  0  0  0  0  0  0  0  0  0  0
  161.3310  207.8610  152.0820 N   0  0  0  0  0  2  0  0  0  0  0  0
  161.7650  210.6920  151.8440 C   0  0  0  0  0  3  0  0  0  0  0  0
  160.8510  208.4020  154.4490 C   0  0  0  0  0  0  0  0  0  0  0  0
  160.8440  209.6050  155.1540 C   0  0  0  0  0  3  0  0  0  0  0  0
  162.2520  210.1290  149.4370 N   0  0  0  0  0  0  0  0  0  0  0  0
  162.2610  208.9020  148.6350 C   0  0  2  0  0  3  0  0  0  0  0  0
  161.9030  209.8000  150.7670 C   0  0  0  0  0  0  0  0  0  0  0  0
  161.1840  210.6620  154.2980 C   0  0  0  0  0  3  0  0  0  0  0  0
  161.1950  208.6860  153.1520 C   0  0  0  0  0  0  0  0  0  0  0  0
  161.8580  207.7480  149.5890 C   0  0  2  0  0  3  0  0  0  0  0  0
  163.1830  211.6170  147.8980 O   0  0  0  0  0  1  0  0  0  0  0  0
  162.2050  211.4800  148.8860 C   0  0  1  0  0  3  0  0  0  0  0  0
  160.8230  211.7840  148.3060 C   0  0  1  0  0  3  0  0  0  0  0  0
  160.8690  213.7310  149.3680 C   0  0  0  0  0  1  0  0  0  0  0  0
  160.0960  212.5810  149.1970 O   0  0  0  0  0  0  0  0  0  0  0  0
  159.8480  212.1990  146.1130 N   0  0  0  0  0  1  0  0  0  0  0  0
  160.9690  212.5160  146.9790 C   0  0  0  0  0  2  0  0  0  0  0  0
  160.5440  207.1660  149.1580 C   0  0  0  0  0  3  0  0  0  0  0  0
  160.4280  206.0520  148.4230 C   0  0  0  0  0  3  0  0  0  0  0  0
  161.5990  205.2550  147.9390 C   0  0  0  0  0  2  0  0  0  0  0  0
  161.2890  203.7730  148.0070 C   0  0  0  0  0  2  0  0  0  0  0  0
  160.8310  203.4180  149.4050 C   0  0  0  0  0  2  0  0  0  0  0  0
  160.4100  201.9630  149.4430 C   0  0  0  0  0  2  0  0  0  0  0  0
  161.2010  201.2280  148.5620 O   0  0  0  0  0  1  0  0  0  0  0  0
  159.8080  206.9800  156.0880 N   0  0  0  0  0  2  0  0  0  0  0  0
  160.5400  207.0900  155.0290 C   0  0  0  0  0  3  0  0  0  0  0  0
  1 12  1  0  0  0  0
  1 11  1  0  0  0  0
  3  4  1  0  0  0  0
  4 12  1  0  0  0  0
  5  1  2  0  0  0  0
  6 29  1  0  0  0  0
  6  7  1  0  0  0  0
  8 10  1  0  0  0  0
  9  2  1  1  0  0  0
  9  8  1  0  0  0  0
  9 13  1  0  0  0  0
 10  3  2  0  0  0  0
 10  5  1  0  0  0  0
 11  7  2  0  0  0  0
 12  6  2  0  0  0  0
 13 21  1  6  0  0  0
 13  3  1  0  0  0  0
 15 14  1  6  0  0  0
 15  8  1  0  0  0  0
 16 20  1  6  0  0  0
 16 15  1  0  0  0  0
 16 18  1  0  0  0  0
 18 17  1  0  0  0  0
 19 20  1  0  0  0  0
 22 21  2  0  0  0  0
 23 24  1  0  0  0  0
 23 22  1  0  0  0  0
 24 25  1  0  0  0  0
 25 26  1  0  0  0  0
 27 26  1  0  0  0  0
 29 28  2  0  0  0  0
M  END
>  <MODEL>
9

>  <REMARK>
 VINA RESULT:      -6.0      2.866      5.390
  Name = 
  10 active torsions:
  status: ('A' for Active; 'I' for Inactive)
    1  A    between atoms: C_1  and  C_26
    2  A    between atoms: C_8  and  C_27
    3  A    between atoms: C_9  and  C_10
    4  A    between atoms: C_9  and  N_14
    5  A    between atoms: C_10  and  O_25
    6  A    between atoms: C_10  and  C_28
    7  A    between atoms: C_11  and  C_16
    8  A    between atoms: C_21  and  C_24
    9  A    between atoms: C_21  and  C_29
   10  A    between atoms: C_26  and  C_29
                            x       y       z     vdW  Elec       q    Type
                         _______ _______ _______ _____ _____    ______ ____

>  <TORSDO>
F 10

$$$$
