=
 OpenBabel11052410273D

 61 68  0  0  1  0  0  0  0  0999 V2000
  161.6920  209.8160  151.0980 S   0  0  0  0  0  0  0  0  0  0  0  0
  162.2530  208.6200  148.9740 C   0  0  0  0  0  0  0  0  0  0  0  0
  162.0420  209.9550  148.6070 C   0  0  0  0  0  3  0  0  0  0  0  0
  162.0810  208.3700  150.3310 C   0  0  0  0  0  0  0  0  0  0  0  0
  161.7060  210.7500  149.6970 C   0  0  0  0  0  0  0  0  0  0  0  0
  162.2500  207.0450  151.0080 C   0  0  0  0  0  2  0  0  0  0  0  0
  161.4000  206.9750  152.2290 C   0  0  0  0  0  3  0  0  0  0  0  0
  161.7270  207.6480  153.2840 N   0  0  0  0  0  0  0  0  0  0  0  0
  160.9320  207.6330  154.4740 C   0  0  0  0  0  0  0  0  0  0  0  0
  160.5800  208.8620  155.1160 N   0  0  0  0  0  0  0  0  0  0  0  0
  160.5520  206.5360  154.9760 O   0  0  0  0  0  0  0  0  0  0  0  0
  160.0310  208.1290  157.2610 O   0  0  0  0  0  1  0  0  0  0  0  0
  159.5790  208.8830  156.1760 C   0  0  0  0  0  2  0  0  0  0  0  0
  161.2960  210.0900  154.7980 C   0  0  0  0  0  2  0  0  0  0  0  0
  160.2980  211.2230  154.5600 C   0  0  0  0  0  2  0  0  0  0  0  0
  160.3660  212.2500  155.6820 C   0  0  0  0  0  2  0  0  0  0  0  0
  159.0700  213.9430  156.7490 O   0  0  0  0  0  1  0  0  0  0  0  0
  159.2490  213.2790  155.5340 C   0  0  2  0  0  3  0  0  0  0  0  0
  157.9470  212.5930  155.1390 C   0  0  0  0  0  2  0  0  0  0  0  0
  157.1760  213.4100  154.1120 C   0  0  1  0  0  3  0  0  0  0  0  0
  157.6840  213.1340  152.8400 O   0  0  0  0  0  1  0  0  0  0  0  0
  155.6990  213.0450  154.1640 C   0  0  0  0  0  2  0  0  0  0  0  0
  154.9000  213.9560  153.2510 C   0  0  0  0  0  1  0  0  0  0  0  0
  161.4690  212.2220  149.6400 C   0  0  0  0  0  2  0  0  0  0  0  0
  162.2460  212.8370  148.4860 C   0  0  0  0  0  2  0  0  0  0  0  0
  161.5100  214.0560  147.9520 C   0  0  0  0  0  2  0  0  0  0  0  0
  157.9080  212.5470  146.1180 C   0  0  0  0  0  2  0  0  0  0  0  0
  159.0750  214.3400  147.5430 C   0  0  1  0  0  3  0  0  0  0  0  0
  158.3800  212.9790  144.7440 C   0  0  0  0  0  2  0  0  0  0  0  0
  161.9790  214.0040  145.3000 O   0  0  0  0  0  1  0  0  0  0  0  0
  160.3460  213.6370  147.0550 C   0  0  1  0  0  3  0  0  0  0  0  0
  157.7540  213.7680  147.0060 C   0  0  2  0  0  3  0  0  0  0  0  0
  158.2350  213.3990  148.3940 C   0  0  0  0  0  2  0  0  0  0  0  0
  159.9090  212.9880  144.6300 C   0  0  2  0  0  3  0  0  0  0  0  0
  160.6060  213.9860  145.5770 C   0  0  2  0  0  3  0  0  0  0  0  0
  160.4530  212.3050  140.3780 C   0  0  1  0  0  3  0  0  0  0  0  0
  161.3140  212.1350  142.7220 C   0  0  0  0  0  2  0  0  0  0  0  0
  161.7120  212.2940  141.2550 C   0  0  1  0  0  3  0  0  0  0  0  0
  160.3240  213.2160  143.1690 C   0  0  1  0  0  3  0  0  0  0  0  0
  159.1030  213.2760  142.2380 C   0  0  0  0  0  2  0  0  0  0  0  0
  162.5190  211.2050  140.9030 O   0  0  0  0  0  1  0  0  0  0  0  0
  159.5440  213.4560  140.7920 C   0  0  0  0  0  2  0  0  0  0  0  0
  160.7850  212.4630  138.8950 C   0  0  0  0  0  2  0  0  0  0  0  0
  158.5320  212.0990  137.3190 O   0  0  0  0  0  1  0  0  0  0  0  0
  160.6110  211.1630  138.1030 C   0  0  1  0  0  0  0  0  0  0  0  0
  159.4690  210.2300  138.4470 C   0  0  0  0  0  2  0  0  0  0  0  0
  159.4240  211.0350  137.1570 C   0  0  1  0  0  3  0  0  0  0  0  0
  161.7620  210.5090  137.6570 O   0  0  0  0  0  1  0  0  0  0  0  0
  162.7250  207.3660  147.7870 S   0  0  0  0  0  0  0  0  0  0  0  0
  160.9770  203.5370  144.5890 C   0  0  0  0  0  2  0  0  0  0  0  0
  160.7300  205.4830  147.0520 C   0  0  1  0  0  0  0  0  0  0  0  0
  160.8420  202.3830  145.5800 C   0  0  0  0  0  2  0  0  0  0  0  0
  161.2970  202.7740  147.3180 S   0  0  0  0  0  0  0  0  0  0  0  0
  159.7080  205.4410  145.9140 C   0  0  1  0  0  3  0  0  0  0  0  0
  161.9160  204.4730  147.0910 C   0  0  1  0  0  3  0  0  0  0  0  0
  160.8170  206.4930  145.9460 C   0  0  1  0  0  3  0  0  0  0  0  0
  160.9930  206.9500  147.3940 C   0  0  2  0  0  3  0  0  0  0  0  0
  159.8340  204.5370  144.6710 C   0  0  0  0  0  2  0  0  0  0  0  0
  163.1650  204.5150  146.1880 C   0  0  0  0  0  3  0  0  0  0  0  0
  164.2990  204.6390  146.9720 F   0  0  0  0  0  0  0  0  0  0  0  0
  163.1560  205.4870  145.2090 F   0  0  0  0  0  0  0  0  0  0  0  0
  2  4  2  0  0  0  0
  3  2  1  0  0  0  0
  3  5  2  0  0  0  0
  4  6  1  0  0  0  0
  4  1  1  0  0  0  0
  5  1  1  0  0  0  0
  6  7  1  0  0  0  0
  7  8  2  0  0  0  0
  8  9  1  0  0  0  0
  9 11  2  0  0  0  0
  9 10  1  0  0  0  0
 10 13  1  0  0  0  0
 13 12  1  0  0  0  0
 14 10  1  0  0  0  0
 15 14  1  0  0  0  0
 15 16  1  0  0  0  0
 18 16  1  0  0  0  0
 18 17  1  1  0  0  0
 19 18  1  0  0  0  0
 20 21  1  6  0  0  0
 20 22  1  0  0  0  0
 20 19  1  0  0  0  0
 23 22  1  0  0  0  0
 24  5  1  0  0  0  0
 25 24  1  0  0  0  0
 26 25  1  0  0  0  0
 28 33  1  1  0  0  0
 29 27  1  0  0  0  0
 31 28  1  0  0  0  0
 31 26  1  1  0  0  0
 32 27  1  6  0  0  0
 32 28  1  0  0  0  0
 32 33  1  0  0  0  0
 34 29  1  6  0  0  0
 34 35  1  0  0  0  0
 35 30  1  1  0  0  0
 35 31  1  0  0  0  0
 36 43  1  6  0  0  0
 36 42  1  0  0  0  0
 36 38  1  0  0  0  0
 37 39  1  0  0  0  0
 38 41  1  6  0  0  0
 38 37  1  0  0  0  0
 39 40  1  6  0  0  0
 39 34  1  0  0  0  0
 42 40  1  0  0  0  0
 45 48  1  6  0  0  0
 45 46  1  0  0  0  0
 45 43  1  0  0  0  0
 47 44  1  1  0  0  0
 47 45  1  0  0  0  0
 47 46  1  0  0  0  0
 49  2  1  0  0  0  0
 50 58  1  0  0  0  0
 50 52  1  0  0  0  0
 51 55  1  0  0  0  0
 51 57  1  0  0  0  0
 52 53  1  0  0  0  0
 54 56  1  0  0  0  0
 54 51  1  0  0  0  0
 55 53  1  0  0  0  0
 56 51  1  0  0  0  0
 56 57  1  0  0  0  0
 57 49  1  0  0  0  0
 58 54  1  0  0  0  0
 59 60  1  0  0  0  0
 59 55  1  0  0  0  0
 61 59  1  0  0  0  0
M  END
>  <MODEL>
1

>  <REMARK>
 VINA RESULT:      -5.6      0.000      0.000
  Name = 
  21 active torsions:
  status: ('A' for Active; 'I' for Inactive)
    1  A    between atoms: C_2  and  C_50
    2  A    between atoms: C_3  and  C_8
    3  A    between atoms: C_4  and  N_57
    4  A    between atoms: C_5  and  C_27
    5  A    between atoms: C_5  and  C_45
    6  A    between atoms: C_8  and  C_14
    7  A    between atoms: C_13  and  C_50
    8  A    between atoms: C_14  and  C_27
    9  A    between atoms: C_20  and  C_33
   10  A    between atoms: C_21  and  S_51
   11  A    between atoms: C_22  and  C_47
   12  A    between atoms: C_24  and  C_28
   13  A    between atoms: C_28  and  C_52
   14  A    between atoms: N_29  and  C_37
   15  A    between atoms: N_29  and  C_39
   16  A    between atoms: C_31  and  C_43
   17  A    between atoms: C_33  and  C_40
   18  A    between atoms: C_37  and  C_45
   19  A    between atoms: C_38  and  C_52
   20  A    between atoms: C_38  and  C_55
   21  A    between atoms: C_48  and  S_51
                            x       y       z     vdW  Elec       q    Type
                         _______ _______ _______ _____ _____    ______ ____

>  <TORSDO>
F 21

$$$$
=
 OpenBabel11052410273D

 61 68  0  0  1  0  0  0  0  0999 V2000
  161.9720  208.7370  150.8230 S   0  0  0  0  0  0  0  0  0  0  0  0
  161.2670  210.2820  152.6600 C   0  0  0  0  0  0  0  0  0  0  0  0
  161.4300  211.0930  151.5300 C   0  0  0  0  0  3  0  0  0  0  0  0
  161.5470  208.9370  152.4390 C   0  0  0  0  0  0  0  0  0  0  0  0
  161.8360  210.3640  150.4170 C   0  0  0  0  0  0  0  0  0  0  0  0
  161.4500  207.8420  153.4550 C   0  0  0  0  0  2  0  0  0  0  0  0
  161.6450  206.5150  152.8060 C   0  0  0  0  0  3  0  0  0  0  0  0
  160.6390  205.7200  152.6460 N   0  0  0  0  0  0  0  0  0  0  0  0
  160.7690  204.4450  152.0080 C   0  0  0  0  0  0  0  0  0  0  0  0
  160.7250  204.3500  150.5820 N   0  0  0  0  0  0  0  0  0  0  0  0
  160.9050  203.3940  152.7000 O   0  0  0  0  0  0  0  0  0  0  0  0
  160.0060  202.2380  149.9000 O   0  0  0  0  0  1  0  0  0  0  0  0
  161.0970  203.1090  149.9110 C   0  0  0  0  0  2  0  0  0  0  0  0
  160.2010  205.4520  149.7860 C   0  0  0  0  0  2  0  0  0  0  0  0
  160.6040  205.2690  148.3230 C   0  0  0  0  0  2  0  0  0  0  0  0
  161.8830  206.0360  148.0140 C   0  0  0  0  0  2  0  0  0  0  0  0
  160.7330  206.1890  145.9310 O   0  0  0  0  0  1  0  0  0  0  0  0
  161.9960  206.3060  146.5160 C   0  0  2  0  0  3  0  0  0  0  0  0
  162.9450  205.3060  145.8670 C   0  0  0  0  0  2  0  0  0  0  0  0
  162.1860  204.2550  145.0700 C   0  0  1  0  0  3  0  0  0  0  0  0
  161.8140  203.2170  145.9280 O   0  0  0  0  0  1  0  0  0  0  0  0
  160.9420  204.8760  144.4490 C   0  0  0  0  0  2  0  0  0  0  0  0
  159.7680  203.9220  144.5590 C   0  0  0  0  0  1  0  0  0  0  0  0
  162.0460  210.9330  149.0540 C   0  0  0  0  0  2  0  0  0  0  0  0
  161.7580  212.4260  149.0550 C   0  0  0  0  0  2  0  0  0  0  0  0
  162.0470  213.0160  147.6830 C   0  0  0  0  0  2  0  0  0  0  0  0
  158.0970  212.8280  145.9570 C   0  0  0  0  0  2  0  0  0  0  0  0
  159.8130  214.0710  147.4130 C   0  0  1  0  0  3  0  0  0  0  0  0
  158.6370  213.1800  144.5860 C   0  0  0  0  0  2  0  0  0  0  0  0
  162.3920  212.9940  145.0130 O   0  0  0  0  0  1  0  0  0  0  0  0
  160.7830  213.0400  146.8260 C   0  0  1  0  0  3  0  0  0  0  0  0
  158.3630  213.9760  146.9150 C   0  0  2  0  0  3  0  0  0  0  0  0
  158.7470  213.3850  148.2560 C   0  0  0  0  0  2  0  0  0  0  0  0
  160.0880  212.7200  144.3960 C   0  0  2  0  0  3  0  0  0  0  0  0
  161.0920  213.3870  145.3570 C   0  0  2  0  0  3  0  0  0  0  0  0
  160.5210  211.9710  140.1420 C   0  0  1  0  0  3  0  0  0  0  0  0
  161.3870  211.7310  142.4780 C   0  0  0  0  0  2  0  0  0  0  0  0
  161.7830  211.8460  141.0060 C   0  0  1  0  0  3  0  0  0  0  0  0
  160.5060  212.9020  142.9290 C   0  0  1  0  0  3  0  0  0  0  0  0
  159.2870  213.0720  142.0100 C   0  0  0  0  0  2  0  0  0  0  0  0
  162.4810  210.6860  140.6510 O   0  0  0  0  0  1  0  0  0  0  0  0
  159.7280  213.2030  140.5600 C   0  0  0  0  0  2  0  0  0  0  0  0
  160.8510  212.0920  138.6550 C   0  0  0  0  0  2  0  0  0  0  0  0
  158.9330  210.9250  137.0270 O   0  0  0  0  0  1  0  0  0  0  0  0
  161.1330  210.7370  137.9950 C   0  0  1  0  0  0  0  0  0  0  0  0
  160.3000  209.5340  138.3830 C   0  0  0  0  0  2  0  0  0  0  0  0
  160.1110  210.1740  137.0150 C   0  0  1  0  0  3  0  0  0  0  0  0
  162.4560  210.4300  137.6710 O   0  0  0  0  0  1  0  0  0  0  0  0
  160.7240  210.9360  154.2350 S   0  0  0  0  0  0  0  0  0  0  0  0
  156.0490  212.9410  155.6730 C   0  0  0  0  0  2  0  0  0  0  0  0
  158.9210  213.1250  154.3940 C   0  0  1  0  0  0  0  0  0  0  0  0
  156.4960  214.0220  156.6540 C   0  0  0  0  0  2  0  0  0  0  0  0
  158.3130  214.1660  156.8990 S   0  0  0  0  0  0  0  0  0  0  0  0
  157.6410  213.4750  153.6310 C   0  0  1  0  0  3  0  0  0  0  0  0
  158.8640  212.7430  155.9030 C   0  0  1  0  0  3  0  0  0  0  0  0
  158.3060  212.1070  153.4790 C   0  0  1  0  0  3  0  0  0  0  0  0
  159.8190  212.3160  153.4570 C   0  0  2  0  0  3  0  0  0  0  0  0
  156.2210  213.3420  154.2160 C   0  0  0  0  0  2  0  0  0  0  0  0
  158.3510  211.4070  156.4770 C   0  0  0  0  0  3  0  0  0  0  0  0
  159.3940  210.7360  157.0930 F   0  0  0  0  0  0  0  0  0  0  0  0
  157.7220  210.5760  155.5720 F   0  0  0  0  0  0  0  0  0  0  0  0
  1  4  1  0  0  0  0
  2 49  1  0  0  0  0
  3  2  1  0  0  0  0
  4  2  2  0  0  0  0
  4  6  1  0  0  0  0
  5  1  1  0  0  0  0
  5  3  2  0  0  0  0
  7  6  1  0  0  0  0
  8  7  2  0  0  0  0
  9  8  1  0  0  0  0
  9 11  2  0  0  0  0
 10  9  1  0  0  0  0
 12 13  1  0  0  0  0
 13 10  1  0  0  0  0
 14 10  1  0  0  0  0
 15 14  1  0  0  0  0
 16 15  1  0  0  0  0
 18 17  1  6  0  0  0
 18 16  1  0  0  0  0
 19 18  1  0  0  0  0
 20 19  1  0  0  0  0
 20 21  1  1  0  0  0
 22 23  1  0  0  0  0
 22 20  1  0  0  0  0
 24 25  1  0  0  0  0
 24  5  1  0  0  0  0
 26 25  1  0  0  0  0
 28 33  1  1  0  0  0
 29 27  1  0  0  0  0
 31 28  1  0  0  0  0
 31 26  1  1  0  0  0
 32 27  1  6  0  0  0
 32 28  1  0  0  0  0
 32 33  1  0  0  0  0
 34 29  1  6  0  0  0
 34 35  1  0  0  0  0
 35 30  1  6  0  0  0
 35 31  1  0  0  0  0
 36 43  1  6  0  0  0
 36 42  1  0  0  0  0
 36 38  1  0  0  0  0
 37 39  1  0  0  0  0
 38 41  1  6  0  0  0
 38 37  1  0  0  0  0
 39 40  1  6  0  0  0
 39 34  1  0  0  0  0
 42 40  1  0  0  0  0
 45 48  1  6  0  0  0
 45 46  1  0  0  0  0
 45 43  1  0  0  0  0
 47 44  1  1  0  0  0
 47 45  1  0  0  0  0
 47 46  1  0  0  0  0
 50 52  1  0  0  0  0
 51 55  1  0  0  0  0
 52 53  1  0  0  0  0
 54 58  1  0  0  0  0
 54 51  1  0  0  0  0
 55 59  1  0  0  0  0
 55 53  1  0  0  0  0
 56 54  1  0  0  0  0
 56 51  1  0  0  0  0
 57 56  1  0  0  0  0
 57 49  1  0  0  0  0
 57 51  1  0  0  0  0
 58 50  1  0  0  0  0
 59 60  1  0  0  0  0
 61 59  1  0  0  0  0
M  END
>  <MODEL>
2

>  <REMARK>
 VINA RESULT:      -5.4      3.496      7.885
  Name = 
  21 active torsions:
  status: ('A' for Active; 'I' for Inactive)
    1  A    between atoms: C_2  and  C_50
    2  A    between atoms: C_3  and  C_8
    3  A    between atoms: C_4  and  N_57
    4  A    between atoms: C_5  and  C_27
    5  A    between atoms: C_5  and  C_45
    6  A    between atoms: C_8  and  C_14
    7  A    between atoms: C_13  and  C_50
    8  A    between atoms: C_14  and  C_27
    9  A    between atoms: C_20  and  C_33
   10  A    between atoms: C_21  and  S_51
   11  A    between atoms: C_22  and  C_47
   12  A    between atoms: C_24  and  C_28
   13  A    between atoms: C_28  and  C_52
   14  A    between atoms: N_29  and  C_37
   15  A    between atoms: N_29  and  C_39
   16  A    between atoms: C_31  and  C_43
   17  A    between atoms: C_33  and  C_40
   18  A    between atoms: C_37  and  C_45
   19  A    between atoms: C_38  and  C_52
   20  A    between atoms: C_38  and  C_55
   21  A    between atoms: C_48  and  S_51
                            x       y       z     vdW  Elec       q    Type
                         _______ _______ _______ _____ _____    ______ ____

>  <TORSDO>
F 21

$$$$
=
 OpenBabel11052410273D

 61 68  0  0  1  0  0  0  0  0999 V2000
  161.6000  209.3590  149.9720 S   0  0  0  0  0  0  0  0  0  0  0  0
  161.1530  210.8050  151.9650 C   0  0  0  0  0  0  0  0  0  0  0  0
  161.6690  211.6640  150.9860 C   0  0  0  0  0  3  0  0  0  0  0  0
  161.0640  209.4760  151.5630 C   0  0  0  0  0  0  0  0  0  0  0  0
  161.9790  210.9910  149.8090 C   0  0  0  0  0  0  0  0  0  0  0  0
  160.5430  208.3430  152.3910 C   0  0  0  0  0  2  0  0  0  0  0  0
  161.5320  207.2280  152.4240 C   0  0  0  0  0  3  0  0  0  0  0  0
  161.1780  206.0400  152.0600 N   0  0  0  0  0  0  0  0  0  0  0  0
  162.0960  204.9410  152.0510 C   0  0  0  0  0  0  0  0  0  0  0  0
  161.6740  203.6590  151.5780 N   0  0  0  0  0  0  0  0  0  0  0  0
  163.2780  205.0900  152.4780 O   0  0  0  0  0  0  0  0  0  0  0  0
  162.3400  201.4900  152.1190 O   0  0  0  0  0  1  0  0  0  0  0  0
  162.6490  202.6020  151.3330 C   0  0  0  0  0  2  0  0  0  0  0  0
  160.2550  203.3540  151.4410 C   0  0  0  0  0  2  0  0  0  0  0  0
  159.9450  202.9850  149.9910 C   0  0  0  0  0  2  0  0  0  0  0  0
  160.7910  203.8070  149.0290 C   0  0  0  0  0  2  0  0  0  0  0  0
  161.1000  201.6690  148.0200 O   0  0  0  0  0  1  0  0  0  0  0  0
  161.0340  203.0350  147.7360 C   0  0  2  0  0  3  0  0  0  0  0  0
  162.3430  203.4770  147.0920 C   0  0  0  0  0  2  0  0  0  0  0  0
  162.1330  204.6670  146.1660 C   0  0  1  0  0  3  0  0  0  0  0  0
  163.3690  205.0580  145.6440 O   0  0  0  0  0  1  0  0  0  0  0  0
  161.1980  204.2780  145.0290 C   0  0  0  0  0  2  0  0  0  0  0  0
  160.9590  205.4650  144.1160 C   0  0  0  0  0  1  0  0  0  0  0  0
  162.4980  211.6350  148.5680 C   0  0  0  0  0  2  0  0  0  0  0  0
  161.4310  212.5240  147.9480 C   0  0  0  0  0  2  0  0  0  0  0  0
  160.4400  211.6800  147.1610 C   0  0  0  0  0  2  0  0  0  0  0  0
  157.0950  213.8790  145.5510 C   0  0  0  0  0  2  0  0  0  0  0  0
  158.8860  213.6080  147.3740 C   0  0  1  0  0  3  0  0  0  0  0  0
  157.9550  214.4530  144.4430 C   0  0  0  0  0  2  0  0  0  0  0  0
  161.1980  212.5230  144.7180 O   0  0  0  0  0  1  0  0  0  0  0  0
  159.4550  212.5680  146.4030 C   0  0  1  0  0  3  0  0  0  0  0  0
  157.6250  214.3430  146.8950 C   0  0  2  0  0  3  0  0  0  0  0  0
  157.5100  213.1870  147.8670 C   0  0  0  0  0  2  0  0  0  0  0  0
  159.1150  213.5230  144.0650 C   0  0  2  0  0  3  0  0  0  0  0  0
  160.1210  213.2740  145.2060 C   0  0  2  0  0  3  0  0  0  0  0  0
  161.6060  213.6220  140.5110 C   0  0  1  0  0  3  0  0  0  0  0  0
  161.3360  213.9870  142.9730 C   0  0  0  0  0  2  0  0  0  0  0  0
  162.0730  214.4510  141.7160 C   0  0  1  0  0  3  0  0  0  0  0  0
  159.8140  214.0460  142.8020 C   0  0  1  0  0  3  0  0  0  0  0  0
  159.3620  213.2820  141.5480 C   0  0  0  0  0  2  0  0  0  0  0  0
  163.4440  214.2540  141.9180 O   0  0  0  0  0  1  0  0  0  0  0  0
  160.1040  213.7890  140.3190 C   0  0  0  0  0  2  0  0  0  0  0  0
  162.3060  214.0390  139.2200 C   0  0  0  0  0  2  0  0  0  0  0  0
  161.5910  211.9270  137.5710 O   0  0  0  0  0  1  0  0  0  0  0  0
  163.3690  213.0320  138.7650 C   0  0  1  0  0  0  0  0  0  0  0  0
  163.2690  211.5920  139.2180 C   0  0  0  0  0  2  0  0  0  0  0  0
  162.9740  211.9500  137.7690 C   0  0  1  0  0  3  0  0  0  0  0  0
  164.6810  213.4900  138.6140 O   0  0  0  0  0  1  0  0  0  0  0  0
  160.6380  211.3910  153.5760 S   0  0  0  0  0  0  0  0  0  0  0  0
  156.0170  212.6010  155.8390 C   0  0  0  0  0  2  0  0  0  0  0  0
  158.4380  213.1570  153.9030 C   0  0  1  0  0  0  0  0  0  0  0  0
  156.3860  213.9000  156.5550 C   0  0  0  0  0  2  0  0  0  0  0  0
  158.1260  214.4530  156.3440 S   0  0  0  0  0  0  0  0  0  0  0  0
  156.9830  213.1050  153.4310 C   0  0  1  0  0  3  0  0  0  0  0  0
  158.7840  213.0280  155.4170 C   0  0  1  0  0  3  0  0  0  0  0  0
  157.9090  211.8970  153.2840 C   0  0  1  0  0  3  0  0  0  0  0  0
  159.2920  212.4070  152.8800 C   0  0  2  0  0  3  0  0  0  0  0  0
  155.7860  212.7820  154.3470 C   0  0  0  0  0  2  0  0  0  0  0  0
  158.7320  211.7290  156.2460 C   0  0  0  0  0  3  0  0  0  0  0  0
  159.9250  211.5690  156.9310 F   0  0  0  0  0  0  0  0  0  0  0  0
  158.4370  210.5840  155.5360 F   0  0  0  0  0  0  0  0  0  0  0  0
  1  4  1  0  0  0  0
  2 49  1  0  0  0  0
  3  2  1  0  0  0  0
  4  2  2  0  0  0  0
  4  6  1  0  0  0  0
  5  1  1  0  0  0  0
  5  3  2  0  0  0  0
  6  7  1  0  0  0  0
  8  7  2  0  0  0  0
  9  8  1  0  0  0  0
  9 11  2  0  0  0  0
 10  9  1  0  0  0  0
 13 10  1  0  0  0  0
 13 12  1  0  0  0  0
 14 10  1  0  0  0  0
 15 14  1  0  0  0  0
 16 15  1  0  0  0  0
 18 17  1  1  0  0  0
 18 16  1  0  0  0  0
 19 18  1  0  0  0  0
 20 21  1  6  0  0  0
 20 19  1  0  0  0  0
 22 20  1  0  0  0  0
 23 22  1  0  0  0  0
 24  5  1  0  0  0  0
 25 24  1  0  0  0  0
 26 25  1  0  0  0  0
 28 33  1  1  0  0  0
 29 27  1  0  0  0  0
 31 26  1  1  0  0  0
 31 28  1  0  0  0  0
 32 27  1  6  0  0  0
 32 28  1  0  0  0  0
 32 33  1  0  0  0  0
 34 29  1  1  0  0  0
 34 35  1  0  0  0  0
 35 30  1  6  0  0  0
 35 31  1  0  0  0  0
 36 43  1  6  0  0  0
 36 38  1  0  0  0  0
 38 41  1  1  0  0  0
 38 37  1  0  0  0  0
 39 40  1  6  0  0  0
 39 37  1  0  0  0  0
 39 34  1  0  0  0  0
 42 36  1  0  0  0  0
 42 40  1  0  0  0  0
 45 48  1  6  0  0  0
 45 46  1  0  0  0  0
 45 43  1  0  0  0  0
 47 44  1  1  0  0  0
 47 45  1  0  0  0  0
 47 46  1  0  0  0  0
 50 52  1  0  0  0  0
 51 55  1  0  0  0  0
 53 52  1  0  0  0  0
 54 51  1  0  0  0  0
 54 58  1  0  0  0  0
 55 59  1  0  0  0  0
 55 53  1  0  0  0  0
 56 54  1  0  0  0  0
 56 51  1  0  0  0  0
 57 56  1  0  0  0  0
 57 49  1  0  0  0  0
 57 51  1  0  0  0  0
 58 50  1  0  0  0  0
 59 60  1  0  0  0  0
 61 59  1  0  0  0  0
M  END
>  <MODEL>
3

>  <REMARK>
 VINA RESULT:      -3.5      3.632      8.007
  Name = 
  21 active torsions:
  status: ('A' for Active; 'I' for Inactive)
    1  A    between atoms: C_2  and  C_50
    2  A    between atoms: C_3  and  C_8
    3  A    between atoms: C_4  and  N_57
    4  A    between atoms: C_5  and  C_27
    5  A    between atoms: C_5  and  C_45
    6  A    between atoms: C_8  and  C_14
    7  A    between atoms: C_13  and  C_50
    8  A    between atoms: C_14  and  C_27
    9  A    between atoms: C_20  and  C_33
   10  A    between atoms: C_21  and  S_51
   11  A    between atoms: C_22  and  C_47
   12  A    between atoms: C_24  and  C_28
   13  A    between atoms: C_28  and  C_52
   14  A    between atoms: N_29  and  C_37
   15  A    between atoms: N_29  and  C_39
   16  A    between atoms: C_31  and  C_43
   17  A    between atoms: C_33  and  C_40
   18  A    between atoms: C_37  and  C_45
   19  A    between atoms: C_38  and  C_52
   20  A    between atoms: C_38  and  C_55
   21  A    between atoms: C_48  and  S_51
                            x       y       z     vdW  Elec       q    Type
                         _______ _______ _______ _____ _____    ______ ____

>  <TORSDO>
F 21

$$$$
=
 OpenBabel11052410273D

 61 68  0  0  1  0  0  0  0  0999 V2000
  161.0010  212.2770  149.7790 S   0  0  0  0  0  0  0  0  0  0  0  0
  159.9800  212.7840  147.5520 C   0  0  0  0  0  0  0  0  0  0  0  0
  159.4470  213.7320  148.4340 C   0  0  0  0  0  3  0  0  0  0  0  0
  160.8570  211.8840  148.1490 C   0  0  0  0  0  0  0  0  0  0  0  0
  159.9210  213.5660  149.7310 C   0  0  0  0  0  0  0  0  0  0  0  0
  161.5820  210.7740  147.4540 C   0  0  0  0  0  2  0  0  0  0  0  0
  161.4850  209.5160  148.2460 C   0  0  0  0  0  3  0  0  0  0  0  0
  162.3080  208.5450  148.0200 N   0  0  0  0  0  0  0  0  0  0  0  0
  162.2710  207.3250  148.7700 C   0  0  0  0  0  0  0  0  0  0  0  0
  161.7720  206.1290  148.1660 N   0  0  0  0  0  0  0  0  0  0  0  0
  162.6610  207.3020  149.9730 O   0  0  0  0  0  0  0  0  0  0  0  0
  160.7280  204.3980  149.3290 O   0  0  0  0  0  1  0  0  0  0  0  0
  161.9520  204.8390  148.8220 C   0  0  0  0  0  2  0  0  0  0  0  0
  160.9800  206.1950  146.9450 C   0  0  0  0  0  2  0  0  0  0  0  0
  161.8740  205.9280  145.7350 C   0  0  0  0  0  2  0  0  0  0  0  0
  161.0470  205.4740  144.5390 C   0  0  0  0  0  2  0  0  0  0  0  0
  159.6940  203.5340  144.2380 O   0  0  0  0  0  1  0  0  0  0  0  0
  161.0080  203.9510  144.4640 C   0  0  2  0  0  3  0  0  0  0  0  0
  161.5100  203.3420  145.7670 C   0  0  0  0  0  2  0  0  0  0  0  0
  160.5610  202.2700  146.2830 C   0  0  1  0  0  3  0  0  0  0  0  0
  160.1710  201.4590  145.2150 O   0  0  0  0  0  1  0  0  0  0  0  0
  161.2620  201.4250  147.3390 C   0  0  0  0  0  2  0  0  0  0  0  0
  161.5050  200.0230  146.8120 C   0  0  0  0  0  1  0  0  0  0  0  0
  159.5790  214.4470  150.8850 C   0  0  0  0  0  2  0  0  0  0  0  0
  158.4780  213.8160  151.7230 C   0  0  0  0  0  2  0  0  0  0  0  0
  158.4390  214.4530  153.1030 C   0  0  0  0  0  2  0  0  0  0  0  0
  156.4810  212.2540  156.2570 C   0  0  0  0  0  2  0  0  0  0  0  0
  156.4630  213.1400  153.8440 C   0  0  1  0  0  3  0  0  0  0  0  0
  157.4290  211.0840  156.0830 C   0  0  0  0  0  2  0  0  0  0  0  0
  160.0700  212.4000  153.7150 O   0  0  0  0  0  1  0  0  0  0  0  0
  157.9310  213.4580  154.1450 C   0  0  1  0  0  3  0  0  0  0  0  0
  155.6860  212.4550  154.9790 C   0  0  2  0  0  3  0  0  0  0  0  0
  155.5430  213.9450  154.7490 C   0  0  0  0  0  2  0  0  0  0  0  0
  158.8010  211.5200  155.5530 C   0  0  2  0  0  3  0  0  0  0  0  0
  158.7610  212.1600  154.1510 C   0  0  2  0  0  3  0  0  0  0  0  0
  160.7670  207.7860  154.5370 C   0  0  1  0  0  3  0  0  0  0  0  0
  159.0230  209.0280  155.8340 C   0  0  0  0  0  2  0  0  0  0  0  0
  159.9580  207.8190  155.8420 C   0  0  1  0  0  3  0  0  0  0  0  0
  159.7810  210.3400  155.6070 C   0  0  1  0  0  3  0  0  0  0  0  0
  160.6530  210.2710  154.3430 C   0  0  0  0  0  2  0  0  0  0  0  0
  159.1740  206.6620  155.9370 O   0  0  0  0  0  1  0  0  0  0  0  0
  161.5810  209.0670  154.4010 C   0  0  0  0  0  2  0  0  0  0  0  0
  161.7250  206.5980  154.4840 C   0  0  0  0  0  2  0  0  0  0  0  0
  163.2490  206.1750  152.2050 O   0  0  0  0  0  1  0  0  0  0  0  0
  161.2980  205.5320  153.4680 C   0  0  1  0  0  0  0  0  0  0  0  0
  160.8870  205.9580  152.0750 C   0  0  0  0  0  2  0  0  0  0  0  0
  162.2130  205.2410  152.2850 C   0  0  1  0  0  3  0  0  0  0  0  0
  160.6140  204.4110  153.9430 O   0  0  0  0  0  1  0  0  0  0  0  0
  159.5740  212.7650  145.8090 S   0  0  0  0  0  0  0  0  0  0  0  0
  162.6840  212.9430  141.5380 C   0  0  0  0  0  2  0  0  0  0  0  0
  161.0800  214.2490  143.9120 C   0  0  1  0  0  0  0  0  0  0  0  0
  161.8150  213.7710  140.5920 C   0  0  0  0  0  2  0  0  0  0  0  0
  160.1980  214.3170  141.2760 S   0  0  0  0  0  0  0  0  0  0  0  0
  162.5820  214.4520  143.7060 C   0  0  1  0  0  3  0  0  0  0  0  0
  160.2390  213.4450  142.8760 C   0  0  1  0  0  3  0  0  0  0  0  0
  162.0500  213.4160  144.6970 C   0  0  1  0  0  3  0  0  0  0  0  0
  160.8360  214.0190  145.4040 C   0  0  2  0  0  3  0  0  0  0  0  0
  163.4000  213.7810  142.5850 C   0  0  0  0  0  2  0  0  0  0  0  0
  160.2550  211.9140  142.6960 C   0  0  0  0  0  3  0  0  0  0  0  0
  159.5500  211.5740  141.5540 F   0  0  0  0  0  0  0  0  0  0  0  0
  159.7910  211.1860  143.7730 F   0  0  0  0  0  0  0  0  0  0  0  0
  2  4  2  0  0  0  0
  2  3  1  0  0  0  0
  3  5  2  0  0  0  0
  4  1  1  0  0  0  0
  5  1  1  0  0  0  0
  5 24  1  0  0  0  0
  6  4  1  0  0  0  0
  6  7  1  0  0  0  0
  8  7  2  0  0  0  0
  8  9  1  0  0  0  0
  9 11  2  0  0  0  0
 10  9  1  0  0  0  0
 10 13  1  0  0  0  0
 13 12  1  0  0  0  0
 14 10  1  0  0  0  0
 15 14  1  0  0  0  0
 16 15  1  0  0  0  0
 18 17  1  1  0  0  0
 18 16  1  0  0  0  0
 18 19  1  0  0  0  0
 19 20  1  0  0  0  0
 20 21  1  6  0  0  0
 20 22  1  0  0  0  0
 23 22  1  0  0  0  0
 24 25  1  0  0  0  0
 25 26  1  0  0  0  0
 28 31  1  0  0  0  0
 28 33  1  1  0  0  0
 28 32  1  0  0  0  0
 29 27  1  0  0  0  0
 31 26  1  6  0  0  0
 31 35  1  0  0  0  0
 32 33  1  1  0  0  0
 32 27  1  0  0  0  0
 34 39  1  0  0  0  0
 34 29  1  6  0  0  0
 35 30  1  1  0  0  0
 35 34  1  0  0  0  0
 36 43  1  1  0  0  0
 36 38  1  0  0  0  0
 37 38  1  0  0  0  0
 38 41  1  6  0  0  0
 39 40  1  6  0  0  0
 39 37  1  0  0  0  0
 40 42  1  0  0  0  0
 42 36  1  0  0  0  0
 45 48  1  1  0  0  0
 45 43  1  0  0  0  0
 46 47  1  0  0  0  0
 46 45  1  0  0  0  0
 47 44  1  1  0  0  0
 47 45  1  0  0  0  0
 49  2  1  0  0  0  0
 50 58  1  0  0  0  0
 51 56  1  0  0  0  0
 51 57  1  0  0  0  0
 52 53  1  0  0  0  0
 52 50  1  0  0  0  0
 53 55  1  0  0  0  0
 54 51  1  0  0  0  0
 54 56  1  0  0  0  0
 55 51  1  0  0  0  0
 56 57  1  0  0  0  0
 57 49  1  0  0  0  0
 58 54  1  0  0  0  0
 59 55  1  0  0  0  0
 59 61  1  0  0  0  0
 60 59  1  0  0  0  0
M  END
>  <MODEL>
4

>  <REMARK>
 VINA RESULT:      -2.9      3.814     10.996
  Name = 
  21 active torsions:
  status: ('A' for Active; 'I' for Inactive)
    1  A    between atoms: C_2  and  C_50
    2  A    between atoms: C_3  and  C_8
    3  A    between atoms: C_4  and  N_57
    4  A    between atoms: C_5  and  C_27
    5  A    between atoms: C_5  and  C_45
    6  A    between atoms: C_8  and  C_14
    7  A    between atoms: C_13  and  C_50
    8  A    between atoms: C_14  and  C_27
    9  A    between atoms: C_20  and  C_33
   10  A    between atoms: C_21  and  S_51
   11  A    between atoms: C_22  and  C_47
   12  A    between atoms: C_24  and  C_28
   13  A    between atoms: C_28  and  C_52
   14  A    between atoms: N_29  and  C_37
   15  A    between atoms: N_29  and  C_39
   16  A    between atoms: C_31  and  C_43
   17  A    between atoms: C_33  and  C_40
   18  A    between atoms: C_37  and  C_45
   19  A    between atoms: C_38  and  C_52
   20  A    between atoms: C_38  and  C_55
   21  A    between atoms: C_48  and  S_51
                            x       y       z     vdW  Elec       q    Type
                         _______ _______ _______ _____ _____    ______ ____

>  <TORSDO>
F 21

$$$$
