=
 OpenBabel11042422263D

 34 37  0  0  1  0  0  0  0  0999 V2000
  160.9060  208.2840  153.5790 N   0  0  0  0  0  0  0  0  0  0  0  0
  161.3490  209.0830  151.2090 C   0  0  1  0  0  3  0  0  0  0  0  0
  161.8820  207.6640  150.8960 C   0  0  1  0  0  3  0  0  0  0  0  0
  159.6540  210.0070  152.6190 O   0  0  0  0  0  0  0  0  0  0  0  0
  161.8340  206.6420  152.0450 C   0  0  2  0  0  3  0  0  0  0  0  0
  160.5810  209.1650  152.4980 C   0  0  0  0  0  0  0  0  0  0  0  0
  161.9880  207.3260  153.3980 C   0  0  0  0  0  2  0  0  0  0  0  0
  159.8830  206.7980  149.6590 N   0  0  0  0  0  0  0  0  0  0  0  0
  161.2430  207.1280  149.7020 N   0  0  0  0  0  0  0  0  0  0  0  0
  160.8990  206.1330  147.6370 C   0  0  1  0  0  3  0  0  0  0  0  0
  159.6240  206.2920  148.3520 N   0  0  0  0  0  0  0  0  0  0  0  0
  163.0970  206.9620  148.2470 O   0  0  0  0  0  0  0  0  0  0  0  0
  161.8790  206.7510  148.5160 C   0  0  0  0  0  0  0  0  0  0  0  0
  161.7320  204.0370  146.3320 C   0  0  0  0  0  0  0  0  0  0  0  0
  161.4400  202.4970  147.7950 N   0  0  0  0  0  0  0  0  0  0  0  0
  161.1980  204.6760  147.4390 C   0  0  0  0  0  0  0  0  0  0  0  0
  160.4710  203.7920  149.7300 C   0  0  0  0  0  1  0  0  0  0  0  0
  161.0280  203.6560  148.3530 C   0  0  0  0  0  0  0  0  0  0  0  0
  162.0630  204.5900  145.2530 O   0  0  0  0  0  0  0  0  0  0  0  0
  161.8700  202.7150  146.5620 N   0  0  0  0  0  2  0  0  0  0  0  0
  161.4270  201.1840  148.4230 C   0  0  0  0  0  1  0  0  0  0  0  0
  162.4290  204.3310  151.9130 O   0  0  0  0  0  1  0  0  0  0  0  0
  162.9470  205.6260  151.8550 C   0  0  0  0  0  2  0  0  0  0  0  0
  163.2590  210.1760  152.1030 O   0  0  0  0  0  0  0  0  0  0  0  0
  162.4560  210.1080  151.1810 C   0  0  0  0  0  0  0  0  0  0  0  0
  162.4890  211.1470  150.0990 C   0  0  1  0  0  3  0  0  0  0  0  0
  161.4370  210.8970  149.1090 C   0  0  1  0  0  3  0  0  0  0  0  0
  161.2490  211.9450  150.1220 N   0  0  0  0  0  2  0  0  0  0  0  0
  162.9790  212.4960  147.9960 C   0  0  0  0  0  1  0  0  0  0  0  0
  161.8070  211.5580  147.7910 C   0  0  0  0  0  2  0  0  0  0  0  0
  160.0970  208.2480  154.7930 C   0  0  0  0  0  2  0  0  0  0  0  0
  161.5170  209.0690  156.6530 C   0  0  0  0  0  1  0  0  0  0  0  0
  160.1020  207.0780  157.0020 C   0  0  0  0  0  1  0  0  0  0  0  0
  160.9380  207.8350  155.9930 C   0  0  0  0  0  3  0  0  0  0  0  0
  1 31  1  0  0  0  0
  2 25  1  1  0  0  0
  2  6  1  0  0  0  0
  3  9  1  6  0  0  0
  3  2  1  0  0  0  0
  3  5  1  0  0  0  0
  5 23  1  6  0  0  0
  5  7  1  0  0  0  0
  6  4  2  0  0  0  0
  6  1  1  0  0  0  0
  7  1  1  0  0  0  0
  8  9  1  0  0  0  0
 10 16  1  1  0  0  0
 10 11  1  0  0  0  0
 10 13  1  0  0  0  0
 11  8  2  0  0  0  0
 12 13  2  0  0  0  0
 13  9  1  0  0  0  0
 14 20  1  0  0  0  0
 14 16  1  0  0  0  0
 15 18  1  0  0  0  0
 15 21  1  0  0  0  0
 16 18  2  0  0  0  0
 18 17  1  0  0  0  0
 19 14  2  0  0  0  0
 20 15  1  0  0  0  0
 23 22  1  0  0  0  0
 25 24  2  0  0  0  0
 26 28  1  0  0  0  0
 26 25  1  1  0  0  0
 27 30  1  6  0  0  0
 27 26  1  0  0  0  0
 27 28  1  0  0  0  0
 30 29  1  0  0  0  0
 31 34  1  0  0  0  0
 34 32  1  0  0  0  0
 34 33  1  0  0  0  0
M  END
>  <MODEL>
1

>  <REMARK>
 VINA RESULT:      -4.1      0.000      0.000
  Name = 
  8 active torsions:
  status: ('A' for Active; 'I' for Inactive)
    1  A    between atoms: C_1  and  C_18
    2  A    between atoms: C_2  and  N_3
    3  A    between atoms: C_2  and  C_28
    4  A    between atoms: C_8  and  C_13
    5  A    between atoms: N_10  and  C_20
    6  A    between atoms: C_14  and  C_18
    7  A    between atoms: C_19  and  C_31
    8  A    between atoms: C_27  and  C_34
                            x       y       z     vdW  Elec       q    Type
                         _______ _______ _______ _____ _____    ______ ____

>  <TORSDO>
F 8

$$$$
=
 OpenBabel11042422263D

 34 37  0  0  1  0  0  0  0  0999 V2000
  161.2130  210.5420  154.3810 N   0  0  0  0  0  0  0  0  0  0  0  0
  161.6300  210.2880  151.8890 C   0  0  1  0  0  3  0  0  0  0  0  0
  160.3500  211.1260  151.6520 C   0  0  1  0  0  3  0  0  0  0  0  0
  163.3670  210.2350  153.5300 O   0  0  0  0  0  0  0  0  0  0  0  0
  159.6150  211.6300  152.9060 C   0  0  2  0  0  3  0  0  0  0  0  0
  162.1340  210.3500  153.3030 C   0  0  0  0  0  0  0  0  0  0  0  0
  159.7950  210.6680  154.0740 C   0  0  0  0  0  2  0  0  0  0  0  0
  160.0420  213.4910  150.8850 N   0  0  0  0  0  0  0  0  0  0  0  0
  160.6190  212.2240  150.7340 N   0  0  0  0  0  0  0  0  0  0  0  0
  161.2530  213.4350  148.8620 C   0  0  1  0  0  3  0  0  0  0  0  0
  160.5160  214.2900  149.8040 N   0  0  0  0  0  0  0  0  0  0  0  0
  162.0170  211.1510  149.1610 O   0  0  0  0  0  0  0  0  0  0  0  0
  161.3490  212.1540  149.5440 C   0  0  0  0  0  0  0  0  0  0  0  0
  159.1160  213.2250  147.3850 C   0  0  0  0  0  0  0  0  0  0  0  0
  159.9750  213.1660  145.4220 N   0  0  0  0  0  0  0  0  0  0  0  0
  160.4850  213.3040  147.5790 C   0  0  0  0  0  0  0  0  0  0  0  0
  162.4420  213.3120  145.9260 C   0  0  0  0  0  1  0  0  0  0  0  0
  160.9980  213.2650  146.2980 C   0  0  0  0  0  0  0  0  0  0  0  0
  158.2440  213.2400  148.2900 O   0  0  0  0  0  0  0  0  0  0  0  0
  158.8230  213.1380  146.0710 N   0  0  0  0  0  2  0  0  0  0  0  0
  160.0850  213.0960  143.9720 C   0  0  0  0  0  1  0  0  0  0  0  0
  157.5830  212.7950  153.3750 O   0  0  0  0  0  1  0  0  0  0  0  0
  158.1380  211.7840  152.5900 C   0  0  0  0  0  2  0  0  0  0  0  0
  160.9080  208.6030  150.3780 O   0  0  0  0  0  0  0  0  0  0  0  0
  161.4420  208.8560  151.4510 C   0  0  0  0  0  0  0  0  0  0  0  0
  161.7700  207.7340  152.3920 C   0  0  1  0  0  3  0  0  0  0  0  0
  161.2920  206.4560  151.8590 C   0  0  1  0  0  3  0  0  0  0  0  0
  162.7170  206.7990  151.7580 N   0  0  0  0  0  2  0  0  0  0  0  0
  160.9880  204.0590  152.4380 C   0  0  0  0  0  1  0  0  0  0  0  0
  161.1120  205.4620  152.9950 C   0  0  0  0  0  2  0  0  0  0  0  0
  161.6820  210.7380  155.7500 C   0  0  0  0  0  2  0  0  0  0  0  0
  160.0070  209.7070  157.2600 C   0  0  0  0  0  1  0  0  0  0  0  0
  161.3490  208.2610  155.7770 C   0  0  0  0  0  1  0  0  0  0  0  0
  161.3630  209.5240  156.6110 C   0  0  0  0  0  3  0  0  0  0  0  0
  1 31  1  0  0  0  0
  2 25  1  1  0  0  0
  2  6  1  0  0  0  0
  3  9  1  6  0  0  0
  3  2  1  0  0  0  0
  3  5  1  0  0  0  0
  5 23  1  6  0  0  0
  5  7  1  0  0  0  0
  6  4  2  0  0  0  0
  6  1  1  0  0  0  0
  7  1  1  0  0  0  0
  9  8  1  0  0  0  0
 10 16  1  6  0  0  0
 10 13  1  0  0  0  0
 10 11  1  0  0  0  0
 11  8  2  0  0  0  0
 12 13  2  0  0  0  0
 13  9  1  0  0  0  0
 14 16  1  0  0  0  0
 14 19  2  0  0  0  0
 15 20  1  0  0  0  0
 15 18  1  0  0  0  0
 17 18  1  0  0  0  0
 18 16  2  0  0  0  0
 20 14  1  0  0  0  0
 21 15  1  0  0  0  0
 23 22  1  0  0  0  0
 24 25  2  0  0  0  0
 26 25  1  6  0  0  0
 27 26  1  0  0  0  0
 27 30  1  1  0  0  0
 28 27  1  0  0  0  0
 28 26  1  0  0  0  0
 29 30  1  0  0  0  0
 31 34  1  0  0  0  0
 33 34  1  0  0  0  0
 34 32  1  0  0  0  0
M  END
>  <MODEL>
2

>  <REMARK>
 VINA RESULT:      -4.0      3.366      6.941
  Name = 
  8 active torsions:
  status: ('A' for Active; 'I' for Inactive)
    1  A    between atoms: C_1  and  C_18
    2  A    between atoms: C_2  and  N_3
    3  A    between atoms: C_2  and  C_28
    4  A    between atoms: C_8  and  C_13
    5  A    between atoms: N_10  and  C_20
    6  A    between atoms: C_14  and  C_18
    7  A    between atoms: C_19  and  C_31
    8  A    between atoms: C_27  and  C_34
                            x       y       z     vdW  Elec       q    Type
                         _______ _______ _______ _____ _____    ______ ____

>  <TORSDO>
F 8

$$$$
=
 OpenBabel11042422263D

 34 37  0  0  1  0  0  0  0  0999 V2000
  161.6110  208.5410  151.1430 N   0  0  0  0  0  0  0  0  0  0  0  0
  161.0470  210.2260  152.9570 C   0  0  1  0  0  3  0  0  0  0  0  0
  161.0430  211.3160  151.8570 C   0  0  1  0  0  3  0  0  0  0  0  0
  160.4680  207.9110  153.0810 O   0  0  0  0  0  0  0  0  0  0  0  0
  161.3180  210.8440  150.4190 C   0  0  2  0  0  3  0  0  0  0  0  0
  161.0170  208.8260  152.4140 C   0  0  0  0  0  0  0  0  0  0  0  0
  162.2380  209.6290  150.4050 C   0  0  0  0  0  2  0  0  0  0  0  0
  159.7510  213.4320  151.4930 N   0  0  0  0  0  0  0  0  0  0  0  0
  159.8160  212.0990  151.9170 N   0  0  0  0  0  0  0  0  0  0  0  0
  157.6900  212.8370  152.4730 C   0  0  1  0  0  3  0  0  0  0  0  0
  158.4140  213.8700  151.7170 N   0  0  0  0  0  0  0  0  0  0  0  0
  158.3540  210.5490  152.9370 O   0  0  0  0  0  0  0  0  0  0  0  0
  158.6080  211.7090  152.5020 C   0  0  0  0  0  0  0  0  0  0  0  0
  158.2790  213.6290  154.8840 C   0  0  0  0  0  0  0  0  0  0  0  0
  156.3290  214.0490  155.6690 N   0  0  0  0  0  0  0  0  0  0  0  0
  157.3970  213.3260  153.8610 C   0  0  0  0  0  0  0  0  0  0  0  0
  154.8420  213.4550  153.7210 C   0  0  0  0  0  1  0  0  0  0  0  0
  156.1600  213.6110  154.4040 C   0  0  0  0  0  0  0  0  0  0  0  0
  159.5310  213.5320  154.8280 O   0  0  0  0  0  0  0  0  0  0  0  0
  157.6160  214.0630  155.9760 N   0  0  0  0  0  2  0  0  0  0  0  0
  155.2770  214.4530  156.5910 C   0  0  0  0  0  1  0  0  0  0  0  0
  162.5290  211.4860  148.4620 O   0  0  0  0  0  1  0  0  0  0  0  0
  161.9550  211.9780  149.6360 C   0  0  0  0  0  2  0  0  0  0  0  0
  163.3570  210.3500  153.4970 O   0  0  0  0  0  0  0  0  0  0  0  0
  162.2040  210.4070  153.9080 C   0  0  0  0  0  0  0  0  0  0  0  0
  161.9540  210.5050  155.3850 C   0  0  1  0  0  3  0  0  0  0  0  0
  160.5540  210.2000  155.6940 C   0  0  1  0  0  3  0  0  0  0  0  0
  161.5890  209.1840  155.9270 N   0  0  0  0  0  2  0  0  0  0  0  0
  160.9930  212.0780  157.2590 C   0  0  0  0  0  1  0  0  0  0  0  0
  160.1770  210.8240  157.0280 C   0  0  0  0  0  2  0  0  0  0  0  0
  161.4850  207.2220  150.5290 C   0  0  0  0  0  2  0  0  0  0  0  0
  162.5200  207.3200  148.2780 C   0  0  0  0  0  1  0  0  0  0  0  0
  160.3360  206.2050  148.5560 C   0  0  0  0  0  1  0  0  0  0  0  0
  161.2100  207.3430  149.0370 C   0  0  0  0  0  3  0  0  0  0  0  0
  1  6  1  0  0  0  0
  2 25  1  6  0  0  0
  3  9  1  6  0  0  0
  3  2  1  0  0  0  0
  5 23  1  6  0  0  0
  5  3  1  0  0  0  0
  6  2  1  0  0  0  0
  6  4  2  0  0  0  0
  7  5  1  0  0  0  0
  7  1  1  0  0  0  0
  8 11  2  0  0  0  0
  8  9  1  0  0  0  0
  9 13  1  0  0  0  0
 10 13  1  0  0  0  0
 10 16  1  1  0  0  0
 11 10  1  0  0  0  0
 13 12  2  0  0  0  0
 14 20  1  0  0  0  0
 15 20  1  0  0  0  0
 15 21  1  0  0  0  0
 16 18  2  0  0  0  0
 16 14  1  0  0  0  0
 17 18  1  0  0  0  0
 18 15  1  0  0  0  0
 19 14  2  0  0  0  0
 22 23  1  0  0  0  0
 24 25  2  0  0  0  0
 26 25  1  6  0  0  0
 26 27  1  0  0  0  0
 26 28  1  0  0  0  0
 27 28  1  0  0  0  0
 27 30  1  1  0  0  0
 30 29  1  0  0  0  0
 31  1  1  0  0  0  0
 32 34  1  0  0  0  0
 33 34  1  0  0  0  0
 34 31  1  0  0  0  0
M  END
>  <MODEL>
3

>  <REMARK>
 VINA RESULT:      -3.8      3.764      8.668
  Name = 
  8 active torsions:
  status: ('A' for Active; 'I' for Inactive)
    1  A    between atoms: C_1  and  C_18
    2  A    between atoms: C_2  and  N_3
    3  A    between atoms: C_2  and  C_28
    4  A    between atoms: C_8  and  C_13
    5  A    between atoms: N_10  and  C_20
    6  A    between atoms: C_14  and  C_18
    7  A    between atoms: C_19  and  C_31
    8  A    between atoms: C_27  and  C_34
                            x       y       z     vdW  Elec       q    Type
                         _______ _______ _______ _____ _____    ______ ____

>  <TORSDO>
F 8

$$$$
=
 OpenBabel11042422263D

 34 37  0  0  1  0  0  0  0  0999 V2000
  162.1240  212.4360  147.5960 N   0  0  0  0  0  0  0  0  0  0  0  0
  160.7710  212.6500  149.7340 C   0  0  1  0  0  3  0  0  0  0  0  0
  161.0040  211.1360  149.9600 C   0  0  1  0  0  3  0  0  0  0  0  0
  162.0100  214.4530  148.7700 O   0  0  0  0  0  0  0  0  0  0  0  0
  161.8570  210.4070  148.9080 C   0  0  2  0  0  3  0  0  0  0  0  0
  161.6660  213.2450  148.6840 C   0  0  0  0  0  0  0  0  0  0  0  0
  161.7000  211.0440  147.5330 C   0  0  0  0  0  2  0  0  0  0  0  0
  162.8180  210.4300  151.5370 N   0  0  0  0  0  0  0  0  0  0  0  0
  161.5170  210.8920  151.3010 N   0  0  0  0  0  0  0  0  0  0  0  0
  161.6430  210.4940  153.5810 C   0  0  1  0  0  3  0  0  0  0  0  0
  162.9550  210.2910  152.9490 N   0  0  0  0  0  0  0  0  0  0  0  0
  159.6020  211.3660  152.5990 O   0  0  0  0  0  0  0  0  0  0  0  0
  160.7900  210.9460  152.4930 C   0  0  0  0  0  0  0  0  0  0  0  0
  160.8960  207.9980  153.5090 C   0  0  0  0  0  0  0  0  0  0  0  0
  160.4530  207.6400  155.5750 N   0  0  0  0  0  0  0  0  0  0  0  0
  161.1430  209.1990  154.1520 C   0  0  0  0  0  0  0  0  0  0  0  0
  160.9380  209.8870  156.6120 C   0  0  0  0  0  1  0  0  0  0  0  0
  160.8490  208.9260  155.4730 C   0  0  0  0  0  0  0  0  0  0  0  0
  161.0450  207.7790  152.2800 O   0  0  0  0  0  0  0  0  0  0  0  0
  160.4750  207.0630  154.3850 N   0  0  0  0  0  2  0  0  0  0  0  0
  160.0530  206.9540  156.7960 C   0  0  0  0  0  1  0  0  0  0  0  0
  162.4950  208.1630  148.3910 O   0  0  0  0  0  1  0  0  0  0  0  0
  161.4360  208.9490  148.8480 C   0  0  0  0  0  2  0  0  0  0  0  0
  158.4830  212.9010  150.3220 O   0  0  0  0  0  0  0  0  0  0  0  0
  159.3220  212.9460  149.4310 C   0  0  0  0  0  0  0  0  0  0  0  0
  158.8780  213.1490  148.0120 C   0  0  1  0  0  3  0  0  0  0  0  0
  157.4430  212.8840  147.8760 C   0  0  1  0  0  3  0  0  0  0  0  0
  157.9250  214.2710  147.9330 N   0  0  0  0  0  2  0  0  0  0  0  0
  158.3950  212.4810  145.6180 C   0  0  0  0  0  1  0  0  0  0  0  0
  157.1190  212.5420  146.4310 C   0  0  0  0  0  2  0  0  0  0  0  0
  163.0970  212.9460  146.6340 C   0  0  0  0  0  2  0  0  0  0  0  0
  161.5390  214.4040  145.3710 C   0  0  0  0  0  1  0  0  0  0  0  0
  163.4900  213.4310  144.2140 C   0  0  0  0  0  1  0  0  0  0  0  0
  162.4440  213.1930  145.2810 C   0  0  0  0  0  3  0  0  0  0  0  0
  1  6  1  0  0  0  0
  2 25  1  6  0  0  0
  2  3  1  0  0  0  0
  3  9  1  1  0  0  0
  5 23  1  6  0  0  0
  5  3  1  0  0  0  0
  6  4  2  0  0  0  0
  6  2  1  0  0  0  0
  7  1  1  0  0  0  0
  7  5  1  0  0  0  0
  8 11  2  0  0  0  0
  9  8  1  0  0  0  0
  9 13  1  0  0  0  0
 10 16  1  6  0  0  0
 11 10  1  0  0  0  0
 13 12  2  0  0  0  0
 13 10  1  0  0  0  0
 14 16  1  0  0  0  0
 14 20  1  0  0  0  0
 15 21  1  0  0  0  0
 16 18  2  0  0  0  0
 18 15  1  0  0  0  0
 18 17  1  0  0  0  0
 19 14  2  0  0  0  0
 20 15  1  0  0  0  0
 22 23  1  0  0  0  0
 25 24  2  0  0  0  0
 26 25  1  1  0  0  0
 27 30  1  6  0  0  0
 27 28  1  0  0  0  0
 27 26  1  0  0  0  0
 28 26  1  0  0  0  0
 29 30  1  0  0  0  0
 31  1  1  0  0  0  0
 33 34  1  0  0  0  0
 34 32  1  0  0  0  0
 34 31  1  0  0  0  0
M  END
>  <MODEL>
4

>  <REMARK>
 VINA RESULT:      -3.7      3.855      7.525
  Name = 
  8 active torsions:
  status: ('A' for Active; 'I' for Inactive)
    1  A    between atoms: C_1  and  C_18
    2  A    between atoms: C_2  and  N_3
    3  A    between atoms: C_2  and  C_28
    4  A    between atoms: C_8  and  C_13
    5  A    between atoms: N_10  and  C_20
    6  A    between atoms: C_14  and  C_18
    7  A    between atoms: C_19  and  C_31
    8  A    between atoms: C_27  and  C_34
                            x       y       z     vdW  Elec       q    Type
                         _______ _______ _______ _____ _____    ______ ____

>  <TORSDO>
F 8

$$$$
=
 OpenBabel11042422263D

 34 37  0  0  1  0  0  0  0  0999 V2000
  161.3050  207.1960  148.5860 N   0  0  0  0  0  0  0  0  0  0  0  0
  161.3880  207.7090  151.0720 C   0  0  1  0  0  3  0  0  0  0  0  0
  161.8420  209.1410  150.6990 C   0  0  1  0  0  3  0  0  0  0  0  0
  159.9480  206.0600  150.1110 O   0  0  0  0  0  0  0  0  0  0  0  0
  161.9560  209.4580  149.1980 C   0  0  2  0  0  3  0  0  0  0  0  0
  160.8310  206.9340  149.9110 C   0  0  0  0  0  0  0  0  0  0  0  0
  162.3290  208.2150  148.3990 C   0  0  0  0  0  2  0  0  0  0  0  0
  161.1710  211.5090  151.1690 N   0  0  0  0  0  0  0  0  0  0  0  0
  161.0170  210.1320  151.3750 N   0  0  0  0  0  0  0  0  0  0  0  0
  159.5900  211.1620  152.8840 C   0  0  1  0  0  3  0  0  0  0  0  0
  160.2170  212.1590  152.0030 N   0  0  0  0  0  0  0  0  0  0  0  0
  159.7040  208.7410  152.7610 O   0  0  0  0  0  0  0  0  0  0  0  0
  160.0830  209.8870  152.3850 C   0  0  0  0  0  0  0  0  0  0  0  0
  159.3270  211.9780  155.3450 C   0  0  0  0  0  0  0  0  0  0  0  0
  161.2060  211.3740  156.1830 N   0  0  0  0  0  0  0  0  0  0  0  0
  160.0220  211.3870  154.3030 C   0  0  0  0  0  0  0  0  0  0  0  0
  162.3540  210.3300  154.1950 C   0  0  0  0  0  1  0  0  0  0  0  0
  161.2190  211.0120  154.8820 C   0  0  0  0  0  0  0  0  0  0  0  0
  158.1680  212.4580  155.2750 O   0  0  0  0  0  0  0  0  0  0  0  0
  160.0600  211.9660  156.4770 N   0  0  0  0  0  2  0  0  0  0  0  0
  162.2760  211.1640  157.1470 C   0  0  0  0  0  1  0  0  0  0  0  0
  162.5100  211.5410  148.1670 O   0  0  0  0  0  1  0  0  0  0  0  0
  163.0080  210.5330  148.9940 C   0  0  0  0  0  2  0  0  0  0  0  0
  163.4770  206.5780  151.1090 O   0  0  0  0  0  0  0  0  0  0  0  0
  162.4940  206.9360  151.7480 C   0  0  0  0  0  0  0  0  0  0  0  0
  162.3290  206.4720  153.1650 C   0  0  1  0  0  3  0  0  0  0  0  0
  161.0190  206.8700  153.6900 C   0  0  1  0  0  3  0  0  0  0  0  0
  161.2380  205.4850  153.2520 N   0  0  0  0  0  2  0  0  0  0  0  0
  159.7190  207.3300  155.7560 C   0  0  0  0  0  1  0  0  0  0  0  0
  161.0680  206.9130  155.2090 C   0  0  0  0  0  2  0  0  0  0  0  0
  160.6930  206.5570  147.4250 C   0  0  0  0  0  2  0  0  0  0  0  0
  161.5800  204.2420  147.4760 C   0  0  0  0  0  1  0  0  0  0  0  0
  161.3300  205.3920  145.3070 C   0  0  0  0  0  1  0  0  0  0  0  0
  161.6600  205.5800  146.7720 C   0  0  0  0  0  3  0  0  0  0  0  0
  1  6  1  0  0  0  0
  2 25  1  6  0  0  0
  3  2  1  0  0  0  0
  3  9  1  6  0  0  0
  5 23  1  1  0  0  0
  5  3  1  0  0  0  0
  6  4  2  0  0  0  0
  6  2  1  0  0  0  0
  7  1  1  0  0  0  0
  7  5  1  0  0  0  0
  8  9  1  0  0  0  0
  8 11  2  0  0  0  0
  9 13  1  0  0  0  0
 10 16  1  1  0  0  0
 11 10  1  0  0  0  0
 13 12  2  0  0  0  0
 13 10  1  0  0  0  0
 14 20  1  0  0  0  0
 15 20  1  0  0  0  0
 15 21  1  0  0  0  0
 16 18  2  0  0  0  0
 16 14  1  0  0  0  0
 17 18  1  0  0  0  0
 18 15  1  0  0  0  0
 19 14  2  0  0  0  0
 22 23  1  0  0  0  0
 24 25  2  0  0  0  0
 26 25  1  6  0  0  0
 26 28  1  0  0  0  0
 26 27  1  0  0  0  0
 27 30  1  1  0  0  0
 28 27  1  0  0  0  0
 30 29  1  0  0  0  0
 31  1  1  0  0  0  0
 33 34  1  0  0  0  0
 34 31  1  0  0  0  0
 34 32  1  0  0  0  0
M  END
>  <MODEL>
5

>  <REMARK>
 VINA RESULT:      -3.4      2.321      8.082
  Name = 
  8 active torsions:
  status: ('A' for Active; 'I' for Inactive)
    1  A    between atoms: C_1  and  C_18
    2  A    between atoms: C_2  and  N_3
    3  A    between atoms: C_2  and  C_28
    4  A    between atoms: C_8  and  C_13
    5  A    between atoms: N_10  and  C_20
    6  A    between atoms: C_14  and  C_18
    7  A    between atoms: C_19  and  C_31
    8  A    between atoms: C_27  and  C_34
                            x       y       z     vdW  Elec       q    Type
                         _______ _______ _______ _____ _____    ______ ____

>  <TORSDO>
F 8

$$$$
=
 OpenBabel11042422263D

 34 37  0  0  1  0  0  0  0  0999 V2000
  161.1480  208.3250  153.0300 N   0  0  0  0  0  0  0  0  0  0  0  0
  160.5590  210.5810  154.0380 C   0  0  1  0  0  3  0  0  0  0  0  0
  160.7910  211.1980  152.6380 C   0  0  1  0  0  3  0  0  0  0  0  0
  159.7350  208.5020  154.8830 O   0  0  0  0  0  0  0  0  0  0  0  0
  161.1770  210.2240  151.5120 C   0  0  2  0  0  3  0  0  0  0  0  0
  160.4470  209.0820  154.0230 C   0  0  0  0  0  0  0  0  0  0  0  0
  161.9630  209.0360  152.0550 C   0  0  0  0  0  2  0  0  0  0  0  0
  158.3320  211.5580  152.3210 N   0  0  0  0  0  0  0  0  0  0  0  0
  159.6530  212.0170  152.2440 N   0  0  0  0  0  0  0  0  0  0  0  0
  158.3500  213.6720  151.2760 C   0  0  1  0  0  3  0  0  0  0  0  0
  157.5020  212.6110  151.8390 N   0  0  0  0  0  0  0  0  0  0  0  0
  160.7530  213.9560  151.4640 O   0  0  0  0  0  0  0  0  0  0  0  0
  159.7030  213.2720  151.6320 C   0  0  0  0  0  0  0  0  0  0  0  0
  159.1030  213.4460  148.7920 C   0  0  0  0  0  0  0  0  0  0  0  0
  157.2930  213.9610  147.7640 N   0  0  0  0  0  0  0  0  0  0  0  0
  158.1810  213.7290  149.7860 C   0  0  0  0  0  0  0  0  0  0  0  0
  155.7250  214.4480  149.6780 C   0  0  0  0  0  1  0  0  0  0  0  0
  157.0360  214.0510  149.0860 C   0  0  0  0  0  0  0  0  0  0  0  0
  160.2940  213.0880  148.9740 O   0  0  0  0  0  0  0  0  0  0  0  0
  158.5500  213.5950  147.5700 N   0  0  0  0  0  2  0  0  0  0  0  0
  156.3540  214.2200  146.6820 C   0  0  0  0  0  1  0  0  0  0  0  0
  162.0420  210.2400  149.2840 O   0  0  0  0  0  1  0  0  0  0  0  0
  162.0120  210.9610  150.4790 C   0  0  0  0  0  2  0  0  0  0  0  0
  162.7800  210.6750  154.8780 O   0  0  0  0  0  0  0  0  0  0  0  0
  161.6150  211.0270  155.0200 C   0  0  0  0  0  0  0  0  0  0  0  0
  161.2190  211.7780  156.2580 C   0  0  1  0  0  3  0  0  0  0  0  0
  159.7600  211.8370  156.3830 C   0  0  1  0  0  3  0  0  0  0  0  0
  160.5220  210.8800  157.1960 N   0  0  0  0  0  2  0  0  0  0  0  0
  158.5680  214.0150  156.4520 C   0  0  0  0  0  1  0  0  0  0  0  0
  159.3680  213.0150  157.2600 C   0  0  0  0  0  2  0  0  0  0  0  0
  160.9560  206.8830  152.9070 C   0  0  0  0  0  2  0  0  0  0  0  0
  162.9410  205.6940  152.0160 C   0  0  0  0  0  1  0  0  0  0  0  0
  160.7440  205.3440  150.9490 C   0  0  0  0  0  1  0  0  0  0  0  0
  161.6290  206.3530  151.6480 C   0  0  0  0  0  3  0  0  0  0  0  0
  1  6  1  0  0  0  0
  2 25  1  1  0  0  0
  3  9  1  6  0  0  0
  3  2  1  0  0  0  0
  5 23  1  6  0  0  0
  5  7  1  0  0  0  0
  5  3  1  0  0  0  0
  6  2  1  0  0  0  0
  6  4  2  0  0  0  0
  7  1  1  0  0  0  0
  9  8  1  0  0  0  0
 10 16  1  6  0  0  0
 10 13  1  0  0  0  0
 10 11  1  0  0  0  0
 11  8  2  0  0  0  0
 12 13  2  0  0  0  0
 13  9  1  0  0  0  0
 14 19  2  0  0  0  0
 14 16  1  0  0  0  0
 15 18  1  0  0  0  0
 18 17  1  0  0  0  0
 18 16  2  0  0  0  0
 20 15  1  0  0  0  0
 20 14  1  0  0  0  0
 21 15  1  0  0  0  0
 22 23  1  0  0  0  0
 24 25  2  0  0  0  0
 26 25  1  6  0  0  0
 26 27  1  0  0  0  0
 26 28  1  0  0  0  0
 27 28  1  0  0  0  0
 27 30  1  1  0  0  0
 29 30  1  0  0  0  0
 31  1  1  0  0  0  0
 33 34  1  0  0  0  0
 34 32  1  0  0  0  0
 34 31  1  0  0  0  0
M  END
>  <MODEL>
6

>  <REMARK>
 VINA RESULT:      -3.3      3.677      7.556
  Name = 
  8 active torsions:
  status: ('A' for Active; 'I' for Inactive)
    1  A    between atoms: C_1  and  C_18
    2  A    between atoms: C_2  and  N_3
    3  A    between atoms: C_2  and  C_28
    4  A    between atoms: C_8  and  C_13
    5  A    between atoms: N_10  and  C_20
    6  A    between atoms: C_14  and  C_18
    7  A    between atoms: C_19  and  C_31
    8  A    between atoms: C_27  and  C_34
                            x       y       z     vdW  Elec       q    Type
                         _______ _______ _______ _____ _____    ______ ____

>  <TORSDO>
F 8

$$$$
=
 OpenBabel11042422263D

 34 37  0  0  1  0  0  0  0  0999 V2000
  161.1910  207.1680  148.6670 N   0  0  0  0  0  0  0  0  0  0  0  0
  161.0310  206.9470  151.1910 C   0  0  1  0  0  3  0  0  0  0  0  0
  161.5800  208.3910  151.2910 C   0  0  1  0  0  3  0  0  0  0  0  0
  159.6350  205.7430  149.6700 O   0  0  0  0  0  0  0  0  0  0  0  0
  161.8650  209.1120  149.9620 C   0  0  2  0  0  3  0  0  0  0  0  0
  160.5690  206.5740  149.8110 C   0  0  0  0  0  0  0  0  0  0  0  0
  162.2700  208.1240  148.8750 C   0  0  0  0  0  2  0  0  0  0  0  0
  160.3890  210.5270  151.8350 N   0  0  0  0  0  0  0  0  0  0  0  0
  160.7290  209.2050  152.1480 N   0  0  0  0  0  0  0  0  0  0  0  0
  159.5650  210.0100  153.9840 C   0  0  1  0  0  3  0  0  0  0  0  0
  159.5710  211.0040  152.9000 N   0  0  0  0  0  0  0  0  0  0  0  0
  160.3690  207.7200  153.9500 O   0  0  0  0  0  0  0  0  0  0  0  0
  160.2540  208.8610  153.4160 C   0  0  0  0  0  0  0  0  0  0  0  0
  159.8040  210.9940  156.3850 C   0  0  0  0  0  0  0  0  0  0  0  0
  161.9340  211.1690  156.5500 N   0  0  0  0  0  0  0  0  0  0  0  0
  160.3050  210.5440  155.1750 C   0  0  0  0  0  0  0  0  0  0  0  0
  162.7030  210.3290  154.2990 C   0  0  0  0  0  1  0  0  0  0  0  0
  161.6720  210.6710  155.3220 C   0  0  0  0  0  0  0  0  0  0  0  0
  158.5900  211.0430  156.7040 O   0  0  0  0  0  0  0  0  0  0  0  0
  160.8050  211.3720  157.2070 N   0  0  0  0  0  2  0  0  0  0  0  0
  163.2510  211.4540  157.1020 C   0  0  0  0  0  1  0  0  0  0  0  0
  162.7050  211.2910  149.4550 O   0  0  0  0  0  1  0  0  0  0  0  0
  162.9760  210.1250  150.1730 C   0  0  0  0  0  2  0  0  0  0  0  0
  163.2240  206.2020  151.7210 O   0  0  0  0  0  0  0  0  0  0  0  0
  162.0270  205.9400  151.7120 C   0  0  0  0  0  0  0  0  0  0  0  0
  161.5750  204.5570  152.0790 C   0  0  1  0  0  3  0  0  0  0  0  0
  161.6850  203.6550  150.9290 C   0  0  1  0  0  3  0  0  0  0  0  0
  162.7030  203.6120  151.9880 N   0  0  0  0  0  2  0  0  0  0  0  0
  160.6290  201.7010  149.8160 C   0  0  0  0  0  1  0  0  0  0  0  0
  160.7450  202.4740  151.1130 C   0  0  0  0  0  2  0  0  0  0  0  0
  160.6800  206.9280  147.3200 C   0  0  0  0  0  2  0  0  0  0  0  0
  161.7450  204.6910  147.2260 C   0  0  0  0  0  1  0  0  0  0  0  0
  161.1200  205.8210  145.1230 C   0  0  0  0  0  1  0  0  0  0  0  0
  161.6260  206.0320  146.5330 C   0  0  0  0  0  3  0  0  0  0  0  0
  1  7  1  0  0  0  0
  1  6  1  0  0  0  0
  2  3  1  0  0  0  0
  2 25  1  6  0  0  0
  3  9  1  6  0  0  0
  4  6  2  0  0  0  0
  5 23  1  1  0  0  0
  5  3  1  0  0  0  0
  6  2  1  0  0  0  0
  7  5  1  0  0  0  0
  8  9  1  0  0  0  0
  8 11  2  0  0  0  0
  9 13  1  0  0  0  0
 10 16  1  1  0  0  0
 11 10  1  0  0  0  0
 13 12  2  0  0  0  0
 13 10  1  0  0  0  0
 14 19  2  0  0  0  0
 14 20  1  0  0  0  0
 15 21  1  0  0  0  0
 15 20  1  0  0  0  0
 16 18  2  0  0  0  0
 16 14  1  0  0  0  0
 17 18  1  0  0  0  0
 18 15  1  0  0  0  0
 22 23  1  0  0  0  0
 25 24  2  0  0  0  0
 26 25  1  6  0  0  0
 27 30  1  1  0  0  0
 27 28  1  0  0  0  0
 27 26  1  0  0  0  0
 28 26  1  0  0  0  0
 29 30  1  0  0  0  0
 31  1  1  0  0  0  0
 33 34  1  0  0  0  0
 34 32  1  0  0  0  0
 34 31  1  0  0  0  0
M  END
>  <MODEL>
7

>  <REMARK>
 VINA RESULT:      -3.1      2.453      8.302
  Name = 
  8 active torsions:
  status: ('A' for Active; 'I' for Inactive)
    1  A    between atoms: C_1  and  C_18
    2  A    between atoms: C_2  and  N_3
    3  A    between atoms: C_2  and  C_28
    4  A    between atoms: C_8  and  C_13
    5  A    between atoms: N_10  and  C_20
    6  A    between atoms: C_14  and  C_18
    7  A    between atoms: C_19  and  C_31
    8  A    between atoms: C_27  and  C_34
                            x       y       z     vdW  Elec       q    Type
                         _______ _______ _______ _____ _____    ______ ____

>  <TORSDO>
F 8

$$$$
=
 OpenBabel11042422263D

 34 37  0  0  1  0  0  0  0  0999 V2000
  161.4690  202.9060  147.9890 N   0  0  0  0  0  0  0  0  0  0  0  0
  161.5010  205.4220  148.3340 C   0  0  1  0  0  3  0  0  0  0  0  0
  160.8680  205.1770  149.7260 C   0  0  1  0  0  3  0  0  0  0  0  0
  163.0420  204.2640  146.9210 O   0  0  0  0  0  0  0  0  0  0  0  0
  160.6190  203.7120  150.1200 C   0  0  2  0  0  3  0  0  0  0  0  0
  162.0580  204.1790  147.7010 C   0  0  0  0  0  0  0  0  0  0  0  0
  160.3300  202.8530  148.8950 C   0  0  0  0  0  2  0  0  0  0  0  0
  162.4900  205.2000  151.6360 N   0  0  0  0  0  0  0  0  0  0  0  0
  161.6250  205.8690  150.7600 N   0  0  0  0  0  0  0  0  0  0  0  0
  162.3370  207.4610  152.2880 C   0  0  1  0  0  3  0  0  0  0  0  0
  163.0320  206.1850  152.5110 N   0  0  0  0  0  0  0  0  0  0  0  0
  160.8360  208.0770  150.4830 O   0  0  0  0  0  0  0  0  0  0  0  0
  161.5110  207.2160  151.1150 C   0  0  0  0  0  0  0  0  0  0  0  0
  160.8350  206.9510  154.3550 C   0  0  0  0  0  0  0  0  0  0  0  0
  160.4310  208.9300  155.0710 N   0  0  0  0  0  0  0  0  0  0  0  0
  161.4890  207.8000  153.4790 C   0  0  0  0  0  0  0  0  0  0  0  0
  161.6660  210.3540  153.3960 C   0  0  0  0  0  1  0  0  0  0  0  0
  161.2060  209.0580  153.9740 C   0  0  0  0  0  0  0  0  0  0  0  0
  160.8310  205.6950  154.2960 O   0  0  0  0  0  0  0  0  0  0  0  0
  160.1950  207.6510  155.3140 N   0  0  0  0  0  2  0  0  0  0  0  0
  159.9110  210.0150  155.8910 C   0  0  0  0  0  1  0  0  0  0  0  0
  159.8780  203.2310  152.3400 O   0  0  0  0  0  1  0  0  0  0  0  0
  159.4450  203.6460  151.0810 C   0  0  0  0  0  2  0  0  0  0  0  0
  159.4860  206.5760  147.8320 O   0  0  0  0  0  0  0  0  0  0  0  0
  160.5330  206.1090  147.4010 C   0  0  0  0  0  0  0  0  0  0  0  0
  160.7770  206.0910  145.9210 C   0  0  1  0  0  3  0  0  0  0  0  0
  160.1720  204.9030  145.3120 C   0  0  1  0  0  3  0  0  0  0  0  0
  159.4990  206.2030  145.1940 N   0  0  0  0  0  2  0  0  0  0  0  0
  161.5810  205.8280  143.4870 C   0  0  0  0  0  1  0  0  0  0  0  0
  160.8650  204.5940  143.9940 C   0  0  0  0  0  2  0  0  0  0  0  0
  162.0660  201.6690  147.4960 C   0  0  0  0  0  2  0  0  0  0  0  0
  160.4560  201.3600  145.6360 C   0  0  0  0  0  1  0  0  0  0  0  0
  161.5810  199.3870  146.5990 C   0  0  0  0  0  1  0  0  0  0  0  0
  161.0040  200.7510  146.9090 C   0  0  0  0  0  3  0  0  0  0  0  0
  1  7  1  0  0  0  0
  2 25  1  6  0  0  0
  2  3  1  0  0  0  0
  3  5  1  0  0  0  0
  3  9  1  1  0  0  0
  4  6  2  0  0  0  0
  5 23  1  1  0  0  0
  6  1  1  0  0  0  0
  6  2  1  0  0  0  0
  7  5  1  0  0  0  0
  8 11  2  0  0  0  0
  9 13  1  0  0  0  0
  9  8  1  0  0  0  0
 10 11  1  0  0  0  0
 10 16  1  1  0  0  0
 12 13  2  0  0  0  0
 13 10  1  0  0  0  0
 14 20  1  0  0  0  0
 15 20  1  0  0  0  0
 15 21  1  0  0  0  0
 16 18  2  0  0  0  0
 16 14  1  0  0  0  0
 17 18  1  0  0  0  0
 18 15  1  0  0  0  0
 19 14  2  0  0  0  0
 23 22  1  0  0  0  0
 25 24  2  0  0  0  0
 26 25  1  1  0  0  0
 27 30  1  6  0  0  0
 27 26  1  0  0  0  0
 28 27  1  0  0  0  0
 28 26  1  0  0  0  0
 29 30  1  0  0  0  0
 31  1  1  0  0  0  0
 32 34  1  0  0  0  0
 33 34  1  0  0  0  0
 34 31  1  0  0  0  0
M  END
>  <MODEL>
8

>  <REMARK>
 VINA RESULT:      -2.3      2.653      7.668
  Name = 
  8 active torsions:
  status: ('A' for Active; 'I' for Inactive)
    1  A    between atoms: C_1  and  C_18
    2  A    between atoms: C_2  and  N_3
    3  A    between atoms: C_2  and  C_28
    4  A    between atoms: C_8  and  C_13
    5  A    between atoms: N_10  and  C_20
    6  A    between atoms: C_14  and  C_18
    7  A    between atoms: C_19  and  C_31
    8  A    between atoms: C_27  and  C_34
                            x       y       z     vdW  Elec       q    Type
                         _______ _______ _______ _____ _____    ______ ____

>  <TORSDO>
F 8

$$$$
=
 OpenBabel11042422263D

 34 37  0  0  1  0  0  0  0  0999 V2000
  162.2820  209.9110  152.7320 N   0  0  0  0  0  0  0  0  0  0  0  0
  160.4410  209.0010  154.2250 C   0  0  1  0  0  3  0  0  0  0  0  0
  161.0400  209.8460  155.3760 C   0  0  1  0  0  3  0  0  0  0  0  0
  160.2250  209.2350  151.8560 O   0  0  0  0  0  0  0  0  0  0  0  0
  162.2670  210.7070  155.0290 C   0  0  2  0  0  3  0  0  0  0  0  0
  160.9590  209.3820  152.8670 C   0  0  0  0  0  0  0  0  0  0  0  0
  163.1000  210.0630  153.9280 C   0  0  0  0  0  2  0  0  0  0  0  0
  159.0250  210.0980  156.8430 N   0  0  0  0  0  0  0  0  0  0  0  0
  160.0070  210.6510  156.0110 N   0  0  0  0  0  0  0  0  0  0  0  0
  158.5520  212.3840  156.5140 C   0  0  1  0  0  3  0  0  0  0  0  0
  158.1870  211.1710  157.2610 N   0  0  0  0  0  0  0  0  0  0  0  0
  160.5000  212.7830  155.1230 O   0  0  0  0  0  0  0  0  0  0  0  0
  159.7600  212.0090  155.7960 C   0  0  0  0  0  0  0  0  0  0  0  0
  157.2230  212.2920  154.2740 C   0  0  0  0  0  0  0  0  0  0  0  0
  155.6200  213.6530  154.6890 N   0  0  0  0  0  0  0  0  0  0  0  0
  157.4530  212.7510  155.5600 C   0  0  0  0  0  0  0  0  0  0  0  0
  156.1650  214.4040  157.0340 C   0  0  0  0  0  1  0  0  0  0  0  0
  156.4030  213.6190  155.7880 C   0  0  0  0  0  0  0  0  0  0  0  0
  157.9320  211.4600  153.6530 O   0  0  0  0  0  0  0  0  0  0  0  0
  156.1100  212.8510  153.7580 N   0  0  0  0  0  2  0  0  0  0  0  0
  154.4100  214.4450  154.5160 C   0  0  0  0  0  1  0  0  0  0  0  0
  162.8030  209.9060  157.2160 O   0  0  0  0  0  1  0  0  0  0  0  0
  163.1170  210.8880  156.2750 C   0  0  0  0  0  2  0  0  0  0  0  0
  160.9400  207.1170  155.5830 O   0  0  0  0  0  0  0  0  0  0  0  0
  160.6240  207.5230  154.4710 C   0  0  0  0  0  0  0  0  0  0  0  0
  160.5690  206.5580  153.3240 C   0  0  1  0  0  3  0  0  0  0  0  0
  161.9190  206.2440  152.8470 C   0  0  1  0  0  3  0  0  0  0  0  0
  161.2070  205.2830  153.7010 N   0  0  0  0  0  2  0  0  0  0  0  0
  161.6600  204.2540  151.3820 C   0  0  0  0  0  1  0  0  0  0  0  0
  161.8530  205.7560  151.4090 C   0  0  0  0  0  2  0  0  0  0  0  0
  162.7680  210.4120  151.4490 C   0  0  0  0  0  2  0  0  0  0  0  0
  161.7190  211.1910  149.3420 C   0  0  0  0  0  1  0  0  0  0  0  0
  162.2800  208.8020  149.6010 C   0  0  0  0  0  1  0  0  0  0  0  0
  161.8090  210.0440  150.3260 C   0  0  0  0  0  3  0  0  0  0  0  0
  1  6  1  0  0  0  0
  1  7  1  0  0  0  0
  2 25  1  1  0  0  0
  2  3  1  0  0  0  0
  3  9  1  6  0  0  0
  4  6  2  0  0  0  0
  5  3  1  0  0  0  0
  5 23  1  1  0  0  0
  6  2  1  0  0  0  0
  7  5  1  0  0  0  0
  8 11  2  0  0  0  0
  9  8  1  0  0  0  0
 10 16  1  6  0  0  0
 10 11  1  0  0  0  0
 12 13  2  0  0  0  0
 13  9  1  0  0  0  0
 13 10  1  0  0  0  0
 14 16  1  0  0  0  0
 15 18  1  0  0  0  0
 16 18  2  0  0  0  0
 18 17  1  0  0  0  0
 19 14  2  0  0  0  0
 20 14  1  0  0  0  0
 20 15  1  0  0  0  0
 21 15  1  0  0  0  0
 23 22  1  0  0  0  0
 25 24  2  0  0  0  0
 26 28  1  0  0  0  0
 26 25  1  1  0  0  0
 27 30  1  6  0  0  0
 27 26  1  0  0  0  0
 27 28  1  0  0  0  0
 29 30  1  0  0  0  0
 31  1  1  0  0  0  0
 32 34  1  0  0  0  0
 33 34  1  0  0  0  0
 34 31  1  0  0  0  0
M  END
>  <MODEL>
9

>  <REMARK>
 VINA RESULT:      -2.2      3.947      8.804
  Name = 
  8 active torsions:
  status: ('A' for Active; 'I' for Inactive)
    1  A    between atoms: C_1  and  C_18
    2  A    between atoms: C_2  and  N_3
    3  A    between atoms: C_2  and  C_28
    4  A    between atoms: C_8  and  C_13
    5  A    between atoms: N_10  and  C_20
    6  A    between atoms: C_14  and  C_18
    7  A    between atoms: C_19  and  C_31
    8  A    between atoms: C_27  and  C_34
                            x       y       z     vdW  Elec       q    Type
                         _______ _______ _______ _____ _____    ______ ____

>  <TORSDO>
F 8

$$$$
