=
 OpenBabel11052412013D

 61 67  0  0  1  0  0  0  0  0999 V2000
  161.9050  210.7630  149.1610 C   0  0  0  0  0  0  0  0  0  0  0  0
  161.7650  211.0830  151.7500 C   0  0  0  0  0  3  0  0  0  0  0  0
  161.9610  209.4400  148.6410 N   0  0  0  0  0  1  0  0  0  0  0  0
  161.8190  210.9390  150.4520 C   0  0  0  0  0  0  0  0  0  0  0  0
  160.4970  211.1630  152.5050 C   0  0  0  0  0  0  0  0  0  0  0  0
  158.0620  211.2850  153.9160 C   0  0  0  0  0  0  0  0  0  0  0  0
  158.2350  212.0350  152.7460 C   0  0  0  0  0  3  0  0  0  0  0  0
  159.4420  211.9700  152.0440 C   0  0  0  0  0  3  0  0  0  0  0  0
  159.1040  210.4730  154.3740 C   0  0  0  0  0  3  0  0  0  0  0  0
  160.3260  210.4040  153.6830 C   0  0  0  0  0  0  0  0  0  0  0  0
  161.4100  209.5210  154.1680 C   0  0  0  0  0  3  0  0  0  0  0  0
  161.6070  207.0010  153.5050 C   0  0  0  0  0  3  0  0  0  0  0  0
  161.4940  208.2560  153.8500 C   0  0  0  0  0  0  0  0  0  0  0  0
  161.0160  207.0810  151.0930 C   0  0  0  0  0  2  0  0  0  0  0  0
  160.7630  206.4040  152.4260 C   0  0  1  0  0  3  0  0  0  0  0  0
  161.6910  205.7570  151.4020 C   0  0  1  0  0  3  0  0  0  0  0  0
  161.0030  204.6680  150.7030 N   0  0  2  0  0  0  0  0  0  0  0  0
  160.8910  202.2110  150.7270 C   0  0  0  0  0  0  0  0  0  0  0  0
  161.4230  203.4420  151.3970 C   0  0  0  0  0  2  0  0  0  0  0  0
  161.1850  202.1860  146.4330 C   0  0  0  0  0  3  0  0  0  0  0  0
  160.4130  200.9990  148.5430 C   0  0  0  0  0  2  0  0  0  0  0  0
  161.1880  203.3530  147.1000 C   0  0  0  0  0  3  0  0  0  0  0  0
  161.1800  202.1090  149.2580 C   0  0  1  0  0  3  0  0  0  0  0  0
  161.4640  204.6270  149.2950 C   0  0  1  0  0  3  0  0  0  0  0  0
  160.8010  201.1050  151.4650 C   0  0  0  0  0  2  0  0  0  0  0  0
  160.9410  200.8550  147.1140 C   0  0  0  0  0  2  0  0  0  0  0  0
  160.8320  203.4260  148.5680 C   0  0  1  0  0  3  0  0  0  0  0  0
  161.0720  205.9060  148.5540 C   0  0  0  0  0  2  0  0  0  0  0  0
  162.2390  206.4530  147.8670 N   0  0  0  0  0  2  0  0  0  0  0  0
  162.0100  206.5210  146.4170 C   0  0  0  0  0  3  0  0  0  0  0  0
  160.5330  206.5370  146.0790 C   0  0  0  0  0  1  0  0  0  0  0  0
  162.7310  205.4170  145.6720 C   0  0  0  0  0  1  0  0  0  0  0  0
  156.8570  211.5240  156.0010 N   0  0  0  0  0  1  0  0  0  0  0  0
  156.8680  211.3330  154.6380 O   0  0  0  0  0  0  0  0  0  0  0  0
  162.2640  211.8920  148.2980 C   0  0  0  0  0  0  0  0  0  0  0  0
  163.4870  212.1620  148.1370 O   0  0  0  0  0  0  0  0  0  0  0  0
  159.0360  213.4340  148.3890 C   0  0  0  0  0  3  0  0  0  0  0  0
  161.2320  212.6700  147.5770 C   0  0  0  0  0  0  0  0  0  0  0  0
  158.2460  213.3040  147.3210 C   0  0  0  0  0  3  0  0  0  0  0  0
  158.6880  213.3890  145.9070 C   0  0  0  0  0  0  0  0  0  0  0  0
  160.4860  213.7580  148.2860 C   0  0  0  0  0  2  0  0  0  0  0  0
  159.8880  212.9670  145.4770 C   0  0  0  0  0  3  0  0  0  0  0  0
  160.9760  212.3910  146.2940 C   0  0  0  0  0  3  0  0  0  0  0  0
  156.6690  214.4440  145.2450 O   0  0  0  0  0  0  0  0  0  0  0  0
  157.6980  213.8050  144.8960 C   0  0  0  0  0  0  0  0  0  0  0  0
  157.8910  213.4660  143.5520 O   0  0  0  0  0  0  0  0  0  0  0  0
  158.1260  214.4390  142.5400 C   0  0  0  0  0  2  0  0  0  0  0  0
  158.1950  212.9130  140.5380 C   0  0  2  0  0  3  0  0  0  0  0  0
  159.0010  213.8760  141.4230 C   0  0  2  0  0  3  0  0  0  0  0  0
  162.2560  211.8670  141.6290 C   0  0  0  0  0  1  0  0  0  0  0  0
  159.5040  213.0750  138.3040 C   0  0  0  0  0  2  0  0  0  0  0  0
  161.1960  211.3670  138.7900 C   0  0  2  0  0  3  0  0  0  0  0  0
  161.0850  212.5680  140.9690 C   0  0  1  0  0  3  0  0  0  0  0  0
  159.0610  212.2080  139.4700 C   0  0  1  0  0  3  0  0  0  0  0  0
  160.9570  210.0850  138.2960 O   0  0  0  0  0  1  0  0  0  0  0  0
  160.3430  211.5980  140.0300 C   0  0  1  0  0  3  0  0  0  0  0  0
  160.1660  213.1210  142.0490 C   0  0  0  0  0  2  0  0  0  0  0  0
  160.7480  212.3970  137.7540 C   0  0  0  0  0  2  0  0  0  0  0  0
  157.0250  214.1870  138.6550 C   0  0  0  0  0  1  0  0  0  0  0  0
  156.8770  213.5020  140.0020 C   0  0  1  0  0  3  0  0  0  0  0  0
  155.8900  212.5160  139.9340 O   0  0  0  0  0  1  0  0  0  0  0  0
  1  4  2  0  0  0  0
  2  5  1  0  0  0  0
  3  1  1  0  0  0  0
  4  2  2  0  0  0  0
  5 10  1  0  0  0  0
  6  9  1  0  0  0  0
  6 34  1  0  0  0  0
  7  6  2  0  0  0  0
  8  5  2  0  0  0  0
  8  7  1  0  0  0  0
 10 11  1  0  0  0  0
 10  9  2  0  0  0  0
 12 13  2  0  0  0  0
 13 11  2  0  0  0  0
 14 15  1  0  0  0  0
 15 12  1  1  0  0  0
 16 14  1  6  0  0  0
 16 15  1  0  0  0  0
 17 19  1  1  0  0  0
 17 16  1  0  0  0  0
 18 19  1  0  0  0  0
 18 25  2  0  0  0  0
 20 22  2  0  0  0  0
 20 26  1  0  0  0  0
 23 21  1  6  0  0  0
 23 18  1  0  0  0  0
 24 28  1  6  0  0  0
 24 17  1  0  0  0  0
 26 21  1  0  0  0  0
 27 22  1  6  0  0  0
 27 23  1  0  0  0  0
 27 24  1  0  0  0  0
 29 28  1  0  0  0  0
 30 29  1  0  0  0  0
 31 30  1  0  0  0  0
 32 30  1  0  0  0  0
 34 33  1  0  0  0  0
 35  1  1  0  0  0  0
 36 35  2  0  0  0  0
 38 41  1  0  0  0  0
 38 35  1  0  0  0  0
 39 37  2  0  0  0  0
 40 39  1  0  0  0  0
 41 37  1  0  0  0  0
 42 40  2  0  0  0  0
 42 43  1  0  0  0  0
 43 38  2  0  0  0  0
 45 44  2  0  0  0  0
 45 40  1  0  0  0  0
 46 45  1  0  0  0  0
 47 46  1  0  0  0  0
 48 60  1  6  0  0  0
 48 49  1  0  0  0  0
 49 57  1  0  0  0  0
 49 47  1  1  0  0  0
 52 55  1  6  0  0  0
 52 56  1  0  0  0  0
 53 50  1  1  0  0  0
 53 57  1  0  0  0  0
 54 51  1  6  0  0  0
 54 56  1  0  0  0  0
 54 48  1  0  0  0  0
 56 53  1  0  0  0  0
 58 51  1  0  0  0  0
 58 52  1  0  0  0  0
 59 60  1  0  0  0  0
 61 60  1  0  0  0  0
M  END
>  <MODEL>
1

>  <REMARK>
 VINA RESULT:      -7.4      0.000      0.000
  Name = 
  15 active torsions:
  status: ('A' for Active; 'I' for Inactive)
    1  A    between atoms: N_1  and  C_28
    2  A    between atoms: C_2  and  C_47
    3  A    between atoms: C_3  and  C_59
    4  A    between atoms: C_4  and  C_54
    5  A    between atoms: C_9  and  C_49
    6  A    between atoms: C_10  and  C_16
    7  A    between atoms: C_15  and  C_49
    8  A    between atoms: C_20  and  N_23
    9  A    between atoms: C_21  and  C_24
   10  A    between atoms: N_23  and  C_27
   11  A    between atoms: C_24  and  O_42
   12  A    between atoms: C_25  and  C_31
   13  A    between atoms: C_26  and  O_33
   14  A    between atoms: C_27  and  C_39
   15  A    between atoms: O_42  and  C_59
                            x       y       z     vdW  Elec       q    Type
                         _______ _______ _______ _____ _____    ______ ____

>  <TORSDO>
F 15

$$$$
