=
 OpenBabel11052409263D

 35 38  0  0  1  0  0  0  0  0999 V2000
  160.0770  208.3730  155.9080 C   0  0  0  0  0  0  0  0  0  0  0  0
  160.3940  210.0070  153.6580 C   0  0  0  0  0  0  0  0  0  0  0  0
  159.5770  209.6770  155.9160 C   0  0  0  0  0  3  0  0  0  0  0  0
  160.8990  208.6930  153.6400 C   0  0  0  0  0  0  0  0  0  0  0  0
  159.7360  210.4920  154.7940 C   0  0  0  0  0  3  0  0  0  0  0  0
  160.7380  207.8860  154.7780 C   0  0  0  0  0  3  0  0  0  0  0  0
  159.9250  207.5820  156.9960 F   0  0  0  0  0  0  0  0  0  0  0  0
  161.5750  208.2430  152.4920 O   0  0  0  0  0  0  0  0  0  0  0  0
  161.3660  205.7850  152.4630 C   0  0  0  0  0  3  0  0  0  0  0  0
  160.9430  205.9000  149.7030 C   0  0  0  0  0  0  0  0  0  0  0  0
  161.3820  207.0300  151.8110 C   0  0  0  0  0  0  0  0  0  0  0  0
  161.1500  204.6090  151.7400 C   0  0  0  0  0  3  0  0  0  0  0  0
  160.9420  204.6660  150.3590 C   0  0  0  0  0  3  0  0  0  0  0  0
  161.1650  207.0760  150.4290 C   0  0  0  0  0  3  0  0  0  0  0  0
  160.7310  205.9620  148.2310 C   0  0  0  0  0  2  0  0  0  0  0  0
  162.0660  206.1530  147.5180 C   0  0  0  0  0  2  0  0  0  0  0  0
  160.9220  204.3270  144.6260 C   0  0  0  0  0  2  0  0  0  0  0  0
  162.2880  205.1080  146.4280 C   0  0  1  0  0  0  0  0  0  0  0  0
  160.7290  202.1380  145.4210 C   0  0  0  0  0  1  0  0  0  0  0  0
  161.6740  205.5410  145.1180 C   0  0  0  0  0  2  0  0  0  0  0  0
  163.6520  204.8520  146.2620 O   0  0  0  0  0  1  0  0  0  0  0  0
  161.5800  203.8220  146.8040 C   0  0  0  0  0  2  0  0  0  0  0  0
  160.5690  203.5330  145.7940 N   0  0  0  0  0  0  0  0  0  0  0  0
  160.5700  210.9090  152.4810 C   0  0  0  0  0  2  0  0  0  0  0  0
  159.3810  211.8410  152.3600 C   0  0  0  0  0  2  0  0  0  0  0  0
  159.8280  213.1560  151.7550 C   0  0  0  0  0  2  0  0  0  0  0  0
  159.1290  213.3820  150.4570 C   0  0  0  0  0  0  0  0  0  0  0  0
  159.8060  213.1570  149.2120 N   0  0  0  0  0  0  0  0  0  0  0  0
  159.6770  212.5600  146.8330 C   0  0  0  0  0  2  0  0  0  0  0  0
  161.8700  212.5730  147.9870 C   0  0  0  0  0  0  0  0  0  0  0  0
  161.1650  212.7920  149.2130 N   0  0  0  0  0  2  0  0  0  0  0  0
  159.1250  213.4460  147.9470 C   0  0  0  0  0  2  0  0  0  0  0  0
  161.1770  212.7830  146.6790 C   0  0  0  0  0  2  0  0  0  0  0  0
  163.0850  212.2480  148.0110 O   0  0  0  0  0  0  0  0  0  0  0  0
  157.9230  213.7520  150.4680 O   0  0  0  0  0  0  0  0  0  0  0  0
  1  3  1  0  0  0  0
  1  7  1  0  0  0  0
  2  5  1  0  0  0  0
  4  2  2  0  0  0  0
  4  6  1  0  0  0  0
  5  3  2  0  0  0  0
  6  1  2  0  0  0  0
  8  4  1  0  0  0  0
 10 13  2  0  0  0  0
 10 14  1  0  0  0  0
 11  9  1  0  0  0  0
 11  8  1  0  0  0  0
 12  9  2  0  0  0  0
 13 12  1  0  0  0  0
 14 11  2  0  0  0  0
 15 10  1  0  0  0  0
 16 15  1  0  0  0  0
 17 20  1  0  0  0  0
 17 23  1  0  0  0  0
 18 21  1  6  0  0  0
 18 22  1  0  0  0  0
 18 16  1  0  0  0  0
 19 23  1  0  0  0  0
 20 18  1  0  0  0  0
 23 22  1  0  0  0  0
 24  2  1  0  0  0  0
 25 24  1  0  0  0  0
 26 25  1  0  0  0  0
 27 35  2  0  0  0  0
 27 26  1  0  0  0  0
 28 31  1  0  0  0  0
 28 27  1  0  0  0  0
 29 32  1  0  0  0  0
 30 34  2  0  0  0  0
 30 31  1  0  0  0  0
 32 28  1  0  0  0  0
 33 29  1  0  0  0  0
 33 30  1  0  0  0  0
M  END
>  <MODEL>
1

>  <REMARK>
 VINA RESULT:      -8.8      0.000      0.000
  Name = 
  9 active torsions:
  status: ('A' for Active; 'I' for Inactive)
    1  A    between atoms: O_2  and  C_18
    2  A    between atoms: O_2  and  C_26
    3  A    between atoms: C_3  and  C_20
    4  A    between atoms: C_4  and  C_6
    5  A    between atoms: C_4  and  C_11
    6  A    between atoms: C_6  and  C_20
    7  A    between atoms: C_7  and  C_34
    8  A    between atoms: C_21  and  C_27
    9  A    between atoms: C_27  and  C_34
                            x       y       z     vdW  Elec       q    Type
                         _______ _______ _______ _____ _____    ______ ____

>  <TORSDO>
F 9

$$$$
=
 OpenBabel11052409263D

 35 38  0  0  1  0  0  0  0  0999 V2000
  161.7090  208.4680  149.5430 C   0  0  0  0  0  0  0  0  0  0  0  0
  161.3430  206.1830  151.1170 C   0  0  0  0  0  0  0  0  0  0  0  0
  161.2240  207.2930  148.9650 C   0  0  0  0  0  3  0  0  0  0  0  0
  161.8280  207.3640  151.7090 C   0  0  0  0  0  0  0  0  0  0  0  0
  161.0440  206.1520  149.7510 C   0  0  0  0  0  3  0  0  0  0  0  0
  162.0120  208.5020  150.9060 C   0  0  0  0  0  3  0  0  0  0  0  0
  161.8860  209.5740  148.7830 F   0  0  0  0  0  0  0  0  0  0  0  0
  162.1420  207.3560  153.0800 O   0  0  0  0  0  0  0  0  0  0  0  0
  160.5390  206.9660  154.9120 C   0  0  0  0  0  3  0  0  0  0  0  0
  160.6260  209.6950  155.5080 C   0  0  0  0  0  0  0  0  0  0  0  0
  161.3440  207.8180  154.1380 C   0  0  0  0  0  0  0  0  0  0  0  0
  159.7770  207.4750  155.9680 C   0  0  0  0  0  3  0  0  0  0  0  0
  159.8190  208.8400  156.2640 C   0  0  0  0  0  3  0  0  0  0  0  0
  161.3830  209.1830  154.4480 C   0  0  0  0  0  3  0  0  0  0  0  0
  160.6640  211.1500  155.8160 C   0  0  0  0  0  2  0  0  0  0  0  0
  160.1890  211.9530  154.6090 C   0  0  0  0  0  2  0  0  0  0  0  0
  157.0600  211.9800  156.4000 C   0  0  0  0  0  2  0  0  0  0  0  0
  158.7520  212.4380  154.7720 C   0  0  1  0  0  0  0  0  0  0  0  0
  155.5850  210.9490  154.9100 C   0  0  0  0  0  1  0  0  0  0  0  0
  158.4030  212.6470  156.2270 C   0  0  0  0  0  2  0  0  0  0  0  0
  158.5450  213.6160  154.0510 O   0  0  0  0  0  1  0  0  0  0  0  0
  157.7960  211.3720  154.2740 C   0  0  0  0  0  2  0  0  0  0  0  0
  156.9570  210.9410  155.3870 N   0  0  0  0  0  0  0  0  0  0  0  0
  161.1620  204.9410  151.9270 C   0  0  0  0  0  2  0  0  0  0  0  0
  160.3470  203.9280  151.1480 C   0  0  0  0  0  2  0  0  0  0  0  0
  161.2500  202.8060  150.6780 C   0  0  0  0  0  2  0  0  0  0  0  0
  160.6300  202.1060  149.5160 C   0  0  0  0  0  0  0  0  0  0  0  0
  160.8920  202.5420  148.1740 N   0  0  0  0  0  0  0  0  0  0  0  0
  161.0790  201.9890  145.7890 C   0  0  0  0  0  2  0  0  0  0  0  0
  161.9480  204.1530  146.6280 C   0  0  0  0  0  0  0  0  0  0  0  0
  161.6810  203.6870  147.9530 N   0  0  0  0  0  2  0  0  0  0  0  0
  160.2240  201.8840  147.0480 C   0  0  0  0  0  2  0  0  0  0  0  0
  161.3430  203.4530  145.4530 C   0  0  0  0  0  2  0  0  0  0  0  0
  162.6550  205.1790  146.4530 O   0  0  0  0  0  0  0  0  0  0  0  0
  159.8900  201.1080  149.7270 O   0  0  0  0  0  0  0  0  0  0  0  0
  1  6  1  0  0  0  0
  2  4  1  0  0  0  0
  2 24  1  0  0  0  0
  3  1  2  0  0  0  0
  3  5  1  0  0  0  0
  4  8  1  0  0  0  0
  5  2  2  0  0  0  0
  6  4  2  0  0  0  0
  7  1  1  0  0  0  0
  8 11  1  0  0  0  0
  9 12  1  0  0  0  0
 10 15  1  0  0  0  0
 10 13  1  0  0  0  0
 11 14  1  0  0  0  0
 11  9  2  0  0  0  0
 12 13  2  0  0  0  0
 14 10  2  0  0  0  0
 16 18  1  0  0  0  0
 16 15  1  0  0  0  0
 18 21  1  6  0  0  0
 18 20  1  0  0  0  0
 19 23  1  0  0  0  0
 20 17  1  0  0  0  0
 22 18  1  0  0  0  0
 22 23  1  0  0  0  0
 23 17  1  0  0  0  0
 25 24  1  0  0  0  0
 26 25  1  0  0  0  0
 27 35  2  0  0  0  0
 27 26  1  0  0  0  0
 28 27  1  0  0  0  0
 29 32  1  0  0  0  0
 30 31  1  0  0  0  0
 31 28  1  0  0  0  0
 32 28  1  0  0  0  0
 33 29  1  0  0  0  0
 33 30  1  0  0  0  0
 34 30  2  0  0  0  0
M  END
>  <MODEL>
2

>  <REMARK>
 VINA RESULT:      -8.8      3.519      9.184
  Name = 
  9 active torsions:
  status: ('A' for Active; 'I' for Inactive)
    1  A    between atoms: O_2  and  C_18
    2  A    between atoms: O_2  and  C_26
    3  A    between atoms: C_3  and  C_20
    4  A    between atoms: C_4  and  C_6
    5  A    between atoms: C_4  and  C_11
    6  A    between atoms: C_6  and  C_20
    7  A    between atoms: C_7  and  C_34
    8  A    between atoms: C_21  and  C_27
    9  A    between atoms: C_27  and  C_34
                            x       y       z     vdW  Elec       q    Type
                         _______ _______ _______ _____ _____    ______ ____

>  <TORSDO>
F 9

$$$$
=
 OpenBabel11052409263D

 35 38  0  0  1  0  0  0  0  0999 V2000
  161.2960  203.2220  151.4980 C   0  0  0  0  0  0  0  0  0  0  0  0
  160.8480  205.2690  149.6430 C   0  0  0  0  0  0  0  0  0  0  0  0
  160.7460  202.9240  150.2500 C   0  0  0  0  0  3  0  0  0  0  0  0
  161.4060  205.5780  150.8980 C   0  0  0  0  0  0  0  0  0  0  0  0
  160.5210  203.9460  149.3250 C   0  0  0  0  0  3  0  0  0  0  0  0
  161.6210  204.5410  151.8220 C   0  0  0  0  0  3  0  0  0  0  0  0
  161.5130  202.2320  152.3960 F   0  0  0  0  0  0  0  0  0  0  0  0
  161.7030  206.9200  151.1970 O   0  0  0  0  0  0  0  0  0  0  0  0
  161.1440  207.0970  153.5920 C   0  0  0  0  0  3  0  0  0  0  0  0
  160.5860  209.8090  153.2140 C   0  0  0  0  0  0  0  0  0  0  0  0
  161.2730  207.6580  152.3110 C   0  0  0  0  0  0  0  0  0  0  0  0
  160.7300  207.8830  154.6720 C   0  0  0  0  0  3  0  0  0  0  0  0
  160.4490  209.2380  154.4820 C   0  0  0  0  0  3  0  0  0  0  0  0
  160.9950  209.0190  152.1330 C   0  0  0  0  0  3  0  0  0  0  0  0
  160.2780  211.2500  153.0080 C   0  0  0  0  0  2  0  0  0  0  0  0
  158.7960  211.4290  152.6960 C   0  0  0  0  0  2  0  0  0  0  0  0
  158.5580  212.8520  156.0010 C   0  0  0  0  0  2  0  0  0  0  0  0
  158.1010  212.3320  153.7110 C   0  0  1  0  0  0  0  0  0  0  0  0
  156.5890  211.9160  156.8420 C   0  0  0  0  0  1  0  0  0  0  0  0
  159.1000  213.0290  154.6030 C   0  0  0  0  0  2  0  0  0  0  0  0
  157.2930  213.2700  153.0630 O   0  0  0  0  0  1  0  0  0  0  0  0
  157.2450  211.4910  154.6380 C   0  0  0  0  0  2  0  0  0  0  0  0
  157.7420  211.6470  156.0010 N   0  0  0  0  0  0  0  0  0  0  0  0
  160.5750  206.3450  148.6440 C   0  0  0  0  0  2  0  0  0  0  0  0
  161.8610  206.7450  147.9500 C   0  0  0  0  0  2  0  0  0  0  0  0
  162.4160  205.5590  147.1880 C   0  0  0  0  0  2  0  0  0  0  0  0
  161.5990  205.3140  145.9640 C   0  0  0  0  0  0  0  0  0  0  0  0
  161.0680  204.0100  145.6880 N   0  0  0  0  0  0  0  0  0  0  0  0
  159.3220  202.6350  144.6430 C   0  0  0  0  0  2  0  0  0  0  0  0
  160.8770  201.6200  146.2820 C   0  0  0  0  0  0  0  0  0  0  0  0
  161.3810  202.9340  146.5390 N   0  0  0  0  0  2  0  0  0  0  0  0
  160.3220  203.7710  144.4490 C   0  0  0  0  0  2  0  0  0  0  0  0
  160.0460  201.3630  145.0660 C   0  0  0  0  0  2  0  0  0  0  0  0
  161.1710  200.6720  147.0550 O   0  0  0  0  0  0  0  0  0  0  0  0
  161.3600  206.2760  145.1850 O   0  0  0  0  0  0  0  0  0  0  0  0
  1  6  1  0  0  0  0
  1  7  1  0  0  0  0
  2  4  1  0  0  0  0
  3  1  2  0  0  0  0
  4  8  1  0  0  0  0
  4  6  2  0  0  0  0
  5  2  2  0  0  0  0
  5  3  1  0  0  0  0
  8 11  1  0  0  0  0
  9 12  1  0  0  0  0
 10 13  1  0  0  0  0
 11  9  2  0  0  0  0
 13 12  2  0  0  0  0
 14 11  1  0  0  0  0
 14 10  2  0  0  0  0
 15 10  1  0  0  0  0
 16 15  1  0  0  0  0
 16 18  1  0  0  0  0
 18 21  1  6  0  0  0
 18 20  1  0  0  0  0
 18 22  1  0  0  0  0
 20 17  1  0  0  0  0
 22 23  1  0  0  0  0
 23 17  1  0  0  0  0
 23 19  1  0  0  0  0
 24  2  1  0  0  0  0
 25 24  1  0  0  0  0
 26 25  1  0  0  0  0
 27 26  1  0  0  0  0
 28 27  1  0  0  0  0
 28 31  1  0  0  0  0
 29 33  1  0  0  0  0
 30 31  1  0  0  0  0
 30 34  2  0  0  0  0
 32 29  1  0  0  0  0
 32 28  1  0  0  0  0
 33 30  1  0  0  0  0
 35 27  2  0  0  0  0
M  END
>  <MODEL>
3

>  <REMARK>
 VINA RESULT:      -8.7      3.351      9.125
  Name = 
  9 active torsions:
  status: ('A' for Active; 'I' for Inactive)
    1  A    between atoms: O_2  and  C_18
    2  A    between atoms: O_2  and  C_26
    3  A    between atoms: C_3  and  C_20
    4  A    between atoms: C_4  and  C_6
    5  A    between atoms: C_4  and  C_11
    6  A    between atoms: C_6  and  C_20
    7  A    between atoms: C_7  and  C_34
    8  A    between atoms: C_21  and  C_27
    9  A    between atoms: C_27  and  C_34
                            x       y       z     vdW  Elec       q    Type
                         _______ _______ _______ _____ _____    ______ ____

>  <TORSDO>
F 9

$$$$
=
 OpenBabel11052409263D

 35 38  0  0  1  0  0  0  0  0999 V2000
  161.6150  208.4670  149.4090 C   0  0  0  0  0  0  0  0  0  0  0  0
  161.3950  206.1610  150.9800 C   0  0  0  0  0  0  0  0  0  0  0  0
  161.2330  207.2570  148.8240 C   0  0  0  0  0  3  0  0  0  0  0  0
  161.7770  207.3770  151.5790 C   0  0  0  0  0  0  0  0  0  0  0  0
  161.1250  206.1070  149.6080 C   0  0  0  0  0  3  0  0  0  0  0  0
  161.8890  208.5250  150.7770 C   0  0  0  0  0  3  0  0  0  0  0  0
  161.7220  209.5830  148.6490 F   0  0  0  0  0  0  0  0  0  0  0  0
  162.0640  207.3940  152.9550 O   0  0  0  0  0  0  0  0  0  0  0  0
  160.5850  206.9360  154.8740 C   0  0  0  0  0  3  0  0  0  0  0  0
  160.2420  209.6900  155.2070 C   0  0  0  0  0  0  0  0  0  0  0  0
  161.2250  207.8250  153.9940 C   0  0  0  0  0  0  0  0  0  0  0  0
  159.7740  207.4200  155.9050 C   0  0  0  0  0  3  0  0  0  0  0  0
  159.6000  208.7960  156.0700 C   0  0  0  0  0  3  0  0  0  0  0  0
  161.0490  209.2020  154.1730 C   0  0  0  0  0  3  0  0  0  0  0  0
  160.0500  211.1560  155.3750 C   0  0  0  0  0  2  0  0  0  0  0  0
  158.6730  211.5660  154.8640 C   0  0  0  0  0  2  0  0  0  0  0  0
  157.6810  213.5040  151.9900 C   0  0  0  0  0  2  0  0  0  0  0  0
  158.7240  212.8490  154.0410 C   0  0  1  0  0  0  0  0  0  0  0  0
  159.6710  213.7250  150.7860 C   0  0  0  0  0  1  0  0  0  0  0  0
  157.3790  213.1650  153.4300 C   0  0  0  0  0  2  0  0  0  0  0  0
  159.1620  213.9200  154.8250 O   0  0  0  0  0  1  0  0  0  0  0  0
  159.6690  212.6650  152.8710 C   0  0  0  0  0  2  0  0  0  0  0  0
  158.9150  212.8190  151.6320 N   0  0  0  0  0  0  0  0  0  0  0  0
  161.2950  204.9100  151.7890 C   0  0  0  0  0  2  0  0  0  0  0  0
  160.4070  203.9060  151.0810 C   0  0  0  0  0  2  0  0  0  0  0  0
  161.2350  202.7100  150.6560 C   0  0  0  0  0  2  0  0  0  0  0  0
  160.5860  202.0280  149.4990 C   0  0  0  0  0  0  0  0  0  0  0  0
  160.8450  202.4600  148.1560 N   0  0  0  0  0  0  0  0  0  0  0  0
  160.9940  201.9070  145.7680 C   0  0  0  0  0  2  0  0  0  0  0  0
  161.9240  204.0470  146.6010 C   0  0  0  0  0  0  0  0  0  0  0  0
  161.6590  203.5850  147.9290 N   0  0  0  0  0  2  0  0  0  0  0  0
  160.1490  201.8200  147.0350 C   0  0  0  0  0  2  0  0  0  0  0  0
  161.2910  203.3640  145.4310 C   0  0  0  0  0  2  0  0  0  0  0  0
  162.6540  205.0560  146.4210 O   0  0  0  0  0  0  0  0  0  0  0  0
  159.8230  201.0470  149.7160 O   0  0  0  0  0  0  0  0  0  0  0  0
  1  6  1  0  0  0  0
  2  4  1  0  0  0  0
  2 24  1  0  0  0  0
  3  1  2  0  0  0  0
  3  5  1  0  0  0  0
  4  8  1  0  0  0  0
  5  2  2  0  0  0  0
  6  4  2  0  0  0  0
  7  1  1  0  0  0  0
  8 11  1  0  0  0  0
  9 12  1  0  0  0  0
 10 15  1  0  0  0  0
 10 13  1  0  0  0  0
 11 14  1  0  0  0  0
 11  9  2  0  0  0  0
 12 13  2  0  0  0  0
 14 10  2  0  0  0  0
 16 15  1  0  0  0  0
 17 20  1  0  0  0  0
 18 21  1  1  0  0  0
 18 16  1  0  0  0  0
 19 23  1  0  0  0  0
 20 18  1  0  0  0  0
 22 18  1  0  0  0  0
 23 17  1  0  0  0  0
 23 22  1  0  0  0  0
 25 24  1  0  0  0  0
 26 25  1  0  0  0  0
 27 35  2  0  0  0  0
 27 26  1  0  0  0  0
 28 27  1  0  0  0  0
 29 32  1  0  0  0  0
 30 31  1  0  0  0  0
 31 28  1  0  0  0  0
 32 28  1  0  0  0  0
 33 29  1  0  0  0  0
 33 30  1  0  0  0  0
 34 30  2  0  0  0  0
M  END
>  <MODEL>
4

>  <REMARK>
 VINA RESULT:      -8.7      2.732      8.946
  Name = 
  9 active torsions:
  status: ('A' for Active; 'I' for Inactive)
    1  A    between atoms: O_2  and  C_18
    2  A    between atoms: O_2  and  C_26
    3  A    between atoms: C_3  and  C_20
    4  A    between atoms: C_4  and  C_6
    5  A    between atoms: C_4  and  C_11
    6  A    between atoms: C_6  and  C_20
    7  A    between atoms: C_7  and  C_34
    8  A    between atoms: C_21  and  C_27
    9  A    between atoms: C_27  and  C_34
                            x       y       z     vdW  Elec       q    Type
                         _______ _______ _______ _____ _____    ______ ____

>  <TORSDO>
F 9

$$$$
=
 OpenBabel11052409263D

 35 38  0  0  1  0  0  0  0  0999 V2000
  161.8720  209.6190  150.8170 C   0  0  0  0  0  0  0  0  0  0  0  0
  161.1100  208.0880  153.0330 C   0  0  0  0  0  0  0  0  0  0  0  0
  161.0440  210.1720  151.7970 C   0  0  0  0  0  3  0  0  0  0  0  0
  161.9470  207.5230  152.0520 C   0  0  0  0  0  0  0  0  0  0  0  0
  160.6630  209.4070  152.9010 C   0  0  0  0  0  3  0  0  0  0  0  0
  162.3170  208.3010  150.9420 C   0  0  0  0  0  3  0  0  0  0  0  0
  162.2410  210.3590  149.7450 F   0  0  0  0  0  0  0  0  0  0  0  0
  162.3600  206.1870  152.2000 O   0  0  0  0  0  0  0  0  0  0  0  0
  161.2230  204.0200  152.5090 C   0  0  0  0  0  3  0  0  0  0  0  0
  160.9460  203.8220  149.7360 C   0  0  0  0  0  0  0  0  0  0  0  0
  161.7330  205.0400  151.6880 C   0  0  0  0  0  0  0  0  0  0  0  0
  160.5900  202.9080  151.9480 C   0  0  0  0  0  3  0  0  0  0  0  0
  160.4540  202.8080  150.5610 C   0  0  0  0  0  3  0  0  0  0  0  0
  161.5850  204.9330  150.3010 C   0  0  0  0  0  3  0  0  0  0  0  0
  160.8110  203.7130  148.2580 C   0  0  0  0  0  2  0  0  0  0  0  0
  162.1230  204.0970  147.5820 C   0  0  0  0  0  2  0  0  0  0  0  0
  160.2030  206.0160  145.2100 C   0  0  0  0  0  2  0  0  0  0  0  0
  161.9640  205.3040  146.6640 C   0  0  1  0  0  0  0  0  0  0  0  0
  161.4440  205.8210  143.2390 C   0  0  0  0  0  1  0  0  0  0  0  0
  160.5430  205.8150  146.6670 C   0  0  0  0  0  2  0  0  0  0  0  0
  162.8450  206.3240  147.0330 O   0  0  0  0  0  1  0  0  0  0  0  0
  162.2460  204.8940  145.2320 C   0  0  0  0  0  2  0  0  0  0  0  0
  161.0400  205.1090  144.4390 N   0  0  0  0  0  0  0  0  0  0  0  0
  160.6670  207.2860  154.2120 C   0  0  0  0  0  2  0  0  0  0  0  0
  161.2340  207.8820  155.4850 C   0  0  0  0  0  2  0  0  0  0  0  0
  160.1200  208.5350  156.2780 C   0  0  0  0  0  2  0  0  0  0  0  0
  160.4340  209.9760  156.5030 C   0  0  0  0  0  0  0  0  0  0  0  0
  159.4620  210.9910  156.2100 N   0  0  0  0  0  0  0  0  0  0  0  0
  158.5600  213.2260  156.6770 C   0  0  0  0  0  2  0  0  0  0  0  0
  157.2470  211.6220  155.3190 C   0  0  0  0  0  0  0  0  0  0  0  0
  158.2300  210.6320  155.6340 N   0  0  0  0  0  2  0  0  0  0  0  0
  159.8100  212.4050  156.3760 C   0  0  0  0  0  2  0  0  0  0  0  0
  157.5430  213.0690  155.5510 C   0  0  0  0  0  2  0  0  0  0  0  0
  156.1520  211.2790  154.8030 O   0  0  0  0  0  0  0  0  0  0  0  0
  161.5580  210.2900  156.9790 O   0  0  0  0  0  0  0  0  0  0  0  0
  1  6  2  0  0  0  0
  1  3  1  0  0  0  0
  2 24  1  0  0  0  0
  3  5  2  0  0  0  0
  4  8  1  0  0  0  0
  4  2  2  0  0  0  0
  5  2  1  0  0  0  0
  6  4  1  0  0  0  0
  7  1  1  0  0  0  0
 10 14  2  0  0  0  0
 10 13  1  0  0  0  0
 11  8  1  0  0  0  0
 11  9  2  0  0  0  0
 12  9  1  0  0  0  0
 13 12  2  0  0  0  0
 14 11  1  0  0  0  0
 15 10  1  0  0  0  0
 16 15  1  0  0  0  0
 17 20  1  0  0  0  0
 18 20  1  0  0  0  0
 18 21  1  1  0  0  0
 18 16  1  0  0  0  0
 19 23  1  0  0  0  0
 22 18  1  0  0  0  0
 23 17  1  0  0  0  0
 23 22  1  0  0  0  0
 24 25  1  0  0  0  0
 25 26  1  0  0  0  0
 26 27  1  0  0  0  0
 27 35  2  0  0  0  0
 28 32  1  0  0  0  0
 28 27  1  0  0  0  0
 30 33  1  0  0  0  0
 30 31  1  0  0  0  0
 31 28  1  0  0  0  0
 32 29  1  0  0  0  0
 33 29  1  0  0  0  0
 34 30  2  0  0  0  0
M  END
>  <MODEL>
5

>  <REMARK>
 VINA RESULT:      -8.6      3.452      5.268
  Name = 
  9 active torsions:
  status: ('A' for Active; 'I' for Inactive)
    1  A    between atoms: O_2  and  C_18
    2  A    between atoms: O_2  and  C_26
    3  A    between atoms: C_3  and  C_20
    4  A    between atoms: C_4  and  C_6
    5  A    between atoms: C_4  and  C_11
    6  A    between atoms: C_6  and  C_20
    7  A    between atoms: C_7  and  C_34
    8  A    between atoms: C_21  and  C_27
    9  A    between atoms: C_27  and  C_34
                            x       y       z     vdW  Elec       q    Type
                         _______ _______ _______ _____ _____    ______ ____

>  <TORSDO>
F 9

$$$$
=
 OpenBabel11052409263D

 35 38  0  0  1  0  0  0  0  0999 V2000
  160.2050  207.4880  155.9970 C   0  0  0  0  0  0  0  0  0  0  0  0
  160.5700  209.1560  153.7800 C   0  0  0  0  0  0  0  0  0  0  0  0
  159.7000  208.7900  156.0130 C   0  0  0  0  0  3  0  0  0  0  0  0
  161.0800  207.8440  153.7550 C   0  0  0  0  0  0  0  0  0  0  0  0
  159.8830  209.6220  154.9070 C   0  0  0  0  0  3  0  0  0  0  0  0
  160.8950  207.0200  154.8770 C   0  0  0  0  0  3  0  0  0  0  0  0
  160.0300  206.6810  157.0700 F   0  0  0  0  0  0  0  0  0  0  0  0
  161.7860  207.4130  152.6170 O   0  0  0  0  0  0  0  0  0  0  0  0
  161.2250  205.0450  152.2180 C   0  0  0  0  0  3  0  0  0  0  0  0
  160.9520  205.6170  149.4960 C   0  0  0  0  0  0  0  0  0  0  0  0
  161.4510  206.3540  151.7590 C   0  0  0  0  0  0  0  0  0  0  0  0
  160.8750  204.0300  151.3220 C   0  0  0  0  0  3  0  0  0  0  0  0
  160.7410  204.3160  149.9610 C   0  0  0  0  0  3  0  0  0  0  0  0
  161.3080  206.6290  150.3940 C   0  0  0  0  0  3  0  0  0  0  0  0
  160.8200  205.9200  148.0450 C   0  0  0  0  0  2  0  0  0  0  0  0
  162.1880  205.8720  147.3730 C   0  0  0  0  0  2  0  0  0  0  0  0
  160.5480  204.2400  144.6070 C   0  0  0  0  0  2  0  0  0  0  0  0
  162.2130  204.9090  146.1900 C   0  0  1  0  0  0  0  0  0  0  0  0
  160.4970  201.9990  145.2660 C   0  0  0  0  0  1  0  0  0  0  0  0
  161.3760  205.4250  145.0430 C   0  0  0  0  0  2  0  0  0  0  0  0
  163.5250  204.6810  145.7680 O   0  0  0  0  0  1  0  0  0  0  0  0
  161.5810  203.5910  146.5930 C   0  0  0  0  0  2  0  0  0  0  0  0
  160.4070  203.3620  145.7590 N   0  0  0  0  0  0  0  0  0  0  0  0
  160.7710  210.0760  152.6210 C   0  0  0  0  0  2  0  0  0  0  0  0
  160.4170  211.4950  153.0190 C   0  0  0  0  0  2  0  0  0  0  0  0
  159.0980  211.8840  152.3830 C   0  0  0  0  0  2  0  0  0  0  0  0
  158.5530  213.1050  153.0470 C   0  0  0  0  0  0  0  0  0  0  0  0
  157.5620  212.9960  154.0780 N   0  0  0  0  0  0  0  0  0  0  0  0
  156.5310  213.9300  156.1020 C   0  0  0  0  0  2  0  0  0  0  0  0
  156.0420  211.5960  155.4310 C   0  0  0  0  0  0  0  0  0  0  0  0
  157.0410  211.7340  154.4160 N   0  0  0  0  0  2  0  0  0  0  0  0
  156.9920  214.2080  154.6740 C   0  0  0  0  0  2  0  0  0  0  0  0
  155.4970  212.8100  156.1130 C   0  0  0  0  0  2  0  0  0  0  0  0
  155.5890  210.4570  155.7160 O   0  0  0  0  0  0  0  0  0  0  0  0
  158.9960  214.2350  152.7060 O   0  0  0  0  0  0  0  0  0  0  0  0
  1  3  1  0  0  0  0
  1  7  1  0  0  0  0
  2  5  1  0  0  0  0
  4  2  2  0  0  0  0
  4  6  1  0  0  0  0
  5  3  2  0  0  0  0
  6  1  2  0  0  0  0
  8  4  1  0  0  0  0
 10 13  2  0  0  0  0
 10 14  1  0  0  0  0
 11  9  1  0  0  0  0
 11  8  1  0  0  0  0
 12  9  2  0  0  0  0
 13 12  1  0  0  0  0
 14 11  2  0  0  0  0
 15 10  1  0  0  0  0
 16 15  1  0  0  0  0
 17 20  1  0  0  0  0
 17 23  1  0  0  0  0
 18 21  1  6  0  0  0
 18 22  1  0  0  0  0
 18 16  1  0  0  0  0
 19 23  1  0  0  0  0
 20 18  1  0  0  0  0
 23 22  1  0  0  0  0
 24 25  1  0  0  0  0
 24  2  1  0  0  0  0
 26 25  1  0  0  0  0
 26 27  1  0  0  0  0
 27 28  1  0  0  0  0
 28 31  1  0  0  0  0
 28 32  1  0  0  0  0
 29 33  1  0  0  0  0
 30 34  2  0  0  0  0
 30 33  1  0  0  0  0
 31 30  1  0  0  0  0
 32 29  1  0  0  0  0
 35 27  2  0  0  0  0
M  END
>  <MODEL>
6

>  <REMARK>
 VINA RESULT:      -8.5      2.680      4.073
  Name = 
  9 active torsions:
  status: ('A' for Active; 'I' for Inactive)
    1  A    between atoms: O_2  and  C_18
    2  A    between atoms: O_2  and  C_26
    3  A    between atoms: C_3  and  C_20
    4  A    between atoms: C_4  and  C_6
    5  A    between atoms: C_4  and  C_11
    6  A    between atoms: C_6  and  C_20
    7  A    between atoms: C_7  and  C_34
    8  A    between atoms: C_21  and  C_27
    9  A    between atoms: C_27  and  C_34
                            x       y       z     vdW  Elec       q    Type
                         _______ _______ _______ _____ _____    ______ ____

>  <TORSDO>
F 9

$$$$
=
 OpenBabel11052409263D

 35 38  0  0  1  0  0  0  0  0999 V2000
  160.5380  207.6300  154.8050 C   0  0  0  0  0  0  0  0  0  0  0  0
  160.7050  209.8010  153.0470 C   0  0  0  0  0  0  0  0  0  0  0  0
  159.9570  208.8520  155.1480 C   0  0  0  0  0  3  0  0  0  0  0  0
  161.2910  208.5710  152.6910 C   0  0  0  0  0  0  0  0  0  0  0  0
  160.0420  209.9350  154.2720 C   0  0  0  0  0  3  0  0  0  0  0  0
  161.2050  207.4910  153.5860 C   0  0  0  0  0  3  0  0  0  0  0  0
  160.4590  206.5790  155.6550 F   0  0  0  0  0  0  0  0  0  0  0  0
  161.9710  208.4740  151.4640 O   0  0  0  0  0  0  0  0  0  0  0  0
  161.7570  208.0180  149.0500 C   0  0  0  0  0  3  0  0  0  0  0  0
  161.0360  205.3870  149.6580 C   0  0  0  0  0  0  0  0  0  0  0  0
  161.6760  207.6150  150.3930 C   0  0  0  0  0  0  0  0  0  0  0  0
  161.4700  207.1160  148.0210 C   0  0  0  0  0  3  0  0  0  0  0  0
  161.1080  205.8020  148.3250 C   0  0  0  0  0  3  0  0  0  0  0  0
  161.3180  206.2940  150.6860 C   0  0  0  0  0  3  0  0  0  0  0  0
  160.6400  203.9910  149.9840 C   0  0  0  0  0  2  0  0  0  0  0  0
  161.5360  203.0050  149.2410 C   0  0  0  0  0  2  0  0  0  0  0  0
  161.3400  200.2020  146.9820 C   0  0  0  0  0  2  0  0  0  0  0  0
  160.7310  201.9230  148.5280 C   0  0  1  0  0  0  0  0  0  0  0  0
  160.0790  201.0410  145.2020 C   0  0  0  0  0  1  0  0  0  0  0  0
  161.5150  200.6370  148.4170 C   0  0  0  0  0  2  0  0  0  0  0  0
  159.5190  201.6960  149.1850 O   0  0  0  0  0  1  0  0  0  0  0  0
  160.4530  202.3540  147.1010 C   0  0  0  0  0  2  0  0  0  0  0  0
  161.0780  201.3980  146.1940 N   0  0  0  0  0  0  0  0  0  0  0  0
  160.8010  210.9830  152.1400 C   0  0  0  0  0  2  0  0  0  0  0  0
  159.6180  211.9040  152.3630 C   0  0  0  0  0  2  0  0  0  0  0  0
  159.8730  213.2310  151.6790 C   0  0  0  0  0  2  0  0  0  0  0  0
  159.0980  213.3050  150.4060 C   0  0  0  0  0  0  0  0  0  0  0  0
  159.7630  213.2150  149.1380 N   0  0  0  0  0  0  0  0  0  0  0  0
  159.6750  212.5930  146.7640 C   0  0  0  0  0  2  0  0  0  0  0  0
  161.8580  213.0550  147.8400 C   0  0  0  0  0  0  0  0  0  0  0  0
  161.1670  213.1320  149.0900 N   0  0  0  0  0  2  0  0  0  0  0  0
  158.9940  213.3530  147.8980 C   0  0  0  0  0  2  0  0  0  0  0  0
  161.0920  213.1140  146.5580 C   0  0  0  0  0  2  0  0  0  0  0  0
  163.1140  212.9830  147.8210 O   0  0  0  0  0  0  0  0  0  0  0  0
  157.8430  213.4220  150.4600 O   0  0  0  0  0  0  0  0  0  0  0  0
  1  3  1  0  0  0  0
  1  7  1  0  0  0  0
  2  5  1  0  0  0  0
  4  2  2  0  0  0  0
  4  6  1  0  0  0  0
  5  3  2  0  0  0  0
  6  1  2  0  0  0  0
  8  4  1  0  0  0  0
  9 11  1  0  0  0  0
 10 15  1  0  0  0  0
 10 14  1  0  0  0  0
 11 14  2  0  0  0  0
 11  8  1  0  0  0  0
 12 13  1  0  0  0  0
 12  9  2  0  0  0  0
 13 10  2  0  0  0  0
 16 15  1  0  0  0  0
 17 20  1  0  0  0  0
 18 21  1  1  0  0  0
 18 16  1  0  0  0  0
 19 23  1  0  0  0  0
 20 18  1  0  0  0  0
 22 18  1  0  0  0  0
 23 17  1  0  0  0  0
 23 22  1  0  0  0  0
 24 25  1  0  0  0  0
 24  2  1  0  0  0  0
 26 25  1  0  0  0  0
 27 35  2  0  0  0  0
 27 26  1  0  0  0  0
 28 27  1  0  0  0  0
 29 32  1  0  0  0  0
 30 31  1  0  0  0  0
 31 28  1  0  0  0  0
 32 28  1  0  0  0  0
 33 29  1  0  0  0  0
 33 30  1  0  0  0  0
 34 30  2  0  0  0  0
M  END
>  <MODEL>
7

>  <REMARK>
 VINA RESULT:      -8.3      1.646      2.389
  Name = 
  9 active torsions:
  status: ('A' for Active; 'I' for Inactive)
    1  A    between atoms: O_2  and  C_18
    2  A    between atoms: O_2  and  C_26
    3  A    between atoms: C_3  and  C_20
    4  A    between atoms: C_4  and  C_6
    5  A    between atoms: C_4  and  C_11
    6  A    between atoms: C_6  and  C_20
    7  A    between atoms: C_7  and  C_34
    8  A    between atoms: C_21  and  C_27
    9  A    between atoms: C_27  and  C_34
                            x       y       z     vdW  Elec       q    Type
                         _______ _______ _______ _____ _____    ______ ____

>  <TORSDO>
F 9

$$$$
=
 OpenBabel11052409263D

 35 38  0  0  1  0  0  0  0  0999 V2000
  161.2550  208.6430  152.6740 C   0  0  0  0  0  0  0  0  0  0  0  0
  161.8480  208.4670  149.9440 C   0  0  0  0  0  0  0  0  0  0  0  0
  161.1320  207.4200  152.0100 C   0  0  0  0  0  3  0  0  0  0  0  0
  161.9780  209.7030  150.6060 C   0  0  0  0  0  0  0  0  0  0  0  0
  161.4260  207.3340  150.6480 C   0  0  0  0  0  3  0  0  0  0  0  0
  161.6720  209.7780  151.9750 C   0  0  0  0  0  3  0  0  0  0  0  0
  160.9680  208.7290  153.9940 F   0  0  0  0  0  0  0  0  0  0  0  0
  162.3810  210.8290  149.8660 O   0  0  0  0  0  0  0  0  0  0  0  0
  161.5180  212.1410  147.9640 C   0  0  0  0  0  3  0  0  0  0  0  0
  159.8720  213.5400  149.7360 C   0  0  0  0  0  0  0  0  0  0  0  0
  161.5600  211.8370  149.3350 C   0  0  0  0  0  0  0  0  0  0  0  0
  160.6680  213.1420  147.4860 C   0  0  0  0  0  3  0  0  0  0  0  0
  159.8470  213.8430  148.3720 C   0  0  0  0  0  3  0  0  0  0  0  0
  160.7290  212.5410  150.2130 C   0  0  0  0  0  3  0  0  0  0  0  0
  159.0060  214.2940  150.6830 C   0  0  0  0  0  2  0  0  0  0  0  0
  157.9960  213.3520  151.3310 C   0  0  0  0  0  2  0  0  0  0  0  0
  157.8870  211.5200  154.4350 C   0  0  0  0  0  2  0  0  0  0  0  0
  158.1620  213.2880  152.8460 C   0  0  1  0  0  0  0  0  0  0  0  0
  156.1120  212.5190  155.5800 C   0  0  0  0  0  1  0  0  0  0  0  0
  158.7510  211.9660  153.2800 C   0  0  0  0  0  2  0  0  0  0  0  0
  158.9560  214.3440  153.3010 O   0  0  0  0  0  1  0  0  0  0  0  0
  156.8010  213.3630  153.5100 C   0  0  0  0  0  2  0  0  0  0  0  0
  156.5780  212.1330  154.2600 N   0  0  0  0  0  0  0  0  0  0  0  0
  162.1330  208.3490  148.4830 C   0  0  0  0  0  2  0  0  0  0  0  0
  162.3320  206.8940  148.1100 C   0  0  0  0  0  2  0  0  0  0  0  0
  161.0270  206.3200  147.5960 C   0  0  0  0  0  2  0  0  0  0  0  0
  161.2060  204.8800  147.2490 C   0  0  0  0  0  0  0  0  0  0  0  0
  161.0660  203.8630  148.2510 N   0  0  0  0  0  0  0  0  0  0  0  0
  160.4980  201.5420  148.8170 C   0  0  0  0  0  2  0  0  0  0  0  0
  160.7010  203.2380  150.6130 C   0  0  0  0  0  0  0  0  0  0  0  0
  160.8320  204.2290  149.5890 N   0  0  0  0  0  2  0  0  0  0  0  0
  161.3090  202.4590  147.9070 C   0  0  0  0  0  2  0  0  0  0  0  0
  160.8650  201.7900  150.2760 C   0  0  0  0  0  2  0  0  0  0  0  0
  160.4930  203.5880  151.8030 O   0  0  0  0  0  0  0  0  0  0  0  0
  161.4590  204.5660  146.0540 O   0  0  0  0  0  0  0  0  0  0  0  0
  1  7  1  0  0  0  0
  2  4  2  0  0  0  0
  2  5  1  0  0  0  0
  3  1  1  0  0  0  0
  4  6  1  0  0  0  0
  5  3  2  0  0  0  0
  6  1  2  0  0  0  0
  8  4  1  0  0  0  0
  9 11  1  0  0  0  0
 10 14  1  0  0  0  0
 10 15  1  0  0  0  0
 11  8  1  0  0  0  0
 11 14  2  0  0  0  0
 12  9  2  0  0  0  0
 12 13  1  0  0  0  0
 13 10  2  0  0  0  0
 15 16  1  0  0  0  0
 16 18  1  0  0  0  0
 18 20  1  0  0  0  0
 18 21  1  1  0  0  0
 18 22  1  0  0  0  0
 20 17  1  0  0  0  0
 22 23  1  0  0  0  0
 23 17  1  0  0  0  0
 23 19  1  0  0  0  0
 24  2  1  0  0  0  0
 25 24  1  0  0  0  0
 26 25  1  0  0  0  0
 27 26  1  0  0  0  0
 27 28  1  0  0  0  0
 28 31  1  0  0  0  0
 29 33  1  0  0  0  0
 30 34  2  0  0  0  0
 31 30  1  0  0  0  0
 32 28  1  0  0  0  0
 32 29  1  0  0  0  0
 33 30  1  0  0  0  0
 35 27  2  0  0  0  0
M  END
>  <MODEL>
8

>  <REMARK>
 VINA RESULT:      -8.1      2.503      9.026
  Name = 
  9 active torsions:
  status: ('A' for Active; 'I' for Inactive)
    1  A    between atoms: O_2  and  C_18
    2  A    between atoms: O_2  and  C_26
    3  A    between atoms: C_3  and  C_20
    4  A    between atoms: C_4  and  C_6
    5  A    between atoms: C_4  and  C_11
    6  A    between atoms: C_6  and  C_20
    7  A    between atoms: C_7  and  C_34
    8  A    between atoms: C_21  and  C_27
    9  A    between atoms: C_27  and  C_34
                            x       y       z     vdW  Elec       q    Type
                         _______ _______ _______ _____ _____    ______ ____

>  <TORSDO>
F 9

$$$$
=
 OpenBabel11052409263D

 35 38  0  0  1  0  0  0  0  0999 V2000
  161.1670  203.7000  151.6900 C   0  0  0  0  0  0  0  0  0  0  0  0
  161.0670  205.5010  149.5510 C   0  0  0  0  0  0  0  0  0  0  0  0
  160.4470  203.3760  150.5380 C   0  0  0  0  0  3  0  0  0  0  0  0
  161.7980  205.8350  150.7060 C   0  0  0  0  0  0  0  0  0  0  0  0
  160.3960  204.2760  149.4720 C   0  0  0  0  0  3  0  0  0  0  0  0
  161.8350  204.9230  151.7750 C   0  0  0  0  0  3  0  0  0  0  0  0
  161.2160  202.8290  152.7260 F   0  0  0  0  0  0  0  0  0  0  0  0
  162.4420  207.0830  150.7650 O   0  0  0  0  0  0  0  0  0  0  0  0
  161.0270  208.5160  152.1890 C   0  0  0  0  0  3  0  0  0  0  0  0
  161.6410  210.6850  150.5370 C   0  0  0  0  0  0  0  0  0  0  0  0
  161.8650  208.3240  151.0770 C   0  0  0  0  0  0  0  0  0  0  0  0
  160.4930  209.7780  152.4650 C   0  0  0  0  0  3  0  0  0  0  0  0
  160.7990  210.8620  151.6380 C   0  0  0  0  0  3  0  0  0  0  0  0
  162.1690  209.4190  150.2590 C   0  0  0  0  0  3  0  0  0  0  0  0
  161.9590  211.8360  149.6490 C   0  0  0  0  0  2  0  0  0  0  0  0
  160.7310  212.7240  149.4820 C   0  0  0  0  0  2  0  0  0  0  0  0
  158.9940  213.7390  146.4890 C   0  0  0  0  0  2  0  0  0  0  0  0
  160.7090  213.4260  148.1280 C   0  0  1  0  0  0  0  0  0  0  0  0
  160.0550  212.5020  144.8140 C   0  0  0  0  0  1  0  0  0  0  0  0
  159.3930  214.1280  147.8930 C   0  0  0  0  0  2  0  0  0  0  0  0
  161.7660  214.3350  148.0270 O   0  0  0  0  0  1  0  0  0  0  0  0
  160.8260  212.3980  147.0200 C   0  0  0  0  0  2  0  0  0  0  0  0
  159.6210  212.4570  146.2000 N   0  0  0  0  0  0  0  0  0  0  0  0
  160.9750  206.4540  148.4040 C   0  0  0  0  0  2  0  0  0  0  0  0
  162.3430  206.6500  147.7830 C   0  0  0  0  0  2  0  0  0  0  0  0
  162.7660  205.3780  147.0770 C   0  0  0  0  0  2  0  0  0  0  0  0
  161.8830  205.1320  145.9000 C   0  0  0  0  0  0  0  0  0  0  0  0
  161.2580  203.8550  145.7080 N   0  0  0  0  0  0  0  0  0  0  0  0
  159.3840  202.5540  144.7990 C   0  0  0  0  0  2  0  0  0  0  0  0
  160.9400  201.5120  146.4210 C   0  0  0  0  0  0  0  0  0  0  0  0
  161.5380  202.8000  146.5950 N   0  0  0  0  0  2  0  0  0  0  0  0
  160.4450  203.6120  144.5120 C   0  0  0  0  0  2  0  0  0  0  0  0
  160.0430  201.2560  145.2530 C   0  0  0  0  0  2  0  0  0  0  0  0
  161.2060  200.5820  147.2260 O   0  0  0  0  0  0  0  0  0  0  0  0
  161.6730  206.0730  145.0860 O   0  0  0  0  0  0  0  0  0  0  0  0
  1  6  1  0  0  0  0
  1  7  1  0  0  0  0
  2  4  1  0  0  0  0
  3  1  2  0  0  0  0
  4  8  1  0  0  0  0
  4  6  2  0  0  0  0
  5  2  2  0  0  0  0
  5  3  1  0  0  0  0
  8 11  1  0  0  0  0
  9 12  1  0  0  0  0
 10 13  1  0  0  0  0
 11  9  2  0  0  0  0
 13 12  2  0  0  0  0
 14 10  2  0  0  0  0
 14 11  1  0  0  0  0
 15 10  1  0  0  0  0
 16 15  1  0  0  0  0
 17 20  1  0  0  0  0
 18 21  1  6  0  0  0
 18 16  1  0  0  0  0
 19 23  1  0  0  0  0
 20 18  1  0  0  0  0
 22 18  1  0  0  0  0
 23 17  1  0  0  0  0
 23 22  1  0  0  0  0
 24  2  1  0  0  0  0
 25 24  1  0  0  0  0
 26 25  1  0  0  0  0
 27 26  1  0  0  0  0
 28 27  1  0  0  0  0
 28 31  1  0  0  0  0
 29 33  1  0  0  0  0
 30 31  1  0  0  0  0
 30 34  2  0  0  0  0
 32 29  1  0  0  0  0
 32 28  1  0  0  0  0
 33 30  1  0  0  0  0
 35 27  2  0  0  0  0
M  END
>  <MODEL>
9

>  <REMARK>
 VINA RESULT:      -7.8      2.272      8.139
  Name = 
  9 active torsions:
  status: ('A' for Active; 'I' for Inactive)
    1  A    between atoms: O_2  and  C_18
    2  A    between atoms: O_2  and  C_26
    3  A    between atoms: C_3  and  C_20
    4  A    between atoms: C_4  and  C_6
    5  A    between atoms: C_4  and  C_11
    6  A    between atoms: C_6  and  C_20
    7  A    between atoms: C_7  and  C_34
    8  A    between atoms: C_21  and  C_27
    9  A    between atoms: C_27  and  C_34
                            x       y       z     vdW  Elec       q    Type
                         _______ _______ _______ _____ _____    ______ ____

>  <TORSDO>
F 9

$$$$
