=
 OpenBabel11052410243D

 36 40  0  0  1  0  0  0  0  0999 V2000
  160.1420  208.9500  156.7320 N   0  0  0  0  0  0  0  0  0  0  0  0
  161.1250  206.7610  151.8260 C   0  0  0  0  0  0  0  0  0  0  0  0
  161.1150  205.7850  150.8150 C   0  0  0  0  0  0  0  0  0  0  0  0
  160.8360  207.4280  154.1480 C   0  0  0  0  0  0  0  0  0  0  0  0
  160.0320  212.0720  154.9910 C   0  0  2  0  0  3  0  0  0  0  0  0
  160.6800  206.9740  155.3960 C   0  0  0  0  0  2  0  0  0  0  0  0
  160.1770  209.8830  155.8350 C   0  0  0  0  0  0  0  0  0  0  0  0
  158.9340  211.5840  157.2580 C   0  0  0  0  0  1  0  0  0  0  0  0
  160.9740  211.2640  154.0770 C   0  0  0  0  0  2  0  0  0  0  0  0
  161.4930  208.0820  151.5150 C   0  0  0  0  0  0  0  0  0  0  0  0
  160.9140  209.8480  154.5810 C   0  0  2  0  0  3  0  0  0  0  0  0
  160.8070  206.4530  153.1480 C   0  0  0  0  0  3  0  0  0  0  0  0
  161.8420  208.4040  150.1940 C   0  0  0  0  0  0  0  0  0  0  0  0
  161.8120  207.4410  149.2340 N   0  0  0  0  0  0  0  0  0  0  0  0
  161.4640  209.0350  152.4830 N   0  0  0  0  0  0  0  0  0  0  0  0
  161.4610  206.1570  149.5150 C   0  0  0  0  0  3  0  0  0  0  0  0
  159.6020  211.1570  156.0390 N   0  0  0  0  0  0  0  0  0  0  0  0
  160.9400  207.7420  156.6470 C   0  0  0  0  0  2  0  0  0  0  0  0
  161.1140  208.7800  153.7770 C   0  0  0  0  0  0  0  0  0  0  0  0
  158.8810  212.5410  154.2310 N   0  0  0  0  0  0  0  0  0  0  0  0
  158.6370  212.2440  152.9460 C   0  0  0  0  0  3  0  0  0  0  0  0
  157.0210  213.5050  153.7410 C   0  0  0  0  0  3  0  0  0  0  0  0
  157.4450  212.8520  152.5930 C   0  0  0  0  0  3  0  0  0  0  0  0
  157.9160  213.2950  154.7240 N   0  0  0  0  0  0  0  0  0  0  0  0
  160.6610  204.0780  151.1380 S   0  0  0  0  0  0  0  0  0  0  0  0
  160.7620  203.6180  149.3820 C   0  0  1  0  0  3  0  0  0  0  0  0
  162.0070  203.9840  148.8730 O   0  0  0  0  0  1  0  0  0  0  0  0
  161.1620  201.1290  150.3940 O   0  0  0  0  0  1  0  0  0  0  0  0
  160.5380  201.8260  149.2060 P   0  0  1  0  0  0  0  0  0  0  0  0
  158.8860  201.4680  149.1460 O   0  0  0  0  0  0  0  0  0  0  0  0
  160.6160  201.9080  146.6190 C   0  0  0  0  0  1  0  0  0  0  0  0
  161.3160  201.2880  147.7300 N   0  0  0  0  0  2  0  0  0  0  0  0
  162.2100  209.8020  149.8100 C   0  0  0  0  0  2  0  0  0  0  0  0
  161.8780  210.0670  148.3500 C   0  0  0  0  0  2  0  0  0  0  0  0
  162.6350  212.1370  148.4470 C   0  0  0  0  0  1  0  0  0  0  0  0
  161.4850  211.3960  148.1810 O   0  0  0  0  0  0  0  0  0  0  0  0
  2 12  1  0  0  0  0
  3 25  1  0  0  0  0
  3  2  1  0  0  0  0
  4  6  1  0  0  0  0
  5  9  1  6  0  0  0
  5 17  1  0  0  0  0
  6 18  1  0  0  0  0
  7 17  1  0  0  0  0
  7  1  2  0  0  0  0
 10  2  2  0  0  0  0
 10 15  1  0  0  0  0
 11  9  1  6  0  0  0
 11  7  1  0  0  0  0
 12  4  2  0  0  0  0
 13 10  1  0  0  0  0
 14 16  1  0  0  0  0
 14 13  2  0  0  0  0
 15 19  2  0  0  0  0
 16  3  2  0  0  0  0
 17  8  1  0  0  0  0
 18  1  1  0  0  0  0
 19  4  1  0  0  0  0
 19 11  1  0  0  0  0
 20 24  1  0  0  0  0
 20  5  1  0  0  0  0
 21 20  1  0  0  0  0
 22 24  2  0  0  0  0
 23 21  2  0  0  0  0
 23 22  1  0  0  0  0
 26 27  1  1  0  0  0
 26 25  1  0  0  0  0
 29 30  2  6  0  0  0
 29 26  1  0  0  0  0
 29 28  1  0  0  0  0
 31 32  1  0  0  0  0
 32 29  1  0  0  0  0
 33 13  1  0  0  0  0
 34 33  1  0  0  0  0
 36 34  1  0  0  0  0
 36 35  1  0  0  0  0
M  END
>  <MODEL>
1

>  <REMARK>
 VINA RESULT:      -7.4      0.000      0.000
  Name = 
  8 active torsions:
  status: ('A' for Active; 'I' for Inactive)
    1  A    between atoms: S_1  and  C_4
    2  A    between atoms: S_1  and  C_8
    3  A    between atoms: C_4  and  P_32
    4  A    between atoms: C_10  and  C_13
    5  A    between atoms: C_10  and  C_26
    6  A    between atoms: C_11  and  N_15
    7  A    between atoms: C_13  and  O_23
    8  A    between atoms: N_21  and  P_32
                            x       y       z     vdW  Elec       q    Type
                         _______ _______ _______ _____ _____    ______ ____

>  <TORSDO>
F 8

$$$$
=
 OpenBabel11052410243D

 36 40  0  0  1  0  0  0  0  0999 V2000
  160.3490  208.0330  155.8000 N   0  0  0  0  0  0  0  0  0  0  0  0
  161.2260  207.6520  150.4230 C   0  0  0  0  0  0  0  0  0  0  0  0
  161.1530  207.1020  149.1320 C   0  0  0  0  0  0  0  0  0  0  0  0
  160.9570  207.4740  152.8350 C   0  0  0  0  0  0  0  0  0  0  0  0
  160.5200  211.5670  155.2800 C   0  0  2  0  0  3  0  0  0  0  0  0
  160.7460  206.6210  153.8430 C   0  0  0  0  0  2  0  0  0  0  0  0
  160.4730  209.2170  155.2920 C   0  0  0  0  0  0  0  0  0  0  0  0
  159.3510  210.3980  157.2430 C   0  0  0  0  0  1  0  0  0  0  0  0
  161.4060  211.0620  154.1250 C   0  0  0  0  0  2  0  0  0  0  0  0
  161.7050  208.9620  150.5950 C   0  0  0  0  0  0  0  0  0  0  0  0
  161.2240  209.5690  154.0960 C   0  0  2  0  0  3  0  0  0  0  0  0
  160.8640  206.9220  151.5550 C   0  0  0  0  0  3  0  0  0  0  0  0
  162.0990  209.7020  149.4680 C   0  0  0  0  0  0  0  0  0  0  0  0
  162.0050  209.1470  148.2300 N   0  0  0  0  0  0  0  0  0  0  0  0
  161.7390  209.5100  151.8380 N   0  0  0  0  0  0  0  0  0  0  0  0
  161.5470  207.8810  148.0430 C   0  0  0  0  0  3  0  0  0  0  0  0
  160.0010  210.3780  155.9420 N   0  0  0  0  0  0  0  0  0  0  0  0
  161.0490  206.8730  155.2810 C   0  0  0  0  0  2  0  0  0  0  0  0
  161.3500  208.8420  152.9630 C   0  0  0  0  0  0  0  0  0  0  0  0
  159.4210  212.3660  154.7520 N   0  0  0  0  0  0  0  0  0  0  0  0
  158.6830  212.0430  153.6800 C   0  0  0  0  0  3  0  0  0  0  0  0
  157.9620  213.9340  154.5410 C   0  0  0  0  0  3  0  0  0  0  0  0
  157.7320  213.0340  153.5110 C   0  0  0  0  0  3  0  0  0  0  0  0
  158.9980  213.4980  155.2830 N   0  0  0  0  0  0  0  0  0  0  0  0
  160.5570  205.4330  148.8360 S   0  0  0  0  0  0  0  0  0  0  0  0
  161.9420  205.0320  147.7290 C   0  0  1  0  0  3  0  0  0  0  0  0
  162.3810  203.7320  147.9800 O   0  0  0  0  0  1  0  0  0  0  0  0
  160.1030  205.9380  145.9460 O   0  0  0  0  0  1  0  0  0  0  0  0
  161.4020  205.1660  146.0020 P   0  0  1  0  0  0  0  0  0  0  0  0
  162.5820  205.9820  145.1050 O   0  0  0  0  0  0  0  0  0  0  0  0
  159.9470  203.5910  144.5490 C   0  0  0  0  0  1  0  0  0  0  0  0
  161.1630  203.5580  145.3450 N   0  0  0  0  0  2  0  0  0  0  0  0
  162.5850  211.1110  149.6000 C   0  0  0  0  0  2  0  0  0  0  0  0
  162.1800  211.9370  148.3890 C   0  0  0  0  0  2  0  0  0  0  0  0
  160.6270  213.1540  147.3990 C   0  0  0  0  0  1  0  0  0  0  0  0
  160.9340  212.5290  148.6070 O   0  0  0  0  0  0  0  0  0  0  0  0
  2 10  2  0  0  0  0
  2 12  1  0  0  0  0
  3  2  1  0  0  0  0
  4 19  1  0  0  0  0
  4  6  1  0  0  0  0
  5  9  1  6  0  0  0
  5 17  1  0  0  0  0
  6 18  1  0  0  0  0
  7  1  2  0  0  0  0
  7 17  1  0  0  0  0
 10 15  1  0  0  0  0
 11  9  1  6  0  0  0
 11  7  1  0  0  0  0
 12  4  2  0  0  0  0
 13 33  1  0  0  0  0
 13 10  1  0  0  0  0
 14 13  2  0  0  0  0
 15 19  2  0  0  0  0
 16 14  1  0  0  0  0
 16  3  2  0  0  0  0
 17  8  1  0  0  0  0
 18  1  1  0  0  0  0
 19 11  1  0  0  0  0
 20  5  1  0  0  0  0
 20 24  1  0  0  0  0
 21 20  1  0  0  0  0
 22 24  2  0  0  0  0
 23 21  2  0  0  0  0
 23 22  1  0  0  0  0
 25  3  1  0  0  0  0
 26 27  1  1  0  0  0
 26 25  1  0  0  0  0
 28 29  1  0  0  0  0
 29 30  2  6  0  0  0
 29 26  1  0  0  0  0
 31 32  1  0  0  0  0
 32 29  1  0  0  0  0
 34 36  1  0  0  0  0
 34 33  1  0  0  0  0
 35 36  1  0  0  0  0
M  END
>  <MODEL>
2

>  <REMARK>
 VINA RESULT:      -7.3      1.860      2.390
  Name = 
  8 active torsions:
  status: ('A' for Active; 'I' for Inactive)
    1  A    between atoms: S_1  and  C_4
    2  A    between atoms: S_1  and  C_8
    3  A    between atoms: C_4  and  P_32
    4  A    between atoms: C_10  and  C_13
    5  A    between atoms: C_10  and  C_26
    6  A    between atoms: C_11  and  N_15
    7  A    between atoms: C_13  and  O_23
    8  A    between atoms: N_21  and  P_32
                            x       y       z     vdW  Elec       q    Type
                         _______ _______ _______ _____ _____    ______ ____

>  <TORSDO>
F 8

$$$$
=
 OpenBabel11052410243D

 36 40  0  0  1  0  0  0  0  0999 V2000
  161.8230  209.9500  148.7820 N   0  0  0  0  0  0  0  0  0  0  0  0
  160.1640  211.3250  153.8000 C   0  0  0  0  0  0  0  0  0  0  0  0
  159.4030  211.9860  154.7800 C   0  0  0  0  0  0  0  0  0  0  0  0
  160.9260  211.0750  151.5030 C   0  0  0  0  0  0  0  0  0  0  0  0
  162.6480  206.7900  150.2390 C   0  0  2  0  0  3  0  0  0  0  0  0
  160.9610  211.6610  150.3010 C   0  0  0  0  0  2  0  0  0  0  0  0
  162.0130  208.9590  149.5930 C   0  0  0  0  0  0  0  0  0  0  0  0
  162.1860  207.2150  147.7510 C   0  0  0  0  0  1  0  0  0  0  0  0
  162.7880  207.7180  151.4620 C   0  0  0  0  0  2  0  0  0  0  0  0
  160.9870  210.2470  154.1670 C   0  0  0  0  0  0  0  0  0  0  0  0
  162.2370  209.0480  151.0280 C   0  0  2  0  0  3  0  0  0  0  0  0
  160.1530  211.7290  152.4650 C   0  0  0  0  0  3  0  0  0  0  0  0
  161.0300  209.8440  155.5120 C   0  0  0  0  0  0  0  0  0  0  0  0
  160.2730  210.4940  156.4360 N   0  0  0  0  0  0  0  0  0  0  0  0
  161.6920  209.5820  153.2150 N   0  0  0  0  0  0  0  0  0  0  0  0
  159.4730  211.5410  156.1010 C   0  0  0  0  0  3  0  0  0  0  0  0
  162.1810  207.6300  149.1450 N   0  0  0  0  0  0  0  0  0  0  0  0
  161.9080  211.3380  149.1960 C   0  0  0  0  0  2  0  0  0  0  0  0
  161.6710  209.9190  151.8930 C   0  0  0  0  0  0  0  0  0  0  0  0
  161.6740  205.7430  150.5170 N   0  0  0  0  0  0  0  0  0  0  0  0
  161.3150  205.3350  151.7430 C   0  0  0  0  0  3  0  0  0  0  0  0
  160.1850  204.2170  150.2230 C   0  0  0  0  0  3  0  0  0  0  0  0
  160.3560  204.3480  151.5930 C   0  0  0  0  0  3  0  0  0  0  0  0
  161.0000  205.0830  149.5930 N   0  0  0  0  0  0  0  0  0  0  0  0
  158.3340  213.3730  154.3850 S   0  0  0  0  0  0  0  0  0  0  0  0
  157.4860  213.3010  155.9920 C   0  0  1  0  0  3  0  0  0  0  0  0
  157.7720  214.4520  156.7250 O   0  0  0  0  0  1  0  0  0  0  0  0
  155.0010  214.2560  156.5320 O   0  0  0  0  0  1  0  0  0  0  0  0
  155.6950  213.1770  155.7320 P   0  0  1  0  0  0  0  0  0  0  0  0
  155.3480  213.3820  154.0890 O   0  0  0  0  0  0  0  0  0  0  0  0
  155.7250  210.6120  155.3730 C   0  0  0  0  0  1  0  0  0  0  0  0
  155.1410  211.6000  156.2640 N   0  0  0  0  0  2  0  0  0  0  0  0
  161.8670  208.6810  155.9440 C   0  0  0  0  0  2  0  0  0  0  0  0
  161.0640  207.7360  156.8240 C   0  0  0  0  0  2  0  0  0  0  0  0
  160.4630  206.6250  155.0140 C   0  0  0  0  0  1  0  0  0  0  0  0
  159.9430  207.2750  156.1330 O   0  0  0  0  0  0  0  0  0  0  0  0
  1 18  1  0  0  0  0
  1  7  2  0  0  0  0
  2 10  1  0  0  0  0
  2  3  2  0  0  0  0
  3 16  1  0  0  0  0
  4 19  1  0  0  0  0
  4 12  2  0  0  0  0
  5 20  1  1  0  0  0
  5  9  1  0  0  0  0
  6  4  1  0  0  0  0
  7 11  1  0  0  0  0
  8 17  1  0  0  0  0
 10 13  2  0  0  0  0
 11  9  1  1  0  0  0
 11 19  1  0  0  0  0
 12  2  1  0  0  0  0
 13 33  1  0  0  0  0
 13 14  1  0  0  0  0
 15 10  1  0  0  0  0
 16 14  2  0  0  0  0
 17  7  1  0  0  0  0
 17  5  1  0  0  0  0
 18  6  1  0  0  0  0
 19 15  2  0  0  0  0
 20 21  1  0  0  0  0
 22 23  1  0  0  0  0
 23 21  2  0  0  0  0
 24 22  2  0  0  0  0
 24 20  1  0  0  0  0
 25  3  1  0  0  0  0
 25 26  1  0  0  0  0
 26 27  1  1  0  0  0
 29 30  2  6  0  0  0
 29 26  1  0  0  0  0
 29 32  1  0  0  0  0
 29 28  1  0  0  0  0
 31 32  1  0  0  0  0
 33 34  1  0  0  0  0
 35 36  1  0  0  0  0
 36 34  1  0  0  0  0
M  END
>  <MODEL>
3

>  <REMARK>
 VINA RESULT:      -5.8      4.567      9.099
  Name = 
  8 active torsions:
  status: ('A' for Active; 'I' for Inactive)
    1  A    between atoms: S_1  and  C_4
    2  A    between atoms: S_1  and  C_8
    3  A    between atoms: C_4  and  P_32
    4  A    between atoms: C_10  and  C_13
    5  A    between atoms: C_10  and  C_26
    6  A    between atoms: C_11  and  N_15
    7  A    between atoms: C_13  and  O_23
    8  A    between atoms: N_21  and  P_32
                            x       y       z     vdW  Elec       q    Type
                         _______ _______ _______ _____ _____    ______ ____

>  <TORSDO>
F 8

$$$$
=
 OpenBabel11052410243D

 36 40  0  0  1  0  0  0  0  0999 V2000
  158.5140  213.6000  154.3960 N   0  0  0  0  0  0  0  0  0  0  0  0
  161.2490  211.9400  149.9700 C   0  0  0  0  0  0  0  0  0  0  0  0
  161.9630  212.0590  148.7660 C   0  0  0  0  0  0  0  0  0  0  0  0
  159.8290  212.8790  151.7080 C   0  0  0  0  0  0  0  0  0  0  0  0
  159.8170  210.6520  155.9460 C   0  0  2  0  0  3  0  0  0  0  0  0
  159.0640  213.9270  152.0360 C   0  0  0  0  0  2  0  0  0  0  0  0
  159.1190  212.4840  154.6480 C   0  0  0  0  0  0  0  0  0  0  0  0
  159.0100  212.7550  157.1740 C   0  0  0  0  0  1  0  0  0  0  0  0
  159.7860  210.2130  154.4690 C   0  0  0  0  0  2  0  0  0  0  0  0
  161.2060  210.7020  150.6350 C   0  0  0  0  0  0  0  0  0  0  0  0
  159.4730  211.4550  153.6820 C   0  0  2  0  0  3  0  0  0  0  0  0
  160.5480  213.0140  150.5190 C   0  0  0  0  0  3  0  0  0  0  0  0
  161.8850  209.6040  150.0830 C   0  0  0  0  0  0  0  0  0  0  0  0
  162.5770  209.7520  148.9220 N   0  0  0  0  0  0  0  0  0  0  0  0
  160.5500  210.5960  151.8200 N   0  0  0  0  0  0  0  0  0  0  0  0
  162.6290  210.9400  148.2630 C   0  0  0  0  0  3  0  0  0  0  0  0
  159.3880  212.0440  155.9630 N   0  0  0  0  0  0  0  0  0  0  0  0
  158.0030  213.9420  153.0830 C   0  0  0  0  0  2  0  0  0  0  0  0
  159.8920  211.6360  152.4090 C   0  0  0  0  0  0  0  0  0  0  0  0
  161.1720  210.5390  156.4700 N   0  0  0  0  0  0  0  0  0  0  0  0
  161.7570  209.3920  156.8440 C   0  0  0  0  0  3  0  0  0  0  0  0
  163.1610  211.0650  157.1000 C   0  0  0  0  0  3  0  0  0  0  0  0
  163.0420  209.6920  157.2610 C   0  0  0  0  0  3  0  0  0  0  0  0
  162.0050  211.5530  156.6140 N   0  0  0  0  0  0  0  0  0  0  0  0
  162.0580  213.6070  147.8590 S   0  0  0  0  0  0  0  0  0  0  0  0
  160.4730  213.3220  147.0170 C   0  0  1  0  0  3  0  0  0  0  0  0
  159.6310  214.4140  147.2210 O   0  0  0  0  0  1  0  0  0  0  0  0
  162.2450  213.0370  144.9770 O   0  0  0  0  0  1  0  0  0  0  0  0
  160.7570  213.1000  145.2380 P   0  0  1  0  0  0  0  0  0  0  0  0
  160.0340  211.6570  144.7280 O   0  0  0  0  0  0  0  0  0  0  0  0
  158.7950  214.0070  143.8120 C   0  0  0  0  0  1  0  0  0  0  0  0
  160.0610  214.4530  144.3680 N   0  0  0  0  0  2  0  0  0  0  0  0
  161.8930  208.2750  150.7710 C   0  0  0  0  0  2  0  0  0  0  0  0
  161.0670  207.2600  149.9950 C   0  0  0  0  0  2  0  0  0  0  0  0
  161.2910  205.7580  151.5960 C   0  0  0  0  0  1  0  0  0  0  0  0
  161.5390  205.9700  150.2410 O   0  0  0  0  0  0  0  0  0  0  0  0
  1  7  2  0  0  0  0
  2 12  2  0  0  0  0
  2 10  1  0  0  0  0
  3  2  1  0  0  0  0
  4  6  1  0  0  0  0
  4 19  2  0  0  0  0
  5  9  1  6  0  0  0
  5 17  1  0  0  0  0
  5 20  1  0  0  0  0
  6 18  1  0  0  0  0
  7 17  1  0  0  0  0
 10 15  2  0  0  0  0
 11  9  1  1  0  0  0
 11  7  1  0  0  0  0
 12  4  1  0  0  0  0
 13 10  1  0  0  0  0
 13 33  1  0  0  0  0
 14 13  2  0  0  0  0
 15 19  1  0  0  0  0
 16  3  2  0  0  0  0
 16 14  1  0  0  0  0
 17  8  1  0  0  0  0
 18  1  1  0  0  0  0
 19 11  1  0  0  0  0
 20 24  1  0  0  0  0
 20 21  1  0  0  0  0
 21 23  2  0  0  0  0
 22 23  1  0  0  0  0
 24 22  2  0  0  0  0
 25  3  1  0  0  0  0
 26 27  1  6  0  0  0
 26 25  1  0  0  0  0
 28 29  1  0  0  0  0
 29 30  2  6  0  0  0
 29 26  1  0  0  0  0
 31 32  1  0  0  0  0
 32 29  1  0  0  0  0
 34 36  1  0  0  0  0
 34 33  1  0  0  0  0
 36 35  1  0  0  0  0
M  END
>  <MODEL>
4

>  <REMARK>
 VINA RESULT:      -4.5      3.750      7.042
  Name = 
  8 active torsions:
  status: ('A' for Active; 'I' for Inactive)
    1  A    between atoms: S_1  and  C_4
    2  A    between atoms: S_1  and  C_8
    3  A    between atoms: C_4  and  P_32
    4  A    between atoms: C_10  and  C_13
    5  A    between atoms: C_10  and  C_26
    6  A    between atoms: C_11  and  N_15
    7  A    between atoms: C_13  and  O_23
    8  A    between atoms: N_21  and  P_32
                            x       y       z     vdW  Elec       q    Type
                         _______ _______ _______ _____ _____    ______ ____

>  <TORSDO>
F 8

$$$$
