=
 OpenBabel11042422193D

 52 58  0  0  1  0  0  0  0  0999 V2000
  160.0900  213.6290  149.2090 C   0  0  0  0  0  0  0  0  0  0  0  0
  160.8600  212.8470  148.3750 C   0  0  0  0  0  0  0  0  0  0  0  0
  160.5170  213.2400  147.1010 C   0  0  0  0  0  0  0  0  0  0  0  0
  159.3130  214.4520  148.4120 C   0  0  0  0  0  3  0  0  0  0  0  0
  159.6020  214.1850  147.1540 O   0  0  0  0  0  0  0  0  0  0  0  0
  158.9830  213.6220  151.5010 C   0  0  0  0  0  0  0  0  0  0  0  0
  157.8170  213.6870  151.0320 O   0  0  0  0  0  0  0  0  0  0  0  0
  160.1270  213.5970  150.6390 N   0  0  0  0  0  2  0  0  0  0  0  0
  159.1760  213.5460  152.9760 C   0  0  0  0  0  2  0  0  0  0  0  0
  158.9030  211.2180  153.1990 O   0  0  0  0  0  0  0  0  0  0  0  0
  158.5050  212.3280  153.5210 C   0  0  0  0  0  0  0  0  0  0  0  0
  156.5920  211.2600  154.5520 N   0  0  0  0  0  0  0  0  0  0  0  0
  155.5200  212.1460  156.5260 C   0  0  0  0  0  2  0  0  0  0  0  0
  154.9260  209.8250  155.5360 C   0  0  0  0  0  1  0  0  0  0  0  0
  155.7000  211.0970  155.4670 C   0  0  0  0  0  0  0  0  0  0  0  0
  157.3750  212.4790  154.4900 C   0  0  1  0  0  3  0  0  0  0  0  0
  157.8940  212.8850  155.8820 C   0  0  0  0  0  2  0  0  0  0  0  0
  156.8970  212.5920  157.0230 C   0  0  0  0  0  2  0  0  0  0  0  0
  163.0790  211.9010  147.7960 C   0  0  0  0  0  1  0  0  0  0  0  0
  161.9000  211.8320  148.7480 C   0  0  2  0  0  3  0  0  0  0  0  0
  161.3220  210.4240  148.7550 C   0  0  0  0  0  2  0  0  0  0  0  0
  160.7050  203.4060  150.0990 C   0  0  0  0  0  3  0  0  0  0  0  0
  161.2260  202.3280  147.9880 C   0  0  0  0  0  3  0  0  0  0  0  0
  162.3320  208.8920  150.5370 C   0  0  2  0  0  3  0  0  0  0  0  0
  162.4010  209.3820  149.0620 C   0  0  1  0  0  3  0  0  0  0  0  0
  161.0540  207.2800  151.9690 N   0  0  0  0  0  2  0  0  0  0  0  0
  161.3380  204.7400  148.1570 C   0  0  0  0  0  0  0  0  0  0  0  0
  160.8790  206.0490  151.6850 N   0  0  0  0  0  0  0  0  0  0  0  0
  161.0330  208.1110  150.7630 C   0  0  2  0  0  3  0  0  0  0  0  0
  162.2850  208.2460  148.1270 N   0  0  0  0  0  0  0  0  0  0  0  0
  160.9460  204.6540  149.5160 C   0  0  0  0  0  0  0  0  0  0  0  0
  161.4760  203.5720  147.4010 C   0  0  0  0  0  3  0  0  0  0  0  0
  161.5560  207.2000  148.3870 C   0  0  0  0  0  0  0  0  0  0  0  0
  160.7820  205.9070  150.2760 C   0  0  0  0  0  0  0  0  0  0  0  0
  160.9260  207.0800  149.7050 C   0  0  1  0  0  3  0  0  0  0  0  0
  160.8450  202.2440  149.3330 C   0  0  0  0  0  3  0  0  0  0  0  0
  162.4580  210.0440  151.5190 C   0  0  0  0  0  1  0  0  0  0  0  0
  161.6560  206.0200  147.5790 N   0  0  0  0  0  2  0  0  0  0  0  0
  161.1080  212.7080  145.8360 C   0  0  2  0  0  3  0  0  0  0  0  0
  163.1840  213.5770  144.6040 C   0  0  0  0  0  2  0  0  0  0  0  0
  162.9210  214.4510  145.8170 C   0  0  0  0  0  2  0  0  0  0  0  0
  161.7560  213.8600  145.0460 C   0  0  0  0  0  3  0  0  0  0  0  0
  160.0970  211.9670  145.0820 N   0  0  0  0  0  2  0  0  0  0  0  0
  159.9780  212.6000  143.7750 C   0  0  2  0  0  3  0  0  0  0  0  0
  158.4560  214.4030  144.2690 O   0  0  0  0  0  1  0  0  0  0  0  0
  158.5870  213.1970  143.5760 C   0  0  0  0  0  2  0  0  0  0  0  0
  160.3510  211.6230  142.6650 C   0  0  0  0  0  2  0  0  0  0  0  0
  160.9500  212.2870  141.5930 O   0  0  0  0  0  0  0  0  0  0  0  0
  162.2470  211.7770  141.5460 C   0  0  0  0  0  2  0  0  0  0  0  0
  161.8360  209.8300  139.9960 N   0  0  0  0  0  1  0  0  0  0  0  0
  163.2200  211.5940  139.3810 O   0  0  0  0  0  0  0  0  0  0  0  0
  162.4630  211.0840  140.2470 C   0  0  0  0  0  0  0  0  0  0  0  0
  1  8  1  0  0  0  0
  2 20  1  0  0  0  0
  2  1  1  0  0  0  0
  3  5  1  0  0  0  0
  3  2  2  0  0  0  0
  4  1  2  0  0  0  0
  5  4  1  0  0  0  0
  6  9  1  0  0  0  0
  7  6  2  0  0  0  0
  8  6  1  0  0  0  0
  9 11  1  0  0  0  0
 10 11  2  0  0  0  0
 12 15  2  0  0  0  0
 13 18  1  0  0  0  0
 15 14  1  0  0  0  0
 15 13  1  0  0  0  0
 16 11  1  6  0  0  0
 16 12  1  0  0  0  0
 16 17  1  0  0  0  0
 17 18  1  0  0  0  0
 20 19  1  6  0  0  0
 20 21  1  0  0  0  0
 23 36  1  0  0  0  0
 24 29  1  0  0  0  0
 24 37  1  1  0  0  0
 25 21  1  6  0  0  0
 25 24  1  0  0  0  0
 27 31  2  0  0  0  0
 28 26  1  0  0  0  0
 29 26  1  1  0  0  0
 30 33  2  0  0  0  0
 30 25  1  0  0  0  0
 31 22  1  0  0  0  0
 31 34  1  0  0  0  0
 32 23  2  0  0  0  0
 32 27  1  0  0  0  0
 34 28  2  0  0  0  0
 35 33  1  1  0  0  0
 35 34  1  0  0  0  0
 35 29  1  0  0  0  0
 36 22  2  0  0  0  0
 38 27  1  0  0  0  0
 38 33  1  0  0  0  0
 39 43  1  6  0  0  0
 39  3  1  0  0  0  0
 40 42  1  0  0  0  0
 40 41  1  0  0  0  0
 42 41  1  0  0  0  0
 42 39  1  0  0  0  0
 44 47  1  6  0  0  0
 44 43  1  0  0  0  0
 46 44  1  0  0  0  0
 46 45  1  0  0  0  0
 48 47  1  0  0  0  0
 49 48  1  0  0  0  0
 50 52  1  0  0  0  0
 51 52  2  0  0  0  0
 52 49  1  0  0  0  0
M  END
>  <MODEL>
1

>  <REMARK>
 VINA RESULT:      -7.5      0.000      0.000
  Name = 
  16 active torsions:
  status: ('A' for Active; 'I' for Inactive)
    1  A    between atoms: C_2  and  N_12
    2  A    between atoms: C_2  and  C_39
    3  A    between atoms: C_2  and  C_42
    4  A    between atoms: C_3  and  O_25
    5  A    between atoms: C_3  and  C_41
    6  A    between atoms: C_5  and  C_6
    7  A    between atoms: C_5  and  C_35
    8  A    between atoms: C_6  and  C_15
    9  A    between atoms: N_12  and  C_28
   10  A    between atoms: C_14  and  C_52
   11  A    between atoms: C_18  and  N_26
   12  A    between atoms: O_25  and  C_39
   13  A    between atoms: C_28  and  C_43
   14  A    between atoms: C_28  and  C_50
   15  A    between atoms: C_32  and  C_44
   16  A    between atoms: C_44  and  C_52
                            x       y       z     vdW  Elec       q    Type
                         _______ _______ _______ _____ _____    ______ ____

>  <TORSDO>
F 16

$$$$
=
 OpenBabel11042422193D

 52 58  0  0  1  0  0  0  0  0999 V2000
  160.3710  211.9920  151.5740 C   0  0  0  0  0  0  0  0  0  0  0  0
  160.7050  211.0730  152.5450 C   0  0  0  0  0  0  0  0  0  0  0  0
  159.9420  211.4170  153.6380 C   0  0  0  0  0  0  0  0  0  0  0  0
  159.4310  212.8510  152.1150 C   0  0  0  0  0  3  0  0  0  0  0  0
  159.2030  212.4690  153.3560 O   0  0  0  0  0  0  0  0  0  0  0  0
  160.6130  213.0120  149.2550 C   0  0  0  0  0  0  0  0  0  0  0  0
  159.8440  213.9760  149.5050 O   0  0  0  0  0  0  0  0  0  0  0  0
  160.8940  212.0130  150.2410 N   0  0  0  0  0  2  0  0  0  0  0  0
  161.2630  212.9220  147.9170 C   0  0  0  0  0  2  0  0  0  0  0  0
  159.1290  212.3000  147.1430 O   0  0  0  0  0  0  0  0  0  0  0  0
  160.2290  212.7440  146.8530 C   0  0  0  0  0  0  0  0  0  0  0  0
  161.9380  213.5110  145.3180 N   0  0  0  0  0  0  0  0  0  0  0  0
  161.6460  213.4580  142.9220 C   0  0  0  0  0  2  0  0  0  0  0  0
  163.9130  214.0310  144.0410 C   0  0  0  0  0  1  0  0  0  0  0  0
  162.4660  213.6930  144.1570 C   0  0  0  0  0  0  0  0  0  0  0  0
  160.5390  213.1510  145.4470 C   0  0  1  0  0  3  0  0  0  0  0  0
  160.1510  212.0400  144.4540 C   0  0  0  0  0  2  0  0  0  0  0  0
  160.8580  212.1560  143.0880 C   0  0  0  0  0  2  0  0  0  0  0  0
  163.0510  210.3750  152.1390 C   0  0  0  0  0  1  0  0  0  0  0  0
  161.6410  209.9050  152.4400 C   0  0  2  0  0  3  0  0  0  0  0  0
  161.1840  208.9230  151.3710 C   0  0  0  0  0  2  0  0  0  0  0  0
  161.0850  203.2640  146.9660 C   0  0  0  0  0  3  0  0  0  0  0  0
  162.0330  204.0860  144.8880 C   0  0  0  0  0  3  0  0  0  0  0  0
  162.0580  206.5290  151.5840 C   0  0  2  0  0  3  0  0  0  0  0  0
  162.3020  207.9480  150.9960 C   0  0  1  0  0  3  0  0  0  0  0  0
  160.7450  204.4490  151.1020 N   0  0  0  0  0  2  0  0  0  0  0  0
  161.8710  205.5670  146.7960 C   0  0  0  0  0  0  0  0  0  0  0  0
  160.7430  203.8450  149.9790 N   0  0  0  0  0  0  0  0  0  0  0  0
  160.8250  205.9000  150.9240 C   0  0  2  0  0  3  0  0  0  0  0  0
  162.4490  207.8890  149.5290 N   0  0  0  0  0  0  0  0  0  0  0  0
  161.2850  204.5200  147.5490 C   0  0  0  0  0  0  0  0  0  0  0  0
  162.2420  205.3410  145.4670 C   0  0  0  0  0  3  0  0  0  0  0  0
  161.7980  207.0300  148.7980 C   0  0  0  0  0  0  0  0  0  0  0  0
  160.8790  204.8000  148.9380 C   0  0  0  0  0  0  0  0  0  0  0  0
  160.9880  206.0010  149.4560 C   0  0  1  0  0  3  0  0  0  0  0  0
  161.4600  203.0490  145.6360 C   0  0  0  0  0  3  0  0  0  0  0  0
  161.9120  206.5640  153.0960 C   0  0  0  0  0  1  0  0  0  0  0  0
  162.1410  206.8370  147.4190 N   0  0  0  0  0  2  0  0  0  0  0  0
  159.9170  210.6950  154.9460 C   0  0  2  0  0  3  0  0  0  0  0  0
  160.1280  208.3350  155.9290 C   0  0  0  0  0  2  0  0  0  0  0  0
  161.5160  208.9160  155.7260 C   0  0  0  0  0  2  0  0  0  0  0  0
  160.4070  209.2490  154.7460 C   0  0  0  0  0  3  0  0  0  0  0  0
  158.5890  210.7930  155.5490 N   0  0  0  0  0  2  0  0  0  0  0  0
  158.5640  212.0090  156.3520 C   0  0  2  0  0  3  0  0  0  0  0  0
  160.5140  213.3640  156.7670 O   0  0  0  0  0  1  0  0  0  0  0  0
  159.8660  212.1820  157.1310 C   0  0  0  0  0  2  0  0  0  0  0  0
  157.3410  212.0320  157.2610 C   0  0  0  0  0  2  0  0  0  0  0  0
  156.2190  212.5100  156.5810 O   0  0  0  0  0  0  0  0  0  0  0  0
  156.6970  213.5770  155.8210 C   0  0  0  0  0  2  0  0  0  0  0  0
  154.6080  214.4490  154.7080 N   0  0  0  0  0  1  0  0  0  0  0  0
  156.2060  213.2550  153.5140 O   0  0  0  0  0  0  0  0  0  0  0  0
  155.8450  213.7500  154.6130 C   0  0  0  0  0  0  0  0  0  0  0  0
  1  4  2  0  0  0  0
  1  2  1  0  0  0  0
  2  3  2  0  0  0  0
  3 39  1  0  0  0  0
  4  5  1  0  0  0  0
  5  3  1  0  0  0  0
  6  7  2  0  0  0  0
  6  8  1  0  0  0  0
  8  1  1  0  0  0  0
  9  6  1  0  0  0  0
 11 10  2  0  0  0  0
 11  9  1  0  0  0  0
 12 16  1  0  0  0  0
 13 18  1  0  0  0  0
 13 15  1  0  0  0  0
 14 15  1  0  0  0  0
 15 12  2  0  0  0  0
 16 11  1  1  0  0  0
 17 16  1  0  0  0  0
 18 17  1  0  0  0  0
 20 19  1  6  0  0  0
 20  2  1  0  0  0  0
 21 20  1  0  0  0  0
 22 31  1  0  0  0  0
 23 32  2  0  0  0  0
 23 36  1  0  0  0  0
 24 37  1  1  0  0  0
 25 21  1  6  0  0  0
 25 24  1  0  0  0  0
 27 38  1  0  0  0  0
 27 31  2  0  0  0  0
 28 26  1  0  0  0  0
 29 26  1  6  0  0  0
 29 24  1  0  0  0  0
 30 25  1  0  0  0  0
 31 34  1  0  0  0  0
 32 27  1  0  0  0  0
 33 30  2  0  0  0  0
 34 35  1  0  0  0  0
 34 28  2  0  0  0  0
 35 33  1  1  0  0  0
 35 29  1  0  0  0  0
 36 22  2  0  0  0  0
 38 33  1  0  0  0  0
 39 43  1  6  0  0  0
 41 40  1  0  0  0  0
 42 39  1  0  0  0  0
 42 41  1  0  0  0  0
 42 40  1  0  0  0  0
 43 44  1  0  0  0  0
 44 46  1  1  0  0  0
 44 47  1  0  0  0  0
 45 46  1  0  0  0  0
 48 47  1  0  0  0  0
 49 48  1  0  0  0  0
 51 52  2  0  0  0  0
 52 50  1  0  0  0  0
 52 49  1  0  0  0  0
M  END
>  <MODEL>
2

>  <REMARK>
 VINA RESULT:      -6.8      2.458      9.036
  Name = 
  16 active torsions:
  status: ('A' for Active; 'I' for Inactive)
    1  A    between atoms: C_2  and  N_12
    2  A    between atoms: C_2  and  C_39
    3  A    between atoms: C_2  and  C_42
    4  A    between atoms: C_3  and  O_25
    5  A    between atoms: C_3  and  C_41
    6  A    between atoms: C_5  and  C_6
    7  A    between atoms: C_5  and  C_35
    8  A    between atoms: C_6  and  C_15
    9  A    between atoms: N_12  and  C_28
   10  A    between atoms: C_14  and  C_52
   11  A    between atoms: C_18  and  N_26
   12  A    between atoms: O_25  and  C_39
   13  A    between atoms: C_28  and  C_43
   14  A    between atoms: C_28  and  C_50
   15  A    between atoms: C_32  and  C_44
   16  A    between atoms: C_44  and  C_52
                            x       y       z     vdW  Elec       q    Type
                         _______ _______ _______ _____ _____    ______ ____

>  <TORSDO>
F 16

$$$$
=
 OpenBabel11042422193D

 52 58  0  0  1  0  0  0  0  0999 V2000
  160.2290  212.2290  152.0080 C   0  0  0  0  0  0  0  0  0  0  0  0
  160.8490  211.1060  152.5130 C   0  0  0  0  0  0  0  0  0  0  0  0
  160.3040  210.9330  153.7650 C   0  0  0  0  0  0  0  0  0  0  0  0
  159.3470  212.6890  152.9690 C   0  0  0  0  0  3  0  0  0  0  0  0
  159.4250  211.8810  154.0080 O   0  0  0  0  0  0  0  0  0  0  0  0
  159.4670  213.4340  149.8990 C   0  0  0  0  0  0  0  0  0  0  0  0
  158.2800  213.5590  150.2970 O   0  0  0  0  0  0  0  0  0  0  0  0
  160.4540  212.7820  150.7070 N   0  0  0  0  0  2  0  0  0  0  0  0
  159.8590  213.9950  148.5750 C   0  0  0  0  0  2  0  0  0  0  0  0
  160.2120  211.7380  148.0060 O   0  0  0  0  0  0  0  0  0  0  0  0
  160.1250  212.8900  147.6070 C   0  0  0  0  0  0  0  0  0  0  0  0
  161.6380  213.2910  145.7590 N   0  0  0  0  0  0  0  0  0  0  0  0
  160.9150  213.2380  143.4560 C   0  0  0  0  0  2  0  0  0  0  0  0
  163.4110  213.4070  144.1320 C   0  0  0  0  0  1  0  0  0  0  0  0
  161.9720  213.3460  144.5160 C   0  0  0  0  0  0  0  0  0  0  0  0
  160.2440  213.2000  146.1480 C   0  0  1  0  0  3  0  0  0  0  0  0
  159.4920  212.1570  145.3000 C   0  0  0  0  0  2  0  0  0  0  0  0
  159.9510  212.1090  143.8280 C   0  0  0  0  0  2  0  0  0  0  0  0
  162.2750  210.7950  150.5070 C   0  0  0  0  0  1  0  0  0  0  0  0
  161.8490  210.2130  151.8410 C   0  0  2  0  0  3  0  0  0  0  0  0
  161.2920  208.8110  151.6390 C   0  0  0  0  0  2  0  0  0  0  0  0
  161.0800  203.3290  147.0200 C   0  0  0  0  0  3  0  0  0  0  0  0
  162.0400  204.2120  144.9730 C   0  0  0  0  0  3  0  0  0  0  0  0
  162.1200  206.3940  151.7590 C   0  0  2  0  0  3  0  0  0  0  0  0
  162.3910  207.8290  151.2250 C   0  0  1  0  0  3  0  0  0  0  0  0
  160.7680  204.3590  151.1990 N   0  0  0  0  0  2  0  0  0  0  0  0
  161.9090  205.6210  146.9370 C   0  0  0  0  0  0  0  0  0  0  0  0
  160.7520  203.7990  150.0530 N   0  0  0  0  0  0  0  0  0  0  0  0
  160.8750  205.8140  151.0770 C   0  0  2  0  0  3  0  0  0  0  0  0
  162.5340  207.8240  149.7570 N   0  0  0  0  0  0  0  0  0  0  0  0
  161.3040  204.5570  147.6500 C   0  0  0  0  0  0  0  0  0  0  0  0
  162.2740  205.4400  145.6000 C   0  0  0  0  0  3  0  0  0  0  0  0
  161.8670  207.0070  148.9940 C   0  0  0  0  0  0  0  0  0  0  0  0
  160.9050  204.7910  149.0500 C   0  0  0  0  0  0  0  0  0  0  0  0
  161.0380  205.9690  149.6140 C   0  0  1  0  0  3  0  0  0  0  0  0
  161.4480  203.1590  145.6820 C   0  0  0  0  0  3  0  0  0  0  0  0
  161.9770  206.3730  153.2710 C   0  0  0  0  0  1  0  0  0  0  0  0
  162.2050  206.8610  147.6080 N   0  0  0  0  0  2  0  0  0  0  0  0
  160.6280  209.8200  154.7100 C   0  0  2  0  0  3  0  0  0  0  0  0
  159.2360  208.1710  156.0970 C   0  0  0  0  0  2  0  0  0  0  0  0
  159.9720  207.4100  155.0090 C   0  0  0  0  0  2  0  0  0  0  0  0
  159.4630  208.8130  154.7370 C   0  0  0  0  0  3  0  0  0  0  0  0
  160.9750  210.3610  156.0230 N   0  0  0  0  0  2  0  0  0  0  0  0
  162.3890  210.0910  156.2450 C   0  0  2  0  0  3  0  0  0  0  0  0
  162.2430  207.7290  156.7060 O   0  0  0  0  0  1  0  0  0  0  0  0
  162.5830  208.9650  157.2590 C   0  0  0  0  0  2  0  0  0  0  0  0
  163.1270  211.3620  156.6470 C   0  0  0  0  0  2  0  0  0  0  0  0
  164.3780  211.4330  156.0310 O   0  0  0  0  0  0  0  0  0  0  0  0
  165.1660  212.1640  156.9200 C   0  0  0  0  0  2  0  0  0  0  0  0
  167.3940  213.3460  156.9510 N   0  0  0  0  0  1  0  0  0  0  0  0
  166.5960  212.3220  155.0230 O   0  0  0  0  0  0  0  0  0  0  0  0
  166.4160  212.5960  156.2380 C   0  0  0  0  0  0  0  0  0  0  0  0
  1  2  1  0  0  0  0
  1  4  2  0  0  0  0
  2  3  2  0  0  0  0
  3  5  1  0  0  0  0
  3 39  1  0  0  0  0
  4  5  1  0  0  0  0
  6  7  2  0  0  0  0
  6  8  1  0  0  0  0
  8  1  1  0  0  0  0
  9  6  1  0  0  0  0
 11 10  2  0  0  0  0
 11  9  1  0  0  0  0
 12 16  1  0  0  0  0
 13 18  1  0  0  0  0
 13 15  1  0  0  0  0
 14 15  1  0  0  0  0
 15 12  2  0  0  0  0
 16 11  1  1  0  0  0
 17 16  1  0  0  0  0
 18 17  1  0  0  0  0
 20 19  1  6  0  0  0
 20  2  1  0  0  0  0
 21 20  1  0  0  0  0
 22 31  1  0  0  0  0
 23 32  2  0  0  0  0
 23 36  1  0  0  0  0
 24 37  1  1  0  0  0
 25 21  1  6  0  0  0
 25 24  1  0  0  0  0
 27 38  1  0  0  0  0
 27 31  2  0  0  0  0
 28 26  1  0  0  0  0
 29 26  1  6  0  0  0
 29 24  1  0  0  0  0
 30 25  1  0  0  0  0
 31 34  1  0  0  0  0
 32 27  1  0  0  0  0
 33 30  2  0  0  0  0
 34 35  1  0  0  0  0
 34 28  2  0  0  0  0
 35 33  1  1  0  0  0
 35 29  1  0  0  0  0
 36 22  2  0  0  0  0
 38 33  1  0  0  0  0
 39 42  1  0  0  0  0
 39 43  1  1  0  0  0
 41 40  1  0  0  0  0
 42 41  1  0  0  0  0
 42 40  1  0  0  0  0
 43 44  1  0  0  0  0
 44 47  1  1  0  0  0
 44 46  1  0  0  0  0
 45 46  1  0  0  0  0
 48 47  1  0  0  0  0
 48 49  1  0  0  0  0
 51 52  2  0  0  0  0
 52 49  1  0  0  0  0
 52 50  1  0  0  0  0
M  END
>  <MODEL>
3

>  <REMARK>
 VINA RESULT:      -5.9      3.353      9.035
  Name = 
  16 active torsions:
  status: ('A' for Active; 'I' for Inactive)
    1  A    between atoms: C_2  and  N_12
    2  A    between atoms: C_2  and  C_39
    3  A    between atoms: C_2  and  C_42
    4  A    between atoms: C_3  and  O_25
    5  A    between atoms: C_3  and  C_41
    6  A    between atoms: C_5  and  C_6
    7  A    between atoms: C_5  and  C_35
    8  A    between atoms: C_6  and  C_15
    9  A    between atoms: N_12  and  C_28
   10  A    between atoms: C_14  and  C_52
   11  A    between atoms: C_18  and  N_26
   12  A    between atoms: O_25  and  C_39
   13  A    between atoms: C_28  and  C_43
   14  A    between atoms: C_28  and  C_50
   15  A    between atoms: C_32  and  C_44
   16  A    between atoms: C_44  and  C_52
                            x       y       z     vdW  Elec       q    Type
                         _______ _______ _______ _____ _____    ______ ____

>  <TORSDO>
F 16

$$$$
=
 OpenBabel11042422193D

 52 58  0  0  1  0  0  0  0  0999 V2000
  160.4180  211.8080  151.5850 C   0  0  0  0  0  0  0  0  0  0  0  0
  160.9680  211.0420  152.5890 C   0  0  0  0  0  0  0  0  0  0  0  0
  160.3930  211.5100  153.7490 C   0  0  0  0  0  0  0  0  0  0  0  0
  159.5430  212.7050  152.1730 C   0  0  0  0  0  3  0  0  0  0  0  0
  159.5590  212.4900  153.4730 O   0  0  0  0  0  0  0  0  0  0  0  0
  161.0790  212.7200  149.3030 C   0  0  0  0  0  0  0  0  0  0  0  0
  161.1930  213.9040  149.7150 O   0  0  0  0  0  0  0  0  0  0  0  0
  160.6950  211.6630  150.1880 N   0  0  0  0  0  2  0  0  0  0  0  0
  161.3710  212.4100  147.8750 C   0  0  0  0  0  2  0  0  0  0  0  0
  161.4440  214.3830  146.5940 O   0  0  0  0  0  0  0  0  0  0  0  0
  160.7650  213.4470  146.9870 C   0  0  0  0  0  0  0  0  0  0  0  0
  158.4430  213.6720  147.6350 N   0  0  0  0  0  0  0  0  0  0  0  0
  156.6440  213.6920  146.0240 C   0  0  0  0  0  2  0  0  0  0  0  0
  156.2790  214.2290  148.5330 C   0  0  0  0  0  1  0  0  0  0  0  0
  157.1810  213.8230  147.4190 C   0  0  0  0  0  0  0  0  0  0  0  0
  159.3400  213.3070  146.5550 C   0  0  1  0  0  3  0  0  0  0  0  0
  159.0640  214.1390  145.2900 C   0  0  0  0  0  2  0  0  0  0  0  0
  157.5690  214.4430  145.0630 C   0  0  0  0  0  2  0  0  0  0  0  0
  163.2450  210.3690  151.8700 C   0  0  0  0  0  1  0  0  0  0  0  0
  161.9330  209.8990  152.4680 C   0  0  2  0  0  3  0  0  0  0  0  0
  161.3540  208.7730  151.6230 C   0  0  0  0  0  2  0  0  0  0  0  0
  161.0360  203.3420  146.9510 C   0  0  0  0  0  3  0  0  0  0  0  0
  161.9310  204.2530  144.8870 C   0  0  0  0  0  3  0  0  0  0  0  0
  162.1980  206.3600  151.6910 C   0  0  2  0  0  3  0  0  0  0  0  0
  162.4460  207.8030  151.1660 C   0  0  1  0  0  3  0  0  0  0  0  0
  160.8410  204.3240  151.1490 N   0  0  0  0  0  2  0  0  0  0  0  0
  161.8500  205.6400  146.8700 C   0  0  0  0  0  0  0  0  0  0  0  0
  160.7950  203.7770  149.9970 N   0  0  0  0  0  0  0  0  0  0  0  0
  160.9370  205.7810  151.0400 C   0  0  2  0  0  3  0  0  0  0  0  0
  162.5460  207.8150  149.6940 N   0  0  0  0  0  0  0  0  0  0  0  0
  161.2720  204.5640  147.5880 C   0  0  0  0  0  0  0  0  0  0  0  0
  162.1770  205.4750  145.5210 C   0  0  0  0  0  3  0  0  0  0  0  0
  161.8610  207.0020  148.9420 C   0  0  0  0  0  0  0  0  0  0  0  0
  160.9130  204.7800  149.0020 C   0  0  0  0  0  0  0  0  0  0  0  0
  161.0560  205.9530  149.5740 C   0  0  1  0  0  3  0  0  0  0  0  0
  161.3660  203.1880  145.6010 C   0  0  0  0  0  3  0  0  0  0  0  0
  162.1000  206.3210  153.2070 C   0  0  0  0  0  1  0  0  0  0  0  0
  162.1590  206.8730  147.5450 N   0  0  0  0  0  2  0  0  0  0  0  0
  160.6390  210.9740  155.1230 C   0  0  2  0  0  3  0  0  0  0  0  0
  162.7730  210.2170  156.3290 C   0  0  0  0  0  2  0  0  0  0  0  0
  162.1660  211.3900  157.0780 C   0  0  0  0  0  2  0  0  0  0  0  0
  162.0710  211.3290  155.5650 C   0  0  0  0  0  3  0  0  0  0  0  0
  160.3440  209.5420  155.1640 N   0  0  0  0  0  2  0  0  0  0  0  0
  159.8020  209.2470  156.4830 C   0  0  2  0  0  3  0  0  0  0  0  0
  160.0050  207.0210  155.5780 O   0  0  0  0  0  1  0  0  0  0  0  0
  159.4370  207.7700  156.6110 C   0  0  0  0  0  2  0  0  0  0  0  0
  158.6250  210.1620  156.8020 C   0  0  0  0  0  2  0  0  0  0  0  0
  157.7770  210.2920  155.7000 O   0  0  0  0  0  0  0  0  0  0  0  0
  157.0180  211.4290  155.9740 C   0  0  0  0  0  2  0  0  0  0  0  0
  156.2120  212.9600  154.1380 N   0  0  0  0  0  1  0  0  0  0  0  0
  155.2560  210.8680  154.4750 O   0  0  0  0  0  0  0  0  0  0  0  0
  156.1180  211.7160  154.8240 C   0  0  0  0  0  0  0  0  0  0  0  0
  1  4  2  0  0  0  0
  1  2  1  0  0  0  0
  2  3  2  0  0  0  0
  3 39  1  0  0  0  0
  4  5  1  0  0  0  0
  5  3  1  0  0  0  0
  6  7  2  0  0  0  0
  6  8  1  0  0  0  0
  8  1  1  0  0  0  0
  9  6  1  0  0  0  0
 10 11  2  0  0  0  0
 11  9  1  0  0  0  0
 13 15  1  0  0  0  0
 15 12  2  0  0  0  0
 15 14  1  0  0  0  0
 16 11  1  1  0  0  0
 16 12  1  0  0  0  0
 17 16  1  0  0  0  0
 18 17  1  0  0  0  0
 18 13  1  0  0  0  0
 20 19  1  6  0  0  0
 20  2  1  0  0  0  0
 21 20  1  0  0  0  0
 22 31  1  0  0  0  0
 23 32  2  0  0  0  0
 23 36  1  0  0  0  0
 24 37  1  1  0  0  0
 25 21  1  6  0  0  0
 25 24  1  0  0  0  0
 27 38  1  0  0  0  0
 27 31  2  0  0  0  0
 28 26  1  0  0  0  0
 29 26  1  6  0  0  0
 29 24  1  0  0  0  0
 30 25  1  0  0  0  0
 31 34  1  0  0  0  0
 32 27  1  0  0  0  0
 33 30  2  0  0  0  0
 34 35  1  0  0  0  0
 34 28  2  0  0  0  0
 35 33  1  1  0  0  0
 35 29  1  0  0  0  0
 36 22  2  0  0  0  0
 38 33  1  0  0  0  0
 39 43  1  6  0  0  0
 39 42  1  0  0  0  0
 40 41  1  0  0  0  0
 42 40  1  0  0  0  0
 42 41  1  0  0  0  0
 43 44  1  0  0  0  0
 44 46  1  6  0  0  0
 44 47  1  0  0  0  0
 45 46  1  0  0  0  0
 48 49  1  0  0  0  0
 48 47  1  0  0  0  0
 50 52  1  0  0  0  0
 51 52  2  0  0  0  0
 52 49  1  0  0  0  0
M  END
>  <MODEL>
4

>  <REMARK>
 VINA RESULT:      -5.8      2.821      8.449
  Name = 
  16 active torsions:
  status: ('A' for Active; 'I' for Inactive)
    1  A    between atoms: C_2  and  N_12
    2  A    between atoms: C_2  and  C_39
    3  A    between atoms: C_2  and  C_42
    4  A    between atoms: C_3  and  O_25
    5  A    between atoms: C_3  and  C_41
    6  A    between atoms: C_5  and  C_6
    7  A    between atoms: C_5  and  C_35
    8  A    between atoms: C_6  and  C_15
    9  A    between atoms: N_12  and  C_28
   10  A    between atoms: C_14  and  C_52
   11  A    between atoms: C_18  and  N_26
   12  A    between atoms: O_25  and  C_39
   13  A    between atoms: C_28  and  C_43
   14  A    between atoms: C_28  and  C_50
   15  A    between atoms: C_32  and  C_44
   16  A    between atoms: C_44  and  C_52
                            x       y       z     vdW  Elec       q    Type
                         _______ _______ _______ _____ _____    ______ ____

>  <TORSDO>
F 16

$$$$
=
 OpenBabel11042422193D

 52 58  0  0  1  0  0  0  0  0999 V2000
  160.3190  211.2790  152.0330 C   0  0  0  0  0  0  0  0  0  0  0  0
  160.9330  211.1730  150.8040 C   0  0  0  0  0  0  0  0  0  0  0  0
  160.6520  212.3580  150.1620 C   0  0  0  0  0  0  0  0  0  0  0  0
  159.6900  212.5110  152.0820 C   0  0  0  0  0  3  0  0  0  0  0  0
  159.9170  213.1250  150.9380 O   0  0  0  0  0  0  0  0  0  0  0  0
  161.3760  210.1840  154.0730 C   0  0  0  0  0  0  0  0  0  0  0  0
  162.3450  210.9860  154.1070 O   0  0  0  0  0  0  0  0  0  0  0  0
  160.3620  210.2900  153.0670 N   0  0  0  0  0  2  0  0  0  0  0  0
  161.2680  209.1200  155.1100 C   0  0  0  0  0  2  0  0  0  0  0  0
  162.3310  209.5220  157.1720 O   0  0  0  0  0  0  0  0  0  0  0  0
  161.3470  209.7210  156.4750 C   0  0  0  0  0  0  0  0  0  0  0  0
  160.6120  211.9950  156.8690 N   0  0  0  0  0  0  0  0  0  0  0  0
  158.2980  212.5600  157.2610 C   0  0  0  0  0  2  0  0  0  0  0  0
  160.1330  214.3550  156.9090 C   0  0  0  0  0  1  0  0  0  0  0  0
  159.7360  212.9250  157.0390 C   0  0  0  0  0  0  0  0  0  0  0  0
  160.2360  210.5970  156.9610 C   0  0  1  0  0  3  0  0  0  0  0  0
  158.9340  210.3140  156.1900 C   0  0  0  0  0  2  0  0  0  0  0  0
  157.9050  211.4600  156.2710 C   0  0  0  0  0  2  0  0  0  0  0  0
  161.6810  209.9640  148.7710 C   0  0  0  0  0  1  0  0  0  0  0  0
  161.7840  210.0520  150.2810 C   0  0  2  0  0  3  0  0  0  0  0  0
  161.3910  208.7210  150.9060 C   0  0  0  0  0  2  0  0  0  0  0  0
  160.6480  202.1860  148.0470 C   0  0  0  0  0  3  0  0  0  0  0  0
  161.2890  202.4550  145.7220 C   0  0  0  0  0  3  0  0  0  0  0  0
  162.2810  206.4160  151.5650 C   0  0  2  0  0  3  0  0  0  0  0  0
  162.4420  207.6440  150.6250 C   0  0  1  0  0  3  0  0  0  0  0  0
  160.9070  204.3300  151.7830 N   0  0  0  0  0  2  0  0  0  0  0  0
  161.4060  204.3520  147.2210 C   0  0  0  0  0  0  0  0  0  0  0  0
  160.7420  203.4770  150.8490 N   0  0  0  0  0  0  0  0  0  0  0  0
  160.9650  205.6930  151.2530 C   0  0  2  0  0  3  0  0  0  0  0  0
  162.3760  207.2330  149.2090 N   0  0  0  0  0  0  0  0  0  0  0  0
  160.9320  203.5360  148.2770 C   0  0  0  0  0  0  0  0  0  0  0  0
  161.5820  203.8040  145.9470 C   0  0  0  0  0  3  0  0  0  0  0  0
  161.6260  206.2500  148.8030 C   0  0  0  0  0  0  0  0  0  0  0  0
  160.7300  204.1520  149.6010 C   0  0  0  0  0  0  0  0  0  0  0  0
  160.9160  205.4380  149.7950 C   0  0  1  0  0  3  0  0  0  0  0  0
  160.8260  201.6480  146.7680 C   0  0  0  0  0  3  0  0  0  0  0  0
  162.3540  206.8130  153.0290 C   0  0  0  0  0  1  0  0  0  0  0  0
  161.7670  205.7220  147.4770 N   0  0  0  0  0  2  0  0  0  0  0  0
  161.1300  212.7460  148.8000 C   0  0  2  0  0  3  0  0  0  0  0  0
  163.0800  214.0220  147.7280 C   0  0  0  0  0  2  0  0  0  0  0  0
  163.3760  212.5330  147.6860 C   0  0  0  0  0  2  0  0  0  0  0  0
  162.6220  213.1210  148.8650 C   0  0  0  0  0  3  0  0  0  0  0  0
  160.2770  213.7980  148.2490 N   0  0  0  0  0  2  0  0  0  0  0  0
  159.4980  213.2070  147.1690 C   0  0  2  0  0  3  0  0  0  0  0  0
  157.1780  212.7650  146.6850 O   0  0  0  0  0  1  0  0  0  0  0  0
  158.1560  212.6860  147.6790 C   0  0  0  0  0  2  0  0  0  0  0  0
  160.3000  212.1290  146.4500 C   0  0  0  0  0  2  0  0  0  0  0  0
  160.0830  212.1770  145.0720 O   0  0  0  0  0  0  0  0  0  0  0  0
  160.5290  213.4410  144.6900 C   0  0  0  0  0  2  0  0  0  0  0  0
  162.0080  212.3230  142.9790 N   0  0  0  0  0  1  0  0  0  0  0  0
  162.7900  214.0730  144.2950 O   0  0  0  0  0  0  0  0  0  0  0  0
  161.8330  213.3170  143.9840 C   0  0  0  0  0  0  0  0  0  0  0  0
  1  4  2  0  0  0  0
  1  8  1  0  0  0  0
  2  1  1  0  0  0  0
  3  2  2  0  0  0  0
  3  5  1  0  0  0  0
  5  4  1  0  0  0  0
  6  7  2  0  0  0  0
  6  9  1  0  0  0  0
  8  6  1  0  0  0  0
  9 11  1  0  0  0  0
 11 10  2  0  0  0  0
 12 16  1  0  0  0  0
 12 15  2  0  0  0  0
 14 15  1  0  0  0  0
 15 13  1  0  0  0  0
 16 11  1  6  0  0  0
 17 18  1  0  0  0  0
 17 16  1  0  0  0  0
 18 13  1  0  0  0  0
 20 19  1  6  0  0  0
 20  2  1  0  0  0  0
 20 21  1  0  0  0  0
 22 31  1  0  0  0  0
 23 32  2  0  0  0  0
 23 36  1  0  0  0  0
 24 37  1  1  0  0  0
 25 21  1  1  0  0  0
 25 24  1  0  0  0  0
 27 38  1  0  0  0  0
 27 31  2  0  0  0  0
 28 26  1  0  0  0  0
 29 24  1  0  0  0  0
 29 26  1  1  0  0  0
 30 25  1  0  0  0  0
 31 34  1  0  0  0  0
 32 27  1  0  0  0  0
 33 30  2  0  0  0  0
 34 35  1  0  0  0  0
 34 28  2  0  0  0  0
 35 33  1  6  0  0  0
 35 29  1  0  0  0  0
 36 22  2  0  0  0  0
 38 33  1  0  0  0  0
 39 43  1  1  0  0  0
 39 42  1  0  0  0  0
 39  3  1  0  0  0  0
 40 42  1  0  0  0  0
 41 40  1  0  0  0  0
 41 42  1  0  0  0  0
 44 47  1  1  0  0  0
 44 46  1  0  0  0  0
 44 43  1  0  0  0  0
 45 46  1  0  0  0  0
 48 47  1  0  0  0  0
 49 48  1  0  0  0  0
 50 52  1  0  0  0  0
 52 51  2  0  0  0  0
 52 49  1  0  0  0  0
M  END
>  <MODEL>
5

>  <REMARK>
 VINA RESULT:      -5.7      2.331      3.564
  Name = 
  16 active torsions:
  status: ('A' for Active; 'I' for Inactive)
    1  A    between atoms: C_2  and  N_12
    2  A    between atoms: C_2  and  C_39
    3  A    between atoms: C_2  and  C_42
    4  A    between atoms: C_3  and  O_25
    5  A    between atoms: C_3  and  C_41
    6  A    between atoms: C_5  and  C_6
    7  A    between atoms: C_5  and  C_35
    8  A    between atoms: C_6  and  C_15
    9  A    between atoms: N_12  and  C_28
   10  A    between atoms: C_14  and  C_52
   11  A    between atoms: C_18  and  N_26
   12  A    between atoms: O_25  and  C_39
   13  A    between atoms: C_28  and  C_43
   14  A    between atoms: C_28  and  C_50
   15  A    between atoms: C_32  and  C_44
   16  A    between atoms: C_44  and  C_52
                            x       y       z     vdW  Elec       q    Type
                         _______ _______ _______ _____ _____    ______ ____

>  <TORSDO>
F 16

$$$$
=
 OpenBabel11042422193D

 52 58  0  0  1  0  0  0  0  0999 V2000
  160.0270  211.3490  151.8220 C   0  0  0  0  0  0  0  0  0  0  0  0
  160.9660  210.5650  152.4560 C   0  0  0  0  0  0  0  0  0  0  0  0
  160.3290  210.0870  153.5800 C   0  0  0  0  0  0  0  0  0  0  0  0
  158.8730  211.3210  152.5840 C   0  0  0  0  0  3  0  0  0  0  0  0
  159.0990  210.5510  153.6290 O   0  0  0  0  0  0  0  0  0  0  0  0
  160.0430  213.4420  150.3720 C   0  0  0  0  0  0  0  0  0  0  0  0
  159.6670  214.1950  151.3080 O   0  0  0  0  0  0  0  0  0  0  0  0
  160.2270  212.0370  150.5820 N   0  0  0  0  0  2  0  0  0  0  0  0
  160.3250  214.0240  149.0300 C   0  0  0  0  0  2  0  0  0  0  0  0
  158.1370  213.3450  148.4860 O   0  0  0  0  0  0  0  0  0  0  0  0
  159.2450  213.6490  148.0690 C   0  0  0  0  0  0  0  0  0  0  0  0
  160.9450  213.6190  146.3450 N   0  0  0  0  0  0  0  0  0  0  0  0
  160.4290  213.2070  144.0230 C   0  0  0  0  0  2  0  0  0  0  0  0
  162.8600  213.3310  144.9130 C   0  0  0  0  0  1  0  0  0  0  0  0
  161.3920  213.4320  145.1510 C   0  0  0  0  0  0  0  0  0  0  0  0
  159.5190  213.6880  146.5990 C   0  0  1  0  0  3  0  0  0  0  0  0
  158.7630  212.5640  145.8680 C   0  0  0  0  0  2  0  0  0  0  0  0
  159.3460  212.2270  144.4800 C   0  0  0  0  0  2  0  0  0  0  0  0
  162.7870  211.1420  150.8740 C   0  0  0  0  0  1  0  0  0  0  0  0
  162.3590  210.2320  152.0090 C   0  0  2  0  0  3  0  0  0  0  0  0
  162.4680  208.7770  151.5740 C   0  0  0  0  0  2  0  0  0  0  0  0
  161.2080  202.7940  147.8260 C   0  0  0  0  0  3  0  0  0  0  0  0
  160.0500  201.3300  149.3760 C   0  0  0  0  0  3  0  0  0  0  0  0
  161.3630  208.3350  149.3100 C   0  0  2  0  0  3  0  0  0  0  0  0
  161.1980  208.3140  150.8560 C   0  0  1  0  0  3  0  0  0  0  0  0
  162.3300  206.9460  147.4620 N   0  0  0  0  0  2  0  0  0  0  0  0
  160.6820  203.5570  150.0820 C   0  0  0  0  0  0  0  0  0  0  0  0
  162.0850  205.7060  147.2920 N   0  0  0  0  0  0  0  0  0  0  0  0
  162.3940  207.2830  148.8850 C   0  0  2  0  0  3  0  0  0  0  0  0
  160.8170  206.9680  151.3250 N   0  0  0  0  0  0  0  0  0  0  0  0
  161.2520  203.7910  148.8060 C   0  0  0  0  0  0  0  0  0  0  0  0
  160.0840  202.3250  150.3580 C   0  0  0  0  0  3  0  0  0  0  0  0
  161.2390  205.8820  150.7430 C   0  0  0  0  0  0  0  0  0  0  0  0
  161.9010  205.0910  148.5570 C   0  0  0  0  0  0  0  0  0  0  0  0
  162.0160  205.9930  149.5040 C   0  0  1  0  0  3  0  0  0  0  0  0
  160.6080  201.5650  148.1130 C   0  0  0  0  0  3  0  0  0  0  0  0
  161.7460  209.7150  148.8040 C   0  0  0  0  0  1  0  0  0  0  0  0
  160.6640  204.6090  151.0650 N   0  0  0  0  0  2  0  0  0  0  0  0
  160.9210  209.1540  154.5860 C   0  0  2  0  0  3  0  0  0  0  0  0
  160.2470  206.9400  155.6940 C   0  0  0  0  0  2  0  0  0  0  0  0
  161.3460  206.6760  154.6810 C   0  0  0  0  0  2  0  0  0  0  0  0
  160.3100  207.7510  154.4090 C   0  0  0  0  0  3  0  0  0  0  0  0
  160.7650  209.7020  155.9320 N   0  0  0  0  0  2  0  0  0  0  0  0
  161.5750  210.9100  156.0070 C   0  0  2  0  0  3  0  0  0  0  0  0
  163.9730  211.0790  155.8230 O   0  0  0  0  0  1  0  0  0  0  0  0
  162.9360  210.6240  156.6390 C   0  0  0  0  0  2  0  0  0  0  0  0
  160.8250  212.0220  156.7310 C   0  0  0  0  0  2  0  0  0  0  0  0
  160.1100  212.8140  155.8310 O   0  0  0  0  0  0  0  0  0  0  0  0
  159.0010  213.2530  156.5540 C   0  0  0  0  0  2  0  0  0  0  0  0
  156.9360  213.2780  155.1050 N   0  0  0  0  0  1  0  0  0  0  0  0
  157.4610  211.4410  156.4300 O   0  0  0  0  0  0  0  0  0  0  0  0
  157.7730  212.5930  156.0320 C   0  0  0  0  0  0  0  0  0  0  0  0
  1  2  1  0  0  0  0
  1  4  2  0  0  0  0
  2  3  2  0  0  0  0
  3  5  1  0  0  0  0
  3 39  1  0  0  0  0
  4  5  1  0  0  0  0
  6  8  1  0  0  0  0
  6  7  2  0  0  0  0
  8  1  1  0  0  0  0
  9  6  1  0  0  0  0
 11 10  2  0  0  0  0
 11  9  1  0  0  0  0
 12 16  1  0  0  0  0
 13 18  1  0  0  0  0
 13 15  1  0  0  0  0
 14 15  1  0  0  0  0
 15 12  2  0  0  0  0
 16 11  1  1  0  0  0
 17 16  1  0  0  0  0
 18 17  1  0  0  0  0
 20 19  1  6  0  0  0
 20  2  1  0  0  0  0
 21 20  1  0  0  0  0
 22 36  2  0  0  0  0
 22 31  1  0  0  0  0
 23 32  2  0  0  0  0
 24 37  1  1  0  0  0
 24 25  1  0  0  0  0
 25 30  1  0  0  0  0
 25 21  1  1  0  0  0
 27 32  1  0  0  0  0
 27 38  1  0  0  0  0
 28 26  1  0  0  0  0
 28 34  2  0  0  0  0
 29 26  1  6  0  0  0
 29 24  1  0  0  0  0
 29 35  1  0  0  0  0
 31 27  2  0  0  0  0
 33 38  1  0  0  0  0
 33 30  2  0  0  0  0
 34 31  1  0  0  0  0
 35 34  1  6  0  0  0
 35 33  1  0  0  0  0
 36 23  1  0  0  0  0
 39 43  1  1  0  0  0
 41 40  1  0  0  0  0
 42 39  1  0  0  0  0
 42 41  1  0  0  0  0
 42 40  1  0  0  0  0
 43 44  1  0  0  0  0
 44 46  1  1  0  0  0
 44 47  1  0  0  0  0
 45 46  1  0  0  0  0
 48 49  1  0  0  0  0
 48 47  1  0  0  0  0
 50 52  1  0  0  0  0
 52 51  2  0  0  0  0
 52 49  1  0  0  0  0
M  END
>  <MODEL>
6

>  <REMARK>
 VINA RESULT:      -5.5      2.714      8.828
  Name = 
  16 active torsions:
  status: ('A' for Active; 'I' for Inactive)
    1  A    between atoms: C_2  and  N_12
    2  A    between atoms: C_2  and  C_39
    3  A    between atoms: C_2  and  C_42
    4  A    between atoms: C_3  and  O_25
    5  A    between atoms: C_3  and  C_41
    6  A    between atoms: C_5  and  C_6
    7  A    between atoms: C_5  and  C_35
    8  A    between atoms: C_6  and  C_15
    9  A    between atoms: N_12  and  C_28
   10  A    between atoms: C_14  and  C_52
   11  A    between atoms: C_18  and  N_26
   12  A    between atoms: O_25  and  C_39
   13  A    between atoms: C_28  and  C_43
   14  A    between atoms: C_28  and  C_50
   15  A    between atoms: C_32  and  C_44
   16  A    between atoms: C_44  and  C_52
                            x       y       z     vdW  Elec       q    Type
                         _______ _______ _______ _____ _____    ______ ____

>  <TORSDO>
F 16

$$$$
=
 OpenBabel11042422193D

 52 58  0  0  1  0  0  0  0  0999 V2000
  159.9570  213.5420  149.6320 C   0  0  0  0  0  0  0  0  0  0  0  0
  160.7810  212.9310  148.7120 C   0  0  0  0  0  0  0  0  0  0  0  0
  160.4560  213.5090  147.5050 C   0  0  0  0  0  0  0  0  0  0  0  0
  159.1690  214.4530  148.9510 C   0  0  0  0  0  3  0  0  0  0  0  0
  159.5040  214.4010  147.6770 O   0  0  0  0  0  0  0  0  0  0  0  0
  158.8090  213.3470  151.8960 C   0  0  0  0  0  0  0  0  0  0  0  0
  157.6760  213.6590  151.4430 O   0  0  0  0  0  0  0  0  0  0  0  0
  159.9550  213.2830  151.0400 N   0  0  0  0  0  2  0  0  0  0  0  0
  158.9550  213.0150  153.3410 C   0  0  0  0  0  2  0  0  0  0  0  0
  159.1910  210.8150  152.5380 O   0  0  0  0  0  0  0  0  0  0  0  0
  159.2210  211.5550  153.5100 C   0  0  0  0  0  0  0  0  0  0  0  0
  160.2330  209.7380  154.7500 N   0  0  0  0  0  0  0  0  0  0  0  0
  160.8240  209.9320  157.0830 C   0  0  0  0  0  2  0  0  0  0  0  0
  161.5100  207.8970  155.6330 C   0  0  0  0  0  1  0  0  0  0  0  0
  160.7970  209.1970  155.7750 C   0  0  0  0  0  0  0  0  0  0  0  0
  159.5620  211.0190  154.8640 C   0  0  1  0  0  3  0  0  0  0  0  0
  160.4090  212.0290  155.6590 C   0  0  0  0  0  2  0  0  0  0  0  0
  161.1950  211.3950  156.8250 C   0  0  0  0  0  2  0  0  0  0  0  0
  162.9390  212.0140  147.9030 C   0  0  0  0  0  1  0  0  0  0  0  0
  161.8510  211.9070  148.9540 C   0  0  2  0  0  3  0  0  0  0  0  0
  161.2770  210.4980  148.9630 C   0  0  0  0  0  2  0  0  0  0  0  0
  160.7940  203.3990  149.8580 C   0  0  0  0  0  3  0  0  0  0  0  0
  161.1910  202.4720  147.6510 C   0  0  0  0  0  3  0  0  0  0  0  0
  162.4060  208.8600  150.5710 C   0  0  2  0  0  3  0  0  0  0  0  0
  162.3800  209.4490  149.1320 C   0  0  1  0  0  3  0  0  0  0  0  0
  161.2300  207.1400  151.9650 N   0  0  0  0  0  2  0  0  0  0  0  0
  161.2960  204.8680  147.9780 C   0  0  0  0  0  0  0  0  0  0  0  0
  161.0470  205.9290  151.6080 N   0  0  0  0  0  0  0  0  0  0  0  0
  161.1280  208.0500  150.8230 C   0  0  2  0  0  3  0  0  0  0  0  0
  162.2140  208.3790  148.1300 N   0  0  0  0  0  0  0  0  0  0  0  0
  160.9890  204.6860  149.3490 C   0  0  0  0  0  0  0  0  0  0  0  0
  161.3950  203.7560  147.1370 C   0  0  0  0  0  3  0  0  0  0  0  0
  161.5100  207.3090  148.3620 C   0  0  0  0  0  0  0  0  0  0  0  0
  160.8640  205.8820  150.2020 C   0  0  0  0  0  0  0  0  0  0  0  0
  160.9630  207.0930  149.7050 C   0  0  1  0  0  3  0  0  0  0  0  0
  160.8950  202.2930  149.0080 C   0  0  0  0  0  3  0  0  0  0  0  0
  162.5840  209.9440  151.6210 C   0  0  0  0  0  1  0  0  0  0  0  0
  161.5680  206.1880  147.4700 N   0  0  0  0  0  2  0  0  0  0  0  0
  161.1030  213.2080  146.1920 C   0  0  2  0  0  3  0  0  0  0  0  0
  162.9220  214.4530  144.8800 C   0  0  0  0  0  2  0  0  0  0  0  0
  163.3940  213.0390  145.1660 C   0  0  0  0  0  2  0  0  0  0  0  0
  162.5370  213.7700  146.1830 C   0  0  0  0  0  3  0  0  0  0  0  0
  160.2680  213.6960  145.0970 N   0  0  0  0  0  2  0  0  0  0  0  0
  159.5640  212.5490  144.5400 C   0  0  2  0  0  3  0  0  0  0  0  0
  157.6240  212.4020  145.9640 O   0  0  0  0  0  1  0  0  0  0  0  0
  158.8250  211.7740  145.6290 C   0  0  0  0  0  2  0  0  0  0  0  0
  160.5170  211.6620  143.7470 C   0  0  0  0  0  2  0  0  0  0  0  0
  160.9610  212.3080  142.5920 O   0  0  0  0  0  0  0  0  0  0  0  0
  159.8050  212.5110  141.8380 C   0  0  0  0  0  2  0  0  0  0  0  0
  158.8330  214.2780  140.3230 N   0  0  0  0  0  1  0  0  0  0  0  0
  161.0780  214.3040  140.9250 O   0  0  0  0  0  0  0  0  0  0  0  0
  159.9540  213.7460  141.0200 C   0  0  0  0  0  0  0  0  0  0  0  0
  1  8  1  0  0  0  0
  2 20  1  0  0  0  0
  2  1  1  0  0  0  0
  3  5  1  0  0  0  0
  3  2  2  0  0  0  0
  4  1  2  0  0  0  0
  5  4  1  0  0  0  0
  6  9  1  0  0  0  0
  7  6  2  0  0  0  0
  8  6  1  0  0  0  0
  9 11  1  0  0  0  0
 10 11  2  0  0  0  0
 12 16  1  0  0  0  0
 12 15  2  0  0  0  0
 14 15  1  0  0  0  0
 15 13  1  0  0  0  0
 16 11  1  6  0  0  0
 16 17  1  0  0  0  0
 17 18  1  0  0  0  0
 18 13  1  0  0  0  0
 20 19  1  6  0  0  0
 20 21  1  0  0  0  0
 23 36  1  0  0  0  0
 24 29  1  0  0  0  0
 24 37  1  1  0  0  0
 25 21  1  1  0  0  0
 25 24  1  0  0  0  0
 27 31  2  0  0  0  0
 28 26  1  0  0  0  0
 29 26  1  1  0  0  0
 30 33  2  0  0  0  0
 30 25  1  0  0  0  0
 31 22  1  0  0  0  0
 31 34  1  0  0  0  0
 32 23  2  0  0  0  0
 32 27  1  0  0  0  0
 34 28  2  0  0  0  0
 35 33  1  6  0  0  0
 35 34  1  0  0  0  0
 35 29  1  0  0  0  0
 36 22  2  0  0  0  0
 38 27  1  0  0  0  0
 38 33  1  0  0  0  0
 39 43  1  6  0  0  0
 39  3  1  0  0  0  0
 40 41  1  0  0  0  0
 40 42  1  0  0  0  0
 41 42  1  0  0  0  0
 42 39  1  0  0  0  0
 44 47  1  1  0  0  0
 44 43  1  0  0  0  0
 44 46  1  0  0  0  0
 46 45  1  0  0  0  0
 48 47  1  0  0  0  0
 49 48  1  0  0  0  0
 50 52  1  0  0  0  0
 51 52  2  0  0  0  0
 52 49  1  0  0  0  0
M  END
>  <MODEL>
7

>  <REMARK>
 VINA RESULT:      -5.2      1.889      2.212
  Name = 
  16 active torsions:
  status: ('A' for Active; 'I' for Inactive)
    1  A    between atoms: C_2  and  N_12
    2  A    between atoms: C_2  and  C_39
    3  A    between atoms: C_2  and  C_42
    4  A    between atoms: C_3  and  O_25
    5  A    between atoms: C_3  and  C_41
    6  A    between atoms: C_5  and  C_6
    7  A    between atoms: C_5  and  C_35
    8  A    between atoms: C_6  and  C_15
    9  A    between atoms: N_12  and  C_28
   10  A    between atoms: C_14  and  C_52
   11  A    between atoms: C_18  and  N_26
   12  A    between atoms: O_25  and  C_39
   13  A    between atoms: C_28  and  C_43
   14  A    between atoms: C_28  and  C_50
   15  A    between atoms: C_32  and  C_44
   16  A    between atoms: C_44  and  C_52
                            x       y       z     vdW  Elec       q    Type
                         _______ _______ _______ _____ _____    ______ ____

>  <TORSDO>
F 16

$$$$
=
 OpenBabel11042422193D

 52 58  0  0  1  0  0  0  0  0999 V2000
  159.7890  213.0170  150.8300 C   0  0  0  0  0  0  0  0  0  0  0  0
  160.4380  212.6510  149.6710 C   0  0  0  0  0  0  0  0  0  0  0  0
  160.0510  213.5860  148.7370 C   0  0  0  0  0  0  0  0  0  0  0  0
  159.0370  214.1450  150.5520 C   0  0  0  0  0  3  0  0  0  0  0  0
  159.2250  214.4520  149.2840 O   0  0  0  0  0  0  0  0  0  0  0  0
  159.7320  212.9600  153.3750 C   0  0  0  0  0  0  0  0  0  0  0  0
  159.4530  214.1830  153.4800 O   0  0  0  0  0  0  0  0  0  0  0  0
  159.9100  212.3500  152.0910 N   0  0  0  0  0  2  0  0  0  0  0  0
  159.8550  212.1280  154.6040 C   0  0  0  0  0  2  0  0  0  0  0  0
  158.2470  210.4900  155.1290 O   0  0  0  0  0  0  0  0  0  0  0  0
  158.5040  211.6830  155.0620 C   0  0  0  0  0  0  0  0  0  0  0  0
  156.6120  213.0240  154.3640 N   0  0  0  0  0  0  0  0  0  0  0  0
  155.1660  214.1430  155.9400 C   0  0  0  0  0  2  0  0  0  0  0  0
  154.6370  214.0140  153.4060 C   0  0  0  0  0  1  0  0  0  0  0  0
  155.5450  213.7210  154.5510 C   0  0  0  0  0  0  0  0  0  0  0  0
  157.4910  212.7030  155.4730 C   0  0  1  0  0  3  0  0  0  0  0  0
  156.6940  212.2250  156.7010 C   0  0  0  0  0  2  0  0  0  0  0  0
  155.3480  212.9560  156.8880 C   0  0  0  0  0  2  0  0  0  0  0  0
  161.4610  211.1310  148.0000 C   0  0  0  0  0  1  0  0  0  0  0  0
  161.4090  211.5270  149.4620 C   0  0  2  0  0  3  0  0  0  0  0  0
  161.0480  210.3180  150.3130 C   0  0  0  0  0  2  0  0  0  0  0  0
  160.9030  203.2130  149.3480 C   0  0  0  0  0  3  0  0  0  0  0  0
  161.5810  202.8920  147.0400 C   0  0  0  0  0  3  0  0  0  0  0  0
  162.1020  208.3620  151.5810 C   0  0  2  0  0  3  0  0  0  0  0  0
  162.1890  209.2970  150.3410 C   0  0  1  0  0  3  0  0  0  0  0  0
  160.8940  206.3070  152.3570 N   0  0  0  0  0  2  0  0  0  0  0  0
  161.5080  205.1280  147.9640 C   0  0  0  0  0  0  0  0  0  0  0  0
  160.8220  205.2210  151.6910 N   0  0  0  0  0  0  0  0  0  0  0  0
  160.8560  207.4740  151.4740 C   0  0  2  0  0  3  0  0  0  0  0  0
  162.1930  208.5120  149.0920 N   0  0  0  0  0  0  0  0  0  0  0  0
  161.0730  204.5930  149.2010 C   0  0  0  0  0  0  0  0  0  0  0  0
  161.7600  204.2710  146.8890 C   0  0  0  0  0  3  0  0  0  0  0  0
  161.5340  207.3960  148.9670 C   0  0  0  0  0  0  0  0  0  0  0  0
  160.7880  205.5280  150.3060 C   0  0  0  0  0  0  0  0  0  0  0  0
  160.8650  206.8280  150.1420 C   0  0  1  0  0  3  0  0  0  0  0  0
  161.1580  202.3640  148.2660 C   0  0  0  0  0  3  0  0  0  0  0  0
  162.1050  209.1480  152.8810 C   0  0  0  0  0  1  0  0  0  0  0  0
  161.7510  206.5410  147.8370 N   0  0  0  0  0  2  0  0  0  0  0  0
  160.5170  213.6440  147.3180 C   0  0  2  0  0  3  0  0  0  0  0  0
  162.9450  213.7420  146.4940 C   0  0  0  0  0  2  0  0  0  0  0  0
  162.9330  213.7630  148.0120 C   0  0  0  0  0  2  0  0  0  0  0  0
  161.8250  214.4530  147.2380 C   0  0  0  0  0  3  0  0  0  0  0  0
  159.4500  214.1560  146.4600 N   0  0  0  0  0  2  0  0  0  0  0  0
  158.7590  213.0060  145.8920 C   0  0  2  0  0  3  0  0  0  0  0  0
  156.9240  213.0550  147.4550 O   0  0  0  0  0  1  0  0  0  0  0  0
  157.9600  212.2610  146.9590 C   0  0  0  0  0  2  0  0  0  0  0  0
  159.7370  212.0930  145.1620 C   0  0  0  0  0  2  0  0  0  0  0  0
  160.4550  212.7980  144.1940 O   0  0  0  0  0  0  0  0  0  0  0  0
  160.1410  212.1630  142.9930 C   0  0  0  0  0  2  0  0  0  0  0  0
  161.3420  211.1710  141.0080 N   0  0  0  0  0  1  0  0  0  0  0  0
  162.4850  212.3750  142.6350 O   0  0  0  0  0  0  0  0  0  0  0  0
  161.3870  211.9280  142.2140 C   0  0  0  0  0  0  0  0  0  0  0  0
  1  8  1  0  0  0  0
  2  1  1  0  0  0  0
  3  5  1  0  0  0  0
  3  2  2  0  0  0  0
  4  1  2  0  0  0  0
  5  4  1  0  0  0  0
  6  7  2  0  0  0  0
  6  9  1  0  0  0  0
  8  6  1  0  0  0  0
  9 11  1  0  0  0  0
 11 10  2  0  0  0  0
 12 15  2  0  0  0  0
 12 16  1  0  0  0  0
 13 18  1  0  0  0  0
 14 15  1  0  0  0  0
 15 13  1  0  0  0  0
 16 11  1  6  0  0  0
 16 17  1  0  0  0  0
 17 18  1  0  0  0  0
 20 19  1  6  0  0  0
 20  2  1  0  0  0  0
 20 21  1  0  0  0  0
 23 36  1  0  0  0  0
 24 37  1  1  0  0  0
 25 21  1  6  0  0  0
 25 24  1  0  0  0  0
 27 31  2  0  0  0  0
 28 26  1  0  0  0  0
 29 24  1  0  0  0  0
 29 26  1  1  0  0  0
 30 25  1  0  0  0  0
 31 22  1  0  0  0  0
 31 34  1  0  0  0  0
 32 23  2  0  0  0  0
 32 27  1  0  0  0  0
 33 30  2  0  0  0  0
 34 28  2  0  0  0  0
 35 33  1  1  0  0  0
 35 34  1  0  0  0  0
 35 29  1  0  0  0  0
 36 22  2  0  0  0  0
 38 27  1  0  0  0  0
 38 33  1  0  0  0  0
 39 43  1  6  0  0  0
 39  3  1  0  0  0  0
 40 42  1  0  0  0  0
 40 41  1  0  0  0  0
 42 39  1  0  0  0  0
 42 41  1  0  0  0  0
 44 47  1  1  0  0  0
 44 43  1  0  0  0  0
 44 46  1  0  0  0  0
 46 45  1  0  0  0  0
 48 47  1  0  0  0  0
 49 48  1  0  0  0  0
 50 52  1  0  0  0  0
 52 51  2  0  0  0  0
 52 49  1  0  0  0  0
M  END
>  <MODEL>
8

>  <REMARK>
 VINA RESULT:      -4.7      1.554      2.018
  Name = 
  16 active torsions:
  status: ('A' for Active; 'I' for Inactive)
    1  A    between atoms: C_2  and  N_12
    2  A    between atoms: C_2  and  C_39
    3  A    between atoms: C_2  and  C_42
    4  A    between atoms: C_3  and  O_25
    5  A    between atoms: C_3  and  C_41
    6  A    between atoms: C_5  and  C_6
    7  A    between atoms: C_5  and  C_35
    8  A    between atoms: C_6  and  C_15
    9  A    between atoms: N_12  and  C_28
   10  A    between atoms: C_14  and  C_52
   11  A    between atoms: C_18  and  N_26
   12  A    between atoms: O_25  and  C_39
   13  A    between atoms: C_28  and  C_43
   14  A    between atoms: C_28  and  C_50
   15  A    between atoms: C_32  and  C_44
   16  A    between atoms: C_44  and  C_52
                            x       y       z     vdW  Elec       q    Type
                         _______ _______ _______ _____ _____    ______ ____

>  <TORSDO>
F 16

$$$$
