=
 OpenBabel11052410473D

 37 40  0  0  1  0  0  0  0  0999 V2000
  161.6640  208.8110  148.7230 C   0  0  0  0  0  3  0  0  0  0  0  0
  161.6710  205.7540  151.5620 C   0  0  0  0  0  0  0  0  0  0  0  0
  162.0650  206.0250  152.9070 N   0  0  0  0  0  2  0  0  0  0  0  0
  160.8790  204.2270  149.8650 C   0  0  0  0  0  3  0  0  0  0  0  0
  160.0990  209.7940  156.3770 C   0  0  1  0  0  3  0  0  0  0  0  0
  161.2490  204.4730  151.1910 C   0  0  0  0  0  3  0  0  0  0  0  0
  161.3070  207.5150  148.3370 C   0  0  0  0  0  3  0  0  0  0  0  0
  161.1030  205.9880  153.9940 C   0  0  0  0  0  2  0  0  0  0  0  0
  161.4080  210.7890  151.6020 N   0  0  0  0  0  0  0  0  0  0  0  0
  160.9200  205.2290  148.9430 N   0  0  0  0  0  0  0  0  0  0  0  0
  162.3190  210.4410  150.5150 C   0  0  0  0  0  2  0  0  0  0  0  0
  162.9060  210.1760  153.2860 O   0  0  0  0  0  0  0  0  0  0  0  0
  162.0350  209.0540  150.0490 C   0  0  0  0  0  0  0  0  0  0  0  0
  161.3150  206.4850  149.2800 C   0  0  0  0  0  0  0  0  0  0  0  0
  160.5910  210.1110  153.9240 C   0  0  0  0  0  2  0  0  0  0  0  0
  160.5200  207.3130  154.1770 N   0  0  0  0  0  2  0  0  0  0  0  0
  161.7070  206.7680  150.6020 C   0  0  0  0  0  0  0  0  0  0  0  0
  160.6500  207.6010  156.5590 C   0  0  0  0  0  2  0  0  0  0  0  0
  161.2580  207.9730  155.2520 C   0  0  2  0  0  3  0  0  0  0  0  0
  162.0590  208.0340  150.9470 N   0  0  0  0  0  0  0  0  0  0  0  0
  161.7050  210.3600  152.9420 C   0  0  0  0  0  0  0  0  0  0  0  0
  161.0770  209.5020  155.2410 C   0  0  2  0  0  3  0  0  0  0  0  0
  160.0440  208.5690  157.1280 N   0  0  0  0  0  2  0  0  0  0  0  0
  162.0140  211.1890  156.9920 N   0  0  0  0  0  1  0  0  0  0  0  0
  160.6080  210.9320  157.2610 C   0  0  1  0  0  3  0  0  0  0  0  0
  159.8200  212.2010  156.9950 C   0  0  0  0  0  1  0  0  0  0  0  0
  160.0880  211.2980  151.2490 C   0  0  0  0  0  2  0  0  0  0  0  0
  160.0560  212.8150  151.3470 C   0  0  0  0  0  2  0  0  0  0  0  0
  157.6680  213.5610  151.8750 C   0  0  0  0  0  0  0  0  0  0  0  0
  158.7480  213.3180  150.9640 N   0  0  0  0  0  2  0  0  0  0  0  0
  156.5340  213.8230  151.3940 O   0  0  0  0  0  0  0  0  0  0  0  0
  157.8500  213.5170  153.3090 N   0  0  0  0  0  0  0  0  0  0  0  0
  159.1060  213.5270  153.8190 O   0  0  0  0  0  1  0  0  0  0  0  0
  156.3010  212.1000  154.5880 C   0  0  0  0  0  1  0  0  0  0  0  0
  155.4930  214.2030  153.6050 C   0  0  0  0  0  1  0  0  0  0  0  0
  157.0470  214.2820  155.5030 C   0  0  0  0  0  1  0  0  0  0  0  0
  156.7000  213.5230  154.2320 C   0  0  0  0  0  0  0  0  0  0  0  0
  1 13  1  0  0  0  0
  2  3  1  0  0  0  0
  3  8  1  0  0  0  0
  4  6  2  0  0  0  0
  5 23  1  0  0  0  0
  5 25  1  1  0  0  0
  6  2  1  0  0  0  0
  7  1  2  0  0  0  0
  7 14  1  0  0  0  0
  8 16  1  0  0  0  0
  9 21  1  0  0  0  0
 10 14  2  0  0  0  0
 10  4  1  0  0  0  0
 11  9  1  0  0  0  0
 13 11  1  0  0  0  0
 13 20  2  0  0  0  0
 14 17  1  0  0  0  0
 16 19  1  0  0  0  0
 17 20  1  0  0  0  0
 17  2  2  0  0  0  0
 18 23  1  0  0  0  0
 19 18  1  1  0  0  0
 21 12  2  0  0  0  0
 21 15  1  0  0  0  0
 22 15  1  6  0  0  0
 22 19  1  0  0  0  0
 22  5  1  0  0  0  0
 24 25  1  0  0  0  0
 25 26  1  6  0  0  0
 27 28  1  0  0  0  0
 27  9  1  0  0  0  0
 29 32  1  0  0  0  0
 30 28  1  0  0  0  0
 30 29  1  0  0  0  0
 31 29  2  0  0  0  0
 32 33  1  0  0  0  0
 32 37  1  0  0  0  0
 35 37  1  0  0  0  0
 37 34  1  0  0  0  0
 37 36  1  0  0  0  0
M  END
>  <MODEL>
1

>  <REMARK>
 VINA RESULT:      -6.7      0.000      0.000
  Name = 
  5 active torsions:
  status: ('A' for Active; 'I' for Inactive)
    1  A    between atoms: C_7  and  C_9
    2  A    between atoms: N_13  and  C_34
    3  A    between atoms: N_14  and  C_25
    4  A    between atoms: C_22  and  N_36
    5  A    between atoms: C_25  and  C_34
                            x       y       z     vdW  Elec       q    Type
                         _______ _______ _______ _____ _____    ______ ____

>  <TORSDO>
F 5

$$$$
=
 OpenBabel11052410473D

 37 40  0  0  1  0  0  0  0  0999 V2000
  161.5880  208.7680  148.7650 C   0  0  0  0  0  3  0  0  0  0  0  0
  161.6840  205.7830  151.6790 C   0  0  0  0  0  0  0  0  0  0  0  0
  162.0920  206.0950  153.0110 N   0  0  0  0  0  2  0  0  0  0  0  0
  160.8960  204.2010  150.0310 C   0  0  0  0  0  3  0  0  0  0  0  0
  160.1100  209.9160  156.4130 C   0  0  1  0  0  3  0  0  0  0  0  0
  161.2790  204.4860  151.3450 C   0  0  0  0  0  3  0  0  0  0  0  0
  161.2480  207.4560  148.4160 C   0  0  0  0  0  3  0  0  0  0  0  0
  161.1450  206.0690  154.1120 C   0  0  0  0  0  2  0  0  0  0  0  0
  161.3380  210.8120  151.5970 N   0  0  0  0  0  0  0  0  0  0  0  0
  160.9070  205.1800  149.0840 N   0  0  0  0  0  0  0  0  0  0  0  0
  162.2390  210.4530  150.5070 C   0  0  0  0  0  2  0  0  0  0  0  0
  162.8680  210.2670  153.2750 O   0  0  0  0  0  0  0  0  0  0  0  0
  161.9730  209.0500  150.0790 C   0  0  0  0  0  0  0  0  0  0  0  0
  161.2860  206.4510  149.3850 C   0  0  0  0  0  0  0  0  0  0  0  0
  160.5640  210.1800  153.9460 C   0  0  0  0  0  2  0  0  0  0  0  0
  160.5420  207.3880  154.2700 N   0  0  0  0  0  2  0  0  0  0  0  0
  161.6910  206.7730  150.6930 C   0  0  0  0  0  0  0  0  0  0  0  0
  160.6990  207.7380  156.6420 C   0  0  0  0  0  2  0  0  0  0  0  0
  161.2830  208.0870  155.3170 C   0  0  2  0  0  3  0  0  0  0  0  0
  162.0250  208.0530  151.0010 N   0  0  0  0  0  0  0  0  0  0  0  0
  161.6590  210.4220  152.9430 C   0  0  0  0  0  0  0  0  0  0  0  0
  161.0770  209.6120  155.2710 C   0  0  2  0  0  3  0  0  0  0  0  0
  160.0850  208.7100  157.1950 N   0  0  0  0  0  2  0  0  0  0  0  0
  162.0450  211.2520  157.0900 N   0  0  0  0  0  1  0  0  0  0  0  0
  160.6110  211.0850  157.2610 C   0  0  1  0  0  3  0  0  0  0  0  0
  159.9170  212.3700  156.8530 C   0  0  0  0  0  1  0  0  0  0  0  0
  160.0050  211.2910  151.2490 C   0  0  0  0  0  2  0  0  0  0  0  0
  159.9550  212.8100  151.2890 C   0  0  0  0  0  2  0  0  0  0  0  0
  160.4530  213.4820  148.8720 C   0  0  0  0  0  0  0  0  0  0  0  0
  160.8100  213.3700  150.2560 N   0  0  0  0  0  2  0  0  0  0  0  0
  161.3490  213.8170  148.0530 O   0  0  0  0  0  0  0  0  0  0  0  0
  159.1080  213.2280  148.4050 N   0  0  0  0  0  0  0  0  0  0  0  0
  158.0950  213.1580  149.3030 O   0  0  0  0  0  1  0  0  0  0  0  0
  157.3850  212.5900  146.7710 C   0  0  0  0  0  1  0  0  0  0  0  0
  159.7510  212.1330  146.2830 C   0  0  0  0  0  1  0  0  0  0  0  0
  158.9470  214.4530  146.2790 C   0  0  0  0  0  1  0  0  0  0  0  0
  158.8020  213.1050  146.9670 C   0  0  0  0  0  0  0  0  0  0  0  0
  1 13  1  0  0  0  0
  2  3  1  0  0  0  0
  3  8  1  0  0  0  0
  4  6  2  0  0  0  0
  5 23  1  0  0  0  0
  5 25  1  1  0  0  0
  6  2  1  0  0  0  0
  7  1  2  0  0  0  0
  7 14  1  0  0  0  0
  8 16  1  0  0  0  0
  9 21  1  0  0  0  0
 10 14  2  0  0  0  0
 10  4  1  0  0  0  0
 11  9  1  0  0  0  0
 13 11  1  0  0  0  0
 13 20  2  0  0  0  0
 14 17  1  0  0  0  0
 16 19  1  0  0  0  0
 17 20  1  0  0  0  0
 17  2  2  0  0  0  0
 18 23  1  0  0  0  0
 19 18  1  1  0  0  0
 21 12  2  0  0  0  0
 21 15  1  0  0  0  0
 22 15  1  6  0  0  0
 22 19  1  0  0  0  0
 22  5  1  0  0  0  0
 24 25  1  0  0  0  0
 25 26  1  6  0  0  0
 27 28  1  0  0  0  0
 27  9  1  0  0  0  0
 29 30  1  0  0  0  0
 30 28  1  0  0  0  0
 31 29  2  0  0  0  0
 32 29  1  0  0  0  0
 32 33  1  0  0  0  0
 34 37  1  0  0  0  0
 35 37  1  0  0  0  0
 36 37  1  0  0  0  0
 37 32  1  0  0  0  0
M  END
>  <MODEL>
2

>  <REMARK>
 VINA RESULT:      -6.7      2.069      3.239
  Name = 
  5 active torsions:
  status: ('A' for Active; 'I' for Inactive)
    1  A    between atoms: C_7  and  C_9
    2  A    between atoms: N_13  and  C_34
    3  A    between atoms: N_14  and  C_25
    4  A    between atoms: C_22  and  N_36
    5  A    between atoms: C_25  and  C_34
                            x       y       z     vdW  Elec       q    Type
                         _______ _______ _______ _____ _____    ______ ____

>  <TORSDO>
F 5

$$$$
=
 OpenBabel11052410473D

 37 40  0  0  1  0  0  0  0  0999 V2000
  161.0970  209.8910  152.7880 C   0  0  0  0  0  3  0  0  0  0  0  0
  158.8620  213.2720  151.8000 C   0  0  0  0  0  0  0  0  0  0  0  0
  159.2690  214.1110  150.7200 N   0  0  0  0  0  2  0  0  0  0  0  0
  157.3180  212.7240  153.5770 C   0  0  0  0  0  3  0  0  0  0  0  0
  160.2770  212.7540  145.4990 C   0  0  1  0  0  3  0  0  0  0  0  0
  157.6910  213.5530  152.5140 C   0  0  0  0  0  3  0  0  0  0  0  0
  159.9650  210.2100  153.5440 C   0  0  0  0  0  3  0  0  0  0  0  0
  158.4960  214.1850  149.4920 C   0  0  0  0  0  2  0  0  0  0  0  0
  162.1370  210.2350  149.4610 N   0  0  0  0  0  0  0  0  0  0  0  0
  158.0810  211.6460  153.9090 N   0  0  0  0  0  0  0  0  0  0  0  0
  162.6080  210.3530  150.8380 C   0  0  0  0  0  2  0  0  0  0  0  0
  162.7180  212.4250  148.8910 O   0  0  0  0  0  0  0  0  0  0  0  0
  161.4700  210.7220  151.7270 C   0  0  0  0  0  0  0  0  0  0  0  0
  159.2160  211.3450  153.2240 C   0  0  0  0  0  0  0  0  0  0  0  0
  160.9690  211.4660  147.5540 C   0  0  0  0  0  2  0  0  0  0  0  0
  158.9780  213.1830  148.5480 N   0  0  0  0  0  2  0  0  0  0  0  0
  159.6320  212.1620  152.1570 C   0  0  0  0  0  0  0  0  0  0  0  0
  159.1570  214.4460  146.5120 C   0  0  0  0  0  2  0  0  0  0  0  0
  159.9150  213.8460  147.6440 C   0  0  2  0  0  3  0  0  0  0  0  0
  160.7410  211.8340  151.4460 N   0  0  0  0  0  0  0  0  0  0  0  0
  161.9920  211.4190  148.6560 C   0  0  0  0  0  0  0  0  0  0  0  0
  160.8380  212.8510  146.9160 C   0  0  2  0  0  3  0  0  0  0  0  0
  159.3580  213.8550  145.4000 N   0  0  0  0  0  2  0  0  0  0  0  0
  160.9560  213.7700  143.3790 N   0  0  0  0  0  1  0  0  0  0  0  0
  161.3880  212.8980  144.4590 C   0  0  1  0  0  3  0  0  0  0  0  0
  162.6340  213.4850  145.0930 C   0  0  0  0  0  1  0  0  0  0  0  0
  161.5500  208.9660  149.0480 C   0  0  0  0  0  2  0  0  0  0  0  0
  162.2650  207.8030  149.7170 C   0  0  0  0  0  2  0  0  0  0  0  0
  161.2360  205.6770  148.7370 C   0  0  0  0  0  0  0  0  0  0  0  0
  161.3900  206.6440  149.7830 N   0  0  0  0  0  2  0  0  0  0  0  0
  160.3160  204.8250  148.8470 O   0  0  0  0  0  0  0  0  0  0  0  0
  162.1030  205.6560  147.5790 N   0  0  0  0  0  0  0  0  0  0  0  0
  163.2550  206.3690  147.5990 O   0  0  0  0  0  1  0  0  0  0  0  0
  161.3600  203.4340  146.8330 C   0  0  0  0  0  1  0  0  0  0  0  0
  163.0060  204.6780  145.4950 C   0  0  0  0  0  1  0  0  0  0  0  0
  160.6820  205.4650  145.5810 C   0  0  0  0  0  1  0  0  0  0  0  0
  161.7920  204.8260  146.3990 C   0  0  0  0  0  0  0  0  0  0  0  0
  1  7  1  0  0  0  0
  2 17  1  0  0  0  0
  2  6  2  0  0  0  0
  3  2  1  0  0  0  0
  4 10  2  0  0  0  0
  5 25  1  6  0  0  0
  5 22  1  0  0  0  0
  6  4  1  0  0  0  0
  8  3  1  0  0  0  0
  9 11  1  0  0  0  0
 11 13  1  0  0  0  0
 13  1  2  0  0  0  0
 14  7  2  0  0  0  0
 14 10  1  0  0  0  0
 15 21  1  0  0  0  0
 16  8  1  0  0  0  0
 17 14  1  0  0  0  0
 19 18  1  6  0  0  0
 19 16  1  0  0  0  0
 20 13  1  0  0  0  0
 20 17  2  0  0  0  0
 21 12  2  0  0  0  0
 21  9  1  0  0  0  0
 22 15  1  1  0  0  0
 22 19  1  0  0  0  0
 23  5  1  0  0  0  0
 23 18  1  0  0  0  0
 24 25  1  0  0  0  0
 25 26  1  1  0  0  0
 27  9  1  0  0  0  0
 27 28  1  0  0  0  0
 28 30  1  0  0  0  0
 29 31  2  0  0  0  0
 29 30  1  0  0  0  0
 32 33  1  0  0  0  0
 32 29  1  0  0  0  0
 35 37  1  0  0  0  0
 36 37  1  0  0  0  0
 37 34  1  0  0  0  0
 37 32  1  0  0  0  0
M  END
>  <MODEL>
3

>  <REMARK>
 VINA RESULT:      -5.9      3.648      9.276
  Name = 
  5 active torsions:
  status: ('A' for Active; 'I' for Inactive)
    1  A    between atoms: C_7  and  C_9
    2  A    between atoms: N_13  and  C_34
    3  A    between atoms: N_14  and  C_25
    4  A    between atoms: C_22  and  N_36
    5  A    between atoms: C_25  and  C_34
                            x       y       z     vdW  Elec       q    Type
                         _______ _______ _______ _____ _____    ______ ____

>  <TORSDO>
F 5

$$$$
=
 OpenBabel11052410473D

 37 40  0  0  1  0  0  0  0  0999 V2000
  161.3000  209.4400  152.5740 C   0  0  0  0  0  3  0  0  0  0  0  0
  159.1790  212.9720  151.9110 C   0  0  0  0  0  0  0  0  0  0  0  0
  159.5690  213.8560  150.8600 N   0  0  0  0  0  2  0  0  0  0  0  0
  157.7060  212.3850  153.7340 C   0  0  0  0  0  3  0  0  0  0  0  0
  160.2380  212.7780  145.5220 C   0  0  1  0  0  3  0  0  0  0  0  0
  158.0620  213.2600  152.7030 C   0  0  0  0  0  3  0  0  0  0  0  0
  160.2240  209.7630  153.4090 C   0  0  0  0  0  3  0  0  0  0  0  0
  158.7370  214.0390  149.6840 C   0  0  0  0  0  2  0  0  0  0  0  0
  162.1800  209.9420  149.2210 N   0  0  0  0  0  0  0  0  0  0  0  0
  158.4330  211.2560  153.9600 N   0  0  0  0  0  0  0  0  0  0  0  0
  162.7270  209.9530  150.5750 C   0  0  0  0  0  2  0  0  0  0  0  0
  162.8340  212.1340  148.7500 O   0  0  0  0  0  0  0  0  0  0  0  0
  161.6560  210.3180  151.5450 C   0  0  0  0  0  0  0  0  0  0  0  0
  159.5150  210.9470  153.1970 C   0  0  0  0  0  0  0  0  0  0  0  0
  160.9740  211.3370  147.4570 C   0  0  0  0  0  2  0  0  0  0  0  0
  159.1210  213.0760  148.6580 N   0  0  0  0  0  2  0  0  0  0  0  0
  159.9130  211.8090  152.1590 C   0  0  0  0  0  0  0  0  0  0  0  0
  159.2530  214.4530  146.6930 C   0  0  0  0  0  2  0  0  0  0  0  0
  160.0400  213.7510  147.7440 C   0  0  2  0  0  3  0  0  0  0  0  0
  160.9670  211.4760  151.3700 N   0  0  0  0  0  0  0  0  0  0  0  0
  162.0500  211.1770  148.4970 C   0  0  0  0  0  0  0  0  0  0  0  0
  160.8760  212.7630  146.9090 C   0  0  2  0  0  3  0  0  0  0  0  0
  159.3680  213.9230  145.5380 N   0  0  0  0  0  2  0  0  0  0  0  0
  160.8820  213.9390  143.4660 N   0  0  0  0  0  1  0  0  0  0  0  0
  161.2980  212.9360  144.4320 C   0  0  1  0  0  3  0  0  0  0  0  0
  162.6210  213.3620  145.0400 C   0  0  0  0  0  1  0  0  0  0  0  0
  161.5130  208.7270  148.7670 C   0  0  0  0  0  2  0  0  0  0  0  0
  162.3520  207.5020  149.0920 C   0  0  0  0  0  2  0  0  0  0  0  0
  161.4090  205.1280  148.9820 C   0  0  0  0  0  0  0  0  0  0  0  0
  161.8550  206.3440  148.3680 N   0  0  0  0  0  2  0  0  0  0  0  0
  161.1750  204.1390  148.2380 O   0  0  0  0  0  0  0  0  0  0  0  0
  161.2210  205.0150  150.4120 N   0  0  0  0  0  0  0  0  0  0  0  0
  161.1880  206.1390  151.1670 O   0  0  0  0  0  1  0  0  0  0  0  0
  162.3280  202.9980  151.2780 C   0  0  0  0  0  1  0  0  0  0  0  0
  160.1260  202.8070  150.2010 C   0  0  0  0  0  1  0  0  0  0  0  0
  160.3030  203.8910  152.3970 C   0  0  0  0  0  1  0  0  0  0  0  0
  161.0010  203.7070  151.0590 C   0  0  0  0  0  0  0  0  0  0  0  0
  1  7  1  0  0  0  0
  2 17  1  0  0  0  0
  2  6  2  0  0  0  0
  3  2  1  0  0  0  0
  4 10  2  0  0  0  0
  5 25  1  6  0  0  0
  5 23  1  0  0  0  0
  5 22  1  0  0  0  0
  6  4  1  0  0  0  0
  8  3  1  0  0  0  0
  9 11  1  0  0  0  0
 11 13  1  0  0  0  0
 13  1  2  0  0  0  0
 14  7  2  0  0  0  0
 14 10  1  0  0  0  0
 15 21  1  0  0  0  0
 16  8  1  0  0  0  0
 17 14  1  0  0  0  0
 19 18  1  6  0  0  0
 19 16  1  0  0  0  0
 20 13  1  0  0  0  0
 20 17  2  0  0  0  0
 21 12  2  0  0  0  0
 21  9  1  0  0  0  0
 22 15  1  1  0  0  0
 22 19  1  0  0  0  0
 23 18  1  0  0  0  0
 24 25  1  0  0  0  0
 25 26  1  1  0  0  0
 27 28  1  0  0  0  0
 27  9  1  0  0  0  0
 29 32  1  0  0  0  0
 30 29  1  0  0  0  0
 30 28  1  0  0  0  0
 31 29  2  0  0  0  0
 32 37  1  0  0  0  0
 32 33  1  0  0  0  0
 35 37  1  0  0  0  0
 37 34  1  0  0  0  0
 37 36  1  0  0  0  0
M  END
>  <MODEL>
4

>  <REMARK>
 VINA RESULT:      -5.9      3.408      8.892
  Name = 
  5 active torsions:
  status: ('A' for Active; 'I' for Inactive)
    1  A    between atoms: C_7  and  C_9
    2  A    between atoms: N_13  and  C_34
    3  A    between atoms: N_14  and  C_25
    4  A    between atoms: C_22  and  N_36
    5  A    between atoms: C_25  and  C_34
                            x       y       z     vdW  Elec       q    Type
                         _______ _______ _______ _____ _____    ______ ____

>  <TORSDO>
F 5

$$$$
=
 OpenBabel11052410473D

 37 40  0  0  1  0  0  0  0  0999 V2000
  161.5920  206.5230  152.8560 C   0  0  0  0  0  3  0  0  0  0  0  0
  160.4950  210.2510  154.3750 C   0  0  0  0  0  0  0  0  0  0  0  0
  160.9210  211.4450  153.7190 N   0  0  0  0  0  2  0  0  0  0  0  0
  159.2840  209.1330  156.1420 C   0  0  0  0  0  3  0  0  0  0  0  0
  160.2390  212.9270  148.4800 C   0  0  1  0  0  3  0  0  0  0  0  0
  159.6780  210.3160  155.5090 C   0  0  0  0  0  3  0  0  0  0  0  0
  160.8310  206.5900  154.0290 C   0  0  0  0  0  3  0  0  0  0  0  0
  159.9720  212.3040  153.0310 C   0  0  0  0  0  2  0  0  0  0  0  0
  161.9360  208.3920  149.9150 N   0  0  0  0  0  0  0  0  0  0  0  0
  159.6830  207.9260  155.6530 N   0  0  0  0  0  0  0  0  0  0  0  0
  162.7060  207.6680  150.9210 C   0  0  0  0  0  2  0  0  0  0  0  0
  163.0940  210.3980  150.2190 O   0  0  0  0  0  0  0  0  0  0  0  0
  161.9860  207.7070  152.2260 C   0  0  0  0  0  0  0  0  0  0  0  0
  160.4680  207.8350  154.5470 C   0  0  0  0  0  0  0  0  0  0  0  0
  160.8760  210.6400  149.3320 C   0  0  0  0  0  2  0  0  0  0  0  0
  159.8630  211.8920  151.6360 N   0  0  0  0  0  2  0  0  0  0  0  0
  160.8960  209.0030  153.8900 C   0  0  0  0  0  0  0  0  0  0  0  0
  160.0170  213.9890  150.4730 C   0  0  0  0  0  2  0  0  0  0  0  0
  160.7490  212.7500  150.8540 C   0  0  2  0  0  3  0  0  0  0  0  0
  161.6420  208.9090  152.7590 N   0  0  0  0  0  0  0  0  0  0  0  0
  162.0340  209.8250  149.8400 C   0  0  0  0  0  0  0  0  0  0  0  0
  161.0930  212.1480  149.4780 C   0  0  2  0  0  3  0  0  0  0  0  0
  159.7560  214.0580  149.2260 N   0  0  0  0  0  2  0  0  0  0  0  0
  162.4910  213.2120  147.5670 N   0  0  0  0  0  1  0  0  0  0  0  0
  161.0760  213.3980  147.2910 C   0  0  1  0  0  3  0  0  0  0  0  0
  160.7130  212.6130  146.0450 C   0  0  0  0  0  1  0  0  0  0  0  0
  160.8730  207.6730  149.2220 C   0  0  0  0  0  2  0  0  0  0  0  0
  161.3490  206.2920  148.8010 C   0  0  0  0  0  2  0  0  0  0  0  0
  160.8920  203.9100  149.6120 C   0  0  0  0  0  0  0  0  0  0  0  0
  161.0500  205.3170  149.8360 N   0  0  0  0  0  2  0  0  0  0  0  0
  160.4560  203.2040  150.5590 O   0  0  0  0  0  0  0  0  0  0  0  0
  161.2210  203.2940  148.3450 N   0  0  0  0  0  0  0  0  0  0  0  0
  161.9530  203.9880  147.4400 O   0  0  0  0  0  1  0  0  0  0  0  0
  159.4570  201.6040  148.6170 C   0  0  0  0  0  1  0  0  0  0  0  0
  161.8160  200.9120  148.6360 C   0  0  0  0  0  1  0  0  0  0  0  0
  160.8040  201.6820  146.5360 C   0  0  0  0  0  1  0  0  0  0  0  0
  160.8310  201.9050  148.0400 C   0  0  0  0  0  0  0  0  0  0  0  0
  1  7  1  0  0  0  0
  2  6  2  0  0  0  0
  3  2  1  0  0  0  0
  5 25  1  6  0  0  0
  5 23  1  0  0  0  0
  5 22  1  0  0  0  0
  6  4  1  0  0  0  0
  7 14  2  0  0  0  0
  8  3  1  0  0  0  0
  9 11  1  0  0  0  0
 10  4  2  0  0  0  0
 11 13  1  0  0  0  0
 13 20  1  0  0  0  0
 13  1  2  0  0  0  0
 14 10  1  0  0  0  0
 15 21  1  0  0  0  0
 16  8  1  0  0  0  0
 17  2  1  0  0  0  0
 17 14  1  0  0  0  0
 19 18  1  6  0  0  0
 19 16  1  0  0  0  0
 20 17  2  0  0  0  0
 21  9  1  0  0  0  0
 21 12  2  0  0  0  0
 22 15  1  1  0  0  0
 22 19  1  0  0  0  0
 23 18  1  0  0  0  0
 25 26  1  6  0  0  0
 25 24  1  0  0  0  0
 27  9  1  0  0  0  0
 28 27  1  0  0  0  0
 28 30  1  0  0  0  0
 29 30  1  0  0  0  0
 29 31  2  0  0  0  0
 32 29  1  0  0  0  0
 33 32  1  0  0  0  0
 36 37  1  0  0  0  0
 37 32  1  0  0  0  0
 37 34  1  0  0  0  0
 37 35  1  0  0  0  0
M  END
>  <MODEL>
5

>  <REMARK>
 VINA RESULT:      -4.8      2.953      8.415
  Name = 
  5 active torsions:
  status: ('A' for Active; 'I' for Inactive)
    1  A    between atoms: C_7  and  C_9
    2  A    between atoms: N_13  and  C_34
    3  A    between atoms: N_14  and  C_25
    4  A    between atoms: C_22  and  N_36
    5  A    between atoms: C_25  and  C_34
                            x       y       z     vdW  Elec       q    Type
                         _______ _______ _______ _____ _____    ______ ____

>  <TORSDO>
F 5

$$$$
=
 OpenBabel11052410473D

 37 40  0  0  1  0  0  0  0  0999 V2000
  160.5130  208.0990  154.7740 C   0  0  0  0  0  3  0  0  0  0  0  0
  159.3630  212.0900  154.3710 C   0  0  0  0  0  0  0  0  0  0  0  0
  160.0620  212.9500  153.4710 N   0  0  0  0  0  2  0  0  0  0  0  0
  157.6050  211.7070  155.9830 C   0  0  0  0  0  3  0  0  0  0  0  0
  161.0360  212.2670  148.1140 C   0  0  1  0  0  3  0  0  0  0  0  0
  158.2660  212.5640  155.0980 C   0  0  0  0  0  3  0  0  0  0  0  0
  159.4590  208.5920  155.5510 C   0  0  0  0  0  3  0  0  0  0  0  0
  159.4290  213.4450  152.2610 C   0  0  0  0  0  2  0  0  0  0  0  0
  161.8450  208.6940  151.5900 N   0  0  0  0  0  0  0  0  0  0  0  0
  158.0180  210.4180  156.1300 N   0  0  0  0  0  0  0  0  0  0  0  0
  162.2300  208.4400  152.9750 C   0  0  0  0  0  2  0  0  0  0  0  0
  163.0420  210.6950  151.4420 O   0  0  0  0  0  0  0  0  0  0  0  0
  161.1740  208.9590  153.8910 C   0  0  0  0  0  0  0  0  0  0  0  0
  159.0740  209.9290  155.4270 C   0  0  0  0  0  0  0  0  0  0  0  0
  161.1990  210.5090  149.9150 C   0  0  0  0  0  2  0  0  0  0  0  0
  159.6860  212.5230  151.1610 N   0  0  0  0  0  2  0  0  0  0  0  0
  159.7740  210.7640  154.5360 C   0  0  0  0  0  0  0  0  0  0  0  0
  160.3500  214.0100  149.3940 C   0  0  0  0  0  2  0  0  0  0  0  0
  160.8310  213.0370  150.4140 C   0  0  2  0  0  3  0  0  0  0  0  0
  160.8000  210.2620  153.8020 N   0  0  0  0  0  0  0  0  0  0  0  0
  162.0880  209.9890  151.0120 C   0  0  0  0  0  0  0  0  0  0  0  0
  161.4980  211.9610  149.5370 C   0  0  2  0  0  3  0  0  0  0  0  0
  160.4620  213.5830  148.1970 N   0  0  0  0  0  2  0  0  0  0  0  0
  162.0320  213.2890  146.1260 N   0  0  0  0  0  1  0  0  0  0  0  0
  162.2150  212.2660  147.1420 C   0  0  1  0  0  3  0  0  0  0  0  0
  163.5110  212.5400  147.8830 C   0  0  0  0  0  1  0  0  0  0  0  0
  160.9650  207.7310  150.9390 C   0  0  0  0  0  2  0  0  0  0  0  0
  161.7130  206.9710  149.8550 C   0  0  0  0  0  2  0  0  0  0  0  0
  161.1780  206.4610  147.4070 C   0  0  0  0  0  0  0  0  0  0  0  0
  161.2070  207.3350  148.5430 N   0  0  0  0  0  2  0  0  0  0  0  0
  160.8840  206.9530  146.2870 O   0  0  0  0  0  0  0  0  0  0  0  0
  161.4710  205.0480  147.5200 N   0  0  0  0  0  0  0  0  0  0  0  0
  161.4970  204.4720  148.7460 O   0  0  0  0  0  1  0  0  0  0  0  0
  163.1150  204.3280  145.8410 C   0  0  0  0  0  1  0  0  0  0  0  0
  160.7650  204.6300  145.1870 C   0  0  0  0  0  1  0  0  0  0  0  0
  161.3780  202.7520  146.6460 C   0  0  0  0  0  1  0  0  0  0  0  0
  161.6800  204.2070  146.3260 C   0  0  0  0  0  0  0  0  0  0  0  0
  1  7  1  0  0  0  0
  2 17  1  0  0  0  0
  2  6  2  0  0  0  0
  3  2  1  0  0  0  0
  4 10  2  0  0  0  0
  5 25  1  6  0  0  0
  5 23  1  0  0  0  0
  5 22  1  0  0  0  0
  6  4  1  0  0  0  0
  8  3  1  0  0  0  0
  9 11  1  0  0  0  0
 11 13  1  0  0  0  0
 13  1  2  0  0  0  0
 14  7  2  0  0  0  0
 14 10  1  0  0  0  0
 15 21  1  0  0  0  0
 16  8  1  0  0  0  0
 17 14  1  0  0  0  0
 19 18  1  6  0  0  0
 19 16  1  0  0  0  0
 20 13  1  0  0  0  0
 20 17  2  0  0  0  0
 21 12  2  0  0  0  0
 21  9  1  0  0  0  0
 22 15  1  1  0  0  0
 22 19  1  0  0  0  0
 23 18  1  0  0  0  0
 24 25  1  0  0  0  0
 25 26  1  1  0  0  0
 27  9  1  0  0  0  0
 28 27  1  0  0  0  0
 29 32  1  0  0  0  0
 29 30  1  0  0  0  0
 30 28  1  0  0  0  0
 31 29  2  0  0  0  0
 32 33  1  0  0  0  0
 34 37  1  0  0  0  0
 35 37  1  0  0  0  0
 37 36  1  0  0  0  0
 37 32  1  0  0  0  0
M  END
>  <MODEL>
6

>  <REMARK>
 VINA RESULT:      -4.4      3.044      8.559
  Name = 
  5 active torsions:
  status: ('A' for Active; 'I' for Inactive)
    1  A    between atoms: C_7  and  C_9
    2  A    between atoms: N_13  and  C_34
    3  A    between atoms: N_14  and  C_25
    4  A    between atoms: C_22  and  N_36
    5  A    between atoms: C_25  and  C_34
                            x       y       z     vdW  Elec       q    Type
                         _______ _______ _______ _____ _____    ______ ____

>  <TORSDO>
F 5

$$$$
=
 OpenBabel11052410473D

 37 40  0  0  1  0  0  0  0  0999 V2000
  161.3600  207.3260  153.5320 C   0  0  0  0  0  3  0  0  0  0  0  0
  159.9730  211.2160  154.1300 C   0  0  0  0  0  0  0  0  0  0  0  0
  160.4570  212.2820  153.3150 N   0  0  0  0  0  2  0  0  0  0  0  0
  158.5540  210.3960  155.9060 C   0  0  0  0  0  3  0  0  0  0  0  0
  160.4780  212.6980  147.8430 C   0  0  1  0  0  3  0  0  0  0  0  0
  159.0040  211.4550  155.1110 C   0  0  0  0  0  3  0  0  0  0  0  0
  160.4420  207.5780  154.5580 C   0  0  0  0  0  3  0  0  0  0  0  0
  159.5930  212.9440  152.3510 C   0  0  0  0  0  2  0  0  0  0  0  0
  162.0670  208.6130  150.3530 N   0  0  0  0  0  0  0  0  0  0  0  0
  159.0460  209.1400  155.7210 N   0  0  0  0  0  0  0  0  0  0  0  0
  162.7060  208.1350  151.5750 C   0  0  0  0  0  2  0  0  0  0  0  0
  163.1230  210.6960  150.4070 O   0  0  0  0  0  0  0  0  0  0  0  0
  161.8100  208.3870  152.7400 C   0  0  0  0  0  0  0  0  0  0  0  0
  159.9790  208.8790  154.7680 C   0  0  0  0  0  0  0  0  0  0  0  0
  161.0450  210.6520  149.2050 C   0  0  0  0  0  2  0  0  0  0  0  0
  159.6900  212.2670  151.0630 N   0  0  0  0  0  2  0  0  0  0  0  0
  160.4670  209.9200  153.9570 C   0  0  0  0  0  0  0  0  0  0  0  0
  159.9550  214.1080  149.5410 C   0  0  0  0  0  2  0  0  0  0  0  0
  160.6570  213.0040  150.2520 C   0  0  2  0  0  3  0  0  0  0  0  0
  161.3660  209.6490  152.9760 N   0  0  0  0  0  0  0  0  0  0  0  0
  162.1400  210.0090  150.0110 C   0  0  0  0  0  0  0  0  0  0  0  0
  161.2030  212.1690  149.0790 C   0  0  2  0  0  3  0  0  0  0  0  0
  159.8690  213.9240  148.2810 N   0  0  0  0  0  2  0  0  0  0  0  0
  161.0540  214.1560  145.9640 N   0  0  0  0  0  1  0  0  0  0  0  0
  161.4620  212.9740  146.7070 C   0  0  1  0  0  3  0  0  0  0  0  0
  162.8570  213.2010  147.2580 C   0  0  0  0  0  1  0  0  0  0  0  0
  161.1290  207.7220  149.6810 C   0  0  0  0  0  2  0  0  0  0  0  0
  161.6120  206.2820  149.7570 C   0  0  0  0  0  2  0  0  0  0  0  0
  161.1550  204.2380  148.2910 C   0  0  0  0  0  0  0  0  0  0  0  0
  161.4540  205.6280  148.4690 N   0  0  0  0  0  2  0  0  0  0  0  0
  161.2230  203.7610  147.1270 O   0  0  0  0  0  0  0  0  0  0  0  0
  160.7780  203.3860  149.3980 N   0  0  0  0  0  0  0  0  0  0  0  0
  160.4230  203.9510  150.5780 O   0  0  0  0  0  1  0  0  0  0  0  0
  159.2770  201.4790  149.0120 C   0  0  0  0  0  1  0  0  0  0  0  0
  161.2100  201.2200  150.5090 C   0  0  0  0  0  1  0  0  0  0  0  0
  161.5810  201.4630  148.0940 C   0  0  0  0  0  1  0  0  0  0  0  0
  160.7110  201.9200  149.2540 C   0  0  0  0  0  0  0  0  0  0  0  0
  1  7  1  0  0  0  0
  2  6  2  0  0  0  0
  3  2  1  0  0  0  0
  5 25  1  6  0  0  0
  5 23  1  0  0  0  0
  5 22  1  0  0  0  0
  6  4  1  0  0  0  0
  7 14  2  0  0  0  0
  8  3  1  0  0  0  0
  9 11  1  0  0  0  0
 10  4  2  0  0  0  0
 11 13  1  0  0  0  0
 13 20  1  0  0  0  0
 13  1  2  0  0  0  0
 14 10  1  0  0  0  0
 15 21  1  0  0  0  0
 16  8  1  0  0  0  0
 17  2  1  0  0  0  0
 17 14  1  0  0  0  0
 19 18  1  6  0  0  0
 19 16  1  0  0  0  0
 20 17  2  0  0  0  0
 21  9  1  0  0  0  0
 21 12  2  0  0  0  0
 22 15  1  1  0  0  0
 22 19  1  0  0  0  0
 23 18  1  0  0  0  0
 24 25  1  0  0  0  0
 25 26  1  1  0  0  0
 27 28  1  0  0  0  0
 27  9  1  0  0  0  0
 29 30  1  0  0  0  0
 29 32  1  0  0  0  0
 30 28  1  0  0  0  0
 31 29  2  0  0  0  0
 32 33  1  0  0  0  0
 34 37  1  0  0  0  0
 36 37  1  0  0  0  0
 37 32  1  0  0  0  0
 37 35  1  0  0  0  0
M  END
>  <MODEL>
7

>  <REMARK>
 VINA RESULT:      -4.2      3.017      8.551
  Name = 
  5 active torsions:
  status: ('A' for Active; 'I' for Inactive)
    1  A    between atoms: C_7  and  C_9
    2  A    between atoms: N_13  and  C_34
    3  A    between atoms: N_14  and  C_25
    4  A    between atoms: C_22  and  N_36
    5  A    between atoms: C_25  and  C_34
                            x       y       z     vdW  Elec       q    Type
                         _______ _______ _______ _____ _____    ______ ____

>  <TORSDO>
F 5

$$$$
=
 OpenBabel11052410473D

 37 40  0  0  1  0  0  0  0  0999 V2000
  161.9900  207.5470  147.8810 C   0  0  0  0  0  3  0  0  0  0  0  0
  161.5560  205.2010  151.3040 C   0  0  0  0  0  0  0  0  0  0  0  0
  161.9330  205.7180  152.5800 N   0  0  0  0  0  2  0  0  0  0  0  0
  160.6530  203.4300  149.9300 C   0  0  0  0  0  3  0  0  0  0  0  0
  160.2920  210.3370  155.0450 C   0  0  1  0  0  3  0  0  0  0  0  0
  161.0030  203.9200  151.1920 C   0  0  0  0  0  3  0  0  0  0  0  0
  161.5010  206.2410  147.7620 C   0  0  0  0  0  3  0  0  0  0  0  0
  160.9360  206.0200  153.5930 C   0  0  0  0  0  2  0  0  0  0  0  0
  161.8640  210.1220  150.2510 N   0  0  0  0  0  0  0  0  0  0  0  0
  160.8370  204.1960  148.8200 N   0  0  0  0  0  0  0  0  0  0  0  0
  162.7650  209.4530  149.3180 C   0  0  0  0  0  2  0  0  0  0  0  0
  163.2250  209.7410  152.1110 O   0  0  0  0  0  0  0  0  0  0  0  0
  162.3420  208.0340  149.1440 C   0  0  0  0  0  0  0  0  0  0  0  0
  161.3610  205.4480  148.9020 C   0  0  0  0  0  0  0  0  0  0  0  0
  160.8980  210.0570  152.6140 C   0  0  0  0  0  2  0  0  0  0  0  0
  160.5020  207.4050  153.4550 N   0  0  0  0  0  2  0  0  0  0  0  0
  161.7390  205.9710  150.1530 C   0  0  0  0  0  0  0  0  0  0  0  0
  160.5840  208.1920  155.7240 C   0  0  0  0  0  2  0  0  0  0  0  0
  161.2730  208.2040  154.4040 C   0  0  2  0  0  3  0  0  0  0  0  0
  162.2190  207.2380  150.2390 N   0  0  0  0  0  0  0  0  0  0  0  0
  162.0650  209.9680  151.6670 C   0  0  0  0  0  0  0  0  0  0  0  0
  161.2680  209.7040  154.0560 C   0  0  2  0  0  3  0  0  0  0  0  0
  160.0730  209.3190  156.0370 N   0  0  0  0  0  2  0  0  0  0  0  0
  159.9100  212.6480  155.7560 N   0  0  0  0  0  1  0  0  0  0  0  0
  160.8970  211.5830  155.6930 C   0  0  1  0  0  3  0  0  0  0  0  0
  161.3690  211.2700  157.1000 C   0  0  0  0  0  1  0  0  0  0  0  0
  160.6230  210.6760  149.7220 C   0  0  0  0  0  2  0  0  0  0  0  0
  160.7050  212.1910  149.6400 C   0  0  0  0  0  2  0  0  0  0  0  0
  161.6120  212.9720  147.3800 C   0  0  0  0  0  0  0  0  0  0  0  0
  161.7830  212.5900  148.7510 N   0  0  0  0  0  2  0  0  0  0  0  0
  162.6430  213.1190  146.6720 O   0  0  0  0  0  0  0  0  0  0  0  0
  160.3040  213.1920  146.8030 N   0  0  0  0  0  0  0  0  0  0  0  0
  159.2320  213.3200  147.6210 O   0  0  0  0  0  1  0  0  0  0  0  0
  160.4360  212.0350  144.6380 C   0  0  0  0  0  1  0  0  0  0  0  0
  161.0380  214.4140  144.7820 C   0  0  0  0  0  1  0  0  0  0  0  0
  158.6880  213.7500  145.0360 C   0  0  0  0  0  1  0  0  0  0  0  0
  160.1200  213.3420  145.3470 C   0  0  0  0  0  0  0  0  0  0  0  0
  1 13  1  0  0  0  0
  2  3  1  0  0  0  0
  3  8  1  0  0  0  0
  4  6  2  0  0  0  0
  5 25  1  1  0  0  0
  5 23  1  0  0  0  0
  6  2  1  0  0  0  0
  7  1  2  0  0  0  0
  7 14  1  0  0  0  0
  9 21  1  0  0  0  0
 10 14  2  0  0  0  0
 10  4  1  0  0  0  0
 11  9  1  0  0  0  0
 13 11  1  0  0  0  0
 13 20  2  0  0  0  0
 14 17  1  0  0  0  0
 16  8  1  0  0  0  0
 16 19  1  0  0  0  0
 17 20  1  0  0  0  0
 17  2  2  0  0  0  0
 18 23  1  0  0  0  0
 19 18  1  1  0  0  0
 21 12  2  0  0  0  0
 21 15  1  0  0  0  0
 22 15  1  6  0  0  0
 22 19  1  0  0  0  0
 22  5  1  0  0  0  0
 25 24  1  0  0  0  0
 25 26  1  1  0  0  0
 27  9  1  0  0  0  0
 28 27  1  0  0  0  0
 29 30  1  0  0  0  0
 30 28  1  0  0  0  0
 31 29  2  0  0  0  0
 32 29  1  0  0  0  0
 32 33  1  0  0  0  0
 34 37  1  0  0  0  0
 35 37  1  0  0  0  0
 36 37  1  0  0  0  0
 37 32  1  0  0  0  0
M  END
>  <MODEL>
8

>  <REMARK>
 VINA RESULT:      -4.0      2.925      4.279
  Name = 
  5 active torsions:
  status: ('A' for Active; 'I' for Inactive)
    1  A    between atoms: C_7  and  C_9
    2  A    between atoms: N_13  and  C_34
    3  A    between atoms: N_14  and  C_25
    4  A    between atoms: C_22  and  N_36
    5  A    between atoms: C_25  and  C_34
                            x       y       z     vdW  Elec       q    Type
                         _______ _______ _______ _____ _____    ______ ____

>  <TORSDO>
F 5

$$$$
=
 OpenBabel11052410473D

 37 40  0  0  1  0  0  0  0  0999 V2000
  161.6850  204.5680  146.6900 C   0  0  0  0  0  3  0  0  0  0  0  0
  161.1580  202.6600  150.3630 C   0  0  0  0  0  0  0  0  0  0  0  0
  161.6710  203.2500  151.5570 N   0  0  0  0  0  2  0  0  0  0  0  0
  159.9610  200.8930  149.2310 C   0  0  0  0  0  3  0  0  0  0  0  0
  160.7730  208.2720  153.5780 C   0  0  1  0  0  3  0  0  0  0  0  0
  160.4430  201.4590  150.4150 C   0  0  0  0  0  3  0  0  0  0  0  0
  161.0290  203.3330  146.7350 C   0  0  0  0  0  3  0  0  0  0  0  0
  160.7820  203.7820  152.5750 C   0  0  0  0  0  2  0  0  0  0  0  0
  162.0230  207.3650  148.7700 N   0  0  0  0  0  0  0  0  0  0  0  0
  160.1750  201.5110  148.0370 N   0  0  0  0  0  0  0  0  0  0  0  0
  162.7770  206.4920  147.8750 C   0  0  0  0  0  2  0  0  0  0  0  0
  163.4310  207.0000  150.5970 O   0  0  0  0  0  0  0  0  0  0  0  0
  162.1680  205.1310  147.8760 C   0  0  0  0  0  0  0  0  0  0  0  0
  160.8570  202.6850  147.9600 C   0  0  0  0  0  0  0  0  0  0  0  0
  161.1970  207.6690  151.1660 C   0  0  0  0  0  2  0  0  0  0  0  0
  160.5180  205.1910  152.3070 N   0  0  0  0  0  2  0  0  0  0  0  0
  161.3700  203.2790  149.1280 C   0  0  0  0  0  0  0  0  0  0  0  0
  160.8310  206.1880  154.4710 C   0  0  0  0  0  2  0  0  0  0  0  0
  161.4380  205.9740  153.1290 C   0  0  2  0  0  3  0  0  0  0  0  0
  162.0110  204.4730  149.0540 N   0  0  0  0  0  0  0  0  0  0  0  0
  162.2850  207.3310  150.1840 C   0  0  0  0  0  0  0  0  0  0  0  0
  161.6020  207.4190  152.6210 C   0  0  2  0  0  3  0  0  0  0  0  0
  160.4860  207.3980  154.6830 N   0  0  0  0  0  2  0  0  0  0  0  0
  161.0560  210.6990  153.4420 N   0  0  0  0  0  1  0  0  0  0  0  0
  161.5670  209.4860  154.0590 C   0  0  1  0  0  3  0  0  0  0  0  0
  161.4630  209.6230  155.5660 C   0  0  0  0  0  1  0  0  0  0  0  0
  160.8330  208.0200  148.2400 C   0  0  0  0  0  2  0  0  0  0  0  0
  161.2070  209.3010  147.5120 C   0  0  0  0  0  2  0  0  0  0  0  0
  162.0590  211.5950  148.2550 C   0  0  0  0  0  0  0  0  0  0  0  0
  161.9810  210.1690  148.3830 N   0  0  0  0  0  2  0  0  0  0  0  0
  162.9050  212.2080  148.9590 O   0  0  0  0  0  0  0  0  0  0  0  0
  161.2000  212.3320  147.3550 N   0  0  0  0  0  0  0  0  0  0  0  0
  160.1120  211.7210  146.8270 O   0  0  0  0  0  1  0  0  0  0  0  0
  160.1430  214.4470  146.6820 C   0  0  0  0  0  1  0  0  0  0  0  0
  162.4000  213.9050  145.8720 C   0  0  0  0  0  1  0  0  0  0  0  0
  162.0710  214.4530  148.2420 C   0  0  0  0  0  1  0  0  0  0  0  0
  161.4460  213.7540  147.0460 C   0  0  0  0  0  0  0  0  0  0  0  0
  1  7  2  0  0  0  0
  1 13  1  0  0  0  0
  2  6  1  0  0  0  0
  2  3  1  0  0  0  0
  3  8  1  0  0  0  0
  4  6  2  0  0  0  0
  5 25  1  1  0  0  0
  5 23  1  0  0  0  0
  7 14  1  0  0  0  0
  9 21  1  0  0  0  0
 10  4  1  0  0  0  0
 11 13  1  0  0  0  0
 11  9  1  0  0  0  0
 13 20  2  0  0  0  0
 14 10  2  0  0  0  0
 14 17  1  0  0  0  0
 16  8  1  0  0  0  0
 16 19  1  0  0  0  0
 17  2  2  0  0  0  0
 18 23  1  0  0  0  0
 19 18  1  1  0  0  0
 20 17  1  0  0  0  0
 21 12  2  0  0  0  0
 21 15  1  0  0  0  0
 22 15  1  6  0  0  0
 22 19  1  0  0  0  0
 22  5  1  0  0  0  0
 24 25  1  0  0  0  0
 25 26  1  1  0  0  0
 27  9  1  0  0  0  0
 28 27  1  0  0  0  0
 28 30  1  0  0  0  0
 29 30  1  0  0  0  0
 29 31  2  0  0  0  0
 32 29  1  0  0  0  0
 33 32  1  0  0  0  0
 34 37  1  0  0  0  0
 35 37  1  0  0  0  0
 37 32  1  0  0  0  0
 37 36  1  0  0  0  0
M  END
>  <MODEL>
9

>  <REMARK>
 VINA RESULT:      -3.8      3.512      5.101
  Name = 
  5 active torsions:
  status: ('A' for Active; 'I' for Inactive)
    1  A    between atoms: C_7  and  C_9
    2  A    between atoms: N_13  and  C_34
    3  A    between atoms: N_14  and  C_25
    4  A    between atoms: C_22  and  N_36
    5  A    between atoms: C_25  and  C_34
                            x       y       z     vdW  Elec       q    Type
                         _______ _______ _______ _____ _____    ______ ____

>  <TORSDO>
F 5

$$$$
