=
 OpenBabel11052411313D

 59 68  0  0  1  0  0  0  0  0999 V2000
  160.0420  213.0560  152.1960 N   0  0  0  0  0  2  0  0  0  0  0  0
  160.3050  211.6300  152.3190 C   0  0  0  0  0  2  0  0  0  0  0  0
  162.5390  211.8060  147.7760 C   0  0  0  0  0  1  0  0  0  0  0  0
  161.3870  211.9270  150.0270 C   0  0  0  0  0  3  0  0  0  0  0  0
  160.9250  211.1270  151.0650 C   0  0  0  0  0  0  0  0  0  0  0  0
  161.9500  209.8030  149.2220 C   0  0  0  0  0  0  0  0  0  0  0  0
  161.9600  211.1750  148.9930 C   0  0  0  0  0  0  0  0  0  0  0  0
  161.2280  209.5110  150.7150 S   0  0  0  0  0  0  0  0  0  0  0  0
  162.5280  208.7630  148.3170 C   0  0  1  0  0  3  0  0  0  0  0  0
  161.2720  205.1130  147.5740 N   0  0  0  0  0  2  0  0  0  0  0  0
  162.7820  206.4410  148.8490 N   0  0  0  0  0  0  0  0  0  0  0  0
  163.2120  207.7450  149.1000 N   0  0  0  0  0  2  0  0  0  0  0  0
  161.7980  206.3670  148.0170 C   0  0  0  0  0  0  0  0  0  0  0  0
  161.2070  207.9200  147.3670 S   0  0  0  0  0  0  0  0  0  0  0  0
  161.7200  203.8310  148.1070 C   0  0  0  0  0  2  0  0  0  0  0  0
  160.6910  203.3060  149.0940 C   0  0  0  0  0  2  0  0  0  0  0  0
  160.5060  205.3550  150.5230 C   0  0  0  0  0  3  0  0  0  0  0  0
  160.8010  203.9920  150.4120 C   0  0  0  0  0  0  0  0  0  0  0  0
  160.5880  205.9910  151.7660 C   0  0  0  0  0  3  0  0  0  0  0  0
  160.9570  205.2680  152.9050 C   0  0  0  0  0  0  0  0  0  0  0  0
  161.2520  203.9010  152.7890 C   0  0  0  0  0  3  0  0  0  0  0  0
  161.1770  203.2670  151.5460 C   0  0  0  0  0  3  0  0  0  0  0  0
  161.0140  205.9270  154.1350 O   0  0  0  0  0  0  0  0  0  0  0  0
  160.4580  208.2730  154.2360 C   0  0  0  0  0  2  0  0  0  0  0  0
  161.0660  207.8850  155.5610 C   0  0  2  0  0  0  0  0  0  0  0  0
  161.5710  207.2300  154.2870 C   0  0  1  0  0  3  0  0  0  0  0  0
  160.2220  207.1020  156.3610 O   0  0  0  0  0  1  0  0  0  0  0  0
  161.2550  209.7590  157.2390 C   0  0  0  0  0  2  0  0  0  0  0  0
  161.9880  208.9240  156.2010 C   0  0  0  0  0  3  0  0  0  0  0  0
  161.5060  210.3240  155.8570 C   0  0  0  0  0  2  0  0  0  0  0  0
  158.6590  213.2350  152.3310 N   0  0  0  0  0  2  0  0  0  0  0  0
  157.5100  213.7800  148.8030 C   0  0  0  0  0  0  0  0  0  0  0  0
  157.8330  213.5580  151.2110 C   0  0  0  0  0  0  0  0  0  0  0  0
  156.1860  214.1940  149.0400 C   0  0  0  0  0  3  0  0  0  0  0  0
  158.3230  213.4570  149.9010 C   0  0  0  0  0  3  0  0  0  0  0  0
  155.6930  214.2900  150.3440 C   0  0  0  0  0  3  0  0  0  0  0  0
  156.5170  213.9780  151.4280 C   0  0  0  0  0  3  0  0  0  0  0  0
  160.9450  214.0390  143.7070 C   0  0  0  0  0  0  0  0  0  0  0  0
  160.9600  212.8050  141.9880 C   0  0  0  0  0  0  0  0  0  0  0  0
  158.0540  213.7120  147.4240 C   0  0  0  0  0  0  0  0  0  0  0  0
  159.5260  214.0200  147.1910 C   0  0  0  0  0  2  0  0  0  0  0  0
  161.7880  213.4530  142.8470 N   0  0  0  0  0  0  0  0  0  0  0  0
  162.1860  214.4530  145.7510 O   0  0  0  0  0  0  0  0  0  0  0  0
  159.6170  212.8610  142.3810 C   0  0  0  0  0  3  0  0  0  0  0  0
  158.9350  213.7340  144.7320 C   0  0  0  0  0  0  0  0  0  0  0  0
  157.2420  213.3760  146.3940 C   0  0  0  0  0  3  0  0  0  0  0  0
  159.8250  214.1510  145.7670 N   0  0  0  0  0  0  0  0  0  0  0  0
  159.6580  213.7060  143.4640 C   0  0  1  0  0  3  0  0  0  0  0  0
  157.7010  213.3270  144.9930 C   0  0  0  0  0  3  0  0  0  0  0  0
  161.1000  214.2760  145.1390 C   0  0  0  0  0  0  0  0  0  0  0  0
  162.4500  211.8670  138.6550 C   0  0  0  0  0  2  0  0  0  0  0  0
  162.4220  209.7720  137.5210 O   0  0  0  0  0  1  0  0  0  0  0  0
  161.7770  210.5040  138.5150 C   0  0  1  0  0  3  0  0  0  0  0  0
  161.8960  209.7870  139.8600 C   0  0  1  0  0  3  0  0  0  0  0  0
  161.4490  212.0070  140.8580 C   0  0  0  0  0  0  0  0  0  0  0  0
  161.9100  212.6030  139.7960 N   0  0  0  0  0  0  0  0  0  0  0  0
  161.3820  210.6060  140.9120 O   0  0  0  0  0  0  0  0  0  0  0  0
  162.0350  207.4260  140.3160 O   0  0  0  0  0  1  0  0  0  0  0  0
  161.1870  208.4350  139.8480 C   0  0  0  0  0  2  0  0  0  0  0  0
  1  2  1  0  0  0  0
  1 31  1  0  0  0  0
  3  7  1  0  0  0  0
  4  5  2  0  0  0  0
  5  2  1  0  0  0  0
  6  8  1  0  0  0  0
  7  6  2  0  0  0  0
  7  4  1  0  0  0  0
  8  5  1  0  0  0  0
  9 12  1  0  0  0  0
  9  6  1  1  0  0  0
 10 13  1  0  0  0  0
 10 15  1  0  0  0  0
 11 12  1  0  0  0  0
 13 11  2  0  0  0  0
 14 13  1  0  0  0  0
 14  9  1  0  0  0  0
 15 16  1  0  0  0  0
 16 18  1  0  0  0  0
 17 19  1  0  0  0  0
 18 17  2  0  0  0  0
 18 22  1  0  0  0  0
 19 20  2  0  0  0  0
 20 23  1  0  0  0  0
 21 20  1  0  0  0  0
 22 21  2  0  0  0  0
 24 26  1  0  0  0  0
 24 25  1  0  0  0  0
 25 29  1  0  0  0  0
 25 27  1  1  0  0  0
 26 23  1  1  0  0  0
 26 25  1  0  0  0  0
 29 28  1  0  0  0  0
 30 29  1  0  0  0  0
 30 28  1  0  0  0  0
 32 34  2  0  0  0  0
 32 35  1  0  0  0  0
 33 37  1  0  0  0  0
 33 31  1  0  0  0  0
 34 36  1  0  0  0  0
 35 33  2  0  0  0  0
 36 37  2  0  0  0  0
 38 50  1  0  0  0  0
 39 44  2  0  0  0  0
 39 42  1  0  0  0  0
 40 32  1  0  0  0  0
 41 40  1  0  0  0  0
 42 38  2  0  0  0  0
 45 49  2  0  0  0  0
 45 47  1  0  0  0  0
 46 40  2  0  0  0  0
 47 41  1  0  0  0  0
 48 44  1  1  0  0  0
 48 38  1  0  0  0  0
 48 45  1  0  0  0  0
 49 46  1  0  0  0  0
 50 43  2  0  0  0  0
 50 47  1  0  0  0  0
 51 56  1  0  0  0  0
 53 52  1  6  0  0  0
 53 51  1  0  0  0  0
 53 54  1  0  0  0  0
 54 59  1  6  0  0  0
 54 57  1  0  0  0  0
 55 57  1  0  0  0  0
 55 39  1  0  0  0  0
 56 55  2  0  0  0  0
 59 58  1  0  0  0  0
M  END
>  <MODEL>
1

>  <REMARK>
 VINA RESULT:      -5.8      0.000      0.000
  Name = 
  14 active torsions:
  status: ('A' for Active; 'I' for Inactive)
    1  A    between atoms: C_4  and  C_26
    2  A    between atoms: C_5  and  N_58
    3  A    between atoms: C_9  and  C_22
    4  A    between atoms: C_12  and  C_14
    5  A    between atoms: C_13  and  C_20
    6  A    between atoms: N_16  and  C_45
    7  A    between atoms: N_16  and  N_58
    8  A    between atoms: C_17  and  C_36
    9  A    between atoms: C_22  and  C_46
   10  A    between atoms: C_23  and  O_55
   11  A    between atoms: C_24  and  C_29
   12  A    between atoms: N_28  and  C_46
   13  A    between atoms: C_31  and  C_45
   14  A    between atoms: C_39  and  O_55
                            x       y       z     vdW  Elec       q    Type
                         _______ _______ _______ _____ _____    ______ ____

>  <TORSDO>
F 14

$$$$
=
 OpenBabel11052411313D

 59 68  0  0  1  0  0  0  0  0999 V2000
  158.0310  213.8370  151.2670 N   0  0  0  0  0  2  0  0  0  0  0  0
  158.1500  212.8250  150.2280 C   0  0  0  0  0  2  0  0  0  0  0  0
  162.3470  214.4330  147.8910 C   0  0  0  0  0  1  0  0  0  0  0  0
  160.3580  213.6410  149.2420 C   0  0  0  0  0  3  0  0  0  0  0  0
  159.0070  213.3380  149.1260 C   0  0  0  0  0  0  0  0  0  0  0  0
  160.0050  214.0870  146.9720 C   0  0  0  0  0  0  0  0  0  0  0  0
  160.9120  214.0640  148.0270 C   0  0  0  0  0  0  0  0  0  0  0  0
  158.5040  213.5810  147.5410 S   0  0  0  0  0  0  0  0  0  0  0  0
  160.3210  214.4530  145.5580 C   0  0  1  0  0  3  0  0  0  0  0  0
  160.1680  212.2450  142.3080 N   0  0  0  0  0  2  0  0  0  0  0  0
  161.5780  213.1110  144.0210 N   0  0  0  0  0  0  0  0  0  0  0  0
  161.6100  213.8970  145.1740 N   0  0  0  0  0  2  0  0  0  0  0  0
  160.3950  212.9510  143.5310 C   0  0  0  0  0  0  0  0  0  0  0  0
  159.0690  213.7600  144.4120 S   0  0  0  0  0  0  0  0  0  0  0  0
  161.2300  211.5550  141.5820 C   0  0  0  0  0  2  0  0  0  0  0  0
  161.1700  211.9370  140.1130 C   0  0  0  0  0  2  0  0  0  0  0  0
  159.0830  212.4320  138.8180 C   0  0  0  0  0  3  0  0  0  0  0  0
  159.8870  211.5050  139.4900 C   0  0  0  0  0  0  0  0  0  0  0  0
  157.8910  212.0170  138.2150 C   0  0  0  0  0  3  0  0  0  0  0  0
  157.5000  210.6760  138.2730 C   0  0  0  0  0  0  0  0  0  0  0  0
  158.3100  209.7490  138.9480 C   0  0  0  0  0  3  0  0  0  0  0  0
  159.4980  210.1650  139.5580 C   0  0  0  0  0  3  0  0  0  0  0  0
  156.3130  210.2890  137.6480 O   0  0  0  0  0  0  0  0  0  0  0  0
  153.9760  210.4800  137.0740 C   0  0  0  0  0  2  0  0  0  0  0  0
  154.2090  211.2710  138.3390 C   0  0  2  0  0  0  0  0  0  0  0  0
  155.2970  211.2180  137.2800 C   0  0  1  0  0  3  0  0  0  0  0  0
  154.4160  210.4720  139.4720 O   0  0  0  0  0  1  0  0  0  0  0  0
  153.5220  213.1650  139.8580 C   0  0  0  0  0  2  0  0  0  0  0  0
  153.4370  212.5860  138.4530 C   0  0  0  0  0  3  0  0  0  0  0  0
  152.2760  212.4210  139.4220 C   0  0  0  0  0  2  0  0  0  0  0  0
  159.2250  213.8210  152.0000 N   0  0  0  0  0  2  0  0  0  0  0  0
  160.4180  210.3740  152.8730 C   0  0  0  0  0  0  0  0  0  0  0  0
  159.6220  212.6780  152.7590 C   0  0  0  0  0  0  0  0  0  0  0  0
  160.3980  210.4590  154.2780 C   0  0  0  0  0  3  0  0  0  0  0  0
  160.0330  211.4970  152.1240 C   0  0  0  0  0  3  0  0  0  0  0  0
  159.9950  211.6360  154.9140 C   0  0  0  0  0  3  0  0  0  0  0  0
  159.6030  212.7420  154.1550 C   0  0  0  0  0  3  0  0  0  0  0  0
  161.7780  204.5790  151.3250 C   0  0  0  0  0  0  0  0  0  0  0  0
  161.5570  203.5530  149.4870 C   0  0  0  0  0  0  0  0  0  0  0  0
  160.8070  209.1170  152.1880 C   0  0  0  0  0  0  0  0  0  0  0  0
  160.6530  207.7920  152.9230 C   0  0  0  0  0  2  0  0  0  0  0  0
  161.4020  203.3930  150.8270 N   0  0  0  0  0  2  0  0  0  0  0  0
  160.7420  204.7950  153.5090 O   0  0  0  0  0  0  0  0  0  0  0  0
  161.8900  204.8650  149.1300 C   0  0  0  0  0  3  0  0  0  0  0  0
  161.7580  206.8060  150.8530 C   0  0  0  0  0  0  0  0  0  0  0  0
  161.2910  209.1580  150.9250 C   0  0  0  0  0  3  0  0  0  0  0  0
  161.3110  206.7040  152.2050 N   0  0  0  0  0  0  0  0  0  0  0  0
  162.0670  205.4710  150.3510 C   0  0  0  0  0  0  0  0  0  0  0  0
  161.7360  207.9560  150.1950 C   0  0  0  0  0  3  0  0  0  0  0  0
  161.2580  205.3050  152.4800 C   0  0  0  0  0  0  0  0  0  0  0  0
  161.1960  200.1460  147.9140 C   0  0  0  0  0  2  0  0  0  0  0  0
  160.8100  199.5650  145.6360 O   0  0  0  0  0  1  0  0  0  0  0  0
  161.2660  200.5940  146.4570 C   0  0  1  0  0  3  0  0  0  0  0  0
  160.3720  201.8240  146.3060 C   0  0  1  0  0  3  0  0  0  0  0  0
  161.2560  202.4920  148.5180 C   0  0  0  0  0  0  0  0  0  0  0  0
  161.5110  201.2510  148.8180 N   0  0  0  0  0  0  0  0  0  0  0  0
  160.7310  202.8250  147.2600 O   0  0  0  0  0  0  0  0  0  0  0  0
  160.6540  203.7780  144.9250 O   0  0  0  0  0  1  0  0  0  0  0  0
  160.4280  202.3980  144.8920 C   0  0  0  0  0  2  0  0  0  0  0  0
  1 31  1  0  0  0  0
  2  1  1  0  0  0  0
  3  7  1  0  0  0  0
  5  4  2  0  0  0  0
  5  2  1  0  0  0  0
  6  8  1  0  0  0  0
  6  7  2  0  0  0  0
  7  4  1  0  0  0  0
  8  5  1  0  0  0  0
  9  6  1  1  0  0  0
 10 13  1  0  0  0  0
 11 12  1  0  0  0  0
 12  9  1  0  0  0  0
 13 11  2  0  0  0  0
 13 14  1  0  0  0  0
 14  9  1  0  0  0  0
 15 10  1  0  0  0  0
 16 15  1  0  0  0  0
 17 18  1  0  0  0  0
 18 22  2  0  0  0  0
 18 16  1  0  0  0  0
 19 20  1  0  0  0  0
 19 17  2  0  0  0  0
 20 21  2  0  0  0  0
 21 22  1  0  0  0  0
 23 20  1  0  0  0  0
 24 26  1  0  0  0  0
 24 25  1  0  0  0  0
 25 29  1  0  0  0  0
 25 27  1  1  0  0  0
 26 23  1  1  0  0  0
 26 25  1  0  0  0  0
 29 30  1  0  0  0  0
 29 28  1  0  0  0  0
 30 28  1  0  0  0  0
 31 33  1  0  0  0  0
 32 34  1  0  0  0  0
 33 37  2  0  0  0  0
 34 36  2  0  0  0  0
 35 33  1  0  0  0  0
 35 32  2  0  0  0  0
 37 36  1  0  0  0  0
 38 50  1  0  0  0  0
 39 42  1  0  0  0  0
 40 32  1  0  0  0  0
 40 41  1  0  0  0  0
 42 38  1  0  0  0  0
 44 39  2  0  0  0  0
 44 48  1  0  0  0  0
 45 47  1  0  0  0  0
 46 40  2  0  0  0  0
 47 50  1  0  0  0  0
 47 41  1  0  0  0  0
 48 45  1  0  0  0  0
 48 38  2  0  0  0  0
 49 45  2  0  0  0  0
 49 46  1  0  0  0  0
 50 43  2  0  0  0  0
 51 56  1  0  0  0  0
 53 52  1  6  0  0  0
 53 51  1  0  0  0  0
 54 59  1  6  0  0  0
 54 53  1  0  0  0  0
 54 57  1  0  0  0  0
 55 56  2  0  0  0  0
 55 39  1  0  0  0  0
 57 55  1  0  0  0  0
 59 58  1  0  0  0  0
M  END
>  <MODEL>
2

>  <REMARK>
 VINA RESULT:      -5.7      3.915     11.393
  Name = 
  14 active torsions:
  status: ('A' for Active; 'I' for Inactive)
    1  A    between atoms: C_4  and  C_26
    2  A    between atoms: C_5  and  N_58
    3  A    between atoms: C_9  and  C_22
    4  A    between atoms: C_12  and  C_14
    5  A    between atoms: C_13  and  C_20
    6  A    between atoms: N_16  and  C_45
    7  A    between atoms: N_16  and  N_58
    8  A    between atoms: C_17  and  C_36
    9  A    between atoms: C_22  and  C_46
   10  A    between atoms: C_23  and  O_55
   11  A    between atoms: C_24  and  C_29
   12  A    between atoms: N_28  and  C_46
   13  A    between atoms: C_31  and  C_45
   14  A    between atoms: C_39  and  O_55
                            x       y       z     vdW  Elec       q    Type
                         _______ _______ _______ _____ _____    ______ ____

>  <TORSDO>
F 14

$$$$
=
 OpenBabel11052411313D

 59 68  0  0  1  0  0  0  0  0999 V2000
  159.4090  214.0750  151.0500 N   0  0  0  0  0  2  0  0  0  0  0  0
  159.5860  214.4430  152.4470 C   0  0  0  0  0  2  0  0  0  0  0  0
  158.5810  211.6480  156.5500 C   0  0  0  0  0  1  0  0  0  0  0  0
  159.0530  213.2170  154.6210 C   0  0  0  0  0  3  0  0  0  0  0  0
  159.4860  213.2300  153.3000 C   0  0  0  0  0  0  0  0  0  0  0  0
  159.4220  210.9350  154.2620 C   0  0  0  0  0  0  0  0  0  0  0  0
  159.0220  211.9230  155.1560 C   0  0  0  0  0  0  0  0  0  0  0  0
  159.8170  211.6610  152.7960 S   0  0  0  0  0  0  0  0  0  0  0  0
  159.4480  209.4660  154.5400 C   0  0  1  0  0  3  0  0  0  0  0  0
  162.3830  206.8880  154.1010 N   0  0  0  0  0  2  0  0  0  0  0  0
  160.4140  207.7970  153.1180 N   0  0  0  0  0  0  0  0  0  0  0  0
  159.3820  208.7200  153.2930 N   0  0  0  0  0  2  0  0  0  0  0  0
  161.2940  207.8150  154.0620 C   0  0  0  0  0  0  0  0  0  0  0  0
  161.0100  208.9900  155.3740 S   0  0  0  0  0  0  0  0  0  0  0  0
  162.6520  205.9340  153.0290 C   0  0  0  0  0  2  0  0  0  0  0  0
  161.6350  204.8070  153.0880 C   0  0  0  0  0  2  0  0  0  0  0  0
  161.0910  202.8810  151.5820 C   0  0  0  0  0  3  0  0  0  0  0  0
  161.3660  204.2440  151.7350 C   0  0  0  0  0  0  0  0  0  0  0  0
  160.8170  202.3610  150.3130 C   0  0  0  0  0  3  0  0  0  0  0  0
  160.8090  203.1990  149.1930 C   0  0  0  0  0  0  0  0  0  0  0  0
  161.0850  204.5660  149.3520 C   0  0  0  0  0  3  0  0  0  0  0  0
  161.3660  205.0850  150.6190 C   0  0  0  0  0  3  0  0  0  0  0  0
  160.5150  202.6540  147.9410 O   0  0  0  0  0  0  0  0  0  0  0  0
  160.7440  202.3000  145.5640 C   0  0  0  0  0  2  0  0  0  0  0  0
  161.1680  203.7170  145.8640 C   0  0  2  0  0  0  0  0  0  0  0  0
  161.4590  202.6210  146.8740 C   0  0  1  0  0  3  0  0  0  0  0  0
  160.1010  204.5710  146.1760 O   0  0  0  0  0  1  0  0  0  0  0  0
  163.6010  204.3790  145.9360 C   0  0  0  0  0  2  0  0  0  0  0  0
  162.3630  204.2380  145.0640 C   0  0  0  0  0  3  0  0  0  0  0  0
  162.7800  205.6030  145.5880 C   0  0  0  0  0  2  0  0  0  0  0  0
  160.5830  214.4340  150.3750 N   0  0  0  0  0  2  0  0  0  0  0  0
  160.8660  213.1570  146.8610 C   0  0  0  0  0  0  0  0  0  0  0  0
  161.0400  213.7120  149.2300 C   0  0  0  0  0  0  0  0  0  0  0  0
  161.9620  212.2860  147.0060 C   0  0  0  0  0  3  0  0  0  0  0  0
  160.4180  213.8710  147.9830 C   0  0  0  0  0  3  0  0  0  0  0  0
  162.5880  212.1290  148.2460 C   0  0  0  0  0  3  0  0  0  0  0  0
  162.1230  212.8380  149.3570 C   0  0  0  0  0  3  0  0  0  0  0  0
  158.9860  212.8190  141.0140 C   0  0  0  0  0  0  0  0  0  0  0  0
  157.0510  212.9860  140.1740 C   0  0  0  0  0  0  0  0  0  0  0  0
  160.1720  213.3010  145.5570 C   0  0  0  0  0  0  0  0  0  0  0  0
  160.5750  212.4010  144.3970 C   0  0  0  0  0  2  0  0  0  0  0  0
  158.2000  212.2680  140.0790 N   0  0  0  0  0  0  0  0  0  0  0  0
  160.6560  211.1600  141.6070 O   0  0  0  0  0  0  0  0  0  0  0  0
  157.0570  213.8830  141.2490 C   0  0  0  0  0  3  0  0  0  0  0  0
  158.9100  213.7940  143.0690 C   0  0  0  0  0  0  0  0  0  0  0  0
  159.1910  214.2230  145.4130 C   0  0  0  0  0  3  0  0  0  0  0  0
  159.9750  212.8460  143.1430 N   0  0  0  0  0  0  0  0  0  0  0  0
  158.3410  213.7700  141.7250 C   0  0  1  0  0  3  0  0  0  0  0  0
  158.4840  214.4520  144.1390 C   0  0  0  0  0  3  0  0  0  0  0  0
  159.9790  212.1860  141.8770 C   0  0  0  0  0  0  0  0  0  0  0  0
  154.0800  213.5390  137.9210 C   0  0  0  0  0  2  0  0  0  0  0  0
  152.3420  212.0280  137.3100 O   0  0  0  0  0  1  0  0  0  0  0  0
  153.3300  212.2550  138.2660 C   0  0  1  0  0  3  0  0  0  0  0  0
  154.3420  211.1110  138.2620 C   0  0  1  0  0  3  0  0  0  0  0  0
  155.8790  212.7300  139.3280 C   0  0  0  0  0  0  0  0  0  0  0  0
  155.2280  213.7290  138.8040 N   0  0  0  0  0  0  0  0  0  0  0  0
  155.4430  211.4120  139.1200 O   0  0  0  0  0  0  0  0  0  0  0  0
  154.4120  208.7060  138.1290 O   0  0  0  0  0  1  0  0  0  0  0  0
  153.7030  209.7850  138.6680 C   0  0  0  0  0  2  0  0  0  0  0  0
  1  2  1  0  0  0  0
  2  5  1  0  0  0  0
  4  7  1  0  0  0  0
  5  4  2  0  0  0  0
  6  7  2  0  0  0  0
  7  3  1  0  0  0  0
  8  5  1  0  0  0  0
  8  6  1  0  0  0  0
  9  6  1  6  0  0  0
  9 14  1  0  0  0  0
 11 12  1  0  0  0  0
 11 13  2  0  0  0  0
 12  9  1  0  0  0  0
 13 10  1  0  0  0  0
 13 14  1  0  0  0  0
 15 16  1  0  0  0  0
 15 10  1  0  0  0  0
 17 18  1  0  0  0  0
 18 16  1  0  0  0  0
 19 17  2  0  0  0  0
 20 21  2  0  0  0  0
 20 19  1  0  0  0  0
 21 22  1  0  0  0  0
 22 18  2  0  0  0  0
 23 20  1  0  0  0  0
 24 25  1  0  0  0  0
 24 26  1  0  0  0  0
 25 27  1  1  0  0  0
 25 26  1  0  0  0  0
 26 23  1  1  0  0  0
 29 30  1  0  0  0  0
 29 25  1  0  0  0  0
 29 28  1  0  0  0  0
 30 28  1  0  0  0  0
 31  1  1  0  0  0  0
 32 34  2  0  0  0  0
 32 35  1  0  0  0  0
 33 37  1  0  0  0  0
 33 31  1  0  0  0  0
 34 36  1  0  0  0  0
 35 33  2  0  0  0  0
 36 37  2  0  0  0  0
 38 48  1  0  0  0  0
 38 50  1  0  0  0  0
 39 44  2  0  0  0  0
 40 32  1  0  0  0  0
 41 40  1  0  0  0  0
 42 39  1  0  0  0  0
 42 38  2  0  0  0  0
 43 50  2  0  0  0  0
 45 47  1  0  0  0  0
 45 49  2  0  0  0  0
 46 40  2  0  0  0  0
 47 41  1  0  0  0  0
 48 44  1  1  0  0  0
 48 45  1  0  0  0  0
 49 46  1  0  0  0  0
 50 47  1  0  0  0  0
 51 53  1  0  0  0  0
 51 56  1  0  0  0  0
 53 52  1  6  0  0  0
 54 53  1  0  0  0  0
 54 59  1  1  0  0  0
 54 57  1  0  0  0  0
 55 39  1  0  0  0  0
 56 55  2  0  0  0  0
 57 55  1  0  0  0  0
 58 59  1  0  0  0  0
M  END
>  <MODEL>
3

>  <REMARK>
 VINA RESULT:      -3.9      3.803      6.366
  Name = 
  14 active torsions:
  status: ('A' for Active; 'I' for Inactive)
    1  A    between atoms: C_4  and  C_26
    2  A    between atoms: C_5  and  N_58
    3  A    between atoms: C_9  and  C_22
    4  A    between atoms: C_12  and  C_14
    5  A    between atoms: C_13  and  C_20
    6  A    between atoms: N_16  and  C_45
    7  A    between atoms: N_16  and  N_58
    8  A    between atoms: C_17  and  C_36
    9  A    between atoms: C_22  and  C_46
   10  A    between atoms: C_23  and  O_55
   11  A    between atoms: C_24  and  C_29
   12  A    between atoms: N_28  and  C_46
   13  A    between atoms: C_31  and  C_45
   14  A    between atoms: C_39  and  O_55
                            x       y       z     vdW  Elec       q    Type
                         _______ _______ _______ _____ _____    ______ ____

>  <TORSDO>
F 14

$$$$
