=
 OpenBabel11052411373D

 43 48  0  0  1  0  0  0  0  0999 V2000
  161.2110  210.1400  148.4530 C   0  0  0  0  0  0  0  0  0  0  0  0
  159.2290  212.9900  151.0120 C   0  0  2  0  0  3  0  0  0  0  0  0
  159.3240  213.6360  152.2340 C   0  0  0  0  0  2  0  0  0  0  0  0
  160.8710  211.5170  148.1560 C   0  0  0  0  0  0  0  0  0  0  0  0
  160.2180  210.9810  152.7080 C   0  0  0  0  0  0  0  0  0  0  0  0
  161.7820  207.5740  148.9910 C   0  0  2  0  0  3  0  0  0  0  0  0
  159.6920  212.1910  152.1840 N   0  0  0  0  0  0  0  0  0  0  0  0
  160.5470  210.8700  153.9990 C   0  0  0  0  0  2  0  0  0  0  0  0
  160.6450  212.3450  149.1450 C   0  0  0  0  0  0  0  0  0  0  0  0
  160.5380  209.9330  151.8000 N   0  0  0  0  0  0  0  0  0  0  0  0
  160.4080  213.2090  150.0990 C   0  0  0  0  0  0  0  0  0  0  0  0
  161.2270  209.6400  154.4830 C   0  0  0  0  0  0  0  0  0  0  0  0
  161.8330  208.0470  151.3760 C   0  0  0  0  0  0  0  0  0  0  0  0
  161.4840  208.9860  148.6810 C   0  0  0  0  0  0  0  0  0  0  0  0
  161.5770  208.6970  153.6550 N   0  0  0  0  0  0  0  0  0  0  0  0
  162.3710  207.4240  150.3670 C   0  0  0  0  0  3  0  0  0  0  0  0
  161.2340  214.4530  150.1620 C   0  0  0  0  0  1  0  0  0  0  0  0
  161.2600  208.7990  152.2620 C   0  0  0  0  0  0  0  0  0  0  0  0
  161.5440  209.5190  155.8640 N   0  0  0  0  0  1  0  0  0  0  0  0
  159.7510  212.5230  146.1450 C   0  0  0  0  0  2  0  0  0  0  0  0
  161.0470  212.0640  146.7590 C   0  0  1  0  0  3  0  0  0  0  0  0
  159.8730  214.0240  146.1650 C   0  0  0  0  0  2  0  0  0  0  0  0
  161.2340  214.3350  146.0450 O   0  0  0  0  0  0  0  0  0  0  0  0
  161.9060  213.3230  146.7540 C   0  0  2  0  0  3  0  0  0  0  0  0
  163.4990  212.9480  145.9560 S   0  0  0  0  0  0  0  0  0  0  0  0
  163.0400  213.7260  144.4060 C   0  0  0  0  0  3  0  0  0  0  0  0
  162.7030  212.9680  143.3650 C   0  0  0  0  0  3  0  0  0  0  0  0
  162.3120  213.5940  142.0630 C   0  0  2  0  0  3  0  0  0  0  0  0
  160.9360  213.3490  141.8340 O   0  0  0  0  0  0  0  0  0  0  0  0
  161.8380  212.5990  141.0670 C   0  0  2  0  0  0  0  0  0  0  0  0
  161.8230  211.2470  141.4240 O   0  0  0  0  0  1  0  0  0  0  0  0
  161.7770  212.9680  139.5900 C   0  0  1  0  0  3  0  0  0  0  0  0
  162.4940  211.9110  138.7700 C   0  0  0  0  0  1  0  0  0  0  0  0
  160.4350  213.9860  138.2050 N   0  0  0  0  0  1  0  0  0  0  0  0
  160.4450  213.0410  139.1760 O   0  0  0  0  0  0  0  0  0  0  0  0
  162.7260  207.0130  147.9360 C   0  0  0  0  0  2  0  0  0  0  0  0
  162.7020  205.0730  145.8160 S   0  0  0  0  0  0  0  0  0  0  0  0
  162.2730  205.6800  147.4410 C   0  0  0  0  0  0  0  0  0  0  0  0
  161.3560  203.6310  147.5860 N   0  0  0  0  0  2  0  0  0  0  0  0
  161.6270  204.8580  148.1910 N   0  0  0  0  0  0  0  0  0  0  0  0
  161.8850  203.4890  146.2410 C   0  0  1  0  0  3  0  0  0  0  0  0
  160.4860  204.3790  144.4610 N   0  0  0  0  0  1  0  0  0  0  0  0
  160.7470  203.2070  145.2770 C   0  0  0  0  0  2  0  0  0  0  0  0
  1 14  3  0  0  0  0
  2  7  1  0  0  0  0
  2  3  1  1  0  0  0
  4  1  1  0  0  0  0
  4  9  2  0  0  0  0
  5  8  1  0  0  0  0
  6 36  1  6  0  0  0
  6 16  1  0  0  0  0
  7  3  1  0  0  0  0
  7  5  1  0  0  0  0
  8 12  1  0  0  0  0
  9 11  2  0  0  0  0
 10 18  1  0  0  0  0
 10  5  2  0  0  0  0
 11 17  1  0  0  0  0
 11  2  1  0  0  0  0
 12 19  1  0  0  0  0
 13 18  2  0  0  0  0
 14  6  1  0  0  0  0
 15 12  2  0  0  0  0
 16 13  2  0  0  0  0
 18 15  1  0  0  0  0
 20 22  1  0  0  0  0
 20 21  1  0  0  0  0
 21  4  1  1  0  0  0
 23 22  1  0  0  0  0
 23 24  1  0  0  0  0
 24 25  1  6  0  0  0
 24 21  1  0  0  0  0
 26 25  1  0  0  0  0
 27 26  2  0  0  0  0
 28 27  1  1  0  0  0
 29 28  1  0  0  0  0
 30 31  1  1  0  0  0
 30 29  1  0  0  0  0
 30 28  1  0  0  0  0
 32 33  1  6  0  0  0
 32 30  1  0  0  0  0
 34 35  1  0  0  0  0
 35 32  1  0  0  0  0
 37 41  1  0  0  0  0
 37 38  1  0  0  0  0
 38 36  1  0  0  0  0
 38 40  2  0  0  0  0
 39 40  1  0  0  0  0
 41 43  1  6  0  0  0
 41 39  1  0  0  0  0
 42 43  1  0  0  0  0
M  END
>  <MODEL>
1

>  <REMARK>
 VINA RESULT:      -4.9      0.000      0.000
  Name = 
  9 active torsions:
  status: ('A' for Active; 'I' for Inactive)
    1  A    between atoms: C_4  and  C_12
    2  A    between atoms: C_7  and  C_20
    3  A    between atoms: C_7  and  O_34
    4  A    between atoms: C_10  and  C_40
    5  A    between atoms: C_12  and  C_19
    6  A    between atoms: C_13  and  C_16
    7  A    between atoms: C_14  and  S_17
    8  A    between atoms: S_17  and  C_39
    9  A    between atoms: C_22  and  C_24
                            x       y       z     vdW  Elec       q    Type
                         _______ _______ _______ _____ _____    ______ ____

>  <TORSDO>
F 9

$$$$
=
 OpenBabel11052411373D

 43 48  0  0  1  0  0  0  0  0999 V2000
  161.0510  208.5340  151.2970 C   0  0  0  0  0  0  0  0  0  0  0  0
  160.0170  204.3480  151.2200 C   0  0  2  0  0  3  0  0  0  0  0  0
  160.4780  203.0990  150.8360 C   0  0  0  0  0  2  0  0  0  0  0  0
  160.7330  207.6750  152.4200 C   0  0  0  0  0  0  0  0  0  0  0  0
  161.2940  204.8770  148.7740 C   0  0  0  0  0  0  0  0  0  0  0  0
  161.5800  210.1310  149.2070 C   0  0  2  0  0  3  0  0  0  0  0  0
  160.7260  204.2440  149.9110 N   0  0  0  0  0  0  0  0  0  0  0  0
  161.9500  204.1740  147.8450 C   0  0  0  0  0  3  0  0  0  0  0  0
  160.8340  206.3770  152.2790 C   0  0  0  0  0  0  0  0  0  0  0  0
  161.2900  206.2980  148.7200 N   0  0  0  0  0  2  0  0  0  0  0  0
  160.9180  205.0750  152.1840 C   0  0  0  0  0  0  0  0  0  0  0  0
  162.6540  204.8830  146.7460 C   0  0  0  0  0  0  0  0  0  0  0  0
  162.3000  208.2210  147.8830 C   0  0  0  0  0  0  0  0  0  0  0  0
  161.3010  209.2650  150.3690 C   0  0  0  0  0  0  0  0  0  0  0  0
  162.7080  206.1850  146.7130 N   0  0  0  0  0  0  0  0  0  0  0  0
  162.5060  209.4600  148.2290 C   0  0  0  0  0  3  0  0  0  0  0  0
  161.8090  204.3430  153.1350 C   0  0  0  0  0  1  0  0  0  0  0  0
  162.0350  206.9650  147.7090 C   0  0  0  0  0  0  0  0  0  0  0  0
  163.3220  204.1260  145.7450 N   0  0  0  0  0  1  0  0  0  0  0  0
  160.0580  207.2470  154.8020 C   0  0  0  0  0  2  0  0  0  0  0  0
  160.5620  208.2570  153.8040 C   0  0  1  0  0  3  0  0  0  0  0  0
  161.2680  206.9720  155.6550 C   0  0  0  0  0  2  0  0  0  0  0  0
  162.0390  208.1420  155.6760 O   0  0  0  0  0  0  0  0  0  0  0  0
  161.8950  208.7000  154.3930 C   0  0  2  0  0  3  0  0  0  0  0  0
  161.9200  210.5190  154.4930 S   0  0  0  0  0  0  0  0  0  0  0  0
  160.1480  210.6740  154.2580 C   0  0  0  0  0  3  0  0  0  0  0  0
  159.6510  211.7920  153.7330 C   0  0  0  0  0  3  0  0  0  0  0  0
  158.1770  211.9430  153.5220 C   0  0  2  0  0  3  0  0  0  0  0  0
  157.9230  213.2290  152.9870 O   0  0  0  0  0  0  0  0  0  0  0  0
  157.5910  213.0400  154.3350 C   0  0  2  0  0  0  0  0  0  0  0  0
  158.4310  213.7700  155.1820 O   0  0  0  0  0  1  0  0  0  0  0  0
  156.0870  213.0970  154.5670 C   0  0  1  0  0  3  0  0  0  0  0  0
  155.7970  213.0410  156.0560 C   0  0  0  0  0  1  0  0  0  0  0  0
  154.5760  213.9010  153.2140 N   0  0  0  0  0  1  0  0  0  0  0  0
  155.5730  214.2870  154.0470 O   0  0  0  0  0  0  0  0  0  0  0  0
  162.1670  211.4500  149.6870 C   0  0  0  0  0  2  0  0  0  0  0  0
  160.4240  213.1970  148.2160 S   0  0  0  0  0  0  0  0  0  0  0  0
  162.0180  212.5280  148.6660 C   0  0  0  0  0  0  0  0  0  0  0  0
  162.7070  214.1360  147.2520 N   0  0  0  0  0  2  0  0  0  0  0  0
  163.0350  213.0970  148.1220 N   0  0  0  0  0  0  0  0  0  0  0  0
  161.2850  214.4120  147.1490 C   0  0  1  0  0  3  0  0  0  0  0  0
  160.5060  212.8660  145.4390 N   0  0  0  0  0  1  0  0  0  0  0  0
  160.8420  214.2540  145.7060 C   0  0  0  0  0  2  0  0  0  0  0  0
  1  4  1  0  0  0  0
  2  3  1  1  0  0  0
  2 11  1  0  0  0  0
  5  7  1  0  0  0  0
  6 36  1  1  0  0  0
  6 14  1  0  0  0  0
  7  3  1  0  0  0  0
  7  2  1  0  0  0  0
  8  5  2  0  0  0  0
  9  4  2  0  0  0  0
 10  5  1  0  0  0  0
 11  9  2  0  0  0  0
 11 17  1  0  0  0  0
 12  8  1  0  0  0  0
 13 16  2  0  0  0  0
 14  1  3  0  0  0  0
 15 12  2  0  0  0  0
 15 18  1  0  0  0  0
 16  6  1  0  0  0  0
 18 13  2  0  0  0  0
 18 10  1  0  0  0  0
 19 12  1  0  0  0  0
 20 22  1  0  0  0  0
 21  4  1  6  0  0  0
 21 24  1  0  0  0  0
 21 20  1  0  0  0  0
 22 23  1  0  0  0  0
 24 25  1  1  0  0  0
 24 23  1  0  0  0  0
 26 25  1  0  0  0  0
 27 26  2  0  0  0  0
 28 27  1  1  0  0  0
 28 30  1  0  0  0  0
 29 28  1  0  0  0  0
 29 30  1  0  0  0  0
 30 32  1  0  0  0  0
 30 31  1  1  0  0  0
 32 33  1  1  0  0  0
 34 35  1  0  0  0  0
 35 32  1  0  0  0  0
 37 38  1  0  0  0  0
 38 36  1  0  0  0  0
 39 40  1  0  0  0  0
 40 38  2  0  0  0  0
 41 43  1  6  0  0  0
 41 39  1  0  0  0  0
 41 37  1  0  0  0  0
 42 43  1  0  0  0  0
M  END
>  <MODEL>
2

>  <REMARK>
 VINA RESULT:      -4.8      5.000      9.997
  Name = 
  9 active torsions:
  status: ('A' for Active; 'I' for Inactive)
    1  A    between atoms: C_4  and  C_12
    2  A    between atoms: C_7  and  C_20
    3  A    between atoms: C_7  and  O_34
    4  A    between atoms: C_10  and  C_40
    5  A    between atoms: C_12  and  C_19
    6  A    between atoms: C_13  and  C_16
    7  A    between atoms: C_14  and  S_17
    8  A    between atoms: S_17  and  C_39
    9  A    between atoms: C_22  and  C_24
                            x       y       z     vdW  Elec       q    Type
                         _______ _______ _______ _____ _____    ______ ____

>  <TORSDO>
F 9

$$$$
=
 OpenBabel11052411373D

 43 48  0  0  1  0  0  0  0  0999 V2000
  160.5200  209.9380  152.4480 C   0  0  0  0  0  0  0  0  0  0  0  0
  158.0630  213.2470  151.1810 C   0  0  2  0  0  3  0  0  0  0  0  0
  157.5230  214.4520  151.6010 C   0  0  0  0  0  2  0  0  0  0  0  0
  160.7430  210.8370  151.3340 C   0  0  0  0  0  0  0  0  0  0  0  0
  157.3330  212.7140  153.8410 C   0  0  0  0  0  0  0  0  0  0  0  0
  160.0660  208.2410  154.4770 C   0  0  2  0  0  3  0  0  0  0  0  0
  157.5200  213.3170  152.5680 N   0  0  0  0  0  0  0  0  0  0  0  0
  156.7640  213.3830  154.8490 C   0  0  0  0  0  2  0  0  0  0  0  0
  160.1440  212.0010  151.3240 C   0  0  0  0  0  0  0  0  0  0  0  0
  157.9070  211.4330  154.0720 N   0  0  0  0  0  0  0  0  0  0  0  0
  159.5650  213.1730  151.2680 C   0  0  0  0  0  0  0  0  0  0  0  0
  156.7160  212.7740  156.2030 C   0  0  0  0  0  0  0  0  0  0  0  0
  158.7400  209.9210  155.6330 C   0  0  0  0  0  0  0  0  0  0  0  0
  160.3360  209.1710  153.3630 C   0  0  0  0  0  0  0  0  0  0  0  0
  157.2860  211.6270  156.4440 N   0  0  0  0  0  0  0  0  0  0  0  0
  159.6330  208.9770  155.7170 C   0  0  0  0  0  3  0  0  0  0  0  0
  160.4230  214.3920  151.1560 C   0  0  0  0  0  1  0  0  0  0  0  0
  157.9240  210.8980  155.3890 C   0  0  0  0  0  0  0  0  0  0  0  0
  156.0810  213.4810  157.2610 N   0  0  0  0  0  1  0  0  0  0  0  0
  162.2950  209.1280  150.3410 C   0  0  0  0  0  2  0  0  0  0  0  0
  161.8550  210.5690  150.3460 C   0  0  1  0  0  3  0  0  0  0  0  0
  161.7460  208.6050  149.0400 C   0  0  0  0  0  2  0  0  0  0  0  0
  161.7210  209.6760  148.1370 O   0  0  0  0  0  0  0  0  0  0  0  0
  161.4000  210.8050  148.9120 C   0  0  2  0  0  3  0  0  0  0  0  0
  162.2460  212.2790  148.2580 S   0  0  0  0  0  0  0  0  0  0  0  0
  160.9860  212.5990  147.0220 C   0  0  0  0  0  3  0  0  0  0  0  0
  161.3450  212.8070  145.7570 C   0  0  0  0  0  3  0  0  0  0  0  0
  160.3120  213.0720  144.7070 C   0  0  2  0  0  3  0  0  0  0  0  0
  160.0720  211.8750  143.9910 O   0  0  0  0  0  0  0  0  0  0  0  0
  160.8240  212.8540  143.3300 C   0  0  2  0  0  0  0  0  0  0  0  0
  162.1550  212.4610  143.1640 O   0  0  0  0  0  1  0  0  0  0  0  0
  160.0780  213.4410  142.1380 C   0  0  1  0  0  3  0  0  0  0  0  0
  161.0330  213.6080  140.9690 C   0  0  0  0  0  1  0  0  0  0  0  0
  159.5980  211.7450  140.8530 N   0  0  0  0  0  1  0  0  0  0  0  0
  159.0420  212.5830  141.7610 O   0  0  0  0  0  0  0  0  0  0  0  0
  161.3080  207.4050  154.7520 C   0  0  0  0  0  2  0  0  0  0  0  0
  162.5230  206.4720  152.3220 S   0  0  0  0  0  0  0  0  0  0  0  0
  161.4690  206.3080  153.7540 C   0  0  0  0  0  0  0  0  0  0  0  0
  161.2530  204.2260  152.9280 N   0  0  0  0  0  2  0  0  0  0  0  0
  160.9300  205.1510  153.9200 N   0  0  0  0  0  0  0  0  0  0  0  0
  162.1680  204.7210  151.9150 C   0  0  1  0  0  3  0  0  0  0  0  0
  160.5280  203.5520  150.5490 N   0  0  0  0  0  1  0  0  0  0  0  0
  161.5140  204.6190  150.5490 C   0  0  0  0  0  2  0  0  0  0  0  0
  1 14  3  0  0  0  0
  2 11  1  0  0  0  0
  2  3  1  6  0  0  0
  2  7  1  0  0  0  0
  3  7  1  0  0  0  0
  4  1  1  0  0  0  0
  5 10  2  0  0  0  0
  5  8  1  0  0  0  0
  6 36  1  1  0  0  0
  6 16  1  0  0  0  0
  7  5  1  0  0  0  0
  8 12  1  0  0  0  0
  9  4  2  0  0  0  0
 10 18  1  0  0  0  0
 11  9  2  0  0  0  0
 12 15  2  0  0  0  0
 12 19  1  0  0  0  0
 13 16  2  0  0  0  0
 14  6  1  0  0  0  0
 17 11  1  0  0  0  0
 18 13  2  0  0  0  0
 18 15  1  0  0  0  0
 20 21  1  0  0  0  0
 21  4  1  1  0  0  0
 22 20  1  0  0  0  0
 23 24  1  0  0  0  0
 23 22  1  0  0  0  0
 24 25  1  6  0  0  0
 24 21  1  0  0  0  0
 26 25  1  0  0  0  0
 27 26  2  0  0  0  0
 28 27  1  1  0  0  0
 29 28  1  0  0  0  0
 30 31  1  6  0  0  0
 30 29  1  0  0  0  0
 30 28  1  0  0  0  0
 32 33  1  6  0  0  0
 32 30  1  0  0  0  0
 34 35  1  0  0  0  0
 35 32  1  0  0  0  0
 37 38  1  0  0  0  0
 38 40  2  0  0  0  0
 38 36  1  0  0  0  0
 39 40  1  0  0  0  0
 41 43  1  6  0  0  0
 41 37  1  0  0  0  0
 41 39  1  0  0  0  0
 42 43  1  0  0  0  0
M  END
>  <MODEL>
3

>  <REMARK>
 VINA RESULT:      -4.7      2.904      4.548
  Name = 
  9 active torsions:
  status: ('A' for Active; 'I' for Inactive)
    1  A    between atoms: C_4  and  C_12
    2  A    between atoms: C_7  and  C_20
    3  A    between atoms: C_7  and  O_34
    4  A    between atoms: C_10  and  C_40
    5  A    between atoms: C_12  and  C_19
    6  A    between atoms: C_13  and  C_16
    7  A    between atoms: C_14  and  S_17
    8  A    between atoms: S_17  and  C_39
    9  A    between atoms: C_22  and  C_24
                            x       y       z     vdW  Elec       q    Type
                         _______ _______ _______ _____ _____    ______ ____

>  <TORSDO>
F 9

$$$$
=
 OpenBabel11052411373D

 43 48  0  0  1  0  0  0  0  0999 V2000
  161.8170  209.5820  150.1210 C   0  0  0  0  0  0  0  0  0  0  0  0
  162.4650  206.0700  147.7030 C   0  0  2  0  0  3  0  0  0  0  0  0
  161.9800  204.7990  147.4430 C   0  0  0  0  0  2  0  0  0  0  0  0
  161.8270  209.4860  148.6760 C   0  0  0  0  0  0  0  0  0  0  0  0
  161.7530  205.1350  150.2550 C   0  0  0  0  0  0  0  0  0  0  0  0
  161.8610  209.7600  152.7980 C   0  0  2  0  0  3  0  0  0  0  0  0
  162.0250  205.2440  148.8660 N   0  0  0  0  0  0  0  0  0  0  0  0
  161.2360  204.0170  150.7750 C   0  0  0  0  0  3  0  0  0  0  0  0
  161.6390  208.3190  148.1120 C   0  0  0  0  0  0  0  0  0  0  0  0
  161.8960  206.2950  151.0660 N   0  0  0  0  0  2  0  0  0  0  0  0
  161.4590  207.1740  147.5050 C   0  0  0  0  0  0  0  0  0  0  0  0
  160.8310  203.9870  152.2040 C   0  0  0  0  0  0  0  0  0  0  0  0
  161.2500  207.4140  153.0010 C   0  0  0  0  0  0  0  0  0  0  0  0
  161.8240  209.6790  151.3250 C   0  0  0  0  0  0  0  0  0  0  0  0
  160.9020  205.0570  152.9440 N   0  0  0  0  0  0  0  0  0  0  0  0
  161.0910  208.6330  153.4320 C   0  0  0  0  0  3  0  0  0  0  0  0
  160.3340  207.0490  146.5290 C   0  0  0  0  0  1  0  0  0  0  0  0
  161.4300  206.2760  152.4080 C   0  0  0  0  0  0  0  0  0  0  0  0
  160.3100  202.7840  152.7540 N   0  0  0  0  0  1  0  0  0  0  0  0
  160.3640  211.1040  147.4280 C   0  0  0  0  0  2  0  0  0  0  0  0
  161.7700  210.7340  147.8260 C   0  0  1  0  0  3  0  0  0  0  0  0
  160.0750  212.3170  148.2710 C   0  0  0  0  0  2  0  0  0  0  0  0
  161.2920  212.9790  148.4820 O   0  0  0  0  0  0  0  0  0  0  0  0
  162.2520  211.9570  148.5940 C   0  0  2  0  0  3  0  0  0  0  0  0
  163.8400  212.5070  147.8910 S   0  0  0  0  0  0  0  0  0  0  0  0
  163.0700  213.6450  146.7380 C   0  0  0  0  0  3  0  0  0  0  0  0
  162.9790  213.3150  145.4510 C   0  0  0  0  0  3  0  0  0  0  0  0
  162.3380  214.2450  144.4700 C   0  0  2  0  0  3  0  0  0  0  0  0
  161.0390  213.7670  144.1720 O   0  0  0  0  0  0  0  0  0  0  0  0
  162.0120  213.5840  143.1800 C   0  0  2  0  0  0  0  0  0  0  0  0
  162.3380  212.2340  143.0180 O   0  0  0  0  0  1  0  0  0  0  0  0
  161.7330  214.4260  141.9420 C   0  0  1  0  0  3  0  0  0  0  0  0
  162.4630  213.8360  140.7480 C   0  0  0  0  0  1  0  0  0  0  0  0
  160.2100  213.6350  140.5960 N   0  0  0  0  0  1  0  0  0  0  0  0
  160.3610  214.4370  141.6770 O   0  0  0  0  0  0  0  0  0  0  0  0
  161.3100  211.1070  153.2450 C   0  0  0  0  0  2  0  0  0  0  0  0
  158.8110  211.0710  154.6640 S   0  0  0  0  0  0  0  0  0  0  0  0
  160.5930  211.0070  154.5500 C   0  0  0  0  0  0  0  0  0  0  0  0
  160.3760  210.6350  156.7580 N   0  0  0  0  0  2  0  0  0  0  0  0
  161.2140  210.7760  155.6530 N   0  0  0  0  0  0  0  0  0  0  0  0
  158.9580  210.7330  156.4590 C   0  0  1  0  0  3  0  0  0  0  0  0
  157.2580  212.4730  156.5170 N   0  0  0  0  0  1  0  0  0  0  0  0
  158.3500  211.8690  157.2610 C   0  0  0  0  0  2  0  0  0  0  0  0
  1 14  3  0  0  0  0
  2  3  1  6  0  0  0
  2  7  1  0  0  0  0
  3  7  1  0  0  0  0
  4  1  1  0  0  0  0
  5  8  2  0  0  0  0
  5 10  1  0  0  0  0
  6 36  1  6  0  0  0
  6 16  1  0  0  0  0
  7  5  1  0  0  0  0
  8 12  1  0  0  0  0
  9  4  2  0  0  0  0
 10 18  1  0  0  0  0
 11  2  1  0  0  0  0
 11  9  2  0  0  0  0
 12 19  1  0  0  0  0
 12 15  2  0  0  0  0
 13 16  2  0  0  0  0
 14  6  1  0  0  0  0
 17 11  1  0  0  0  0
 18 15  1  0  0  0  0
 18 13  2  0  0  0  0
 20 21  1  0  0  0  0
 20 22  1  0  0  0  0
 21 24  1  0  0  0  0
 21  4  1  1  0  0  0
 22 23  1  0  0  0  0
 23 24  1  0  0  0  0
 24 25  1  6  0  0  0
 26 25  1  0  0  0  0
 27 26  2  0  0  0  0
 28 27  1  1  0  0  0
 29 28  1  0  0  0  0
 30 31  1  6  0  0  0
 30 29  1  0  0  0  0
 30 28  1  0  0  0  0
 32 33  1  6  0  0  0
 32 30  1  0  0  0  0
 34 35  1  0  0  0  0
 35 32  1  0  0  0  0
 36 38  1  0  0  0  0
 37 41  1  0  0  0  0
 38 37  1  0  0  0  0
 38 40  2  0  0  0  0
 40 39  1  0  0  0  0
 41 39  1  0  0  0  0
 41 43  1  1  0  0  0
 42 43  1  0  0  0  0
M  END
>  <MODEL>
4

>  <REMARK>
 VINA RESULT:      -3.5      2.688      6.545
  Name = 
  9 active torsions:
  status: ('A' for Active; 'I' for Inactive)
    1  A    between atoms: C_4  and  C_12
    2  A    between atoms: C_7  and  C_20
    3  A    between atoms: C_7  and  O_34
    4  A    between atoms: C_10  and  C_40
    5  A    between atoms: C_12  and  C_19
    6  A    between atoms: C_13  and  C_16
    7  A    between atoms: C_14  and  S_17
    8  A    between atoms: S_17  and  C_39
    9  A    between atoms: C_22  and  C_24
                            x       y       z     vdW  Elec       q    Type
                         _______ _______ _______ _____ _____    ______ ____

>  <TORSDO>
F 9

$$$$
=
 OpenBabel11052411373D

 43 48  0  0  1  0  0  0  0  0999 V2000
  161.9170  210.4060  151.1640 C   0  0  0  0  0  0  0  0  0  0  0  0
  162.8890  207.2960  148.3400 C   0  0  2  0  0  3  0  0  0  0  0  0
  162.4740  206.0630  147.8610 C   0  0  0  0  0  2  0  0  0  0  0  0
  162.0470  210.5190  149.7260 C   0  0  0  0  0  0  0  0  0  0  0  0
  162.0070  205.9860  150.6630 C   0  0  0  0  0  0  0  0  0  0  0  0
  161.7360  210.1990  153.8330 C   0  0  2  0  0  3  0  0  0  0  0  0
  162.3860  206.3010  149.3320 N   0  0  0  0  0  0  0  0  0  0  0  0
  161.4910  204.7920  150.9740 C   0  0  0  0  0  3  0  0  0  0  0  0
  161.9490  209.4410  148.9900 C   0  0  0  0  0  0  0  0  0  0  0  0
  162.0400  207.0210  151.6390 N   0  0  0  0  0  2  0  0  0  0  0  0
  161.8620  208.3910  148.2140 C   0  0  0  0  0  0  0  0  0  0  0  0
  160.9720  204.5470  152.3440 C   0  0  0  0  0  0  0  0  0  0  0  0
  161.1980  207.8340  153.6510 C   0  0  0  0  0  0  0  0  0  0  0  0
  161.8220  210.3290  152.3660 C   0  0  0  0  0  0  0  0  0  0  0  0
  160.9430  205.5010  153.2310 N   0  0  0  0  0  0  0  0  0  0  0  0
  160.9600  208.9740  154.2340 C   0  0  0  0  0  3  0  0  0  0  0  0
  160.8250  208.3800  147.1370 C   0  0  0  0  0  1  0  0  0  0  0  0
  161.4680  206.7980  152.9210 C   0  0  0  0  0  0  0  0  0  0  0  0
  160.4540  203.2640  152.6720 N   0  0  0  0  0  1  0  0  0  0  0  0
  163.3790  212.3490  148.6330 C   0  0  0  0  0  2  0  0  0  0  0  0
  162.0130  211.8750  149.0590 C   0  0  1  0  0  3  0  0  0  0  0  0
  163.3390  212.2110  147.1350 C   0  0  0  0  0  2  0  0  0  0  0  0
  162.0110  212.4060  146.7320 O   0  0  0  0  0  0  0  0  0  0  0  0
  161.2300  211.8370  147.7530 C   0  0  2  0  0  3  0  0  0  0  0  0
  159.6860  212.7820  147.9630 S   0  0  0  0  0  0  0  0  0  0  0  0
  159.9010  213.6980  146.4360 C   0  0  0  0  0  3  0  0  0  0  0  0
  159.2810  213.2870  145.3310 C   0  0  0  0  0  3  0  0  0  0  0  0
  159.4410  214.0360  144.0450 C   0  0  2  0  0  3  0  0  0  0  0  0
  158.5810  213.4650  143.0760 O   0  0  0  0  0  0  0  0  0  0  0  0
  159.9470  213.1810  142.9410 C   0  0  2  0  0  0  0  0  0  0  0  0
  160.2240  211.8370  143.2080 O   0  0  0  0  0  1  0  0  0  0  0  0
  160.5440  213.8200  141.6950 C   0  0  1  0  0  3  0  0  0  0  0  0
  161.9240  213.2410  141.4360 C   0  0  0  0  0  1  0  0  0  0  0  0
  160.4130  212.6550  139.8570 N   0  0  0  0  0  1  0  0  0  0  0  0
  159.7270  213.5610  140.5930 O   0  0  0  0  0  0  0  0  0  0  0  0
  161.1010  211.4530  154.4170 C   0  0  0  0  0  2  0  0  0  0  0  0
  158.4580  211.6040  153.3000 S   0  0  0  0  0  0  0  0  0  0  0  0
  159.6300  211.2910  154.6110 C   0  0  0  0  0  0  0  0  0  0  0  0
  157.7490  210.6700  155.6760 N   0  0  0  0  0  2  0  0  0  0  0  0
  159.1340  210.8280  155.7040 N   0  0  0  0  0  0  0  0  0  0  0  0
  157.1250  211.0160  154.4120 C   0  0  1  0  0  3  0  0  0  0  0  0
  156.4690  213.2970  153.8750 N   0  0  0  0  0  1  0  0  0  0  0  0
  156.1020  212.1150  154.6360 C   0  0  0  0  0  2  0  0  0  0  0  0
  1 14  3  0  0  0  0
  2  3  1  6  0  0  0
  2  7  1  0  0  0  0
  3  7  1  0  0  0  0
  4  1  1  0  0  0  0
  5  8  2  0  0  0  0
  5 10  1  0  0  0  0
  6 16  1  0  0  0  0
  6 36  1  6  0  0  0
  7  5  1  0  0  0  0
  8 12  1  0  0  0  0
  9  4  2  0  0  0  0
 10 18  1  0  0  0  0
 11  2  1  0  0  0  0
 11  9  2  0  0  0  0
 12 19  1  0  0  0  0
 12 15  2  0  0  0  0
 13 16  2  0  0  0  0
 14  6  1  0  0  0  0
 17 11  1  0  0  0  0
 18 15  1  0  0  0  0
 18 13  2  0  0  0  0
 20 21  1  0  0  0  0
 21  4  1  6  0  0  0
 22 20  1  0  0  0  0
 23 22  1  0  0  0  0
 23 24  1  0  0  0  0
 24 25  1  1  0  0  0
 24 21  1  0  0  0  0
 26 25  1  0  0  0  0
 27 26  2  0  0  0  0
 28 27  1  1  0  0  0
 29 28  1  0  0  0  0
 30 29  1  0  0  0  0
 30 31  1  1  0  0  0
 30 28  1  0  0  0  0
 32 33  1  6  0  0  0
 32 30  1  0  0  0  0
 34 35  1  0  0  0  0
 35 32  1  0  0  0  0
 36 38  1  0  0  0  0
 37 41  1  0  0  0  0
 37 38  1  0  0  0  0
 38 40  2  0  0  0  0
 39 40  1  0  0  0  0
 41 43  1  1  0  0  0
 41 39  1  0  0  0  0
 42 43  1  0  0  0  0
M  END
>  <MODEL>
5

>  <REMARK>
 VINA RESULT:      -3.5      2.722      6.316
  Name = 
  9 active torsions:
  status: ('A' for Active; 'I' for Inactive)
    1  A    between atoms: C_4  and  C_12
    2  A    between atoms: C_7  and  C_20
    3  A    between atoms: C_7  and  O_34
    4  A    between atoms: C_10  and  C_40
    5  A    between atoms: C_12  and  C_19
    6  A    between atoms: C_13  and  C_16
    7  A    between atoms: C_14  and  S_17
    8  A    between atoms: S_17  and  C_39
    9  A    between atoms: C_22  and  C_24
                            x       y       z     vdW  Elec       q    Type
                         _______ _______ _______ _____ _____    ______ ____

>  <TORSDO>
F 9

$$$$
=
 OpenBabel11052411373D

 43 48  0  0  1  0  0  0  0  0999 V2000
  161.4220  208.7650  151.1800 C   0  0  0  0  0  0  0  0  0  0  0  0
  160.0880  204.6870  151.5990 C   0  0  2  0  0  3  0  0  0  0  0  0
  160.3750  203.3820  151.2290 C   0  0  0  0  0  2  0  0  0  0  0  0
  161.2580  208.0040  152.4010 C   0  0  0  0  0  0  0  0  0  0  0  0
  160.9190  204.9600  148.9290 C   0  0  0  0  0  0  0  0  0  0  0  0
  161.6660  210.1870  148.9170 C   0  0  2  0  0  3  0  0  0  0  0  0
  160.5290  204.4460  150.1940 N   0  0  0  0  0  0  0  0  0  0  0  0
  161.3350  204.1510  147.9500 C   0  0  0  0  0  3  0  0  0  0  0  0
  161.2360  206.6960  152.3390 C   0  0  0  0  0  0  0  0  0  0  0  0
  161.0090  206.3710  148.7720 N   0  0  0  0  0  2  0  0  0  0  0  0
  161.2040  205.3880  152.3270 C   0  0  0  0  0  0  0  0  0  0  0  0
  161.8710  204.7310  146.6920 C   0  0  0  0  0  0  0  0  0  0  0  0
  161.9830  208.1480  147.6270 C   0  0  0  0  0  0  0  0  0  0  0  0
  161.5470  209.4170  150.1700 C   0  0  0  0  0  0  0  0  0  0  0  0
  162.0130  206.0200  146.5540 N   0  0  0  0  0  0  0  0  0  0  0  0
  162.3410  209.3830  147.8380 C   0  0  0  0  0  3  0  0  0  0  0  0
  162.2020  204.6390  153.1500 C   0  0  0  0  0  1  0  0  0  0  0  0
  161.5980  206.9110  147.5970 C   0  0  0  0  0  0  0  0  0  0  0  0
  162.2820  203.8630  145.6440 N   0  0  0  0  0  1  0  0  0  0  0  0
  162.4230  209.7790  153.7460 C   0  0  0  0  0  2  0  0  0  0  0  0
  161.3930  208.6780  153.7470 C   0  0  1  0  0  3  0  0  0  0  0  0
  161.5880  211.0300  153.8080 C   0  0  0  0  0  2  0  0  0  0  0  0
  160.4170  210.7180  154.5120 O   0  0  0  0  0  0  0  0  0  0  0  0
  160.1100  209.3950  154.1460 C   0  0  2  0  0  3  0  0  0  0  0  0
  159.3540  208.5150  155.5500 S   0  0  0  0  0  0  0  0  0  0  0  0
  158.7930  210.0220  156.3450 C   0  0  0  0  0  3  0  0  0  0  0  0
  157.8000  210.7220  155.8010 C   0  0  0  0  0  3  0  0  0  0  0  0
  157.3120  211.9800  156.4470 C   0  0  2  0  0  3  0  0  0  0  0  0
  156.0010  211.7630  156.9360 O   0  0  0  0  0  0  0  0  0  0  0  0
  156.1120  212.5430  155.7770 C   0  0  2  0  0  0  0  0  0  0  0  0
  155.5980  211.8810  154.6570 O   0  0  0  0  0  1  0  0  0  0  0  0
  155.7110  213.9910  156.0220 C   0  0  1  0  0  3  0  0  0  0  0  0
  154.7670  214.4520  154.9250 C   0  0  0  0  0  1  0  0  0  0  0  0
  153.7440  214.0940  156.9560 N   0  0  0  0  0  1  0  0  0  0  0  0
  155.0650  214.1010  157.2550 O   0  0  0  0  0  0  0  0  0  0  0  0
  162.4290  211.4760  149.1840 C   0  0  0  0  0  2  0  0  0  0  0  0
  160.5040  212.7350  147.4620 S   0  0  0  0  0  0  0  0  0  0  0  0
  162.1350  212.5170  148.1560 C   0  0  0  0  0  0  0  0  0  0  0  0
  162.5450  214.3190  146.8730 N   0  0  0  0  0  2  0  0  0  0  0  0
  163.0200  213.3730  147.7810 N   0  0  0  0  0  0  0  0  0  0  0  0
  161.1360  214.1920  146.5480 C   0  0  1  0  0  3  0  0  0  0  0  0
  160.3230  212.7160  144.7930 N   0  0  0  0  0  1  0  0  0  0  0  0
  160.9790  213.9850  145.0520 C   0  0  0  0  0  2  0  0  0  0  0  0
  1  4  1  0  0  0  0
  2  3  1  1  0  0  0
  2 11  1  0  0  0  0
  5  7  1  0  0  0  0
  6 36  1  1  0  0  0
  6 14  1  0  0  0  0
  7  3  1  0  0  0  0
  7  2  1  0  0  0  0
  8  5  2  0  0  0  0
  9  4  2  0  0  0  0
 10  5  1  0  0  0  0
 11  9  2  0  0  0  0
 11 17  1  0  0  0  0
 12  8  1  0  0  0  0
 13 16  2  0  0  0  0
 14  1  3  0  0  0  0
 15 12  2  0  0  0  0
 15 18  1  0  0  0  0
 16  6  1  0  0  0  0
 18 13  2  0  0  0  0
 18 10  1  0  0  0  0
 19 12  1  0  0  0  0
 20 21  1  0  0  0  0
 20 22  1  0  0  0  0
 21  4  1  6  0  0  0
 21 24  1  0  0  0  0
 22 23  1  0  0  0  0
 24 23  1  0  0  0  0
 24 25  1  1  0  0  0
 25 26  1  0  0  0  0
 27 26  2  0  0  0  0
 28 27  1  6  0  0  0
 28 29  1  0  0  0  0
 30 31  1  6  0  0  0
 30 32  1  0  0  0  0
 30 28  1  0  0  0  0
 30 29  1  0  0  0  0
 32 33  1  6  0  0  0
 32 35  1  0  0  0  0
 34 35  1  0  0  0  0
 37 38  1  0  0  0  0
 38 36  1  0  0  0  0
 39 40  1  0  0  0  0
 40 38  2  0  0  0  0
 41 43  1  6  0  0  0
 41 39  1  0  0  0  0
 41 37  1  0  0  0  0
 42 43  1  0  0  0  0
M  END
>  <MODEL>
6

>  <REMARK>
 VINA RESULT:      -3.4      5.176     10.575
  Name = 
  9 active torsions:
  status: ('A' for Active; 'I' for Inactive)
    1  A    between atoms: C_4  and  C_12
    2  A    between atoms: C_7  and  C_20
    3  A    between atoms: C_7  and  O_34
    4  A    between atoms: C_10  and  C_40
    5  A    between atoms: C_12  and  C_19
    6  A    between atoms: C_13  and  C_16
    7  A    between atoms: C_14  and  S_17
    8  A    between atoms: S_17  and  C_39
    9  A    between atoms: C_22  and  C_24
                            x       y       z     vdW  Elec       q    Type
                         _______ _______ _______ _____ _____    ______ ____

>  <TORSDO>
F 9

$$$$
=
 OpenBabel11052411373D

 43 48  0  0  1  0  0  0  0  0999 V2000
  160.8450  211.9530  149.7190 C   0  0  0  0  0  0  0  0  0  0  0  0
  162.9410  208.1920  149.4940 C   0  0  2  0  0  3  0  0  0  0  0  0
  162.8580  206.8530  149.8440 C   0  0  0  0  0  2  0  0  0  0  0  0
  161.2790  211.2460  148.5320 C   0  0  0  0  0  0  0  0  0  0  0  0
  161.7840  208.2830  152.0530 C   0  0  0  0  0  0  0  0  0  0  0  0
  160.0970  213.2840  151.9260 C   0  0  2  0  0  3  0  0  0  0  0  0
  162.3990  207.8610  150.8450 N   0  0  0  0  0  0  0  0  0  0  0  0
  161.4170  207.4020  152.9900 C   0  0  0  0  0  2  0  0  0  0  0  0
  161.5330  209.9640  148.6100 C   0  0  0  0  0  0  0  0  0  0  0  0
  161.4200  209.6520  152.1840 N   0  0  0  0  0  0  0  0  0  0  0  0
  161.8020  208.6840  148.6410 C   0  0  0  0  0  0  0  0  0  0  0  0
  160.6480  207.8630  154.1740 C   0  0  0  0  0  0  0  0  0  0  0  0
  160.0180  211.2110  153.1950 C   0  0  0  0  0  0  0  0  0  0  0  0
  160.4920  212.5620  150.7020 C   0  0  0  0  0  0  0  0  0  0  0  0
  160.2590  209.1020  154.2810 N   0  0  0  0  0  0  0  0  0  0  0  0
  159.4660  212.3610  152.9330 C   0  0  0  0  0  3  0  0  0  0  0  0
  161.0550  207.7730  147.7200 C   0  0  0  0  0  1  0  0  0  0  0  0
  160.6160  210.0640  153.2810 C   0  0  0  0  0  0  0  0  0  0  0  0
  160.2900  206.9240  155.1790 N   0  0  0  0  0  1  0  0  0  0  0  0
  159.7540  212.2510  146.8060 C   0  0  0  0  0  2  0  0  0  0  0  0
  161.1720  211.8970  147.1720 C   0  0  1  0  0  3  0  0  0  0  0  0
  159.7320  213.7520  146.9270 C   0  0  0  0  0  2  0  0  0  0  0  0
  161.0190  214.2150  146.6220 O   0  0  0  0  0  0  0  0  0  0  0  0
  161.8920  213.2390  147.1350 C   0  0  2  0  0  3  0  0  0  0  0  0
  163.3630  213.0910  146.0710 S   0  0  0  0  0  0  0  0  0  0  0  0
  162.5190  213.7160  144.6170 C   0  0  0  0  0  3  0  0  0  0  0  0
  162.1710  212.8740  143.6460 C   0  0  0  0  0  3  0  0  0  0  0  0
  161.4620  213.3710  142.4250 C   0  0  2  0  0  3  0  0  0  0  0  0
  160.1100  213.6280  142.7560 O   0  0  0  0  0  0  0  0  0  0  0  0
  160.3570  212.4760  141.9980 C   0  0  2  0  0  0  0  0  0  0  0  0
  160.1150  211.3110  142.7330 O   0  0  0  0  0  1  0  0  0  0  0  0
  159.7890  212.5850  140.5890 C   0  0  1  0  0  3  0  0  0  0  0  0
  160.0380  211.2900  139.8360 C   0  0  0  0  0  1  0  0  0  0  0  0
  157.9080  212.2100  139.5510 N   0  0  0  0  0  1  0  0  0  0  0  0
  158.4130  212.8190  140.6510 O   0  0  0  0  0  0  0  0  0  0  0  0
  159.1460  214.4150  151.5620 C   0  0  0  0  0  2  0  0  0  0  0  0
  157.7600  214.4530  154.0800 S   0  0  0  0  0  0  0  0  0  0  0  0
  157.8530  214.3110  152.3010 C   0  0  0  0  0  0  0  0  0  0  0  0
  155.6190  214.2020  152.5390 N   0  0  0  0  0  2  0  0  0  0  0  0
  156.7250  214.2060  151.6910 N   0  0  0  0  0  0  0  0  0  0  0  0
  155.9350  214.3570  153.9470 C   0  0  1  0  0  3  0  0  0  0  0  0
  156.3360  212.0450  154.5890 N   0  0  0  0  0  1  0  0  0  0  0  0
  155.4130  213.1580  154.7180 C   0  0  0  0  0  2  0  0  0  0  0  0
  1 14  3  0  0  0  0
  2  3  1  6  0  0  0
  2  7  1  0  0  0  0
  3  7  1  0  0  0  0
  4  9  2  0  0  0  0
  4  1  1  0  0  0  0
  5 10  2  0  0  0  0
  5  8  1  0  0  0  0
  6 36  1  6  0  0  0
  6 16  1  0  0  0  0
  7  5  1  0  0  0  0
  8 12  1  0  0  0  0
  9 11  2  0  0  0  0
 10 18  1  0  0  0  0
 11  2  1  0  0  0  0
 12 15  2  0  0  0  0
 12 19  1  0  0  0  0
 13 18  2  0  0  0  0
 14  6  1  0  0  0  0
 16 13  2  0  0  0  0
 17 11  1  0  0  0  0
 18 15  1  0  0  0  0
 20 22  1  0  0  0  0
 20 21  1  0  0  0  0
 21  4  1  1  0  0  0
 23 22  1  0  0  0  0
 23 24  1  0  0  0  0
 24 25  1  6  0  0  0
 24 21  1  0  0  0  0
 26 25  1  0  0  0  0
 27 26  2  0  0  0  0
 28 29  1  0  0  0  0
 28 27  1  1  0  0  0
 30 28  1  0  0  0  0
 30 31  1  1  0  0  0
 30 29  1  0  0  0  0
 32 33  1  6  0  0  0
 32 35  1  0  0  0  0
 32 30  1  0  0  0  0
 34 35  1  0  0  0  0
 36 38  1  0  0  0  0
 38 37  1  0  0  0  0
 39 41  1  0  0  0  0
 40 38  2  0  0  0  0
 40 39  1  0  0  0  0
 41 37  1  0  0  0  0
 41 43  1  1  0  0  0
 42 43  1  0  0  0  0
M  END
>  <MODEL>
7

>  <REMARK>
 VINA RESULT:      -3.2      2.644      6.292
  Name = 
  9 active torsions:
  status: ('A' for Active; 'I' for Inactive)
    1  A    between atoms: C_4  and  C_12
    2  A    between atoms: C_7  and  C_20
    3  A    between atoms: C_7  and  O_34
    4  A    between atoms: C_10  and  C_40
    5  A    between atoms: C_12  and  C_19
    6  A    between atoms: C_13  and  C_16
    7  A    between atoms: C_14  and  S_17
    8  A    between atoms: S_17  and  C_39
    9  A    between atoms: C_22  and  C_24
                            x       y       z     vdW  Elec       q    Type
                         _______ _______ _______ _____ _____    ______ ____

>  <TORSDO>
F 9

$$$$
=
 OpenBabel11052411373D

 43 48  0  0  1  0  0  0  0  0999 V2000
  161.9920  205.9940  147.9750 C   0  0  0  0  0  0  0  0  0  0  0  0
  161.9480  202.5360  150.5510 C   0  0  2  0  0  3  0  0  0  0  0  0
  161.2960  201.9690  151.6340 C   0  0  0  0  0  2  0  0  0  0  0  0
  161.8160  204.6070  147.5990 C   0  0  0  0  0  0  0  0  0  0  0  0
  161.4520  204.7470  152.2120 C   0  0  0  0  0  0  0  0  0  0  0  0
  162.3810  208.5560  148.6750 C   0  0  2  0  0  3  0  0  0  0  0  0
  161.5630  203.4370  151.6770 N   0  0  0  0  0  0  0  0  0  0  0  0
  160.8800  204.9650  153.4010 C   0  0  0  0  0  2  0  0  0  0  0  0
  161.4330  203.7440  148.5060 C   0  0  0  0  0  0  0  0  0  0  0  0
  161.8200  205.8470  151.3880 N   0  0  0  0  0  0  0  0  0  0  0  0
  161.0540  202.8450  149.3780 C   0  0  0  0  0  0  0  0  0  0  0  0
  160.6510  206.3580  153.8640 C   0  0  0  0  0  0  0  0  0  0  0  0
  161.5420  208.1090  150.9140 C   0  0  0  0  0  0  0  0  0  0  0  0
  162.1560  207.1530  148.2730 C   0  0  0  0  0  0  0  0  0  0  0  0
  160.9300  207.3750  153.0980 N   0  0  0  0  0  0  0  0  0  0  0  0
  161.5730  208.9160  149.8930 C   0  0  0  0  0  3  0  0  0  0  0  0
  159.8120  202.0590  149.1050 C   0  0  0  0  0  1  0  0  0  0  0  0
  161.5220  207.1720  151.8090 C   0  0  0  0  0  0  0  0  0  0  0  0
  160.0710  206.5780  155.1430 N   0  0  0  0  0  1  0  0  0  0  0  0
  160.8000  203.1120  145.8530 C   0  0  0  0  0  2  0  0  0  0  0  0
  161.7950  204.2060  146.1420 C   0  0  1  0  0  3  0  0  0  0  0  0
  159.7040  203.8310  145.1120 C   0  0  0  0  0  2  0  0  0  0  0  0
  160.2970  204.8920  144.4150 O   0  0  0  0  0  0  0  0  0  0  0  0
  161.3290  205.3510  145.2520 C   0  0  2  0  0  3  0  0  0  0  0  0
  162.7370  205.9330  144.2530 S   0  0  0  0  0  0  0  0  0  0  0  0
  161.7860  205.9890  142.7330 C   0  0  0  0  0  3  0  0  0  0  0  0
  162.3520  206.4550  141.6210 C   0  0  0  0  0  3  0  0  0  0  0  0
  161.5800  206.5090  140.3400 C   0  0  2  0  0  3  0  0  0  0  0  0
  162.4810  206.7580  139.2760 O   0  0  0  0  0  0  0  0  0  0  0  0
  161.6710  207.8310  139.6700 C   0  0  2  0  0  0  0  0  0  0  0  0
  162.4140  208.8440  140.2830 O   0  0  0  0  0  1  0  0  0  0  0  0
  160.6620  208.2110  138.5940 C   0  0  1  0  0  3  0  0  0  0  0  0
  160.1590  209.6230  138.8400 C   0  0  0  0  0  1  0  0  0  0  0  0
  161.5100  209.4480  137.0110 N   0  0  0  0  0  1  0  0  0  0  0  0
  161.2680  208.1550  137.3370 O   0  0  0  0  0  0  0  0  0  0  0  0
  162.0410  209.4770  147.5120 C   0  0  0  0  0  2  0  0  0  0  0  0
  160.5480  211.9000  147.1170 S   0  0  0  0  0  0  0  0  0  0  0  0
  161.7190  210.8580  147.9750 C   0  0  0  0  0  0  0  0  0  0  0  0
  161.7240  212.6130  149.3830 N   0  0  0  0  0  2  0  0  0  0  0  0
  162.1970  211.3390  149.0690 N   0  0  0  0  0  0  0  0  0  0  0  0
  160.7520  213.1460  148.4450 C   0  0  1  0  0  3  0  0  0  0  0  0
  162.7170  214.4080  147.7610 N   0  0  0  0  0  1  0  0  0  0  0  0
  161.2690  214.4510  147.8680 C   0  0  0  0  0  2  0  0  0  0  0  0
  1 14  3  0  0  0  0
  2  3  1  1  0  0  0
  2  7  1  0  0  0  0
  3  7  1  0  0  0  0
  4  1  1  0  0  0  0
  4  9  2  0  0  0  0
  5  8  1  0  0  0  0
  6 36  1  6  0  0  0
  6 16  1  0  0  0  0
  7  5  1  0  0  0  0
  8 12  1  0  0  0  0
  9 11  2  0  0  0  0
 10 18  1  0  0  0  0
 10  5  2  0  0  0  0
 11  2  1  0  0  0  0
 12 19  1  0  0  0  0
 13 18  2  0  0  0  0
 14  6  1  0  0  0  0
 15 12  2  0  0  0  0
 16 13  2  0  0  0  0
 17 11  1  0  0  0  0
 18 15  1  0  0  0  0
 20 21  1  0  0  0  0
 21  4  1  1  0  0  0
 22 20  1  0  0  0  0
 23 22  1  0  0  0  0
 23 24  1  0  0  0  0
 24 25  1  6  0  0  0
 24 21  1  0  0  0  0
 26 25  1  0  0  0  0
 27 26  2  0  0  0  0
 28 27  1  1  0  0  0
 29 30  1  0  0  0  0
 29 28  1  0  0  0  0
 30 31  1  1  0  0  0
 30 28  1  0  0  0  0
 32 33  1  1  0  0  0
 32 30  1  0  0  0  0
 34 35  1  0  0  0  0
 35 32  1  0  0  0  0
 36 38  1  0  0  0  0
 37 38  1  0  0  0  0
 37 41  1  0  0  0  0
 38 40  2  0  0  0  0
 40 39  1  0  0  0  0
 41 43  1  6  0  0  0
 41 39  1  0  0  0  0
 42 43  1  0  0  0  0
M  END
>  <MODEL>
8

>  <REMARK>
 VINA RESULT:      -2.9      3.412      7.223
  Name = 
  9 active torsions:
  status: ('A' for Active; 'I' for Inactive)
    1  A    between atoms: C_4  and  C_12
    2  A    between atoms: C_7  and  C_20
    3  A    between atoms: C_7  and  O_34
    4  A    between atoms: C_10  and  C_40
    5  A    between atoms: C_12  and  C_19
    6  A    between atoms: C_13  and  C_16
    7  A    between atoms: C_14  and  S_17
    8  A    between atoms: S_17  and  C_39
    9  A    between atoms: C_22  and  C_24
                            x       y       z     vdW  Elec       q    Type
                         _______ _______ _______ _____ _____    ______ ____

>  <TORSDO>
F 9

$$$$
=
 OpenBabel11052411373D

 43 48  0  0  1  0  0  0  0  0999 V2000
  160.2140  211.1990  152.9090 C   0  0  0  0  0  0  0  0  0  0  0  0
  161.4870  208.6450  149.6770 C   0  0  2  0  0  3  0  0  0  0  0  0
  162.3110  208.5920  148.5640 C   0  0  0  0  0  2  0  0  0  0  0  0
  160.8510  209.9020  152.9980 C   0  0  0  0  0  0  0  0  0  0  0  0
  161.2170  211.2150  148.5740 C   0  0  0  0  0  0  0  0  0  0  0  0
  158.9780  213.5750  152.7330 C   0  0  2  0  0  3  0  0  0  0  0  0
  161.5560  209.8560  148.8080 N   0  0  0  0  0  0  0  0  0  0  0  0
  161.6980  211.8780  147.5170 C   0  0  0  0  0  3  0  0  0  0  0  0
  161.5230  209.4490  151.9700 C   0  0  0  0  0  0  0  0  0  0  0  0
  160.4800  211.9090  149.5740 N   0  0  0  0  0  2  0  0  0  0  0  0
  162.2010  208.9540  150.9670 C   0  0  0  0  0  0  0  0  0  0  0  0
  161.4400  213.3350  147.3820 C   0  0  0  0  0  0  0  0  0  0  0  0
  159.9540  213.9610  150.5380 C   0  0  0  0  0  0  0  0  0  0  0  0
  159.6650  212.2740  152.8480 C   0  0  0  0  0  0  0  0  0  0  0  0
  160.8160  213.9960  148.3160 N   0  0  0  0  0  0  0  0  0  0  0  0
  159.6300  214.4530  151.7000 C   0  0  0  0  0  3  0  0  0  0  0  0
  163.6340  208.5840  151.1830 C   0  0  0  0  0  1  0  0  0  0  0  0
  160.3100  213.3160  149.4720 C   0  0  0  0  0  0  0  0  0  0  0  0
  161.9290  214.0240  146.2390 N   0  0  0  0  0  1  0  0  0  0  0  0
  160.5500  210.0710  155.4880 C   0  0  0  0  0  2  0  0  0  0  0  0
  160.9860  209.2060  154.3330 C   0  0  1  0  0  3  0  0  0  0  0  0
  159.2430  209.4510  155.9070 C   0  0  0  0  0  2  0  0  0  0  0  0
  159.3180  208.0820  155.6190 O   0  0  0  0  0  0  0  0  0  0  0  0
  160.0650  207.9960  154.4300 C   0  0  2  0  0  3  0  0  0  0  0  0
  161.0770  206.4820  154.4330 S   0  0  0  0  0  0  0  0  0  0  0  0
  160.8360  206.1770  152.6810 C   0  0  0  0  0  3  0  0  0  0  0  0
  161.5670  205.2470  152.0690 C   0  0  0  0  0  3  0  0  0  0  0  0
  161.3810  204.9720  150.6100 C   0  0  2  0  0  3  0  0  0  0  0  0
  160.0810  204.4500  150.4070 O   0  0  0  0  0  0  0  0  0  0  0  0
  161.1380  203.5350  150.3240 C   0  0  2  0  0  0  0  0  0  0  0  0
  161.1270  202.6310  151.3910 O   0  0  0  0  0  1  0  0  0  0  0  0
  161.3210  202.9990  148.9100 C   0  0  1  0  0  3  0  0  0  0  0  0
  160.4960  201.7360  148.7320 C   0  0  0  0  0  1  0  0  0  0  0  0
  161.9440  204.1080  147.1380 N   0  0  0  0  0  1  0  0  0  0  0  0
  160.8970  203.9550  147.9840 O   0  0  0  0  0  0  0  0  0  0  0  0
  158.9610  214.2610  154.0910 C   0  0  0  0  0  2  0  0  0  0  0  0
  157.8970  213.3110  156.5850 S   0  0  0  0  0  0  0  0  0  0  0  0
  157.7650  213.8710  154.8940 C   0  0  0  0  0  0  0  0  0  0  0  0
  155.5740  213.6630  155.3590 N   0  0  0  0  0  2  0  0  0  0  0  0
  156.5670  214.0030  154.4420 N   0  0  0  0  0  0  0  0  0  0  0  0
  156.0670  213.2620  156.6650 C   0  0  1  0  0  3  0  0  0  0  0  0
  155.6340  211.0390  155.7740 N   0  0  0  0  0  1  0  0  0  0  0  0
  155.5900  211.8550  156.9750 C   0  0  0  0  0  2  0  0  0  0  0  0
  1  4  1  0  0  0  0
  2  3  1  6  0  0  0
  2 11  1  0  0  0  0
  3  7  1  0  0  0  0
  5  7  1  0  0  0  0
  5 10  1  0  0  0  0
  6 14  1  0  0  0  0
  6 36  1  1  0  0  0
  7  2  1  0  0  0  0
  8  5  2  0  0  0  0
  9  4  2  0  0  0  0
 11 17  1  0  0  0  0
 11  9  2  0  0  0  0
 12  8  1  0  0  0  0
 12 15  2  0  0  0  0
 13 16  2  0  0  0  0
 14  1  3  0  0  0  0
 15 18  1  0  0  0  0
 16  6  1  0  0  0  0
 18 10  1  0  0  0  0
 18 13  2  0  0  0  0
 19 12  1  0  0  0  0
 20 22  1  0  0  0  0
 21  4  1  6  0  0  0
 21 24  1  0  0  0  0
 21 20  1  0  0  0  0
 23 22  1  0  0  0  0
 24 25  1  1  0  0  0
 24 23  1  0  0  0  0
 26 25  1  0  0  0  0
 27 26  2  0  0  0  0
 28 27  1  1  0  0  0
 29 28  1  0  0  0  0
 30 29  1  0  0  0  0
 30 28  1  0  0  0  0
 30 31  1  1  0  0  0
 32 33  1  1  0  0  0
 32 30  1  0  0  0  0
 34 35  1  0  0  0  0
 35 32  1  0  0  0  0
 36 38  1  0  0  0  0
 37 41  1  0  0  0  0
 38 37  1  0  0  0  0
 39 41  1  0  0  0  0
 40 38  2  0  0  0  0
 40 39  1  0  0  0  0
 41 43  1  6  0  0  0
 42 43  1  0  0  0  0
M  END
>  <MODEL>
9

>  <REMARK>
 VINA RESULT:      -2.7      5.169     10.205
  Name = 
  9 active torsions:
  status: ('A' for Active; 'I' for Inactive)
    1  A    between atoms: C_4  and  C_12
    2  A    between atoms: C_7  and  C_20
    3  A    between atoms: C_7  and  O_34
    4  A    between atoms: C_10  and  C_40
    5  A    between atoms: C_12  and  C_19
    6  A    between atoms: C_13  and  C_16
    7  A    between atoms: C_14  and  S_17
    8  A    between atoms: S_17  and  C_39
    9  A    between atoms: C_22  and  C_24
                            x       y       z     vdW  Elec       q    Type
                         _______ _______ _______ _____ _____    ______ ____

>  <TORSDO>
F 9

$$$$
