=
 OpenBabel11052411463D

 40 45  0  0  1  0  0  0  0  0999 V2000
  161.1070  205.5070  150.0950 N   0  0  0  0  0  0  0  0  0  0  0  0
  161.6560  204.3450  152.2230 C   0  0  0  0  0  3  0  0  0  0  0  0
  162.6650  207.6220  152.5150 C   0  0  0  0  0  2  0  0  0  0  0  0
  161.3570  206.7950  152.6400 C   0  0  2  0  0  3  0  0  0  0  0  0
  162.1100  209.5190  149.8800 C   0  0  2  0  0  3  0  0  0  0  0  0
  159.4130  207.2110  154.2440 N   0  0  0  0  0  0  0  0  0  0  0  0
  162.7300  207.5960  148.1290 O   0  0  0  0  0  1  0  0  0  0  0  0
  160.8260  205.5050  148.7580 C   0  0  0  0  0  0  0  0  0  0  0  0
  159.6200  206.7550  146.9580 C   0  0  0  0  0  1  0  0  0  0  0  0
  163.1470  210.1020  153.1470 C   0  0  0  0  0  2  0  0  0  0  0  0
  160.7080  209.5670  154.8850 N   0  0  0  0  0  0  0  0  0  0  0  0
  161.3780  203.1390  150.0930 C   0  0  0  0  0  3  0  0  0  0  0  0
  161.3720  207.9200  148.2920 C   0  0  2  0  0  3  0  0  0  0  0  0
  161.1080  208.5040  149.6050 N   0  0  0  0  0  2  0  0  0  0  0  0
  160.6160  207.5240  153.7010 C   0  0  0  0  0  0  0  0  0  0  0  0
  161.7500  210.2540  151.1020 N   0  0  2  0  0  0  0  0  0  0  0  0
  162.4670  208.8210  153.3380 N   0  0  0  0  0  0  0  0  0  0  0  0
  161.3750  204.3590  150.7760 C   0  0  0  0  0  0  0  0  0  0  0  0
  161.5270  210.8490  149.7500 C   0  0  1  0  0  3  0  0  0  0  0  0
  163.0300  210.6100  151.7100 C   0  0  0  0  0  2  0  0  0  0  0  0
  160.8310  204.2930  148.0530 C   0  0  0  0  0  3  0  0  0  0  0  0
  161.6490  205.3900  153.0520 C   0  0  0  0  0  3  0  0  0  0  0  0
  158.9270  210.1820  156.3910 N   0  0  0  0  0  1  0  0  0  0  0  0
  160.5550  206.7340  148.0700 N   0  0  0  0  0  0  0  0  0  0  0  0
  161.1090  203.0950  148.7180 C   0  0  0  0  0  0  0  0  0  0  0  0
  161.2450  208.6810  154.0150 C   0  0  0  0  0  0  0  0  0  0  0  0
  158.8520  208.0690  155.1460 C   0  0  0  0  0  3  0  0  0  0  0  0
  159.5120  209.2740  155.4680 C   0  0  0  0  0  0  0  0  0  0  0  0
  160.5180  201.7390  146.6810 C   0  0  0  0  0  2  0  0  0  0  0  0
  161.1400  200.5700  145.9190 C   0  0  0  0  0  2  0  0  0  0  0  0
  161.0430  199.3970  146.6930 O   0  0  0  0  0  0  0  0  0  0  0  0
  161.1430  201.8440  148.0050 N   0  0  0  0  0  0  0  0  0  0  0  0
  161.9580  199.5500  147.7510 C   0  0  0  0  0  2  0  0  0  0  0  0
  161.4410  200.6050  148.7290 C   0  0  0  0  0  2  0  0  0  0  0  0
  162.5990  211.8480  149.2860 C   0  0  0  0  0  2  0  0  0  0  0  0
  161.9660  212.9330  148.4260 C   0  0  0  0  0  2  0  0  0  0  0  0
  160.9090  212.3430  147.5010 C   0  0  0  0  0  2  0  0  0  0  0  0
  161.1230  212.8430  146.0890 C   0  0  0  0  0  2  0  0  0  0  0  0
  162.3500  213.4960  146.0130 O   0  0  0  0  0  0  0  0  0  0  0  0
  162.7570  213.3340  144.6820 C   0  0  0  0  0  1  0  0  0  0  0  0
  1 18  1  0  0  0  0
  2 22  2  0  0  0  0
  3 17  1  0  0  0  0
  4  3  1  1  0  0  0
  4 22  1  0  0  0  0
  4 15  1  0  0  0  0
  5 14  1  6  0  0  0
  5 16  1  0  0  0  0
  6 27  1  0  0  0  0
  8  1  2  0  0  0  0
  9 24  1  0  0  0  0
 10 17  1  0  0  0  0
 11 28  1  0  0  0  0
 12 18  2  0  0  0  0
 13  7  1  1  0  0  0
 13 14  1  0  0  0  0
 15 26  1  0  0  0  0
 15  6  2  0  0  0  0
 16 20  1  1  0  0  0
 17 26  1  0  0  0  0
 18  2  1  0  0  0  0
 19 35  1  1  0  0  0
 19  5  1  0  0  0  0
 19 16  1  0  0  0  0
 20 10  1  0  0  0  0
 21 25  2  0  0  0  0
 21  8  1  0  0  0  0
 24 13  1  0  0  0  0
 24  8  1  0  0  0  0
 25 12  1  0  0  0  0
 26 11  2  0  0  0  0
 27 28  2  0  0  0  0
 28 23  1  0  0  0  0
 29 32  1  0  0  0  0
 30 29  1  0  0  0  0
 30 31  1  0  0  0  0
 31 33  1  0  0  0  0
 32 25  1  0  0  0  0
 32 34  1  0  0  0  0
 33 34  1  0  0  0  0
 36 35  1  0  0  0  0
 37 36  1  0  0  0  0
 38 37  1  0  0  0  0
 39 38  1  0  0  0  0
 40 39  1  0  0  0  0
M  END
>  <MODEL>
1

>  <REMARK>
 VINA RESULT:       1.5      0.000      0.000
  Name = 
  6 active torsions:
  status: ('A' for Active; 'I' for Inactive)
    1  A    between atoms: C_4  and  C_8
    2  A    between atoms: C_4  and  C_30
    3  A    between atoms: C_8  and  C_25
    4  A    between atoms: C_24  and  C_30
    5  A    between atoms: C_25  and  O_27
    6  A    between atoms: N_32  and  C_35
                            x       y       z     vdW  Elec       q    Type
                         _______ _______ _______ _____ _____    ______ ____

>  <TORSDO>
F 6

$$$$
=
 OpenBabel11052411463D

 40 45  0  0  1  0  0  0  0  0999 V2000
  161.1950  204.8590  149.4880 N   0  0  0  0  0  0  0  0  0  0  0  0
  159.7900  203.0550  150.4640 C   0  0  0  0  0  3  0  0  0  0  0  0
  159.3910  202.9760  147.0470 C   0  0  0  0  0  2  0  0  0  0  0  0
  160.4080  202.4760  148.1090 C   0  0  2  0  0  3  0  0  0  0  0  0
  161.1030  205.2320  145.3650 C   0  0  2  0  0  3  0  0  0  0  0  0
  161.7890  200.3280  148.0350 N   0  0  0  0  0  0  0  0  0  0  0  0
  160.7090  207.1570  147.1770 O   0  0  0  0  0  1  0  0  0  0  0  0
  161.8780  206.0390  149.5800 C   0  0  0  0  0  0  0  0  0  0  0  0
  163.8070  207.3210  148.6350 C   0  0  0  0  0  1  0  0  0  0  0  0
  159.2210  202.4380  144.5050 C   0  0  0  0  0  2  0  0  0  0  0  0
  160.8360  200.0410  145.4560 N   0  0  0  0  0  0  0  0  0  0  0  0
  160.4890  205.0320  151.7570 C   0  0  0  0  0  3  0  0  0  0  0  0
  161.9820  206.5640  147.1180 C   0  0  2  0  0  3  0  0  0  0  0  0
  161.9260  205.2140  146.5620 N   0  0  0  0  0  2  0  0  0  0  0  0
  160.9020  201.2100  147.5090 C   0  0  0  0  0  0  0  0  0  0  0  0
  161.1930  203.9330  144.6810 N   0  0  2  0  0  0  0  0  0  0  0  0
  159.5460  202.0890  145.8880 N   0  0  0  0  0  0  0  0  0  0  0  0
  160.5110  204.3390  150.5440 C   0  0  0  0  0  0  0  0  0  0  0  0
  161.9410  205.1230  144.1770 C   0  0  1  0  0  3  0  0  0  0  0  0
  159.8800  203.7460  144.0670 C   0  0  0  0  0  2  0  0  0  0  0  0
  161.8630  206.7530  150.7870 C   0  0  0  0  0  3  0  0  0  0  0  0
  159.7370  202.2280  149.4180 C   0  0  0  0  0  3  0  0  0  0  0  0
  162.1340  198.0310  145.1580 N   0  0  0  0  0  1  0  0  0  0  0  0
  162.5830  206.5610  148.4460 N   0  0  0  0  0  0  0  0  0  0  0  0
  161.1640  206.2530  151.8890 C   0  0  0  0  0  0  0  0  0  0  0  0
  160.4410  201.0680  146.2440 C   0  0  0  0  0  0  0  0  0  0  0  0
  162.1900  199.2640  147.2790 C   0  0  0  0  0  3  0  0  0  0  0  0
  161.7080  199.1230  145.9600 C   0  0  0  0  0  0  0  0  0  0  0  0
  161.4450  208.4160  153.1460 C   0  0  0  0  0  2  0  0  0  0  0  0
  160.8080  209.0670  154.3730 C   0  0  0  0  0  2  0  0  0  0  0  0
  161.2050  208.3730  155.5340 O   0  0  0  0  0  0  0  0  0  0  0  0
  161.1170  206.9860  153.1290 N   0  0  0  0  0  0  0  0  0  0  0  0
  160.5310  207.1380  155.5000 C   0  0  0  0  0  2  0  0  0  0  0  0
  161.1270  206.2580  154.4010 C   0  0  0  0  0  2  0  0  0  0  0  0
  161.2840  205.8640  143.0020 C   0  0  0  0  0  2  0  0  0  0  0  0
  162.3090  206.1260  141.9080 C   0  0  0  0  0  2  0  0  0  0  0  0
  161.7030  206.9580  140.7850 C   0  0  0  0  0  2  0  0  0  0  0  0
  162.3410  206.5850  139.4650 C   0  0  0  0  0  2  0  0  0  0  0  0
  161.7230  207.2930  138.4380 O   0  0  0  0  0  0  0  0  0  0  0  0
  161.0890  208.3660  139.0790 C   0  0  0  0  0  1  0  0  0  0  0  0
  1  8  2  0  0  0  0
  1 18  1  0  0  0  0
  2 18  1  0  0  0  0
  4  3  1  6  0  0  0
  4 22  1  0  0  0  0
  5 14  1  1  0  0  0
  8 21  1  0  0  0  0
 10 17  1  0  0  0  0
 11 28  2  0  0  0  0
 11 26  1  0  0  0  0
 12 25  1  0  0  0  0
 13  7  1  1  0  0  0
 13 24  1  0  0  0  0
 14 13  1  0  0  0  0
 15  6  1  0  0  0  0
 15  4  1  0  0  0  0
 16 20  1  6  0  0  0
 16  5  1  0  0  0  0
 17 26  1  0  0  0  0
 17  3  1  0  0  0  0
 18 12  2  0  0  0  0
 19 35  1  6  0  0  0
 19 16  1  0  0  0  0
 19  5  1  0  0  0  0
 20 10  1  0  0  0  0
 21 25  2  0  0  0  0
 22  2  2  0  0  0  0
 23 28  1  0  0  0  0
 24  9  1  0  0  0  0
 24  8  1  0  0  0  0
 25 32  1  0  0  0  0
 26 15  2  0  0  0  0
 27  6  2  0  0  0  0
 28 27  1  0  0  0  0
 29 30  1  0  0  0  0
 30 31  1  0  0  0  0
 32 29  1  0  0  0  0
 32 34  1  0  0  0  0
 33 31  1  0  0  0  0
 34 33  1  0  0  0  0
 36 35  1  0  0  0  0
 37 36  1  0  0  0  0
 38 37  1  0  0  0  0
 39 40  1  0  0  0  0
 39 38  1  0  0  0  0
M  END
>  <MODEL>
2

>  <REMARK>
 VINA RESULT:       2.4      3.646      8.667
  Name = 
  6 active torsions:
  status: ('A' for Active; 'I' for Inactive)
    1  A    between atoms: C_4  and  C_8
    2  A    between atoms: C_4  and  C_30
    3  A    between atoms: C_8  and  C_25
    4  A    between atoms: C_24  and  C_30
    5  A    between atoms: C_25  and  O_27
    6  A    between atoms: N_32  and  C_35
                            x       y       z     vdW  Elec       q    Type
                         _______ _______ _______ _____ _____    ______ ____

>  <TORSDO>
F 6

$$$$
=
 OpenBabel11052411463D

 40 45  0  0  1  0  0  0  0  0999 V2000
  160.9800  206.4700  150.1040 N   0  0  0  0  0  0  0  0  0  0  0  0
  161.1090  206.0860  152.5570 C   0  0  0  0  0  3  0  0  0  0  0  0
  162.3330  209.2370  151.9120 C   0  0  0  0  0  2  0  0  0  0  0  0
  160.9570  208.5390  152.0830 C   0  0  2  0  0  3  0  0  0  0  0  0
  162.3330  210.1390  148.7440 C   0  0  2  0  0  3  0  0  0  0  0  0
  158.8380  209.5310  153.1100 N   0  0  0  0  0  0  0  0  0  0  0  0
  163.0430  207.7180  147.8590 O   0  0  0  0  0  1  0  0  0  0  0  0
  160.8990  206.0210  148.8160 C   0  0  0  0  0  0  0  0  0  0  0  0
  160.0810  206.6180  146.5300 C   0  0  0  0  0  1  0  0  0  0  0  0
  162.9210  211.7690  151.7580 C   0  0  0  0  0  2  0  0  0  0  0  0
  160.2160  211.9270  153.1420 N   0  0  0  0  0  0  0  0  0  0  0  0
  161.0490  204.2360  150.9320 C   0  0  0  0  0  3  0  0  0  0  0  0
  161.7080  208.1170  147.6750 C   0  0  2  0  0  3  0  0  0  0  0  0
  161.3010  209.1200  148.6580 N   0  0  0  0  0  2  0  0  0  0  0  0
  160.1300  209.6060  152.7040 C   0  0  0  0  0  0  0  0  0  0  0  0
  161.8590  211.2560  149.5750 N   0  0  2  0  0  0  0  0  0  0  0  0
  162.1170  210.6500  152.2460 N   0  0  0  0  0  0  0  0  0  0  0  0
  161.0470  205.6150  151.1620 C   0  0  0  0  0  0  0  0  0  0  0  0
  161.8890  211.3620  148.0860 C   0  0  1  0  0  3  0  0  0  0  0  0
  163.0610  211.7610  150.2360 C   0  0  0  0  0  2  0  0  0  0  0  0
  160.9080  204.6410  148.5630 C   0  0  0  0  0  3  0  0  0  0  0  0
  161.0660  207.3510  152.9800 C   0  0  0  0  0  3  0  0  0  0  0  0
  158.2900  213.0680  154.0380 N   0  0  0  0  0  1  0  0  0  0  0  0
  160.8370  206.9500  147.7260 N   0  0  0  0  0  0  0  0  0  0  0  0
  160.9840  203.7340  149.6250 C   0  0  0  0  0  0  0  0  0  0  0  0
  160.8010  210.7830  152.7160 C   0  0  0  0  0  0  0  0  0  0  0  0
  158.2230  210.6600  153.5700 C   0  0  0  0  0  3  0  0  0  0  0  0
  158.9260  211.8840  153.5800 C   0  0  0  0  0  0  0  0  0  0  0  0
  160.9660  201.3780  150.5100 C   0  0  0  0  0  2  0  0  0  0  0  0
  160.4610  200.0220  150.0200 C   0  0  0  0  0  2  0  0  0  0  0  0
  161.2600  199.5820  148.9460 O   0  0  0  0  0  0  0  0  0  0  0  0
  161.0180  202.3150  149.3820 N   0  0  0  0  0  0  0  0  0  0  0  0
  160.9340  200.4060  147.8520 C   0  0  0  0  0  2  0  0  0  0  0  0
  161.4850  201.8120  148.0860 C   0  0  0  0  0  2  0  0  0  0  0  0
  163.0970  212.1120  147.5030 C   0  0  0  0  0  2  0  0  0  0  0  0
  162.6360  213.1040  146.4450 C   0  0  0  0  0  2  0  0  0  0  0  0
  161.1360  212.9820  146.2050 C   0  0  0  0  0  2  0  0  0  0  0  0
  160.4250  214.1970  146.7590 C   0  0  0  0  0  2  0  0  0  0  0  0
  159.0550  213.9520  146.7940 O   0  0  0  0  0  0  0  0  0  0  0  0
  158.7570  213.4210  145.5320 C   0  0  0  0  0  1  0  0  0  0  0  0
  1 18  1  0  0  0  0
  2 22  2  0  0  0  0
  3 17  1  0  0  0  0
  4  3  1  1  0  0  0
  4 15  1  0  0  0  0
  4 22  1  0  0  0  0
  5 14  1  6  0  0  0
  5 16  1  0  0  0  0
  6 27  1  0  0  0  0
  8  1  2  0  0  0  0
  9 24  1  0  0  0  0
 10 17  1  0  0  0  0
 11 28  1  0  0  0  0
 12 18  2  0  0  0  0
 13 24  1  0  0  0  0
 13  7  1  1  0  0  0
 13 14  1  0  0  0  0
 15 26  1  0  0  0  0
 15  6  2  0  0  0  0
 16 20  1  1  0  0  0
 17 26  1  0  0  0  0
 18  2  1  0  0  0  0
 19 35  1  1  0  0  0
 19  5  1  0  0  0  0
 19 16  1  0  0  0  0
 20 10  1  0  0  0  0
 21  8  1  0  0  0  0
 21 25  2  0  0  0  0
 24  8  1  0  0  0  0
 25 12  1  0  0  0  0
 26 11  2  0  0  0  0
 27 28  2  0  0  0  0
 28 23  1  0  0  0  0
 30 29  1  0  0  0  0
 31 30  1  0  0  0  0
 32 25  1  0  0  0  0
 32 29  1  0  0  0  0
 33 34  1  0  0  0  0
 33 31  1  0  0  0  0
 34 32  1  0  0  0  0
 36 35  1  0  0  0  0
 37 36  1  0  0  0  0
 37 38  1  0  0  0  0
 38 39  1  0  0  0  0
 40 39  1  0  0  0  0
M  END
>  <MODEL>
3

>  <REMARK>
 VINA RESULT:       4.3      1.771      2.190
  Name = 
  6 active torsions:
  status: ('A' for Active; 'I' for Inactive)
    1  A    between atoms: C_4  and  C_8
    2  A    between atoms: C_4  and  C_30
    3  A    between atoms: C_8  and  C_25
    4  A    between atoms: C_24  and  C_30
    5  A    between atoms: C_25  and  O_27
    6  A    between atoms: N_32  and  C_35
                            x       y       z     vdW  Elec       q    Type
                         _______ _______ _______ _____ _____    ______ ____

>  <TORSDO>
F 6

$$$$
