=
 OpenBabel11052411163D

 27 31  0  0  1  0  0  0  0  0999 V2000
  161.2430  203.3660  151.8530 C   0  0  0  0  0  3  0  0  0  0  0  0
  161.6980  206.0930  147.8050 N   0  0  0  0  0  0  0  0  0  0  0  0
  161.3240  204.5330  149.6480 C   0  0  2  0  0  3  0  0  0  0  0  0
  161.8180  207.4040  148.4370 C   0  0  0  0  0  2  0  0  0  0  0  0
  160.8190  204.5960  151.0940 C   0  0  2  0  0  3  0  0  0  0  0  0
  161.1880  203.0110  147.8260 O   0  0  0  0  0  0  0  0  0  0  0  0
  161.5350  207.0080  150.8540 N   0  0  0  0  0  0  0  0  0  0  0  0
  160.5440  202.0450  149.8820 C   0  0  0  0  0  2  0  0  0  0  0  0
  161.3080  205.8680  151.7110 C   0  0  0  0  0  0  0  0  0  0  0  0
  161.4180  205.9660  152.9640 O   0  0  0  0  0  0  0  0  0  0  0  0
  160.7500  205.7060  148.8430 C   0  0  1  0  0  3  0  0  0  0  0  0
  161.1080  202.1630  151.2750 C   0  0  0  0  0  3  0  0  0  0  0  0
  161.0220  203.1880  149.0220 C   0  0  0  0  0  0  0  0  0  0  0  0
  160.8470  207.0650  149.5530 C   0  0  2  0  0  3  0  0  0  0  0  0
  160.3350  209.7610  152.6540 C   0  0  2  0  0  0  0  0  0  0  0  0
  161.5810  210.5070  152.7060 C   0  0  1  0  0  0  0  0  0  0  0  0
  161.5680  209.1650  151.9810 C   0  0  0  0  0  0  0  0  0  0  0  0
  162.1930  208.2030  151.3100 C   0  0  0  0  0  3  0  0  0  0  0  0
  160.3470  211.1450  152.8290 O   0  0  0  0  0  0  0  0  0  0  0  0
  162.3170  210.4380  154.0420 C   0  0  0  0  0  1  0  0  0  0  0  0
  160.0250  209.0760  153.9030 N   0  0  0  0  0  1  0  0  0  0  0  0
  160.9420  206.2680  146.5740 C   0  0  0  0  0  2  0  0  0  0  0  0
  161.7150  205.6760  145.4100 C   0  0  0  0  0  2  0  0  0  0  0  0
  160.8170  204.7710  144.5900 C   0  0  0  0  0  2  0  0  0  0  0  0
  161.0230  203.3850  144.9740 N   0  0  0  0  0  2  0  0  0  0  0  0
  159.9600  201.2090  144.9990 C   0  0  0  0  0  1  0  0  0  0  0  0
  159.8090  202.6700  144.6310 C   0  0  0  0  0  2  0  0  0  0  0  0
  2  4  1  0  0  0  0
  3 13  1  6  0  0  0
  3  5  1  0  0  0  0
  5  9  1  0  0  0  0
  5  1  1  1  0  0  0
  6 13  2  0  0  0  0
  7 18  1  0  0  0  0
  7  9  1  0  0  0  0
  8 12  1  0  0  0  0
  9 10  2  0  0  0  0
 11  2  1  6  0  0  0
 11 14  1  0  0  0  0
 11  3  1  0  0  0  0
 12  1  2  0  0  0  0
 13  8  1  0  0  0  0
 14  4  1  6  0  0  0
 14  7  1  0  0  0  0
 15 16  1  0  0  0  0
 15 19  1  0  0  0  0
 15 21  1  1  0  0  0
 16 19  1  0  0  0  0
 16 20  1  1  0  0  0
 17 15  1  0  0  0  0
 17 16  1  0  0  0  0
 18 17  2  0  0  0  0
 22  2  1  0  0  0  0
 23 22  1  0  0  0  0
 24 25  1  0  0  0  0
 24 23  1  0  0  0  0
 27 25  1  0  0  0  0
 27 26  1  0  0  0  0
M  END
>  <MODEL>
1

>  <REMARK>
 VINA RESULT:      -8.5      0.000      0.000
  Name = 
  6 active torsions:
  status: ('A' for Active; 'I' for Inactive)
    1  A    between atoms: N_2  and  C_25
    2  A    between atoms: C_6  and  N_14
    3  A    between atoms: C_6  and  C_21
    4  A    between atoms: N_10  and  C_18
    5  A    between atoms: N_14  and  C_15
    6  A    between atoms: C_21  and  C_25
                            x       y       z     vdW  Elec       q    Type
                         _______ _______ _______ _____ _____    ______ ____

>  <TORSDO>
F 6

$$$$
=
 OpenBabel11052411163D

 27 31  0  0  1  0  0  0  0  0999 V2000
  161.8900  209.2700  151.1940 C   0  0  0  0  0  3  0  0  0  0  0  0
  161.4670  204.4110  150.6960 N   0  0  0  0  0  0  0  0  0  0  0  0
  161.5220  206.8010  151.2030 C   0  0  2  0  0  3  0  0  0  0  0  0
  161.5760  204.3300  149.2420 C   0  0  0  0  0  2  0  0  0  0  0  0
  161.2490  208.1170  150.4660 C   0  0  2  0  0  3  0  0  0  0  0  0
  161.2260  205.9500  153.4040 O   0  0  0  0  0  0  0  0  0  0  0  0
  161.7140  206.6620  148.4520 N   0  0  0  0  0  0  0  0  0  0  0  0
  160.9990  208.2980  153.2870 C   0  0  0  0  0  2  0  0  0  0  0  0
  161.7220  207.9750  149.0530 C   0  0  0  0  0  0  0  0  0  0  0  0
  162.0210  208.9970  148.3770 O   0  0  0  0  0  0  0  0  0  0  0  0
  160.7320  205.6610  150.5470 C   0  0  1  0  0  3  0  0  0  0  0  0
  161.7660  209.3500  152.5270 C   0  0  0  0  0  3  0  0  0  0  0  0
  161.2380  206.9360  152.6840 C   0  0  0  0  0  0  0  0  0  0  0  0
  160.8270  205.6300  149.0140 C   0  0  2  0  0  3  0  0  0  0  0  0
  160.5960  204.8290  145.6860 C   0  0  2  0  0  0  0  0  0  0  0  0
  161.7670  205.0230  144.8480 C   0  0  1  0  0  0  0  0  0  0  0  0
  161.7590  205.6480  146.2400 C   0  0  0  0  0  0  0  0  0  0  0  0
  162.3340  206.3860  147.1840 C   0  0  0  0  0  3  0  0  0  0  0  0
  160.9140  203.9360  144.6640 O   0  0  0  0  0  0  0  0  0  0  0  0
  161.6020  206.0640  143.7440 C   0  0  0  0  0  1  0  0  0  0  0  0
  159.4740  205.6810  145.3100 N   0  0  0  0  0  1  0  0  0  0  0  0
  160.5130  203.3980  151.1200 C   0  0  0  0  0  2  0  0  0  0  0  0
  161.0710  202.0170  150.8310 C   0  0  0  0  0  2  0  0  0  0  0  0
  160.2330  201.3240  149.7730 C   0  0  0  0  0  2  0  0  0  0  0  0
  161.0900  200.8080  148.7190 N   0  0  0  0  0  2  0  0  0  0  0  0
  160.9380  200.7730  146.3020 C   0  0  0  0  0  1  0  0  0  0  0  0
  160.8520  201.6300  147.5480 C   0  0  0  0  0  2  0  0  0  0  0  0
  1 12  2  0  0  0  0
  2 22  1  0  0  0  0
  3 13  1  1  0  0  0
  4  2  1  0  0  0  0
  5  1  1  1  0  0  0
  5  3  1  0  0  0  0
  7 14  1  0  0  0  0
  7  9  1  0  0  0  0
  9  5  1  0  0  0  0
 10  9  2  0  0  0  0
 11  2  1  1  0  0  0
 11  3  1  0  0  0  0
 12  8  1  0  0  0  0
 13  8  1  0  0  0  0
 13  6  2  0  0  0  0
 14  4  1  1  0  0  0
 14 11  1  0  0  0  0
 15 21  1  6  0  0  0
 15 17  1  0  0  0  0
 16 20  1  6  0  0  0
 16 15  1  0  0  0  0
 16 17  1  0  0  0  0
 17 18  2  0  0  0  0
 18  7  1  0  0  0  0
 19 16  1  0  0  0  0
 19 15  1  0  0  0  0
 23 22  1  0  0  0  0
 24 23  1  0  0  0  0
 25 24  1  0  0  0  0
 26 27  1  0  0  0  0
 27 25  1  0  0  0  0
M  END
>  <MODEL>
2

>  <REMARK>
 VINA RESULT:      -7.3      2.083      6.114
  Name = 
  6 active torsions:
  status: ('A' for Active; 'I' for Inactive)
    1  A    between atoms: N_2  and  C_25
    2  A    between atoms: C_6  and  N_14
    3  A    between atoms: C_6  and  C_21
    4  A    between atoms: N_10  and  C_18
    5  A    between atoms: N_14  and  C_15
    6  A    between atoms: C_21  and  C_25
                            x       y       z     vdW  Elec       q    Type
                         _______ _______ _______ _____ _____    ______ ____

>  <TORSDO>
F 6

$$$$
=
 OpenBabel11052411163D

 27 31  0  0  1  0  0  0  0  0999 V2000
  161.5980  208.0950  153.0480 C   0  0  0  0  0  3  0  0  0  0  0  0
  162.0440  206.0570  148.6110 N   0  0  0  0  0  0  0  0  0  0  0  0
  161.6700  206.8220  150.9020 C   0  0  2  0  0  3  0  0  0  0  0  0
  162.1900  207.2780  147.8240 C   0  0  0  0  0  2  0  0  0  0  0  0
  161.1830  208.0960  151.6000 C   0  0  2  0  0  3  0  0  0  0  0  0
  161.4900  204.4750  151.2480 O   0  0  0  0  0  0  0  0  0  0  0  0
  161.9300  209.1380  149.4210 N   0  0  0  0  0  0  0  0  0  0  0  0
  160.8570  205.7360  153.1420 C   0  0  0  0  0  2  0  0  0  0  0  0
  161.6970  209.2780  150.8390 C   0  0  0  0  0  0  0  0  0  0  0  0
  161.8230  210.3950  151.4110 O   0  0  0  0  0  0  0  0  0  0  0  0
  161.1030  206.7570  149.4780 C   0  0  1  0  0  3  0  0  0  0  0  0
  161.4400  206.9770  153.7710 C   0  0  0  0  0  3  0  0  0  0  0  0
  161.3420  205.5910  151.7210 C   0  0  0  0  0  0  0  0  0  0  0  0
  161.2280  208.0700  148.6900 C   0  0  2  0  0  3  0  0  0  0  0  0
  160.8000  212.1490  148.0380 C   0  0  2  0  0  0  0  0  0  0  0  0
  162.0540  212.5550  147.4260 C   0  0  1  0  0  0  0  0  0  0  0  0
  162.0110  211.2320  148.1830 C   0  0  0  0  0  0  0  0  0  0  0  0
  162.6100  210.1380  148.6440 C   0  0  0  0  0  3  0  0  0  0  0  0
  160.8300  213.0270  146.9550 O   0  0  0  0  0  0  0  0  0  0  0  0
  162.8210  213.6340  148.1860 C   0  0  0  0  0  1  0  0  0  0  0  0
  160.5130  212.8560  149.2800 N   0  0  0  0  0  1  0  0  0  0  0  0
  161.2750  205.1120  147.8160 C   0  0  0  0  0  2  0  0  0  0  0  0
  161.9580  204.8970  146.4770 C   0  0  0  0  0  2  0  0  0  0  0  0
  161.5990  203.5320  145.9190 C   0  0  0  0  0  2  0  0  0  0  0  0
  161.1610  202.6560  146.9920 N   0  0  0  0  0  2  0  0  0  0  0  0
  160.0520  201.6840  145.0710 C   0  0  0  0  0  1  0  0  0  0  0  0
  160.7700  201.4030  146.3750 C   0  0  0  0  0  2  0  0  0  0  0  0
  1 12  2  0  0  0  0
  3  5  1  0  0  0  0
  3 13  1  1  0  0  0
  4  2  1  0  0  0  0
  5  1  1  1  0  0  0
  6 13  2  0  0  0  0
  7  9  1  0  0  0  0
  8 12  1  0  0  0  0
  9 10  2  0  0  0  0
  9  5  1  0  0  0  0
 11  2  1  6  0  0  0
 11  3  1  0  0  0  0
 13  8  1  0  0  0  0
 14  4  1  6  0  0  0
 14  7  1  0  0  0  0
 14 11  1  0  0  0  0
 15 17  1  0  0  0  0
 15 21  1  1  0  0  0
 16 15  1  0  0  0  0
 16 17  1  0  0  0  0
 16 20  1  1  0  0  0
 17 18  2  0  0  0  0
 18  7  1  0  0  0  0
 19 16  1  0  0  0  0
 19 15  1  0  0  0  0
 22  2  1  0  0  0  0
 23 22  1  0  0  0  0
 24 23  1  0  0  0  0
 24 25  1  0  0  0  0
 26 27  1  0  0  0  0
 27 25  1  0  0  0  0
M  END
>  <MODEL>
3

>  <REMARK>
 VINA RESULT:      -7.1      2.908      3.841
  Name = 
  6 active torsions:
  status: ('A' for Active; 'I' for Inactive)
    1  A    between atoms: N_2  and  C_25
    2  A    between atoms: C_6  and  N_14
    3  A    between atoms: C_6  and  C_21
    4  A    between atoms: N_10  and  C_18
    5  A    between atoms: N_14  and  C_15
    6  A    between atoms: C_21  and  C_25
                            x       y       z     vdW  Elec       q    Type
                         _______ _______ _______ _____ _____    ______ ____

>  <TORSDO>
F 6

$$$$
=
 OpenBabel11052411163D

 27 31  0  0  1  0  0  0  0  0999 V2000
  161.8100  208.9120  149.8200 C   0  0  0  0  0  3  0  0  0  0  0  0
  160.6830  204.3660  151.2690 N   0  0  0  0  0  0  0  0  0  0  0  0
  161.3820  206.5020  150.3090 C   0  0  2  0  0  3  0  0  0  0  0  0
  160.5590  204.6180  152.7020 C   0  0  0  0  0  2  0  0  0  0  0  0
  162.0570  207.7890  150.7940 C   0  0  2  0  0  3  0  0  0  0  0  0
  161.3880  205.1750  148.3350 O   0  0  0  0  0  0  0  0  0  0  0  0
  161.1640  206.9870  153.0180 N   0  0  0  0  0  0  0  0  0  0  0  0
  162.3430  207.3100  148.0110 C   0  0  0  0  0  2  0  0  0  0  0  0
  161.5680  208.0880  152.1760 C   0  0  0  0  0  0  0  0  0  0  0  0
  161.6080  209.2670  152.6230 O   0  0  0  0  0  0  0  0  0  0  0  0
  161.7750  205.3310  151.2180 C   0  0  1  0  0  3  0  0  0  0  0  0
  161.9490  208.6790  148.5070 C   0  0  0  0  0  3  0  0  0  0  0  0
  161.6890  206.2400  148.8490 C   0  0  0  0  0  0  0  0  0  0  0  0
  161.6800  205.6410  152.7200 C   0  0  2  0  0  3  0  0  0  0  0  0
  162.0710  208.8090  155.8670 C   0  0  2  0  0  0  0  0  0  0  0  0
  160.8980  208.5010  156.6670 C   0  0  1  0  0  0  0  0  0  0  0  0
  160.9990  207.9050  155.2670 C   0  0  0  0  0  0  0  0  0  0  0  0
  160.4930  207.1780  154.2750 C   0  0  0  0  0  3  0  0  0  0  0  0
  162.1050  208.8700  157.2600 O   0  0  0  0  0  0  0  0  0  0  0  0
  159.8630  209.6200  156.7480 C   0  0  0  0  0  1  0  0  0  0  0  0
  162.0330  210.1450  155.2830 N   0  0  0  0  0  1  0  0  0  0  0  0
  161.2680  203.0440  151.1060 C   0  0  0  0  0  2  0  0  0  0  0  0
  160.5800  202.3170  149.9650 C   0  0  0  0  0  2  0  0  0  0  0  0
  161.1840  200.9380  149.7820 C   0  0  0  0  0  2  0  0  0  0  0  0
  161.3320  200.6430  148.3680 N   0  0  0  0  0  2  0  0  0  0  0  0
  160.7140  201.4690  146.1770 C   0  0  0  0  0  1  0  0  0  0  0  0
  160.8600  201.8080  147.6460 C   0  0  0  0  0  2  0  0  0  0  0  0
  2  4  1  0  0  0  0
  3 13  1  6  0  0  0
  3  5  1  0  0  0  0
  3 11  1  0  0  0  0
  5  1  1  6  0  0  0
  5  9  1  0  0  0  0
  6 13  2  0  0  0  0
  7 18  1  0  0  0  0
  8 12  1  0  0  0  0
  8 13  1  0  0  0  0
  9 10  2  0  0  0  0
  9  7  1  0  0  0  0
 11  2  1  1  0  0  0
 11 14  1  0  0  0  0
 12  1  2  0  0  0  0
 14  4  1  1  0  0  0
 14  7  1  0  0  0  0
 15 21  1  6  0  0  0
 15 16  1  0  0  0  0
 15 19  1  0  0  0  0
 16 20  1  6  0  0  0
 16 19  1  0  0  0  0
 17 15  1  0  0  0  0
 17 16  1  0  0  0  0
 18 17  2  0  0  0  0
 22  2  1  0  0  0  0
 23 22  1  0  0  0  0
 24 23  1  0  0  0  0
 25 24  1  0  0  0  0
 26 27  1  0  0  0  0
 27 25  1  0  0  0  0
M  END
>  <MODEL>
4

>  <REMARK>
 VINA RESULT:      -7.1      2.353      4.228
  Name = 
  6 active torsions:
  status: ('A' for Active; 'I' for Inactive)
    1  A    between atoms: N_2  and  C_25
    2  A    between atoms: C_6  and  N_14
    3  A    between atoms: C_6  and  C_21
    4  A    between atoms: N_10  and  C_18
    5  A    between atoms: N_14  and  C_15
    6  A    between atoms: C_21  and  C_25
                            x       y       z     vdW  Elec       q    Type
                         _______ _______ _______ _____ _____    ______ ____

>  <TORSDO>
F 6

$$$$
=
 OpenBabel11052411163D

 27 31  0  0  1  0  0  0  0  0999 V2000
  161.1940  204.1340  150.9920 C   0  0  0  0  0  3  0  0  0  0  0  0
  162.2580  208.7180  149.6200 N   0  0  0  0  0  0  0  0  0  0  0  0
  161.6260  206.3920  150.0210 C   0  0  2  0  0  3  0  0  0  0  0  0
  162.1910  209.3590  150.9300 C   0  0  0  0  0  2  0  0  0  0  0  0
  160.8570  205.5990  151.0830 C   0  0  2  0  0  3  0  0  0  0  0  0
  161.9100  206.3100  147.6600 O   0  0  0  0  0  0  0  0  0  0  0  0
  161.4820  207.5960  152.5010 N   0  0  0  0  0  0  0  0  0  0  0  0
  160.9430  204.3430  148.5390 C   0  0  0  0  0  2  0  0  0  0  0  0
  161.1570  206.1910  152.4240 C   0  0  0  0  0  0  0  0  0  0  0  0
  161.0250  205.4970  153.4690 O   0  0  0  0  0  0  0  0  0  0  0  0
  161.1540  207.8510  150.0140 C   0  0  1  0  0  3  0  0  0  0  0  0
  161.2310  203.5460  149.7870 C   0  0  0  0  0  3  0  0  0  0  0  0
  161.5150  205.7330  148.6610 C   0  0  0  0  0  0  0  0  0  0  0  0
  161.0470  208.4850  151.4100 C   0  0  2  0  0  3  0  0  0  0  0  0
  159.8570  208.5690  155.4460 C   0  0  2  0  0  0  0  0  0  0  0  0
  161.0230  209.0930  156.1370 C   0  0  1  0  0  0  0  0  0  0  0  0
  161.2050  208.5280  154.7320 C   0  0  0  0  0  0  0  0  0  0  0  0
  161.9810  208.2120  153.7000 C   0  0  0  0  0  3  0  0  0  0  0  0
  159.7340  209.5180  156.4600 O   0  0  0  0  0  0  0  0  0  0  0  0
  161.6000  208.1740  157.2120 C   0  0  0  0  0  1  0  0  0  0  0  0
  159.4590  207.2460  155.9130 N   0  0  0  0  0  1  0  0  0  0  0  0
  161.7370  209.6620  148.6430 C   0  0  0  0  0  2  0  0  0  0  0  0
  162.1850  211.0680  149.0010 C   0  0  0  0  0  2  0  0  0  0  0  0
  161.5810  212.0720  148.0380 C   0  0  0  0  0  2  0  0  0  0  0  0
  162.6250  212.6740  147.2270 N   0  0  0  0  0  2  0  0  0  0  0  0
  162.8950  213.2510  144.8900 C   0  0  0  0  0  1  0  0  0  0  0  0
  161.9690  213.2870  146.0880 C   0  0  0  0  0  2  0  0  0  0  0  0
  2  4  1  0  0  0  0
  3 13  1  6  0  0  0
  3  5  1  0  0  0  0
  5  1  1  1  0  0  0
  5  9  1  0  0  0  0
  6 13  2  0  0  0  0
  7 18  1  0  0  0  0
  8 13  1  0  0  0  0
  8 12  1  0  0  0  0
  9  7  1  0  0  0  0
  9 10  2  0  0  0  0
 11  2  1  6  0  0  0
 11  3  1  0  0  0  0
 11 14  1  0  0  0  0
 12  1  2  0  0  0  0
 14  4  1  6  0  0  0
 14  7  1  0  0  0  0
 15 21  1  1  0  0  0
 15 16  1  0  0  0  0
 15 19  1  0  0  0  0
 16 19  1  0  0  0  0
 16 20  1  1  0  0  0
 17 15  1  0  0  0  0
 17 16  1  0  0  0  0
 18 17  2  0  0  0  0
 22 23  1  0  0  0  0
 22  2  1  0  0  0  0
 24 23  1  0  0  0  0
 25 24  1  0  0  0  0
 26 27  1  0  0  0  0
 27 25  1  0  0  0  0
M  END
>  <MODEL>
5

>  <REMARK>
 VINA RESULT:      -7.1      3.152      4.872
  Name = 
  6 active torsions:
  status: ('A' for Active; 'I' for Inactive)
    1  A    between atoms: N_2  and  C_25
    2  A    between atoms: C_6  and  N_14
    3  A    between atoms: C_6  and  C_21
    4  A    between atoms: N_10  and  C_18
    5  A    between atoms: N_14  and  C_15
    6  A    between atoms: C_21  and  C_25
                            x       y       z     vdW  Elec       q    Type
                         _______ _______ _______ _____ _____    ______ ____

>  <TORSDO>
F 6

$$$$
=
 OpenBabel11052411163D

 27 31  0  0  1  0  0  0  0  0999 V2000
  160.8030  206.2350  153.2210 C   0  0  0  0  0  3  0  0  0  0  0  0
  161.5170  209.3770  149.5260 N   0  0  0  0  0  0  0  0  0  0  0  0
  161.3120  208.0090  151.5410 C   0  0  2  0  0  3  0  0  0  0  0  0
  161.4460  208.4300  148.4170 C   0  0  0  0  0  2  0  0  0  0  0  0
  161.5250  206.5440  151.9350 C   0  0  2  0  0  3  0  0  0  0  0  0
  161.6070  210.1410  152.5540 O   0  0  0  0  0  0  0  0  0  0  0  0
  161.1910  206.2070  149.4530 N   0  0  0  0  0  0  0  0  0  0  0  0
  161.7000  208.3640  154.1060 C   0  0  0  0  0  2  0  0  0  0  0  0
  161.0940  205.6790  150.7930 C   0  0  0  0  0  0  0  0  0  0  0  0
  160.7520  204.4820  150.9960 O   0  0  0  0  0  0  0  0  0  0  0  0
  162.1820  208.3550  150.3250 C   0  0  1  0  0  3  0  0  0  0  0  0
  160.8910  207.0980  154.2430 C   0  0  0  0  0  3  0  0  0  0  0  0
  161.5540  208.9330  152.7170 C   0  0  0  0  0  0  0  0  0  0  0  0
  162.1240  207.3170  149.1940 C   0  0  2  0  0  3  0  0  0  0  0  0
  162.4440  205.6530  146.2300 C   0  0  2  0  0  0  0  0  0  0  0  0
  161.2930  204.9400  145.7030 C   0  0  1  0  0  0  0  0  0  0  0  0
  161.2420  205.4350  147.1450 C   0  0  0  0  0  0  0  0  0  0  0  0
  160.6180  205.5430  148.3140 C   0  0  0  0  0  3  0  0  0  0  0  0
  162.1820  205.6070  144.8610 O   0  0  0  0  0  0  0  0  0  0  0  0
  161.4600  203.4250  145.6150 C   0  0  0  0  0  1  0  0  0  0  0  0
  163.5510  204.7730  146.5840 N   0  0  0  0  0  1  0  0  0  0  0  0
  162.5170  210.3770  149.1850 C   0  0  0  0  0  2  0  0  0  0  0  0
  161.8340  211.6300  148.6690 C   0  0  0  0  0  2  0  0  0  0  0  0
  162.8020  212.4500  147.8370 C   0  0  0  0  0  2  0  0  0  0  0  0
  162.1450  212.9180  146.6280 N   0  0  0  0  0  2  0  0  0  0  0  0
  160.0800  212.4440  145.4570 C   0  0  0  0  0  1  0  0  0  0  0  0
  160.7250  212.6820  146.8050 C   0  0  0  0  0  2  0  0  0  0  0  0
  1 12  2  0  0  0  0
  3  5  1  0  0  0  0
  3 13  1  1  0  0  0
  4  2  1  0  0  0  0
  5  1  1  1  0  0  0
  6 13  2  0  0  0  0
  7  9  1  0  0  0  0
  8 12  1  0  0  0  0
  9 10  2  0  0  0  0
  9  5  1  0  0  0  0
 11  2  1  6  0  0  0
 11  3  1  0  0  0  0
 13  8  1  0  0  0  0
 14  4  1  6  0  0  0
 14  7  1  0  0  0  0
 14 11  1  0  0  0  0
 15 21  1  1  0  0  0
 15 17  1  0  0  0  0
 16 20  1  6  0  0  0
 16 15  1  0  0  0  0
 16 17  1  0  0  0  0
 17 18  2  0  0  0  0
 18  7  1  0  0  0  0
 19 16  1  0  0  0  0
 19 15  1  0  0  0  0
 22  2  1  0  0  0  0
 23 22  1  0  0  0  0
 24 23  1  0  0  0  0
 25 27  1  0  0  0  0
 25 24  1  0  0  0  0
 26 27  1  0  0  0  0
M  END
>  <MODEL>
6

>  <REMARK>
 VINA RESULT:      -7.0      2.987      6.821
  Name = 
  6 active torsions:
  status: ('A' for Active; 'I' for Inactive)
    1  A    between atoms: N_2  and  C_25
    2  A    between atoms: C_6  and  N_14
    3  A    between atoms: C_6  and  C_21
    4  A    between atoms: N_10  and  C_18
    5  A    between atoms: N_14  and  C_15
    6  A    between atoms: C_21  and  C_25
                            x       y       z     vdW  Elec       q    Type
                         _______ _______ _______ _____ _____    ______ ____

>  <TORSDO>
F 6

$$$$
=
 OpenBabel11052411163D

 27 31  0  0  1  0  0  0  0  0999 V2000
  161.0760  204.8930  152.6060 C   0  0  0  0  0  3  0  0  0  0  0  0
  162.2530  208.9300  150.0860 N   0  0  0  0  0  0  0  0  0  0  0  0
  161.5730  206.8020  151.0770 C   0  0  2  0  0  3  0  0  0  0  0  0
  162.1550  209.9010  151.1710 C   0  0  0  0  0  2  0  0  0  0  0  0
  160.7590  206.3310  152.2870 C   0  0  2  0  0  3  0  0  0  0  0  0
  161.9290  206.0840  148.8370 O   0  0  0  0  0  0  0  0  0  0  0  0
  161.3700  208.6320  153.1340 N   0  0  0  0  0  0  0  0  0  0  0  0
  160.9050  204.4340  150.1810 C   0  0  0  0  0  2  0  0  0  0  0  0
  161.0260  207.2610  153.4280 C   0  0  0  0  0  0  0  0  0  0  0  0
  160.8510  206.8760  154.6160 O   0  0  0  0  0  0  0  0  0  0  0  0
  161.1240  208.2090  150.6610 C   0  0  1  0  0  3  0  0  0  0  0  0
  161.1410  204.0010  151.6060 C   0  0  0  0  0  3  0  0  0  0  0  0
  161.4940  205.8020  149.9420 C   0  0  0  0  0  0  0  0  0  0  0  0
  160.9840  209.1960  151.8300 C   0  0  2  0  0  3  0  0  0  0  0  0
  159.7350  211.1900  154.8780 C   0  0  2  0  0  0  0  0  0  0  0  0
  160.8670  211.6220  155.6800 C   0  0  1  0  0  0  0  0  0  0  0  0
  161.0710  210.4770  154.6930 C   0  0  0  0  0  0  0  0  0  0  0  0
  161.8410  209.5460  154.1390 C   0  0  0  0  0  3  0  0  0  0  0  0
  159.8010  212.4790  155.4070 O   0  0  0  0  0  0  0  0  0  0  0  0
  160.8490  211.1430  157.1290 C   0  0  0  0  0  1  0  0  0  0  0  0
  158.7880  210.3660  155.6200 N   0  0  0  0  0  1  0  0  0  0  0  0
  161.7770  209.5780  148.8730 C   0  0  0  0  0  2  0  0  0  0  0  0
  162.3780  210.9690  148.7680 C   0  0  0  0  0  2  0  0  0  0  0  0
  161.4680  211.8720  147.9560 C   0  0  0  0  0  2  0  0  0  0  0  0
  161.5530  213.2360  148.4490 N   0  0  0  0  0  2  0  0  0  0  0  0
  162.1740  213.4220  146.1160 C   0  0  0  0  0  1  0  0  0  0  0  0
  162.3840  213.9680  147.5130 C   0  0  0  0  0  2  0  0  0  0  0  0
  2  4  1  0  0  0  0
  3 13  1  6  0  0  0
  3  5  1  0  0  0  0
  5  1  1  1  0  0  0
  5  9  1  0  0  0  0
  6 13  2  0  0  0  0
  7  9  1  0  0  0  0
  7 18  1  0  0  0  0
  8 12  1  0  0  0  0
  9 10  2  0  0  0  0
 11  2  1  6  0  0  0
 11  3  1  0  0  0  0
 11 14  1  0  0  0  0
 12  1  2  0  0  0  0
 13  8  1  0  0  0  0
 14  4  1  6  0  0  0
 14  7  1  0  0  0  0
 15 19  1  0  0  0  0
 15 21  1  1  0  0  0
 15 16  1  0  0  0  0
 16 20  1  1  0  0  0
 17 15  1  0  0  0  0
 17 16  1  0  0  0  0
 18 17  2  0  0  0  0
 19 16  1  0  0  0  0
 22  2  1  0  0  0  0
 23 22  1  0  0  0  0
 24 25  1  0  0  0  0
 24 23  1  0  0  0  0
 26 27  1  0  0  0  0
 27 25  1  0  0  0  0
M  END
>  <MODEL>
7

>  <REMARK>
 VINA RESULT:      -6.9      3.161      5.080
  Name = 
  6 active torsions:
  status: ('A' for Active; 'I' for Inactive)
    1  A    between atoms: N_2  and  C_25
    2  A    between atoms: C_6  and  N_14
    3  A    between atoms: C_6  and  C_21
    4  A    between atoms: N_10  and  C_18
    5  A    between atoms: N_14  and  C_15
    6  A    between atoms: C_21  and  C_25
                            x       y       z     vdW  Elec       q    Type
                         _______ _______ _______ _____ _____    ______ ____

>  <TORSDO>
F 6

$$$$
=
 OpenBabel11052411163D

 27 31  0  0  1  0  0  0  0  0999 V2000
  161.1460  203.6380  149.6620 C   0  0  0  0  0  3  0  0  0  0  0  0
  162.3330  208.3860  149.3800 N   0  0  0  0  0  0  0  0  0  0  0  0
  161.6840  206.0360  149.2230 C   0  0  2  0  0  3  0  0  0  0  0  0
  162.0600  208.7620  150.7640 C   0  0  0  0  0  2  0  0  0  0  0  0
  160.7770  205.0630  149.9840 C   0  0  2  0  0  3  0  0  0  0  0  0
  162.3210  206.4080  146.9610 O   0  0  0  0  0  0  0  0  0  0  0  0
  161.1500  206.7380  151.8390 N   0  0  0  0  0  0  0  0  0  0  0  0
  161.2630  204.3230  147.2870 C   0  0  0  0  0  2  0  0  0  0  0  0
  160.8620  205.3800  151.4430 C   0  0  0  0  0  0  0  0  0  0  0  0
  160.5860  204.4980  152.3020 O   0  0  0  0  0  0  0  0  0  0  0  0
  161.1960  207.4750  149.4280 C   0  0  1  0  0  3  0  0  0  0  0  0
  161.3730  203.2950  148.3860 C   0  0  0  0  0  3  0  0  0  0  0  0
  161.7890  205.6550  147.7610 C   0  0  0  0  0  0  0  0  0  0  0  0
  160.8710  207.8270  150.8880 C   0  0  2  0  0  3  0  0  0  0  0  0
  160.9910  209.8210  153.4910 C   0  0  2  0  0  0  0  0  0  0  0  0
  161.4470  209.3590  154.7910 C   0  0  1  0  0  0  0  0  0  0  0  0
  161.3460  208.3460  153.6560 C   0  0  0  0  0  0  0  0  0  0  0  0
  161.4550  207.1030  153.1960 C   0  0  0  0  0  3  0  0  0  0  0  0
  161.5780  210.6940  154.4070 O   0  0  0  0  0  0  0  0  0  0  0  0
  160.3450  209.1760  155.8320 C   0  0  0  0  0  1  0  0  0  0  0  0
  159.5480  210.0190  153.4270 N   0  0  0  0  0  1  0  0  0  0  0  0
  161.9510  209.5090  148.5380 C   0  0  0  0  0  2  0  0  0  0  0  0
  162.2120  210.8120  149.2720 C   0  0  0  0  0  2  0  0  0  0  0  0
  162.5040  211.9220  148.2800 C   0  0  0  0  0  2  0  0  0  0  0  0
  161.2640  212.5440  147.8500 N   0  0  0  0  0  2  0  0  0  0  0  0
  159.2810  213.6430  148.7010 C   0  0  0  0  0  1  0  0  0  0  0  0
  160.6860  213.1770  149.0200 C   0  0  0  0  0  2  0  0  0  0  0  0
  2  4  1  0  0  0  0
  3 13  1  6  0  0  0
  3 11  1  0  0  0  0
  3  5  1  0  0  0  0
  5  1  1  1  0  0  0
  5  9  1  0  0  0  0
  6 13  2  0  0  0  0
  7 18  1  0  0  0  0
  8 13  1  0  0  0  0
  8 12  1  0  0  0  0
  9  7  1  0  0  0  0
  9 10  2  0  0  0  0
 11  2  1  1  0  0  0
 11 14  1  0  0  0  0
 12  1  2  0  0  0  0
 14  4  1  1  0  0  0
 14  7  1  0  0  0  0
 15 21  1  1  0  0  0
 15 17  1  0  0  0  0
 15 19  1  0  0  0  0
 15 16  1  0  0  0  0
 16 20  1  1  0  0  0
 17 16  1  0  0  0  0
 18 17  2  0  0  0  0
 19 16  1  0  0  0  0
 22 23  1  0  0  0  0
 22  2  1  0  0  0  0
 24 23  1  0  0  0  0
 25 24  1  0  0  0  0
 25 27  1  0  0  0  0
 26 27  1  0  0  0  0
M  END
>  <MODEL>
8

>  <REMARK>
 VINA RESULT:      -6.7      2.648      4.812
  Name = 
  6 active torsions:
  status: ('A' for Active; 'I' for Inactive)
    1  A    between atoms: N_2  and  C_25
    2  A    between atoms: C_6  and  N_14
    3  A    between atoms: C_6  and  C_21
    4  A    between atoms: N_10  and  C_18
    5  A    between atoms: N_14  and  C_15
    6  A    between atoms: C_21  and  C_25
                            x       y       z     vdW  Elec       q    Type
                         _______ _______ _______ _____ _____    ______ ____

>  <TORSDO>
F 6

$$$$
=
 OpenBabel11052411163D

 27 31  0  0  1  0  0  0  0  0999 V2000
  160.6030  203.9660  151.4550 C   0  0  0  0  0  3  0  0  0  0  0  0
  161.4540  208.7290  150.6670 N   0  0  0  0  0  0  0  0  0  0  0  0
  161.1450  206.3990  151.3370 C   0  0  2  0  0  3  0  0  0  0  0  0
  161.5810  208.6900  149.2130 C   0  0  0  0  0  2  0  0  0  0  0  0
  161.4330  205.0110  150.7560 C   0  0  2  0  0  3  0  0  0  0  0  0
  161.1530  207.4180  153.4870 O   0  0  0  0  0  0  0  0  0  0  0  0
  161.3980  206.3120  148.5890 N   0  0  0  0  0  0  0  0  0  0  0  0
  161.2220  205.0590  153.5860 C   0  0  0  0  0  2  0  0  0  0  0  0
  161.2000  205.0590  149.2790 C   0  0  0  0  0  0  0  0  0  0  0  0
  160.9370  204.0020  148.6420 O   0  0  0  0  0  0  0  0  0  0  0  0
  162.1100  207.4290  150.7350 C   0  0  1  0  0  3  0  0  0  0  0  0
  160.5100  203.9930  152.7920 C   0  0  0  0  0  3  0  0  0  0  0  0
  161.1820  206.3760  152.8510 C   0  0  0  0  0  0  0  0  0  0  0  0
  162.2600  207.3330  149.2080 C   0  0  2  0  0  3  0  0  0  0  0  0
  162.4190  204.7290  145.6380 C   0  0  2  0  0  0  0  0  0  0  0  0
  161.5850  205.4880  144.7210 C   0  0  1  0  0  0  0  0  0  0  0  0
  161.5160  205.8180  146.2090 C   0  0  0  0  0  0  0  0  0  0  0  0
  161.0070  206.5150  147.2200 C   0  0  0  0  0  3  0  0  0  0  0  0
  162.7540  204.8600  144.2900 O   0  0  0  0  0  0  0  0  0  0  0  0
  160.3380  204.7560  144.2310 C   0  0  0  0  0  1  0  0  0  0  0  0
  161.8950  203.3980  145.9220 N   0  0  0  0  0  1  0  0  0  0  0  0
  162.4010  209.7150  151.1630 C   0  0  0  0  0  2  0  0  0  0  0  0
  161.9040  210.2830  152.4810 C   0  0  0  0  0  2  0  0  0  0  0  0
  160.4260  210.6140  152.3850 C   0  0  0  0  0  2  0  0  0  0  0  0
  160.1240  211.7770  153.2010 N   0  0  0  0  0  2  0  0  0  0  0  0
  159.3490  210.8460  155.2980 C   0  0  0  0  0  1  0  0  0  0  0  0
  160.5220  211.4520  154.5570 C   0  0  0  0  0  2  0  0  0  0  0  0
  1 12  2  0  0  0  0
  2 22  1  0  0  0  0
  3 13  1  1  0  0  0
  4  2  1  0  0  0  0
  5  3  1  0  0  0  0
  5  1  1  1  0  0  0
  7 14  1  0  0  0  0
  7  9  1  0  0  0  0
  9  5  1  0  0  0  0
 10  9  2  0  0  0  0
 11  2  1  6  0  0  0
 11  3  1  0  0  0  0
 12  8  1  0  0  0  0
 13  6  2  0  0  0  0
 13  8  1  0  0  0  0
 14  4  1  6  0  0  0
 14 11  1  0  0  0  0
 15 21  1  1  0  0  0
 15 17  1  0  0  0  0
 16 20  1  6  0  0  0
 16 15  1  0  0  0  0
 16 17  1  0  0  0  0
 17 18  2  0  0  0  0
 18  7  1  0  0  0  0
 19 16  1  0  0  0  0
 19 15  1  0  0  0  0
 22 23  1  0  0  0  0
 24 23  1  0  0  0  0
 24 25  1  0  0  0  0
 25 27  1  0  0  0  0
 27 26  1  0  0  0  0
M  END
>  <MODEL>
9

>  <REMARK>
 VINA RESULT:      -6.6      1.694      7.393
  Name = 
  6 active torsions:
  status: ('A' for Active; 'I' for Inactive)
    1  A    between atoms: N_2  and  C_25
    2  A    between atoms: C_6  and  N_14
    3  A    between atoms: C_6  and  C_21
    4  A    between atoms: N_10  and  C_18
    5  A    between atoms: N_14  and  C_15
    6  A    between atoms: C_21  and  C_25
                            x       y       z     vdW  Elec       q    Type
                         _______ _______ _______ _____ _____    ______ ____

>  <TORSDO>
F 6

$$$$
