=
 OpenBabel11042422493D

 38 42  0  0  1  0  0  0  0  0999 V2000
  159.1390  211.5990  155.6780 C   0  0  2  0  0  3  0  0  0  0  0  0
  159.0050  212.8210  151.6710 C   0  0  2  0  0  3  0  0  0  0  0  0
  156.3200  214.4490  152.3180 N   0  0  0  0  0  2  0  0  0  0  0  0
  159.1180  212.9950  156.2590 C   0  0  2  0  0  3  0  0  0  0  0  0
  155.0970  214.3880  154.4900 C   0  0  0  0  0  0  0  0  0  0  0  0
  154.0400  213.9580  152.4080 O   0  0  0  0  0  0  0  0  0  0  0  0
  155.0940  214.2710  153.0270 C   0  0  0  0  0  0  0  0  0  0  0  0
  158.3030  211.6560  152.0910 O   0  0  0  0  0  0  0  0  0  0  0  0
  159.8130  213.5390  152.7630 C   0  0  2  0  0  3  0  0  0  0  0  0
  158.3240  213.6020  149.4880 O   0  0  0  0  0  0  0  0  0  0  0  0
  158.1370  213.7920  150.8620 C   0  0  1  0  0  3  0  0  0  0  0  0
  153.9090  214.3800  155.2320 C   0  0  0  0  0  3  0  0  0  0  0  0
  156.3470  214.4420  156.5510 C   0  0  0  0  0  0  0  0  0  0  0  0
  160.2840  210.9520  156.4390 C   0  0  2  0  0  3  0  0  0  0  0  0
  160.4880  213.1320  156.9110 C   0  0  0  0  0  2  0  0  0  0  0  0
  157.1150  210.5560  153.8360 C   0  0  0  0  0  1  0  0  0  0  0  0
  158.0670  211.6900  153.4840 C   0  0  1  0  0  3  0  0  0  0  0  0
  157.1660  214.1220  148.8770 C   0  0  2  0  0  3  0  0  0  0  0  0
  161.2270  211.9480  156.7310 O   0  0  0  0  0  0  0  0  0  0  0  0
  156.6600  213.6730  151.1420 C   0  0  2  0  0  3  0  0  0  0  0  0
  156.0540  214.2550  149.9050 C   0  0  0  0  0  2  0  0  0  0  0  0
  156.3190  214.4170  155.1600 C   0  0  0  0  0  3  0  0  0  0  0  0
  153.9750  214.4110  156.6280 C   0  0  0  0  0  3  0  0  0  0  0  0
  157.6610  214.3780  157.2500 C   0  0  0  0  0  2  0  0  0  0  0  0
  159.3430  211.5480  154.2110 N   0  0  1  0  0  0  0  0  0  0  0  0
  160.8630  214.2530  152.1890 O   0  0  0  0  0  1  0  0  0  0  0  0
  155.1830  214.4330  157.2550 N   0  0  0  0  0  0  0  0  0  0  0  0
  158.1310  213.0580  157.2530 O   0  0  0  0  0  0  0  0  0  0  0  0
  160.3690  212.5030  153.7390 C   0  0  0  0  0  2  0  0  0  0  0  0
  160.9010  209.8660  155.6860 N   0  0  0  0  0  2  0  0  0  0  0  0
  161.7330  209.1140  156.6100 C   0  0  0  0  0  2  0  0  0  0  0  0
  161.7570  207.6520  156.2040 C   0  0  0  0  0  2  0  0  0  0  0  0
  160.7860  207.5490  153.9120 O   0  0  0  0  0  0  0  0  0  0  0  0
  159.5390  206.9290  155.7320 O   0  0  0  0  0  1  0  0  0  0  0  0
  160.6280  207.3670  155.2800 C   0  0  0  0  0  0  0  0  0  0  0  0
  156.7370  213.2480  147.7030 C   0  0  0  0  0  2  0  0  0  0  0  0
  157.2560  213.9480  146.1020 S   0  0  0  0  0  0  0  0  0  0  0  0
  158.3910  212.5690  145.7920 C   0  0  0  0  0  1  0  0  0  0  0  0
  1  4  1  0  0  0  0
  1 14  1  0  0  0  0
  2  8  1  0  0  0  0
  2  9  1  0  0  0  0
  3  7  1  0  0  0  0
  4 15  1  0  0  0  0
  4 28  1  0  0  0  0
  5 22  2  0  0  0  0
  5 12  1  0  0  0  0
  6  7  2  0  0  0  0
  7  5  1  0  0  0  0
  8 17  1  0  0  0  0
  9 29  1  0  0  0  0
 10 11  1  0  0  0  0
 11 20  1  0  0  0  0
 11  2  1  0  0  0  0
 12 23  2  0  0  0  0
 13 24  1  0  0  0  0
 13 27  2  0  0  0  0
 14 19  1  0  0  0  0
 17 16  1  0  0  0  0
 17 25  1  0  0  0  0
 18 10  1  0  0  0  0
 18 21  1  0  0  0  0
 19 15  1  0  0  0  0
 20  3  1  0  0  0  0
 21 20  1  0  0  0  0
 22 13  1  0  0  0  0
 23 27  1  0  0  0  0
 24 28  1  0  0  0  0
 25  1  1  0  0  0  0
 26  9  1  0  0  0  0
 29 25  1  0  0  0  0
 30 14  1  0  0  0  0
 30 31  1  0  0  0  0
 32 31  1  0  0  0  0
 33 35  2  0  0  0  0
 35 34  1  0  0  0  0
 35 32  1  0  0  0  0
 36 18  1  0  0  0  0
 37 36  1  0  0  0  0
 38 37  1  0  0  0  0
M  END
>  <MODEL>
1

>  <REMARK>
 VINA RESULT:      -0.2      0.000      0.000
  Name = 
  6 active torsions:
  status: ('A' for Active; 'I' for Inactive)
    1  A    between atoms: C_11  and  C_19
    2  A    between atoms: C_11  and  N_25
    3  A    between atoms: S_14  and  C_33
    4  A    between atoms: C_17  and  N_25
    5  A    between atoms: C_19  and  C_27
    6  A    between atoms: C_23  and  C_33
                            x       y       z     vdW  Elec       q    Type
                         _______ _______ _______ _____ _____    ______ ____

>  <TORSDO>
F 6

$$$$
=
 OpenBabel11042422493D

 38 42  0  0  1  0  0  0  0  0999 V2000
  160.0970  208.9500  155.1650 C   0  0  2  0  0  3  0  0  0  0  0  0
  161.1830  210.5320  151.4380 C   0  0  2  0  0  3  0  0  0  0  0  0
  160.0690  213.3840  152.3900 N   0  0  0  0  0  2  0  0  0  0  0  0
  160.8960  209.9390  155.9840 C   0  0  2  0  0  3  0  0  0  0  0  0
  158.8590  213.8080  154.5280 C   0  0  0  0  0  0  0  0  0  0  0  0
  157.9930  214.4520  152.4130 O   0  0  0  0  0  0  0  0  0  0  0  0
  158.9370  213.9290  153.0670 C   0  0  0  0  0  0  0  0  0  0  0  0
  159.8660  210.0370  151.6530 O   0  0  0  0  0  0  0  0  0  0  0  0
  162.1420  210.4060  152.6330 C   0  0  2  0  0  3  0  0  0  0  0  0
  161.3790  211.8680  149.4340 O   0  0  0  0  0  0  0  0  0  0  0  0
  161.2100  211.9360  150.8230 C   0  0  1  0  0  3  0  0  0  0  0  0
  157.8600  214.4530  155.2680 C   0  0  0  0  0  3  0  0  0  0  0  0
  159.6390  212.7580  156.5540 C   0  0  0  0  0  0  0  0  0  0  0  0
  160.4920  207.6230  155.7880 C   0  0  2  0  0  3  0  0  0  0  0  0
  161.9700  209.0770  156.6370 C   0  0  0  0  0  2  0  0  0  0  0  0
  158.0750  209.7130  153.1870 C   0  0  0  0  0  1  0  0  0  0  0  0
  159.5580  210.0150  153.0320 C   0  0  1  0  0  3  0  0  0  0  0  0
  160.8780  213.0870  148.9370 C   0  0  2  0  0  3  0  0  0  0  0  0
  161.8140  207.7350  156.2420 O   0  0  0  0  0  0  0  0  0  0  0  0
  159.9670  212.7470  151.0910 C   0  0  2  0  0  3  0  0  0  0  0  0
  159.9960  213.7500  149.9820 C   0  0  0  0  0  2  0  0  0  0  0  0
  159.7480  212.9550  155.1810 C   0  0  0  0  0  3  0  0  0  0  0  0
  157.7830  214.2360  156.6470 C   0  0  0  0  0  3  0  0  0  0  0  0
  160.5380  211.7740  157.2170 C   0  0  0  0  0  2  0  0  0  0  0  0
  160.3760  208.9910  153.7100 N   0  0  1  0  0  0  0  0  0  0  0  0
  163.4610  210.3600  152.1830 O   0  0  0  0  0  1  0  0  0  0  0  0
  158.6630  213.3930  157.2570 N   0  0  0  0  0  0  0  0  0  0  0  0
  160.0710  210.4740  156.9830 O   0  0  0  0  0  0  0  0  0  0  0  0
  161.8160  209.1280  153.4040 C   0  0  0  0  0  2  0  0  0  0  0  0
  160.3640  206.5140  154.8490 N   0  0  0  0  0  2  0  0  0  0  0  0
  161.6490  206.3510  154.1900 C   0  0  0  0  0  2  0  0  0  0  0  0
  161.5530  205.2540  153.1450 C   0  0  0  0  0  2  0  0  0  0  0  0
  160.5940  205.4700  150.8560 O   0  0  0  0  0  0  0  0  0  0  0  0
  162.4020  206.7320  151.4830 O   0  0  0  0  0  1  0  0  0  0  0  0
  161.5540  205.8530  151.7850 C   0  0  0  0  0  0  0  0  0  0  0  0
  160.1210  212.8660  147.6310 C   0  0  0  0  0  2  0  0  0  0  0  0
  158.7100  214.0070  147.4550 S   0  0  0  0  0  0  0  0  0  0  0  0
  157.5930  212.6590  146.9820 C   0  0  0  0  0  1  0  0  0  0  0  0
  1 14  1  0  0  0  0
  1  4  1  0  0  0  0
  2  8  1  0  0  0  0
  2  9  1  0  0  0  0
  3  7  1  0  0  0  0
  4 15  1  0  0  0  0
  4 28  1  0  0  0  0
  5 22  2  0  0  0  0
  5 12  1  0  0  0  0
  6  7  2  0  0  0  0
  7  5  1  0  0  0  0
  8 17  1  0  0  0  0
  9 29  1  0  0  0  0
 10 11  1  0  0  0  0
 11 20  1  0  0  0  0
 11  2  1  0  0  0  0
 12 23  2  0  0  0  0
 13 24  1  0  0  0  0
 13 27  2  0  0  0  0
 14 19  1  0  0  0  0
 17 16  1  0  0  0  0
 17 25  1  0  0  0  0
 18 10  1  0  0  0  0
 18 21  1  0  0  0  0
 19 15  1  0  0  0  0
 20  3  1  0  0  0  0
 21 20  1  0  0  0  0
 22 13  1  0  0  0  0
 23 27  1  0  0  0  0
 25  1  1  0  0  0  0
 26  9  1  0  0  0  0
 28 24  1  0  0  0  0
 29 25  1  0  0  0  0
 30 14  1  0  0  0  0
 31 30  1  0  0  0  0
 32 31  1  0  0  0  0
 33 35  2  0  0  0  0
 34 35  1  0  0  0  0
 35 32  1  0  0  0  0
 36 18  1  0  0  0  0
 37 36  1  0  0  0  0
 38 37  1  0  0  0  0
M  END
>  <MODEL>
2

>  <REMARK>
 VINA RESULT:       0.3      2.443      3.587
  Name = 
  6 active torsions:
  status: ('A' for Active; 'I' for Inactive)
    1  A    between atoms: C_11  and  C_19
    2  A    between atoms: C_11  and  N_25
    3  A    between atoms: S_14  and  C_33
    4  A    between atoms: C_17  and  N_25
    5  A    between atoms: C_19  and  C_27
    6  A    between atoms: C_23  and  C_33
                            x       y       z     vdW  Elec       q    Type
                         _______ _______ _______ _____ _____    ______ ____

>  <TORSDO>
F 6

$$$$
