=
 OpenBabel11052411473D

 40 43  0  0  1  0  0  0  0  0999 V2000
  160.6060  207.3630  153.0640 N   0  0  0  0  0  2  0  0  0  0  0  0
  160.9670  207.9840  154.3270 C   0  0  0  0  0  2  0  0  0  0  0  0
  160.4220  209.9050  152.8150 C   0  0  0  0  0  2  0  0  0  0  0  0
  159.7660  211.5320  155.0920 C   0  0  0  0  0  2  0  0  0  0  0  0
  159.9110  210.0220  155.2580 C   0  0  0  0  0  2  0  0  0  0  0  0
  160.8840  209.4940  154.2130 C   0  0  1  0  0  3  0  0  0  0  0  0
  160.2330  211.4210  152.7630 C   0  0  0  0  0  2  0  0  0  0  0  0
  159.2450  211.8440  153.7590 N   0  0  0  0  0  0  0  0  0  0  0  0
  159.1630  213.2930  153.6770 C   0  0  0  0  0  2  0  0  0  0  0  0
  157.8090  213.6870  153.3240 N   0  0  0  0  0  2  0  0  0  0  0  0
  158.3750  213.8170  150.9160 N   0  0  0  0  0  2  0  0  0  0  0  0
  156.1630  214.1160  151.7060 N   0  0  0  0  0  2  0  0  0  0  0  0
  157.4010  213.8490  151.9680 C   0  0  0  0  0  0  0  0  0  0  0  0
  158.0580  214.0890  149.5190 C   0  0  0  0  0  2  0  0  0  0  0  0
  158.9430  212.9890  147.5300 N   0  0  0  0  0  2  0  0  0  0  0  0
  159.2830  213.8860  148.6370 C   0  0  2  0  0  3  0  0  0  0  0  0
  160.1290  212.8340  146.6870 C   0  0  0  0  0  2  0  0  0  0  0  0
  160.4350  213.2980  149.4540 C   0  0  0  0  0  2  0  0  0  0  0  0
  161.6110  213.0060  148.5240 C   0  0  0  0  0  2  0  0  0  0  0  0
  161.1780  212.1370  147.4310 N   0  0  0  0  0  2  0  0  0  0  0  0
  161.5610  206.2880  152.8330 C   0  0  2  0  0  3  0  0  0  0  0  0
  162.4660  206.6410  151.6620 C   0  0  0  0  0  2  0  0  0  0  0  0
  161.6650  207.2040  150.4950 C   0  0  2  0  0  3  0  0  0  0  0  0
  161.7510  206.2940  149.2970 C   0  0  0  0  0  2  0  0  0  0  0  0
  162.0250  208.5810  148.6990 N   0  0  0  0  0  2  0  0  0  0  0  0
  161.0810  207.0670  147.0490 C   0  0  0  0  0  1  0  0  0  0  0  0
  162.2260  208.4800  150.0860 N   0  0  0  0  0  2  0  0  0  0  0  0
  162.0900  207.2270  148.1680 C   0  0  2  0  0  3  0  0  0  0  0  0
  160.8360  205.0620  152.5290 N   0  0  0  0  0  2  0  0  0  0  0  0
  161.8040  204.0530  152.1140 C   0  0  0  0  0  2  0  0  0  0  0  0
  161.1240  202.8500  151.6440 N   0  0  0  0  0  2  0  0  0  0  0  0
  160.7910  203.0850  147.9390 C   0  0  0  0  0  3  0  0  0  0  0  0
  161.1380  201.1110  149.8870 C   0  0  0  0  0  3  0  0  0  0  0  0
  161.0380  202.4580  150.2700 C   0  0  0  0  0  0  0  0  0  0  0  0
  160.8890  201.7390  147.5550 C   0  0  0  0  0  0  0  0  0  0  0  0
  160.8660  203.4410  149.2890 C   0  0  0  0  0  3  0  0  0  0  0  0
  161.0630  200.7560  148.5390 C   0  0  0  0  0  3  0  0  0  0  0  0
  160.8910  200.0320  145.7480 O   0  0  0  0  0  1  0  0  0  0  0  0
  160.8060  201.3670  146.1310 C   0  0  0  0  0  0  0  0  0  0  0  0
  160.6560  202.2540  145.2480 O   0  0  0  0  0  0  0  0  0  0  0  0
  1  2  1  0  0  0  0
  3  6  1  0  0  0  0
  4  5  1  0  0  0  0
  6  2  1  6  0  0  0
  6  5  1  0  0  0  0
  7  3  1  0  0  0  0
  7  8  1  0  0  0  0
  8  4  1  0  0  0  0
  9  8  1  0  0  0  0
 10  9  1  0  0  0  0
 11 13  1  0  0  0  0
 12 13  2  0  0  0  0
 13 10  1  0  0  0  0
 14 11  1  0  0  0  0
 15 16  1  0  0  0  0
 16 18  1  0  0  0  0
 16 14  1  1  0  0  0
 17 20  1  0  0  0  0
 17 15  1  0  0  0  0
 19 18  1  0  0  0  0
 20 19  1  0  0  0  0
 21 22  1  6  0  0  0
 21  1  1  0  0  0  0
 23 22  1  1  0  0  0
 24 23  1  0  0  0  0
 25 27  1  0  0  0  0
 27 23  1  0  0  0  0
 28 26  1  6  0  0  0
 28 25  1  0  0  0  0
 28 24  1  0  0  0  0
 29 21  1  0  0  0  0
 30 29  1  0  0  0  0
 31 30  1  0  0  0  0
 32 36  1  0  0  0  0
 33 34  1  0  0  0  0
 34 31  1  0  0  0  0
 35 32  2  0  0  0  0
 35 37  1  0  0  0  0
 36 34  2  0  0  0  0
 37 33  2  0  0  0  0
 38 39  1  0  0  0  0
 39 35  1  0  0  0  0
 40 39  2  0  0  0  0
M  END
>  <MODEL>
1

>  <REMARK>
 VINA RESULT:      -7.7      0.000      0.000
  Name = 
  14 active torsions:
  status: ('A' for Active; 'I' for Inactive)
    1  A    between atoms: N_1  and  C_21
    2  A    between atoms: N_1  and  C_25
    3  A    between atoms: C_3  and  N_12
    4  A    between atoms: C_3  and  N_38
    5  A    between atoms: C_4  and  C_7
    6  A    between atoms: C_4  and  N_17
    7  A    between atoms: C_6  and  C_9
    8  A    between atoms: C_6  and  C_25
    9  A    between atoms: C_14  and  C_31
   10  A    between atoms: N_16  and  C_23
   11  A    between atoms: N_16  and  C_36
   12  A    between atoms: C_21  and  C_22
   13  A    between atoms: C_25  and  N_34
   14  A    between atoms: N_34  and  C_36
                            x       y       z     vdW  Elec       q    Type
                         _______ _______ _______ _____ _____    ______ ____

>  <TORSDO>
F 14

$$$$
=
 OpenBabel11052411473D

 40 43  0  0  1  0  0  0  0  0999 V2000
  160.8310  207.2260  152.2960 N   0  0  0  0  0  2  0  0  0  0  0  0
  161.9610  206.8350  151.4710 C   0  0  0  0  0  2  0  0  0  0  0  0
  161.7870  207.8650  149.1950 C   0  0  0  0  0  2  0  0  0  0  0  0
  162.3220  210.4590  150.3100 C   0  0  0  0  0  2  0  0  0  0  0  0
  161.9560  209.3010  151.2330 C   0  0  0  0  0  2  0  0  0  0  0  0
  162.3950  207.9910  150.5910 C   0  0  1  0  0  3  0  0  0  0  0  0
  162.1430  209.1000  148.3670 C   0  0  0  0  0  2  0  0  0  0  0  0
  161.6410  210.3110  149.0210 N   0  0  0  0  0  0  0  0  0  0  0  0
  162.0620  211.4340  148.2000 C   0  0  0  0  0  2  0  0  0  0  0  0
  161.1680  212.5600  148.4150 N   0  0  0  0  0  2  0  0  0  0  0  0
  160.3230  212.4540  146.0900 N   0  0  0  0  0  2  0  0  0  0  0  0
  159.4180  213.9460  147.6890 N   0  0  0  0  0  2  0  0  0  0  0  0
  160.2510  212.9950  147.4150 C   0  0  0  0  0  0  0  0  0  0  0  0
  159.5020  212.9270  144.9820 C   0  0  0  0  0  2  0  0  0  0  0  0
  160.0790  211.8250  142.8840 N   0  0  0  0  0  2  0  0  0  0  0  0
  160.3200  213.0170  143.7010 C   0  0  2  0  0  3  0  0  0  0  0  0
  160.8570  211.9510  141.6510 C   0  0  0  0  0  2  0  0  0  0  0  0
  161.8100  213.1360  144.0290 C   0  0  0  0  0  2  0  0  0  0  0  0
  162.6120  213.1160  142.7290 C   0  0  0  0  0  2  0  0  0  0  0  0
  162.2870  211.9160  141.9610 N   0  0  0  0  0  2  0  0  0  0  0  0
  160.7870  206.2990  153.4170 C   0  0  2  0  0  3  0  0  0  0  0  0
  161.4500  206.9260  154.6350 C   0  0  0  0  0  2  0  0  0  0  0  0
  160.4530  207.7360  155.4520 C   0  0  2  0  0  3  0  0  0  0  0  0
  160.3000  209.1250  154.8890 C   0  0  0  0  0  2  0  0  0  0  0  0
  160.4880  209.1430  157.2610 N   0  0  0  0  0  2  0  0  0  0  0  0
  159.2310  210.9280  156.1950 C   0  0  0  0  0  1  0  0  0  0  0  0
  160.9450  207.8920  156.8100 N   0  0  0  0  0  2  0  0  0  0  0  0
  160.4340  210.0130  156.0960 C   0  0  2  0  0  3  0  0  0  0  0  0
  161.4960  205.0780  153.0580 N   0  0  0  0  0  2  0  0  0  0  0  0
  160.5260  204.1310  152.5200 C   0  0  0  0  0  2  0  0  0  0  0  0
  161.2030  203.0520  151.8060 N   0  0  0  0  0  2  0  0  0  0  0  0
  161.1820  203.7860  148.1520 C   0  0  0  0  0  3  0  0  0  0  0  0
  160.9640  201.5710  149.8410 C   0  0  0  0  0  3  0  0  0  0  0  0
  161.1290  202.8520  150.3900 C   0  0  0  0  0  0  0  0  0  0  0  0
  161.0150  202.5070  147.6020 C   0  0  0  0  0  0  0  0  0  0  0  0
  161.2390  203.9560  149.5380 C   0  0  0  0  0  3  0  0  0  0  0  0
  160.9070  201.4010  148.4560 C   0  0  0  0  0  3  0  0  0  0  0  0
  160.5350  201.1210  145.5940 O   0  0  0  0  0  1  0  0  0  0  0  0
  160.9520  202.3310  146.1390 C   0  0  0  0  0  0  0  0  0  0  0  0
  161.2750  203.2760  145.3700 O   0  0  0  0  0  0  0  0  0  0  0  0
  1 21  1  0  0  0  0
  2  1  1  0  0  0  0
  3  6  1  0  0  0  0
  4  5  1  0  0  0  0
  6  5  1  0  0  0  0
  6  2  1  1  0  0  0
  7  8  1  0  0  0  0
  7  3  1  0  0  0  0
  8  4  1  0  0  0  0
  9 10  1  0  0  0  0
  9  8  1  0  0  0  0
 11 13  1  0  0  0  0
 13 12  2  0  0  0  0
 13 10  1  0  0  0  0
 14 11  1  0  0  0  0
 15 16  1  0  0  0  0
 16 18  1  0  0  0  0
 16 14  1  1  0  0  0
 17 20  1  0  0  0  0
 17 15  1  0  0  0  0
 19 18  1  0  0  0  0
 20 19  1  0  0  0  0
 21 22  1  1  0  0  0
 23 22  1  6  0  0  0
 23 27  1  0  0  0  0
 24 23  1  0  0  0  0
 24 28  1  0  0  0  0
 27 25  1  0  0  0  0
 28 26  1  1  0  0  0
 28 25  1  0  0  0  0
 29 21  1  0  0  0  0
 30 29  1  0  0  0  0
 31 30  1  0  0  0  0
 32 36  1  0  0  0  0
 33 34  1  0  0  0  0
 34 31  1  0  0  0  0
 35 32  2  0  0  0  0
 35 37  1  0  0  0  0
 36 34  2  0  0  0  0
 37 33  2  0  0  0  0
 38 39  1  0  0  0  0
 39 35  1  0  0  0  0
 40 39  2  0  0  0  0
M  END
>  <MODEL>
2

>  <REMARK>
 VINA RESULT:      -7.5      2.291      4.760
  Name = 
  14 active torsions:
  status: ('A' for Active; 'I' for Inactive)
    1  A    between atoms: N_1  and  C_21
    2  A    between atoms: N_1  and  C_25
    3  A    between atoms: C_3  and  N_12
    4  A    between atoms: C_3  and  N_38
    5  A    between atoms: C_4  and  C_7
    6  A    between atoms: C_4  and  N_17
    7  A    between atoms: C_6  and  C_9
    8  A    between atoms: C_6  and  C_25
    9  A    between atoms: C_14  and  C_31
   10  A    between atoms: N_16  and  C_23
   11  A    between atoms: N_16  and  C_36
   12  A    between atoms: C_21  and  C_22
   13  A    between atoms: C_25  and  N_34
   14  A    between atoms: N_34  and  C_36
                            x       y       z     vdW  Elec       q    Type
                         _______ _______ _______ _____ _____    ______ ____

>  <TORSDO>
F 14

$$$$
=
 OpenBabel11052411473D

 40 43  0  0  1  0  0  0  0  0999 V2000
  161.5410  208.4820  150.5500 N   0  0  0  0  0  2  0  0  0  0  0  0
  162.1940  207.3800  151.2350 C   0  0  0  0  0  2  0  0  0  0  0  0
  161.0980  205.7100  149.7240 C   0  0  0  0  0  2  0  0  0  0  0  0
  161.1800  203.7400  151.8160 C   0  0  0  0  0  2  0  0  0  0  0  0
  162.0110  205.0140  151.9440 C   0  0  0  0  0  2  0  0  0  0  0  0
  161.3280  206.1360  151.1740 C   0  0  1  0  0  3  0  0  0  0  0  0
  160.3240  204.3920  149.6950 C   0  0  0  0  0  2  0  0  0  0  0  0
  161.0690  203.3500  150.4080 N   0  0  0  0  0  0  0  0  0  0  0  0
  160.2470  202.1520  150.3750 C   0  0  0  0  0  2  0  0  0  0  0  0
  160.9790  201.0750  149.7290 N   0  0  0  0  0  2  0  0  0  0  0  0
  160.5490  202.0060  147.4750 N   0  0  0  0  0  2  0  0  0  0  0  0
  161.9380  200.1190  147.8120 N   0  0  0  0  0  2  0  0  0  0  0  0
  161.2070  201.0560  148.3230 C   0  0  0  0  0  0  0  0  0  0  0  0
  160.6360  201.9830  146.0210 C   0  0  0  0  0  2  0  0  0  0  0  0
  162.0280  203.8880  146.6370 N   0  0  0  0  0  2  0  0  0  0  0  0
  161.4290  203.1770  145.5060 C   0  0  2  0  0  3  0  0  0  0  0  0
  162.8030  205.0130  146.1110 C   0  0  0  0  0  2  0  0  0  0  0  0
  160.5180  204.1190  144.7160 C   0  0  0  0  0  2  0  0  0  0  0  0
  161.3130  205.3570  144.3050 C   0  0  0  0  0  2  0  0  0  0  0  0
  161.9050  205.9840  145.4850 N   0  0  0  0  0  2  0  0  0  0  0  0
  162.1110  209.7100  151.0850 C   0  0  2  0  0  3  0  0  0  0  0  0
  161.1330  210.3560  152.0560 C   0  0  0  0  0  2  0  0  0  0  0  0
  161.5340  210.0920  153.5010 C   0  0  2  0  0  3  0  0  0  0  0  0
  160.7770  208.9160  154.0620 C   0  0  0  0  0  2  0  0  0  0  0  0
  160.8560  210.7350  155.5940 N   0  0  0  0  0  2  0  0  0  0  0  0
  160.6980  208.4830  156.4930 C   0  0  0  0  0  1  0  0  0  0  0  0
  161.1850  211.2380  154.3230 N   0  0  0  0  0  2  0  0  0  0  0  0
  160.2670  209.4210  155.3840 C   0  0  2  0  0  3  0  0  0  0  0  0
  162.3790  210.6310  149.9890 N   0  0  0  0  0  2  0  0  0  0  0  0
  161.2420  211.5350  149.8660 C   0  0  0  0  0  2  0  0  0  0  0  0
  161.5920  212.6940  149.0500 N   0  0  0  0  0  2  0  0  0  0  0  0
  160.1760  212.3810  145.6150 C   0  0  0  0  0  3  0  0  0  0  0  0
  162.5680  213.1680  146.8280 C   0  0  0  0  0  3  0  0  0  0  0  0
  161.4950  212.7320  147.6210 C   0  0  0  0  0  0  0  0  0  0  0  0
  161.2480  212.8140  144.8210 C   0  0  0  0  0  0  0  0  0  0  0  0
  160.3000  212.3400  147.0070 C   0  0  0  0  0  3  0  0  0  0  0  0
  162.4440  213.2090  145.4380 C   0  0  0  0  0  3  0  0  0  0  0  0
  160.1170  213.6160  142.7570 O   0  0  0  0  0  1  0  0  0  0  0  0
  161.1150  212.8520  143.3540 C   0  0  0  0  0  0  0  0  0  0  0  0
  161.9060  212.1940  142.6250 O   0  0  0  0  0  0  0  0  0  0  0  0
  1 21  1  0  0  0  0
  1  2  1  0  0  0  0
  3  6  1  0  0  0  0
  4  5  1  0  0  0  0
  6  2  1  6  0  0  0
  6  5  1  0  0  0  0
  7  3  1  0  0  0  0
  7  8  1  0  0  0  0
  8  4  1  0  0  0  0
  9  8  1  0  0  0  0
 10  9  1  0  0  0  0
 11 13  1  0  0  0  0
 12 13  2  0  0  0  0
 13 10  1  0  0  0  0
 14 11  1  0  0  0  0
 16 14  1  1  0  0  0
 16 15  1  0  0  0  0
 17 15  1  0  0  0  0
 18 16  1  0  0  0  0
 19 18  1  0  0  0  0
 19 20  1  0  0  0  0
 20 17  1  0  0  0  0
 21 22  1  1  0  0  0
 23 22  1  6  0  0  0
 23 24  1  0  0  0  0
 23 27  1  0  0  0  0
 24 28  1  0  0  0  0
 27 25  1  0  0  0  0
 28 25  1  0  0  0  0
 28 26  1  1  0  0  0
 29 21  1  0  0  0  0
 30 29  1  0  0  0  0
 31 30  1  0  0  0  0
 32 36  1  0  0  0  0
 33 34  1  0  0  0  0
 34 31  1  0  0  0  0
 35 37  1  0  0  0  0
 35 32  2  0  0  0  0
 36 34  2  0  0  0  0
 37 33  2  0  0  0  0
 38 39  1  0  0  0  0
 39 35  1  0  0  0  0
 40 39  2  0  0  0  0
M  END
>  <MODEL>
3

>  <REMARK>
 VINA RESULT:      -7.2      3.474      9.512
  Name = 
  14 active torsions:
  status: ('A' for Active; 'I' for Inactive)
    1  A    between atoms: N_1  and  C_21
    2  A    between atoms: N_1  and  C_25
    3  A    between atoms: C_3  and  N_12
    4  A    between atoms: C_3  and  N_38
    5  A    between atoms: C_4  and  C_7
    6  A    between atoms: C_4  and  N_17
    7  A    between atoms: C_6  and  C_9
    8  A    between atoms: C_6  and  C_25
    9  A    between atoms: C_14  and  C_31
   10  A    between atoms: N_16  and  C_23
   11  A    between atoms: N_16  and  C_36
   12  A    between atoms: C_21  and  C_22
   13  A    between atoms: C_25  and  N_34
   14  A    between atoms: N_34  and  C_36
                            x       y       z     vdW  Elec       q    Type
                         _______ _______ _______ _____ _____    ______ ____

>  <TORSDO>
F 14

$$$$
=
 OpenBabel11052411473D

 40 43  0  0  1  0  0  0  0  0999 V2000
  160.9900  206.5290  153.2340 N   0  0  0  0  0  2  0  0  0  0  0  0
  161.6230  207.4430  154.1690 C   0  0  0  0  0  2  0  0  0  0  0  0
  160.2450  208.6910  155.8480 C   0  0  0  0  0  2  0  0  0  0  0  0
  160.6670  211.1380  154.4000 C   0  0  0  0  0  2  0  0  0  0  0  0
  161.5290  209.9180  154.0900 C   0  0  0  0  0  2  0  0  0  0  0  0
  160.7390  208.6540  154.4020 C   0  0  1  0  0  3  0  0  0  0  0  0
  159.4560  209.9780  156.0870 C   0  0  0  0  0  2  0  0  0  0  0  0
  160.2980  211.1470  155.8180 N   0  0  0  0  0  0  0  0  0  0  0  0
  159.4630  212.3180  156.0200 C   0  0  0  0  0  2  0  0  0  0  0  0
  158.0860  212.0030  155.6740 N   0  0  0  0  0  2  0  0  0  0  0  0
  158.0530  213.7000  153.8700 N   0  0  0  0  0  2  0  0  0  0  0  0
  156.2360  212.2300  154.2480 N   0  0  0  0  0  2  0  0  0  0  0  0
  157.4310  212.6110  154.5630 C   0  0  0  0  0  0  0  0  0  0  0  0
  157.4020  214.4500  152.8030 C   0  0  0  0  0  2  0  0  0  0  0  0
  158.9070  214.4110  150.8830 N   0  0  0  0  0  2  0  0  0  0  0  0
  157.6910  213.8210  151.4460 C   0  0  2  0  0  3  0  0  0  0  0  0
  159.1710  213.7700  149.5940 C   0  0  0  0  0  2  0  0  0  0  0  0
  156.5110  214.0420  150.4970 C   0  0  0  0  0  2  0  0  0  0  0  0
  156.8700  213.4960  149.1160 C   0  0  0  0  0  2  0  0  0  0  0  0
  158.1110  214.1090  148.6450 N   0  0  0  0  0  2  0  0  0  0  0  0
  162.0060  206.1440  152.2660 C   0  0  2  0  0  3  0  0  0  0  0  0
  161.5380  206.4820  150.8590 C   0  0  0  0  0  2  0  0  0  0  0  0
  162.3540  207.6210  150.2630 C   0  0  2  0  0  3  0  0  0  0  0  0
  161.6870  208.9480  150.5120 C   0  0  0  0  0  2  0  0  0  0  0  0
  162.4830  208.7590  148.2780 N   0  0  0  0  0  2  0  0  0  0  0  0
  162.3560  210.9740  149.2670 C   0  0  0  0  0  1  0  0  0  0  0  0
  162.4370  207.4630  148.8210 N   0  0  0  0  0  2  0  0  0  0  0  0
  161.7030  209.6110  149.1620 C   0  0  2  0  0  3  0  0  0  0  0  0
  162.2400  204.7090  152.3640 N   0  0  0  0  0  2  0  0  0  0  0  0
  160.9450  204.0380  152.3920 C   0  0  0  0  0  2  0  0  0  0  0  0
  161.0360  202.7180  151.7760 N   0  0  0  0  0  2  0  0  0  0  0  0
  160.8290  203.3710  148.1120 C   0  0  0  0  0  3  0  0  0  0  0  0
  161.0770  201.1860  149.8360 C   0  0  0  0  0  3  0  0  0  0  0  0
  160.9880  202.4840  150.3640 C   0  0  0  0  0  0  0  0  0  0  0  0
  160.9160  202.0750  147.5830 C   0  0  0  0  0  0  0  0  0  0  0  0
  160.8650  203.5730  149.4950 C   0  0  0  0  0  3  0  0  0  0  0  0
  161.0420  200.9840  148.4550 C   0  0  0  0  0  3  0  0  0  0  0  0
  160.6610  200.5920  145.6030 O   0  0  0  0  0  1  0  0  0  0  0  0
  160.8740  201.8650  146.1240 C   0  0  0  0  0  0  0  0  0  0  0  0
  161.0300  202.8360  145.3360 O   0  0  0  0  0  0  0  0  0  0  0  0
  1  2  1  0  0  0  0
  3  7  1  0  0  0  0
  4  8  1  0  0  0  0
  5  4  1  0  0  0  0
  5  6  1  0  0  0  0
  6  2  1  1  0  0  0
  6  3  1  0  0  0  0
  8  9  1  0  0  0  0
  8  7  1  0  0  0  0
 10  9  1  0  0  0  0
 11 13  1  0  0  0  0
 12 13  2  0  0  0  0
 13 10  1  0  0  0  0
 14 11  1  0  0  0  0
 15 16  1  0  0  0  0
 16 14  1  1  0  0  0
 17 15  1  0  0  0  0
 18 16  1  0  0  0  0
 19 18  1  0  0  0  0
 20 19  1  0  0  0  0
 20 17  1  0  0  0  0
 21 22  1  6  0  0  0
 21 29  1  0  0  0  0
 21  1  1  0  0  0  0
 23 24  1  0  0  0  0
 23 22  1  6  0  0  0
 25 27  1  0  0  0  0
 25 28  1  0  0  0  0
 27 23  1  0  0  0  0
 28 26  1  1  0  0  0
 28 24  1  0  0  0  0
 29 30  1  0  0  0  0
 31 30  1  0  0  0  0
 32 36  1  0  0  0  0
 33 34  1  0  0  0  0
 34 31  1  0  0  0  0
 35 32  2  0  0  0  0
 35 37  1  0  0  0  0
 36 34  2  0  0  0  0
 37 33  2  0  0  0  0
 38 39  1  0  0  0  0
 39 35  1  0  0  0  0
 40 39  2  0  0  0  0
M  END
>  <MODEL>
4

>  <REMARK>
 VINA RESULT:      -7.1      1.530      2.387
  Name = 
  14 active torsions:
  status: ('A' for Active; 'I' for Inactive)
    1  A    between atoms: N_1  and  C_21
    2  A    between atoms: N_1  and  C_25
    3  A    between atoms: C_3  and  N_12
    4  A    between atoms: C_3  and  N_38
    5  A    between atoms: C_4  and  C_7
    6  A    between atoms: C_4  and  N_17
    7  A    between atoms: C_6  and  C_9
    8  A    between atoms: C_6  and  C_25
    9  A    between atoms: C_14  and  C_31
   10  A    between atoms: N_16  and  C_23
   11  A    between atoms: N_16  and  C_36
   12  A    between atoms: C_21  and  C_22
   13  A    between atoms: C_25  and  N_34
   14  A    between atoms: N_34  and  C_36
                            x       y       z     vdW  Elec       q    Type
                         _______ _______ _______ _____ _____    ______ ____

>  <TORSDO>
F 14

$$$$
=
 OpenBabel11052411473D

 40 43  0  0  1  0  0  0  0  0999 V2000
  162.3610  206.0080  151.6930 N   0  0  0  0  0  2  0  0  0  0  0  0
  161.4710  206.6520  150.7430 C   0  0  0  0  0  2  0  0  0  0  0  0
  161.6990  208.1880  148.7780 C   0  0  0  0  0  2  0  0  0  0  0  0
  162.1640  210.4070  150.5450 C   0  0  0  0  0  2  0  0  0  0  0  0
  161.6080  209.0990  151.1030 C   0  0  0  0  0  2  0  0  0  0  0  0
  162.0860  207.9420  150.2360 C   0  0  1  0  0  3  0  0  0  0  0  0
  162.2330  209.5490  148.3290 C   0  0  0  0  0  2  0  0  0  0  0  0
  161.6870  210.6130  149.1760 N   0  0  0  0  0  0  0  0  0  0  0  0
  162.2790  211.8570  148.7150 C   0  0  0  0  0  2  0  0  0  0  0  0
  161.3000  212.9280  148.8060 N   0  0  0  0  0  2  0  0  0  0  0  0
  160.4000  212.4220  146.5550 N   0  0  0  0  0  2  0  0  0  0  0  0
  159.4190  214.0520  147.9640 N   0  0  0  0  0  2  0  0  0  0  0  0
  160.3210  213.1410  147.7920 C   0  0  0  0  0  0  0  0  0  0  0  0
  159.5100  212.6640  145.4260 C   0  0  0  0  0  2  0  0  0  0  0  0
  160.1380  211.7680  143.2460 N   0  0  0  0  0  2  0  0  0  0  0  0
  160.3060  212.9070  144.1510 C   0  0  2  0  0  3  0  0  0  0  0  0
  160.8920  212.0420  142.0220 C   0  0  0  0  0  2  0  0  0  0  0  0
  161.7870  213.1030  144.4790 C   0  0  0  0  0  2  0  0  0  0  0  0
  162.5760  213.2380  143.1770 C   0  0  0  0  0  2  0  0  0  0  0  0
  162.3240  212.0810  142.3200 N   0  0  0  0  0  2  0  0  0  0  0  0
  161.5580  205.0550  152.4450 C   0  0  2  0  0  3  0  0  0  0  0  0
  160.5810  204.3510  151.5140 C   0  0  0  0  0  2  0  0  0  0  0  0
  161.2900  203.3170  150.6500 C   0  0  2  0  0  3  0  0  0  0  0  0
  160.6710  203.2480  149.2780 C   0  0  0  0  0  2  0  0  0  0  0  0
  161.0930  201.0840  150.1720 N   0  0  0  0  0  2  0  0  0  0  0  0
  161.1280  201.3550  147.7580 C   0  0  0  0  0  1  0  0  0  0  0  0
  161.1360  201.9980  151.2400 N   0  0  0  0  0  2  0  0  0  0  0  0
  160.4670  201.7750  149.0560 C   0  0  2  0  0  3  0  0  0  0  0  0
  160.8130  205.7650  153.4760 N   0  0  0  0  0  2  0  0  0  0  0  0
  161.6950  206.7650  154.0670 C   0  0  0  0  0  2  0  0  0  0  0  0
  161.0350  207.4380  155.1820 N   0  0  0  0  0  2  0  0  0  0  0  0
  159.2860  210.6190  156.0290 C   0  0  0  0  0  3  0  0  0  0  0  0
  161.4220  209.7660  154.4420 C   0  0  0  0  0  3  0  0  0  0  0  0
  160.6960  208.8300  155.1960 C   0  0  0  0  0  0  0  0  0  0  0  0
  160.0090  211.5550  155.2750 C   0  0  0  0  0  0  0  0  0  0  0  0
  159.6290  209.2650  155.9890 C   0  0  0  0  0  3  0  0  0  0  0  0
  161.0800  211.1180  154.4830 C   0  0  0  0  0  3  0  0  0  0  0  0
  158.9950  213.5740  154.2360 O   0  0  0  0  0  0  0  0  0  0  0  0
  159.6430  212.9830  155.3170 C   0  0  0  0  0  0  0  0  0  0  0  0
  159.9130  213.6810  156.3310 O   0  0  0  0  0  1  0  0  0  0  0  0
  1 21  1  0  0  0  0
  2  1  1  0  0  0  0
  3  6  1  0  0  0  0
  4  5  1  0  0  0  0
  6  2  1  1  0  0  0
  6  5  1  0  0  0  0
  7  3  1  0  0  0  0
  7  8  1  0  0  0  0
  8  4  1  0  0  0  0
  9 10  1  0  0  0  0
  9  8  1  0  0  0  0
 11 13  1  0  0  0  0
 13 12  2  0  0  0  0
 13 10  1  0  0  0  0
 14 11  1  0  0  0  0
 15 16  1  0  0  0  0
 16 18  1  0  0  0  0
 16 14  1  1  0  0  0
 17 20  1  0  0  0  0
 17 15  1  0  0  0  0
 19 18  1  0  0  0  0
 20 19  1  0  0  0  0
 21 22  1  6  0  0  0
 21 29  1  0  0  0  0
 23 27  1  0  0  0  0
 23 22  1  1  0  0  0
 24 23  1  0  0  0  0
 25 27  1  0  0  0  0
 28 26  1  6  0  0  0
 28 24  1  0  0  0  0
 28 25  1  0  0  0  0
 29 30  1  0  0  0  0
 30 31  1  0  0  0  0
 31 34  1  0  0  0  0
 33 37  2  0  0  0  0
 33 34  1  0  0  0  0
 34 36  2  0  0  0  0
 35 39  1  0  0  0  0
 35 32  2  0  0  0  0
 36 32  1  0  0  0  0
 37 35  1  0  0  0  0
 38 39  2  0  0  0  0
 39 40  1  0  0  0  0
M  END
>  <MODEL>
5

>  <REMARK>
 VINA RESULT:      -6.8      4.029      7.305
  Name = 
  14 active torsions:
  status: ('A' for Active; 'I' for Inactive)
    1  A    between atoms: N_1  and  C_21
    2  A    between atoms: N_1  and  C_25
    3  A    between atoms: C_3  and  N_12
    4  A    between atoms: C_3  and  N_38
    5  A    between atoms: C_4  and  C_7
    6  A    between atoms: C_4  and  N_17
    7  A    between atoms: C_6  and  C_9
    8  A    between atoms: C_6  and  C_25
    9  A    between atoms: C_14  and  C_31
   10  A    between atoms: N_16  and  C_23
   11  A    between atoms: N_16  and  C_36
   12  A    between atoms: C_21  and  C_22
   13  A    between atoms: C_25  and  N_34
   14  A    between atoms: N_34  and  C_36
                            x       y       z     vdW  Elec       q    Type
                         _______ _______ _______ _____ _____    ______ ____

>  <TORSDO>
F 14

$$$$
=
 OpenBabel11052411473D

 40 43  0  0  1  0  0  0  0  0999 V2000
  161.8550  209.5060  149.7610 N   0  0  0  0  0  2  0  0  0  0  0  0
  162.1350  210.9310  149.7880 C   0  0  0  0  0  2  0  0  0  0  0  0
  160.8660  212.6600  148.4940 C   0  0  0  0  0  2  0  0  0  0  0  0
  162.9740  212.7680  146.5420 C   0  0  0  0  0  2  0  0  0  0  0  0
  163.2210  212.0860  147.8840 C   0  0  0  0  0  2  0  0  0  0  0  0
  161.9040  211.5390  148.4180 C   0  0  1  0  0  3  0  0  0  0  0  0
  160.7390  213.3320  147.1270 C   0  0  0  0  0  2  0  0  0  0  0  0
  162.0320  213.8780  146.7070 N   0  0  0  0  0  0  0  0  0  0  0  0
  161.8350  214.4520  145.3860 C   0  0  0  0  0  2  0  0  0  0  0  0
  160.5050  214.1170  144.9020 N   0  0  0  0  0  2  0  0  0  0  0  0
  161.4220  212.7480  143.0530 N   0  0  0  0  0  2  0  0  0  0  0  0
  159.0980  212.8790  143.4880 N   0  0  0  0  0  2  0  0  0  0  0  0
  160.3040  213.2090  143.8220 C   0  0  0  0  0  0  0  0  0  0  0  0
  161.2910  211.9130  141.8650 C   0  0  0  0  0  2  0  0  0  0  0  0
  161.7810  213.2250  139.8680 N   0  0  0  0  0  2  0  0  0  0  0  0
  162.3470  212.2760  140.8290 C   0  0  2  0  0  3  0  0  0  0  0  0
  162.8240  213.5730  138.9020 C   0  0  0  0  0  2  0  0  0  0  0  0
  162.8310  211.0190  140.1030 C   0  0  0  0  0  2  0  0  0  0  0  0
  163.8080  211.4230  138.9990 C   0  0  0  0  0  2  0  0  0  0  0  0
  163.1780  212.3970  138.1080 N   0  0  0  0  0  2  0  0  0  0  0  0
  161.8980  209.0410  151.1390 C   0  0  2  0  0  3  0  0  0  0  0  0
  162.5260  210.1060  152.0270 C   0  0  0  0  0  2  0  0  0  0  0  0
  161.5750  210.5300  153.1380 C   0  0  2  0  0  3  0  0  0  0  0  0
  161.9590  209.8900  154.4470 C   0  0  0  0  0  2  0  0  0  0  0  0
  159.6120  209.7920  154.0650 N   0  0  0  0  0  2  0  0  0  0  0  0
  160.4000  209.8520  156.3630 C   0  0  0  0  0  1  0  0  0  0  0  0
  160.2300  210.0720  152.8330 N   0  0  0  0  0  2  0  0  0  0  0  0
  160.6610  209.3330  154.9630 C   0  0  2  0  0  3  0  0  0  0  0  0
  162.6960  207.8250  151.2090 N   0  0  0  0  0  2  0  0  0  0  0  0
  161.8930  206.7890  151.8500 C   0  0  0  0  0  2  0  0  0  0  0  0
  160.8320  206.3340  150.9560 N   0  0  0  0  0  2  0  0  0  0  0  0
  160.5550  202.7410  150.0030 C   0  0  0  0  0  3  0  0  0  0  0  0
  161.3230  205.1610  148.8350 C   0  0  0  0  0  3  0  0  0  0  0  0
  160.8970  205.1370  150.1730 C   0  0  0  0  0  0  0  0  0  0  0  0
  160.9820  202.7640  148.6670 C   0  0  0  0  0  0  0  0  0  0  0  0
  160.5130  203.9220  150.7500 C   0  0  0  0  0  3  0  0  0  0  0  0
  161.3640  203.9830  148.0890 C   0  0  0  0  0  3  0  0  0  0  0  0
  160.4840  201.4700  146.6040 O   0  0  0  0  0  0  0  0  0  0  0  0
  161.0290  201.5160  147.8830 C   0  0  0  0  0  0  0  0  0  0  0  0
  161.5650  200.4810  148.3630 O   0  0  0  0  0  1  0  0  0  0  0  0
  1  2  1  0  0  0  0
  1 21  1  0  0  0  0
  4  8  1  0  0  0  0
  4  5  1  0  0  0  0
  5  6  1  0  0  0  0
  6  3  1  0  0  0  0
  6  2  1  1  0  0  0
  7  3  1  0  0  0  0
  8  7  1  0  0  0  0
  9  8  1  0  0  0  0
 10  9  1  0  0  0  0
 11 13  1  0  0  0  0
 12 13  2  0  0  0  0
 13 10  1  0  0  0  0
 14 11  1  0  0  0  0
 15 16  1  0  0  0  0
 16 14  1  1  0  0  0
 17 15  1  0  0  0  0
 18 16  1  0  0  0  0
 19 18  1  0  0  0  0
 20 17  1  0  0  0  0
 20 19  1  0  0  0  0
 21 29  1  0  0  0  0
 21 22  1  1  0  0  0
 23 22  1  6  0  0  0
 23 24  1  0  0  0  0
 24 28  1  0  0  0  0
 25 28  1  0  0  0  0
 27 23  1  0  0  0  0
 27 25  1  0  0  0  0
 28 26  1  1  0  0  0
 29 30  1  0  0  0  0
 31 30  1  0  0  0  0
 32 36  1  0  0  0  0
 33 34  1  0  0  0  0
 34 36  2  0  0  0  0
 34 31  1  0  0  0  0
 35 32  2  0  0  0  0
 37 35  1  0  0  0  0
 37 33  2  0  0  0  0
 38 39  2  0  0  0  0
 39 40  1  0  0  0  0
 39 35  1  0  0  0  0
M  END
>  <MODEL>
6

>  <REMARK>
 VINA RESULT:      -6.8      3.703      6.501
  Name = 
  14 active torsions:
  status: ('A' for Active; 'I' for Inactive)
    1  A    between atoms: N_1  and  C_21
    2  A    between atoms: N_1  and  C_25
    3  A    between atoms: C_3  and  N_12
    4  A    between atoms: C_3  and  N_38
    5  A    between atoms: C_4  and  C_7
    6  A    between atoms: C_4  and  N_17
    7  A    between atoms: C_6  and  C_9
    8  A    between atoms: C_6  and  C_25
    9  A    between atoms: C_14  and  C_31
   10  A    between atoms: N_16  and  C_23
   11  A    between atoms: N_16  and  C_36
   12  A    between atoms: C_21  and  C_22
   13  A    between atoms: C_25  and  N_34
   14  A    between atoms: N_34  and  C_36
                            x       y       z     vdW  Elec       q    Type
                         _______ _______ _______ _____ _____    ______ ____

>  <TORSDO>
F 14

$$$$
=
 OpenBabel11052411473D

 40 43  0  0  1  0  0  0  0  0999 V2000
  162.0370  207.5720  152.3970 N   0  0  0  0  0  2  0  0  0  0  0  0
  161.6570  208.9500  152.1420 C   0  0  0  0  0  2  0  0  0  0  0  0
  160.7260  208.7850  154.4620 C   0  0  0  0  0  2  0  0  0  0  0  0
  159.3690  211.2950  154.1130 C   0  0  0  0  0  2  0  0  0  0  0  0
  160.4590  210.8810  153.1280 C   0  0  0  0  0  2  0  0  0  0  0  0
  160.5220  209.3610  153.0610 C   0  0  1  0  0  3  0  0  0  0  0  0
  159.6350  209.3090  155.3950 C   0  0  0  0  0  2  0  0  0  0  0  0
  159.6730  210.7730  155.4480 N   0  0  0  0  0  0  0  0  0  0  0  0
  158.5800  211.1880  156.3120 C   0  0  0  0  0  2  0  0  0  0  0  0
  157.3250  210.6650  155.7980 N   0  0  0  0  0  2  0  0  0  0  0  0
  156.5300  212.9250  155.1720 N   0  0  0  0  0  2  0  0  0  0  0  0
  155.3060  210.9700  154.6400 N   0  0  0  0  0  2  0  0  0  0  0  0
  156.3670  211.5020  155.1560 C   0  0  0  0  0  0  0  0  0  0  0  0
  155.5410  213.8550  154.6410 C   0  0  0  0  0  2  0  0  0  0  0  0
  155.0840  213.8900  152.2460 N   0  0  0  0  0  2  0  0  0  0  0  0
  155.9790  214.3980  153.2880 C   0  0  2  0  0  3  0  0  0  0  0  0
  155.5140  214.4490  150.9630 C   0  0  0  0  0  2  0  0  0  0  0  0
  157.4210  213.9820  152.9900 C   0  0  0  0  0  2  0  0  0  0  0  0
  157.7970  214.4480  151.5850 C   0  0  0  0  0  2  0  0  0  0  0  0
  156.8350  213.9280  150.6130 N   0  0  0  0  0  2  0  0  0  0  0  0
  162.1150  206.9090  151.1030 C   0  0  2  0  0  3  0  0  0  0  0  0
  160.8440  207.1710  150.3090 C   0  0  0  0  0  2  0  0  0  0  0  0
  161.1540  207.4350  148.8420 C   0  0  2  0  0  3  0  0  0  0  0  0
  160.3710  206.5060  147.9510 C   0  0  0  0  0  2  0  0  0  0  0  0
  162.6410  206.6960  147.2620 N   0  0  0  0  0  2  0  0  0  0  0  0
  160.9650  206.2060  145.5720 C   0  0  0  0  0  1  0  0  0  0  0  0
  162.5590  207.1710  148.5830 N   0  0  0  0  0  2  0  0  0  0  0  0
  161.4070  205.9700  147.0020 C   0  0  2  0  0  3  0  0  0  0  0  0
  162.2680  205.4750  151.3080 N   0  0  0  0  0  2  0  0  0  0  0  0
  161.0620  204.9780  151.9610 C   0  0  0  0  0  2  0  0  0  0  0  0
  160.9550  203.5300  151.8090 N   0  0  0  0  0  2  0  0  0  0  0  0
  161.1960  202.9360  148.1370 C   0  0  0  0  0  3  0  0  0  0  0  0
  160.6860  201.4730  150.4630 C   0  0  0  0  0  3  0  0  0  0  0  0
  160.9380  202.8520  150.5470 C   0  0  0  0  0  0  0  0  0  0  0  0
  160.9420  201.5590  148.0500 C   0  0  0  0  0  0  0  0  0  0  0  0
  161.1940  203.5770  149.3790 C   0  0  0  0  0  3  0  0  0  0  0  0
  160.6880  200.8330  149.2220 C   0  0  0  0  0  3  0  0  0  0  0  0
  160.2110  201.4150  145.6780 O   0  0  0  0  0  0  0  0  0  0  0  0
  160.9400  200.8860  146.7390 C   0  0  0  0  0  0  0  0  0  0  0  0
  161.6010  199.8270  146.5650 O   0  0  0  0  0  1  0  0  0  0  0  0
  2  1  1  0  0  0  0
  3  7  1  0  0  0  0
  4  8  1  0  0  0  0
  5  4  1  0  0  0  0
  6  2  1  6  0  0  0
  6  5  1  0  0  0  0
  6  3  1  0  0  0  0
  7  8  1  0  0  0  0
  8  9  1  0  0  0  0
 10  9  1  0  0  0  0
 12 13  2  0  0  0  0
 13 11  1  0  0  0  0
 13 10  1  0  0  0  0
 14 11  1  0  0  0  0
 15 16  1  0  0  0  0
 16 14  1  1  0  0  0
 17 15  1  0  0  0  0
 18 16  1  0  0  0  0
 19 18  1  0  0  0  0
 20 17  1  0  0  0  0
 20 19  1  0  0  0  0
 21 22  1  6  0  0  0
 21 29  1  0  0  0  0
 21  1  1  0  0  0  0
 23 22  1  1  0  0  0
 24 23  1  0  0  0  0
 25 27  1  0  0  0  0
 27 23  1  0  0  0  0
 28 26  1  6  0  0  0
 28 25  1  0  0  0  0
 28 24  1  0  0  0  0
 29 30  1  0  0  0  0
 31 30  1  0  0  0  0
 32 36  1  0  0  0  0
 33 34  1  0  0  0  0
 34 31  1  0  0  0  0
 35 32  2  0  0  0  0
 35 37  1  0  0  0  0
 36 34  2  0  0  0  0
 37 33  2  0  0  0  0
 38 39  2  0  0  0  0
 39 35  1  0  0  0  0
 40 39  1  0  0  0  0
M  END
>  <MODEL>
7

>  <REMARK>
 VINA RESULT:      -6.7      2.115      3.159
  Name = 
  14 active torsions:
  status: ('A' for Active; 'I' for Inactive)
    1  A    between atoms: N_1  and  C_21
    2  A    between atoms: N_1  and  C_25
    3  A    between atoms: C_3  and  N_12
    4  A    between atoms: C_3  and  N_38
    5  A    between atoms: C_4  and  C_7
    6  A    between atoms: C_4  and  N_17
    7  A    between atoms: C_6  and  C_9
    8  A    between atoms: C_6  and  C_25
    9  A    between atoms: C_14  and  C_31
   10  A    between atoms: N_16  and  C_23
   11  A    between atoms: N_16  and  C_36
   12  A    between atoms: C_21  and  C_22
   13  A    between atoms: C_25  and  N_34
   14  A    between atoms: N_34  and  C_36
                            x       y       z     vdW  Elec       q    Type
                         _______ _______ _______ _____ _____    ______ ____

>  <TORSDO>
F 14

$$$$
=
 OpenBabel11052411473D

 40 43  0  0  1  0  0  0  0  0999 V2000
  162.0140  210.2310  150.6240 N   0  0  0  0  0  2  0  0  0  0  0  0
  161.5000  211.5890  150.5960 C   0  0  0  0  0  2  0  0  0  0  0  0
  160.7810  213.4850  149.1250 C   0  0  0  0  0  2  0  0  0  0  0  0
  162.5620  212.5780  147.0590 C   0  0  0  0  0  2  0  0  0  0  0  0
  162.7020  212.0250  148.4750 C   0  0  0  0  0  2  0  0  0  0  0  0
  161.3450  212.0640  149.1650 C   0  0  1  0  0  3  0  0  0  0  0  0
  160.7460  213.9820  147.6800 C   0  0  0  0  0  2  0  0  0  0  0  0
  162.0930  213.9650  147.1050 N   0  0  0  0  0  0  0  0  0  0  0  0
  161.9640  214.4030  145.7250 C   0  0  0  0  0  2  0  0  0  0  0  0
  160.6970  213.9380  145.1820 N   0  0  0  0  0  2  0  0  0  0  0  0
  161.5060  214.1670  142.8520 N   0  0  0  0  0  2  0  0  0  0  0  0
  159.3900  213.2350  143.3630 N   0  0  0  0  0  2  0  0  0  0  0  0
  160.5080  213.7320  143.7840 C   0  0  0  0  0  0  0  0  0  0  0  0
  161.3380  214.1000  141.4060 C   0  0  0  0  0  2  0  0  0  0  0  0
  162.4060  213.3230  139.3550 N   0  0  0  0  0  2  0  0  0  0  0  0
  162.2950  213.0840  140.7960 C   0  0  2  0  0  3  0  0  0  0  0  0
  163.3500  212.3500  138.8030 C   0  0  0  0  0  2  0  0  0  0  0  0
  161.7960  211.6620  141.0550 C   0  0  0  0  0  2  0  0  0  0  0  0
  162.7140  210.6700  140.3440 C   0  0  0  0  0  2  0  0  0  0  0  0
  162.7980  211.0010  138.9220 N   0  0  0  0  0  2  0  0  0  0  0  0
  161.4290  209.5820  151.7870 C   0  0  2  0  0  3  0  0  0  0  0  0
  161.7870  210.3540  153.0490 C   0  0  0  0  0  2  0  0  0  0  0  0
  160.6160  210.4000  154.0200 C   0  0  2  0  0  3  0  0  0  0  0  0
  159.3360  210.7430  153.3030 C   0  0  0  0  0  2  0  0  0  0  0  0
  159.5660  211.9530  155.3390 N   0  0  0  0  0  2  0  0  0  0  0  0
  157.3240  211.4610  154.5420 C   0  0  0  0  0  1  0  0  0  0  0  0
  160.8340  211.4490  155.0010 N   0  0  0  0  0  2  0  0  0  0  0  0
  158.7380  211.8340  154.1480 C   0  0  2  0  0  3  0  0  0  0  0  0
  161.9490  208.2250  151.8900 N   0  0  0  0  0  2  0  0  0  0  0  0
  160.8310  207.2980  151.7580 C   0  0  0  0  0  2  0  0  0  0  0  0
  161.2890  206.0070  151.2550 N   0  0  0  0  0  2  0  0  0  0  0  0
  161.3220  206.2770  147.5370 C   0  0  0  0  0  3  0  0  0  0  0  0
  161.2070  204.2790  149.4870 C   0  0  0  0  0  3  0  0  0  0  0  0
  161.2690  205.6280  149.8740 C   0  0  0  0  0  0  0  0  0  0  0  0
  161.2580  204.9310  147.1490 C   0  0  0  0  0  0  0  0  0  0  0  0
  161.3280  206.6220  148.8910 C   0  0  0  0  0  3  0  0  0  0  0  0
  161.2020  203.9350  148.1350 C   0  0  0  0  0  3  0  0  0  0  0  0
  160.4650  205.2860  144.8200 O   0  0  0  0  0  0  0  0  0  0  0  0
  161.2480  204.5700  145.7200 C   0  0  0  0  0  0  0  0  0  0  0  0
  161.9500  203.6110  145.3000 O   0  0  0  0  0  1  0  0  0  0  0  0
  1 21  1  0  0  0  0
  2  1  1  0  0  0  0
  3  6  1  0  0  0  0
  4  8  1  0  0  0  0
  4  5  1  0  0  0  0
  5  6  1  0  0  0  0
  6  2  1  1  0  0  0
  7  3  1  0  0  0  0
  8  7  1  0  0  0  0
  9  8  1  0  0  0  0
 10  9  1  0  0  0  0
 11 13  1  0  0  0  0
 12 13  2  0  0  0  0
 13 10  1  0  0  0  0
 14 11  1  0  0  0  0
 15 16  1  0  0  0  0
 16 18  1  0  0  0  0
 16 14  1  6  0  0  0
 17 20  1  0  0  0  0
 17 15  1  0  0  0  0
 19 18  1  0  0  0  0
 20 19  1  0  0  0  0
 21 29  1  0  0  0  0
 21 22  1  1  0  0  0
 23 22  1  6  0  0  0
 23 27  1  0  0  0  0
 24 23  1  0  0  0  0
 24 28  1  0  0  0  0
 27 25  1  0  0  0  0
 28 26  1  1  0  0  0
 28 25  1  0  0  0  0
 30 29  1  0  0  0  0
 31 30  1  0  0  0  0
 32 36  1  0  0  0  0
 33 34  1  0  0  0  0
 34 31  1  0  0  0  0
 35 32  2  0  0  0  0
 35 37  1  0  0  0  0
 36 34  2  0  0  0  0
 37 33  2  0  0  0  0
 38 39  2  0  0  0  0
 39 35  1  0  0  0  0
 40 39  1  0  0  0  0
M  END
>  <MODEL>
8

>  <REMARK>
 VINA RESULT:      -6.2      3.620      6.544
  Name = 
  14 active torsions:
  status: ('A' for Active; 'I' for Inactive)
    1  A    between atoms: N_1  and  C_21
    2  A    between atoms: N_1  and  C_25
    3  A    between atoms: C_3  and  N_12
    4  A    between atoms: C_3  and  N_38
    5  A    between atoms: C_4  and  C_7
    6  A    between atoms: C_4  and  N_17
    7  A    between atoms: C_6  and  C_9
    8  A    between atoms: C_6  and  C_25
    9  A    between atoms: C_14  and  C_31
   10  A    between atoms: N_16  and  C_23
   11  A    between atoms: N_16  and  C_36
   12  A    between atoms: C_21  and  C_22
   13  A    between atoms: C_25  and  N_34
   14  A    between atoms: N_34  and  C_36
                            x       y       z     vdW  Elec       q    Type
                         _______ _______ _______ _____ _____    ______ ____

>  <TORSDO>
F 14

$$$$
=
 OpenBabel11052411473D

 40 43  0  0  1  0  0  0  0  0999 V2000
  161.9640  207.4560  152.8030 N   0  0  0  0  0  2  0  0  0  0  0  0
  160.8890  206.9110  153.6150 C   0  0  0  0  0  2  0  0  0  0  0  0
  160.8940  207.9650  155.8870 C   0  0  0  0  0  2  0  0  0  0  0  0
  159.9960  210.4490  154.7540 C   0  0  0  0  0  2  0  0  0  0  0  0
  160.5340  209.3520  153.8400 C   0  0  0  0  0  2  0  0  0  0  0  0
  160.2850  207.9960  154.4850 C   0  0  1  0  0  3  0  0  0  0  0  0
  160.3560  209.1380  156.7050 C   0  0  0  0  0  2  0  0  0  0  0  0
  160.6810  210.4070  156.0490 N   0  0  0  0  0  0  0  0  0  0  0  0
  160.0950  211.4600  156.8610 C   0  0  0  0  0  2  0  0  0  0  0  0
  158.6530  211.2830  156.9240 N   0  0  0  0  0  2  0  0  0  0  0  0
  158.2490  213.3310  155.5910 N   0  0  0  0  0  2  0  0  0  0  0  0
  156.4890  211.8890  156.2440 N   0  0  0  0  0  2  0  0  0  0  0  0
  157.7570  212.1430  156.2240 C   0  0  0  0  0  0  0  0  0  0  0  0
  157.3870  214.3200  154.9570 C   0  0  0  0  0  2  0  0  0  0  0  0
  156.5440  213.9530  152.6980 N   0  0  0  0  0  2  0  0  0  0  0  0
  157.6930  214.4320  153.4690 C   0  0  2  0  0  3  0  0  0  0  0  0
  156.8580  214.0960  151.2750 C   0  0  0  0  0  2  0  0  0  0  0  0
  158.9380  213.6130  153.1210 C   0  0  0  0  0  2  0  0  0  0  0  0
  159.1590  213.6560  151.6100 C   0  0  0  0  0  2  0  0  0  0  0  0
  157.9560  213.1980  150.9170 N   0  0  0  0  0  2  0  0  0  0  0  0
  161.9220  206.7620  151.5250 C   0  0  2  0  0  3  0  0  0  0  0  0
  162.2670  205.2930  151.7200 C   0  0  0  0  0  2  0  0  0  0  0  0
  161.1110  204.3940  151.3060 C   0  0  2  0  0  3  0  0  0  0  0  0
  161.5790  202.9770  151.0990 C   0  0  0  0  0  2  0  0  0  0  0  0
  160.1190  203.6920  149.3630 N   0  0  0  0  0  2  0  0  0  0  0  0
  160.1830  201.3250  149.9070 C   0  0  0  0  0  1  0  0  0  0  0  0
  160.5740  204.8410  150.0320 N   0  0  0  0  0  2  0  0  0  0  0  0
  160.9900  202.5990  149.7680 C   0  0  2  0  0  3  0  0  0  0  0  0
  162.8890  207.3680  150.6190 N   0  0  0  0  0  2  0  0  0  0  0  0
  162.1550  208.0450  149.5560 C   0  0  0  0  0  2  0  0  0  0  0  0
  162.6590  207.6430  148.2460 N   0  0  0  0  0  2  0  0  0  0  0  0
  162.3430  204.2970  146.6350 C   0  0  0  0  0  3  0  0  0  0  0  0
  160.8820  206.6710  146.8290 C   0  0  0  0  0  3  0  0  0  0  0  0
  162.1240  206.5630  147.4740 C   0  0  0  0  0  0  0  0  0  0  0  0
  161.1020  204.4040  145.9890 C   0  0  0  0  0  0  0  0  0  0  0  0
  162.8490  205.3700  147.3730 C   0  0  0  0  0  3  0  0  0  0  0  0
  160.3760  205.5990  146.0930 C   0  0  0  0  0  3  0  0  0  0  0  0
  159.7490  203.4990  144.1100 O   0  0  0  0  0  0  0  0  0  0  0  0
  160.5730  203.2710  145.2080 C   0  0  0  0  0  0  0  0  0  0  0  0
  160.8610  202.0870  145.5280 O   0  0  0  0  0  1  0  0  0  0  0  0
  1  2  1  0  0  0  0
  3  7  1  0  0  0  0
  4  8  1  0  0  0  0
  5  6  1  0  0  0  0
  5  4  1  0  0  0  0
  6  2  1  6  0  0  0
  6  3  1  0  0  0  0
  8  7  1  0  0  0  0
  8  9  1  0  0  0  0
  9 10  1  0  0  0  0
 11 13  1  0  0  0  0
 13 12  2  0  0  0  0
 13 10  1  0  0  0  0
 14 11  1  0  0  0  0
 15 16  1  0  0  0  0
 16 14  1  1  0  0  0
 17 15  1  0  0  0  0
 18 16  1  0  0  0  0
 19 18  1  0  0  0  0
 20 17  1  0  0  0  0
 20 19  1  0  0  0  0
 21 22  1  1  0  0  0
 21  1  1  0  0  0  0
 23 22  1  6  0  0  0
 24 23  1  0  0  0  0
 25 28  1  0  0  0  0
 25 27  1  0  0  0  0
 27 23  1  0  0  0  0
 28 26  1  1  0  0  0
 28 24  1  0  0  0  0
 29 21  1  0  0  0  0
 30 29  1  0  0  0  0
 31 30  1  0  0  0  0
 32 36  1  0  0  0  0
 33 34  1  0  0  0  0
 34 31  1  0  0  0  0
 35 37  1  0  0  0  0
 35 32  2  0  0  0  0
 36 34  2  0  0  0  0
 37 33  2  0  0  0  0
 38 39  2  0  0  0  0
 39 40  1  0  0  0  0
 39 35  1  0  0  0  0
M  END
>  <MODEL>
9

>  <REMARK>
 VINA RESULT:      -6.2      2.052      4.151
  Name = 
  14 active torsions:
  status: ('A' for Active; 'I' for Inactive)
    1  A    between atoms: N_1  and  C_21
    2  A    between atoms: N_1  and  C_25
    3  A    between atoms: C_3  and  N_12
    4  A    between atoms: C_3  and  N_38
    5  A    between atoms: C_4  and  C_7
    6  A    between atoms: C_4  and  N_17
    7  A    between atoms: C_6  and  C_9
    8  A    between atoms: C_6  and  C_25
    9  A    between atoms: C_14  and  C_31
   10  A    between atoms: N_16  and  C_23
   11  A    between atoms: N_16  and  C_36
   12  A    between atoms: C_21  and  C_22
   13  A    between atoms: C_25  and  N_34
   14  A    between atoms: N_34  and  C_36
                            x       y       z     vdW  Elec       q    Type
                         _______ _______ _______ _____ _____    ______ ____

>  <TORSDO>
F 14

$$$$
