=
 OpenBabel11052409263D

 35 40  0  0  1  0  0  0  0  0999 V2000
  160.4410  206.5070  152.7690 O   0  0  0  0  0  0  0  0  0  0  0  0
  161.4030  208.0190  155.6750 C   0  0  0  0  0  0  0  0  0  0  0  0
  161.0880  206.8600  154.9830 O   0  0  0  0  0  0  0  0  0  0  0  0
  161.7950  208.0360  156.8720 O   0  0  0  0  0  0  0  0  0  0  0  0
  161.2640  209.1890  154.8040 C   0  0  0  0  0  0  0  0  0  0  0  0
  160.7590  207.2860  153.7060 C   0  0  0  0  0  0  0  0  0  0  0  0
  160.8630  208.7450  153.6090 C   0  0  0  0  0  0  0  0  0  0  0  0
  155.2750  212.4210  155.3820 F   0  0  0  0  0  0  0  0  0  0  0  0
  162.0110  212.6270  157.2570 N   0  0  0  0  0  1  0  0  0  0  0  0
  156.5980  212.1320  155.4510 C   0  0  0  0  0  0  0  0  0  0  0  0
  159.2910  211.5140  155.5950 C   0  0  0  0  0  0  0  0  0  0  0  0
  158.5070  210.8050  154.6840 C   0  0  0  0  0  3  0  0  0  0  0  0
  162.7230  211.0500  154.8990 O   0  0  0  0  0  0  0  0  0  0  0  0
  159.7320  213.0650  157.1440 N   0  0  0  0  0  0  0  0  0  0  0  0
  157.1390  211.1240  154.6220 C   0  0  0  0  0  3  0  0  0  0  0  0
  157.4200  212.8370  156.3520 C   0  0  0  0  0  3  0  0  0  0  0  0
  160.8430  212.3840  156.7620 C   0  0  0  0  0  0  0  0  0  0  0  0
  160.6140  211.4220  155.8270 N   0  0  0  0  0  0  0  0  0  0  0  0
  158.7700  212.4990  156.3900 C   0  0  0  0  0  0  0  0  0  0  0  0
  161.5810  210.5880  155.1630 C   0  0  0  0  0  0  0  0  0  0  0  0
  161.8250  210.2930  151.9320 C   0  0  0  0  0  2  0  0  0  0  0  0
  161.3460  209.1430  151.1490 N   0  0  0  0  0  0  0  0  0  0  0  0
  160.6220  209.5920  152.3760 C   0  0  1  0  0  3  0  0  0  0  0  0
  162.3250  208.0810  151.3740 C   0  0  0  0  0  2  0  0  0  0  0  0
  162.6500  207.3880  150.0650 C   0  0  0  0  0  2  0  0  0  0  0  0
  161.4650  206.8470  149.5010 O   0  0  0  0  0  0  0  0  0  0  0  0
  160.8220  202.1450  150.2570 C   0  0  0  0  0  3  0  0  0  0  0  0
  161.4050  204.8560  147.8780 C   0  0  0  0  0  2  0  0  0  0  0  0
  161.0350  203.3620  149.6120 C   0  0  0  0  0  0  0  0  0  0  0  0
  160.9410  201.0610  148.0700 C   0  0  0  0  0  3  0  0  0  0  0  0
  161.1970  203.4390  148.2540 C   0  0  0  0  0  0  0  0  0  0  0  0
  161.1180  204.6370  150.2190 N   0  0  0  0  0  0  0  0  0  0  0  0
  160.7770  200.9820  149.4690 C   0  0  0  0  0  3  0  0  0  0  0  0
  161.1540  202.3030  147.4470 C   0  0  0  0  0  3  0  0  0  0  0  0
  161.3280  205.4810  149.2540 C   0  0  0  0  0  0  0  0  0  0  0  0
  1  6  2  0  0  0  0
  2  4  2  0  0  0  0
  3  2  1  0  0  0  0
  5 20  1  0  0  0  0
  5  2  1  0  0  0  0
  6  3  1  0  0  0  0
  7  6  1  0  0  0  0
  7  5  2  0  0  0  0
  8 10  1  0  0  0  0
 10 16  1  0  0  0  0
 11 18  1  0  0  0  0
 11 19  1  0  0  0  0
 12 11  2  0  0  0  0
 13 20  2  0  0  0  0
 15 12  1  0  0  0  0
 15 10  2  0  0  0  0
 16 19  2  0  0  0  0
 17 14  2  0  0  0  0
 17  9  1  0  0  0  0
 18 17  1  0  0  0  0
 19 14  1  0  0  0  0
 20 18  1  0  0  0  0
 21 23  1  0  0  0  0
 22 24  1  0  0  0  0
 22 21  1  0  0  0  0
 22 23  1  0  0  0  0
 23  7  1  1  0  0  0
 25 24  1  0  0  0  0
 26 25  1  0  0  0  0
 28 31  1  0  0  0  0
 28 35  1  0  0  0  0
 29 32  1  0  0  0  0
 29 27  1  0  0  0  0
 30 33  1  0  0  0  0
 31 29  2  0  0  0  0
 33 27  2  0  0  0  0
 34 30  2  0  0  0  0
 34 31  1  0  0  0  0
 35 26  1  0  0  0  0
 35 32  2  0  0  0  0
M  END
>  <MODEL>
1

>  <REMARK>
 VINA RESULT:      -7.8      0.000      0.000
  Name = 
  6 active torsions:
  status: ('A' for Active; 'I' for Inactive)
    1  A    between atoms: O_4  and  C_25
    2  A    between atoms: O_4  and  C_34
    3  A    between atoms: N_9  and  C_12
    4  A    between atoms: C_12  and  C_25
    5  A    between atoms: C_22  and  C_35
    6  A    between atoms: C_29  and  C_33
                            x       y       z     vdW  Elec       q    Type
                         _______ _______ _______ _____ _____    ______ ____

>  <TORSDO>
F 6

$$$$
=
 OpenBabel11052409263D

 35 40  0  0  1  0  0  0  0  0999 V2000
  160.4570  206.6470  152.0450 O   0  0  0  0  0  0  0  0  0  0  0  0
  161.1580  207.8040  155.1800 C   0  0  0  0  0  0  0  0  0  0  0  0
  160.8290  206.7460  154.3470 O   0  0  0  0  0  0  0  0  0  0  0  0
  161.3830  207.6800  156.4130 O   0  0  0  0  0  0  0  0  0  0  0  0
  161.2510  209.0490  154.4140 C   0  0  0  0  0  0  0  0  0  0  0  0
  160.7180  207.3080  153.0850 C   0  0  0  0  0  0  0  0  0  0  0  0
  160.9750  208.7500  153.1410 C   0  0  0  0  0  0  0  0  0  0  0  0
  155.5620  212.8220  154.6180 F   0  0  0  0  0  0  0  0  0  0  0  0
  162.0050  212.1670  157.2600 N   0  0  0  0  0  1  0  0  0  0  0  0
  156.8330  212.3930  154.8090 C   0  0  0  0  0  0  0  0  0  0  0  0
  159.4200  211.4890  155.1980 C   0  0  0  0  0  0  0  0  0  0  0  0
  158.6910  210.9470  154.1380 C   0  0  0  0  0  3  0  0  0  0  0  0
  162.8540  210.7340  154.8560 O   0  0  0  0  0  0  0  0  0  0  0  0
  159.8080  212.8480  156.9320 N   0  0  0  0  0  0  0  0  0  0  0  0
  157.3770  211.4100  153.9530 C   0  0  0  0  0  3  0  0  0  0  0  0
  157.6000  212.9290  155.8630 C   0  0  0  0  0  3  0  0  0  0  0  0
  160.8900  212.0900  156.6130 C   0  0  0  0  0  0  0  0  0  0  0  0
  160.6890  211.2410  155.5700 N   0  0  0  0  0  0  0  0  0  0  0  0
  158.8990  212.4510  156.0210 C   0  0  0  0  0  0  0  0  0  0  0  0
  161.6490  210.3710  154.9410 C   0  0  0  0  0  0  0  0  0  0  0  0
  162.3340  210.1560  151.6210 C   0  0  0  0  0  2  0  0  0  0  0  0
  161.6450  209.2040  150.7350 N   0  0  0  0  0  0  0  0  0  0  0  0
  160.9860  209.7160  151.9740 C   0  0  1  0  0  3  0  0  0  0  0  0
  162.3500  207.9350  150.9020 C   0  0  0  0  0  2  0  0  0  0  0  0
  162.6420  207.3210  149.5450 C   0  0  0  0  0  2  0  0  0  0  0  0
  161.4550  206.7560  149.0090 O   0  0  0  0  0  0  0  0  0  0  0  0
  161.2100  202.5030  146.7860 C   0  0  0  0  0  3  0  0  0  0  0  0
  161.0940  204.3800  149.9180 C   0  0  0  0  0  2  0  0  0  0  0  0
  161.2160  203.4700  147.7890 C   0  0  0  0  0  0  0  0  0  0  0  0
  160.8320  200.8250  148.5220 C   0  0  0  0  0  3  0  0  0  0  0  0
  161.0380  203.1420  149.1060 C   0  0  0  0  0  0  0  0  0  0  0  0
  161.3930  204.8630  147.6180 N   0  0  0  0  0  0  0  0  0  0  0  0
  161.0130  201.1640  147.1650 C   0  0  0  0  0  3  0  0  0  0  0  0
  160.8430  201.8230  149.5120 C   0  0  0  0  0  3  0  0  0  0  0  0
  161.3230  205.3820  148.8080 C   0  0  0  0  0  0  0  0  0  0  0  0
  1  6  2  0  0  0  0
  2  4  2  0  0  0  0
  3  2  1  0  0  0  0
  5 20  1  0  0  0  0
  5  2  1  0  0  0  0
  6  7  1  0  0  0  0
  6  3  1  0  0  0  0
  7  5  2  0  0  0  0
  8 10  1  0  0  0  0
 10 16  1  0  0  0  0
 11 18  1  0  0  0  0
 11 19  1  0  0  0  0
 12 11  2  0  0  0  0
 13 20  2  0  0  0  0
 15 12  1  0  0  0  0
 15 10  2  0  0  0  0
 16 19  2  0  0  0  0
 17 14  2  0  0  0  0
 17  9  1  0  0  0  0
 18 17  1  0  0  0  0
 19 14  1  0  0  0  0
 20 18  1  0  0  0  0
 21 23  1  0  0  0  0
 22 24  1  0  0  0  0
 22 21  1  0  0  0  0
 22 23  1  0  0  0  0
 23  7  1  1  0  0  0
 25 24  1  0  0  0  0
 26 25  1  0  0  0  0
 27 33  2  0  0  0  0
 27 29  1  0  0  0  0
 29 31  2  0  0  0  0
 30 34  2  0  0  0  0
 31 34  1  0  0  0  0
 31 28  1  0  0  0  0
 32 29  1  0  0  0  0
 32 35  2  0  0  0  0
 33 30  1  0  0  0  0
 35 26  1  0  0  0  0
 35 28  1  0  0  0  0
M  END
>  <MODEL>
2

>  <REMARK>
 VINA RESULT:      -7.6      0.738      1.152
  Name = 
  6 active torsions:
  status: ('A' for Active; 'I' for Inactive)
    1  A    between atoms: O_4  and  C_25
    2  A    between atoms: O_4  and  C_34
    3  A    between atoms: N_9  and  C_12
    4  A    between atoms: C_12  and  C_25
    5  A    between atoms: C_22  and  C_35
    6  A    between atoms: C_29  and  C_33
                            x       y       z     vdW  Elec       q    Type
                         _______ _______ _______ _____ _____    ______ ____

>  <TORSDO>
F 6

$$$$
=
 OpenBabel11052409263D

 35 40  0  0  1  0  0  0  0  0999 V2000
  160.4950  206.8420  150.3500 O   0  0  0  0  0  0  0  0  0  0  0  0
  161.9950  209.8950  150.6430 C   0  0  0  0  0  0  0  0  0  0  0  0
  161.4530  208.9080  149.8360 O   0  0  0  0  0  0  0  0  0  0  0  0
  162.4290  210.9960  150.2090 O   0  0  0  0  0  0  0  0  0  0  0  0
  161.9400  209.4940  152.0510 C   0  0  0  0  0  0  0  0  0  0  0  0
  161.0640  207.9060  150.7110 C   0  0  0  0  0  0  0  0  0  0  0  0
  161.3820  208.2800  152.0920 C   0  0  0  0  0  0  0  0  0  0  0  0
  156.4500  213.1040  153.9170 F   0  0  0  0  0  0  0  0  0  0  0  0
  162.5950  210.6090  156.1400 N   0  0  0  0  0  1  0  0  0  0  0  0
  157.6770  212.5270  153.9170 C   0  0  0  0  0  0  0  0  0  0  0  0
  160.1710  211.3280  153.9040 C   0  0  0  0  0  0  0  0  0  0  0  0
  159.5120  211.4790  152.6820 C   0  0  0  0  0  3  0  0  0  0  0  0
  163.5800  210.5580  153.3860 O   0  0  0  0  0  0  0  0  0  0  0  0
  160.4720  211.5530  156.1080 N   0  0  0  0  0  0  0  0  0  0  0  0
  158.2440  212.0850  152.7020 C   0  0  0  0  0  3  0  0  0  0  0  0
  158.3740  212.3700  155.1320 C   0  0  0  0  0  3  0  0  0  0  0  0
  161.5390  210.9770  155.4940 C   0  0  0  0  0  0  0  0  0  0  0  0
  161.3890  210.8120  154.1520 N   0  0  0  0  0  0  0  0  0  0  0  0
  159.6280  211.7670  155.0810 C   0  0  0  0  0  0  0  0  0  0  0  0
  162.3560  210.3120  153.2100 C   0  0  0  0  0  0  0  0  0  0  0  0
  160.3980  206.2200  153.0520 C   0  0  0  0  0  2  0  0  0  0  0  0
  161.8140  206.1770  153.4470 N   0  0  0  0  0  0  0  0  0  0  0  0
  161.0850  207.4760  153.3420 C   0  0  1  0  0  3  0  0  0  0  0  0
  162.5450  205.7910  152.2420 C   0  0  0  0  0  2  0  0  0  0  0  0
  162.4230  204.2960  152.0170 C   0  0  0  0  0  2  0  0  0  0  0  0
  161.1890  204.0060  151.3770 O   0  0  0  0  0  0  0  0  0  0  0  0
  161.5050  203.9760  146.5820 C   0  0  0  0  0  3  0  0  0  0  0  0
  160.7140  202.1620  149.6530 C   0  0  0  0  0  2  0  0  0  0  0  0
  161.2850  203.5590  147.8930 C   0  0  0  0  0  0  0  0  0  0  0  0
  160.8290  201.7450  145.8490 C   0  0  0  0  0  3  0  0  0  0  0  0
  160.8540  202.2930  148.1840 C   0  0  0  0  0  0  0  0  0  0  0  0
  161.4560  204.3330  149.0660 N   0  0  0  0  0  0  0  0  0  0  0  0
  161.2710  203.0510  145.5500 C   0  0  0  0  0  3  0  0  0  0  0  0
  160.6160  201.3530  147.1820 C   0  0  0  0  0  3  0  0  0  0  0  0
  161.1360  203.5570  150.0580 C   0  0  0  0  0  0  0  0  0  0  0  0
  1  6  2  0  0  0  0
  2  5  1  0  0  0  0
  3  2  1  0  0  0  0
  3  6  1  0  0  0  0
  4  2  2  0  0  0  0
  5  7  2  0  0  0  0
  5 20  1  0  0  0  0
  6  7  1  0  0  0  0
 10  8  1  0  0  0  0
 10 16  1  0  0  0  0
 11 18  1  0  0  0  0
 11 19  1  0  0  0  0
 12 15  1  0  0  0  0
 12 11  2  0  0  0  0
 15 10  2  0  0  0  0
 17 14  2  0  0  0  0
 17  9  1  0  0  0  0
 18 17  1  0  0  0  0
 19 16  2  0  0  0  0
 19 14  1  0  0  0  0
 20 13  2  0  0  0  0
 20 18  1  0  0  0  0
 21 23  1  0  0  0  0
 21 22  1  0  0  0  0
 23  7  1  6  0  0  0
 23 22  1  0  0  0  0
 24 22  1  0  0  0  0
 25 24  1  0  0  0  0
 26 25  1  0  0  0  0
 27 29  1  0  0  0  0
 28 35  1  0  0  0  0
 29 31  2  0  0  0  0
 29 32  1  0  0  0  0
 30 34  2  0  0  0  0
 31 28  1  0  0  0  0
 32 35  2  0  0  0  0
 33 30  1  0  0  0  0
 33 27  2  0  0  0  0
 34 31  1  0  0  0  0
 35 26  1  0  0  0  0
M  END
>  <MODEL>
3

>  <REMARK>
 VINA RESULT:      -6.9      1.899      3.068
  Name = 
  6 active torsions:
  status: ('A' for Active; 'I' for Inactive)
    1  A    between atoms: O_4  and  C_25
    2  A    between atoms: O_4  and  C_34
    3  A    between atoms: N_9  and  C_12
    4  A    between atoms: C_12  and  C_25
    5  A    between atoms: C_22  and  C_35
    6  A    between atoms: C_29  and  C_33
                            x       y       z     vdW  Elec       q    Type
                         _______ _______ _______ _____ _____    ______ ____

>  <TORSDO>
F 6

$$$$
=
 OpenBabel11052409263D

 35 40  0  0  1  0  0  0  0  0999 V2000
  162.7720  212.7650  142.9900 O   0  0  0  0  0  0  0  0  0  0  0  0
  162.1950  213.7550  139.7730 C   0  0  0  0  0  0  0  0  0  0  0  0
  163.0480  213.6880  140.8640 O   0  0  0  0  0  0  0  0  0  0  0  0
  162.5200  214.2460  138.6590 O   0  0  0  0  0  0  0  0  0  0  0  0
  160.9070  213.1340  140.0910 C   0  0  0  0  0  0  0  0  0  0  0  0
  162.3180  213.0410  141.8470 C   0  0  0  0  0  0  0  0  0  0  0  0
  160.9770  212.7070  141.3560 C   0  0  0  0  0  0  0  0  0  0  0  0
  161.9100  207.1210  137.0120 F   0  0  0  0  0  0  0  0  0  0  0  0
  157.0620  211.8860  138.6590 N   0  0  0  0  0  1  0  0  0  0  0  0
  161.3340  208.2680  137.4460 C   0  0  0  0  0  0  0  0  0  0  0  0
  160.1720  210.6090  138.3570 C   0  0  0  0  0  0  0  0  0  0  0  0
  161.5660  210.5290  138.3560 C   0  0  0  0  0  3  0  0  0  0  0  0
  159.1240  213.9570  138.7700 O   0  0  0  0  0  0  0  0  0  0  0  0
  158.0820  209.9180  137.9640 N   0  0  0  0  0  0  0  0  0  0  0  0
  162.1450  209.3330  137.8960 C   0  0  0  0  0  3  0  0  0  0  0  0
  159.9290  208.3860  137.4480 C   0  0  0  0  0  3  0  0  0  0  0  0
  158.1260  211.1840  138.4530 C   0  0  0  0  0  0  0  0  0  0  0  0
  159.3820  211.6370  138.7160 N   0  0  0  0  0  0  0  0  0  0  0  0
  159.3850  209.5820  137.9090 C   0  0  0  0  0  0  0  0  0  0  0  0
  159.7720  212.9500  139.1620 C   0  0  0  0  0  0  0  0  0  0  0  0
  160.1460  211.9080  143.5480 C   0  0  0  0  0  2  0  0  0  0  0  0
  159.0910  212.8060  143.0530 N   0  0  0  0  0  0  0  0  0  0  0  0
  159.8920  211.9670  142.1110 C   0  0  1  0  0  3  0  0  0  0  0  0
  159.6060  214.1600  143.2480 C   0  0  0  0  0  2  0  0  0  0  0  0
  159.7590  214.4480  144.7300 C   0  0  0  0  0  2  0  0  0  0  0  0
  158.5820  214.0540  145.4190 O   0  0  0  0  0  0  0  0  0  0  0  0
  160.1450  213.4140  149.9180 C   0  0  0  0  0  3  0  0  0  0  0  0
  157.3150  213.7310  147.6300 C   0  0  0  0  0  2  0  0  0  0  0  0
  159.2950  213.5700  148.8250 C   0  0  0  0  0  0  0  0  0  0  0  0
  158.1600  213.1940  151.3250 C   0  0  0  0  0  3  0  0  0  0  0  0
  157.9330  213.5400  148.9630 C   0  0  0  0  0  0  0  0  0  0  0  0
  159.6770  213.7670  147.4780 N   0  0  0  0  0  0  0  0  0  0  0  0
  159.5630  213.2220  151.1830 C   0  0  0  0  0  3  0  0  0  0  0  0
  157.3270  213.3540  150.2050 C   0  0  0  0  0  3  0  0  0  0  0  0
  158.5730  213.8570  146.8000 C   0  0  0  0  0  0  0  0  0  0  0  0
  2  5  1  0  0  0  0
  2  3  1  0  0  0  0
  3  6  1  0  0  0  0
  4  2  2  0  0  0  0
  5  7  2  0  0  0  0
  6  1  2  0  0  0  0
  7  6  1  0  0  0  0
  8 10  1  0  0  0  0
 10 16  2  0  0  0  0
 10 15  1  0  0  0  0
 11 18  1  0  0  0  0
 12 11  1  0  0  0  0
 13 20  2  0  0  0  0
 14 17  2  0  0  0  0
 15 12  2  0  0  0  0
 16 19  1  0  0  0  0
 17  9  1  0  0  0  0
 17 18  1  0  0  0  0
 18 20  1  0  0  0  0
 19 14  1  0  0  0  0
 19 11  2  0  0  0  0
 20  5  1  0  0  0  0
 22 24  1  0  0  0  0
 22 21  1  0  0  0  0
 23  7  1  6  0  0  0
 23 22  1  0  0  0  0
 23 21  1  0  0  0  0
 24 25  1  0  0  0  0
 25 26  1  0  0  0  0
 26 35  1  0  0  0  0
 27 33  1  0  0  0  0
 28 31  1  0  0  0  0
 29 31  1  0  0  0  0
 29 27  2  0  0  0  0
 31 34  2  0  0  0  0
 32 29  1  0  0  0  0
 33 30  2  0  0  0  0
 34 30  1  0  0  0  0
 35 32  2  0  0  0  0
 35 28  1  0  0  0  0
M  END
>  <MODEL>
4

>  <REMARK>
 VINA RESULT:      -5.6     10.344     14.712
  Name = 
  6 active torsions:
  status: ('A' for Active; 'I' for Inactive)
    1  A    between atoms: O_4  and  C_25
    2  A    between atoms: O_4  and  C_34
    3  A    between atoms: N_9  and  C_12
    4  A    between atoms: C_12  and  C_25
    5  A    between atoms: C_22  and  C_35
    6  A    between atoms: C_29  and  C_33
                            x       y       z     vdW  Elec       q    Type
                         _______ _______ _______ _____ _____    ______ ____

>  <TORSDO>
F 6

$$$$
=
 OpenBabel11052409263D

 35 40  0  0  1  0  0  0  0  0999 V2000
  161.0060  208.0190  155.7290 O   0  0  0  0  0  0  0  0  0  0  0  0
  158.0450  209.7100  155.9030 C   0  0  0  0  0  0  0  0  0  0  0  0
  158.7260  208.5040  155.8420 O   0  0  0  0  0  0  0  0  0  0  0  0
  156.7940  209.8030  156.0190 O   0  0  0  0  0  0  0  0  0  0  0  0
  158.9860  210.8330  155.8680 C   0  0  0  0  0  0  0  0  0  0  0  0
  160.0640  208.8550  155.7690 C   0  0  0  0  0  0  0  0  0  0  0  0
  160.2140  210.3130  155.7770 C   0  0  0  0  0  0  0  0  0  0  0  0
  158.1420  213.1310  149.4920 F   0  0  0  0  0  0  0  0  0  0  0  0
  156.5700  214.3600  156.1950 N   0  0  0  0  0  1  0  0  0  0  0  0
  158.1320  213.0450  150.8440 C   0  0  0  0  0  0  0  0  0  0  0  0
  158.1080  212.8400  153.6040 C   0  0  0  0  0  0  0  0  0  0  0  0
  158.9840  212.0150  152.8960 C   0  0  0  0  0  3  0  0  0  0  0  0
  158.9570  212.8930  157.0330 O   0  0  0  0  0  0  0  0  0  0  0  0
  156.5810  214.4500  153.8740 N   0  0  0  0  0  0  0  0  0  0  0  0
  158.9840  212.1240  151.4940 C   0  0  0  0  0  3  0  0  0  0  0  0
  157.2690  213.8720  151.5900 C   0  0  0  0  0  3  0  0  0  0  0  0
  157.0120  213.9410  155.0570 C   0  0  0  0  0  0  0  0  0  0  0  0
  157.9350  212.9490  154.9340 N   0  0  0  0  0  0  0  0  0  0  0  0
  157.2910  213.7410  152.9760 C   0  0  0  0  0  0  0  0  0  0  0  0
  158.6420  212.2650  155.9850 C   0  0  0  0  0  0  0  0  0  0  0  0
  162.6810  210.2330  155.5650 C   0  0  0  0  0  2  0  0  0  0  0  0
  162.2360  211.0700  154.4400 N   0  0  0  0  0  0  0  0  0  0  0  0
  161.5130  211.0930  155.7470 C   0  0  1  0  0  3  0  0  0  0  0  0
  161.6830  210.1400  153.4560 C   0  0  0  0  0  2  0  0  0  0  0  0
  162.5920  210.0660  152.2440 C   0  0  0  0  0  2  0  0  0  0  0  0
  161.8690  209.5600  151.1330 O   0  0  0  0  0  0  0  0  0  0  0  0
  160.9510  205.3450  149.0140 C   0  0  0  0  0  3  0  0  0  0  0  0
  161.6670  207.1840  152.0890 C   0  0  0  0  0  2  0  0  0  0  0  0
  161.2340  206.2980  149.9910 C   0  0  0  0  0  0  0  0  0  0  0  0
  160.9570  203.6570  150.7810 C   0  0  0  0  0  3  0  0  0  0  0  0
  161.3740  205.9590  151.3100 C   0  0  0  0  0  0  0  0  0  0  0  0
  161.4070  207.6880  149.7900 N   0  0  0  0  0  0  0  0  0  0  0  0
  160.8110  204.0080  149.4230 C   0  0  0  0  0  3  0  0  0  0  0  0
  161.2430  204.6410  151.7440 C   0  0  0  0  0  3  0  0  0  0  0  0
  161.6480  208.1930  150.9620 C   0  0  0  0  0  0  0  0  0  0  0  0
  1  6  2  0  0  0  0
  2  4  2  0  0  0  0
  3  2  1  0  0  0  0
  5  2  1  0  0  0  0
  5 20  1  0  0  0  0
  6  7  1  0  0  0  0
  6  3  1  0  0  0  0
  7  5  2  0  0  0  0
  8 10  1  0  0  0  0
 10 15  2  0  0  0  0
 10 16  1  0  0  0  0
 11 18  1  0  0  0  0
 12 11  2  0  0  0  0
 14 17  2  0  0  0  0
 15 12  1  0  0  0  0
 16 19  2  0  0  0  0
 17  9  1  0  0  0  0
 18 17  1  0  0  0  0
 18 20  1  0  0  0  0
 19 11  1  0  0  0  0
 19 14  1  0  0  0  0
 20 13  2  0  0  0  0
 21 23  1  0  0  0  0
 22 21  1  0  0  0  0
 22 23  1  0  0  0  0
 23  7  1  6  0  0  0
 24 22  1  0  0  0  0
 25 24  1  0  0  0  0
 26 25  1  0  0  0  0
 27 33  2  0  0  0  0
 27 29  1  0  0  0  0
 29 31  2  0  0  0  0
 30 34  2  0  0  0  0
 31 34  1  0  0  0  0
 31 28  1  0  0  0  0
 32 29  1  0  0  0  0
 32 35  2  0  0  0  0
 33 30  1  0  0  0  0
 35 26  1  0  0  0  0
 35 28  1  0  0  0  0
M  END
>  <MODEL>
5

>  <REMARK>
 VINA RESULT:      -5.5      2.750      3.938
  Name = 
  6 active torsions:
  status: ('A' for Active; 'I' for Inactive)
    1  A    between atoms: O_4  and  C_25
    2  A    between atoms: O_4  and  C_34
    3  A    between atoms: N_9  and  C_12
    4  A    between atoms: C_12  and  C_25
    5  A    between atoms: C_22  and  C_35
    6  A    between atoms: C_29  and  C_33
                            x       y       z     vdW  Elec       q    Type
                         _______ _______ _______ _____ _____    ______ ____

>  <TORSDO>
F 6

$$$$
=
 OpenBabel11052409263D

 35 40  0  0  1  0  0  0  0  0999 V2000
  158.1620  211.8760  151.9130 O   0  0  0  0  0  0  0  0  0  0  0  0
  157.9570  212.4190  155.2780 C   0  0  0  0  0  0  0  0  0  0  0  0
  157.3230  212.2800  154.0530 O   0  0  0  0  0  0  0  0  0  0  0  0
  157.3470  212.5810  156.3680 O   0  0  0  0  0  0  0  0  0  0  0  0
  159.4080  212.2980  155.1200 C   0  0  0  0  0  0  0  0  0  0  0  0
  158.3470  212.0760  153.1430 C   0  0  0  0  0  0  0  0  0  0  0  0
  159.6470  212.0990  153.8200 C   0  0  0  0  0  0  0  0  0  0  0  0
  160.2210  205.8130  157.1010 F   0  0  0  0  0  0  0  0  0  0  0  0
  163.2370  212.1230  157.0430 N   0  0  0  0  0  1  0  0  0  0  0  0
  160.4040  207.1460  156.9420 C   0  0  0  0  0  0  0  0  0  0  0  0
  160.7670  209.8670  156.5920 C   0  0  0  0  0  0  0  0  0  0  0  0
  159.5030  209.3380  156.3270 C   0  0  0  0  0  3  0  0  0  0  0  0
  160.6070  213.3870  156.8460 O   0  0  0  0  0  0  0  0  0  0  0  0
  162.9010  209.8350  157.2610 N   0  0  0  0  0  0  0  0  0  0  0  0
  159.3320  207.9530  156.5040 C   0  0  0  0  0  3  0  0  0  0  0  0
  161.6650  207.7150  157.2130 C   0  0  0  0  0  3  0  0  0  0  0  0
  162.4730  211.0860  156.9520 C   0  0  0  0  0  0  0  0  0  0  0  0
  161.1810  211.1460  156.5290 N   0  0  0  0  0  0  0  0  0  0  0  0
  161.8040  209.0880  157.0290 C   0  0  0  0  0  0  0  0  0  0  0  0
  160.4110  212.3190  156.2060 C   0  0  0  0  0  0  0  0  0  0  0  0
  161.7780  210.8360  153.8560 C   0  0  0  0  0  2  0  0  0  0  0  0
  161.1930  210.5460  152.5370 N   0  0  0  0  0  0  0  0  0  0  0  0
  161.0050  211.8790  153.1850 C   0  0  1  0  0  3  0  0  0  0  0  0
  160.1150  209.5910  152.7880 C   0  0  0  0  0  2  0  0  0  0  0  0
  160.6810  208.1890  152.9020 C   0  0  0  0  0  2  0  0  0  0  0  0
  161.4790  207.8990  151.7640 O   0  0  0  0  0  0  0  0  0  0  0  0
  160.8530  203.2200  150.8660 C   0  0  0  0  0  3  0  0  0  0  0  0
  161.4420  206.5810  149.5600 C   0  0  0  0  0  2  0  0  0  0  0  0
  161.0660  204.5840  150.6760 C   0  0  0  0  0  0  0  0  0  0  0  0
  160.9950  202.9470  148.4420 C   0  0  0  0  0  3  0  0  0  0  0  0
  161.2380  205.1190  149.4280 C   0  0  0  0  0  0  0  0  0  0  0  0
  161.1380  205.5760  151.6830 N   0  0  0  0  0  0  0  0  0  0  0  0
  160.8200  202.3950  149.7290 C   0  0  0  0  0  3  0  0  0  0  0  0
  161.2070  204.3270  148.2820 C   0  0  0  0  0  3  0  0  0  0  0  0
  161.3510  206.6990  151.0650 C   0  0  0  0  0  0  0  0  0  0  0  0
  1  6  2  0  0  0  0
  2  4  2  0  0  0  0
  3  2  1  0  0  0  0
  5  2  1  0  0  0  0
  5 20  1  0  0  0  0
  6  7  1  0  0  0  0
  6  3  1  0  0  0  0
  7  5  2  0  0  0  0
 10  8  1  0  0  0  0
 10 16  1  0  0  0  0
 11 19  1  0  0  0  0
 12 15  1  0  0  0  0
 12 11  2  0  0  0  0
 15 10  2  0  0  0  0
 17  9  1  0  0  0  0
 17 14  2  0  0  0  0
 18 11  1  0  0  0  0
 18 17  1  0  0  0  0
 19 16  2  0  0  0  0
 19 14  1  0  0  0  0
 20 18  1  0  0  0  0
 20 13  2  0  0  0  0
 22 24  1  0  0  0  0
 22 23  1  0  0  0  0
 22 21  1  0  0  0  0
 23  7  1  1  0  0  0
 23 21  1  0  0  0  0
 24 25  1  0  0  0  0
 26 25  1  0  0  0  0
 28 35  1  0  0  0  0
 29 27  1  0  0  0  0
 29 32  1  0  0  0  0
 30 33  1  0  0  0  0
 31 28  1  0  0  0  0
 31 29  2  0  0  0  0
 33 27  2  0  0  0  0
 34 30  2  0  0  0  0
 34 31  1  0  0  0  0
 35 32  2  0  0  0  0
 35 26  1  0  0  0  0
M  END
>  <MODEL>
6

>  <REMARK>
 VINA RESULT:      -5.1      2.711      3.915
  Name = 
  6 active torsions:
  status: ('A' for Active; 'I' for Inactive)
    1  A    between atoms: O_4  and  C_25
    2  A    between atoms: O_4  and  C_34
    3  A    between atoms: N_9  and  C_12
    4  A    between atoms: C_12  and  C_25
    5  A    between atoms: C_22  and  C_35
    6  A    between atoms: C_29  and  C_33
                            x       y       z     vdW  Elec       q    Type
                         _______ _______ _______ _____ _____    ______ ____

>  <TORSDO>
F 6

$$$$
=
 OpenBabel11052409263D

 35 40  0  0  1  0  0  0  0  0999 V2000
  162.1690  209.2810  151.9980 O   0  0  0  0  0  0  0  0  0  0  0  0
  160.4440  212.1850  152.4970 C   0  0  0  0  0  0  0  0  0  0  0  0
  161.1240  211.3370  151.6370 O   0  0  0  0  0  0  0  0  0  0  0  0
  159.8800  213.2500  152.1290 O   0  0  0  0  0  0  0  0  0  0  0  0
  160.4360  211.6390  153.8560 C   0  0  0  0  0  0  0  0  0  0  0  0
  161.5370  210.2800  152.4330 C   0  0  0  0  0  0  0  0  0  0  0  0
  161.1100  210.4840  153.8200 C   0  0  0  0  0  0  0  0  0  0  0  0
  154.5500  214.2170  151.5430 F   0  0  0  0  0  0  0  0  0  0  0  0
  157.8420  211.8950  157.2610 N   0  0  0  0  0  1  0  0  0  0  0  0
  155.5280  213.7730  152.3690 C   0  0  0  0  0  0  0  0  0  0  0  0
  157.5330  212.8490  154.0370 C   0  0  0  0  0  0  0  0  0  0  0  0
  157.8800  213.1980  152.7310 C   0  0  0  0  0  3  0  0  0  0  0  0
  160.4230  212.5380  156.0450 O   0  0  0  0  0  0  0  0  0  0  0  0
  156.1820  212.6160  155.8040 N   0  0  0  0  0  0  0  0  0  0  0  0
  156.8530  213.6620  151.8910 C   0  0  0  0  0  3  0  0  0  0  0  0
  155.2140  213.4230  153.6980 C   0  0  0  0  0  3  0  0  0  0  0  0
  157.4700  212.2920  156.0900 C   0  0  0  0  0  0  0  0  0  0  0  0
  158.3220  212.4090  155.0360 N   0  0  0  0  0  0  0  0  0  0  0  0
  156.2530  212.9670  154.5060 C   0  0  0  0  0  0  0  0  0  0  0  0
  159.7490  212.2210  155.0280 C   0  0  0  0  0  0  0  0  0  0  0  0
  160.0990  208.8950  155.4280 C   0  0  0  0  0  2  0  0  0  0  0  0
  161.0910  208.0990  154.6890 N   0  0  0  0  0  0  0  0  0  0  0  0
  161.3310  209.5430  154.9860 C   0  0  1  0  0  3  0  0  0  0  0  0
  160.4890  207.8400  153.3820 C   0  0  0  0  0  2  0  0  0  0  0  0
  160.9800  206.5110  152.8390 C   0  0  0  0  0  2  0  0  0  0  0  0
  160.8590  206.4970  151.4250 O   0  0  0  0  0  0  0  0  0  0  0  0
  160.8270  201.8000  150.4050 C   0  0  0  0  0  3  0  0  0  0  0  0
  161.0950  205.2380  149.1970 C   0  0  0  0  0  2  0  0  0  0  0  0
  160.8900  203.1840  150.2530 C   0  0  0  0  0  0  0  0  0  0  0  0
  161.1320  201.6060  147.9880 C   0  0  0  0  0  3  0  0  0  0  0  0
  161.0680  203.7670  149.0270 C   0  0  0  0  0  0  0  0  0  0  0  0
  160.7920  204.1520  151.2800 N   0  0  0  0  0  0  0  0  0  0  0  0
  160.9510  201.0060  149.2520 C   0  0  0  0  0  3  0  0  0  0  0  0
  161.1920  203.0050  147.8660 C   0  0  0  0  0  3  0  0  0  0  0  0
  160.9080  205.3080  150.6970 C   0  0  0  0  0  0  0  0  0  0  0  0
  1  6  2  0  0  0  0
  2  5  1  0  0  0  0
  3  6  1  0  0  0  0
  3  2  1  0  0  0  0
  4  2  2  0  0  0  0
  5 20  1  0  0  0  0
  6  7  1  0  0  0  0
  7  5  2  0  0  0  0
  8 10  1  0  0  0  0
 10 16  1  0  0  0  0
 11 19  1  0  0  0  0
 11 18  1  0  0  0  0
 12 11  2  0  0  0  0
 14 17  2  0  0  0  0
 15 10  2  0  0  0  0
 15 12  1  0  0  0  0
 16 19  2  0  0  0  0
 17  9  1  0  0  0  0
 18 17  1  0  0  0  0
 19 14  1  0  0  0  0
 20 18  1  0  0  0  0
 20 13  2  0  0  0  0
 22 23  1  0  0  0  0
 22 21  1  0  0  0  0
 23  7  1  6  0  0  0
 23 21  1  0  0  0  0
 24 22  1  0  0  0  0
 25 24  1  0  0  0  0
 26 25  1  0  0  0  0
 28 35  1  0  0  0  0
 29 27  1  0  0  0  0
 29 32  1  0  0  0  0
 30 33  1  0  0  0  0
 31 28  1  0  0  0  0
 31 29  2  0  0  0  0
 33 27  2  0  0  0  0
 34 30  2  0  0  0  0
 34 31  1  0  0  0  0
 35 32  2  0  0  0  0
 35 26  1  0  0  0  0
M  END
>  <MODEL>
7

>  <REMARK>
 VINA RESULT:      -5.0      2.294      3.237
  Name = 
  6 active torsions:
  status: ('A' for Active; 'I' for Inactive)
    1  A    between atoms: O_4  and  C_25
    2  A    between atoms: O_4  and  C_34
    3  A    between atoms: N_9  and  C_12
    4  A    between atoms: C_12  and  C_25
    5  A    between atoms: C_22  and  C_35
    6  A    between atoms: C_29  and  C_33
                            x       y       z     vdW  Elec       q    Type
                         _______ _______ _______ _____ _____    ______ ____

>  <TORSDO>
F 6

$$$$
=
 OpenBabel11052409263D

 35 40  0  0  1  0  0  0  0  0999 V2000
  161.6200  209.2260  152.3820 O   0  0  0  0  0  0  0  0  0  0  0  0
  159.4120  211.7880  151.9140 C   0  0  0  0  0  0  0  0  0  0  0  0
  160.0690  210.6760  151.4120 O   0  0  0  0  0  0  0  0  0  0  0  0
  158.5470  212.4400  151.2700 O   0  0  0  0  0  0  0  0  0  0  0  0
  159.8270  212.0500  153.2940 C   0  0  0  0  0  0  0  0  0  0  0  0
  160.8810  210.2440  152.4480 C   0  0  0  0  0  0  0  0  0  0  0  0
  160.7290  211.1160  153.6170 C   0  0  0  0  0  0  0  0  0  0  0  0
  153.9940  209.6080  155.8740 F   0  0  0  0  0  0  0  0  0  0  0  0
  159.1060  214.2720  156.8890 N   0  0  0  0  0  1  0  0  0  0  0  0
  155.0900  210.3770  155.6630 C   0  0  0  0  0  0  0  0  0  0  0  0
  157.3420  211.9240  155.2250 C   0  0  0  0  0  0  0  0  0  0  0  0
  156.9110  211.0920  154.1910 C   0  0  0  0  0  3  0  0  0  0  0  0
  159.6650  214.2970  154.0180 O   0  0  0  0  0  0  0  0  0  0  0  0
  157.2580  212.9070  157.2320 N   0  0  0  0  0  0  0  0  0  0  0  0
  155.7680  210.3070  154.4260 C   0  0  0  0  0  3  0  0  0  0  0  0
  155.5450  211.2370  156.6830 C   0  0  0  0  0  3  0  0  0  0  0  0
  158.2850  213.3670  156.4720 C   0  0  0  0  0  0  0  0  0  0  0  0
  158.3770  212.7850  155.2460 N   0  0  0  0  0  0  0  0  0  0  0  0
  156.6790  212.0020  156.4200 C   0  0  0  0  0  0  0  0  0  0  0  0
  159.2940  213.1030  154.1830 C   0  0  0  0  0  0  0  0  0  0  0  0
  160.4970  210.5230  156.0100 C   0  0  0  0  0  2  0  0  0  0  0  0
  161.4780  209.5630  155.4800 N   0  0  0  0  0  0  0  0  0  0  0  0
  161.4120  210.9620  154.9600 C   0  0  1  0  0  3  0  0  0  0  0  0
  160.7010  208.5920  154.7130 C   0  0  0  0  0  2  0  0  0  0  0  0
  161.5870  207.4380  154.2870 C   0  0  0  0  0  2  0  0  0  0  0  0
  160.7850  206.3190  153.9410 O   0  0  0  0  0  0  0  0  0  0  0  0
  161.1710  205.7720  149.1820 C   0  0  0  0  0  3  0  0  0  0  0  0
  160.8630  204.2130  152.4710 C   0  0  0  0  0  2  0  0  0  0  0  0
  161.0540  205.4800  150.5390 C   0  0  0  0  0  0  0  0  0  0  0  0
  161.1470  203.3680  148.7490 C   0  0  0  0  0  3  0  0  0  0  0  0
  160.9840  204.1910  150.9950 C   0  0  0  0  0  0  0  0  0  0  0  0
  160.9870  206.4120  151.6020 N   0  0  0  0  0  0  0  0  0  0  0  0
  161.2160  204.6960  148.2790 C   0  0  0  0  0  3  0  0  0  0  0  0
  161.0290  203.1040  150.1240 C   0  0  0  0  0  3  0  0  0  0  0  0
  160.8780  205.7100  152.6890 C   0  0  0  0  0  0  0  0  0  0  0  0
  1  6  2  0  0  0  0
  2  5  1  0  0  0  0
  3  2  1  0  0  0  0
  3  6  1  0  0  0  0
  4  2  2  0  0  0  0
  5  7  2  0  0  0  0
  5 20  1  0  0  0  0
  6  7  1  0  0  0  0
 10  8  1  0  0  0  0
 10 16  1  0  0  0  0
 11 18  1  0  0  0  0
 11 19  1  0  0  0  0
 12 15  1  0  0  0  0
 12 11  2  0  0  0  0
 13 20  2  0  0  0  0
 15 10  2  0  0  0  0
 17  9  1  0  0  0  0
 17 14  2  0  0  0  0
 18 17  1  0  0  0  0
 19 16  2  0  0  0  0
 19 14  1  0  0  0  0
 20 18  1  0  0  0  0
 22 21  1  0  0  0  0
 23  7  1  6  0  0  0
 23 22  1  0  0  0  0
 23 21  1  0  0  0  0
 24 22  1  0  0  0  0
 25 24  1  0  0  0  0
 26 25  1  0  0  0  0
 27 29  1  0  0  0  0
 28 35  1  0  0  0  0
 29 31  2  0  0  0  0
 29 32  1  0  0  0  0
 30 34  2  0  0  0  0
 31 28  1  0  0  0  0
 32 35  2  0  0  0  0
 33 30  1  0  0  0  0
 33 27  2  0  0  0  0
 34 31  1  0  0  0  0
 35 26  1  0  0  0  0
M  END
>  <MODEL>
8

>  <REMARK>
 VINA RESULT:      -4.9      2.215      3.611
  Name = 
  6 active torsions:
  status: ('A' for Active; 'I' for Inactive)
    1  A    between atoms: O_4  and  C_25
    2  A    between atoms: O_4  and  C_34
    3  A    between atoms: N_9  and  C_12
    4  A    between atoms: C_12  and  C_25
    5  A    between atoms: C_22  and  C_35
    6  A    between atoms: C_29  and  C_33
                            x       y       z     vdW  Elec       q    Type
                         _______ _______ _______ _____ _____    ______ ____

>  <TORSDO>
F 6

$$$$
=
 OpenBabel11052409263D

 35 40  0  0  1  0  0  0  0  0999 V2000
  162.8520  208.4520  151.5900 O   0  0  0  0  0  0  0  0  0  0  0  0
  160.8190  207.1640  149.1680 C   0  0  0  0  0  0  0  0  0  0  0  0
  161.4960  208.2500  149.7000 O   0  0  0  0  0  0  0  0  0  0  0  0
  160.1640  207.2060  148.0920 O   0  0  0  0  0  0  0  0  0  0  0  0
  161.0200  205.9750  150.0000 C   0  0  0  0  0  0  0  0  0  0  0  0
  162.1110  207.7600  150.8410 C   0  0  0  0  0  0  0  0  0  0  0  0
  161.7990  206.3400  151.0240 C   0  0  0  0  0  0  0  0  0  0  0  0
  161.6020  205.0800  143.2540 F   0  0  0  0  0  0  0  0  0  0  0  0
  161.0730  201.7340  149.3730 N   0  0  0  0  0  1  0  0  0  0  0  0
  161.4200  204.8440  144.5760 C   0  0  0  0  0  0  0  0  0  0  0  0
  161.0670  204.3830  147.2820 C   0  0  0  0  0  0  0  0  0  0  0  0
  160.9090  205.6900  146.8160 C   0  0  0  0  0  3  0  0  0  0  0  0
  159.7380  204.0600  150.5390 O   0  0  0  0  0  0  0  0  0  0  0  0
  161.4220  202.1810  147.1210 N   0  0  0  0  0  0  0  0  0  0  0  0
  161.0950  205.9130  145.4410 C   0  0  0  0  0  3  0  0  0  0  0  0
  161.5610  203.5340  145.0780 C   0  0  0  0  0  3  0  0  0  0  0  0
  161.1300  202.5680  148.3890 C   0  0  0  0  0  0  0  0  0  0  0  0
  160.9190  203.9050  148.5310 N   0  0  0  0  0  0  0  0  0  0  0  0
  161.3710  203.3450  146.4440 C   0  0  0  0  0  0  0  0  0  0  0  0
  160.5170  204.6150  149.7170 C   0  0  0  0  0  0  0  0  0  0  0  0
  162.8340  206.1770  153.2680 C   0  0  0  0  0  2  0  0  0  0  0  0
  161.5350  205.4990  153.4050 N   0  0  0  0  0  0  0  0  0  0  0  0
  162.3060  205.4330  152.1270 C   0  0  1  0  0  3  0  0  0  0  0  0
  160.5400  206.5690  153.4600 C   0  0  0  0  0  2  0  0  0  0  0  0
  160.6930  207.3540  154.7480 C   0  0  0  0  0  2  0  0  0  0  0  0
  161.1910  208.6530  154.4620 O   0  0  0  0  0  0  0  0  0  0  0  0
  157.9280  212.1380  155.0080 C   0  0  0  0  0  3  0  0  0  0  0  0
  160.2010  210.3340  152.7900 C   0  0  0  0  0  2  0  0  0  0  0  0
  158.8640  211.2850  154.4270 C   0  0  0  0  0  0  0  0  0  0  0  0
  157.6460  213.1840  152.8180 C   0  0  0  0  0  3  0  0  0  0  0  0
  159.1860  211.3670  153.0990 C   0  0  0  0  0  0  0  0  0  0  0  0
  159.5870  210.2560  155.0760 N   0  0  0  0  0  0  0  0  0  0  0  0
  157.3130  213.0970  154.1860 C   0  0  0  0  0  3  0  0  0  0  0  0
  158.5950  212.3100  152.2600 C   0  0  0  0  0  3  0  0  0  0  0  0
  160.3380  209.7150  154.1640 C   0  0  0  0  0  0  0  0  0  0  0  0
  2  3  1  0  0  0  0
  2  5  1  0  0  0  0
  3  6  1  0  0  0  0
  4  2  2  0  0  0  0
  5  7  2  0  0  0  0
  6  7  1  0  0  0  0
  6  1  2  0  0  0  0
  8 10  1  0  0  0  0
 10 16  2  0  0  0  0
 10 15  1  0  0  0  0
 11 18  1  0  0  0  0
 12 11  1  0  0  0  0
 14 17  2  0  0  0  0
 15 12  2  0  0  0  0
 16 19  1  0  0  0  0
 17 18  1  0  0  0  0
 17  9  1  0  0  0  0
 18 20  1  0  0  0  0
 19 14  1  0  0  0  0
 19 11  2  0  0  0  0
 20  5  1  0  0  0  0
 20 13  2  0  0  0  0
 21 22  1  0  0  0  0
 22 24  1  0  0  0  0
 23  7  1  6  0  0  0
 23 21  1  0  0  0  0
 23 22  1  0  0  0  0
 24 25  1  0  0  0  0
 26 25  1  0  0  0  0
 28 31  1  0  0  0  0
 28 35  1  0  0  0  0
 29 27  1  0  0  0  0
 29 32  1  0  0  0  0
 30 33  1  0  0  0  0
 31 29  2  0  0  0  0
 33 27  2  0  0  0  0
 34 30  2  0  0  0  0
 34 31  1  0  0  0  0
 35 26  1  0  0  0  0
 35 32  2  0  0  0  0
M  END
>  <MODEL>
9

>  <REMARK>
 VINA RESULT:      -4.9      3.358      9.748
  Name = 
  6 active torsions:
  status: ('A' for Active; 'I' for Inactive)
    1  A    between atoms: O_4  and  C_25
    2  A    between atoms: O_4  and  C_34
    3  A    between atoms: N_9  and  C_12
    4  A    between atoms: C_12  and  C_25
    5  A    between atoms: C_22  and  C_35
    6  A    between atoms: C_29  and  C_33
                            x       y       z     vdW  Elec       q    Type
                         _______ _______ _______ _____ _____    ______ ____

>  <TORSDO>
F 6

$$$$
