=
 OpenBabel11052410193D

 57 60  0  0  1  0  0  0  0  0999 V2000
  158.9630  214.4530  146.7610 C   0  0  0  0  0  3  0  0  0  0  0  0
  159.2330  213.6120  147.7600 C   0  0  0  0  0  0  0  0  0  0  0  0
  159.3510  214.1810  145.3760 C   0  0  0  0  0  3  0  0  0  0  0  0
  160.4500  213.5080  145.0890 C   0  0  0  0  0  3  0  0  0  0  0  0
  162.3730  212.0300  141.9780 S   0  0  0  0  0  0  0  0  0  0  0  0
  160.7860  213.2340  143.6640 C   0  0  2  0  0  3  0  0  0  0  0  0
  159.9580  212.1020  143.1180 C   0  0  0  0  0  2  0  0  0  0  0  0
  160.5800  211.7640  141.7890 C   0  0  1  0  0  3  0  0  0  0  0  0
  162.1840  212.8800  143.5200 N   0  0  0  0  0  2  0  0  0  0  0  0
  160.0760  212.6730  140.7750 N   0  0  0  0  0  2  0  0  0  0  0  0
  160.2370  212.0260  139.4840 C   0  0  2  0  0  3  0  0  0  0  0  0
  161.1870  212.8290  138.6520 C   0  0  0  0  0  0  0  0  0  0  0  0
  162.2110  213.5610  139.2520 O   0  0  0  0  0  1  0  0  0  0  0  0
  161.1060  212.7780  137.3990 O   0  0  0  0  0  0  0  0  0  0  0  0
  158.8700  211.8820  138.8010 C   0  0  1  0  0  3  0  0  0  0  0  0
  158.9450  211.0040  137.5500 C   0  0  0  0  0  2  0  0  0  0  0  0
  158.6550  209.6740  137.8640 O   0  0  0  0  0  1  0  0  0  0  0  0
  157.9350  211.3500  139.6980 O   0  0  0  0  0  0  0  0  0  0  0  0
  156.7210  211.9360  139.3450 C   0  0  0  0  0  2  0  0  0  0  0  0
  156.9490  213.3850  138.9570 C   0  0  0  0  0  1  0  0  0  0  0  0
  158.9290  214.0280  149.0980 N   0  0  0  0  0  2  0  0  0  0  0  0
  158.1440  213.2450  150.0500 C   0  0  2  0  0  3  0  0  0  0  0  0
  156.8080  212.8740  149.4510 C   0  0  0  0  0  1  0  0  0  0  0  0
  158.4600  213.4960  152.5420 C   0  0  0  0  0  0  0  0  0  0  0  0
  159.6460  212.1830  153.9130 N   0  0  0  0  0  0  0  0  0  0  0  0
  159.3610  213.2190  154.8830 C   0  0  0  0  0  2  0  0  0  0  0  0
  157.9450  213.9660  151.2960 N   0  0  0  0  0  2  0  0  0  0  0  0
  158.3080  214.4520  154.0410 S   0  0  0  0  0  0  0  0  0  0  0  0
  159.1440  212.4130  152.6360 N   0  0  0  0  0  0  0  0  0  0  0  0
  160.4640  211.0200  154.2170 C   0  0  0  0  0  2  0  0  0  0  0  0
  159.9650  210.3500  155.4530 C   0  0  0  0  0  0  0  0  0  0  0  0
  160.7290  210.2070  156.4430 O   0  0  0  0  0  1  0  0  0  0  0  0
  158.6700  209.8520  155.4960 O   0  0  0  0  0  0  0  0  0  0  0  0
  159.9190  212.2970  147.5050 C   0  0  0  0  0  2  0  0  0  0  0  0
  161.5780  212.2660  148.1890 S   0  0  0  0  0  0  0  0  0  0  0  0
  162.5630  212.2420  147.0590 O   0  0  0  0  0  0  0  0  0  0  0  0
  161.8000  213.5030  149.0050 O   0  0  0  0  0  0  0  0  0  0  0  0
  162.3500  211.0330  150.5220 C   0  0  0  0  0  3  0  0  0  0  0  0
  161.8740  210.8770  149.2190 C   0  0  0  0  0  0  0  0  0  0  0  0
  161.7840  208.4660  149.5440 C   0  0  0  0  0  0  0  0  0  0  0  0
  162.2990  208.6260  150.8410 C   0  0  0  0  0  0  0  0  0  0  0  0
  162.5750  207.2450  151.8900 Cl  0  0  0  0  0  0  0  0  0  0  0  0
  162.5690  209.9100  151.3290 C   0  0  0  0  0  3  0  0  0  0  0  0
  161.5760  209.5980  148.7420 C   0  0  0  0  0  3  0  0  0  0  0  0
  161.4560  207.1580  149.0560 N   0  0  0  0  0  2  0  0  0  0  0  0
  160.2920  206.4170  149.5290 C   0  0  0  0  0  2  0  0  0  0  0  0
  160.6090  204.0310  150.0980 C   0  0  0  0  0  2  0  0  0  0  0  0
  161.3540  204.8620  147.8740 C   0  0  0  0  0  2  0  0  0  0  0  0
  160.6000  202.5830  149.6090 C   0  0  1  0  0  3  0  0  0  0  0  0
  159.3000  202.1710  149.3910 F   0  0  0  0  0  0  0  0  0  0  0  0
  160.2920  205.0050  148.9710 C   0  0  2  0  0  3  0  0  0  0  0  0
  161.3860  203.4860  147.3780 N   0  0  0  0  0  0  0  0  0  0  0  0
  161.3960  202.4270  148.3560 C   0  0  0  0  0  0  0  0  0  0  0  0
  162.1170  201.3260  148.1790 C   0  0  0  0  0  2  0  0  0  0  0  0
  160.8040  202.1100  145.4820 C   0  0  0  0  0  2  0  0  0  0  0  0
  161.3520  203.2250  145.9580 C   0  0  0  0  0  0  0  0  0  0  0  0
  162.0570  204.0740  145.0490 N   0  0  0  0  0  1  0  0  0  0  0  0
  1  2  2  0  0  0  0
  2 21  1  0  0  0  0
  3  1  1  0  0  0  0
  4  3  2  0  0  0  0
  5  9  1  0  0  0  0
  6  4  1  1  0  0  0
  7  6  1  0  0  0  0
  8 10  1  6  0  0  0
  8  5  1  0  0  0  0
  8  7  1  0  0  0  0
  9  6  1  0  0  0  0
 11 12  1  6  0  0  0
 11 10  1  0  0  0  0
 12 13  1  0  0  0  0
 14 12  2  0  0  0  0
 15 16  1  6  0  0  0
 15 11  1  0  0  0  0
 15 18  1  0  0  0  0
 16 17  1  0  0  0  0
 19 18  1  0  0  0  0
 20 19  1  0  0  0  0
 21 22  1  0  0  0  0
 22 23  1  6  0  0  0
 22 27  1  0  0  0  0
 24 29  2  0  0  0  0
 24 28  1  0  0  0  0
 25 30  1  0  0  0  0
 25 26  1  0  0  0  0
 27 24  1  0  0  0  0
 28 26  1  0  0  0  0
 29 25  1  0  0  0  0
 30 31  1  0  0  0  0
 31 33  2  0  0  0  0
 31 32  1  0  0  0  0
 34  2  1  0  0  0  0
 34 35  1  0  0  0  0
 35 37  2  0  0  0  0
 35 39  1  0  0  0  0
 36 35  2  0  0  0  0
 38 43  1  0  0  0  0
 39 38  2  0  0  0  0
 40 41  1  0  0  0  0
 41 43  2  0  0  0  0
 41 42  1  0  0  0  0
 44 39  1  0  0  0  0
 44 40  2  0  0  0  0
 45 46  1  0  0  0  0
 45 40  1  0  0  0  0
 48 51  1  0  0  0  0
 49 50  1  6  0  0  0
 49 47  1  0  0  0  0
 51 46  1  1  0  0  0
 51 47  1  0  0  0  0
 52 48  1  0  0  0  0
 52 53  1  0  0  0  0
 53 49  1  0  0  0  0
 54 53  2  0  0  0  0
 55 56  2  0  0  0  0
 56 52  1  0  0  0  0
 57 56  1  0  0  0  0
M  END
>  <MODEL>
1

>  <REMARK>
 VINA RESULT:      -5.2      0.000      0.000
  Name = 
  21 active torsions:
  status: ('A' for Active; 'I' for Inactive)
    1  A    between atoms: C_1  and  O_28
    2  A    between atoms: C_3  and  C_30
    3  A    between atoms: S_4  and  C_12
    4  A    between atoms: S_4  and  C_17
    5  A    between atoms: C_9  and  C_25
    6  A    between atoms: N_11  and  C_41
    7  A    between atoms: CA_13  and  C_16
    8  A    between atoms: CA_13  and  C_30
    9  A    between atoms: CA_13  and  N_53
   10  A    between atoms: C_14  and  C_22
   11  A    between atoms: C_17  and  C_48
   12  A    between atoms: C_18  and  N_35
   13  A    between atoms: C_21  and  C_34
   14  A    between atoms: C_21  and  N_47
   15  A    between atoms: C_23  and  C_41
   16  A    between atoms: C_27  and  N_47
   17  A    between atoms: O_28  and  C_30
   18  A    between atoms: N_31  and  C_44
   19  A    between atoms: C_44  and  N_57
   20  A    between atoms: C_48  and  N_57
   21  A    between atoms: C_49  and  N_53
                            x       y       z     vdW  Elec       q    Type
                         _______ _______ _______ _____ _____    ______ ____

>  <TORSDO>
F 21

$$$$
=
 OpenBabel11052410193D

 57 60  0  0  1  0  0  0  0  0999 V2000
  161.0350  212.8060  149.0170 C   0  0  0  0  0  3  0  0  0  0  0  0
  162.0640  212.0000  148.7560 C   0  0  0  0  0  0  0  0  0  0  0  0
  160.2840  212.7430  150.2720 C   0  0  0  0  0  3  0  0  0  0  0  0
  159.7360  213.8220  150.8000 C   0  0  0  0  0  3  0  0  0  0  0  0
  156.6200  213.8120  153.2180 S   0  0  0  0  0  0  0  0  0  0  0  0
  158.9580  213.7010  152.0630 C   0  0  2  0  0  3  0  0  0  0  0  0
  158.6220  212.2650  152.3600 C   0  0  0  0  0  2  0  0  0  0  0  0
  157.6270  212.3180  153.4910 C   0  0  1  0  0  3  0  0  0  0  0  0
  157.7170  214.4470  151.9820 N   0  0  0  0  0  2  0  0  0  0  0  0
  158.3360  212.4530  154.7510 N   0  0  0  0  0  2  0  0  0  0  0  0
  157.8610  211.4050  155.6370 C   0  0  2  0  0  3  0  0  0  0  0  0
  156.8040  211.9670  156.5340 C   0  0  0  0  0  0  0  0  0  0  0  0
  155.7510  211.1670  156.9770 O   0  0  0  0  0  1  0  0  0  0  0  0
  156.9130  213.1470  156.9550 O   0  0  0  0  0  0  0  0  0  0  0  0
  159.0370  210.8310  156.4400 C   0  0  1  0  0  3  0  0  0  0  0  0
  159.1120  209.3060  156.3360 C   0  0  0  0  0  2  0  0  0  0  0  0
  160.4010  208.9000  155.9830 O   0  0  0  0  0  1  0  0  0  0  0  0
  160.2420  211.3960  156.0020 O   0  0  0  0  0  0  0  0  0  0  0  0
  160.5700  212.3430  156.9710 C   0  0  0  0  0  2  0  0  0  0  0  0
  162.0610  212.2990  157.2430 C   0  0  0  0  0  1  0  0  0  0  0  0
  162.6520  212.0510  147.4490 N   0  0  0  0  0  2  0  0  0  0  0  0
  162.4810  213.1540  146.5060 C   0  0  2  0  0  3  0  0  0  0  0  0
  162.9500  214.4510  147.1240 C   0  0  0  0  0  1  0  0  0  0  0  0
  160.6960  213.0800  144.7230 C   0  0  0  0  0  0  0  0  0  0  0  0
  160.9300  212.5090  142.5720 N   0  0  0  0  0  0  0  0  0  0  0  0
  159.4840  212.5910  142.5640 C   0  0  0  0  0  2  0  0  0  0  0  0
  161.0990  213.2800  146.0780 N   0  0  0  0  0  2  0  0  0  0  0  0
  158.9790  213.1240  144.2380 S   0  0  0  0  0  0  0  0  0  0  0  0
  161.5310  212.7630  143.8010 N   0  0  0  0  0  0  0  0  0  0  0  0
  161.7040  212.1130  141.4070 C   0  0  0  0  0  2  0  0  0  0  0  0
  162.3090  213.3140  140.7610 C   0  0  0  0  0  0  0  0  0  0  0  0
  161.8090  214.4520  140.9540 O   0  0  0  0  0  1  0  0  0  0  0  0
  163.4030  213.1700  139.9180 O   0  0  0  0  0  0  0  0  0  0  0  0
  162.5440  210.9990  149.7720 C   0  0  0  0  0  2  0  0  0  0  0  0
  162.1020  209.3200  149.3160 S   0  0  0  0  0  0  0  0  0  0  0  0
  160.8750  209.3630  148.4570 O   0  0  0  0  0  0  0  0  0  0  0  0
  163.2250  208.7080  148.5340 O   0  0  0  0  0  0  0  0  0  0  0  0
  161.9890  208.7470  152.0030 C   0  0  0  0  0  3  0  0  0  0  0  0
  161.7830  208.2900  150.7000 C   0  0  0  0  0  0  0  0  0  0  0  0
  160.9790  206.1650  151.5750 C   0  0  0  0  0  0  0  0  0  0  0  0
  161.2240  206.6160  152.8820 C   0  0  0  0  0  0  0  0  0  0  0  0
  160.8840  205.6030  154.2760 Cl  0  0  0  0  0  0  0  0  0  0  0  0
  161.7170  207.9100  153.0910 C   0  0  0  0  0  3  0  0  0  0  0  0
  161.2630  207.0100  150.4910 C   0  0  0  0  0  3  0  0  0  0  0  0
  160.4260  204.8610  151.3550 N   0  0  0  0  0  2  0  0  0  0  0  0
  161.2280  203.7450  150.8650 C   0  0  0  0  0  2  0  0  0  0  0  0
  160.7030  201.7640  149.4820 C   0  0  0  0  0  2  0  0  0  0  0  0
  161.6750  203.7810  148.3990 C   0  0  0  0  0  2  0  0  0  0  0  0
  160.1890  201.2310  148.1440 C   0  0  1  0  0  3  0  0  0  0  0  0
  158.8250  201.4310  148.0540 F   0  0  0  0  0  0  0  0  0  0  0  0
  160.7350  203.2850  149.5050 C   0  0  2  0  0  3  0  0  0  0  0  0
  161.2250  203.2910  147.0960 N   0  0  0  0  0  0  0  0  0  0  0  0
  160.8740  201.8960  146.9960 C   0  0  0  0  0  0  0  0  0  0  0  0
  161.1680  201.1820  145.9160 C   0  0  0  0  0  2  0  0  0  0  0  0
  161.3110  205.5040  146.1380 C   0  0  0  0  0  2  0  0  0  0  0  0
  161.0940  204.2010  145.9830 C   0  0  0  0  0  0  0  0  0  0  0  0
  160.5630  203.7470  144.7360 N   0  0  0  0  0  1  0  0  0  0  0  0
  1  3  1  0  0  0  0
  2  1  2  0  0  0  0
  2 34  1  0  0  0  0
  3  4  2  0  0  0  0
  5  8  1  0  0  0  0
  6  4  1  6  0  0  0
  6  7  1  0  0  0  0
  7  8  1  0  0  0  0
  8 10  1  1  0  0  0
  9  6  1  0  0  0  0
  9  5  1  0  0  0  0
 11 10  1  6  0  0  0
 11 15  1  0  0  0  0
 11 12  1  0  0  0  0
 12 14  2  0  0  0  0
 12 13  1  0  0  0  0
 15 16  1  6  0  0  0
 17 16  1  0  0  0  0
 18 15  1  0  0  0  0
 18 19  1  0  0  0  0
 19 20  1  0  0  0  0
 21  2  1  0  0  0  0
 22 23  1  1  0  0  0
 22 21  1  0  0  0  0
 24 27  1  0  0  0  0
 25 29  1  0  0  0  0
 26 25  1  0  0  0  0
 26 28  1  0  0  0  0
 27 22  1  0  0  0  0
 28 24  1  0  0  0  0
 29 24  2  0  0  0  0
 30 25  1  0  0  0  0
 31 32  1  0  0  0  0
 31 30  1  0  0  0  0
 33 31  2  0  0  0  0
 35 34  1  0  0  0  0
 35 39  1  0  0  0  0
 36 35  2  0  0  0  0
 37 35  2  0  0  0  0
 38 43  1  0  0  0  0
 39 38  2  0  0  0  0
 40 41  1  0  0  0  0
 41 43  2  0  0  0  0
 41 42  1  0  0  0  0
 44 39  1  0  0  0  0
 44 40  2  0  0  0  0
 45 40  1  0  0  0  0
 46 45  1  0  0  0  0
 47 51  1  0  0  0  0
 48 51  1  0  0  0  0
 49 50  1  6  0  0  0
 49 47  1  0  0  0  0
 51 46  1  1  0  0  0
 52 48  1  0  0  0  0
 53 52  1  0  0  0  0
 53 49  1  0  0  0  0
 54 53  2  0  0  0  0
 56 55  2  0  0  0  0
 56 52  1  0  0  0  0
 57 56  1  0  0  0  0
M  END
>  <MODEL>
2

>  <REMARK>
 VINA RESULT:      -5.1      2.545     10.227
  Name = 
  21 active torsions:
  status: ('A' for Active; 'I' for Inactive)
    1  A    between atoms: C_1  and  O_28
    2  A    between atoms: C_3  and  C_30
    3  A    between atoms: S_4  and  C_12
    4  A    between atoms: S_4  and  C_17
    5  A    between atoms: C_9  and  C_25
    6  A    between atoms: N_11  and  C_41
    7  A    between atoms: CA_13  and  C_16
    8  A    between atoms: CA_13  and  C_30
    9  A    between atoms: CA_13  and  N_53
   10  A    between atoms: C_14  and  C_22
   11  A    between atoms: C_17  and  C_48
   12  A    between atoms: C_18  and  N_35
   13  A    between atoms: C_21  and  C_34
   14  A    between atoms: C_21  and  N_47
   15  A    between atoms: C_23  and  C_41
   16  A    between atoms: C_27  and  N_47
   17  A    between atoms: O_28  and  C_30
   18  A    between atoms: N_31  and  C_44
   19  A    between atoms: C_44  and  N_57
   20  A    between atoms: C_48  and  N_57
   21  A    between atoms: C_49  and  N_53
                            x       y       z     vdW  Elec       q    Type
                         _______ _______ _______ _____ _____    ______ ____

>  <TORSDO>
F 21

$$$$
=
 OpenBabel11052410193D

 57 60  0  0  1  0  0  0  0  0999 V2000
  161.1110  212.6660  149.4720 C   0  0  0  0  0  3  0  0  0  0  0  0
  162.0270  211.8370  148.9720 C   0  0  0  0  0  0  0  0  0  0  0  0
  160.5530  212.5060  150.8160 C   0  0  0  0  0  3  0  0  0  0  0  0
  159.7780  213.4310  151.3520 C   0  0  0  0  0  3  0  0  0  0  0  0
  157.0790  213.1250  154.2120 S   0  0  0  0  0  0  0  0  0  0  0  0
  159.2130  213.2080  152.7120 C   0  0  2  0  0  3  0  0  0  0  0  0
  159.0050  211.7430  152.9820 C   0  0  0  0  0  2  0  0  0  0  0  0
  158.1960  211.6860  154.2510 C   0  0  1  0  0  3  0  0  0  0  0  0
  157.9350  213.8780  152.8580 N   0  0  0  0  0  2  0  0  0  0  0  0
  159.0820  211.8120  155.3950 N   0  0  0  0  0  2  0  0  0  0  0  0
  159.8060  210.5590  155.5300 C   0  0  2  0  0  3  0  0  0  0  0  0
  158.8310  209.4630  155.8240 C   0  0  0  0  0  0  0  0  0  0  0  0
  159.2800  208.1810  156.1400 O   0  0  0  0  0  1  0  0  0  0  0  0
  157.6020  209.7230  155.8640 O   0  0  0  0  0  0  0  0  0  0  0  0
  160.8630  210.6860  156.6350 C   0  0  1  0  0  3  0  0  0  0  0  0
  161.2940  209.3210  157.1760 C   0  0  0  0  0  2  0  0  0  0  0  0
  162.1390  208.6770  156.2680 O   0  0  0  0  0  1  0  0  0  0  0  0
  161.9820  211.3800  156.1560 O   0  0  0  0  0  0  0  0  0  0  0  0
  162.8270  211.5080  157.2570 C   0  0  0  0  0  2  0  0  0  0  0  0
  164.2640  211.6250  156.7860 C   0  0  0  0  0  1  0  0  0  0  0  0
  162.4160  212.0010  147.6010 N   0  0  0  0  0  2  0  0  0  0  0  0
  162.3130  213.2520  146.8550 C   0  0  2  0  0  3  0  0  0  0  0  0
  162.6210  214.4270  147.7540 C   0  0  0  0  0  1  0  0  0  0  0  0
  160.7470  213.1830  144.8770 C   0  0  0  0  0  0  0  0  0  0  0  0
  161.2070  212.5290  142.7860 N   0  0  0  0  0  0  0  0  0  0  0  0
  159.7770  212.6640  142.6050 C   0  0  0  0  0  2  0  0  0  0  0  0
  160.9960  213.4140  146.2630 N   0  0  0  0  0  2  0  0  0  0  0  0
  159.1020  213.2720  144.1910 S   0  0  0  0  0  0  0  0  0  0  0  0
  161.6710  212.8030  144.0690 N   0  0  0  0  0  0  0  0  0  0  0  0
  162.0960  212.0650  141.7330 C   0  0  0  0  0  2  0  0  0  0  0  0
  161.3040  211.6380  140.5430 C   0  0  0  0  0  0  0  0  0  0  0  0
  161.2020  210.4160  140.2600 O   0  0  0  0  0  1  0  0  0  0  0  0
  160.7080  212.5920  139.7290 O   0  0  0  0  0  0  0  0  0  0  0  0
  162.5780  210.7020  149.7920 C   0  0  0  0  0  2  0  0  0  0  0  0
  162.1490  209.1040  149.0960 S   0  0  0  0  0  0  0  0  0  0  0  0
  160.9340  209.2680  148.2330 O   0  0  0  0  0  0  0  0  0  0  0  0
  163.2850  208.6120  148.2520 O   0  0  0  0  0  0  0  0  0  0  0  0
  162.0560  208.1330  151.6670 C   0  0  0  0  0  3  0  0  0  0  0  0
  161.8120  207.8880  150.3140 C   0  0  0  0  0  0  0  0  0  0  0  0
  160.9410  205.6840  150.8740 C   0  0  0  0  0  0  0  0  0  0  0  0
  161.2240  205.9220  152.2290 C   0  0  0  0  0  0  0  0  0  0  0  0
  160.8670  204.7210  153.4600 Cl  0  0  0  0  0  0  0  0  0  0  0  0
  161.7700  207.1500  152.6210 C   0  0  0  0  0  3  0  0  0  0  0  0
  161.2400  206.6730  149.9250 C   0  0  0  0  0  3  0  0  0  0  0  0
  160.3350  204.4490  150.4700 N   0  0  0  0  0  2  0  0  0  0  0  0
  161.1100  203.2330  150.2530 C   0  0  0  0  0  2  0  0  0  0  0  0
  161.8060  204.4700  148.2290 C   0  0  0  0  0  2  0  0  0  0  0  0
  160.3290  202.4830  147.9930 C   0  0  0  0  0  2  0  0  0  0  0  0
  162.2220  204.3990  146.7600 C   0  0  1  0  0  3  0  0  0  0  0  0
  163.4980  203.8770  146.6600 F   0  0  0  0  0  0  0  0  0  0  0  0
  161.4890  203.0910  148.7900 C   0  0  2  0  0  3  0  0  0  0  0  0
  160.6800  202.3990  146.5750 N   0  0  0  0  0  0  0  0  0  0  0  0
  161.2720  203.5640  145.9660 C   0  0  0  0  0  0  0  0  0  0  0  0
  160.9740  203.9270  144.7250 C   0  0  0  0  0  2  0  0  0  0  0  0
  161.3520  200.1660  145.9510 C   0  0  0  0  0  2  0  0  0  0  0  0
  160.4810  201.1660  145.8490 C   0  0  0  0  0  0  0  0  0  0  0  0
  159.4400  201.0600  144.8750 N   0  0  0  0  0  1  0  0  0  0  0  0
  1  3  1  0  0  0  0
  2  1  2  0  0  0  0
  2 34  1  0  0  0  0
  3  4  2  0  0  0  0
  5  8  1  0  0  0  0
  6  4  1  6  0  0  0
  6  9  1  0  0  0  0
  6  7  1  0  0  0  0
  7  8  1  0  0  0  0
  8 10  1  1  0  0  0
  9  5  1  0  0  0  0
 11 10  1  1  0  0  0
 11 12  1  0  0  0  0
 11 15  1  0  0  0  0
 12 14  2  0  0  0  0
 12 13  1  0  0  0  0
 15 16  1  6  0  0  0
 17 16  1  0  0  0  0
 18 15  1  0  0  0  0
 18 19  1  0  0  0  0
 20 19  1  0  0  0  0
 21  2  1  0  0  0  0
 22 21  1  0  0  0  0
 22 23  1  1  0  0  0
 24 27  1  0  0  0  0
 25 29  1  0  0  0  0
 26 25  1  0  0  0  0
 26 28  1  0  0  0  0
 27 22  1  0  0  0  0
 28 24  1  0  0  0  0
 29 24  2  0  0  0  0
 30 25  1  0  0  0  0
 31 30  1  0  0  0  0
 32 31  1  0  0  0  0
 33 31  2  0  0  0  0
 35 34  1  0  0  0  0
 35 39  1  0  0  0  0
 36 35  2  0  0  0  0
 37 35  2  0  0  0  0
 38 43  1  0  0  0  0
 39 38  2  0  0  0  0
 40 41  1  0  0  0  0
 41 43  2  0  0  0  0
 41 42  1  0  0  0  0
 44 39  1  0  0  0  0
 44 40  2  0  0  0  0
 45 40  1  0  0  0  0
 46 45  1  0  0  0  0
 47 51  1  0  0  0  0
 48 51  1  0  0  0  0
 49 50  1  1  0  0  0
 49 47  1  0  0  0  0
 51 46  1  1  0  0  0
 52 48  1  0  0  0  0
 53 52  1  0  0  0  0
 53 49  1  0  0  0  0
 54 53  2  0  0  0  0
 56 55  2  0  0  0  0
 56 52  1  0  0  0  0
 57 56  1  0  0  0  0
M  END
>  <MODEL>
3

>  <REMARK>
 VINA RESULT:      -3.8      2.425     10.356
  Name = 
  21 active torsions:
  status: ('A' for Active; 'I' for Inactive)
    1  A    between atoms: C_1  and  O_28
    2  A    between atoms: C_3  and  C_30
    3  A    between atoms: S_4  and  C_12
    4  A    between atoms: S_4  and  C_17
    5  A    between atoms: C_9  and  C_25
    6  A    between atoms: N_11  and  C_41
    7  A    between atoms: CA_13  and  C_16
    8  A    between atoms: CA_13  and  C_30
    9  A    between atoms: CA_13  and  N_53
   10  A    between atoms: C_14  and  C_22
   11  A    between atoms: C_17  and  C_48
   12  A    between atoms: C_18  and  N_35
   13  A    between atoms: C_21  and  C_34
   14  A    between atoms: C_21  and  N_47
   15  A    between atoms: C_23  and  C_41
   16  A    between atoms: C_27  and  N_47
   17  A    between atoms: O_28  and  C_30
   18  A    between atoms: N_31  and  C_44
   19  A    between atoms: C_44  and  N_57
   20  A    between atoms: C_48  and  N_57
   21  A    between atoms: C_49  and  N_53
                            x       y       z     vdW  Elec       q    Type
                         _______ _______ _______ _____ _____    ______ ____

>  <TORSDO>
F 21

$$$$
=
 OpenBabel11052410193D

 57 60  0  0  1  0  0  0  0  0999 V2000
  161.7170  209.2960  151.9520 C   0  0  0  0  0  3  0  0  0  0  0  0
  161.0750  210.4590  152.0590 C   0  0  0  0  0  0  0  0  0  0  0  0
  161.5300  208.3950  150.8130 C   0  0  0  0  0  3  0  0  0  0  0  0
  160.9970  207.1970  150.9640 C   0  0  0  0  0  3  0  0  0  0  0  0
  161.1350  206.0320  147.1980 S   0  0  0  0  0  0  0  0  0  0  0  0
  160.8030  206.3290  149.7700 C   0  0  2  0  0  3  0  0  0  0  0  0
  161.9040  205.3100  149.6530 C   0  0  0  0  0  2  0  0  0  0  0  0
  161.7310  204.6980  148.2870 C   0  0  1  0  0  3  0  0  0  0  0  0
  160.7880  207.1180  148.5530 N   0  0  0  0  0  2  0  0  0  0  0  0
  160.7200  203.6580  148.3490 N   0  0  0  0  0  2  0  0  0  0  0  0
  161.4040  202.3910  148.5450 C   0  0  2  0  0  3  0  0  0  0  0  0
  161.3020  201.5830  147.2900 C   0  0  0  0  0  0  0  0  0  0  0  0
  160.9870  202.1950  146.0770 O   0  0  0  0  0  0  0  0  0  0  0  0
  161.5810  200.3580  147.3190 O   0  0  0  0  0  1  0  0  0  0  0  0
  160.7940  201.6510  149.7440 C   0  0  1  0  0  3  0  0  0  0  0  0
  161.4680  202.0420  151.0610 C   0  0  0  0  0  2  0  0  0  0  0  0
  160.6390  202.8840  151.8070 O   0  0  0  0  0  1  0  0  0  0  0  0
  159.4190  201.9070  149.8210 O   0  0  0  0  0  0  0  0  0  0  0  0
  158.8710  201.2710  148.7080 C   0  0  0  0  0  2  0  0  0  0  0  0
  157.3710  201.1310  148.8890 C   0  0  0  0  0  1  0  0  0  0  0  0
  161.2260  211.2080  153.2730 N   0  0  0  0  0  2  0  0  0  0  0  0
  161.3840  210.6150  154.5990 C   0  0  2  0  0  3  0  0  0  0  0  0
  160.3510  209.5340  154.8170 C   0  0  0  0  0  1  0  0  0  0  0  0
  160.0780  212.3480  155.8900 C   0  0  0  0  0  0  0  0  0  0  0  0
  157.9180  212.8870  155.6630 N   0  0  0  0  0  0  0  0  0  0  0  0
  158.1620  213.6810  156.8480 C   0  0  0  0  0  2  0  0  0  0  0  0
  161.2800  211.6160  155.6460 N   0  0  0  0  0  2  0  0  0  0  0  0
  159.9330  213.4880  157.2550 S   0  0  0  0  0  0  0  0  0  0  0  0
  159.0090  212.1550  155.2040 N   0  0  0  0  0  0  0  0  0  0  0  0
  156.6110  212.7890  155.0330 C   0  0  0  0  0  2  0  0  0  0  0  0
  155.8660  211.6170  155.5760 C   0  0  0  0  0  0  0  0  0  0  0  0
  155.7130  211.4880  156.8180 O   0  0  0  0  0  1  0  0  0  0  0  0
  155.3730  210.6480  154.7110 O   0  0  0  0  0  0  0  0  0  0  0  0
  160.1440  210.9360  150.9770 C   0  0  0  0  0  2  0  0  0  0  0  0
  160.8610  212.2760  150.0230 S   0  0  0  0  0  0  0  0  0  0  0  0
  161.0080  213.4740  150.9110 O   0  0  0  0  0  0  0  0  0  0  0  0
  162.2150  211.8640  149.5310 O   0  0  0  0  0  0  0  0  0  0  0  0
  158.8560  213.6540  148.7410 C   0  0  0  0  0  3  0  0  0  0  0  0
  159.8940  212.7260  148.6300 C   0  0  0  0  0  0  0  0  0  0  0  0
  159.4640  212.5360  146.2410 C   0  0  0  0  0  0  0  0  0  0  0  0
  158.3970  213.4400  146.3660 C   0  0  0  0  0  0  0  0  0  0  0  0
  157.4380  213.9180  144.9740 Cl  0  0  0  0  0  0  0  0  0  0  0  0
  158.1050  214.0040  147.6130 C   0  0  0  0  0  3  0  0  0  0  0  0
  160.2050  212.1850  147.3800 C   0  0  0  0  0  3  0  0  0  0  0  0
  159.8030  211.9930  144.9580 N   0  0  0  0  0  2  0  0  0  0  0  0
  160.4650  212.7830  143.9260 C   0  0  0  0  0  2  0  0  0  0  0  0
  161.7160  211.9570  141.9600 C   0  0  0  0  0  2  0  0  0  0  0  0
  159.4670  212.9700  141.6340 C   0  0  0  0  0  2  0  0  0  0  0  0
  161.6570  211.2650  140.5980 C   0  0  1  0  0  3  0  0  0  0  0  0
  161.3930  209.9200  140.7680 F   0  0  0  0  0  0  0  0  0  0  0  0
  160.3300  212.1150  142.5690 C   0  0  2  0  0  3  0  0  0  0  0  0
  159.3850  212.3480  140.3120 N   0  0  0  0  0  0  0  0  0  0  0  0
  160.6140  211.8770  139.7220 C   0  0  0  0  0  0  0  0  0  0  0  0
  160.8500  211.9960  138.4210 C   0  0  0  0  0  2  0  0  0  0  0  0
  157.7080  210.9750  139.2490 C   0  0  0  0  0  2  0  0  0  0  0  0
  158.1040  212.1740  139.6680 C   0  0  0  0  0  0  0  0  0  0  0  0
  157.3120  213.3100  139.3160 N   0  0  0  0  0  1  0  0  0  0  0  0
  1  2  2  0  0  0  0
  2 21  1  0  0  0  0
  3  4  2  0  0  0  0
  3  1  1  0  0  0  0
  5  8  1  0  0  0  0
  5  9  1  0  0  0  0
  6  4  1  1  0  0  0
  7  6  1  0  0  0  0
  8 10  1  1  0  0  0
  8  7  1  0  0  0  0
  9  6  1  0  0  0  0
 10 11  1  0  0  0  0
 11 12  1  6  0  0  0
 11 15  1  0  0  0  0
 12 14  1  0  0  0  0
 13 12  2  0  0  0  0
 15 18  1  0  0  0  0
 15 16  1  1  0  0  0
 16 17  1  0  0  0  0
 19 20  1  0  0  0  0
 19 18  1  0  0  0  0
 21 22  1  0  0  0  0
 22 23  1  1  0  0  0
 22 27  1  0  0  0  0
 24 28  1  0  0  0  0
 25 26  1  0  0  0  0
 26 28  1  0  0  0  0
 27 24  1  0  0  0  0
 29 25  1  0  0  0  0
 29 24  2  0  0  0  0
 30 31  1  0  0  0  0
 30 25  1  0  0  0  0
 31 32  1  0  0  0  0
 33 31  2  0  0  0  0
 34  2  1  0  0  0  0
 35 36  2  0  0  0  0
 35 34  1  0  0  0  0
 37 35  2  0  0  0  0
 39 38  1  0  0  0  0
 39 35  1  0  0  0  0
 40 41  2  0  0  0  0
 40 44  1  0  0  0  0
 41 43  1  0  0  0  0
 42 41  1  0  0  0  0
 43 38  2  0  0  0  0
 44 39  2  0  0  0  0
 45 40  1  0  0  0  0
 46 45  1  0  0  0  0
 47 51  1  0  0  0  0
 48 51  1  0  0  0  0
 49 50  1  1  0  0  0
 49 47  1  0  0  0  0
 51 46  1  1  0  0  0
 52 48  1  0  0  0  0
 53 52  1  0  0  0  0
 53 49  1  0  0  0  0
 54 53  2  0  0  0  0
 55 56  2  0  0  0  0
 56 52  1  0  0  0  0
 57 56  1  0  0  0  0
M  END
>  <MODEL>
4

>  <REMARK>
 VINA RESULT:      -3.5      4.283      9.585
  Name = 
  21 active torsions:
  status: ('A' for Active; 'I' for Inactive)
    1  A    between atoms: C_1  and  O_28
    2  A    between atoms: C_3  and  C_30
    3  A    between atoms: S_4  and  C_12
    4  A    between atoms: S_4  and  C_17
    5  A    between atoms: C_9  and  C_25
    6  A    between atoms: N_11  and  C_41
    7  A    between atoms: CA_13  and  C_16
    8  A    between atoms: CA_13  and  C_30
    9  A    between atoms: CA_13  and  N_53
   10  A    between atoms: C_14  and  C_22
   11  A    between atoms: C_17  and  C_48
   12  A    between atoms: C_18  and  N_35
   13  A    between atoms: C_21  and  C_34
   14  A    between atoms: C_21  and  N_47
   15  A    between atoms: C_23  and  C_41
   16  A    between atoms: C_27  and  N_47
   17  A    between atoms: O_28  and  C_30
   18  A    between atoms: N_31  and  C_44
   19  A    between atoms: C_44  and  N_57
   20  A    between atoms: C_48  and  N_57
   21  A    between atoms: C_49  and  N_53
                            x       y       z     vdW  Elec       q    Type
                         _______ _______ _______ _____ _____    ______ ____

>  <TORSDO>
F 21

$$$$
=
 OpenBabel11052410193D

 57 60  0  0  1  0  0  0  0  0999 V2000
  162.1240  208.9510  151.0080 C   0  0  0  0  0  3  0  0  0  0  0  0
  161.4180  210.0630  151.2120 C   0  0  0  0  0  0  0  0  0  0  0  0
  162.0830  208.2120  149.7450 C   0  0  0  0  0  3  0  0  0  0  0  0
  161.6570  206.9640  149.6930 C   0  0  0  0  0  3  0  0  0  0  0  0
  162.8140  205.7540  146.1210 S   0  0  0  0  0  0  0  0  0  0  0  0
  161.6080  206.2650  148.3790 C   0  0  2  0  0  3  0  0  0  0  0  0
  162.0470  204.8310  148.5080 C   0  0  0  0  0  2  0  0  0  0  0  0
  162.2050  204.3380  147.0930 C   0  0  1  0  0  3  0  0  0  0  0  0
  162.4730  206.9150  147.4130 N   0  0  0  0  0  2  0  0  0  0  0  0
  160.9090  203.9360  146.5740 N   0  0  0  0  0  2  0  0  0  0  0  0
  160.9960  202.5320  146.2150 C   0  0  2  0  0  3  0  0  0  0  0  0
  160.1630  202.2880  144.9970 C   0  0  0  0  0  0  0  0  0  0  0  0
  159.4460  203.3290  144.4090 O   0  0  0  0  0  0  0  0  0  0  0  0
  160.1750  201.1530  144.4560 O   0  0  0  0  0  1  0  0  0  0  0  0
  160.5370  201.6640  147.3960 C   0  0  1  0  0  3  0  0  0  0  0  0
  160.6390  200.1690  147.0820 C   0  0  0  0  0  2  0  0  0  0  0  0
  161.9750  199.7840  146.9480 O   0  0  0  0  0  1  0  0  0  0  0  0
  161.2950  201.9600  148.5360 O   0  0  0  0  0  0  0  0  0  0  0  0
  160.4260  201.7620  149.6080 C   0  0  0  0  0  2  0  0  0  0  0  0
  160.8680  202.6100  150.7860 C   0  0  0  0  0  1  0  0  0  0  0  0
  161.4240  210.6400  152.5250 N   0  0  0  0  0  2  0  0  0  0  0  0
  161.8110  209.9290  153.7410 C   0  0  2  0  0  3  0  0  0  0  0  0
  160.8360  208.8120  154.0290 C   0  0  0  0  0  1  0  0  0  0  0  0
  160.7480  211.5210  155.3860 C   0  0  0  0  0  0  0  0  0  0  0  0
  158.5830  212.0620  155.5660 N   0  0  0  0  0  0  0  0  0  0  0  0
  159.0230  212.7420  156.7660 C   0  0  0  0  0  2  0  0  0  0  0  0
  161.8880  210.8250  154.8820 N   0  0  0  0  0  2  0  0  0  0  0  0
  160.8360  212.5250  156.8580 S   0  0  0  0  0  0  0  0  0  0  0  0
  159.5800  211.3860  154.8690 N   0  0  0  0  0  0  0  0  0  0  0  0
  157.1900  212.0140  155.1520 C   0  0  0  0  0  2  0  0  0  0  0  0
  156.8930  213.1430  154.2220 C   0  0  0  0  0  0  0  0  0  0  0  0
  157.7900  213.9780  153.9380 O   0  0  0  0  0  1  0  0  0  0  0  0
  155.6150  213.2910  153.7000 O   0  0  0  0  0  0  0  0  0  0  0  0
  160.5630  210.6520  150.1220 C   0  0  0  0  0  2  0  0  0  0  0  0
  161.4110  211.9700  149.2470 S   0  0  0  0  0  0  0  0  0  0  0  0
  161.6240  213.1140  150.1910 O   0  0  0  0  0  0  0  0  0  0  0  0
  162.7440  211.4720  148.7750 O   0  0  0  0  0  0  0  0  0  0  0  0
  159.2620  213.1330  147.9860 C   0  0  0  0  0  3  0  0  0  0  0  0
  160.5250  212.5520  147.8500 C   0  0  0  0  0  0  0  0  0  0  0  0
  160.4470  212.9530  145.4500 C   0  0  0  0  0  0  0  0  0  0  0  0
  159.1610  213.5010  145.5880 C   0  0  0  0  0  0  0  0  0  0  0  0
  158.2750  214.1110  144.1990 Cl  0  0  0  0  0  0  0  0  0  0  0  0
  158.5790  213.5990  146.8570 C   0  0  0  0  0  3  0  0  0  0  0  0
  161.1190  212.4810  146.5870 C   0  0  0  0  0  3  0  0  0  0  0  0
  161.0710  212.8970  144.1600 N   0  0  0  0  0  2  0  0  0  0  0  0
  160.6440  211.9600  143.1260 C   0  0  0  0  0  2  0  0  0  0  0  0
  159.7200  211.9040  140.8330 C   0  0  0  0  0  2  0  0  0  0  0  0
  162.1150  212.4880  141.1670 C   0  0  0  0  0  2  0  0  0  0  0  0
  159.7110  212.5260  139.4370 C   0  0  1  0  0  3  0  0  0  0  0  0
  159.0640  213.7470  139.4730 F   0  0  0  0  0  0  0  0  0  0  0  0
  160.7050  212.6100  141.7550 C   0  0  2  0  0  3  0  0  0  0  0  0
  162.1540  213.0680  139.8240 N   0  0  0  0  0  0  0  0  0  0  0  0
  161.0970  212.7060  138.9130 C   0  0  0  0  0  0  0  0  0  0  0  0
  161.3320  212.5040  137.6220 C   0  0  0  0  0  2  0  0  0  0  0  0
  163.3940  214.3530  138.1990 C   0  0  0  0  0  2  0  0  0  0  0  0
  163.1920  214.0080  139.4680 C   0  0  0  0  0  0  0  0  0  0  0  0
  164.1320  214.4520  140.4480 N   0  0  0  0  0  1  0  0  0  0  0  0
  1  2  2  0  0  0  0
  2 21  1  0  0  0  0
  3  1  1  0  0  0  0
  4  3  2  0  0  0  0
  5  8  1  0  0  0  0
  5  9  1  0  0  0  0
  6  7  1  0  0  0  0
  6  4  1  1  0  0  0
  8 10  1  6  0  0  0
  8  7  1  0  0  0  0
  9  6  1  0  0  0  0
 11 12  1  6  0  0  0
 11 10  1  0  0  0  0
 11 15  1  0  0  0  0
 13 12  2  0  0  0  0
 14 12  1  0  0  0  0
 15 16  1  6  0  0  0
 15 18  1  0  0  0  0
 17 16  1  0  0  0  0
 18 19  1  0  0  0  0
 19 20  1  0  0  0  0
 21 22  1  0  0  0  0
 22 23  1  1  0  0  0
 22 27  1  0  0  0  0
 24 28  1  0  0  0  0
 25 26  1  0  0  0  0
 26 28  1  0  0  0  0
 27 24  1  0  0  0  0
 29 24  2  0  0  0  0
 29 25  1  0  0  0  0
 30 25  1  0  0  0  0
 31 30  1  0  0  0  0
 32 31  1  0  0  0  0
 33 31  2  0  0  0  0
 34  2  1  0  0  0  0
 35 34  1  0  0  0  0
 35 36  2  0  0  0  0
 37 35  2  0  0  0  0
 39 38  1  0  0  0  0
 39 35  1  0  0  0  0
 40 41  2  0  0  0  0
 40 44  1  0  0  0  0
 41 43  1  0  0  0  0
 42 41  1  0  0  0  0
 43 38  2  0  0  0  0
 44 39  2  0  0  0  0
 45 40  1  0  0  0  0
 46 45  1  0  0  0  0
 47 51  1  0  0  0  0
 48 51  1  0  0  0  0
 49 50  1  1  0  0  0
 49 47  1  0  0  0  0
 51 46  1  1  0  0  0
 52 48  1  0  0  0  0
 53 49  1  0  0  0  0
 53 52  1  0  0  0  0
 54 53  2  0  0  0  0
 55 56  2  0  0  0  0
 56 52  1  0  0  0  0
 56 57  1  0  0  0  0
M  END
>  <MODEL>
5

>  <REMARK>
 VINA RESULT:      -3.2      4.320      9.546
  Name = 
  21 active torsions:
  status: ('A' for Active; 'I' for Inactive)
    1  A    between atoms: C_1  and  O_28
    2  A    between atoms: C_3  and  C_30
    3  A    between atoms: S_4  and  C_12
    4  A    between atoms: S_4  and  C_17
    5  A    between atoms: C_9  and  C_25
    6  A    between atoms: N_11  and  C_41
    7  A    between atoms: CA_13  and  C_16
    8  A    between atoms: CA_13  and  C_30
    9  A    between atoms: CA_13  and  N_53
   10  A    between atoms: C_14  and  C_22
   11  A    between atoms: C_17  and  C_48
   12  A    between atoms: C_18  and  N_35
   13  A    between atoms: C_21  and  C_34
   14  A    between atoms: C_21  and  N_47
   15  A    between atoms: C_23  and  C_41
   16  A    between atoms: C_27  and  N_47
   17  A    between atoms: O_28  and  C_30
   18  A    between atoms: N_31  and  C_44
   19  A    between atoms: C_44  and  N_57
   20  A    between atoms: C_48  and  N_57
   21  A    between atoms: C_49  and  N_53
                            x       y       z     vdW  Elec       q    Type
                         _______ _______ _______ _____ _____    ______ ____

>  <TORSDO>
F 21

$$$$
=
 OpenBabel11052410193D

 57 60  0  0  1  0  0  0  0  0999 V2000
  160.8450  212.0170  150.4000 C   0  0  0  0  0  3  0  0  0  0  0  0
  161.6200  211.1880  149.7020 C   0  0  0  0  0  0  0  0  0  0  0  0
  160.6280  211.8690  151.8400 C   0  0  0  0  0  3  0  0  0  0  0  0
  159.8000  212.6610  152.4960 C   0  0  0  0  0  3  0  0  0  0  0  0
  160.6810  212.2870  156.3220 S   0  0  0  0  0  0  0  0  0  0  0  0
  159.5940  212.4510  153.9560 C   0  0  2  0  0  3  0  0  0  0  0  0
  159.1920  213.7300  154.6380 C   0  0  0  0  0  2  0  0  0  0  0  0
  159.2820  213.4360  156.1130 C   0  0  1  0  0  3  0  0  0  0  0  0
  160.8060  211.9650  154.5860 N   0  0  0  0  0  2  0  0  0  0  0  0
  158.0640  212.7750  156.5480 N   0  0  0  0  0  2  0  0  0  0  0  0
  157.1550  212.7390  155.4160 C   0  0  2  0  0  3  0  0  0  0  0  0
  156.0620  213.7370  155.6370 C   0  0  0  0  0  0  0  0  0  0  0  0
  155.7040  214.1220  156.9290 O   0  0  0  0  0  1  0  0  0  0  0  0
  155.5180  214.2890  154.6470 O   0  0  0  0  0  0  0  0  0  0  0  0
  156.5960  211.3200  155.2420 C   0  0  1  0  0  3  0  0  0  0  0  0
  157.4270  210.2810  155.9990 C   0  0  0  0  0  2  0  0  0  0  0  0
  158.3420  209.6640  155.1430 O   0  0  0  0  0  1  0  0  0  0  0  0
  155.2650  211.2680  155.6750 O   0  0  0  0  0  0  0  0  0  0  0  0
  155.2740  210.4030  156.7690 C   0  0  0  0  0  2  0  0  0  0  0  0
  153.8550  210.1880  157.2590 C   0  0  0  0  0  1  0  0  0  0  0  0
  161.6650  211.3390  148.2760 N   0  0  0  0  0  2  0  0  0  0  0  0
  161.5780  212.6170  147.5750 C   0  0  2  0  0  3  0  0  0  0  0  0
  161.9310  213.7530  148.5070 C   0  0  0  0  0  1  0  0  0  0  0  0
  160.0440  213.1060  145.6310 C   0  0  0  0  0  0  0  0  0  0  0  0
  160.5960  213.3440  143.4750 N   0  0  0  0  0  0  0  0  0  0  0  0
  159.1620  213.3640  143.2800 C   0  0  0  0  0  2  0  0  0  0  0  0
  160.2540  212.8300  147.0160 N   0  0  0  0  0  2  0  0  0  0  0  0
  158.4050  213.2490  144.9400 S   0  0  0  0  0  0  0  0  0  0  0  0
  161.0140  213.1700  144.7910 N   0  0  0  0  0  0  0  0  0  0  0  0
  161.5440  213.4180  142.3740 C   0  0  0  0  0  2  0  0  0  0  0  0
  161.4400  212.1960  141.5250 C   0  0  0  0  0  0  0  0  0  0  0  0
  161.1880  211.0810  142.0520 O   0  0  0  0  0  1  0  0  0  0  0  0
  161.6570  212.2830  140.1560 O   0  0  0  0  0  0  0  0  0  0  0  0
  162.3620  210.0650  150.3760 C   0  0  0  0  0  2  0  0  0  0  0  0
  162.1450  208.5070  149.5120 S   0  0  0  0  0  0  0  0  0  0  0  0
  161.0140  208.6510  148.5390 O   0  0  0  0  0  0  0  0  0  0  0  0
  163.3990  208.1810  148.7590 O   0  0  0  0  0  0  0  0  0  0  0  0
  161.9410  207.2890  151.9690 C   0  0  0  0  0  3  0  0  0  0  0  0
  161.7930  207.1660  150.5860 C   0  0  0  0  0  0  0  0  0  0  0  0
  160.9990  204.8830  150.8780 C   0  0  0  0  0  0  0  0  0  0  0  0
  161.1860  205.0010  152.2650 C   0  0  0  0  0  0  0  0  0  0  0  0
  160.8130  203.6720  153.3520 Cl  0  0  0  0  0  0  0  0  0  0  0  0
  161.6450  206.2070  152.8060 C   0  0  0  0  0  3  0  0  0  0  0  0
  161.3070  205.9710  150.0480 C   0  0  0  0  0  3  0  0  0  0  0  0
  160.4800  203.6680  150.3220 N   0  0  0  0  0  2  0  0  0  0  0  0
  161.3440  202.5700  149.9010 C   0  0  0  0  0  2  0  0  0  0  0  0
  161.5060  204.0200  147.9050 C   0  0  0  0  0  2  0  0  0  0  0  0
  160.3940  201.8030  147.7120 C   0  0  0  0  0  2  0  0  0  0  0  0
  161.7120  204.1040  146.3920 C   0  0  1  0  0  3  0  0  0  0  0  0
  163.0330  203.8400  146.0850 F   0  0  0  0  0  0  0  0  0  0  0  0
  161.5270  202.5780  148.3940 C   0  0  2  0  0  3  0  0  0  0  0  0
  160.5460  201.8600  146.2580 N   0  0  0  0  0  0  0  0  0  0  0  0
  160.8250  203.1460  145.6690 C   0  0  0  0  0  0  0  0  0  0  0  0
  160.2900  203.5090  144.5090 C   0  0  0  0  0  2  0  0  0  0  0  0
  159.5820  200.5300  144.4890 C   0  0  0  0  0  2  0  0  0  0  0  0
  160.4710  200.6510  145.4710 C   0  0  0  0  0  0  0  0  0  0  0  0
  161.2310  199.4990  145.8420 N   0  0  0  0  0  1  0  0  0  0  0  0
  1  3  1  0  0  0  0
  2 34  1  0  0  0  0
  2  1  2  0  0  0  0
  3  4  2  0  0  0  0
  6  4  1  6  0  0  0
  6  9  1  0  0  0  0
  6  7  1  0  0  0  0
  7  8  1  0  0  0  0
  8  5  1  0  0  0  0
  8 10  1  6  0  0  0
  9  5  1  0  0  0  0
 11 12  1  1  0  0  0
 11 10  1  0  0  0  0
 12 13  1  0  0  0  0
 14 12  2  0  0  0  0
 15 11  1  0  0  0  0
 15 18  1  0  0  0  0
 15 16  1  1  0  0  0
 17 16  1  0  0  0  0
 18 19  1  0  0  0  0
 19 20  1  0  0  0  0
 21  2  1  0  0  0  0
 22 21  1  0  0  0  0
 22 23  1  1  0  0  0
 24 27  1  0  0  0  0
 25 29  1  0  0  0  0
 26 25  1  0  0  0  0
 26 28  1  0  0  0  0
 27 22  1  0  0  0  0
 28 24  1  0  0  0  0
 29 24  2  0  0  0  0
 30 25  1  0  0  0  0
 31 32  1  0  0  0  0
 31 30  1  0  0  0  0
 33 31  2  0  0  0  0
 35 34  1  0  0  0  0
 35 39  1  0  0  0  0
 36 35  2  0  0  0  0
 37 35  2  0  0  0  0
 38 43  1  0  0  0  0
 39 38  2  0  0  0  0
 40 41  1  0  0  0  0
 41 43  2  0  0  0  0
 41 42  1  0  0  0  0
 44 39  1  0  0  0  0
 44 40  2  0  0  0  0
 45 40  1  0  0  0  0
 46 45  1  0  0  0  0
 47 51  1  0  0  0  0
 48 51  1  0  0  0  0
 49 50  1  1  0  0  0
 49 47  1  0  0  0  0
 51 46  1  1  0  0  0
 52 48  1  0  0  0  0
 53 52  1  0  0  0  0
 53 49  1  0  0  0  0
 54 53  2  0  0  0  0
 55 56  2  0  0  0  0
 56 57  1  0  0  0  0
 56 52  1  0  0  0  0
M  END
>  <MODEL>
6

>  <REMARK>
 VINA RESULT:      -3.1      2.877     10.252
  Name = 
  21 active torsions:
  status: ('A' for Active; 'I' for Inactive)
    1  A    between atoms: C_1  and  O_28
    2  A    between atoms: C_3  and  C_30
    3  A    between atoms: S_4  and  C_12
    4  A    between atoms: S_4  and  C_17
    5  A    between atoms: C_9  and  C_25
    6  A    between atoms: N_11  and  C_41
    7  A    between atoms: CA_13  and  C_16
    8  A    between atoms: CA_13  and  C_30
    9  A    between atoms: CA_13  and  N_53
   10  A    between atoms: C_14  and  C_22
   11  A    between atoms: C_17  and  C_48
   12  A    between atoms: C_18  and  N_35
   13  A    between atoms: C_21  and  C_34
   14  A    between atoms: C_21  and  N_47
   15  A    between atoms: C_23  and  C_41
   16  A    between atoms: C_27  and  N_47
   17  A    between atoms: O_28  and  C_30
   18  A    between atoms: N_31  and  C_44
   19  A    between atoms: C_44  and  N_57
   20  A    between atoms: C_48  and  N_57
   21  A    between atoms: C_49  and  N_53
                            x       y       z     vdW  Elec       q    Type
                         _______ _______ _______ _____ _____    ______ ____

>  <TORSDO>
F 21

$$$$
=
 OpenBabel11052410193D

 57 60  0  0  1  0  0  0  0  0999 V2000
  161.4110  205.1340  144.2230 C   0  0  0  0  0  3  0  0  0  0  0  0
  161.1870  205.4550  145.4970 C   0  0  0  0  0  0  0  0  0  0  0  0
  161.6340  206.1400  143.1840 C   0  0  0  0  0  3  0  0  0  0  0  0
  162.1080  205.8100  141.9970 C   0  0  0  0  0  3  0  0  0  0  0  0
  161.9720  207.5790  138.4740 S   0  0  0  0  0  0  0  0  0  0  0  0
  162.2910  206.8670  140.9650 C   0  0  2  0  0  3  0  0  0  0  0  0
  161.1680  207.8680  141.0050 C   0  0  0  0  0  2  0  0  0  0  0  0
  161.3370  208.7020  139.7620 C   0  0  1  0  0  3  0  0  0  0  0  0
  162.3330  206.2920  139.6340 N   0  0  0  0  0  2  0  0  0  0  0  0
  162.3230  209.7390  140.0070 N   0  0  0  0  0  2  0  0  0  0  0  0
  161.8560  210.9520  139.3570 C   0  0  2  0  0  3  0  0  0  0  0  0
  162.9650  211.5180  138.5280 C   0  0  0  0  0  0  0  0  0  0  0  0
  162.6870  212.2160  137.3530 O   0  0  0  0  0  0  0  0  0  0  0  0
  164.1500  211.4310  138.9380 O   0  0  0  0  0  1  0  0  0  0  0  0
  161.3720  211.9550  140.4140 C   0  0  1  0  0  3  0  0  0  0  0  0
  159.9160  212.3660  140.1890 C   0  0  0  0  0  2  0  0  0  0  0  0
  159.1150  211.2420  139.9710 O   0  0  0  0  0  1  0  0  0  0  0  0
  161.5180  211.4120  141.6970 O   0  0  0  0  0  0  0  0  0  0  0  0
  161.8430  212.4950  142.5130 C   0  0  0  0  0  2  0  0  0  0  0  0
  162.7030  213.4760  141.7380 C   0  0  0  0  0  1  0  0  0  0  0  0
  160.8510  204.4040  146.4130 N   0  0  0  0  0  2  0  0  0  0  0  0
  161.1300  202.9880  146.1880 C   0  0  2  0  0  3  0  0  0  0  0  0
  160.5200  202.5330  144.8830 C   0  0  0  0  0  1  0  0  0  0  0  0
  160.8710  202.4910  148.6490 C   0  0  0  0  0  0  0  0  0  0  0  0
  161.5560  203.7350  150.3790 N   0  0  0  0  0  0  0  0  0  0  0  0
  160.8080  202.7700  151.1560 C   0  0  0  0  0  2  0  0  0  0  0  0
  160.6350  202.1660  147.2790 N   0  0  0  0  0  2  0  0  0  0  0  0
  160.1560  201.5360  149.9760 S   0  0  0  0  0  0  0  0  0  0  0  0
  161.5250  203.5380  149.0010 N   0  0  0  0  0  0  0  0  0  0  0  0
  162.2290  204.8780  150.9740 C   0  0  0  0  0  2  0  0  0  0  0  0
  161.3350  205.5400  151.9670 C   0  0  0  0  0  0  0  0  0  0  0  0
  160.7170  206.5910  151.6550 O   0  0  0  0  0  0  0  0  0  0  0  0
  161.2130  205.0170  153.2480 O   0  0  0  0  0  1  0  0  0  0  0  0
  161.1960  206.8900  145.9500 C   0  0  0  0  0  2  0  0  0  0  0  0
  161.5320  207.0340  147.7060 S   0  0  0  0  0  0  0  0  0  0  0  0
  160.4600  206.3090  148.4620 O   0  0  0  0  0  0  0  0  0  0  0  0
  162.8570  206.4020  148.0100 O   0  0  0  0  0  0  0  0  0  0  0  0
  161.2360  209.7530  147.4220 C   0  0  0  0  0  3  0  0  0  0  0  0
  161.5850  208.6960  148.2650 C   0  0  0  0  0  0  0  0  0  0  0  0
  161.9700  210.2750  150.0790 C   0  0  0  0  0  0  0  0  0  0  0  0
  161.6530  211.3360  149.2160 C   0  0  0  0  0  0  0  0  0  0  0  0
  161.6790  213.0030  149.7720 Cl  0  0  0  0  0  0  0  0  0  0  0  0
  161.2760  211.0700  147.8940 C   0  0  0  0  0  3  0  0  0  0  0  0
  161.9340  208.9590  149.5930 C   0  0  0  0  0  3  0  0  0  0  0  0
  162.3070  210.5350  151.4480 N   0  0  0  0  0  2  0  0  0  0  0  0
  161.8240  209.7020  152.5440 C   0  0  0  0  0  2  0  0  0  0  0  0
  160.4800  209.6050  154.6170 C   0  0  0  0  0  2  0  0  0  0  0  0
  159.6670  210.9700  152.7020 C   0  0  0  0  0  2  0  0  0  0  0  0
  159.5770  210.3530  155.5980 C   0  0  1  0  0  3  0  0  0  0  0  0
  160.3290  211.2420  156.3420 F   0  0  0  0  0  0  0  0  0  0  0  0
  160.9120  210.4970  153.4610 C   0  0  2  0  0  3  0  0  0  0  0  0
  158.7680  211.6890  153.6040 N   0  0  0  0  0  0  0  0  0  0  0  0
  158.4900  211.0870  154.8840 C   0  0  0  0  0  0  0  0  0  0  0  0
  157.2830  211.1490  155.4330 C   0  0  0  0  0  2  0  0  0  0  0  0
  157.7250  213.8000  154.1370 C   0  0  0  0  0  2  0  0  0  0  0  0
  158.2360  212.9770  153.2250 C   0  0  0  0  0  0  0  0  0  0  0  0
  158.0910  213.3220  151.8460 N   0  0  0  0  0  1  0  0  0  0  0  0
  1  2  2  0  0  0  0
  2 34  1  0  0  0  0
  2 21  1  0  0  0  0
  3  1  1  0  0  0  0
  4  3  2  0  0  0  0
  5  9  1  0  0  0  0
  5  8  1  0  0  0  0
  6  7  1  0  0  0  0
  6  4  1  1  0  0  0
  8 10  1  1  0  0  0
  8  7  1  0  0  0  0
  9  6  1  0  0  0  0
 11 12  1  1  0  0  0
 11 10  1  0  0  0  0
 11 15  1  0  0  0  0
 12 14  1  0  0  0  0
 13 12  2  0  0  0  0
 15 16  1  6  0  0  0
 15 18  1  0  0  0  0
 17 16  1  0  0  0  0
 18 19  1  0  0  0  0
 20 19  1  0  0  0  0
 22 23  1  6  0  0  0
 22 21  1  0  0  0  0
 22 27  1  0  0  0  0
 24 29  2  0  0  0  0
 24 28  1  0  0  0  0
 25 30  1  0  0  0  0
 25 26  1  0  0  0  0
 27 24  1  0  0  0  0
 28 26  1  0  0  0  0
 29 25  1  0  0  0  0
 30 31  1  0  0  0  0
 31 33  1  0  0  0  0
 32 31  2  0  0  0  0
 34 35  1  0  0  0  0
 35 37  2  0  0  0  0
 35 39  1  0  0  0  0
 35 36  2  0  0  0  0
 38 43  2  0  0  0  0
 38 39  1  0  0  0  0
 39 44  2  0  0  0  0
 40 45  1  0  0  0  0
 41 42  1  0  0  0  0
 41 40  2  0  0  0  0
 43 41  1  0  0  0  0
 44 40  1  0  0  0  0
 45 46  1  0  0  0  0
 47 49  1  0  0  0  0
 48 51  1  0  0  0  0
 48 52  1  0  0  0  0
 49 50  1  6  0  0  0
 51 46  1  6  0  0  0
 51 47  1  0  0  0  0
 52 53  1  0  0  0  0
 53 54  2  0  0  0  0
 53 49  1  0  0  0  0
 56 52  1  0  0  0  0
 56 55  2  0  0  0  0
 57 56  1  0  0  0  0
M  END
>  <MODEL>
7

>  <REMARK>
 VINA RESULT:      -3.0      3.691      7.959
  Name = 
  21 active torsions:
  status: ('A' for Active; 'I' for Inactive)
    1  A    between atoms: C_1  and  O_28
    2  A    between atoms: C_3  and  C_30
    3  A    between atoms: S_4  and  C_12
    4  A    between atoms: S_4  and  C_17
    5  A    between atoms: C_9  and  C_25
    6  A    between atoms: N_11  and  C_41
    7  A    between atoms: CA_13  and  C_16
    8  A    between atoms: CA_13  and  C_30
    9  A    between atoms: CA_13  and  N_53
   10  A    between atoms: C_14  and  C_22
   11  A    between atoms: C_17  and  C_48
   12  A    between atoms: C_18  and  N_35
   13  A    between atoms: C_21  and  C_34
   14  A    between atoms: C_21  and  N_47
   15  A    between atoms: C_23  and  C_41
   16  A    between atoms: C_27  and  N_47
   17  A    between atoms: O_28  and  C_30
   18  A    between atoms: N_31  and  C_44
   19  A    between atoms: C_44  and  N_57
   20  A    between atoms: C_48  and  N_57
   21  A    between atoms: C_49  and  N_53
                            x       y       z     vdW  Elec       q    Type
                         _______ _______ _______ _____ _____    ______ ____

>  <TORSDO>
F 21

$$$$
=
 OpenBabel11052410193D

 57 60  0  0  1  0  0  0  0  0999 V2000
  161.2590  211.8500  150.1230 C   0  0  0  0  0  2  0  0  0  0  0  0
  162.2860  211.2440  149.5290 C   0  0  0  0  0  0  0  0  0  0  0  0
  160.5820  211.2890  151.2940 C   0  0  0  0  0  3  0  0  0  0  0  0
  159.8950  212.0530  152.1230 C   0  0  0  0  0  3  0  0  0  0  0  0
  159.4240  210.0450  155.4850 S   0  0  0  0  0  0  0  0  0  0  0  0
  159.2020  211.4290  153.2840 C   0  0  2  0  0  3  0  0  0  0  0  0
  158.9630  212.4330  154.3790 C   0  0  0  0  0  2  0  0  0  0  0  0
  158.5140  211.6210  155.5660 C   0  0  1  0  0  3  0  0  0  0  0  0
  159.9880  210.3410  153.8330 N   0  0  0  0  0  2  0  0  0  0  0  0
  157.0920  211.3480  155.4530 N   0  0  0  0  0  2  0  0  0  0  0  0
  156.4240  212.0340  156.5450 C   0  0  2  0  0  3  0  0  0  0  0  0
  155.0920  211.3950  156.7800 C   0  0  0  0  0  0  0  0  0  0  0  0
  154.9130  210.0290  156.5630 O   0  0  0  0  0  0  0  0  0  0  0  0
  154.1510  212.0820  157.2530 O   0  0  0  0  0  1  0  0  0  0  0  0
  156.2830  213.5260  156.2120 C   0  0  1  0  0  3  0  0  0  0  0  0
  157.3880  214.3650  156.8600 C   0  0  0  0  0  2  0  0  0  0  0  0
  158.5310  214.3760  156.0580 O   0  0  0  0  0  1  0  0  0  0  0  0
  156.2980  213.7150  154.8240 O   0  0  0  0  0  0  0  0  0  0  0  0
  154.9900  214.0680  154.4940 C   0  0  0  0  0  2  0  0  0  0  0  0
  154.8400  214.1110  152.9850 C   0  0  0  0  0  1  0  0  0  0  0  0
  162.7960  211.8080  148.3130 N   0  0  0  0  0  0  0  0  0  0  0  0
  162.3100  213.0440  147.7050 C   0  0  2  0  0  3  0  0  0  0  0  0
  162.4690  214.2000  148.6650 C   0  0  0  0  0  1  0  0  0  0  0  0
  160.5320  212.8100  145.9280 C   0  0  0  0  0  0  0  0  0  0  0  0
  160.8220  212.5600  143.7230 N   0  0  0  0  0  0  0  0  0  0  0  0
  159.3920  212.3370  143.7270 C   0  0  0  0  0  2  0  0  0  0  0  0
  160.9200  212.9270  147.2970 N   0  0  0  0  0  2  0  0  0  0  0  0
  158.8320  212.5490  145.4540 S   0  0  0  0  0  0  0  0  0  0  0  0
  161.3900  212.7860  144.9730 N   0  0  0  0  0  0  0  0  0  0  0  0
  161.6310  212.4770  142.5180 C   0  0  0  0  0  2  0  0  0  0  0  0
  160.8620  212.9920  141.3470 C   0  0  0  0  0  0  0  0  0  0  0  0
  160.5490  212.2150  140.4080 O   0  0  0  0  0  0  0  0  0  0  0  0
  160.5240  214.3370  141.2780 O   0  0  0  0  0  1  0  0  0  0  0  0
  162.8420  209.9520  150.0650 C   0  0  0  0  0  2  0  0  0  0  0  0
  162.2290  208.5320  149.1550 S   0  0  0  0  0  0  0  0  0  0  0  0
  161.0320  208.9530  148.3570 O   0  0  0  0  0  0  0  0  0  0  0  0
  163.2950  208.0480  148.2180 O   0  0  0  0  0  0  0  0  0  0  0  0
  161.7770  207.3210  151.5820 C   0  0  0  0  0  3  0  0  0  0  0  0
  161.7710  207.1930  150.1910 C   0  0  0  0  0  0  0  0  0  0  0  0
  160.9500  204.9110  150.4080 C   0  0  0  0  0  0  0  0  0  0  0  0
  160.9950  205.0330  151.8060 C   0  0  0  0  0  0  0  0  0  0  0  0
  160.5130  203.7070  152.8540 Cl  0  0  0  0  0  0  0  0  0  0  0  0
  161.3980  206.2410  152.3870 C   0  0  0  0  0  3  0  0  0  0  0  0
  161.3410  205.9970  149.6100 C   0  0  0  0  0  3  0  0  0  0  0  0
  160.4900  203.6950  149.8050 N   0  0  0  0  0  2  0  0  0  0  0  0
  161.3900  202.5910  149.4870 C   0  0  0  0  0  2  0  0  0  0  0  0
  161.1350  203.6570  147.2710 C   0  0  0  0  0  2  0  0  0  0  0  0
  160.3850  201.3060  147.5840 C   0  0  0  0  0  2  0  0  0  0  0  0
  161.1880  203.4910  145.7520 C   0  0  1  0  0  3  0  0  0  0  0  0
  162.5010  203.3680  145.3410 F   0  0  0  0  0  0  0  0  0  0  0  0
  161.4330  202.3490  147.9890 C   0  0  2  0  0  3  0  0  0  0  0  0
  160.3950  201.1160  146.1340 N   0  0  0  0  0  0  0  0  0  0  0  0
  160.4070  202.2990  145.3090 C   0  0  0  0  0  0  0  0  0  0  0  0
  159.7180  202.3610  144.1750 C   0  0  0  0  0  2  0  0  0  0  0  0
  159.3460  199.1920  145.1220 C   0  0  0  0  0  2  0  0  0  0  0  0
  160.4470  199.7850  145.5750 C   0  0  0  0  0  0  0  0  0  0  0  0
  161.6480  199.0140  145.6560 N   0  0  0  0  0  1  0  0  0  0  0  0
  1  3  1  0  0  0  0
  2 34  1  0  0  0  0
  2  1  1  0  0  0  0
  3  4  2  0  0  0  0
  5  8  1  0  0  0  0
  6  4  1  6  0  0  0
  6  9  1  0  0  0  0
  6  7  1  0  0  0  0
  7  8  1  0  0  0  0
  8 10  1  6  0  0  0
  9  5  1  0  0  0  0
 11 10  1  6  0  0  0
 11 12  1  0  0  0  0
 12 14  1  0  0  0  0
 13 12  2  0  0  0  0
 15 11  1  0  0  0  0
 15 16  1  1  0  0  0
 17 16  1  0  0  0  0
 18 15  1  0  0  0  0
 19 18  1  0  0  0  0
 20 19  1  0  0  0  0
 21  2  2  0  0  0  0
 22 21  1  0  0  0  0
 22 23  1  1  0  0  0
 24 27  1  0  0  0  0
 25 26  1  0  0  0  0
 25 29  1  0  0  0  0
 26 28  1  0  0  0  0
 27 22  1  0  0  0  0
 28 24  1  0  0  0  0
 29 24  2  0  0  0  0
 30 25  1  0  0  0  0
 31 30  1  0  0  0  0
 32 31  2  0  0  0  0
 33 31  1  0  0  0  0
 35 34  1  0  0  0  0
 35 39  1  0  0  0  0
 36 35  2  0  0  0  0
 37 35  2  0  0  0  0
 38 43  1  0  0  0  0
 39 38  2  0  0  0  0
 40 41  1  0  0  0  0
 41 43  2  0  0  0  0
 41 42  1  0  0  0  0
 44 39  1  0  0  0  0
 44 40  2  0  0  0  0
 45 40  1  0  0  0  0
 46 45  1  0  0  0  0
 47 51  1  0  0  0  0
 48 51  1  0  0  0  0
 49 50  1  1  0  0  0
 49 47  1  0  0  0  0
 51 46  1  1  0  0  0
 52 48  1  0  0  0  0
 53 49  1  0  0  0  0
 53 52  1  0  0  0  0
 54 53  2  0  0  0  0
 55 56  2  0  0  0  0
 56 57  1  0  0  0  0
 56 52  1  0  0  0  0
M  END
>  <MODEL>
8

>  <REMARK>
 VINA RESULT:      -2.4      2.942     10.304
  Name = 
  21 active torsions:
  status: ('A' for Active; 'I' for Inactive)
    1  A    between atoms: C_1  and  O_28
    2  A    between atoms: C_3  and  C_30
    3  A    between atoms: S_4  and  C_12
    4  A    between atoms: S_4  and  C_17
    5  A    between atoms: C_9  and  C_25
    6  A    between atoms: N_11  and  C_41
    7  A    between atoms: CA_13  and  C_16
    8  A    between atoms: CA_13  and  C_30
    9  A    between atoms: CA_13  and  N_53
   10  A    between atoms: C_14  and  C_22
   11  A    between atoms: C_17  and  C_48
   12  A    between atoms: C_18  and  N_35
   13  A    between atoms: C_21  and  C_34
   14  A    between atoms: C_21  and  N_47
   15  A    between atoms: C_23  and  C_41
   16  A    between atoms: C_27  and  N_47
   17  A    between atoms: O_28  and  C_30
   18  A    between atoms: N_31  and  C_44
   19  A    between atoms: C_44  and  N_57
   20  A    between atoms: C_48  and  N_57
   21  A    between atoms: C_49  and  N_53
                            x       y       z     vdW  Elec       q    Type
                         _______ _______ _______ _____ _____    ______ ____

>  <TORSDO>
F 21

$$$$
=
 OpenBabel11052410193D

 57 60  0  0  1  0  0  0  0  0999 V2000
  161.9130  205.4020  148.3520 C   0  0  0  0  0  2  0  0  0  0  0  0
  161.4780  206.3240  147.4930 C   0  0  0  0  0  0  0  0  0  0  0  0
  161.7730  205.5480  149.8020 C   0  0  0  0  0  3  0  0  0  0  0  0
  160.5940  205.7400  150.3630 C   0  0  0  0  0  3  0  0  0  0  0  0
  161.1060  204.8260  154.1650 S   0  0  0  0  0  0  0  0  0  0  0  0
  160.5010  205.8550  151.8440 C   0  0  2  0  0  3  0  0  0  0  0  0
  161.5680  206.7660  152.3880 C   0  0  0  0  0  2  0  0  0  0  0  0
  161.5250  206.5760  153.8820 C   0  0  1  0  0  3  0  0  0  0  0  0
  160.6520  204.5580  152.4750 N   0  0  0  0  0  2  0  0  0  0  0  0
  160.4740  207.4060  154.4440 N   0  0  0  0  0  2  0  0  0  0  0  0
  161.1030  208.5820  155.0200 C   0  0  2  0  0  3  0  0  0  0  0  0
  161.0240  208.4960  156.5110 C   0  0  0  0  0  0  0  0  0  0  0  0
  162.1380  208.1170  157.2590 O   0  0  0  0  0  1  0  0  0  0  0  0
  159.9670  208.8450  157.0960 O   0  0  0  0  0  0  0  0  0  0  0  0
  160.4180  209.8500  154.4900 C   0  0  1  0  0  3  0  0  0  0  0  0
  161.3770  211.0420  154.4440 C   0  0  0  0  0  2  0  0  0  0  0  0
  162.6630  210.6550  154.8270 O   0  0  0  0  0  1  0  0  0  0  0  0
  159.8900  209.6170  153.2140 O   0  0  0  0  0  0  0  0  0  0  0  0
  159.5020  210.8720  152.7480 C   0  0  0  0  0  2  0  0  0  0  0  0
  158.5000  211.4840  153.7080 C   0  0  0  0  0  1  0  0  0  0  0  0
  161.7770  206.1500  146.1020 N   0  0  0  0  0  0  0  0  0  0  0  0
  162.3380  204.9330  145.5200 C   0  0  2  0  0  3  0  0  0  0  0  0
  163.3700  205.2790  144.4720 C   0  0  0  0  0  1  0  0  0  0  0  0
  160.9020  202.8580  145.5300 C   0  0  0  0  0  0  0  0  0  0  0  0
  160.8210  201.2530  147.0900 N   0  0  0  0  0  0  0  0  0  0  0  0
  159.6980  200.7800  146.3080 C   0  0  0  0  0  2  0  0  0  0  0  0
  161.3050  204.0930  144.9400 N   0  0  0  0  0  2  0  0  0  0  0  0
  159.5510  201.8980  144.8690 S   0  0  0  0  0  0  0  0  0  0  0  0
  161.4200  202.4190  146.6200 N   0  0  0  0  0  0  0  0  0  0  0  0
  161.2520  200.6130  148.3210 C   0  0  0  0  0  2  0  0  0  0  0  0
  160.5570  201.2270  149.4900 C   0  0  0  0  0  0  0  0  0  0  0  0
  159.2990  201.2750  149.5200 O   0  0  0  0  0  0  0  0  0  0  0  0
  161.2980  201.7770  150.5270 O   0  0  0  0  0  1  0  0  0  0  0  0
  160.7670  207.5600  147.9740 C   0  0  0  0  0  2  0  0  0  0  0  0
  161.9020  208.7380  148.7130 S   0  0  0  0  0  0  0  0  0  0  0  0
  161.5820  208.8630  150.1720 O   0  0  0  0  0  0  0  0  0  0  0  0
  163.3050  208.2340  148.5610 O   0  0  0  0  0  0  0  0  0  0  0  0
  162.7660  211.3120  148.2760 C   0  0  0  0  0  3  0  0  0  0  0  0
  161.8170  210.3300  147.9820 C   0  0  0  0  0  0  0  0  0  0  0  0
  160.7220  211.8570  146.4330 C   0  0  0  0  0  0  0  0  0  0  0  0
  161.6570  212.8530  146.7610 C   0  0  0  0  0  0  0  0  0  0  0  0
  161.5960  214.4430  146.0170 Cl  0  0  0  0  0  0  0  0  0  0  0  0
  162.6820  212.5720  147.6720 C   0  0  0  0  0  3  0  0  0  0  0  0
  160.8100  210.6010  147.0510 C   0  0  0  0  0  3  0  0  0  0  0  0
  159.7000  212.1210  145.4630 N   0  0  0  0  0  2  0  0  0  0  0  0
  159.8410  213.1510  144.4390 C   0  0  0  0  0  2  0  0  0  0  0  0
  161.3780  212.2860  142.7070 C   0  0  0  0  0  2  0  0  0  0  0  0
  159.3010  213.4660  142.0120 C   0  0  0  0  0  2  0  0  0  0  0  0
  161.5270  211.6340  141.3320 C   0  0  1  0  0  3  0  0  0  0  0  0
  161.1470  210.3070  141.4000 F   0  0  0  0  0  0  0  0  0  0  0  0
  159.9170  212.5280  143.0570 C   0  0  2  0  0  3  0  0  0  0  0  0
  159.4250  212.8840  140.6750 N   0  0  0  0  0  0  0  0  0  0  0  0
  160.7080  212.3400  140.3040 C   0  0  0  0  0  0  0  0  0  0  0  0
  161.1890  212.4750  139.0730 C   0  0  0  0  0  2  0  0  0  0  0  0
  157.1420  213.4370  140.1190 C   0  0  0  0  0  2  0  0  0  0  0  0
  158.2770  212.8190  139.8020 C   0  0  0  0  0  0  0  0  0  0  0  0
  158.2800  211.9510  138.6670 N   0  0  0  0  0  1  0  0  0  0  0  0
  1  3  1  0  0  0  0
  2 34  1  0  0  0  0
  2  1  1  0  0  0  0
  3  4  2  0  0  0  0
  6  4  1  6  0  0  0
  6  7  1  0  0  0  0
  6  9  1  0  0  0  0
  7  8  1  0  0  0  0
  8  5  1  0  0  0  0
  8 10  1  1  0  0  0
  9  5  1  0  0  0  0
 11 10  1  6  0  0  0
 11 12  1  0  0  0  0
 12 14  2  0  0  0  0
 12 13  1  0  0  0  0
 15 16  1  6  0  0  0
 15 11  1  0  0  0  0
 16 17  1  0  0  0  0
 18 15  1  0  0  0  0
 19 18  1  0  0  0  0
 19 20  1  0  0  0  0
 21  2  2  0  0  0  0
 22 23  1  6  0  0  0
 22 21  1  0  0  0  0
 24 29  2  0  0  0  0
 25 30  1  0  0  0  0
 26 25  1  0  0  0  0
 27 22  1  0  0  0  0
 27 24  1  0  0  0  0
 28 24  1  0  0  0  0
 28 26  1  0  0  0  0
 29 25  1  0  0  0  0
 30 31  1  0  0  0  0
 31 32  2  0  0  0  0
 31 33  1  0  0  0  0
 34 35  1  0  0  0  0
 35 36  2  0  0  0  0
 37 35  2  0  0  0  0
 39 38  1  0  0  0  0
 39 35  1  0  0  0  0
 40 41  2  0  0  0  0
 40 44  1  0  0  0  0
 41 43  1  0  0  0  0
 42 41  1  0  0  0  0
 43 38  2  0  0  0  0
 44 39  2  0  0  0  0
 45 40  1  0  0  0  0
 46 45  1  0  0  0  0
 47 51  1  0  0  0  0
 48 51  1  0  0  0  0
 49 50  1  1  0  0  0
 49 47  1  0  0  0  0
 51 46  1  1  0  0  0
 52 48  1  0  0  0  0
 53 52  1  0  0  0  0
 53 49  1  0  0  0  0
 54 53  2  0  0  0  0
 56 55  2  0  0  0  0
 56 52  1  0  0  0  0
 57 56  1  0  0  0  0
M  END
>  <MODEL>
9

>  <REMARK>
 VINA RESULT:      -2.3      4.598     11.807
  Name = 
  21 active torsions:
  status: ('A' for Active; 'I' for Inactive)
    1  A    between atoms: C_1  and  O_28
    2  A    between atoms: C_3  and  C_30
    3  A    between atoms: S_4  and  C_12
    4  A    between atoms: S_4  and  C_17
    5  A    between atoms: C_9  and  C_25
    6  A    between atoms: N_11  and  C_41
    7  A    between atoms: CA_13  and  C_16
    8  A    between atoms: CA_13  and  C_30
    9  A    between atoms: CA_13  and  N_53
   10  A    between atoms: C_14  and  C_22
   11  A    between atoms: C_17  and  C_48
   12  A    between atoms: C_18  and  N_35
   13  A    between atoms: C_21  and  C_34
   14  A    between atoms: C_21  and  N_47
   15  A    between atoms: C_23  and  C_41
   16  A    between atoms: C_27  and  N_47
   17  A    between atoms: O_28  and  C_30
   18  A    between atoms: N_31  and  C_44
   19  A    between atoms: C_44  and  N_57
   20  A    between atoms: C_48  and  N_57
   21  A    between atoms: C_49  and  N_53
                            x       y       z     vdW  Elec       q    Type
                         _______ _______ _______ _____ _____    ______ ____

>  <TORSDO>
F 21

$$$$
