=
 OpenBabel11042420373D

 62 69  0  0  1  0  0  0  0  0999 V2000
  160.8420  212.3150  149.0060 C   0  0  2  0  0  3  0  0  0  0  0  0
  161.1500  212.4590  147.5260 C   0  0  0  0  0  2  0  0  0  0  0  0
  162.4160  213.2650  147.3050 C   0  0  0  0  0  2  0  0  0  0  0  0
  162.2140  214.1700  146.1060 C   0  0  0  0  0  2  0  0  0  0  0  0
  163.0570  213.4900  144.6480 S   0  0  0  0  0  0  0  0  0  0  0  0
  161.6980  214.0170  143.5610 C   0  0  0  0  0  2  0  0  0  0  0  0
  160.7810  213.5290  141.2260 C   0  0  1  0  0  3  0  0  0  0  0  0
  161.4250  212.9750  142.4910 C   0  0  2  0  0  0  0  0  0  0  0  0
  160.9730  211.7140  142.9050 O   0  0  0  0  0  1  0  0  0  0  0  0
  162.2490  213.0370  141.2090 C   0  0  1  0  0  3  0  0  0  0  0  0
  162.4460  211.6620  140.5720 C   0  0  0  0  0  1  0  0  0  0  0  0
  156.7900  211.4420  137.0110 C   0  0  0  0  0  2  0  0  0  0  0  0
  158.0580  211.9910  139.0160 N   0  0  0  0  0  0  0  0  0  0  0  0
  156.6520  210.0790  137.5190 N   0  0  0  0  0  2  0  0  0  0  0  0
  156.9380  212.4130  138.1770 C   0  0  0  0  0  2  0  0  0  0  0  0
  158.1710  210.5790  139.3800 C   0  0  0  0  0  2  0  0  0  0  0  0
  158.8640  212.9720  139.6840 C   0  0  0  0  0  0  0  0  0  0  0  0
  157.9170  209.7040  138.1480 C   0  0  0  0  0  2  0  0  0  0  0  0
  158.6990  214.1970  139.4290 O   0  0  0  0  0  0  0  0  0  0  0  0
  159.8630  212.5680  140.6220 N   0  0  0  0  0  2  0  0  0  0  0  0
  160.6770  213.6400  149.5840 N   0  0  0  0  0  2  0  0  0  0  0  0
  159.5230  213.6080  150.4760 C   0  0  0  0  0  2  0  0  0  0  0  0
  158.3170  214.2830  149.8270 C   0  0  0  0  0  2  0  0  0  0  0  0
  155.7490  214.2530  150.2030 C   0  0  0  0  0  3  0  0  0  0  0  0
  155.7050  213.7990  152.3030 N   0  0  0  0  0  0  0  0  0  0  0  0
  157.8790  214.1110  153.0040 N   0  0  0  0  0  2  0  0  0  0  0  0
  157.0680  214.0320  150.6100 C   0  0  0  0  0  0  0  0  0  0  0  0
  154.5720  214.4520  154.2710 O   0  0  0  0  0  0  0  0  0  0  0  0
  154.9340  214.1430  151.2850 N   0  0  0  0  0  0  0  0  0  0  0  0
  155.6400  214.1710  153.6600 C   0  0  0  0  0  0  0  0  0  0  0  0
  157.0360  214.3060  154.2020 C   0  0  1  0  0  3  0  0  0  0  0  0
  156.9710  213.7820  151.9560 C   0  0  0  0  0  0  0  0  0  0  0  0
  157.3270  213.2490  155.2710 C   0  0  1  0  0  3  0  0  0  0  0  0
  156.1400  212.3190  155.5080 C   0  0  0  0  0  1  0  0  0  0  0  0
  158.5690  212.4540  154.8870 C   0  0  0  0  0  2  0  0  0  0  0  0
  158.3750  210.9580  155.0960 C   0  0  0  0  0  2  0  0  0  0  0  0
  159.7130  210.2450  155.1450 C   0  0  0  0  0  1  0  0  0  0  0  0
  161.9370  211.6250  149.6740 N   0  0  0  0  0  2  0  0  0  0  0  0
  161.8450  207.9140  150.4200 C   0  0  0  0  0  0  0  0  0  0  0  0
  161.9760  206.7240  149.7710 N   0  0  0  0  0  0  0  0  0  0  0  0
  162.2150  206.6630  148.4340 C   0  0  0  0  0  3  0  0  0  0  0  0
  161.5200  209.1970  152.4090 N   0  0  0  0  0  0  0  0  0  0  0  0
  161.9700  209.1150  149.6820 C   0  0  0  0  0  0  0  0  0  0  0  0
  162.2080  209.0380  148.3430 N   0  0  0  0  0  0  0  0  0  0  0  0
  161.6250  210.3610  151.7170 C   0  0  0  0  0  3  0  0  0  0  0  0
  162.3320  207.8450  147.7060 C   0  0  0  0  0  3  0  0  0  0  0  0
  161.6110  207.9770  151.8120 C   0  0  0  0  0  0  0  0  0  0  0  0
  161.8490  210.3570  150.3420 C   0  0  0  0  0  0  0  0  0  0  0  0
  161.4650  206.7730  152.6630 C   0  0  0  0  0  0  0  0  0  0  0  0
  161.0240  206.8970  153.8390 O   0  0  0  0  0  0  0  0  0  0  0  0
  161.7820  205.4700  152.1640 N   0  0  0  0  0  2  0  0  0  0  0  0
  161.5700  204.3090  152.9200 N   0  0  0  0  0  2  0  0  0  0  0  0
  160.5850  203.5030  152.2140 C   0  0  0  0  0  2  0  0  0  0  0  0
  160.8240  201.7580  150.4260 C   0  0  0  0  0  2  0  0  0  0  0  0
  161.4660  203.0730  148.0430 C   0  0  1  0  0  3  0  0  0  0  0  0
  160.4830  203.9900  148.5790 N   0  0  0  0  0  0  0  0  0  0  0  0
  160.2870  204.0910  149.8460 C   0  0  0  0  0  3  0  0  0  0  0  0
  161.1760  201.3660  148.6580 S   0  0  0  0  0  0  0  0  0  0  0  0
  161.0490  203.2240  150.7960 C   0  0  1  0  0  3  0  0  0  0  0  0
  161.1240  204.5020  146.0480 C   0  0  0  0  0  2  0  0  0  0  0  0
  162.5370  203.9610  145.9930 C   0  0  0  0  0  2  0  0  0  0  0  0
  161.4130  203.0920  146.5260 C   0  0  0  0  0  3  0  0  0  0  0  0
  1  2  1  6  0  0  0
  1 21  1  0  0  0  0
  1 38  1  0  0  0  0
  3  2  1  0  0  0  0
  4  3  1  0  0  0  0
  5  4  1  0  0  0  0
  6  5  1  0  0  0  0
  7 20  1  6  0  0  0
  7  8  1  0  0  0  0
  8  9  1  1  0  0  0
  8  6  1  0  0  0  0
 10 11  1  6  0  0  0
 10  7  1  0  0  0  0
 10  8  1  0  0  0  0
 12 14  1  0  0  0  0
 12 15  1  0  0  0  0
 13 16  1  0  0  0  0
 13 17  1  0  0  0  0
 14 18  1  0  0  0  0
 15 13  1  0  0  0  0
 17 20  1  0  0  0  0
 18 16  1  0  0  0  0
 19 17  2  0  0  0  0
 21 22  1  0  0  0  0
 23 22  1  0  0  0  0
 23 27  1  0  0  0  0
 24 27  1  0  0  0  0
 24 29  2  0  0  0  0
 25 30  1  0  0  0  0
 26 31  1  0  0  0  0
 27 32  2  0  0  0  0
 29 25  1  0  0  0  0
 30 31  1  0  0  0  0
 30 28  2  0  0  0  0
 31 33  1  1  0  0  0
 32 25  1  0  0  0  0
 32 26  1  0  0  0  0
 33 34  1  6  0  0  0
 35 36  1  0  0  0  0
 35 33  1  0  0  0  0
 36 37  1  0  0  0  0
 38 48  1  0  0  0  0
 39 47  1  0  0  0  0
 40 39  1  0  0  0  0
 41 40  2  0  0  0  0
 43 48  1  0  0  0  0
 43 39  2  0  0  0  0
 44 43  1  0  0  0  0
 45 42  1  0  0  0  0
 46 44  2  0  0  0  0
 46 41  1  0  0  0  0
 47 42  2  0  0  0  0
 47 49  1  0  0  0  0
 48 45  2  0  0  0  0
 49 50  2  0  0  0  0
 51 49  1  0  0  0  0
 51 52  1  0  0  0  0
 53 52  1  0  0  0  0
 54 59  1  0  0  0  0
 55 62  1  6  0  0  0
 55 56  1  0  0  0  0
 55 58  1  0  0  0  0
 56 57  2  0  0  0  0
 57 59  1  0  0  0  0
 58 54  1  0  0  0  0
 59 53  1  1  0  0  0
 60 62  1  0  0  0  0
 61 60  1  0  0  0  0
 61 62  1  0  0  0  0
M  END
>  <MODEL>
1

>  <REMARK>
 VINA RESULT:      -6.2      0.000      0.000
  Name = 
  21 active torsions:
  status: ('A' for Active; 'I' for Inactive)
    1  A    between atoms: C_2  and  C_40
    2  A    between atoms: C_2  and  S_58
    3  A    between atoms: C_3  and  C_55
    4  A    between atoms: C_6  and  C_39
    5  A    between atoms: C_6  and  C_49
    6  A    between atoms: N_8  and  C_25
    7  A    between atoms: N_8  and  C_57
    8  A    between atoms: N_10  and  C_41
    9  A    between atoms: N_10  and  N_50
   10  A    between atoms: C_11  and  N_53
   11  A    between atoms: N_13  and  C_25
   12  A    between atoms: N_13  and  C_35
   13  A    between atoms: C_14  and  C_34
   14  A    between atoms: C_25  and  C_59
   15  A    between atoms: C_27  and  C_51
   16  A    between atoms: C_30  and  C_49
   17  A    between atoms: C_31  and  C_48
   18  A    between atoms: C_35  and  C_51
   19  A    between atoms: C_40  and  C_59
   20  A    between atoms: C_41  and  C_60
   21  A    between atoms: C_48  and  S_58
                            x       y       z     vdW  Elec       q    Type
                         _______ _______ _______ _____ _____    ______ ____

>  <TORSDO>
F 21

$$$$
=
 OpenBabel11042420373D

 62 69  0  0  1  0  0  0  0  0999 V2000
  160.9690  211.7560  148.8720 C   0  0  2  0  0  3  0  0  0  0  0  0
  160.9300  211.8610  147.3580 C   0  0  0  0  0  2  0  0  0  0  0  0
  162.0650  212.7230  146.8370 C   0  0  0  0  0  2  0  0  0  0  0  0
  161.6230  213.3800  145.5450 C   0  0  0  0  0  2  0  0  0  0  0  0
  162.9830  213.3930  144.3420 S   0  0  0  0  0  0  0  0  0  0  0  0
  161.9310  214.1960  143.0950 C   0  0  0  0  0  2  0  0  0  0  0  0
  160.5930  213.6110  140.9980 C   0  0  1  0  0  3  0  0  0  0  0  0
  161.8330  213.3450  141.8410 C   0  0  2  0  0  0  0  0  0  0  0  0
  162.2390  212.0050  141.9250 O   0  0  0  0  0  1  0  0  0  0  0  0
  161.9920  214.0400  140.4930 C   0  0  1  0  0  3  0  0  0  0  0  0
  162.5880  213.1220  139.4260 C   0  0  0  0  0  1  0  0  0  0  0  0
  156.6590  210.1500  137.7410 C   0  0  0  0  0  2  0  0  0  0  0  0
  158.3060  211.0590  139.2880 N   0  0  0  0  0  0  0  0  0  0  0  0
  157.4950  208.9590  137.6110 N   0  0  0  0  0  2  0  0  0  0  0  0
  156.8810  210.7890  139.1070 C   0  0  0  0  0  2  0  0  0  0  0  0
  159.2690  210.0150  138.9370 C   0  0  0  0  0  2  0  0  0  0  0  0
  158.7300  212.2060  140.0370 C   0  0  0  0  0  0  0  0  0  0  0  0
  158.8920  209.3910  137.5900 C   0  0  0  0  0  2  0  0  0  0  0  0
  157.8790  213.0590  140.4120 O   0  0  0  0  0  0  0  0  0  0  0  0
  160.1130  212.3960  140.3450 N   0  0  0  0  0  2  0  0  0  0  0  0
  161.1690  213.0850  149.4310 N   0  0  0  0  0  2  0  0  0  0  0  0
  160.7020  213.0740  150.8120 C   0  0  0  0  0  2  0  0  0  0  0  0
  159.4010  213.8620  150.9520 C   0  0  0  0  0  2  0  0  0  0  0  0
  157.2170  213.6590  152.3400 C   0  0  0  0  0  3  0  0  0  0  0  0
  157.8620  212.2270  153.8060 N   0  0  0  0  0  0  0  0  0  0  0  0
  160.1530  212.1440  153.5590 N   0  0  0  0  0  2  0  0  0  0  0  0
  158.5120  213.2610  151.9930 C   0  0  0  0  0  0  0  0  0  0  0  0
  157.7140  211.8250  156.1300 O   0  0  0  0  0  0  0  0  0  0  0  0
  156.8610  213.0320  153.4910 N   0  0  0  0  0  0  0  0  0  0  0  0
  158.3890  211.8800  155.0650 C   0  0  0  0  0  0  0  0  0  0  0  0
  159.8810  211.7240  154.9500 C   0  0  1  0  0  3  0  0  0  0  0  0
  158.8720  212.3790  152.9810 C   0  0  0  0  0  0  0  0  0  0  0  0
  160.3140  210.2760  155.1950 C   0  0  1  0  0  3  0  0  0  0  0  0
  161.8280  210.1020  155.1280 C   0  0  0  0  0  1  0  0  0  0  0  0
  159.7730  209.7950  156.5360 C   0  0  0  0  0  2  0  0  0  0  0  0
  160.4780  208.5330  157.0150 C   0  0  0  0  0  2  0  0  0  0  0  0
  159.8490  207.2990  156.3950 C   0  0  0  0  0  1  0  0  0  0  0  0
  162.0650  210.8880  149.2800 N   0  0  0  0  0  2  0  0  0  0  0  0
  161.6290  207.1890  149.9650 C   0  0  0  0  0  0  0  0  0  0  0  0
  161.4970  206.0180  149.2830 N   0  0  0  0  0  0  0  0  0  0  0  0
  161.4950  205.9810  147.9230 C   0  0  0  0  0  3  0  0  0  0  0  0
  161.8110  208.4240  152.0020 N   0  0  0  0  0  0  0  0  0  0  0  0
  161.7800  208.3930  149.2380 C   0  0  0  0  0  0  0  0  0  0  0  0
  161.7760  208.3410  147.8770 N   0  0  0  0  0  0  0  0  0  0  0  0
  161.9450  209.5920  151.3240 C   0  0  0  0  0  3  0  0  0  0  0  0
  161.6370  207.1680  147.2070 C   0  0  0  0  0  3  0  0  0  0  0  0
  161.6440  207.2250  151.3780 C   0  0  0  0  0  0  0  0  0  0  0  0
  161.9310  209.6140  149.9310 C   0  0  0  0  0  0  0  0  0  0  0  0
  161.4920  206.0160  152.2190 C   0  0  0  0  0  0  0  0  0  0  0  0
  161.2110  206.1460  153.4430 O   0  0  0  0  0  0  0  0  0  0  0  0
  161.6240  204.7040  151.6630 N   0  0  0  0  0  2  0  0  0  0  0  0
  161.3990  203.5460  152.4200 N   0  0  0  0  0  2  0  0  0  0  0  0
  160.3590  202.7810  151.7470 C   0  0  0  0  0  2  0  0  0  0  0  0
  161.5420  201.1680  150.2310 C   0  0  0  0  0  2  0  0  0  0  0  0
  160.9360  201.8860  147.5970 C   0  0  1  0  0  3  0  0  0  0  0  0
  159.6430  202.0880  148.2160 N   0  0  0  0  0  0  0  0  0  0  0  0
  159.5410  202.3830  149.4630 C   0  0  0  0  0  3  0  0  0  0  0  0
  161.9090  200.6210  148.5080 S   0  0  0  0  0  0  0  0  0  0  0  0
  160.7660  202.4820  150.3160 C   0  0  1  0  0  3  0  0  0  0  0  0
  159.6190  202.2470  145.5300 C   0  0  0  0  0  2  0  0  0  0  0  0
  161.0550  202.6240  145.2350 C   0  0  0  0  0  2  0  0  0  0  0  0
  160.7520  201.4550  146.1530 C   0  0  0  0  0  3  0  0  0  0  0  0
  1  2  1  6  0  0  0
  1 38  1  0  0  0  0
  1 21  1  0  0  0  0
  3  2  1  0  0  0  0
  4  3  1  0  0  0  0
  5  4  1  0  0  0  0
  6  5  1  0  0  0  0
  7 20  1  6  0  0  0
  7  8  1  0  0  0  0
  8  9  1  1  0  0  0
  8  6  1  0  0  0  0
 10 11  1  6  0  0  0
 10  7  1  0  0  0  0
 10  8  1  0  0  0  0
 12 15  1  0  0  0  0
 13 17  1  0  0  0  0
 14 12  1  0  0  0  0
 15 13  1  0  0  0  0
 16 13  1  0  0  0  0
 17 20  1  0  0  0  0
 17 19  2  0  0  0  0
 18 14  1  0  0  0  0
 18 16  1  0  0  0  0
 21 22  1  0  0  0  0
 22 23  1  0  0  0  0
 23 27  1  0  0  0  0
 24 29  2  0  0  0  0
 25 30  1  0  0  0  0
 26 31  1  0  0  0  0
 27 24  1  0  0  0  0
 27 32  2  0  0  0  0
 29 25  1  0  0  0  0
 30 28  2  0  0  0  0
 31 30  1  0  0  0  0
 31 33  1  6  0  0  0
 32 26  1  0  0  0  0
 32 25  1  0  0  0  0
 33 34  1  1  0  0  0
 33 35  1  0  0  0  0
 35 36  1  0  0  0  0
 37 36  1  0  0  0  0
 38 48  1  0  0  0  0
 39 47  1  0  0  0  0
 40 39  1  0  0  0  0
 41 40  2  0  0  0  0
 43 48  1  0  0  0  0
 43 39  2  0  0  0  0
 44 43  1  0  0  0  0
 45 42  1  0  0  0  0
 46 44  2  0  0  0  0
 46 41  1  0  0  0  0
 47 42  2  0  0  0  0
 47 49  1  0  0  0  0
 48 45  2  0  0  0  0
 49 50  2  0  0  0  0
 51 49  1  0  0  0  0
 51 52  1  0  0  0  0
 53 52  1  0  0  0  0
 54 59  1  0  0  0  0
 55 62  1  6  0  0  0
 55 56  1  0  0  0  0
 55 58  1  0  0  0  0
 56 57  2  0  0  0  0
 57 59  1  0  0  0  0
 58 54  1  0  0  0  0
 59 53  1  1  0  0  0
 60 62  1  0  0  0  0
 61 60  1  0  0  0  0
 61 62  1  0  0  0  0
M  END
>  <MODEL>
2

>  <REMARK>
 VINA RESULT:      -5.9      1.464      2.056
  Name = 
  21 active torsions:
  status: ('A' for Active; 'I' for Inactive)
    1  A    between atoms: C_2  and  C_40
    2  A    between atoms: C_2  and  S_58
    3  A    between atoms: C_3  and  C_55
    4  A    between atoms: C_6  and  C_39
    5  A    between atoms: C_6  and  C_49
    6  A    between atoms: N_8  and  C_25
    7  A    between atoms: N_8  and  C_57
    8  A    between atoms: N_10  and  C_41
    9  A    between atoms: N_10  and  N_50
   10  A    between atoms: C_11  and  N_53
   11  A    between atoms: N_13  and  C_25
   12  A    between atoms: N_13  and  C_35
   13  A    between atoms: C_14  and  C_34
   14  A    between atoms: C_25  and  C_59
   15  A    between atoms: C_27  and  C_51
   16  A    between atoms: C_30  and  C_49
   17  A    between atoms: C_31  and  C_48
   18  A    between atoms: C_35  and  C_51
   19  A    between atoms: C_40  and  C_59
   20  A    between atoms: C_41  and  C_60
   21  A    between atoms: C_48  and  S_58
                            x       y       z     vdW  Elec       q    Type
                         _______ _______ _______ _____ _____    ______ ____

>  <TORSDO>
F 21

$$$$
=
 OpenBabel11042420373D

 62 69  0  0  1  0  0  0  0  0999 V2000
  161.3430  207.6190  151.1130 C   0  0  2  0  0  3  0  0  0  0  0  0
  162.3480  206.9420  152.0280 C   0  0  0  0  0  2  0  0  0  0  0  0
  162.0320  207.2130  153.4870 C   0  0  0  0  0  2  0  0  0  0  0  0
  160.5670  206.9120  153.7310 C   0  0  0  0  0  2  0  0  0  0  0  0
  160.1970  206.9580  155.5080 S   0  0  0  0  0  0  0  0  0  0  0  0
  159.4680  208.6160  155.3590 C   0  0  0  0  0  2  0  0  0  0  0  0
  161.1810  210.4960  155.1040 C   0  0  1  0  0  3  0  0  0  0  0  0
  160.3350  209.6540  156.0510 C   0  0  2  0  0  0  0  0  0  0  0  0
  160.9460  209.2950  157.2610 O   0  0  0  0  0  1  0  0  0  0  0  0
  159.9810  211.1240  155.8550 C   0  0  1  0  0  3  0  0  0  0  0  0
  160.3690  211.9850  157.0560 C   0  0  0  0  0  1  0  0  0  0  0  0
  166.9460  212.6900  155.1580 C   0  0  0  0  0  2  0  0  0  0  0  0
  164.8580  211.4860  155.5060 N   0  0  0  0  0  0  0  0  0  0  0  0
  167.1680  212.6450  156.6010 N   0  0  0  0  0  2  0  0  0  0  0  0
  166.0970  211.4990  154.7300 C   0  0  0  0  0  2  0  0  0  0  0  0
  164.9330  211.6940  156.9520 C   0  0  0  0  0  2  0  0  0  0  0  0
  163.6430  211.0140  154.9090 C   0  0  0  0  0  0  0  0  0  0  0  0
  165.8790  212.8580  157.2600 C   0  0  0  0  0  2  0  0  0  0  0  0
  163.6110  210.7510  153.6760 O   0  0  0  0  0  0  0  0  0  0  0  0
  162.4640  210.8560  155.7020 N   0  0  0  0  0  2  0  0  0  0  0  0
  161.8040  207.4990  149.7370 N   0  0  0  0  0  2  0  0  0  0  0  0
  161.6280  206.1130  149.3170 C   0  0  0  0  0  2  0  0  0  0  0  0
  161.2070  205.2370  150.4940 C   0  0  0  0  0  2  0  0  0  0  0  0
  160.5840  202.7400  150.8300 C   0  0  0  0  0  3  0  0  0  0  0  0
  160.5700  202.1010  148.7780 N   0  0  0  0  0  0  0  0  0  0  0  0
  161.5740  203.8310  147.6310 N   0  0  0  0  0  2  0  0  0  0  0  0
  160.8030  203.8720  150.0390 C   0  0  0  0  0  0  0  0  0  0  0  0
  161.2880  200.2900  147.4430 O   0  0  0  0  0  0  0  0  0  0  0  0
  160.4870  201.6540  150.0200 N   0  0  0  0  0  0  0  0  0  0  0  0
  161.1790  201.5300  147.6440 C   0  0  0  0  0  0  0  0  0  0  0  0
  161.7800  202.6230  146.8040 C   0  0  1  0  0  3  0  0  0  0  0  0
  160.8140  203.3910  148.7530 C   0  0  0  0  0  0  0  0  0  0  0  0
  161.0750  202.7430  145.4500 C   0  0  1  0  0  3  0  0  0  0  0  0
  159.9930  201.6830  145.2620 C   0  0  0  0  0  1  0  0  0  0  0  0
  160.4950  204.1430  145.2920 C   0  0  0  0  0  2  0  0  0  0  0  0
  161.3480  205.0130  144.3790 C   0  0  0  0  0  2  0  0  0  0  0  0
  162.3600  205.8050  145.1860 C   0  0  0  0  0  1  0  0  0  0  0  0
  161.2230  209.0270  151.4640 N   0  0  0  0  0  2  0  0  0  0  0  0
  160.9650  212.4410  149.8470 C   0  0  0  0  0  0  0  0  0  0  0  0
  160.4580  213.6760  150.1120 N   0  0  0  0  0  0  0  0  0  0  0  0
  159.8050  213.9450  151.2740 C   0  0  0  0  0  3  0  0  0  0  0  0
  162.1660  210.9190  148.4510 N   0  0  0  0  0  0  0  0  0  0  0  0
  160.8160  211.4170  150.8120 C   0  0  0  0  0  0  0  0  0  0  0  0
  160.1590  211.7010  151.9710 N   0  0  0  0  0  0  0  0  0  0  0  0
  162.0230  209.9190  149.3590 C   0  0  0  0  0  3  0  0  0  0  0  0
  159.6530  212.9350  152.2230 C   0  0  0  0  0  3  0  0  0  0  0  0
  161.6550  212.1660  148.6450 C   0  0  0  0  0  0  0  0  0  0  0  0
  161.3460  210.1330  150.5580 C   0  0  0  0  0  0  0  0  0  0  0  0
  161.8570  213.1740  147.5800 C   0  0  0  0  0  0  0  0  0  0  0  0
  162.6660  214.1240  147.7720 O   0  0  0  0  0  0  0  0  0  0  0  0
  161.1790  213.0720  146.3230 N   0  0  0  0  0  2  0  0  0  0  0  0
  161.4190  213.9650  145.2700 N   0  0  0  0  0  2  0  0  0  0  0  0
  162.2990  213.2950  144.3240 C   0  0  0  0  0  2  0  0  0  0  0  0
  162.4260  212.3790  141.9900 C   0  0  0  0  0  2  0  0  0  0  0  0
  160.1660  213.2740  140.6080 C   0  0  1  0  0  3  0  0  0  0  0  0
  159.5710  212.9700  141.8920 N   0  0  0  0  0  0  0  0  0  0  0  0
  160.2620  213.0230  142.9760 C   0  0  0  0  0  3  0  0  0  0  0  0
  161.6610  212.2460  140.3180 S   0  0  0  0  0  0  0  0  0  0  0  0
  161.7180  213.3610  142.9240 C   0  0  1  0  0  3  0  0  0  0  0  0
  158.7300  211.5810  139.5100 C   0  0  0  0  0  2  0  0  0  0  0  0
  157.8250  212.6310  140.1160 C   0  0  0  0  0  2  0  0  0  0  0  0
  159.1520  213.0370  139.5040 C   0  0  0  0  0  3  0  0  0  0  0  0
  1 38  1  0  0  0  0
  1  2  1  1  0  0  0
  2  3  1  0  0  0  0
  3  4  1  0  0  0  0
  4  5  1  0  0  0  0
  6  5  1  0  0  0  0
  6  8  1  0  0  0  0
  7 20  1  1  0  0  0
  7 10  1  0  0  0  0
  7  8  1  0  0  0  0
  8  9  1  1  0  0  0
 10  8  1  0  0  0  0
 10 11  1  1  0  0  0
 12 14  1  0  0  0  0
 13 16  1  0  0  0  0
 14 18  1  0  0  0  0
 15 12  1  0  0  0  0
 15 13  1  0  0  0  0
 16 18  1  0  0  0  0
 17 13  1  0  0  0  0
 17 20  1  0  0  0  0
 19 17  2  0  0  0  0
 21  1  1  0  0  0  0
 22 21  1  0  0  0  0
 22 23  1  0  0  0  0
 25 29  1  0  0  0  0
 26 32  1  0  0  0  0
 27 23  1  0  0  0  0
 27 24  1  0  0  0  0
 28 30  2  0  0  0  0
 29 24  2  0  0  0  0
 30 25  1  0  0  0  0
 31 33  1  6  0  0  0
 31 26  1  0  0  0  0
 31 30  1  0  0  0  0
 32 25  1  0  0  0  0
 32 27  2  0  0  0  0
 33 34  1  1  0  0  0
 35 33  1  0  0  0  0
 36 37  1  0  0  0  0
 36 35  1  0  0  0  0
 39 40  2  0  0  0  0
 39 43  1  0  0  0  0
 40 41  1  0  0  0  0
 41 46  2  0  0  0  0
 42 47  2  0  0  0  0
 42 45  1  0  0  0  0
 43 44  2  0  0  0  0
 44 46  1  0  0  0  0
 45 48  2  0  0  0  0
 47 39  1  0  0  0  0
 48 43  1  0  0  0  0
 48 38  1  0  0  0  0
 49 50  2  0  0  0  0
 49 47  1  0  0  0  0
 51 49  1  0  0  0  0
 52 51  1  0  0  0  0
 53 52  1  0  0  0  0
 54 59  1  0  0  0  0
 55 62  1  6  0  0  0
 55 56  1  0  0  0  0
 56 57  2  0  0  0  0
 58 55  1  0  0  0  0
 58 54  1  0  0  0  0
 59 57  1  0  0  0  0
 59 53  1  1  0  0  0
 60 61  1  0  0  0  0
 62 60  1  0  0  0  0
 62 61  1  0  0  0  0
M  END
>  <MODEL>
3

>  <REMARK>
 VINA RESULT:      -4.1      3.243     12.556
  Name = 
  21 active torsions:
  status: ('A' for Active; 'I' for Inactive)
    1  A    between atoms: C_2  and  C_40
    2  A    between atoms: C_2  and  S_58
    3  A    between atoms: C_3  and  C_55
    4  A    between atoms: C_6  and  C_39
    5  A    between atoms: C_6  and  C_49
    6  A    between atoms: N_8  and  C_25
    7  A    between atoms: N_8  and  C_57
    8  A    between atoms: N_10  and  C_41
    9  A    between atoms: N_10  and  N_50
   10  A    between atoms: C_11  and  N_53
   11  A    between atoms: N_13  and  C_25
   12  A    between atoms: N_13  and  C_35
   13  A    between atoms: C_14  and  C_34
   14  A    between atoms: C_25  and  C_59
   15  A    between atoms: C_27  and  C_51
   16  A    between atoms: C_30  and  C_49
   17  A    between atoms: C_31  and  C_48
   18  A    between atoms: C_35  and  C_51
   19  A    between atoms: C_40  and  C_59
   20  A    between atoms: C_41  and  C_60
   21  A    between atoms: C_48  and  S_58
                            x       y       z     vdW  Elec       q    Type
                         _______ _______ _______ _____ _____    ______ ____

>  <TORSDO>
F 21

$$$$
=
 OpenBabel11042420373D

 62 69  0  0  1  0  0  0  0  0999 V2000
  161.7900  207.2380  150.6430 C   0  0  2  0  0  3  0  0  0  0  0  0
  162.7930  206.6550  151.6220 C   0  0  0  0  0  2  0  0  0  0  0  0
  162.5240  207.1350  153.0350 C   0  0  0  0  0  2  0  0  0  0  0  0
  161.1480  206.6600  153.4570 C   0  0  0  0  0  2  0  0  0  0  0  0
  161.0160  206.6280  155.2680 S   0  0  0  0  0  0  0  0  0  0  0  0
  160.0750  208.1830  155.2710 C   0  0  0  0  0  2  0  0  0  0  0  0
  161.5570  210.2580  155.0980 C   0  0  1  0  0  3  0  0  0  0  0  0
  160.8330  209.2740  156.0080 C   0  0  2  0  0  0  0  0  0  0  0  0
  161.5080  208.9210  157.1860 O   0  0  0  0  0  1  0  0  0  0  0  0
  160.3110  210.7020  155.9020 C   0  0  1  0  0  3  0  0  0  0  0  0
  160.6250  211.5350  157.1450 C   0  0  0  0  0  1  0  0  0  0  0  0
  167.0990  212.9680  155.1540 C   0  0  0  0  0  2  0  0  0  0  0  0
  165.1300  211.5760  155.4980 N   0  0  0  0  0  0  0  0  0  0  0  0
  167.3280  212.9330  156.5970 N   0  0  0  0  0  2  0  0  0  0  0  0
  166.3600  211.7080  154.7200 C   0  0  0  0  0  2  0  0  0  0  0  0
  165.1900  211.7800  156.9460 C   0  0  0  0  0  2  0  0  0  0  0  0
  163.9610  210.9990  154.9010 C   0  0  0  0  0  0  0  0  0  0  0  0
  166.0280  213.0240  157.2600 C   0  0  0  0  0  2  0  0  0  0  0  0
  163.9490  210.7430  153.6660 O   0  0  0  0  0  0  0  0  0  0  0  0
  162.8040  210.7290  155.6950 N   0  0  0  0  0  2  0  0  0  0  0  0
  162.4140  207.3360  149.3320 N   0  0  0  0  0  2  0  0  0  0  0  0
  161.6730  206.4820  148.4100 C   0  0  0  0  0  2  0  0  0  0  0  0
  162.2800  206.5410  147.0100 C   0  0  0  0  0  2  0  0  0  0  0  0
  162.0170  205.0600  144.8940 C   0  0  0  0  0  3  0  0  0  0  0  0
  161.4400  203.2120  145.8260 N   0  0  0  0  0  0  0  0  0  0  0  0
  160.9360  203.7970  147.9990 N   0  0  0  0  0  2  0  0  0  0  0  0
  162.0820  205.2520  146.2780 C   0  0  0  0  0  0  0  0  0  0  0  0
  159.8980  201.4450  145.5390 O   0  0  0  0  0  0  0  0  0  0  0  0
  161.5750  203.7990  144.6490 N   0  0  0  0  0  0  0  0  0  0  0  0
  160.4780  202.2880  146.2780 C   0  0  0  0  0  0  0  0  0  0  0  0
  160.1690  202.5640  147.7230 C   0  0  1  0  0  3  0  0  0  0  0  0
  161.6740  204.0540  146.8070 C   0  0  0  0  0  0  0  0  0  0  0  0
  160.6200  201.4100  148.6230 C   0  0  1  0  0  3  0  0  0  0  0  0
  161.6000  200.4740  147.9220 C   0  0  0  0  0  1  0  0  0  0  0  0
  161.2250  201.9630  149.9080 C   0  0  0  0  0  2  0  0  0  0  0  0
  160.6320  203.3150  150.2800 C   0  0  0  0  0  2  0  0  0  0  0  0
  160.7310  203.5500  151.7760 C   0  0  0  0  0  1  0  0  0  0  0  0
  161.3790  208.5640  151.0860 N   0  0  0  0  0  2  0  0  0  0  0  0
  161.1570  212.1650  149.9380 C   0  0  0  0  0  0  0  0  0  0  0  0
  160.6600  213.3590  150.3660 N   0  0  0  0  0  0  0  0  0  0  0  0
  160.0060  213.4760  151.5520 C   0  0  0  0  0  3  0  0  0  0  0  0
  162.3500  210.8330  148.3550 N   0  0  0  0  0  0  0  0  0  0  0  0
  160.9960  211.0230  150.7570 C   0  0  0  0  0  0  0  0  0  0  0  0
  160.3370  211.1560  151.9420 N   0  0  0  0  0  0  0  0  0  0  0  0
  162.1950  209.7220  149.1200 C   0  0  0  0  0  3  0  0  0  0  0  0
  159.8410  212.3500  152.3560 C   0  0  0  0  0  3  0  0  0  0  0  0
  161.8500  212.0470  148.7120 C   0  0  0  0  0  0  0  0  0  0  0  0
  161.5160  209.7810  150.3350 C   0  0  0  0  0  0  0  0  0  0  0  0
  162.0650  213.1870  147.7920 C   0  0  0  0  0  0  0  0  0  0  0  0
  162.4000  214.3090  148.2640 O   0  0  0  0  0  0  0  0  0  0  0  0
  161.9330  213.0320  146.3760 N   0  0  0  0  0  2  0  0  0  0  0  0
  162.2160  214.0730  145.4800 N   0  0  0  0  0  2  0  0  0  0  0  0
  162.8940  213.4890  144.3330 C   0  0  0  0  0  2  0  0  0  0  0  0
  160.5820  213.6060  143.3630 C   0  0  0  0  0  2  0  0  0  0  0  0
  160.4360  211.7260  141.2990 C   0  0  1  0  0  3  0  0  0  0  0  0
  161.7670  212.2470  141.0700 N   0  0  0  0  0  0  0  0  0  0  0  0
  162.4640  212.7380  142.0320 C   0  0  0  0  0  3  0  0  0  0  0  0
  159.3720  212.9780  142.1200 S   0  0  0  0  0  0  0  0  0  0  0  0
  161.8920  212.8190  143.4110 C   0  0  1  0  0  3  0  0  0  0  0  0
  160.1870  212.3080  138.9040 C   0  0  0  0  0  2  0  0  0  0  0  0
  160.9140  210.9820  138.9840 C   0  0  0  0  0  2  0  0  0  0  0  0
  159.8150  211.3050  139.9790 C   0  0  0  0  0  3  0  0  0  0  0  0
  1 38  1  0  0  0  0
  1  2  1  1  0  0  0
  2  3  1  0  0  0  0
  3  4  1  0  0  0  0
  4  5  1  0  0  0  0
  5  6  1  0  0  0  0
  6  8  1  0  0  0  0
  7 20  1  1  0  0  0
  7 10  1  0  0  0  0
  7  8  1  0  0  0  0
  8  9  1  1  0  0  0
 10  8  1  0  0  0  0
 10 11  1  1  0  0  0
 12 14  1  0  0  0  0
 13 16  1  0  0  0  0
 14 18  1  0  0  0  0
 15 12  1  0  0  0  0
 15 13  1  0  0  0  0
 16 18  1  0  0  0  0
 17 13  1  0  0  0  0
 17 20  1  0  0  0  0
 19 17  2  0  0  0  0
 21  1  1  0  0  0  0
 22 21  1  0  0  0  0
 23 22  1  0  0  0  0
 24 27  1  0  0  0  0
 25 30  1  0  0  0  0
 25 32  1  0  0  0  0
 27 32  2  0  0  0  0
 27 23  1  0  0  0  0
 28 30  2  0  0  0  0
 29 24  2  0  0  0  0
 29 25  1  0  0  0  0
 30 31  1  0  0  0  0
 31 26  1  0  0  0  0
 31 33  1  1  0  0  0
 32 26  1  0  0  0  0
 33 34  1  6  0  0  0
 33 35  1  0  0  0  0
 35 36  1  0  0  0  0
 36 37  1  0  0  0  0
 39 40  2  0  0  0  0
 39 43  1  0  0  0  0
 40 41  1  0  0  0  0
 41 46  2  0  0  0  0
 42 47  2  0  0  0  0
 42 45  1  0  0  0  0
 43 44  2  0  0  0  0
 44 46  1  0  0  0  0
 45 48  2  0  0  0  0
 47 39  1  0  0  0  0
 48 43  1  0  0  0  0
 48 38  1  0  0  0  0
 49 50  2  0  0  0  0
 49 47  1  0  0  0  0
 51 49  1  0  0  0  0
 52 51  1  0  0  0  0
 53 52  1  0  0  0  0
 54 59  1  0  0  0  0
 55 62  1  6  0  0  0
 55 58  1  0  0  0  0
 56 55  1  0  0  0  0
 56 57  2  0  0  0  0
 57 59  1  0  0  0  0
 58 54  1  0  0  0  0
 59 53  1  1  0  0  0
 60 61  1  0  0  0  0
 60 62  1  0  0  0  0
 61 62  1  0  0  0  0
M  END
>  <MODEL>
4

>  <REMARK>
 VINA RESULT:      -3.5      3.406     12.345
  Name = 
  21 active torsions:
  status: ('A' for Active; 'I' for Inactive)
    1  A    between atoms: C_2  and  C_40
    2  A    between atoms: C_2  and  S_58
    3  A    between atoms: C_3  and  C_55
    4  A    between atoms: C_6  and  C_39
    5  A    between atoms: C_6  and  C_49
    6  A    between atoms: N_8  and  C_25
    7  A    between atoms: N_8  and  C_57
    8  A    between atoms: N_10  and  C_41
    9  A    between atoms: N_10  and  N_50
   10  A    between atoms: C_11  and  N_53
   11  A    between atoms: N_13  and  C_25
   12  A    between atoms: N_13  and  C_35
   13  A    between atoms: C_14  and  C_34
   14  A    between atoms: C_25  and  C_59
   15  A    between atoms: C_27  and  C_51
   16  A    between atoms: C_30  and  C_49
   17  A    between atoms: C_31  and  C_48
   18  A    between atoms: C_35  and  C_51
   19  A    between atoms: C_40  and  C_59
   20  A    between atoms: C_41  and  C_60
   21  A    between atoms: C_48  and  S_58
                            x       y       z     vdW  Elec       q    Type
                         _______ _______ _______ _____ _____    ______ ____

>  <TORSDO>
F 21

$$$$
