=
 OpenBabel11052411153D

 26 31  0  0  1  0  0  0  0  0999 V2000
  162.2880  204.6680  145.8060 C   0  0  1  0  0  3  0  0  0  0  0  0
  162.0730  206.7330  147.0180 C   0  0  2  0  0  0  0  0  0  0  0  0
  162.0170  204.0900  147.1330 N   0  0  0  0  0  0  0  0  0  0  0  0
  159.9130  206.5240  148.8170 C   0  0  0  0  0  2  0  0  0  0  0  0
  160.7180  206.4810  146.6630 O   0  0  0  0  0  0  0  0  0  0  0  0
  160.8520  200.6660  148.3050 C   0  0  0  0  0  2  0  0  0  0  0  0
  161.0780  203.3050  149.3500 C   0  0  0  0  0  0  0  0  0  0  0  0
  161.4990  203.0440  147.9630 C   0  0  0  0  0  0  0  0  0  0  0  0
  160.7890  200.9620  149.7440 N   0  0  0  0  0  0  0  0  0  0  0  0
  162.7460  206.0630  148.1710 C   0  0  0  0  0  2  0  0  0  0  0  0
  160.5530  205.7810  149.9490 C   0  0  0  0  0  0  0  0  0  0  0  0
  160.8370  202.1640  150.2360 C   0  0  0  0  0  3  0  0  0  0  0  0
  160.8420  207.2440  147.8050 C   0  0  2  0  0  3  0  0  0  0  0  0
  161.4300  201.7990  147.4900 C   0  0  0  0  0  3  0  0  0  0  0  0
  160.8080  204.5200  149.7280 C   0  0  0  0  0  0  0  0  0  0  0  0
  162.8600  205.3330  146.8910 C   0  0  1  0  0  0  0  0  0  0  0  0
  163.2550  203.9010  145.1590 O   0  0  0  0  0  1  0  0  0  0  0  0
  161.3140  205.7010  152.3930 C   0  0  0  0  0  3  0  0  0  0  0  0
  161.6000  207.7990  153.6820 C   0  0  0  0  0  2  0  0  0  0  0  0
  161.0060  206.4780  151.1750 C   0  0  0  0  0  0  0  0  0  0  0  0
  161.6210  206.3010  153.5440 C   0  0  0  0  0  3  0  0  0  0  0  0
  161.6410  208.4670  152.3800 N   0  0  0  0  0  0  0  0  0  0  0  0
  161.1910  207.8040  151.1900 C   0  0  0  0  0  3  0  0  0  0  0  0
  161.8910  209.8980  152.3430 C   0  0  0  0  0  2  0  0  0  0  0  0
  159.6510  210.8560  152.7670 C   0  0  0  0  0  1  0  0  0  0  0  0
  161.0200  210.6070  153.3620 C   0  0  0  0  0  2  0  0  0  0  0  0
  1 17  1  6  0  0  0
  1 16  1  0  0  0  0
  1  3  1  0  0  0  0
  2 13  1  0  0  0  0
  2 10  1  1  0  0  0
  3  8  1  0  0  0  0
  4 11  1  0  0  0  0
  5  2  1  0  0  0  0
  5 13  1  0  0  0  0
  6  9  1  0  0  0  0
  7 15  2  0  0  0  0
  7 12  1  0  0  0  0
  8  7  1  0  0  0  0
  9 12  2  0  0  0  0
 11 20  1  0  0  0  0
 13  4  1  1  0  0  0
 14  8  2  0  0  0  0
 14  6  1  0  0  0  0
 15 11  2  0  0  0  0
 16  2  1  0  0  0  0
 16  3  1  0  0  0  0
 16 10  1  1  0  0  0
 18 21  2  0  0  0  0
 20 23  2  0  0  0  0
 20 18  1  0  0  0  0
 21 19  1  0  0  0  0
 22 19  1  0  0  0  0
 23 22  1  0  0  0  0
 24 22  1  0  0  0  0
 24 26  1  0  0  0  0
 25 26  1  0  0  0  0
M  END
>  <MODEL>
1

>  <REMARK>
 VINA RESULT:      -8.0      0.000      0.000
  Name = 
  3 active torsions:
  status: ('A' for Active; 'I' for Inactive)
    1  A    between atoms: C_9  and  C_14
    2  A    between atoms: C_19  and  C_22
    3  A    between atoms: C_22  and  N_23
                            x       y       z     vdW  Elec       q    Type
                         _______ _______ _______ _____ _____    ______ ____

>  <TORSDO>
F 3

$$$$
=
 OpenBabel11052411153D

 26 31  0  0  1  0  0  0  0  0999 V2000
  160.7490  202.5660  150.0570 C   0  0  1  0  0  3  0  0  0  0  0  0
  160.8500  204.0960  151.9090 C   0  0  2  0  0  0  0  0  0  0  0  0
  160.9990  203.7940  149.2850 N   0  0  0  0  0  0  0  0  0  0  0  0
  162.9590  205.9180  151.4840 C   0  0  0  0  0  2  0  0  0  0  0  0
  162.2250  203.7560  151.7580 O   0  0  0  0  0  0  0  0  0  0  0  0
  162.2490  204.4530  145.7560 C   0  0  0  0  0  2  0  0  0  0  0  0
  161.8950  205.8930  148.1870 C   0  0  0  0  0  0  0  0  0  0  0  0
  161.5280  204.4670  148.1360 C   0  0  0  0  0  0  0  0  0  0  0  0
  162.2550  205.9220  145.8210 N   0  0  0  0  0  0  0  0  0  0  0  0
  160.1660  205.1030  151.0440 C   0  0  0  0  0  2  0  0  0  0  0  0
  162.3110  206.8940  150.5510 C   0  0  0  0  0  0  0  0  0  0  0  0
  162.1490  206.5960  146.9280 C   0  0  0  0  0  3  0  0  0  0  0  0
  162.0370  204.9990  152.3270 C   0  0  2  0  0  3  0  0  0  0  0  0
  161.6570  203.8060  146.9850 C   0  0  0  0  0  3  0  0  0  0  0  0
  162.1090  206.4670  149.3330 C   0  0  0  0  0  0  0  0  0  0  0  0
  160.1190  203.7200  150.5240 C   0  0  1  0  0  0  0  0  0  0  0  0
  159.8310  201.7700  149.3740 O   0  0  0  0  0  1  0  0  0  0  0  0
  161.1220  208.2850  152.3410 C   0  0  0  0  0  3  0  0  0  0  0  0
  160.4980  210.6410  151.8830 C   0  0  0  0  0  2  0  0  0  0  0  0
  161.7940  208.1970  151.0300 C   0  0  0  0  0  0  0  0  0  0  0  0
  160.5500  209.4170  152.7570 C   0  0  0  0  0  3  0  0  0  0  0  0
  161.4720  210.5750  150.7930 N   0  0  0  0  0  0  0  0  0  0  0  0
  161.9680  209.3150  150.3150 C   0  0  0  0  0  3  0  0  0  0  0  0
  161.7340  211.7780  150.0220 C   0  0  0  0  0  2  0  0  0  0  0  0
  162.9940  212.3390  147.9690 C   0  0  0  0  0  1  0  0  0  0  0  0
  161.9420  211.4270  148.5610 C   0  0  0  0  0  2  0  0  0  0  0  0
  1 17  1  6  0  0  0
  1 16  1  0  0  0  0
  2 10  1  6  0  0  0
  2 13  1  0  0  0  0
  3  1  1  0  0  0  0
  3 16  1  0  0  0  0
  5  2  1  0  0  0  0
  5 13  1  0  0  0  0
  6  9  1  0  0  0  0
  6 14  1  0  0  0  0
  7 15  2  0  0  0  0
  8  7  1  0  0  0  0
  8  3  1  0  0  0  0
  9 12  2  0  0  0  0
 11 20  1  0  0  0  0
 11  4  1  0  0  0  0
 12  7  1  0  0  0  0
 13  4  1  6  0  0  0
 14  8  2  0  0  0  0
 15 11  2  0  0  0  0
 16 10  1  6  0  0  0
 16  2  1  0  0  0  0
 18 21  2  0  0  0  0
 19 21  1  0  0  0  0
 20 18  1  0  0  0  0
 22 19  1  0  0  0  0
 23 22  1  0  0  0  0
 23 20  2  0  0  0  0
 24 22  1  0  0  0  0
 25 26  1  0  0  0  0
 26 24  1  0  0  0  0
M  END
>  <MODEL>
2

>  <REMARK>
 VINA RESULT:      -7.4      2.520      4.174
  Name = 
  3 active torsions:
  status: ('A' for Active; 'I' for Inactive)
    1  A    between atoms: C_9  and  C_14
    2  A    between atoms: C_19  and  C_22
    3  A    between atoms: C_22  and  N_23
                            x       y       z     vdW  Elec       q    Type
                         _______ _______ _______ _____ _____    ______ ____

>  <TORSDO>
F 3

$$$$
=
 OpenBabel11052411153D

 26 31  0  0  1  0  0  0  0  0999 V2000
  160.6850  202.3950  149.8510 C   0  0  1  0  0  3  0  0  0  0  0  0
  160.7540  203.5240  151.9720 C   0  0  2  0  0  0  0  0  0  0  0  0
  160.8640  203.7640  149.3390 N   0  0  0  0  0  0  0  0  0  0  0  0
  162.7700  205.4930  151.9030 C   0  0  0  0  0  2  0  0  0  0  0  0
  162.1390  203.2870  151.7420 O   0  0  0  0  0  0  0  0  0  0  0  0
  162.0140  205.1800  146.0040 C   0  0  0  0  0  2  0  0  0  0  0  0
  161.6440  206.0810  148.6790 C   0  0  0  0  0  0  0  0  0  0  0  0
  161.3400  204.6790  148.3460 C   0  0  0  0  0  0  0  0  0  0  0  0
  161.9560  206.6040  146.3650 N   0  0  0  0  0  0  0  0  0  0  0  0
  160.0080  204.6510  151.3350 C   0  0  0  0  0  2  0  0  0  0  0  0
  162.0610  206.6050  151.1930 C   0  0  0  0  0  0  0  0  0  0  0  0
  161.8410  207.0350  147.5860 C   0  0  0  0  0  3  0  0  0  0  0  0
  161.9070  204.3790  152.5510 C   0  0  2  0  0  3  0  0  0  0  0  0
  161.4760  204.2710  147.0830 C   0  0  0  0  0  3  0  0  0  0  0  0
  161.8540  206.4230  149.9160 C   0  0  0  0  0  0  0  0  0  0  0  0
  160.0130  203.4000  150.5470 C   0  0  1  0  0  0  0  0  0  0  0  0
  159.7900  201.7110  149.0300 O   0  0  0  0  0  1  0  0  0  0  0  0
  161.2440  209.0310  151.2250 C   0  0  0  0  0  3  0  0  0  0  0  0
  160.6830  210.1320  153.3740 C   0  0  0  0  0  2  0  0  0  0  0  0
  161.4960  207.7590  151.9300 C   0  0  0  0  0  0  0  0  0  0  0  0
  160.8380  210.1210  151.8780 C   0  0  0  0  0  3  0  0  0  0  0  0
  160.6030  208.7780  153.9240 N   0  0  0  0  0  0  0  0  0  0  0  0
  161.1600  207.6570  153.2220 C   0  0  0  0  0  3  0  0  0  0  0  0
  160.1920  208.6140  155.3080 C   0  0  0  0  0  2  0  0  0  0  0  0
  160.1710  207.0670  157.2380 C   0  0  0  0  0  1  0  0  0  0  0  0
  160.3920  207.1760  155.7450 C   0  0  0  0  0  2  0  0  0  0  0  0
  1 17  1  6  0  0  0
  1 16  1  0  0  0  0
  2 10  1  6  0  0  0
  2 13  1  0  0  0  0
  3  1  1  0  0  0  0
  3 16  1  0  0  0  0
  5  2  1  0  0  0  0
  5 13  1  0  0  0  0
  6  9  1  0  0  0  0
  6 14  1  0  0  0  0
  7 15  2  0  0  0  0
  8  7  1  0  0  0  0
  8  3  1  0  0  0  0
  9 12  2  0  0  0  0
 11  4  1  0  0  0  0
 11 20  1  0  0  0  0
 12  7  1  0  0  0  0
 13  4  1  6  0  0  0
 14  8  2  0  0  0  0
 15 11  2  0  0  0  0
 16 10  1  6  0  0  0
 16  2  1  0  0  0  0
 18 21  2  0  0  0  0
 18 20  1  0  0  0  0
 19 22  1  0  0  0  0
 20 23  2  0  0  0  0
 21 19  1  0  0  0  0
 22 24  1  0  0  0  0
 23 22  1  0  0  0  0
 24 26  1  0  0  0  0
 26 25  1  0  0  0  0
M  END
>  <MODEL>
3

>  <REMARK>
 VINA RESULT:      -7.4      2.322      4.275
  Name = 
  3 active torsions:
  status: ('A' for Active; 'I' for Inactive)
    1  A    between atoms: C_9  and  C_14
    2  A    between atoms: C_19  and  C_22
    3  A    between atoms: C_22  and  N_23
                            x       y       z     vdW  Elec       q    Type
                         _______ _______ _______ _____ _____    ______ ____

>  <TORSDO>
F 3

$$$$
=
 OpenBabel11052411153D

 26 31  0  0  1  0  0  0  0  0999 V2000
  160.7740  202.5220  149.7560 C   0  0  1  0  0  3  0  0  0  0  0  0
  160.8780  203.4610  151.9660 C   0  0  2  0  0  0  0  0  0  0  0  0
  160.8570  203.9380  149.3630 N   0  0  0  0  0  0  0  0  0  0  0  0
  162.7820  205.5400  151.9930 C   0  0  0  0  0  2  0  0  0  0  0  0
  162.2620  203.3250  151.6600 O   0  0  0  0  0  0  0  0  0  0  0  0
  161.7800  205.7040  146.1250 C   0  0  0  0  0  2  0  0  0  0  0  0
  161.4830  206.3450  148.8840 C   0  0  0  0  0  0  0  0  0  0  0  0
  161.2390  204.9630  148.4380 C   0  0  0  0  0  0  0  0  0  0  0  0
  161.6640  207.0850  146.6150 N   0  0  0  0  0  0  0  0  0  0  0  0
  160.0460  204.5960  151.4630 C   0  0  0  0  0  2  0  0  0  0  0  0
  161.9850  206.6680  151.4160 C   0  0  0  0  0  0  0  0  0  0  0  0
  161.5810  207.4000  147.8740 C   0  0  0  0  0  3  0  0  0  0  0  0
  162.0090  204.3270  152.5730 C   0  0  2  0  0  3  0  0  0  0  0  0
  161.3400  204.6750  147.1390 C   0  0  0  0  0  3  0  0  0  0  0  0
  161.7300  206.5870  150.1370 C   0  0  0  0  0  0  0  0  0  0  0  0
  160.0820  203.4220  150.5660 C   0  0  1  0  0  0  0  0  0  0  0  0
  159.8800  201.8620  148.9130 O   0  0  0  0  0  1  0  0  0  0  0  0
  161.1840  207.4610  153.7150 C   0  0  0  0  0  3  0  0  0  0  0  0
  159.9680  209.6090  153.9410 C   0  0  0  0  0  2  0  0  0  0  0  0
  161.3930  207.7190  152.2760 C   0  0  0  0  0  0  0  0  0  0  0  0
  160.5560  208.3420  154.4970 C   0  0  0  0  0  3  0  0  0  0  0  0
  160.5230  209.9400  152.6280 N   0  0  0  0  0  0  0  0  0  0  0  0
  161.0860  208.9250  151.7830 C   0  0  0  0  0  3  0  0  0  0  0  0
  160.2610  211.2570  152.0750 C   0  0  0  0  0  2  0  0  0  0  0  0
  158.4600  212.9140  151.7110 C   0  0  0  0  0  1  0  0  0  0  0  0
  158.9440  211.7920  152.6040 C   0  0  0  0  0  2  0  0  0  0  0  0
  1 17  1  6  0  0  0
  1 16  1  0  0  0  0
  2 10  1  6  0  0  0
  2 13  1  0  0  0  0
  3  1  1  0  0  0  0
  3 16  1  0  0  0  0
  5  2  1  0  0  0  0
  5 13  1  0  0  0  0
  6  9  1  0  0  0  0
  6 14  1  0  0  0  0
  7 15  2  0  0  0  0
  8  7  1  0  0  0  0
  8  3  1  0  0  0  0
  9 12  2  0  0  0  0
 11  4  1  0  0  0  0
 11 20  1  0  0  0  0
 12  7  1  0  0  0  0
 13  4  1  6  0  0  0
 14  8  2  0  0  0  0
 15 11  2  0  0  0  0
 16 10  1  6  0  0  0
 16  2  1  0  0  0  0
 18 21  2  0  0  0  0
 19 21  1  0  0  0  0
 20 18  1  0  0  0  0
 22 19  1  0  0  0  0
 23 20  2  0  0  0  0
 23 22  1  0  0  0  0
 24 26  1  0  0  0  0
 24 22  1  0  0  0  0
 25 26  1  0  0  0  0
M  END
>  <MODEL>
4

>  <REMARK>
 VINA RESULT:      -6.6      2.215      4.005
  Name = 
  3 active torsions:
  status: ('A' for Active; 'I' for Inactive)
    1  A    between atoms: C_9  and  C_14
    2  A    between atoms: C_19  and  C_22
    3  A    between atoms: C_22  and  N_23
                            x       y       z     vdW  Elec       q    Type
                         _______ _______ _______ _____ _____    ______ ____

>  <TORSDO>
F 3

$$$$
=
 OpenBabel11052411153D

 26 31  0  0  1  0  0  0  0  0999 V2000
  161.5830  207.8030  150.3350 C   0  0  1  0  0  3  0  0  0  0  0  0
  161.7380  207.5590  147.9480 C   0  0  2  0  0  0  0  0  0  0  0  0
  161.2390  206.3740  150.2610 N   0  0  0  0  0  0  0  0  0  0  0  0
  163.0190  205.1200  147.3530 C   0  0  0  0  0  2  0  0  0  0  0  0
  163.0540  207.1930  148.3480 O   0  0  0  0  0  0  0  0  0  0  0  0
  161.2200  203.5530  152.8100 C   0  0  0  0  0  2  0  0  0  0  0  0
  161.1440  203.8580  149.9790 C   0  0  0  0  0  0  0  0  0  0  0  0
  161.2110  205.0590  150.8300 C   0  0  0  0  0  0  0  0  0  0  0  0
  160.8140  202.4700  151.9010 N   0  0  0  0  0  0  0  0  0  0  0  0
  160.5780  206.6210  148.0240 C   0  0  0  0  0  2  0  0  0  0  0  0
  161.8830  204.1550  147.5030 C   0  0  0  0  0  0  0  0  0  0  0  0
  160.8240  202.5740  150.6060 C   0  0  0  0  0  3  0  0  0  0  0  0
  162.6750  206.6190  147.1520 C   0  0  2  0  0  3  0  0  0  0  0  0
  161.2050  204.9140  152.1560 C   0  0  0  0  0  3  0  0  0  0  0  0
  161.4870  203.9300  148.7280 C   0  0  0  0  0  0  0  0  0  0  0  0
  160.7970  207.4190  149.2480 C   0  0  1  0  0  0  0  0  0  0  0  0
  160.7860  208.4180  151.2990 O   0  0  0  0  0  1  0  0  0  0  0  0
  160.7420  204.5310  145.2420 C   0  0  0  0  0  3  0  0  0  0  0  0
  159.4860  202.6900  144.1560 C   0  0  0  0  0  2  0  0  0  0  0  0
  161.1600  203.6190  146.3260 C   0  0  0  0  0  0  0  0  0  0  0  0
  159.9980  204.1030  144.2210 C   0  0  0  0  0  3  0  0  0  0  0  0
  160.2270  201.7990  145.0500 N   0  0  0  0  0  0  0  0  0  0  0  0
  160.9190  202.3090  146.2000 C   0  0  0  0  0  3  0  0  0  0  0  0
  160.0380  200.3650  144.9150 C   0  0  0  0  0  2  0  0  0  0  0  0
  161.3790  198.3130  145.2390 C   0  0  0  0  0  1  0  0  0  0  0  0
  160.9600  199.6250  145.8640 C   0  0  0  0  0  2  0  0  0  0  0  0
  1 17  1  1  0  0  0
  2 10  1  1  0  0  0
  2  5  1  0  0  0  0
  2 16  1  0  0  0  0
  3  1  1  0  0  0  0
  3  8  1  0  0  0  0
  4 11  1  0  0  0  0
  7 12  1  0  0  0  0
  7  8  1  0  0  0  0
  8 14  2  0  0  0  0
  9  6  1  0  0  0  0
 11 15  2  0  0  0  0
 12  9  2  0  0  0  0
 13  4  1  1  0  0  0
 13  2  1  0  0  0  0
 13  5  1  0  0  0  0
 14  6  1  0  0  0  0
 15  7  2  0  0  0  0
 16 10  1  6  0  0  0
 16  3  1  0  0  0  0
 16  1  1  0  0  0  0
 18 20  1  0  0  0  0
 19 21  1  0  0  0  0
 19 22  1  0  0  0  0
 20 11  1  0  0  0  0
 21 18  2  0  0  0  0
 22 23  1  0  0  0  0
 23 20  2  0  0  0  0
 24 22  1  0  0  0  0
 24 26  1  0  0  0  0
 25 26  1  0  0  0  0
M  END
>  <MODEL>
5

>  <REMARK>
 VINA RESULT:      -6.6      2.339      6.934
  Name = 
  3 active torsions:
  status: ('A' for Active; 'I' for Inactive)
    1  A    between atoms: C_9  and  C_14
    2  A    between atoms: C_19  and  C_22
    3  A    between atoms: C_22  and  N_23
                            x       y       z     vdW  Elec       q    Type
                         _______ _______ _______ _____ _____    ______ ____

>  <TORSDO>
F 3

$$$$
=
 OpenBabel11052411153D

 26 31  0  0  1  0  0  0  0  0999 V2000
  161.0100  210.6950  152.6840 C   0  0  1  0  0  3  0  0  0  0  0  0
  161.5430  209.1760  150.8990 C   0  0  2  0  0  0  0  0  0  0  0  0
  160.7630  209.4410  153.4130 N   0  0  0  0  0  0  0  0  0  0  0  0
  163.0360  207.0230  151.9370 C   0  0  0  0  0  2  0  0  0  0  0  0
  162.8010  209.2780  151.5570 O   0  0  0  0  0  0  0  0  0  0  0  0
  160.5120  208.5680  157.1050 C   0  0  0  0  0  2  0  0  0  0  0  0
  160.8540  207.2170  154.6220 C   0  0  0  0  0  0  0  0  0  0  0  0
  160.7220  208.6830  154.6290 C   0  0  0  0  0  0  0  0  0  0  0  0
  160.3120  207.1190  156.9510 N   0  0  0  0  0  0  0  0  0  0  0  0
  160.4410  208.2970  151.3910 C   0  0  0  0  0  2  0  0  0  0  0  0
  161.9470  206.1670  152.5080 C   0  0  0  0  0  0  0  0  0  0  0  0
  160.5150  206.4770  155.8390 C   0  0  0  0  0  3  0  0  0  0  0  0
  162.6430  208.0870  150.8800 C   0  0  2  0  0  3  0  0  0  0  0  0
  160.5210  209.3090  155.7900 C   0  0  0  0  0  3  0  0  0  0  0  0
  161.3810  206.6180  153.5950 C   0  0  0  0  0  0  0  0  0  0  0  0
  160.4230  209.6660  151.9480 C   0  0  1  0  0  0  0  0  0  0  0  0
  160.0410  211.6320  153.0400 O   0  0  0  0  0  1  0  0  0  0  0  0
  160.8470  203.8550  152.5500 C   0  0  0  0  0  3  0  0  0  0  0  0
  160.7280  202.4910  150.4840 C   0  0  0  0  0  2  0  0  0  0  0  0
  161.4450  204.9710  151.7910 C   0  0  0  0  0  0  0  0  0  0  0  0
  160.4830  202.7210  151.9500 C   0  0  0  0  0  3  0  0  0  0  0  0
  160.9800  203.7430  149.7700 N   0  0  0  0  0  0  0  0  0  0  0  0
  161.4780  204.9010  150.4550 C   0  0  0  0  0  3  0  0  0  0  0  0
  160.9730  203.7270  148.3170 C   0  0  0  0  0  2  0  0  0  0  0  0
  162.4610  204.7460  146.6240 C   0  0  0  0  0  1  0  0  0  0  0  0
  161.5250  205.0320  147.7780 C   0  0  0  0  0  2  0  0  0  0  0  0
  1 17  1  1  0  0  0
  1  3  1  0  0  0  0
  2 10  1  1  0  0  0
  2  5  1  0  0  0  0
  2 16  1  0  0  0  0
  3  8  1  0  0  0  0
  4 11  1  0  0  0  0
  7  8  1  0  0  0  0
  7 12  1  0  0  0  0
  8 14  2  0  0  0  0
  9  6  1  0  0  0  0
 11 15  2  0  0  0  0
 12  9  2  0  0  0  0
 13  2  1  0  0  0  0
 13  5  1  0  0  0  0
 13  4  1  1  0  0  0
 14  6  1  0  0  0  0
 15  7  2  0  0  0  0
 16 10  1  6  0  0  0
 16  1  1  0  0  0  0
 16  3  1  0  0  0  0
 19 21  1  0  0  0  0
 20 11  1  0  0  0  0
 20 18  1  0  0  0  0
 21 18  2  0  0  0  0
 22 23  1  0  0  0  0
 22 19  1  0  0  0  0
 23 20  2  0  0  0  0
 24 22  1  0  0  0  0
 25 26  1  0  0  0  0
 26 24  1  0  0  0  0
M  END
>  <MODEL>
6

>  <REMARK>
 VINA RESULT:      -6.2      2.757      7.084
  Name = 
  3 active torsions:
  status: ('A' for Active; 'I' for Inactive)
    1  A    between atoms: C_9  and  C_14
    2  A    between atoms: C_19  and  C_22
    3  A    between atoms: C_22  and  N_23
                            x       y       z     vdW  Elec       q    Type
                         _______ _______ _______ _____ _____    ______ ____

>  <TORSDO>
F 3

$$$$
=
 OpenBabel11052411153D

 26 31  0  0  1  0  0  0  0  0999 V2000
  160.7680  207.6970  156.7280 C   0  0  1  0  0  3  0  0  0  0  0  0
  160.4560  210.0720  156.5280 C   0  0  2  0  0  0  0  0  0  0  0  0
  160.6280  207.7540  155.2640 N   0  0  0  0  0  0  0  0  0  0  0  0
  161.9260  211.0100  154.3130 C   0  0  0  0  0  2  0  0  0  0  0  0
  161.8660  209.9650  156.3610 O   0  0  0  0  0  0  0  0  0  0  0  0
  161.5520  205.3650  152.4540 C   0  0  0  0  0  2  0  0  0  0  0  0
  160.8440  208.1060  152.7650 C   0  0  0  0  0  0  0  0  0  0  0  0
  160.9110  207.2420  153.9560 C   0  0  0  0  0  0  0  0  0  0  0  0
  161.1280  206.2120  151.3290 N   0  0  0  0  0  0  0  0  0  0  0  0
  159.4870  209.7970  155.4250 C   0  0  0  0  0  2  0  0  0  0  0  0
  160.9990  210.6680  153.1870 C   0  0  0  0  0  0  0  0  0  0  0  0
  160.8520  207.4770  151.4430 C   0  0  0  0  0  3  0  0  0  0  0  0
  161.3330  211.0790  155.7450 C   0  0  2  0  0  3  0  0  0  0  0  0
  161.2030  205.9490  153.8020 C   0  0  0  0  0  3  0  0  0  0  0  0
  160.9050  209.3980  152.8970 C   0  0  0  0  0  0  0  0  0  0  0  0
  159.8370  208.6130  156.2380 C   0  0  1  0  0  0  0  0  0  0  0  0
  160.1090  206.5670  157.2100 O   0  0  0  0  0  1  0  0  0  0  0  0
  158.9150  212.1530  153.2530 C   0  0  0  0  0  3  0  0  0  0  0  0
  158.2460  213.4550  151.2530 C   0  0  0  0  0  2  0  0  0  0  0  0
  160.1330  211.6910  152.5580 C   0  0  0  0  0  0  0  0  0  0  0  0
  158.0560  212.9920  152.6710 C   0  0  0  0  0  3  0  0  0  0  0  0
  159.6180  213.2450  150.7880 N   0  0  0  0  0  0  0  0  0  0  0  0
  160.4590  212.2470  151.3840 C   0  0  0  0  0  3  0  0  0  0  0  0
  160.0340  213.8730  149.5460 C   0  0  0  0  0  2  0  0  0  0  0  0
  160.6390  212.5620  147.5370 C   0  0  0  0  0  1  0  0  0  0  0  0
  161.1230  213.0500  148.8850 C   0  0  0  0  0  2  0  0  0  0  0  0
  1 17  1  1  0  0  0
  2 10  1  6  0  0  0
  3 16  1  0  0  0  0
  3  1  1  0  0  0  0
  5  2  1  0  0  0  0
  6 14  1  0  0  0  0
  7 15  2  0  0  0  0
  7  8  1  0  0  0  0
  8  3  1  0  0  0  0
  9 12  2  0  0  0  0
  9  6  1  0  0  0  0
 11  4  1  0  0  0  0
 12  7  1  0  0  0  0
 13  4  1  6  0  0  0
 13  5  1  0  0  0  0
 13  2  1  0  0  0  0
 14  8  2  0  0  0  0
 15 11  2  0  0  0  0
 16 10  1  1  0  0  0
 16  2  1  0  0  0  0
 16  1  1  0  0  0  0
 19 21  1  0  0  0  0
 20 11  1  0  0  0  0
 20 18  1  0  0  0  0
 21 18  2  0  0  0  0
 22 19  1  0  0  0  0
 22 23  1  0  0  0  0
 23 20  2  0  0  0  0
 24 22  1  0  0  0  0
 25 26  1  0  0  0  0
 26 24  1  0  0  0  0
M  END
>  <MODEL>
7

>  <REMARK>
 VINA RESULT:      -6.1      4.851      7.687
  Name = 
  3 active torsions:
  status: ('A' for Active; 'I' for Inactive)
    1  A    between atoms: C_9  and  C_14
    2  A    between atoms: C_19  and  C_22
    3  A    between atoms: C_22  and  N_23
                            x       y       z     vdW  Elec       q    Type
                         _______ _______ _______ _____ _____    ______ ____

>  <TORSDO>
F 3

$$$$
=
 OpenBabel11052411153D

 26 31  0  0  1  0  0  0  0  0999 V2000
  161.5000  203.4230  145.7510 C   0  0  1  0  0  3  0  0  0  0  0  0
  161.5040  205.8270  145.7800 C   0  0  2  0  0  0  0  0  0  0  0  0
  161.5060  203.6020  147.2120 N   0  0  0  0  0  0  0  0  0  0  0  0
  159.7480  206.7260  147.7930 C   0  0  0  0  0  2  0  0  0  0  0  0
  160.1080  205.5530  145.8480 O   0  0  0  0  0  0  0  0  0  0  0  0
  160.6430  201.3210  150.1290 C   0  0  0  0  0  2  0  0  0  0  0  0
  161.0380  204.1010  149.6510 C   0  0  0  0  0  0  0  0  0  0  0  0
  161.1770  203.1520  148.5320 C   0  0  0  0  0  0  0  0  0  0  0  0
  160.8640  202.2940  151.2100 N   0  0  0  0  0  0  0  0  0  0  0  0
  162.4020  205.7560  146.9720 C   0  0  0  0  0  2  0  0  0  0  0  0
  160.6090  206.5850  149.0110 C   0  0  0  0  0  0  0  0  0  0  0  0
  160.9920  203.5720  151.0160 C   0  0  0  0  0  3  0  0  0  0  0  0
  160.4470  206.7670  146.4100 C   0  0  2  0  0  3  0  0  0  0  0  0
  161.0320  201.8470  148.7680 C   0  0  0  0  0  3  0  0  0  0  0  0
  160.8320  205.3620  149.4100 C   0  0  0  0  0  0  0  0  0  0  0  0
  162.2680  204.4830  146.2340 C   0  0  1  0  0  0  0  0  0  0  0  0
  162.3290  202.3540  145.4150 O   0  0  0  0  0  1  0  0  0  0  0  0
  161.6770  207.7200  151.0430 C   0  0  0  0  0  3  0  0  0  0  0  0
  162.3380  210.1060  150.9360 C   0  0  0  0  0  2  0  0  0  0  0  0
  161.2880  207.7530  149.6180 C   0  0  0  0  0  0  0  0  0  0  0  0
  162.1920  208.7900  151.6490 C   0  0  0  0  0  3  0  0  0  0  0  0
  162.2720  209.9500  149.4820 N   0  0  0  0  0  0  0  0  0  0  0  0
  161.6040  208.8280  148.8860 C   0  0  0  0  0  3  0  0  0  0  0  0
  162.6560  211.0740  148.6450 C   0  0  0  0  0  2  0  0  0  0  0  0
  160.8200  212.2080  147.4360 C   0  0  0  0  0  1  0  0  0  0  0  0
  161.6080  212.1670  148.7270 C   0  0  0  0  0  2  0  0  0  0  0  0
  1 17  1  1  0  0  0
  1 16  1  0  0  0  0
  1  3  1  0  0  0  0
  2  5  1  0  0  0  0
  2 16  1  0  0  0  0
  2 13  1  0  0  0  0
  2 10  1  1  0  0  0
  3  8  1  0  0  0  0
  4 11  1  0  0  0  0
  5 13  1  0  0  0  0
  6  9  1  0  0  0  0
  7 12  1  0  0  0  0
  8 14  2  0  0  0  0
  8  7  1  0  0  0  0
 11 15  2  0  0  0  0
 11 20  1  0  0  0  0
 12  9  2  0  0  0  0
 13  4  1  1  0  0  0
 14  6  1  0  0  0  0
 15  7  2  0  0  0  0
 16 10  1  6  0  0  0
 16  3  1  0  0  0  0
 18 21  2  0  0  0  0
 19 21  1  0  0  0  0
 20 18  1  0  0  0  0
 22 19  1  0  0  0  0
 23 22  1  0  0  0  0
 23 20  2  0  0  0  0
 24 26  1  0  0  0  0
 24 22  1  0  0  0  0
 25 26  1  0  0  0  0
M  END
>  <MODEL>
8

>  <REMARK>
 VINA RESULT:      -5.9      2.012      2.446
  Name = 
  3 active torsions:
  status: ('A' for Active; 'I' for Inactive)
    1  A    between atoms: C_9  and  C_14
    2  A    between atoms: C_19  and  C_22
    3  A    between atoms: C_22  and  N_23
                            x       y       z     vdW  Elec       q    Type
                         _______ _______ _______ _____ _____    ______ ____

>  <TORSDO>
F 3

$$$$
=
 OpenBabel11052411153D

 26 31  0  0  1  0  0  0  0  0999 V2000
  160.7650  207.6790  156.8030 C   0  0  1  0  0  3  0  0  0  0  0  0
  160.4170  210.0540  156.6560 C   0  0  2  0  0  0  0  0  0  0  0  0
  160.6230  207.7670  155.3410 N   0  0  0  0  0  0  0  0  0  0  0  0
  161.8700  211.0620  154.4610 C   0  0  0  0  0  2  0  0  0  0  0  0
  161.8280  209.9720  156.4850 O   0  0  0  0  0  0  0  0  0  0  0  0
  161.5780  205.4540  152.4780 C   0  0  0  0  0  2  0  0  0  0  0  0
  160.8290  208.1770  152.8500 C   0  0  0  0  0  0  0  0  0  0  0  0
  160.9110  207.2880  154.0220 C   0  0  0  0  0  0  0  0  0  0  0  0
  161.1400  206.3200  151.3730 N   0  0  0  0  0  0  0  0  0  0  0  0
  159.4510  209.7880  155.5480 C   0  0  0  0  0  2  0  0  0  0  0  0
  160.9470  210.7310  153.3290 C   0  0  0  0  0  0  0  0  0  0  0  0
  160.8460  207.5770  151.5140 C   0  0  0  0  0  3  0  0  0  0  0  0
  161.2790  211.0900  155.8940 C   0  0  2  0  0  3  0  0  0  0  0  0
  161.2230  206.0040  153.8390 C   0  0  0  0  0  3  0  0  0  0  0  0
  160.8710  209.4660  153.0100 C   0  0  0  0  0  0  0  0  0  0  0  0
  159.8200  208.5920  156.3350 C   0  0  1  0  0  0  0  0  0  0  0  0
  160.1240  206.5290  157.2610 O   0  0  0  0  0  1  0  0  0  0  0  0
  160.4030  212.3320  151.4070 C   0  0  0  0  0  3  0  0  0  0  0  0
  158.5540  213.9680  151.6300 C   0  0  0  0  0  2  0  0  0  0  0  0
  160.0650  211.7550  152.7230 C   0  0  0  0  0  0  0  0  0  0  0  0
  159.6920  213.3310  150.8810 C   0  0  0  0  0  3  0  0  0  0  0  0
  158.0780  213.1210  152.7250 N   0  0  0  0  0  0  0  0  0  0  0  0
  158.9320  212.1350  153.3250 C   0  0  0  0  0  3  0  0  0  0  0  0
  156.8250  213.4650  153.3750 C   0  0  0  0  0  2  0  0  0  0  0  0
  155.6950  213.2820  155.5670 C   0  0  0  0  0  1  0  0  0  0  0  0
  156.6050  212.5770  154.5840 C   0  0  0  0  0  2  0  0  0  0  0  0
  1 17  1  1  0  0  0
  2 10  1  6  0  0  0
  3 16  1  0  0  0  0
  3  1  1  0  0  0  0
  5  2  1  0  0  0  0
  6 14  1  0  0  0  0
  7 15  2  0  0  0  0
  7  8  1  0  0  0  0
  8  3  1  0  0  0  0
  9 12  2  0  0  0  0
  9  6  1  0  0  0  0
 11  4  1  0  0  0  0
 12  7  1  0  0  0  0
 13  4  1  6  0  0  0
 13  5  1  0  0  0  0
 13  2  1  0  0  0  0
 14  8  2  0  0  0  0
 15 11  2  0  0  0  0
 16 10  1  1  0  0  0
 16  2  1  0  0  0  0
 16  1  1  0  0  0  0
 18 20  1  0  0  0  0
 19 22  1  0  0  0  0
 20 23  2  0  0  0  0
 20 11  1  0  0  0  0
 21 18  2  0  0  0  0
 21 19  1  0  0  0  0
 22 23  1  0  0  0  0
 22 24  1  0  0  0  0
 24 26  1  0  0  0  0
 26 25  1  0  0  0  0
M  END
>  <MODEL>
9

>  <REMARK>
 VINA RESULT:      -5.8      4.911      7.817
  Name = 
  3 active torsions:
  status: ('A' for Active; 'I' for Inactive)
    1  A    between atoms: C_9  and  C_14
    2  A    between atoms: C_19  and  C_22
    3  A    between atoms: C_22  and  N_23
                            x       y       z     vdW  Elec       q    Type
                         _______ _______ _______ _____ _____    ______ ____

>  <TORSDO>
F 3

$$$$
