=
 OpenBabel11052410373D

 25 29  0  0  1  0  0  0  0  0999 V2000
  161.1540  205.0270  148.7870 C   0  0  0  0  0  0  0  0  0  0  0  0
  161.1390  200.0410  146.5130 O   0  0  0  0  0  0  0  0  0  0  0  0
  160.7930  202.8980  150.4870 C   0  0  0  0  0  3  0  0  0  0  0  0
  161.4740  204.7740  146.1040 N   0  0  0  0  0  0  0  0  0  0  0  0
  161.3130  203.6430  146.8640 C   0  0  0  0  0  0  0  0  0  0  0  0
  161.0000  205.2800  150.1080 C   0  0  0  0  0  0  0  0  0  0  0  0
  161.0570  206.7620  150.3520 C   0  0  2  0  0  3  0  0  0  0  0  0
  160.8080  204.2170  151.0020 C   0  0  0  0  0  3  0  0  0  0  0  0
  161.1350  201.1700  147.0680 C   0  0  0  0  0  0  0  0  0  0  0  0
  160.9460  201.2520  148.5640 C   0  0  0  0  0  2  0  0  0  0  0  0
  161.3100  206.1470  148.0460 C   0  0  0  0  0  0  0  0  0  0  0  0
  161.1440  203.7570  148.2460 C   0  0  0  0  0  0  0  0  0  0  0  0
  161.4770  206.0290  146.6620 C   0  0  0  0  0  3  0  0  0  0  0  0
  160.9640  202.6590  149.1020 C   0  0  0  0  0  0  0  0  0  0  0  0
  161.2610  207.3550  148.9250 C   0  0  0  0  0  2  0  0  0  0  0  0
  161.3100  202.3470  146.2660 N   0  0  0  0  0  2  0  0  0  0  0  0
  162.2570  207.1170  151.2130 C   0  0  0  0  0  2  0  0  0  0  0  0
  161.9980  208.3460  151.9460 N   0  0  0  0  0  2  0  0  0  0  0  0
  160.6660  209.4950  153.9700 S   0  0  0  0  0  0  0  0  0  0  0  0
  160.9250  208.0700  152.8840 C   0  0  2  0  0  3  0  0  0  0  0  0
  160.5370  207.0060  154.9960 N   0  0  0  0  0  2  0  0  0  0  0  0
  160.5530  208.4000  155.4250 C   0  0  1  0  0  3  0  0  0  0  0  0
  161.3160  206.9180  153.7730 C   0  0  0  0  0  2  0  0  0  0  0  0
  162.2980  210.0260  156.1530 C   0  0  0  0  0  1  0  0  0  0  0  0
  161.7220  208.6400  156.3670 C   0  0  0  0  0  2  0  0  0  0  0  0
  1  6  1  0  0  0  0
  2  9  2  0  0  0  0
  3  8  1  0  0  0  0
  4 13  1  0  0  0  0
  4  5  2  0  0  0  0
  5 12  1  0  0  0  0
  6  7  1  0  0  0  0
  6  8  2  0  0  0  0
  7 17  1  1  0  0  0
  9 10  1  0  0  0  0
 10 14  1  0  0  0  0
 11  1  1  0  0  0  0
 11 15  1  0  0  0  0
 12  1  2  0  0  0  0
 12 14  1  0  0  0  0
 13 11  2  0  0  0  0
 14  3  2  0  0  0  0
 15  7  1  0  0  0  0
 16  5  1  0  0  0  0
 16  9  1  0  0  0  0
 17 18  1  0  0  0  0
 19 22  1  0  0  0  0
 20 18  1  6  0  0  0
 20 23  1  0  0  0  0
 20 19  1  0  0  0  0
 21 22  1  0  0  0  0
 22 25  1  1  0  0  0
 23 21  1  0  0  0  0
 24 25  1  0  0  0  0
M  END
>  <MODEL>
1

>  <REMARK>
 VINA RESULT:      -9.8      0.000      0.000
  Name = 
  4 active torsions:
  status: ('A' for Active; 'I' for Inactive)
    1  A    between atoms: N_7  and  C_11
    2  A    between atoms: N_7  and  C_20
    3  A    between atoms: C_8  and  C_20
    4  A    between atoms: C_16  and  C_24
                            x       y       z     vdW  Elec       q    Type
                         _______ _______ _______ _____ _____    ______ ____

>  <TORSDO>
F 4

$$$$
=
 OpenBabel11052410373D

 25 29  0  0  1  0  0  0  0  0999 V2000
  161.4420  205.5080  150.6000 C   0  0  0  0  0  0  0  0  0  0  0  0
  160.9100  202.0350  146.3930 O   0  0  0  0  0  0  0  0  0  0  0  0
  161.9320  206.5230  148.0940 C   0  0  0  0  0  3  0  0  0  0  0  0
  160.7460  202.9260  151.0690 N   0  0  0  0  0  0  0  0  0  0  0  0
  160.9560  203.3340  149.7750 C   0  0  0  0  0  0  0  0  0  0  0  0
  161.7870  206.8130  150.4930 C   0  0  0  0  0  0  0  0  0  0  0  0
  161.8340  207.4390  151.8580 C   0  0  2  0  0  3  0  0  0  0  0  0
  162.0500  207.3600  149.2300 C   0  0  0  0  0  3  0  0  0  0  0  0
  161.0440  202.8580  147.3360 C   0  0  0  0  0  0  0  0  0  0  0  0
  161.4390  204.2810  147.0160 C   0  0  0  0  0  2  0  0  0  0  0  0
  161.2390  205.1150  151.8780 C   0  0  0  0  0  0  0  0  0  0  0  0
  161.3180  204.6590  149.5180 C   0  0  0  0  0  0  0  0  0  0  0  0
  160.8790  203.7870  152.1310 C   0  0  0  0  0  3  0  0  0  0  0  0
  161.5610  205.1640  148.2320 C   0  0  0  0  0  0  0  0  0  0  0  0
  161.4660  206.2620  152.8090 C   0  0  0  0  0  2  0  0  0  0  0  0
  160.8170  202.4250  148.6840 N   0  0  0  0  0  2  0  0  0  0  0  0
  160.7810  208.5280  151.9840 C   0  0  0  0  0  2  0  0  0  0  0  0
  161.3580  209.8190  151.6450 N   0  0  0  0  0  2  0  0  0  0  0  0
  161.7440  210.4270  154.2280 S   0  0  0  0  0  0  0  0  0  0  0  0
  160.9160  210.7650  152.6540 C   0  0  2  0  0  3  0  0  0  0  0  0
  159.1360  211.1090  154.2210 N   0  0  0  0  0  2  0  0  0  0  0  0
  160.1690  210.6230  155.1280 C   0  0  1  0  0  3  0  0  0  0  0  0
  159.4400  210.5910  152.8980 C   0  0  0  0  0  2  0  0  0  0  0  0
  160.8940  208.3200  155.7540 C   0  0  0  0  0  1  0  0  0  0  0  0
  159.7380  209.3020  155.7460 C   0  0  0  0  0  2  0  0  0  0  0  0
  1 11  1  0  0  0  0
  2  9  2  0  0  0  0
  3 14  2  0  0  0  0
  3  8  1  0  0  0  0
  4 13  1  0  0  0  0
  5  4  2  0  0  0  0
  6  1  1  0  0  0  0
  6  7  1  0  0  0  0
  7 17  1  6  0  0  0
  7 15  1  0  0  0  0
  8  6  2  0  0  0  0
  9 16  1  0  0  0  0
 10  9  1  0  0  0  0
 10 14  1  0  0  0  0
 11 13  2  0  0  0  0
 11 15  1  0  0  0  0
 12  5  1  0  0  0  0
 12  1  2  0  0  0  0
 14 12  1  0  0  0  0
 16  5  1  0  0  0  0
 18 17  1  0  0  0  0
 19 22  1  0  0  0  0
 20 18  1  6  0  0  0
 20 23  1  0  0  0  0
 20 19  1  0  0  0  0
 21 22  1  0  0  0  0
 22 25  1  6  0  0  0
 23 21  1  0  0  0  0
 25 24  1  0  0  0  0
M  END
>  <MODEL>
2

>  <REMARK>
 VINA RESULT:      -9.1      1.927      3.182
  Name = 
  4 active torsions:
  status: ('A' for Active; 'I' for Inactive)
    1  A    between atoms: N_7  and  C_11
    2  A    between atoms: N_7  and  C_20
    3  A    between atoms: C_8  and  C_20
    4  A    between atoms: C_16  and  C_24
                            x       y       z     vdW  Elec       q    Type
                         _______ _______ _______ _____ _____    ______ ____

>  <TORSDO>
F 4

$$$$
=
 OpenBabel11052410373D

 25 29  0  0  1  0  0  0  0  0999 V2000
  161.2390  205.5820  149.1170 C   0  0  0  0  0  0  0  0  0  0  0  0
  161.1820  200.3060  147.6330 O   0  0  0  0  0  0  0  0  0  0  0  0
  160.5710  203.7610  151.0640 C   0  0  0  0  0  3  0  0  0  0  0  0
  161.8350  204.9000  146.5580 N   0  0  0  0  0  0  0  0  0  0  0  0
  161.5260  203.9090  147.4570 C   0  0  0  0  0  0  0  0  0  0  0  0
  160.9570  206.0440  150.3580 C   0  0  0  0  0  0  0  0  0  0  0  0
  161.0730  207.5430  150.3810 C   0  0  2  0  0  3  0  0  0  0  0  0
  160.6060  205.1430  151.3720 C   0  0  0  0  0  3  0  0  0  0  0  0
  161.1830  201.5080  148.0070 C   0  0  0  0  0  0  0  0  0  0  0  0
  160.8370  201.8300  149.4420 C   0  0  0  0  0  2  0  0  0  0  0  0
  161.5400  206.5650  148.2400 C   0  0  0  0  0  0  0  0  0  0  0  0
  161.2150  204.2440  148.7760 C   0  0  0  0  0  0  0  0  0  0  0  0
  161.8500  206.2260  146.9180 C   0  0  0  0  0  3  0  0  0  0  0  0
  160.8790  203.3020  149.7600 C   0  0  0  0  0  0  0  0  0  0  0  0
  161.4650  207.8960  148.9150 C   0  0  0  0  0  2  0  0  0  0  0  0
  161.5130  202.5370  147.0640 N   0  0  0  0  0  2  0  0  0  0  0  0
  162.1910  207.9780  151.3140 C   0  0  0  0  0  2  0  0  0  0  0  0
  161.6420  208.3530  152.6070 N   0  0  0  0  0  2  0  0  0  0  0  0
  161.8250  210.3290  154.4100 S   0  0  0  0  0  0  0  0  0  0  0  0
  161.6730  209.8020  152.6850 C   0  0  2  0  0  3  0  0  0  0  0  0
  160.1970  211.6890  152.7480 N   0  0  0  0  0  2  0  0  0  0  0  0
  160.5460  211.6050  154.1610 C   0  0  1  0  0  3  0  0  0  0  0  0
  160.3710  210.3640  152.1770 C   0  0  0  0  0  2  0  0  0  0  0  0
  159.4820  209.9710  155.7170 C   0  0  0  0  0  1  0  0  0  0  0  0
  159.3060  211.2870  154.9830 C   0  0  0  0  0  2  0  0  0  0  0  0
  1  6  1  0  0  0  0
  2  9  2  0  0  0  0
  3  8  1  0  0  0  0
  4 13  1  0  0  0  0
  4  5  2  0  0  0  0
  5 12  1  0  0  0  0
  6  7  1  0  0  0  0
  6  8  2  0  0  0  0
  7 17  1  1  0  0  0
  9 10  1  0  0  0  0
 10 14  1  0  0  0  0
 11 15  1  0  0  0  0
 11  1  1  0  0  0  0
 12  1  2  0  0  0  0
 12 14  1  0  0  0  0
 13 11  2  0  0  0  0
 14  3  2  0  0  0  0
 15  7  1  0  0  0  0
 16  5  1  0  0  0  0
 16  9  1  0  0  0  0
 17 18  1  0  0  0  0
 20 18  1  1  0  0  0
 20 19  1  0  0  0  0
 21 22  1  0  0  0  0
 22 19  1  0  0  0  0
 22 25  1  1  0  0  0
 23 20  1  0  0  0  0
 23 21  1  0  0  0  0
 25 24  1  0  0  0  0
M  END
>  <MODEL>
3

>  <REMARK>
 VINA RESULT:      -9.1      1.557      1.953
  Name = 
  4 active torsions:
  status: ('A' for Active; 'I' for Inactive)
    1  A    between atoms: N_7  and  C_11
    2  A    between atoms: N_7  and  C_20
    3  A    between atoms: C_8  and  C_20
    4  A    between atoms: C_16  and  C_24
                            x       y       z     vdW  Elec       q    Type
                         _______ _______ _______ _____ _____    ______ ____

>  <TORSDO>
F 4

$$$$
=
 OpenBabel11052410373D

 25 29  0  0  1  0  0  0  0  0999 V2000
  161.5150  205.5850  150.4240 C   0  0  0  0  0  0  0  0  0  0  0  0
  161.3540  203.7100  145.2770 O   0  0  0  0  0  0  0  0  0  0  0  0
  162.1860  207.3670  148.4420 C   0  0  0  0  0  3  0  0  0  0  0  0
  160.8160  203.0050  149.9560 N   0  0  0  0  0  0  0  0  0  0  0  0
  161.1210  203.8150  148.8910 C   0  0  0  0  0  0  0  0  0  0  0  0
  161.8520  206.8470  150.7820 C   0  0  0  0  0  0  0  0  0  0  0  0
  161.7850  206.9850  152.2770 C   0  0  2  0  0  3  0  0  0  0  0  0
  162.2060  207.7780  149.7960 C   0  0  0  0  0  3  0  0  0  0  0  0
  161.4030  204.1730  146.4460 C   0  0  0  0  0  0  0  0  0  0  0  0
  161.8050  205.6150  146.6470 C   0  0  0  0  0  2  0  0  0  0  0  0
  161.2180  204.7940  151.4790 C   0  0  0  0  0  0  0  0  0  0  0  0
  161.4850  205.1450  149.1160 C   0  0  0  0  0  0  0  0  0  0  0  0
  160.8560  203.4630  151.2500 C   0  0  0  0  0  3  0  0  0  0  0  0
  161.8220  206.0430  148.0920 C   0  0  0  0  0  0  0  0  0  0  0  0
  161.3580  205.5650  152.7530 C   0  0  0  0  0  2  0  0  0  0  0  0
  161.0770  203.3210  147.5530 N   0  0  0  0  0  2  0  0  0  0  0  0
  160.7130  207.9860  152.6750 C   0  0  0  0  0  2  0  0  0  0  0  0
  161.0870  208.6520  153.9120 N   0  0  0  0  0  2  0  0  0  0  0  0
  160.7020  211.0710  155.0040 S   0  0  0  0  0  0  0  0  0  0  0  0
  161.2570  210.0620  153.6070 C   0  0  2  0  0  3  0  0  0  0  0  0
  160.1430  211.8650  152.4900 N   0  0  0  0  0  2  0  0  0  0  0  0
  159.8260  212.2020  153.8730 C   0  0  1  0  0  3  0  0  0  0  0  0
  160.3870  210.4340  152.4350 C   0  0  0  0  0  2  0  0  0  0  0  0
  158.0100  211.2180  155.2710 C   0  0  0  0  0  1  0  0  0  0  0  0
  158.3230  212.1220  154.0940 C   0  0  0  0  0  2  0  0  0  0  0  0
  1  6  1  0  0  0  0
  1 11  1  0  0  0  0
  2  9  2  0  0  0  0
  3  8  1  0  0  0  0
  4 13  1  0  0  0  0
  5 12  1  0  0  0  0
  5  4  2  0  0  0  0
  6  7  1  0  0  0  0
  7 17  1  6  0  0  0
  7 15  1  0  0  0  0
  8  6  2  0  0  0  0
  9 10  1  0  0  0  0
  9 16  1  0  0  0  0
 10 14  1  0  0  0  0
 11 15  1  0  0  0  0
 12  1  2  0  0  0  0
 13 11  2  0  0  0  0
 14  3  2  0  0  0  0
 14 12  1  0  0  0  0
 16  5  1  0  0  0  0
 17 18  1  0  0  0  0
 20 18  1  1  0  0  0
 20 19  1  0  0  0  0
 21 22  1  0  0  0  0
 22 25  1  6  0  0  0
 22 19  1  0  0  0  0
 23 21  1  0  0  0  0
 23 20  1  0  0  0  0
 25 24  1  0  0  0  0
M  END
>  <MODEL>
4

>  <REMARK>
 VINA RESULT:      -8.8      2.269      3.644
  Name = 
  4 active torsions:
  status: ('A' for Active; 'I' for Inactive)
    1  A    between atoms: N_7  and  C_11
    2  A    between atoms: N_7  and  C_20
    3  A    between atoms: C_8  and  C_20
    4  A    between atoms: C_16  and  C_24
                            x       y       z     vdW  Elec       q    Type
                         _______ _______ _______ _____ _____    ______ ____

>  <TORSDO>
F 4

$$$$
=
 OpenBabel11052410373D

 25 29  0  0  1  0  0  0  0  0999 V2000
  161.4970  204.7680  149.9150 C   0  0  0  0  0  0  0  0  0  0  0  0
  160.6820  201.8900  145.3220 O   0  0  0  0  0  0  0  0  0  0  0  0
  161.8470  206.1090  147.5410 C   0  0  0  0  0  3  0  0  0  0  0  0
  160.8040  202.1490  150.0760 N   0  0  0  0  0  0  0  0  0  0  0  0
  160.9420  202.7260  148.8380 C   0  0  0  0  0  0  0  0  0  0  0  0
  161.8480  206.0750  149.9620 C   0  0  0  0  0  0  0  0  0  0  0  0
  161.9820  206.5140  151.3930 C   0  0  2  0  0  3  0  0  0  0  0  0
  162.0410  206.7870  148.7700 C   0  0  0  0  0  3  0  0  0  0  0  0
  160.8790  202.5800  146.3560 C   0  0  0  0  0  0  0  0  0  0  0  0
  161.2690  204.0320  146.2060 C   0  0  0  0  0  2  0  0  0  0  0  0
  161.3660  204.2090  151.1380 C   0  0  0  0  0  0  0  0  0  0  0  0
  161.3000  204.0720  148.7390 C   0  0  0  0  0  0  0  0  0  0  0  0
  161.0090  202.8600  151.2330 C   0  0  0  0  0  3  0  0  0  0  0  0
  161.4720  204.7440  147.5190 C   0  0  0  0  0  0  0  0  0  0  0  0
  161.6590  205.2200  152.1990 C   0  0  0  0  0  2  0  0  0  0  0  0
  160.7280  201.9710  147.6460 N   0  0  0  0  0  2  0  0  0  0  0  0
  160.9500  207.5780  151.7260 C   0  0  0  0  0  2  0  0  0  0  0  0
  161.5540  208.6220  152.5370 N   0  0  0  0  0  2  0  0  0  0  0  0
  161.0910  210.4550  154.4390 S   0  0  0  0  0  0  0  0  0  0  0  0
  160.6420  208.8980  153.6330 C   0  0  2  0  0  3  0  0  0  0  0  0
  160.3040  208.3630  155.9440 N   0  0  0  0  0  2  0  0  0  0  0  0
  160.8760  209.6970  156.0840 C   0  0  1  0  0  3  0  0  0  0  0  0
  160.7680  207.8210  154.6790 C   0  0  0  0  0  2  0  0  0  0  0  0
  163.1310  210.7270  156.3520 C   0  0  0  0  0  1  0  0  0  0  0  0
  162.2070  209.6170  156.8150 C   0  0  0  0  0  2  0  0  0  0  0  0
  1  6  1  0  0  0  0
  1 11  1  0  0  0  0
  2  9  2  0  0  0  0
  3  8  1  0  0  0  0
  4 13  1  0  0  0  0
  5  4  2  0  0  0  0
  6  7  1  0  0  0  0
  7 17  1  1  0  0  0
  7 15  1  0  0  0  0
  8  6  2  0  0  0  0
  9 16  1  0  0  0  0
 10  9  1  0  0  0  0
 10 14  1  0  0  0  0
 11 13  2  0  0  0  0
 11 15  1  0  0  0  0
 12  5  1  0  0  0  0
 12  1  2  0  0  0  0
 14  3  2  0  0  0  0
 14 12  1  0  0  0  0
 16  5  1  0  0  0  0
 17 18  1  0  0  0  0
 19 22  1  0  0  0  0
 20 18  1  6  0  0  0
 20 19  1  0  0  0  0
 20 23  1  0  0  0  0
 21 22  1  0  0  0  0
 22 25  1  6  0  0  0
 23 21  1  0  0  0  0
 24 25  1  0  0  0  0
M  END
>  <MODEL>
5

>  <REMARK>
 VINA RESULT:      -8.8      1.366      2.622
  Name = 
  4 active torsions:
  status: ('A' for Active; 'I' for Inactive)
    1  A    between atoms: N_7  and  C_11
    2  A    between atoms: N_7  and  C_20
    3  A    between atoms: C_8  and  C_20
    4  A    between atoms: C_16  and  C_24
                            x       y       z     vdW  Elec       q    Type
                         _______ _______ _______ _____ _____    ______ ____

>  <TORSDO>
F 4

$$$$
=
 OpenBabel11052410373D

 25 29  0  0  1  0  0  0  0  0999 V2000
  161.4010  208.0560  151.9300 C   0  0  0  0  0  0  0  0  0  0  0  0
  160.1890  208.5910  157.2480 O   0  0  0  0  0  0  0  0  0  0  0  0
  161.0080  205.7330  153.3440 C   0  0  0  0  0  3  0  0  0  0  0  0
  161.2380  210.5330  153.0280 N   0  0  0  0  0  0  0  0  0  0  0  0
  161.0120  209.4370  153.8220 C   0  0  0  0  0  0  0  0  0  0  0  0
  161.5130  206.8780  151.2720 C   0  0  0  0  0  0  0  0  0  0  0  0
  161.8570  207.1320  149.8310 C   0  0  2  0  0  3  0  0  0  0  0  0
  161.3250  205.6740  151.9650 C   0  0  0  0  0  3  0  0  0  0  0  0
  160.4670  208.4310  156.0310 C   0  0  0  0  0  0  0  0  0  0  0  0
  160.5500  207.0290  155.4750 C   0  0  0  0  0  2  0  0  0  0  0  0
  161.6270  209.1300  151.1400 C   0  0  0  0  0  0  0  0  0  0  0  0
  161.0940  208.1550  153.2720 C   0  0  0  0  0  0  0  0  0  0  0  0
  161.5450  210.4110  151.6950 C   0  0  0  0  0  3  0  0  0  0  0  0
  160.8880  206.9780  154.0070 C   0  0  0  0  0  0  0  0  0  0  0  0
  161.9450  208.6850  149.7490 C   0  0  0  0  0  2  0  0  0  0  0  0
  160.6970  209.5830  155.2070 N   0  0  0  0  0  2  0  0  0  0  0  0
  160.7410  206.6470  148.9210 C   0  0  0  0  0  2  0  0  0  0  0  0
  161.1270  206.8130  147.5290 N   0  0  0  0  0  2  0  0  0  0  0  0
  162.0240  205.4760  145.3840 S   0  0  0  0  0  0  0  0  0  0  0  0
  161.9790  205.6890  147.1810 C   0  0  2  0  0  3  0  0  0  0  0  0
  161.9060  203.3030  146.9740 N   0  0  0  0  0  2  0  0  0  0  0  0
  161.8190  203.6730  145.5660 C   0  0  1  0  0  3  0  0  0  0  0  0
  161.3980  204.4210  147.7500 C   0  0  0  0  0  2  0  0  0  0  0  0
  160.2540  201.7530  145.2740 C   0  0  0  0  0  1  0  0  0  0  0  0
  160.4830  203.2260  144.9930 C   0  0  0  0  0  2  0  0  0  0  0  0
  1 12  1  0  0  0  0
  3 14  1  0  0  0  0
  4  5  2  0  0  0  0
  5 16  1  0  0  0  0
  6  1  2  0  0  0  0
  6  8  1  0  0  0  0
  7 17  1  6  0  0  0
  7  6  1  0  0  0  0
  8  3  2  0  0  0  0
  9  2  2  0  0  0  0
 10  9  1  0  0  0  0
 11 13  2  0  0  0  0
 11  1  1  0  0  0  0
 12  5  1  0  0  0  0
 12 14  2  0  0  0  0
 13  4  1  0  0  0  0
 14 10  1  0  0  0  0
 15  7  1  0  0  0  0
 15 11  1  0  0  0  0
 16  9  1  0  0  0  0
 18 17  1  0  0  0  0
 19 22  1  0  0  0  0
 19 20  1  0  0  0  0
 20 18  1  6  0  0  0
 20 23  1  0  0  0  0
 21 23  1  0  0  0  0
 22 25  1  1  0  0  0
 22 21  1  0  0  0  0
 25 24  1  0  0  0  0
M  END
>  <MODEL>
6

>  <REMARK>
 VINA RESULT:      -8.7      3.757      8.132
  Name = 
  4 active torsions:
  status: ('A' for Active; 'I' for Inactive)
    1  A    between atoms: N_7  and  C_11
    2  A    between atoms: N_7  and  C_20
    3  A    between atoms: C_8  and  C_20
    4  A    between atoms: C_16  and  C_24
                            x       y       z     vdW  Elec       q    Type
                         _______ _______ _______ _____ _____    ______ ____

>  <TORSDO>
F 4

$$$$
=
 OpenBabel11052410373D

 25 29  0  0  1  0  0  0  0  0999 V2000
  161.4220  205.7970  151.0730 C   0  0  0  0  0  0  0  0  0  0  0  0
  161.4750  205.5410  145.5980 O   0  0  0  0  0  0  0  0  0  0  0  0
  162.0610  208.1120  149.7360 C   0  0  0  0  0  3  0  0  0  0  0  0
  160.8510  203.4510  149.8320 N   0  0  0  0  0  0  0  0  0  0  0  0
  161.1470  204.5530  149.0690 C   0  0  0  0  0  0  0  0  0  0  0  0
  161.6920  206.9060  151.8020 C   0  0  0  0  0  0  0  0  0  0  0  0
  161.5810  206.5880  153.2670 C   0  0  2  0  0  3  0  0  0  0  0  0
  162.0280  208.1010  151.1520 C   0  0  0  0  0  3  0  0  0  0  0  0
  161.4740  205.6350  146.8530 C   0  0  0  0  0  0  0  0  0  0  0  0
  161.8060  206.9650  147.4890 C   0  0  0  0  0  2  0  0  0  0  0  0
  161.1340  204.7170  151.8330 C   0  0  0  0  0  0  0  0  0  0  0  0
  161.4450  205.7670  149.6920 C   0  0  0  0  0  0  0  0  0  0  0  0
  160.8380  203.5030  151.2040 C   0  0  0  0  0  3  0  0  0  0  0  0
  161.7670  206.9420  148.9960 C   0  0  0  0  0  0  0  0  0  0  0  0
  161.2070  205.0760  153.2820 C   0  0  0  0  0  2  0  0  0  0  0  0
  161.1590  204.4800  147.6430 N   0  0  0  0  0  2  0  0  0  0  0  0
  160.4550  207.3860  153.9030 C   0  0  0  0  0  2  0  0  0  0  0  0
  160.0830  206.7930  155.1780 N   0  0  0  0  0  2  0  0  0  0  0  0
  159.7400  209.4390  155.4460 S   0  0  0  0  0  0  0  0  0  0  0  0
  160.1670  207.8400  156.1810 C   0  0  2  0  0  3  0  0  0  0  0  0
  161.7670  209.2910  157.2170 N   0  0  0  0  0  2  0  0  0  0  0  0
  161.1530  210.2310  156.2870 C   0  0  1  0  0  3  0  0  0  0  0  0
  161.5860  207.9570  156.6720 C   0  0  0  0  0  2  0  0  0  0  0  0
  161.5880  210.7030  153.8770 C   0  0  0  0  0  1  0  0  0  0  0  0
  162.1820  210.7040  155.2720 C   0  0  0  0  0  2  0  0  0  0  0  0
  1  6  1  0  0  0  0
  1 11  1  0  0  0  0
  2  9  2  0  0  0  0
  3  8  1  0  0  0  0
  4 13  1  0  0  0  0
  5 12  1  0  0  0  0
  5  4  2  0  0  0  0
  6  7  1  0  0  0  0
  7 15  1  0  0  0  0
  7 17  1  6  0  0  0
  8  6  2  0  0  0  0
  9 10  1  0  0  0  0
  9 16  1  0  0  0  0
 10 14  1  0  0  0  0
 11 15  1  0  0  0  0
 12  1  2  0  0  0  0
 13 11  2  0  0  0  0
 14 12  1  0  0  0  0
 14  3  2  0  0  0  0
 16  5  1  0  0  0  0
 17 18  1  0  0  0  0
 19 20  1  0  0  0  0
 19 22  1  0  0  0  0
 20 18  1  6  0  0  0
 20 23  1  0  0  0  0
 22 25  1  6  0  0  0
 22 21  1  0  0  0  0
 23 21  1  0  0  0  0
 24 25  1  0  0  0  0
M  END
>  <MODEL>
7

>  <REMARK>
 VINA RESULT:      -8.6      2.070      3.758
  Name = 
  4 active torsions:
  status: ('A' for Active; 'I' for Inactive)
    1  A    between atoms: N_7  and  C_11
    2  A    between atoms: N_7  and  C_20
    3  A    between atoms: C_8  and  C_20
    4  A    between atoms: C_16  and  C_24
                            x       y       z     vdW  Elec       q    Type
                         _______ _______ _______ _____ _____    ______ ____

>  <TORSDO>
F 4

$$$$
=
 OpenBabel11052410373D

 25 29  0  0  1  0  0  0  0  0999 V2000
  161.3680  206.3830  151.2560 C   0  0  0  0  0  0  0  0  0  0  0  0
  160.8900  202.1910  147.7590 O   0  0  0  0  0  0  0  0  0  0  0  0
  161.5790  206.9790  148.5820 C   0  0  0  0  0  3  0  0  0  0  0  0
  160.9640  203.8750  152.2130 N   0  0  0  0  0  0  0  0  0  0  0  0
  161.0430  204.0650  150.8560 C   0  0  0  0  0  0  0  0  0  0  0  0
  161.5740  207.6730  150.9010 C   0  0  0  0  0  0  0  0  0  0  0  0
  161.6530  208.5320  152.1320 C   0  0  2  0  0  3  0  0  0  0  0  0
  161.6930  208.0100  149.5460 C   0  0  0  0  0  3  0  0  0  0  0  0
  161.0060  203.1750  148.5330 C   0  0  0  0  0  0  0  0  0  0  0  0
  161.2360  204.5480  147.9450 C   0  0  0  0  0  2  0  0  0  0  0  0
  161.2940  206.2050  152.5940 C   0  0  0  0  0  0  0  0  0  0  0  0
  161.2530  205.3490  150.3480 C   0  0  0  0  0  0  0  0  0  0  0  0
  161.0850  204.9180  153.0990 C   0  0  0  0  0  3  0  0  0  0  0  0
  161.3550  205.6380  148.9790 C   0  0  0  0  0  0  0  0  0  0  0  0
  161.4700  207.5140  153.2960 C   0  0  0  0  0  2  0  0  0  0  0  0
  160.9180  202.9690  149.9500 N   0  0  0  0  0  2  0  0  0  0  0  0
  160.5100  209.5320  152.1610 C   0  0  0  0  0  2  0  0  0  0  0  0
  160.2860  209.9940  153.5210 N   0  0  0  0  0  2  0  0  0  0  0  0
  159.6770  212.0770  155.0970 S   0  0  0  0  0  0  0  0  0  0  0  0
  160.1420  211.4380  153.4680 C   0  0  2  0  0  3  0  0  0  0  0  0
  158.5380  213.1210  152.8880 N   0  0  0  0  0  2  0  0  0  0  0  0
  158.4210  213.1630  154.3410 C   0  0  1  0  0  3  0  0  0  0  0  0
  159.0210  211.7990  152.5280 C   0  0  0  0  0  2  0  0  0  0  0  0
  157.0950  211.5810  155.7410 C   0  0  0  0  0  1  0  0  0  0  0  0
  157.0230  212.7370  154.7620 C   0  0  0  0  0  2  0  0  0  0  0  0
  1 11  1  0  0  0  0
  2  9  2  0  0  0  0
  3 14  2  0  0  0  0
  3  8  1  0  0  0  0
  4 13  1  0  0  0  0
  5  4  2  0  0  0  0
  6  1  1  0  0  0  0
  6  7  1  0  0  0  0
  7 17  1  6  0  0  0
  7 15  1  0  0  0  0
  8  6  2  0  0  0  0
  9 16  1  0  0  0  0
 10  9  1  0  0  0  0
 10 14  1  0  0  0  0
 11 13  2  0  0  0  0
 11 15  1  0  0  0  0
 12  5  1  0  0  0  0
 12  1  2  0  0  0  0
 14 12  1  0  0  0  0
 16  5  1  0  0  0  0
 17 18  1  0  0  0  0
 20 18  1  1  0  0  0
 20 19  1  0  0  0  0
 21 22  1  0  0  0  0
 22 25  1  6  0  0  0
 22 19  1  0  0  0  0
 23 21  1  0  0  0  0
 23 20  1  0  0  0  0
 25 24  1  0  0  0  0
M  END
>  <MODEL>
8

>  <REMARK>
 VINA RESULT:      -8.3      2.960      4.316
  Name = 
  4 active torsions:
  status: ('A' for Active; 'I' for Inactive)
    1  A    between atoms: N_7  and  C_11
    2  A    between atoms: N_7  and  C_20
    3  A    between atoms: C_8  and  C_20
    4  A    between atoms: C_16  and  C_24
                            x       y       z     vdW  Elec       q    Type
                         _______ _______ _______ _____ _____    ______ ____

>  <TORSDO>
F 4

$$$$
=
 OpenBabel11052410373D

 25 29  0  0  1  0  0  0  0  0999 V2000
  161.4590  208.0310  152.3150 C   0  0  0  0  0  0  0  0  0  0  0  0
  159.7880  211.4380  156.2690 O   0  0  0  0  0  0  0  0  0  0  0  0
  160.6550  206.8790  154.6770 C   0  0  0  0  0  3  0  0  0  0  0  0
  161.4800  210.7100  151.8770 N   0  0  0  0  0  0  0  0  0  0  0  0
  161.0470  210.2370  153.0910 C   0  0  0  0  0  0  0  0  0  0  0  0
  161.4980  206.6820  152.4160 C   0  0  0  0  0  0  0  0  0  0  0  0
  162.0140  206.0910  151.1330 C   0  0  2  0  0  3  0  0  0  0  0  0
  161.1010  206.0620  153.6090 C   0  0  0  0  0  3  0  0  0  0  0  0
  160.1670  210.6280  155.3850 C   0  0  0  0  0  0  0  0  0  0  0  0
  160.1400  209.1470  155.6860 C   0  0  0  0  0  2  0  0  0  0  0  0
  161.8890  208.4880  151.1170 C   0  0  0  0  0  0  0  0  0  0  0  0
  161.0330  208.8620  153.3320 C   0  0  0  0  0  0  0  0  0  0  0  0
  161.9030  209.8660  150.8800 C   0  0  0  0  0  3  0  0  0  0  0  0
  160.6160  208.2880  154.5430 C   0  0  0  0  0  0  0  0  0  0  0  0
  162.2920  207.3410  150.2460 C   0  0  0  0  0  2  0  0  0  0  0  0
  160.6130  211.1300  154.1170 N   0  0  0  0  0  2  0  0  0  0  0  0
  160.9460  205.2380  150.4700 C   0  0  0  0  0  2  0  0  0  0  0  0
  160.8130  205.6070  149.0700 N   0  0  0  0  0  2  0  0  0  0  0  0
  162.3150  205.5440  146.8490 S   0  0  0  0  0  0  0  0  0  0  0  0
  161.6480  204.6980  148.3040 C   0  0  2  0  0  3  0  0  0  0  0  0
  161.4810  202.9910  146.6310 N   0  0  0  0  0  2  0  0  0  0  0  0
  161.9280  204.1030  145.8010 C   0  0  1  0  0  3  0  0  0  0  0  0
  160.8110  203.5550  147.7910 C   0  0  0  0  0  2  0  0  0  0  0  0
  160.4010  205.8900  144.9680 C   0  0  0  0  0  1  0  0  0  0  0  0
  160.8540  204.4550  144.7820 C   0  0  0  0  0  2  0  0  0  0  0  0
  1  6  2  0  0  0  0
  1 12  1  0  0  0  0
  4  5  2  0  0  0  0
  5 12  1  0  0  0  0
  5 16  1  0  0  0  0
  6  8  1  0  0  0  0
  7 17  1  6  0  0  0
  7  6  1  0  0  0  0
  8  3  2  0  0  0  0
  9 10  1  0  0  0  0
  9  2  2  0  0  0  0
 11  1  1  0  0  0  0
 12 14  2  0  0  0  0
 13 11  2  0  0  0  0
 13  4  1  0  0  0  0
 14  3  1  0  0  0  0
 14 10  1  0  0  0  0
 15 11  1  0  0  0  0
 15  7  1  0  0  0  0
 16  9  1  0  0  0  0
 18 17  1  0  0  0  0
 19 20  1  0  0  0  0
 20 18  1  6  0  0  0
 21 23  1  0  0  0  0
 22 25  1  6  0  0  0
 22 21  1  0  0  0  0
 22 19  1  0  0  0  0
 23 20  1  0  0  0  0
 25 24  1  0  0  0  0
M  END
>  <MODEL>
9

>  <REMARK>
 VINA RESULT:      -8.1      3.849      8.246
  Name = 
  4 active torsions:
  status: ('A' for Active; 'I' for Inactive)
    1  A    between atoms: N_7  and  C_11
    2  A    between atoms: N_7  and  C_20
    3  A    between atoms: C_8  and  C_20
    4  A    between atoms: C_16  and  C_24
                            x       y       z     vdW  Elec       q    Type
                         _______ _______ _______ _____ _____    ______ ____

>  <TORSDO>
F 4

$$$$
