=
 OpenBabel11042421093D

 28 31  0  0  1  0  0  0  0  0999 V2000
  160.6400  201.9280  149.7660 S   0  0  1  0  0  0  0  0  0  0  0  0
  160.5880  203.5860  151.8100 O   0  0  0  0  0  0  0  0  0  0  0  0
  160.5470  203.5120  149.0110 N   0  0  0  0  0  0  0  0  0  0  0  0
  161.3370  204.5290  151.0860 C   0  0  1  0  0  3  0  0  0  0  0  0
  160.8100  205.8630  148.9800 N   0  0  0  0  0  2  0  0  0  0  0  0
  160.8600  204.6000  149.6510 C   0  0  0  0  0  0  0  0  0  0  0  0
  161.9240  201.3440  149.1930 O   0  0  0  0  0  0  0  0  0  0  0  0
  161.1100  202.3310  151.4650 C   0  0  0  0  0  2  0  0  0  0  0  0
  160.6410  209.4120  156.6240 S   0  0  0  0  0  0  0  0  0  0  0  0
  161.8730  208.3800  151.8480 C   0  0  0  0  0  3  0  0  0  0  0  0
  160.8790  207.1970  153.7130 C   0  0  0  0  0  0  0  0  0  0  0  0
  161.2850  205.8610  151.7670 C   0  0  0  0  0  0  0  0  0  0  0  0
  160.8500  205.9070  153.0360 C   0  0  0  0  0  3  0  0  0  0  0  0
  160.0810  207.8780  157.1490 C   0  0  0  0  0  3  0  0  0  0  0  0
  160.9270  208.8850  155.0690 C   0  0  0  0  0  0  0  0  0  0  0  0
  161.4090  208.3860  153.0930 C   0  0  0  0  0  0  0  0  0  0  0  0
  160.1290  206.9540  156.0870 C   0  0  0  0  0  3  0  0  0  0  0  0
  161.7910  207.1050  151.0230 C   0  0  0  0  0  3  0  0  0  0  0  0
  161.4260  209.4740  154.0260 N   0  0  0  0  0  0  0  0  0  0  0  0
  160.6090  207.5750  154.9380 C   0  0  2  0  0  3  0  0  0  0  0  0
  160.4560  206.0130  147.5780 C   0  0  0  0  0  2  0  0  0  0  0  0
  161.6970  206.1750  146.7670 C   0  0  0  0  0  0  0  0  0  0  0  0
  162.5950  206.8940  147.1730 O   0  0  0  0  0  0  0  0  0  0  0  0
  161.8330  205.4730  145.4540 C   0  0  0  0  0  2  0  0  0  0  0  0
  162.1270  204.0000  145.6790 C   0  0  0  0  0  2  0  0  0  0  0  0
  160.9510  203.1840  145.2790 C   0  0  0  0  0  0  0  0  0  0  0  0
  160.0810  203.6670  144.5080 O   0  0  0  0  0  0  0  0  0  0  0  0
  160.8280  201.8760  145.7270 O   0  0  0  0  0  1  0  0  0  0  0  0
  1  7  2  6  0  0  0
  1  8  1  0  0  0  0
  3  6  2  0  0  0  0
  3  1  1  0  0  0  0
  4 12  1  1  0  0  0
  4  2  1  0  0  0  0
  5  6  1  0  0  0  0
  6  4  1  0  0  0  0
  8  2  1  0  0  0  0
  9 14  1  0  0  0  0
 10 16  1  0  0  0  0
 11 20  1  0  0  0  0
 12 13  2  0  0  0  0
 13 11  1  0  0  0  0
 15  9  1  0  0  0  0
 16 11  2  0  0  0  0
 16 19  1  0  0  0  0
 17 14  2  0  0  0  0
 18 12  1  0  0  0  0
 18 10  2  0  0  0  0
 19 15  2  0  0  0  0
 20 15  1  0  0  0  0
 20 17  1  1  0  0  0
 21  5  1  0  0  0  0
 22 23  2  0  0  0  0
 22 21  1  0  0  0  0
 24 25  1  0  0  0  0
 24 22  1  0  0  0  0
 26 25  1  0  0  0  0
 26 28  1  0  0  0  0
 27 26  2  0  0  0  0
M  END
>  <MODEL>
1

>  <REMARK>
 VINA RESULT:      -8.3      0.000      0.000
  Name = 
  6 active torsions:
  status: ('A' for Active; 'I' for Inactive)
    1  A    between atoms: C_1  and  C_21
    2  A    between atoms: C_1  and  C_24
    3  A    between atoms: C_6  and  C_15
    4  A    between atoms: C_9  and  C_13
    5  A    between atoms: C_15  and  C_21
    6  A    between atoms: N_18  and  C_24
                            x       y       z     vdW  Elec       q    Type
                         _______ _______ _______ _____ _____    ______ ____

>  <TORSDO>
F 6

$$$$
=
 OpenBabel11042421093D

 28 31  0  0  1  0  0  0  0  0999 V2000
  161.9980  206.2130  147.3050 S   0  0  1  0  0  0  0  0  0  0  0  0
  162.5320  207.5710  149.4970 O   0  0  0  0  0  0  0  0  0  0  0  0
  161.2610  205.2510  148.5780 N   0  0  0  0  0  0  0  0  0  0  0  0
  161.2940  207.2000  150.0480 C   0  0  1  0  0  3  0  0  0  0  0  0
  160.3500  204.9360  150.7390 N   0  0  0  0  0  2  0  0  0  0  0  0
  160.9900  205.7470  149.7490 C   0  0  0  0  0  0  0  0  0  0  0  0
  160.8270  206.5310  146.3870 O   0  0  0  0  0  0  0  0  0  0  0  0
  162.2960  207.7920  148.1330 C   0  0  0  0  0  2  0  0  0  0  0  0
  159.7130  210.7970  156.3380 S   0  0  0  0  0  0  0  0  0  0  0  0
  161.4800  206.7110  153.9760 C   0  0  0  0  0  3  0  0  0  0  0  0
  160.7340  208.9300  153.3530 C   0  0  0  0  0  0  0  0  0  0  0  0
  161.2760  207.4910  151.5170 C   0  0  0  0  0  0  0  0  0  0  0  0
  160.8220  208.6890  151.9190 C   0  0  0  0  0  3  0  0  0  0  0  0
  159.3800  211.8200  155.0030 C   0  0  0  0  0  3  0  0  0  0  0  0
  160.3210  209.5770  155.3780 C   0  0  0  0  0  0  0  0  0  0  0  0
  161.0530  207.9190  154.3300 C   0  0  1  0  0  3  0  0  0  0  0  0
  159.7500  211.1860  153.8010 C   0  0  0  0  0  3  0  0  0  0  0  0
  161.7030  206.3970  152.5050 C   0  0  0  0  0  3  0  0  0  0  0  0
  160.7600  208.3880  155.6530 N   0  0  0  0  0  0  0  0  0  0  0  0
  160.2780  209.9270  154.0710 C   0  0  0  0  0  0  0  0  0  0  0  0
  159.9380  203.5620  150.5050 C   0  0  0  0  0  2  0  0  0  0  0  0
  161.0300  202.6380  150.9280 C   0  0  0  0  0  0  0  0  0  0  0  0
  161.7300  202.9260  151.8850 O   0  0  0  0  0  0  0  0  0  0  0  0
  161.2780  201.3720  150.1720 C   0  0  0  0  0  2  0  0  0  0  0  0
  160.2860  201.2470  149.0280 C   0  0  0  0  0  2  0  0  0  0  0  0
  161.0160  201.1350  147.7370 C   0  0  0  0  0  0  0  0  0  0  0  0
  161.5780  200.0540  147.4230 O   0  0  0  0  0  1  0  0  0  0  0  0
  161.0480  202.2120  146.8620 O   0  0  0  0  0  0  0  0  0  0  0  0
  1  7  2  6  0  0  0
  1  8  1  0  0  0  0
  1  3  1  0  0  0  0
  2  4  1  0  0  0  0
  3  6  2  0  0  0  0
  4 12  1  1  0  0  0
  6  4  1  0  0  0  0
  6  5  1  0  0  0  0
  8  2  1  0  0  0  0
 11 20  2  0  0  0  0
 11 16  1  0  0  0  0
 12 13  2  0  0  0  0
 12 18  1  0  0  0  0
 13 11  1  0  0  0  0
 14  9  1  0  0  0  0
 15 19  2  0  0  0  0
 15  9  1  0  0  0  0
 16 10  1  6  0  0  0
 16 19  1  0  0  0  0
 17 20  1  0  0  0  0
 17 14  2  0  0  0  0
 18 10  2  0  0  0  0
 20 15  1  0  0  0  0
 21  5  1  0  0  0  0
 21 22  1  0  0  0  0
 22 23  2  0  0  0  0
 24 22  1  0  0  0  0
 25 24  1  0  0  0  0
 26 25  1  0  0  0  0
 27 26  1  0  0  0  0
 28 26  2  0  0  0  0
M  END
>  <MODEL>
2

>  <REMARK>
 VINA RESULT:      -8.2      2.140      3.841
  Name = 
  6 active torsions:
  status: ('A' for Active; 'I' for Inactive)
    1  A    between atoms: C_1  and  C_21
    2  A    between atoms: C_1  and  C_24
    3  A    between atoms: C_6  and  C_15
    4  A    between atoms: C_9  and  C_13
    5  A    between atoms: C_15  and  C_21
    6  A    between atoms: N_18  and  C_24
                            x       y       z     vdW  Elec       q    Type
                         _______ _______ _______ _____ _____    ______ ____

>  <TORSDO>
F 6

$$$$
=
 OpenBabel11042421093D

 28 31  0  0  1  0  0  0  0  0999 V2000
  161.2080  208.8750  154.9640 S   0  0  1  0  0  0  0  0  0  0  0  0
  161.2490  206.4510  153.9390 O   0  0  0  0  0  0  0  0  0  0  0  0
  161.5670  209.1500  153.2660 N   0  0  0  0  0  0  0  0  0  0  0  0
  160.6970  206.9300  152.7390 C   0  0  1  0  0  3  0  0  0  0  0  0
  161.5930  208.5410  150.9800 N   0  0  0  0  0  2  0  0  0  0  0  0
  161.3240  208.2540  152.3550 C   0  0  0  0  0  0  0  0  0  0  0  0
  159.9280  209.6710  155.1820 O   0  0  0  0  0  0  0  0  0  0  0  0
  160.6190  207.1660  154.9670 C   0  0  0  0  0  2  0  0  0  0  0  0
  161.5520  204.2050  145.8950 S   0  0  0  0  0  0  0  0  0  0  0  0
  161.4470  203.5100  150.8850 C   0  0  0  0  0  3  0  0  0  0  0  0
  160.9820  205.3170  149.3420 C   0  0  0  0  0  0  0  0  0  0  0  0
  160.8390  205.9030  151.6590 C   0  0  0  0  0  0  0  0  0  0  0  0
  160.7620  206.3120  150.3830 C   0  0  0  0  0  3  0  0  0  0  0  0
  161.1430  205.8680  145.7950 C   0  0  0  0  0  3  0  0  0  0  0  0
  161.4060  204.1680  147.5550 C   0  0  0  0  0  0  0  0  0  0  0  0
  161.3350  203.9510  149.6370 C   0  0  0  0  0  0  0  0  0  0  0  0
  160.8970  206.3860  147.0820 C   0  0  0  0  0  3  0  0  0  0  0  0
  161.1360  204.4460  152.0420 C   0  0  0  0  0  2  0  0  0  0  0  0
  161.6100  203.2300  148.4280 N   0  0  0  0  0  0  0  0  0  0  0  0
  161.0540  205.3850  148.0350 C   0  0  0  0  0  0  0  0  0  0  0  0
  162.1050  209.8190  150.5130 C   0  0  0  0  0  2  0  0  0  0  0  0
  162.1310  209.8270  149.0210 C   0  0  0  0  0  0  0  0  0  0  0  0
  162.4790  208.8260  148.4160 O   0  0  0  0  0  0  0  0  0  0  0  0
  161.7500  211.0630  148.2700 C   0  0  0  0  0  2  0  0  0  0  0  0
  162.8840  212.0720  148.3200 C   0  0  0  0  0  2  0  0  0  0  0  0
  162.6010  213.1960  147.3890 C   0  0  0  0  0  0  0  0  0  0  0  0
  162.8740  214.3770  147.7260 O   0  0  0  0  0  1  0  0  0  0  0  0
  162.0660  212.9410  146.1340 O   0  0  0  0  0  0  0  0  0  0  0  0
  1  8  1  0  0  0  0
  1  7  2  6  0  0  0
  2  8  1  0  0  0  0
  3  1  1  0  0  0  0
  4 12  1  6  0  0  0
  4  2  1  0  0  0  0
  5  6  1  0  0  0  0
  6  4  1  0  0  0  0
  6  3  2  0  0  0  0
  9 15  1  0  0  0  0
 10 18  1  0  0  0  0
 11 16  1  0  0  0  0
 11 13  1  0  0  0  0
 12 18  1  0  0  0  0
 13 12  2  0  0  0  0
 14  9  1  0  0  0  0
 14 17  2  0  0  0  0
 15 20  1  0  0  0  0
 15 19  2  0  0  0  0
 16 10  2  0  0  0  0
 17 20  1  0  0  0  0
 19 16  1  0  0  0  0
 20 11  2  0  0  0  0
 21  5  1  0  0  0  0
 22 21  1  0  0  0  0
 23 22  2  0  0  0  0
 24 25  1  0  0  0  0
 24 22  1  0  0  0  0
 26 27  1  0  0  0  0
 26 25  1  0  0  0  0
 28 26  2  0  0  0  0
M  END
>  <MODEL>
3

>  <REMARK>
 VINA RESULT:      -8.2      3.365      7.340
  Name = 
  6 active torsions:
  status: ('A' for Active; 'I' for Inactive)
    1  A    between atoms: C_1  and  C_21
    2  A    between atoms: C_1  and  C_24
    3  A    between atoms: C_6  and  C_15
    4  A    between atoms: C_9  and  C_13
    5  A    between atoms: C_15  and  C_21
    6  A    between atoms: N_18  and  C_24
                            x       y       z     vdW  Elec       q    Type
                         _______ _______ _______ _____ _____    ______ ____

>  <TORSDO>
F 6

$$$$
=
 OpenBabel11042421093D

 28 31  0  0  1  0  0  0  0  0999 V2000
  161.1910  208.7620  154.9830 S   0  0  1  0  0  0  0  0  0  0  0  0
  161.3600  206.5790  153.5220 O   0  0  0  0  0  0  0  0  0  0  0  0
  161.5370  209.3690  153.3710 N   0  0  0  0  0  0  0  0  0  0  0  0
  160.7850  207.2450  152.4280 C   0  0  1  0  0  3  0  0  0  0  0  0
  161.5970  209.2020  151.0110 N   0  0  0  0  0  2  0  0  0  0  0  0
  161.3420  208.6490  152.3060 C   0  0  0  0  0  0  0  0  0  0  0  0
  159.8710  209.4350  155.3330 O   0  0  0  0  0  0  0  0  0  0  0  0
  160.6920  207.0550  154.6590 C   0  0  0  0  0  2  0  0  0  0  0  0
  161.0010  201.2840  148.0210 S   0  0  0  0  0  0  0  0  0  0  0  0
  161.1090  206.2890  148.5960 C   0  0  0  0  0  3  0  0  0  0  0  0
  161.0990  204.3440  150.0390 C   0  0  0  0  0  0  0  0  0  0  0  0
  160.9810  206.4480  151.1760 C   0  0  0  0  0  0  0  0  0  0  0  0
  160.9880  205.1090  151.2730 C   0  0  0  0  0  3  0  0  0  0  0  0
  160.9250  200.7750  149.6580 C   0  0  0  0  0  3  0  0  0  0  0  0
  161.0890  202.8990  148.4250 C   0  0  0  0  0  0  0  0  0  0  0  0
  161.1390  204.9690  148.7400 C   0  0  0  0  0  0  0  0  0  0  0  0
  160.9640  201.8920  150.5150 C   0  0  0  0  0  3  0  0  0  0  0  0
  161.0960  207.1780  149.8300 C   0  0  0  0  0  2  0  0  0  0  0  0
  161.1260  203.9770  147.7040 N   0  0  0  0  0  0  0  0  0  0  0  0
  161.0610  203.0620  149.7690 C   0  0  0  0  0  0  0  0  0  0  0  0
  162.0410  210.5690  150.7970 C   0  0  0  0  0  2  0  0  0  0  0  0
  162.0110  210.8780  149.3380 C   0  0  0  0  0  0  0  0  0  0  0  0
  162.1980  209.9860  148.5270 O   0  0  0  0  0  0  0  0  0  0  0  0
  161.7720  212.2780  148.8710 C   0  0  0  0  0  2  0  0  0  0  0  0
  162.7740  212.6440  147.7900 C   0  0  0  0  0  2  0  0  0  0  0  0
  162.0570  213.0740  146.5610 C   0  0  0  0  0  0  0  0  0  0  0  0
  160.9320  212.5840  146.2840 O   0  0  0  0  0  1  0  0  0  0  0  0
  162.6120  214.0420  145.7350 O   0  0  0  0  0  0  0  0  0  0  0  0
  1  7  2  6  0  0  0
  2  8  1  0  0  0  0
  3  1  1  0  0  0  0
  4 12  1  6  0  0  0
  4  2  1  0  0  0  0
  5  6  1  0  0  0  0
  6  4  1  0  0  0  0
  6  3  2  0  0  0  0
  8  1  1  0  0  0  0
  9 15  1  0  0  0  0
  9 14  1  0  0  0  0
 10 16  2  0  0  0  0
 10 18  1  0  0  0  0
 11 13  1  0  0  0  0
 12 13  2  0  0  0  0
 14 17  2  0  0  0  0
 15 20  1  0  0  0  0
 16 11  1  0  0  0  0
 18 12  1  0  0  0  0
 19 15  2  0  0  0  0
 19 16  1  0  0  0  0
 20 11  2  0  0  0  0
 20 17  1  0  0  0  0
 21  5  1  0  0  0  0
 22 21  1  0  0  0  0
 23 22  2  0  0  0  0
 24 22  1  0  0  0  0
 25 24  1  0  0  0  0
 26 25  1  0  0  0  0
 27 26  1  0  0  0  0
 28 26  2  0  0  0  0
M  END
>  <MODEL>
4

>  <REMARK>
 VINA RESULT:      -8.1      3.419      7.206
  Name = 
  6 active torsions:
  status: ('A' for Active; 'I' for Inactive)
    1  A    between atoms: C_1  and  C_21
    2  A    between atoms: C_1  and  C_24
    3  A    between atoms: C_6  and  C_15
    4  A    between atoms: C_9  and  C_13
    5  A    between atoms: C_15  and  C_21
    6  A    between atoms: N_18  and  C_24
                            x       y       z     vdW  Elec       q    Type
                         _______ _______ _______ _____ _____    ______ ____

>  <TORSDO>
F 6

$$$$
=
 OpenBabel11042421093D

 28 31  0  0  1  0  0  0  0  0999 V2000
  160.6070  201.4800  149.1410 S   0  0  1  0  0  0  0  0  0  0  0  0
  160.5610  202.7130  151.4660 O   0  0  0  0  0  0  0  0  0  0  0  0
  160.5900  203.1820  148.7060 N   0  0  0  0  0  0  0  0  0  0  0  0
  161.3610  203.7480  150.9530 C   0  0  1  0  0  3  0  0  0  0  0  0
  160.9360  205.4830  149.1360 N   0  0  0  0  0  2  0  0  0  0  0  0
  160.9240  204.1130  149.5500 C   0  0  0  0  0  0  0  0  0  0  0  0
  161.8840  200.9670  148.4900 O   0  0  0  0  0  0  0  0  0  0  0  0
  161.0470  201.5290  150.8940 C   0  0  0  0  0  2  0  0  0  0  0  0
  161.1770  210.8610  153.0430 S   0  0  0  0  0  0  0  0  0  0  0  0
  160.8570  205.9660  154.1970 C   0  0  0  0  0  3  0  0  0  0  0  0
  161.4150  207.2900  152.2470 C   0  0  0  0  0  0  0  0  0  0  0  0
  161.3390  204.9250  151.8770 C   0  0  0  0  0  0  0  0  0  0  0  0
  161.5190  206.1470  151.3510 C   0  0  0  0  0  3  0  0  0  0  0  0
  161.5560  210.7720  151.3720 C   0  0  0  0  0  3  0  0  0  0  0  0
  161.1770  209.2040  153.2310 C   0  0  0  0  0  0  0  0  0  0  0  0
  161.0690  207.1530  153.6400 C   0  0  1  0  0  3  0  0  0  0  0  0
  161.6750  209.4260  150.9730 C   0  0  0  0  0  3  0  0  0  0  0  0
  161.0420  204.7050  153.3680 C   0  0  0  0  0  3  0  0  0  0  0  0
  160.9180  208.4430  154.2490 N   0  0  0  0  0  0  0  0  0  0  0  0
  161.4570  208.5860  152.0600 C   0  0  0  0  0  0  0  0  0  0  0  0
  160.6230  205.9140  147.7830 C   0  0  0  0  0  2  0  0  0  0  0  0
  161.8740  206.3610  147.1040 C   0  0  0  0  0  0  0  0  0  0  0  0
  162.6080  207.1650  147.6550 O   0  0  0  0  0  0  0  0  0  0  0  0
  162.2170  205.8420  145.7440 C   0  0  0  0  0  2  0  0  0  0  0  0
  162.3840  204.3330  145.7910 C   0  0  0  0  0  2  0  0  0  0  0  0
  161.2050  203.6740  145.1700 C   0  0  0  0  0  0  0  0  0  0  0  0
  160.4820  204.3100  144.3600 O   0  0  0  0  0  0  0  0  0  0  0  0
  160.9190  202.3470  145.4580 O   0  0  0  0  0  1  0  0  0  0  0  0
  1  7  2  6  0  0  0
  1  8  1  0  0  0  0
  3  1  1  0  0  0  0
  3  6  2  0  0  0  0
  4  2  1  0  0  0  0
  4 12  1  1  0  0  0
  5  6  1  0  0  0  0
  6  4  1  0  0  0  0
  8  2  1  0  0  0  0
  9 15  1  0  0  0  0
 11 16  1  0  0  0  0
 12 18  1  0  0  0  0
 13 12  2  0  0  0  0
 13 11  1  0  0  0  0
 14  9  1  0  0  0  0
 15 19  2  0  0  0  0
 16 10  1  6  0  0  0
 16 19  1  0  0  0  0
 17 14  2  0  0  0  0
 17 20  1  0  0  0  0
 18 10  2  0  0  0  0
 20 11  2  0  0  0  0
 20 15  1  0  0  0  0
 21  5  1  0  0  0  0
 22 23  2  0  0  0  0
 22 21  1  0  0  0  0
 24 25  1  0  0  0  0
 24 22  1  0  0  0  0
 26 28  1  0  0  0  0
 26 25  1  0  0  0  0
 27 26  2  0  0  0  0
M  END
>  <MODEL>
5

>  <REMARK>
 VINA RESULT:      -8.0      1.346      2.301
  Name = 
  6 active torsions:
  status: ('A' for Active; 'I' for Inactive)
    1  A    between atoms: C_1  and  C_21
    2  A    between atoms: C_1  and  C_24
    3  A    between atoms: C_6  and  C_15
    4  A    between atoms: C_9  and  C_13
    5  A    between atoms: C_15  and  C_21
    6  A    between atoms: N_18  and  C_24
                            x       y       z     vdW  Elec       q    Type
                         _______ _______ _______ _____ _____    ______ ____

>  <TORSDO>
F 6

$$$$
=
 OpenBabel11042421093D

 28 31  0  0  1  0  0  0  0  0999 V2000
  161.7720  205.7960  146.7490 S   0  0  1  0  0  0  0  0  0  0  0  0
  162.4430  206.9590  149.0130 O   0  0  0  0  0  0  0  0  0  0  0  0
  161.0950  204.7360  147.9760 N   0  0  0  0  0  0  0  0  0  0  0  0
  161.2340  206.5540  149.6000 C   0  0  1  0  0  3  0  0  0  0  0  0
  160.3010  204.2470  150.1500 N   0  0  0  0  0  2  0  0  0  0  0  0
  160.8950  205.1330  149.1980 C   0  0  0  0  0  0  0  0  0  0  0  0
  160.5550  206.2000  145.9280 O   0  0  0  0  0  0  0  0  0  0  0  0
  162.1350  207.2970  147.6870 C   0  0  0  0  0  2  0  0  0  0  0  0
  160.4520  209.8310  156.2070 S   0  0  0  0  0  0  0  0  0  0  0  0
  161.4230  205.7140  153.4680 C   0  0  0  0  0  3  0  0  0  0  0  0
  161.0620  208.0720  153.0480 C   0  0  0  0  0  0  0  0  0  0  0  0
  161.3010  206.7200  151.0870 C   0  0  0  0  0  0  0  0  0  0  0  0
  161.0730  207.9400  151.5980 C   0  0  0  0  0  3  0  0  0  0  0  0
  160.2720  211.0040  154.9690 C   0  0  0  0  0  3  0  0  0  0  0  0
  160.8150  208.6090  155.1320 C   0  0  0  0  0  0  0  0  0  0  0  0
  161.2210  206.9430  153.9310 C   0  0  1  0  0  3  0  0  0  0  0  0
  160.4970  210.4180  153.7080 C   0  0  0  0  0  3  0  0  0  0  0  0
  161.5530  205.4890  151.9700 C   0  0  0  0  0  3  0  0  0  0  0  0
  161.0460  207.3430  155.2960 N   0  0  0  0  0  0  0  0  0  0  0  0
  160.8030  209.0690  153.8590 C   0  0  0  0  0  0  0  0  0  0  0  0
  159.8580  202.9010  149.8260 C   0  0  0  0  0  2  0  0  0  0  0  0
  160.9920  201.9490  150.0080 C   0  0  0  0  0  0  0  0  0  0  0  0
  161.5510  201.8740  151.0910 O   0  0  0  0  0  0  0  0  0  0  0  0
  161.4550  201.1040  148.8650 C   0  0  0  0  0  2  0  0  0  0  0  0
  160.8250  201.5890  147.5710 C   0  0  0  0  0  2  0  0  0  0  0  0
  160.9880  200.5580  146.5120 C   0  0  0  0  0  0  0  0  0  0  0  0
  161.5790  199.4780  146.7700 O   0  0  0  0  0  1  0  0  0  0  0  0
  160.4570  200.7720  145.2480 O   0  0  0  0  0  0  0  0  0  0  0  0
  1  7  2  6  0  0  0
  1  8  1  0  0  0  0
  1  3  1  0  0  0  0
  2  4  1  0  0  0  0
  3  6  2  0  0  0  0
  4 12  1  1  0  0  0
  6  4  1  0  0  0  0
  6  5  1  0  0  0  0
  8  2  1  0  0  0  0
 11 20  2  0  0  0  0
 11 16  1  0  0  0  0
 12 13  2  0  0  0  0
 12 18  1  0  0  0  0
 13 11  1  0  0  0  0
 14  9  1  0  0  0  0
 15 19  2  0  0  0  0
 15  9  1  0  0  0  0
 16 10  1  6  0  0  0
 16 19  1  0  0  0  0
 17 20  1  0  0  0  0
 17 14  2  0  0  0  0
 18 10  2  0  0  0  0
 20 15  1  0  0  0  0
 21 22  1  0  0  0  0
 21  5  1  0  0  0  0
 22 23  2  0  0  0  0
 24 22  1  0  0  0  0
 25 24  1  0  0  0  0
 26 27  1  0  0  0  0
 26 25  1  0  0  0  0
 28 26  2  0  0  0  0
M  END
>  <MODEL>
6

>  <REMARK>
 VINA RESULT:      -7.7      1.974      3.626
  Name = 
  6 active torsions:
  status: ('A' for Active; 'I' for Inactive)
    1  A    between atoms: C_1  and  C_21
    2  A    between atoms: C_1  and  C_24
    3  A    between atoms: C_6  and  C_15
    4  A    between atoms: C_9  and  C_13
    5  A    between atoms: C_15  and  C_21
    6  A    between atoms: N_18  and  C_24
                            x       y       z     vdW  Elec       q    Type
                         _______ _______ _______ _____ _____    ______ ____

>  <TORSDO>
F 6

$$$$
=
 OpenBabel11042421093D

 28 31  0  0  1  0  0  0  0  0999 V2000
  161.2440  205.4870  146.6640 S   0  0  1  0  0  0  0  0  0  0  0  0
  160.7030  205.0380  149.2010 O   0  0  0  0  0  0  0  0  0  0  0  0
  161.4890  207.0530  147.4230 N   0  0  0  0  0  0  0  0  0  0  0  0
  161.6960  205.9510  149.5920 C   0  0  1  0  0  3  0  0  0  0  0  0
  161.9110  208.4700  149.2700 N   0  0  0  0  0  2  0  0  0  0  0  0
  161.6720  207.1780  148.7040 C   0  0  0  0  0  0  0  0  0  0  0  0
  162.5960  205.1920  146.0310 O   0  0  0  0  0  0  0  0  0  0  0  0
  161.2150  204.3660  148.0820 C   0  0  0  0  0  2  0  0  0  0  0  0
  159.8590  209.9670  155.5510 S   0  0  0  0  0  0  0  0  0  0  0  0
  161.3280  205.5940  153.5210 C   0  0  0  0  0  3  0  0  0  0  0  0
  160.9760  207.8660  152.7610 C   0  0  0  0  0  0  0  0  0  0  0  0
  161.5370  206.2980  151.0400 C   0  0  0  0  0  0  0  0  0  0  0  0
  161.2060  207.5610  151.3560 C   0  0  0  0  0  3  0  0  0  0  0  0
  159.8380  210.9730  154.1620 C   0  0  0  0  0  3  0  0  0  0  0  0
  160.4080  208.6410  154.7020 C   0  0  0  0  0  0  0  0  0  0  0  0
  161.0300  206.8600  153.7920 C   0  0  1  0  0  3  0  0  0  0  0  0
  160.2630  210.2490  153.0310 C   0  0  0  0  0  3  0  0  0  0  0  0
  161.6850  205.1960  152.0980 C   0  0  0  0  0  3  0  0  0  0  0  0
  160.6430  207.4150  155.0560 N   0  0  0  0  0  0  0  0  0  0  0  0
  160.5750  208.9420  153.3930 C   0  0  0  0  0  0  0  0  0  0  0  0
  162.0000  209.6870  148.4800 C   0  0  0  0  0  2  0  0  0  0  0  0
  162.0600  210.8660  149.3910 C   0  0  0  0  0  0  0  0  0  0  0  0
  162.3500  210.7090  150.5660 O   0  0  0  0  0  0  0  0  0  0  0  0
  161.7470  212.2330  148.8730 C   0  0  0  0  0  2  0  0  0  0  0  0
  162.7610  212.6330  147.8150 C   0  0  0  0  0  2  0  0  0  0  0  0
  162.0650  212.9370  146.5370 C   0  0  0  0  0  0  0  0  0  0  0  0
  162.6740  213.5380  145.6150 O   0  0  0  0  0  0  0  0  0  0  0  0
  160.7520  212.5270  146.3470 O   0  0  0  0  0  1  0  0  0  0  0  0
  1  7  2  6  0  0  0
  1  3  1  0  0  0  0
  1  8  1  0  0  0  0
  2  4  1  0  0  0  0
  3  6  2  0  0  0  0
  4 12  1  1  0  0  0
  6  5  1  0  0  0  0
  6  4  1  0  0  0  0
  8  2  1  0  0  0  0
 11 20  2  0  0  0  0
 11 16  1  0  0  0  0
 12 13  2  0  0  0  0
 12 18  1  0  0  0  0
 13 11  1  0  0  0  0
 14  9  1  0  0  0  0
 15 19  2  0  0  0  0
 15  9  1  0  0  0  0
 16 10  1  6  0  0  0
 16 19  1  0  0  0  0
 17 20  1  0  0  0  0
 17 14  2  0  0  0  0
 18 10  2  0  0  0  0
 20 15  1  0  0  0  0
 21  5  1  0  0  0  0
 21 22  1  0  0  0  0
 22 23  2  0  0  0  0
 24 22  1  0  0  0  0
 25 24  1  0  0  0  0
 26 25  1  0  0  0  0
 27 26  2  0  0  0  0
 28 26  1  0  0  0  0
M  END
>  <MODEL>
7

>  <REMARK>
 VINA RESULT:      -7.5      3.381      5.046
  Name = 
  6 active torsions:
  status: ('A' for Active; 'I' for Inactive)
    1  A    between atoms: C_1  and  C_21
    2  A    between atoms: C_1  and  C_24
    3  A    between atoms: C_6  and  C_15
    4  A    between atoms: C_9  and  C_13
    5  A    between atoms: C_15  and  C_21
    6  A    between atoms: N_18  and  C_24
                            x       y       z     vdW  Elec       q    Type
                         _______ _______ _______ _____ _____    ______ ____

>  <TORSDO>
F 6

$$$$
=
 OpenBabel11042421093D

 28 31  0  0  1  0  0  0  0  0999 V2000
  161.8510  206.3910  147.2910 S   0  0  1  0  0  0  0  0  0  0  0  0
  161.9300  208.4480  148.9310 O   0  0  0  0  0  0  0  0  0  0  0  0
  161.9900  205.6490  148.8780 N   0  0  0  0  0  0  0  0  0  0  0  0
  161.2110  207.7260  149.8990 C   0  0  1  0  0  3  0  0  0  0  0  0
  161.7880  205.6350  151.2350 N   0  0  0  0  0  2  0  0  0  0  0  0
  161.7010  206.2950  149.9690 C   0  0  0  0  0  0  0  0  0  0  0  0
  160.5570  205.8040  146.7450 O   0  0  0  0  0  0  0  0  0  0  0  0
  161.3790  208.0890  147.6930 C   0  0  0  0  0  2  0  0  0  0  0  0
  160.8760  208.5670  157.2600 S   0  0  0  0  0  0  0  0  0  0  0  0
  162.1800  210.3310  152.7230 C   0  0  0  0  0  3  0  0  0  0  0  0
  160.9690  208.4250  153.5970 C   0  0  0  0  0  0  0  0  0  0  0  0
  161.2920  208.4170  151.2250 C   0  0  0  0  0  0  0  0  0  0  0  0
  160.8110  207.7770  152.3020 C   0  0  0  0  0  3  0  0  0  0  0  0
  160.1120  207.0950  156.8230 C   0  0  0  0  0  3  0  0  0  0  0  0
  161.1630  209.0020  155.6760 C   0  0  0  0  0  0  0  0  0  0  0  0
  161.6660  209.6770  153.7580 C   0  0  0  0  0  0  0  0  0  0  0  0
  160.0920  206.9550  155.4220 C   0  0  0  0  0  3  0  0  0  0  0  0
  161.9790  209.7880  151.3170 C   0  0  0  0  0  3  0  0  0  0  0  0
  161.7760  210.0160  155.1470 N   0  0  0  0  0  0  0  0  0  0  0  0
  160.6940  208.0590  154.8250 C   0  0  2  0  0  3  0  0  0  0  0  0
  162.1570  204.2370  151.3870 C   0  0  0  0  0  2  0  0  0  0  0  0
  160.9230  203.4010  151.4400 C   0  0  0  0  0  0  0  0  0  0  0  0
  160.4070  203.1510  152.5180 O   0  0  0  0  0  0  0  0  0  0  0  0
  160.3300  202.8550  150.1810 C   0  0  0  0  0  2  0  0  0  0  0  0
  160.9680  201.5190  149.8430 C   0  0  0  0  0  2  0  0  0  0  0  0
  161.1770  201.4160  148.3740 C   0  0  0  0  0  0  0  0  0  0  0  0
  161.0150  202.4270  147.6420 O   0  0  0  0  0  0  0  0  0  0  0  0
  161.5830  200.2130  147.8130 O   0  0  0  0  0  1  0  0  0  0  0  0
  1  7  2  6  0  0  0
  1  8  1  0  0  0  0
  1  3  1  0  0  0  0
  2  4  1  0  0  0  0
  3  6  2  0  0  0  0
  4  6  1  0  0  0  0
  4 12  1  1  0  0  0
  5 21  1  0  0  0  0
  6  5  1  0  0  0  0
  8  2  1  0  0  0  0
 10 16  1  0  0  0  0
 11 16  2  0  0  0  0
 11 20  1  0  0  0  0
 12 18  1  0  0  0  0
 12 13  2  0  0  0  0
 13 11  1  0  0  0  0
 14  9  1  0  0  0  0
 15  9  1  0  0  0  0
 16 19  1  0  0  0  0
 17 14  2  0  0  0  0
 18 10  2  0  0  0  0
 19 15  2  0  0  0  0
 20 17  1  1  0  0  0
 20 15  1  0  0  0  0
 21 22  1  0  0  0  0
 22 23  2  0  0  0  0
 24 22  1  0  0  0  0
 25 24  1  0  0  0  0
 26 25  1  0  0  0  0
 27 26  2  0  0  0  0
 28 26  1  0  0  0  0
M  END
>  <MODEL>
8

>  <REMARK>
 VINA RESULT:      -7.3      2.162      3.698
  Name = 
  6 active torsions:
  status: ('A' for Active; 'I' for Inactive)
    1  A    between atoms: C_1  and  C_21
    2  A    between atoms: C_1  and  C_24
    3  A    between atoms: C_6  and  C_15
    4  A    between atoms: C_9  and  C_13
    5  A    between atoms: C_15  and  C_21
    6  A    between atoms: N_18  and  C_24
                            x       y       z     vdW  Elec       q    Type
                         _______ _______ _______ _____ _____    ______ ____

>  <TORSDO>
F 6

$$$$
=
 OpenBabel11042421093D

 28 31  0  0  1  0  0  0  0  0999 V2000
  160.6500  201.7770  150.0520 S   0  0  1  0  0  0  0  0  0  0  0  0
  160.7590  203.8030  151.7300 O   0  0  0  0  0  0  0  0  0  0  0  0
  160.6260  203.1860  149.0020 N   0  0  0  0  0  0  0  0  0  0  0  0
  161.5390  204.5370  150.8200 C   0  0  1  0  0  3  0  0  0  0  0  0
  161.0240  205.4640  148.5030 N   0  0  0  0  0  2  0  0  0  0  0  0
  161.0210  204.3560  149.4080 C   0  0  0  0  0  0  0  0  0  0  0  0
  161.8790  201.0120  149.5810 O   0  0  0  0  0  0  0  0  0  0  0  0
  161.1960  202.4740  151.6280 C   0  0  0  0  0  2  0  0  0  0  0  0
  161.6450  211.9110  150.0390 S   0  0  0  0  0  0  0  0  0  0  0  0
  161.2220  207.8420  152.9820 C   0  0  0  0  0  3  0  0  0  0  0  0
  161.7460  208.2990  150.6620 C   0  0  0  0  0  0  0  0  0  0  0  0
  161.5860  205.9770  151.2250 C   0  0  0  0  0  0  0  0  0  0  0  0
  161.7830  206.8980  150.2680 C   0  0  0  0  0  3  0  0  0  0  0  0
  161.9570  211.1770  148.5210 C   0  0  0  0  0  3  0  0  0  0  0  0
  161.6030  210.4520  150.8460 C   0  0  0  0  0  0  0  0  0  0  0  0
  161.4490  208.7180  152.0100 C   0  0  0  0  0  0  0  0  0  0  0  0
  162.0220  209.7770  148.6630 C   0  0  0  0  0  3  0  0  0  0  0  0
  161.3390  206.3540  152.6930 C   0  0  0  0  0  2  0  0  0  0  0  0
  161.3590  210.1470  152.0840 N   0  0  0  0  0  0  0  0  0  0  0  0
  161.8200  209.4240  149.9930 C   0  0  0  0  0  0  0  0  0  0  0  0
  160.6350  205.3590  147.1060 C   0  0  0  0  0  2  0  0  0  0  0  0
  161.8250  204.9870  146.2870 C   0  0  0  0  0  0  0  0  0  0  0  0
  162.6540  205.8360  146.0040 O   0  0  0  0  0  0  0  0  0  0  0  0
  161.9900  203.5840  145.7960 C   0  0  0  0  0  2  0  0  0  0  0  0
  160.7350  203.1370  145.0680 C   0  0  0  0  0  2  0  0  0  0  0  0
  160.4540  201.7090  145.3770 C   0  0  0  0  0  0  0  0  0  0  0  0
  160.8960  201.1950  146.4370 O   0  0  0  0  0  1  0  0  0  0  0  0
  159.6750  200.9520  144.5130 O   0  0  0  0  0  0  0  0  0  0  0  0
  1  7  2  6  0  0  0
  1  8  1  0  0  0  0
  3  6  2  0  0  0  0
  3  1  1  0  0  0  0
  4 12  1  1  0  0  0
  4  2  1  0  0  0  0
  5  6  1  0  0  0  0
  6  4  1  0  0  0  0
  8  2  1  0  0  0  0
  9 15  1  0  0  0  0
 11 16  1  0  0  0  0
 12 18  1  0  0  0  0
 13 11  1  0  0  0  0
 13 12  2  0  0  0  0
 14 17  2  0  0  0  0
 14  9  1  0  0  0  0
 15 19  2  0  0  0  0
 16 19  1  0  0  0  0
 16 10  2  0  0  0  0
 17 20  1  0  0  0  0
 18 10  1  0  0  0  0
 20 11  2  0  0  0  0
 20 15  1  0  0  0  0
 21  5  1  0  0  0  0
 22 21  1  0  0  0  0
 23 22  2  0  0  0  0
 24 22  1  0  0  0  0
 25 26  1  0  0  0  0
 25 24  1  0  0  0  0
 26 27  1  0  0  0  0
 28 26  2  0  0  0  0
M  END
>  <MODEL>
9

>  <REMARK>
 VINA RESULT:      -7.1      2.019      3.370
  Name = 
  6 active torsions:
  status: ('A' for Active; 'I' for Inactive)
    1  A    between atoms: C_1  and  C_21
    2  A    between atoms: C_1  and  C_24
    3  A    between atoms: C_6  and  C_15
    4  A    between atoms: C_9  and  C_13
    5  A    between atoms: C_15  and  C_21
    6  A    between atoms: N_18  and  C_24
                            x       y       z     vdW  Elec       q    Type
                         _______ _______ _______ _____ _____    ______ ____

>  <TORSDO>
F 6

$$$$
