=
 OpenBabel11042420113D

 30 33  0  0  1  0  0  0  0  0999 V2000
  161.5810  208.7430  151.5640 C   0  0  0  0  0  0  0  0  0  0  0  0
  161.8190  208.4650  150.3110 N   0  0  0  0  0  0  0  0  0  0  0  0
  161.7990  210.4730  155.8300 C   0  0  0  0  0  1  0  0  0  0  0  0
  161.4700  210.1800  151.9780 C   0  0  1  0  0  3  0  0  0  0  0  0
  159.8170  210.6630  154.2910 C   0  0  0  0  0  0  0  0  0  0  0  0
  159.0150  210.7680  155.3010 N   0  0  0  0  0  2  0  0  0  0  0  0
  160.0360  210.6410  151.9070 C   0  0  0  0  0  3  0  0  0  0  0  0
  163.3270  210.4290  153.4600 O   0  0  0  0  0  0  0  0  0  0  0  0
  161.2260  210.4940  154.4900 N   0  0  0  0  0  0  0  0  0  0  0  0
  159.3020  210.8220  152.9650 N   0  0  0  0  0  0  0  0  0  0  0  0
  162.0740  210.3900  153.3380 C   0  0  0  0  0  0  0  0  0  0  0  0
  160.5020  205.0830  149.1160 C   0  0  1  0  0  3  0  0  0  0  0  0
  160.5150  206.4740  149.7690 C   0  0  0  0  0  2  0  0  0  0  0  0
  161.5270  203.6750  147.4440 O   0  0  0  0  0  1  0  0  0  0  0  0
  162.3940  207.2600  148.2760 C   0  0  0  0  0  2  0  0  0  0  0  0
  161.8940  207.1370  149.7200 C   0  0  1  0  0  3  0  0  0  0  0  0
  161.7400  204.7940  148.2510 C   0  0  1  0  0  3  0  0  0  0  0  0
  162.1460  206.0170  147.4090 C   0  0  1  0  0  3  0  0  0  0  0  0
  161.1100  206.3590  146.3400 C   0  0  0  0  0  2  0  0  0  0  0  0
  161.5220  205.8390  145.0010 C   0  0  0  0  0  3  0  0  0  0  0  0
  160.9390  204.8160  144.4950 N   0  0  0  0  0  2  0  0  0  0  0  0
  160.2410  203.9820  150.1410 C   0  0  0  0  0  2  0  0  0  0  0  0
  161.4030  203.8010  151.1040 C   0  0  0  0  0  3  0  0  0  0  0  0
  160.8810  203.2420  152.4100 C   0  0  0  0  0  2  0  0  0  0  0  0
  161.5640  202.3280  151.4160 C   0  0  0  0  0  2  0  0  0  0  0  0
  162.3030  206.7300  153.0070 C   0  0  0  0  0  3  0  0  0  0  0  0
  160.5130  206.6180  154.2040 N   0  0  0  0  0  0  0  0  0  0  0  0
  160.3530  207.6020  153.3730 O   0  0  0  0  0  0  0  0  0  0  0  0
  161.6980  206.0590  154.0080 N   0  0  0  0  0  0  0  0  0  0  0  0
  161.4150  207.7130  152.6140 C   0  0  0  0  0  0  0  0  0  0  0  0
  1 30  1  0  0  0  0
  2  1  2  0  0  0  0
  4  1  1  1  0  0  0
  4 11  1  0  0  0  0
  5  9  1  0  0  0  0
  5  6  2  0  0  0  0
  7  4  1  0  0  0  0
  7 10  2  0  0  0  0
  9  3  1  0  0  0  0
 10  5  1  0  0  0  0
 11  8  2  0  0  0  0
 11  9  1  0  0  0  0
 12 13  1  0  0  0  0
 12 22  1  1  0  0  0
 15 16  1  0  0  0  0
 16 13  1  0  0  0  0
 16  2  1  6  0  0  0
 17 14  1  6  0  0  0
 17 12  1  0  0  0  0
 18 19  1  6  0  0  0
 18 17  1  0  0  0  0
 18 15  1  0  0  0  0
 20 19  1  0  0  0  0
 21 20  2  0  0  0  0
 22 23  1  0  0  0  0
 23 25  1  0  0  0  0
 23 24  1  0  0  0  0
 25 24  1  0  0  0  0
 26 29  1  0  0  0  0
 28 27  1  0  0  0  0
 29 27  2  0  0  0  0
 30 26  2  0  0  0  0
 30 28  1  0  0  0  0
M  END
>  <MODEL>
1

>  <REMARK>
 VINA RESULT:      -6.8      0.000      0.000
  Name = 
  7 active torsions:
  status: ('A' for Active; 'I' for Inactive)
    1  A    between atoms: C_2  and  C_22
    2  A    between atoms: C_3  and  C_4
    3  A    between atoms: C_3  and  C_28
    4  A    between atoms: C_5  and  C_22
    5  A    between atoms: C_8  and  C_10
    6  A    between atoms: C_10  and  C_29
    7  A    between atoms: C_18  and  N_21
                            x       y       z     vdW  Elec       q    Type
                         _______ _______ _______ _____ _____    ______ ____

>  <TORSDO>
F 7

$$$$
=
 OpenBabel11042420113D

 30 33  0  0  1  0  0  0  0  0999 V2000
  162.0870  210.2270  149.7320 C   0  0  0  0  0  0  0  0  0  0  0  0
  162.2700  209.4120  148.7280 N   0  0  0  0  0  0  0  0  0  0  0  0
  158.7600  213.0690  148.2850 C   0  0  0  0  0  1  0  0  0  0  0  0
  162.1830  211.7040  149.4900 C   0  0  1  0  0  3  0  0  0  0  0  0
  160.9200  212.6330  147.0700 C   0  0  0  0  0  0  0  0  0  0  0  0
  160.3690  212.9300  145.9380 N   0  0  0  0  0  2  0  0  0  0  0  0
  162.9240  211.9830  148.2070 C   0  0  0  0  0  3  0  0  0  0  0  0
  160.2480  212.5320  150.6210 O   0  0  0  0  0  0  0  0  0  0  0  0
  160.1610  212.6660  148.2850 N   0  0  0  0  0  0  0  0  0  0  0  0
  162.3270  212.3720  147.1200 N   0  0  0  0  0  0  0  0  0  0  0  0
  160.8200  212.3360  149.5150 C   0  0  0  0  0  0  0  0  0  0  0  0
  160.5100  206.0500  149.1800 C   0  0  1  0  0  3  0  0  0  0  0  0
  160.7280  207.5710  149.1710 C   0  0  0  0  0  2  0  0  0  0  0  0
  161.2050  203.9470  148.2180 O   0  0  0  0  0  1  0  0  0  0  0  0
  162.5000  207.4000  147.3790 C   0  0  0  0  0  2  0  0  0  0  0  0
  162.1510  207.9610  148.7620 C   0  0  1  0  0  3  0  0  0  0  0  0
  161.6120  205.2620  148.4530 C   0  0  1  0  0  3  0  0  0  0  0  0
  162.0390  205.9530  147.1450 C   0  0  1  0  0  3  0  0  0  0  0  0
  160.9300  205.9510  146.0950 C   0  0  0  0  0  2  0  0  0  0  0  0
  161.3150  205.1380  144.9020 C   0  0  0  0  0  3  0  0  0  0  0  0
  160.8410  203.9580  144.7410 N   0  0  0  0  0  2  0  0  0  0  0  0
  160.2580  205.5260  150.5920 C   0  0  0  0  0  2  0  0  0  0  0  0
  161.5490  205.2030  151.3280 C   0  0  0  0  0  3  0  0  0  0  0  0
  161.2630  205.1100  152.8120 C   0  0  0  0  0  2  0  0  0  0  0  0
  161.4160  203.8490  151.9910 C   0  0  0  0  0  2  0  0  0  0  0  0
  162.4730  210.0580  152.2770 C   0  0  0  0  0  3  0  0  0  0  0  0
  160.7670  208.8150  152.7130 N   0  0  0  0  0  0  0  0  0  0  0  0
  160.7650  209.0250  151.4320 O   0  0  0  0  0  0  0  0  0  0  0  0
  161.8010  209.4330  153.2640 N   0  0  0  0  0  0  0  0  0  0  0  0
  161.7890  209.7760  151.1100 C   0  0  0  0  0  0  0  0  0  0  0  0
  1 30  1  0  0  0  0
  2  1  2  0  0  0  0
  3  9  1  0  0  0  0
  4 11  1  0  0  0  0
  4  1  1  6  0  0  0
  5 10  1  0  0  0  0
  5  9  1  0  0  0  0
  6  5  2  0  0  0  0
  7  4  1  0  0  0  0
  9 11  1  0  0  0  0
 10  7  2  0  0  0  0
 11  8  2  0  0  0  0
 12 22  1  1  0  0  0
 13 12  1  0  0  0  0
 15 16  1  0  0  0  0
 16  2  1  6  0  0  0
 16 13  1  0  0  0  0
 17 14  1  6  0  0  0
 17 12  1  0  0  0  0
 18 19  1  6  0  0  0
 18 15  1  0  0  0  0
 18 17  1  0  0  0  0
 20 19  1  0  0  0  0
 21 20  2  0  0  0  0
 22 23  1  0  0  0  0
 23 25  1  0  0  0  0
 23 24  1  0  0  0  0
 25 24  1  0  0  0  0
 26 29  1  0  0  0  0
 27 29  2  0  0  0  0
 28 27  1  0  0  0  0
 30 28  1  0  0  0  0
 30 26  2  0  0  0  0
M  END
>  <MODEL>
2

>  <REMARK>
 VINA RESULT:      -6.2      2.834      3.919
  Name = 
  7 active torsions:
  status: ('A' for Active; 'I' for Inactive)
    1  A    between atoms: C_2  and  C_22
    2  A    between atoms: C_3  and  C_4
    3  A    between atoms: C_3  and  C_28
    4  A    between atoms: C_5  and  C_22
    5  A    between atoms: C_8  and  C_10
    6  A    between atoms: C_10  and  C_29
    7  A    between atoms: C_18  and  N_21
                            x       y       z     vdW  Elec       q    Type
                         _______ _______ _______ _____ _____    ______ ____

>  <TORSDO>
F 7

$$$$
=
 OpenBabel11042420113D

 30 33  0  0  1  0  0  0  0  0999 V2000
  159.1040  213.1940  152.1830 C   0  0  0  0  0  0  0  0  0  0  0  0
  159.9460  212.2050  152.0410 N   0  0  0  0  0  0  0  0  0  0  0  0
  157.3520  212.9350  147.9280 C   0  0  0  0  0  1  0  0  0  0  0  0
  159.0690  214.2690  151.1390 C   0  0  1  0  0  3  0  0  0  0  0  0
  159.7630  213.4100  148.4740 C   0  0  0  0  0  0  0  0  0  0  0  0
  160.1390  212.9280  147.3340 N   0  0  0  0  0  2  0  0  0  0  0  0
  160.4330  214.4530  150.5220 C   0  0  0  0  0  3  0  0  0  0  0  0
  156.8000  214.1840  150.3960 O   0  0  0  0  0  0  0  0  0  0  0  0
  158.3770  213.4260  148.8410 N   0  0  0  0  0  0  0  0  0  0  0  0
  160.7290  214.0280  149.3300 N   0  0  0  0  0  0  0  0  0  0  0  0
  158.0100  213.9790  150.1120 C   0  0  0  0  0  0  0  0  0  0  0  0
  161.3040  208.8290  153.2080 C   0  0  1  0  0  3  0  0  0  0  0  0
  161.0770  210.0590  152.3150 C   0  0  0  0  0  2  0  0  0  0  0  0
  161.2860  208.0030  155.4770 O   0  0  0  0  0  1  0  0  0  0  0  0
  160.5250  211.5160  154.3030 C   0  0  0  0  0  2  0  0  0  0  0  0
  160.0740  211.0480  152.9150 C   0  0  1  0  0  3  0  0  0  0  0  0
  160.7770  209.0000  154.6430 C   0  0  1  0  0  3  0  0  0  0  0  0
  161.0830  210.4020  155.2000 C   0  0  1  0  0  3  0  0  0  0  0  0
  162.5790  210.6340  155.4030 C   0  0  0  0  0  2  0  0  0  0  0  0
  162.9220  210.7110  156.8560 C   0  0  0  0  0  3  0  0  0  0  0  0
  164.0330  211.2270  157.2340 N   0  0  0  0  0  2  0  0  0  0  0  0
  160.7890  207.5520  152.5490 C   0  0  0  0  0  2  0  0  0  0  0  0
  161.8200  206.9220  151.6250 C   0  0  0  0  0  3  0  0  0  0  0  0
  161.4950  205.4530  151.4510 C   0  0  0  0  0  2  0  0  0  0  0  0
  161.1280  206.4420  150.3670 C   0  0  0  0  0  2  0  0  0  0  0  0
  158.1680  214.2610  154.3360 C   0  0  0  0  0  3  0  0  0  0  0  0
  156.5210  212.8960  154.6040 N   0  0  0  0  0  0  0  0  0  0  0  0
  157.1550  212.5210  153.5350 O   0  0  0  0  0  0  0  0  0  0  0  0
  157.1150  213.9600  155.1220 N   0  0  0  0  0  0  0  0  0  0  0  0
  158.1730  213.3180  153.3260 C   0  0  0  0  0  0  0  0  0  0  0  0
  1 30  1  0  0  0  0
  2  1  2  0  0  0  0
  3  9  1  0  0  0  0
  4  1  1  1  0  0  0
  5  9  1  0  0  0  0
  5 10  1  0  0  0  0
  6  5  2  0  0  0  0
  7  4  1  0  0  0  0
  9 11  1  0  0  0  0
 10  7  2  0  0  0  0
 11  8  2  0  0  0  0
 11  4  1  0  0  0  0
 12 22  1  6  0  0  0
 12 17  1  0  0  0  0
 13 16  1  0  0  0  0
 13 12  1  0  0  0  0
 15 18  1  0  0  0  0
 16  2  1  6  0  0  0
 16 15  1  0  0  0  0
 17 18  1  0  0  0  0
 17 14  1  1  0  0  0
 18 19  1  6  0  0  0
 19 20  1  0  0  0  0
 20 21  2  0  0  0  0
 23 22  1  0  0  0  0
 24 23  1  0  0  0  0
 25 24  1  0  0  0  0
 25 23  1  0  0  0  0
 26 29  1  0  0  0  0
 27 29  2  0  0  0  0
 28 27  1  0  0  0  0
 30 28  1  0  0  0  0
 30 26  2  0  0  0  0
M  END
>  <MODEL>
3

>  <REMARK>
 VINA RESULT:      -6.0      3.708      7.428
  Name = 
  7 active torsions:
  status: ('A' for Active; 'I' for Inactive)
    1  A    between atoms: C_2  and  C_22
    2  A    between atoms: C_3  and  C_4
    3  A    between atoms: C_3  and  C_28
    4  A    between atoms: C_5  and  C_22
    5  A    between atoms: C_8  and  C_10
    6  A    between atoms: C_10  and  C_29
    7  A    between atoms: C_18  and  N_21
                            x       y       z     vdW  Elec       q    Type
                         _______ _______ _______ _____ _____    ______ ____

>  <TORSDO>
F 7

$$$$
=
 OpenBabel11042420113D

 30 33  0  0  1  0  0  0  0  0999 V2000
  160.9660  209.1570  153.6020 C   0  0  0  0  0  0  0  0  0  0  0  0
  161.2320  208.0710  152.9270 N   0  0  0  0  0  0  0  0  0  0  0  0
  158.4830  210.9060  157.0680 C   0  0  0  0  0  1  0  0  0  0  0  0
  161.3320  209.2140  155.0540 C   0  0  1  0  0  3  0  0  0  0  0  0
  160.7580  211.7180  156.3640 C   0  0  0  0  0  0  0  0  0  0  0  0
  160.5080  212.8970  156.8340 N   0  0  0  0  0  2  0  0  0  0  0  0
  162.3580  210.2900  155.3000 C   0  0  0  0  0  3  0  0  0  0  0  0
  159.3500  208.3980  156.1120 O   0  0  0  0  0  0  0  0  0  0  0  0
  159.7750  210.6770  156.4340 N   0  0  0  0  0  0  0  0  0  0  0  0
  162.0670  211.4240  155.8650 N   0  0  0  0  0  0  0  0  0  0  0  0
  160.1050  209.3860  155.9060 C   0  0  0  0  0  0  0  0  0  0  0  0
  162.1710  207.8460  149.2300 C   0  0  1  0  0  3  0  0  0  0  0  0
  162.3150  208.0970  150.7390 C   0  0  0  0  0  2  0  0  0  0  0  0
  160.9710  206.6130  147.5360 O   0  0  0  0  0  1  0  0  0  0  0  0
  160.4910  206.4370  151.2830 C   0  0  0  0  0  2  0  0  0  0  0  0
  161.0090  207.8620  151.5040 C   0  0  1  0  0  3  0  0  0  0  0  0
  160.8910  207.0850  148.8480 C   0  0  1  0  0  3  0  0  0  0  0  0
  160.5920  205.9410  149.8320 C   0  0  1  0  0  3  0  0  0  0  0  0
  161.6330  204.8250  149.7640 C   0  0  0  0  0  2  0  0  0  0  0  0
  161.0310  203.5550  149.2530 C   0  0  0  0  0  3  0  0  0  0  0  0
  161.2870  203.1480  148.0660 N   0  0  0  0  0  2  0  0  0  0  0  0
  162.3430  209.1330  148.4260 C   0  0  0  0  0  2  0  0  0  0  0  0
  161.9570  210.3680  149.2240 C   0  0  0  0  0  3  0  0  0  0  0  0
  162.7290  211.5590  148.6950 C   0  0  0  0  0  2  0  0  0  0  0  0
  161.2820  211.3620  148.3020 C   0  0  0  0  0  2  0  0  0  0  0  0
  158.9880  210.7260  153.0720 C   0  0  0  0  0  3  0  0  0  0  0  0
  160.1130  212.1930  151.9640 N   0  0  0  0  0  0  0  0  0  0  0  0
  160.9500  211.2730  152.3340 O   0  0  0  0  0  0  0  0  0  0  0  0
  158.8990  211.8900  152.3990 N   0  0  0  0  0  0  0  0  0  0  0  0
  160.3150  210.3490  153.0120 C   0  0  0  0  0  0  0  0  0  0  0  0
  2  1  2  0  0  0  0
  4  1  1  6  0  0  0
  4  7  1  0  0  0  0
  4 11  1  0  0  0  0
  5  9  1  0  0  0  0
  5  6  2  0  0  0  0
  7 10  2  0  0  0  0
  9  3  1  0  0  0  0
 10  5  1  0  0  0  0
 11  8  2  0  0  0  0
 11  9  1  0  0  0  0
 12 22  1  6  0  0  0
 12 13  1  0  0  0  0
 13 16  1  0  0  0  0
 15 16  1  0  0  0  0
 16  2  1  1  0  0  0
 17 14  1  6  0  0  0
 17 12  1  0  0  0  0
 17 18  1  0  0  0  0
 18 19  1  1  0  0  0
 18 15  1  0  0  0  0
 20 19  1  0  0  0  0
 21 20  2  0  0  0  0
 22 23  1  0  0  0  0
 24 23  1  0  0  0  0
 25 24  1  0  0  0  0
 25 23  1  0  0  0  0
 27 28  1  0  0  0  0
 27 29  2  0  0  0  0
 28 30  1  0  0  0  0
 29 26  1  0  0  0  0
 30 26  2  0  0  0  0
 30  1  1  0  0  0  0
M  END
>  <MODEL>
4

>  <REMARK>
 VINA RESULT:      -5.9      2.181      4.583
  Name = 
  7 active torsions:
  status: ('A' for Active; 'I' for Inactive)
    1  A    between atoms: C_2  and  C_22
    2  A    between atoms: C_3  and  C_4
    3  A    between atoms: C_3  and  C_28
    4  A    between atoms: C_5  and  C_22
    5  A    between atoms: C_8  and  C_10
    6  A    between atoms: C_10  and  C_29
    7  A    between atoms: C_18  and  N_21
                            x       y       z     vdW  Elec       q    Type
                         _______ _______ _______ _____ _____    ______ ____

>  <TORSDO>
F 7

$$$$
=
 OpenBabel11042420113D

 30 33  0  0  1  0  0  0  0  0999 V2000
  160.0880  211.7820  153.1320 C   0  0  0  0  0  0  0  0  0  0  0  0
  160.5410  210.5610  153.0290 N   0  0  0  0  0  0  0  0  0  0  0  0
  159.4970  209.8200  157.2600 C   0  0  0  0  0  1  0  0  0  0  0  0
  160.1040  212.4480  154.4740 C   0  0  1  0  0  3  0  0  0  0  0  0
  158.0200  211.6080  156.2820 C   0  0  0  0  0  0  0  0  0  0  0  0
  157.0170  211.1980  156.9890 N   0  0  0  0  0  2  0  0  0  0  0  0
  158.8250  213.2140  154.7000 C   0  0  0  0  0  3  0  0  0  0  0  0
  161.5450  211.0200  155.7360 O   0  0  0  0  0  0  0  0  0  0  0  0
  159.2900  210.9470  156.3590 N   0  0  0  0  0  0  0  0  0  0  0  0
  157.8870  212.7980  155.4970 N   0  0  0  0  0  0  0  0  0  0  0  0
  160.3720  211.4460  155.5620 C   0  0  0  0  0  0  0  0  0  0  0  0
  162.2510  209.2250  149.8830 C   0  0  1  0  0  3  0  0  0  0  0  0
  162.0270  210.0500  151.1610 C   0  0  0  0  0  2  0  0  0  0  0  0
  161.6900  207.1810  148.7260 O   0  0  0  0  0  1  0  0  0  0  0  0
  160.4880  208.2990  152.1330 C   0  0  0  0  0  2  0  0  0  0  0  0
  160.6630  209.7850  151.8030 C   0  0  1  0  0  3  0  0  0  0  0  0
  161.2500  208.0700  149.7080 C   0  0  1  0  0  3  0  0  0  0  0  0
  160.9820  207.3420  151.0380 C   0  0  1  0  0  3  0  0  0  0  0  0
  162.2120  206.5950  151.5510 C   0  0  0  0  0  2  0  0  0  0  0  0
  161.9580  205.1240  151.6290 C   0  0  0  0  0  3  0  0  0  0  0  0
  161.4000  204.5100  150.6530 N   0  0  0  0  0  2  0  0  0  0  0  0
  162.3310  210.1150  148.6450 C   0  0  0  0  0  2  0  0  0  0  0  0
  162.1070  211.5830  148.9730 C   0  0  0  0  0  3  0  0  0  0  0  0
  162.8660  212.4340  147.9770 C   0  0  0  0  0  2  0  0  0  0  0  0
  161.3740  212.2400  147.8230 C   0  0  0  0  0  2  0  0  0  0  0  0
  158.2720  212.5550  151.4710 C   0  0  0  0  0  3  0  0  0  0  0  0
  159.5040  213.9390  150.3690 N   0  0  0  0  0  0  0  0  0  0  0  0
  160.2540  213.4120  151.2880 O   0  0  0  0  0  0  0  0  0  0  0  0
  158.2810  213.4360  150.4510 N   0  0  0  0  0  0  0  0  0  0  0  0
  159.5530  212.5550  151.9890 C   0  0  0  0  0  0  0  0  0  0  0  0
  2  1  2  0  0  0  0
  4  1  1  6  0  0  0
  4  7  1  0  0  0  0
  4 11  1  0  0  0  0
  5  9  1  0  0  0  0
  5  6  2  0  0  0  0
  7 10  2  0  0  0  0
  9  3  1  0  0  0  0
 10  5  1  0  0  0  0
 11  8  2  0  0  0  0
 11  9  1  0  0  0  0
 12 22  1  6  0  0  0
 12 13  1  0  0  0  0
 13 16  1  0  0  0  0
 16 15  1  0  0  0  0
 16  2  1  1  0  0  0
 17 14  1  6  0  0  0
 17 12  1  0  0  0  0
 17 18  1  0  0  0  0
 18 19  1  1  0  0  0
 18 15  1  0  0  0  0
 19 20  1  0  0  0  0
 21 20  2  0  0  0  0
 22 23  1  0  0  0  0
 24 23  1  0  0  0  0
 25 24  1  0  0  0  0
 25 23  1  0  0  0  0
 26 30  2  0  0  0  0
 27 29  2  0  0  0  0
 27 28  1  0  0  0  0
 28 30  1  0  0  0  0
 29 26  1  0  0  0  0
 30  1  1  0  0  0  0
M  END
>  <MODEL>
5

>  <REMARK>
 VINA RESULT:      -5.3      2.878      5.588
  Name = 
  7 active torsions:
  status: ('A' for Active; 'I' for Inactive)
    1  A    between atoms: C_2  and  C_22
    2  A    between atoms: C_3  and  C_4
    3  A    between atoms: C_3  and  C_28
    4  A    between atoms: C_5  and  C_22
    5  A    between atoms: C_8  and  C_10
    6  A    between atoms: C_10  and  C_29
    7  A    between atoms: C_18  and  N_21
                            x       y       z     vdW  Elec       q    Type
                         _______ _______ _______ _____ _____    ______ ____

>  <TORSDO>
F 7

$$$$
=
 OpenBabel11042420113D

 30 33  0  0  1  0  0  0  0  0999 V2000
  160.3320  210.1340  154.6910 C   0  0  0  0  0  0  0  0  0  0  0  0
  161.0510  209.0740  154.4390 N   0  0  0  0  0  0  0  0  0  0  0  0
  157.6560  213.5530  156.2370 C   0  0  0  0  0  1  0  0  0  0  0  0
  159.9330  210.4180  156.1080 C   0  0  1  0  0  3  0  0  0  0  0  0
  160.0610  213.1920  156.8830 C   0  0  0  0  0  0  0  0  0  0  0  0
  160.2060  214.4530  157.1360 N   0  0  0  0  0  2  0  0  0  0  0  0
  161.0830  211.0280  156.8690 C   0  0  0  0  0  3  0  0  0  0  0  0
  157.5750  210.7520  155.9180 O   0  0  0  0  0  0  0  0  0  0  0  0
  158.8090  212.6790  156.4100 N   0  0  0  0  0  0  0  0  0  0  0  0
  161.1310  212.2890  157.1790 N   0  0  0  0  0  0  0  0  0  0  0  0
  158.6980  211.2730  156.1520 C   0  0  0  0  0  0  0  0  0  0  0  0
  160.9240  207.7300  150.8640 C   0  0  1  0  0  3  0  0  0  0  0  0
  160.4500  208.1240  152.2720 C   0  0  0  0  0  2  0  0  0  0  0  0
  162.5420  208.1710  149.1270 O   0  0  0  0  0  1  0  0  0  0  0  0
  162.2410  209.8930  152.4810 C   0  0  0  0  0  2  0  0  0  0  0  0
  161.5810  208.6780  153.1420 C   0  0  1  0  0  3  0  0  0  0  0  0
  162.3100  208.2870  150.4990 C   0  0  1  0  0  3  0  0  0  0  0  0
  162.4830  209.7420  150.9710 C   0  0  1  0  0  3  0  0  0  0  0  0
  161.5680  210.7100  150.2250 C   0  0  0  0  0  2  0  0  0  0  0  0
  162.2730  211.3350  149.0650 C   0  0  0  0  0  3  0  0  0  0  0  0
  161.6670  211.4940  147.9470 N   0  0  0  0  0  2  0  0  0  0  0  0
  160.8270  206.2230  150.6380 C   0  0  0  0  0  2  0  0  0  0  0  0
  161.8310  205.4470  151.4760 C   0  0  0  0  0  3  0  0  0  0  0  0
  161.0920  204.6940  152.5620 C   0  0  0  0  0  2  0  0  0  0  0  0
  161.5630  203.9650  151.3230 C   0  0  0  0  0  2  0  0  0  0  0  0
  158.7960  210.9790  152.7980 C   0  0  0  0  0  3  0  0  0  0  0  0
  159.8260  212.8380  152.4420 N   0  0  0  0  0  0  0  0  0  0  0  0
  160.4640  212.2280  153.3930 O   0  0  0  0  0  0  0  0  0  0  0  0
  158.7970  212.1010  152.0520 N   0  0  0  0  0  0  0  0  0  0  0  0
  159.8790  211.0830  153.6490 C   0  0  0  0  0  0  0  0  0  0  0  0
  2  1  2  0  0  0  0
  3  9  1  0  0  0  0
  4  1  1  6  0  0  0
  4 11  1  0  0  0  0
  4  7  1  0  0  0  0
  5  6  2  0  0  0  0
  5 10  1  0  0  0  0
  7 10  2  0  0  0  0
  8 11  2  0  0  0  0
  9  5  1  0  0  0  0
 11  9  1  0  0  0  0
 12 22  1  1  0  0  0
 12 13  1  0  0  0  0
 13 16  1  0  0  0  0
 15 16  1  0  0  0  0
 16  2  1  1  0  0  0
 17 14  1  6  0  0  0
 17 12  1  0  0  0  0
 17 18  1  0  0  0  0
 18 19  1  6  0  0  0
 18 15  1  0  0  0  0
 20 19  1  0  0  0  0
 21 20  2  0  0  0  0
 22 23  1  0  0  0  0
 23 24  1  0  0  0  0
 25 23  1  0  0  0  0
 25 24  1  0  0  0  0
 26 30  2  0  0  0  0
 27 28  1  0  0  0  0
 28 30  1  0  0  0  0
 29 27  2  0  0  0  0
 29 26  1  0  0  0  0
 30  1  1  0  0  0  0
M  END
>  <MODEL>
6

>  <REMARK>
 VINA RESULT:      -5.2      2.951      4.719
  Name = 
  7 active torsions:
  status: ('A' for Active; 'I' for Inactive)
    1  A    between atoms: C_2  and  C_22
    2  A    between atoms: C_3  and  C_4
    3  A    between atoms: C_3  and  C_28
    4  A    between atoms: C_5  and  C_22
    5  A    between atoms: C_8  and  C_10
    6  A    between atoms: C_10  and  C_29
    7  A    between atoms: C_18  and  N_21
                            x       y       z     vdW  Elec       q    Type
                         _______ _______ _______ _____ _____    ______ ____

>  <TORSDO>
F 7

$$$$
=
 OpenBabel11042420113D

 30 33  0  0  1  0  0  0  0  0999 V2000
  160.7500  208.2400  154.5770 C   0  0  0  0  0  0  0  0  0  0  0  0
  160.7480  207.0110  154.1360 N   0  0  0  0  0  0  0  0  0  0  0  0
  160.4410  212.2740  156.7830 C   0  0  0  0  0  1  0  0  0  0  0  0
  160.7400  208.4780  156.0570 C   0  0  1  0  0  3  0  0  0  0  0  0
  162.3770  210.6750  156.9540 C   0  0  0  0  0  0  0  0  0  0  0  0
  163.1810  211.6450  157.2490 N   0  0  0  0  0  2  0  0  0  0  0  0
  162.1270  208.3170  156.6280 C   0  0  0  0  0  3  0  0  0  0  0  0
  158.8890  209.9650  156.3230 O   0  0  0  0  0  0  0  0  0  0  0  0
  160.9910  210.9280  156.6900 N   0  0  0  0  0  0  0  0  0  0  0  0
  162.8570  209.3280  156.9960 N   0  0  0  0  0  0  0  0  0  0  0  0
  160.1400  209.8180  156.3760 C   0  0  0  0  0  0  0  0  0  0  0  0
  162.4300  206.2610  150.7870 C   0  0  1  0  0  3  0  0  0  0  0  0
  162.2610  206.7320  152.2400 C   0  0  0  0  0  2  0  0  0  0  0  0
  161.5860  204.7760  149.0800 O   0  0  0  0  0  1  0  0  0  0  0  0
  160.3370  205.1430  152.6300 C   0  0  0  0  0  2  0  0  0  0  0  0
  160.8220  206.5930  152.7430 C   0  0  1  0  0  3  0  0  0  0  0  0
  161.2440  205.4340  150.2630 C   0  0  1  0  0  3  0  0  0  0  0  0
  160.7290  204.4420  151.3210 C   0  0  1  0  0  3  0  0  0  0  0  0
  161.7430  203.3430  151.6340 C   0  0  0  0  0  2  0  0  0  0  0  0
  161.2220  201.9990  151.2390 C   0  0  0  0  0  3  0  0  0  0  0  0
  160.4810  201.8690  150.2020 N   0  0  0  0  0  2  0  0  0  0  0  0
  162.7860  207.4180  149.8570 C   0  0  0  0  0  2  0  0  0  0  0  0
  161.5530  208.0810  149.2620 C   0  0  0  0  0  3  0  0  0  0  0  0
  161.9580  209.3920  148.6220 C   0  0  0  0  0  2  0  0  0  0  0  0
  161.7170  208.1730  147.7600 C   0  0  0  0  0  2  0  0  0  0  0  0
  161.8410  210.1590  153.2400 C   0  0  0  0  0  3  0  0  0  0  0  0
  160.0180  210.9760  152.4300 N   0  0  0  0  0  0  0  0  0  0  0  0
  159.6840  209.9620  153.1690 O   0  0  0  0  0  0  0  0  0  0  0  0
  161.3340  211.1260  152.4510 N   0  0  0  0  0  0  0  0  0  0  0  0
  160.7590  209.4270  153.6920 C   0  0  0  0  0  0  0  0  0  0  0  0
  2  1  2  0  0  0  0
  4  1  1  6  0  0  0
  4 11  1  0  0  0  0
  4  7  1  0  0  0  0
  5 10  1  0  0  0  0
  5  6  2  0  0  0  0
  7 10  2  0  0  0  0
  8 11  2  0  0  0  0
  9  3  1  0  0  0  0
  9  5  1  0  0  0  0
 11  9  1  0  0  0  0
 12 22  1  6  0  0  0
 12 13  1  0  0  0  0
 13 16  1  0  0  0  0
 15 16  1  0  0  0  0
 16  2  1  1  0  0  0
 17 14  1  6  0  0  0
 17 12  1  0  0  0  0
 17 18  1  0  0  0  0
 18 19  1  1  0  0  0
 18 15  1  0  0  0  0
 20 19  1  0  0  0  0
 21 20  2  0  0  0  0
 23 22  1  0  0  0  0
 24 23  1  0  0  0  0
 25 24  1  0  0  0  0
 25 23  1  0  0  0  0
 26 30  2  0  0  0  0
 27 29  2  0  0  0  0
 27 28  1  0  0  0  0
 28 30  1  0  0  0  0
 29 26  1  0  0  0  0
 30  1  1  0  0  0  0
M  END
>  <MODEL>
7

>  <REMARK>
 VINA RESULT:      -5.2      2.217      4.582
  Name = 
  7 active torsions:
  status: ('A' for Active; 'I' for Inactive)
    1  A    between atoms: C_2  and  C_22
    2  A    between atoms: C_3  and  C_4
    3  A    between atoms: C_3  and  C_28
    4  A    between atoms: C_5  and  C_22
    5  A    between atoms: C_8  and  C_10
    6  A    between atoms: C_10  and  C_29
    7  A    between atoms: C_18  and  N_21
                            x       y       z     vdW  Elec       q    Type
                         _______ _______ _______ _____ _____    ______ ____

>  <TORSDO>
F 7

$$$$
=
 OpenBabel11042420113D

 30 33  0  0  1  0  0  0  0  0999 V2000
  161.9080  210.5960  149.5320 C   0  0  0  0  0  0  0  0  0  0  0  0
  161.8370  209.7550  148.5350 N   0  0  0  0  0  0  0  0  0  0  0  0
  159.0730  213.7190  147.6750 C   0  0  0  0  0  1  0  0  0  0  0  0
  162.1960  212.0380  149.2420 C   0  0  1  0  0  3  0  0  0  0  0  0
  161.2650  212.9820  146.6810 C   0  0  0  0  0  0  0  0  0  0  0  0
  160.8520  213.2820  145.4920 N   0  0  0  0  0  2  0  0  0  0  0  0
  163.0730  212.1680  148.0220 C   0  0  0  0  0  3  0  0  0  0  0  0
  160.2800  213.1350  150.1560 O   0  0  0  0  0  0  0  0  0  0  0  0
  160.4120  213.1610  147.8190 N   0  0  0  0  0  0  0  0  0  0  0  0
  162.6210  212.5670  146.8700 N   0  0  0  0  0  0  0  0  0  0  0  0
  160.9190  212.8210  149.1160 C   0  0  0  0  0  0  0  0  0  0  0  0
  162.4540  205.9900  148.3070 C   0  0  1  0  0  3  0  0  0  0  0  0
  162.7120  207.5010  148.1950 C   0  0  0  0  0  2  0  0  0  0  0  0
  161.2080  204.2790  149.4680 O   0  0  0  0  0  1  0  0  0  0  0  0
  161.0840  208.0120  150.0570 C   0  0  0  0  0  2  0  0  0  0  0  0
  161.5040  208.3410  148.6200 C   0  0  1  0  0  3  0  0  0  0  0  0
  161.2090  205.6350  149.1380 C   0  0  1  0  0  3  0  0  0  0  0  0
  161.0930  206.5140  150.3960 C   0  0  1  0  0  3  0  0  0  0  0  0
  162.2100  206.2420  151.4020 C   0  0  0  0  0  2  0  0  0  0  0  0
  161.6670  205.6680  152.6710 C   0  0  0  0  0  3  0  0  0  0  0  0
  160.9480  206.3860  153.4520 N   0  0  0  0  0  2  0  0  0  0  0  0
  162.4480  205.3170  146.9370 C   0  0  0  0  0  2  0  0  0  0  0  0
  161.1250  205.5000  146.2090 C   0  0  0  0  0  3  0  0  0  0  0  0
  161.3980  205.7090  144.7340 C   0  0  0  0  0  2  0  0  0  0  0  0
  160.9360  204.3570  145.2320 C   0  0  0  0  0  2  0  0  0  0  0  0
  162.6700  209.7850  151.8590 C   0  0  0  0  0  3  0  0  0  0  0  0
  160.7320  209.8480  152.8000 N   0  0  0  0  0  0  0  0  0  0  0  0
  160.5690  210.2290  151.5700 O   0  0  0  0  0  0  0  0  0  0  0  0
  162.0080  209.5680  153.0130 N   0  0  0  0  0  0  0  0  0  0  0  0
  161.7210  210.2050  150.9470 C   0  0  0  0  0  0  0  0  0  0  0  0
  1 30  1  0  0  0  0
  2  1  2  0  0  0  0
  3  9  1  0  0  0  0
  4  1  1  6  0  0  0
  5 10  1  0  0  0  0
  5  9  1  0  0  0  0
  6  5  2  0  0  0  0
  7  4  1  0  0  0  0
  9 11  1  0  0  0  0
 10  7  2  0  0  0  0
 11  4  1  0  0  0  0
 11  8  2  0  0  0  0
 12 22  1  6  0  0  0
 12 17  1  0  0  0  0
 13 12  1  0  0  0  0
 13 16  1  0  0  0  0
 15 18  1  0  0  0  0
 16  2  1  1  0  0  0
 16 15  1  0  0  0  0
 17 14  1  1  0  0  0
 17 18  1  0  0  0  0
 18 19  1  1  0  0  0
 19 20  1  0  0  0  0
 20 21  2  0  0  0  0
 23 22  1  0  0  0  0
 24 25  1  0  0  0  0
 24 23  1  0  0  0  0
 25 23  1  0  0  0  0
 26 29  1  0  0  0  0
 27 29  2  0  0  0  0
 28 27  1  0  0  0  0
 30 28  1  0  0  0  0
 30 26  2  0  0  0  0
M  END
>  <MODEL>
8

>  <REMARK>
 VINA RESULT:      -5.1      3.136      5.407
  Name = 
  7 active torsions:
  status: ('A' for Active; 'I' for Inactive)
    1  A    between atoms: C_2  and  C_22
    2  A    between atoms: C_3  and  C_4
    3  A    between atoms: C_3  and  C_28
    4  A    between atoms: C_5  and  C_22
    5  A    between atoms: C_8  and  C_10
    6  A    between atoms: C_10  and  C_29
    7  A    between atoms: C_18  and  N_21
                            x       y       z     vdW  Elec       q    Type
                         _______ _______ _______ _____ _____    ______ ____

>  <TORSDO>
F 7

$$$$
=
 OpenBabel11042420113D

 30 33  0  0  1  0  0  0  0  0999 V2000
  161.8800  208.7360  150.8180 C   0  0  0  0  0  0  0  0  0  0  0  0
  161.7280  208.5460  149.5350 N   0  0  0  0  0  0  0  0  0  0  0  0
  159.6240  211.2480  153.9550 C   0  0  0  0  0  1  0  0  0  0  0  0
  162.2220  210.1100  151.3110 C   0  0  1  0  0  3  0  0  0  0  0  0
  159.9850  211.9140  151.5550 C   0  0  0  0  0  0  0  0  0  0  0  0
  158.9210  212.6500  151.5760 N   0  0  0  0  0  2  0  0  0  0  0  0
  161.8590  211.1480  150.2780 C   0  0  0  0  0  3  0  0  0  0  0  0
  162.0620  209.8560  153.6820 O   0  0  0  0  0  0  0  0  0  0  0  0
  160.3830  211.1690  152.7130 N   0  0  0  0  0  0  0  0  0  0  0  0
  160.8270  211.9280  150.3970 N   0  0  0  0  0  0  0  0  0  0  0  0
  161.5740  210.3740  152.6410 C   0  0  0  0  0  0  0  0  0  0  0  0
  162.2370  205.2830  147.6130 C   0  0  1  0  0  3  0  0  0  0  0  0
  162.5660  206.6310  148.2750 C   0  0  0  0  0  2  0  0  0  0  0  0
  160.7510  203.3810  147.6330 O   0  0  0  0  0  1  0  0  0  0  0  0
  160.6640  206.3910  149.9200 C   0  0  0  0  0  2  0  0  0  0  0  0
  161.3340  207.3040  148.8870 C   0  0  1  0  0  3  0  0  0  0  0  0
  160.8570  204.7240  147.9980 C   0  0  1  0  0  3  0  0  0  0  0  0
  160.5610  204.9180  149.4960 C   0  0  1  0  0  3  0  0  0  0  0  0
  161.4790  204.0830  150.3860 C   0  0  0  0  0  2  0  0  0  0  0  0
  160.7360  202.9530  151.0210 C   0  0  0  0  0  3  0  0  0  0  0  0
  160.8760  201.7570  150.5840 N   0  0  0  0  0  2  0  0  0  0  0  0
  162.4410  205.3350  146.1000 C   0  0  0  0  0  2  0  0  0  0  0  0
  161.1590  205.6760  145.3560 C   0  0  0  0  0  3  0  0  0  0  0  0
  161.4400  205.6880  143.8690 C   0  0  0  0  0  2  0  0  0  0  0  0
  160.7550  204.4950  144.4990 C   0  0  0  0  0  2  0  0  0  0  0  0
  162.6650  206.7190  152.2230 C   0  0  0  0  0  3  0  0  0  0  0  0
  160.8430  206.4630  153.3450 N   0  0  0  0  0  0  0  0  0  0  0  0
  160.6550  207.4650  152.5410 O   0  0  0  0  0  0  0  0  0  0  0  0
  162.0650  205.9810  153.1770 N   0  0  0  0  0  0  0  0  0  0  0  0
  161.7360  207.6620  151.8280 C   0  0  0  0  0  0  0  0  0  0  0  0
  1 30  1  0  0  0  0
  2  1  2  0  0  0  0
  4  1  1  6  0  0  0
  4 11  1  0  0  0  0
  5  6  2  0  0  0  0
  5  9  1  0  0  0  0
  7 10  2  0  0  0  0
  7  4  1  0  0  0  0
  9  3  1  0  0  0  0
 10  5  1  0  0  0  0
 11  9  1  0  0  0  0
 11  8  2  0  0  0  0
 12 22  1  6  0  0  0
 12 17  1  0  0  0  0
 12 13  1  0  0  0  0
 13 16  1  0  0  0  0
 16  2  1  1  0  0  0
 16 15  1  0  0  0  0
 17 14  1  1  0  0  0
 17 18  1  0  0  0  0
 18 15  1  0  0  0  0
 18 19  1  1  0  0  0
 19 20  1  0  0  0  0
 21 20  2  0  0  0  0
 23 22  1  0  0  0  0
 24 25  1  0  0  0  0
 24 23  1  0  0  0  0
 25 23  1  0  0  0  0
 26 29  1  0  0  0  0
 28 27  1  0  0  0  0
 29 27  2  0  0  0  0
 30 26  2  0  0  0  0
 30 28  1  0  0  0  0
M  END
>  <MODEL>
9

>  <REMARK>
 VINA RESULT:      -4.9      1.680      3.648
  Name = 
  7 active torsions:
  status: ('A' for Active; 'I' for Inactive)
    1  A    between atoms: C_2  and  C_22
    2  A    between atoms: C_3  and  C_4
    3  A    between atoms: C_3  and  C_28
    4  A    between atoms: C_5  and  C_22
    5  A    between atoms: C_8  and  C_10
    6  A    between atoms: C_10  and  C_29
    7  A    between atoms: C_18  and  N_21
                            x       y       z     vdW  Elec       q    Type
                         _______ _______ _______ _____ _____    ______ ____

>  <TORSDO>
F 7

$$$$
