=
 OpenBabel11052409523D

 56 61  0  0  1  0  0  0  0  0999 V2000
  161.8850  210.0090  149.6770 C   0  0  2  0  0  3  0  0  0  0  0  0
  162.4290  208.7470  149.0370 C   0  0  0  0  0  2  0  0  0  0  0  0
  161.2820  207.8130  148.6960 C   0  0  0  0  0  2  0  0  0  0  0  0
  161.3470  207.4190  147.3310 O   0  0  0  0  0  0  0  0  0  0  0  0
  161.8540  203.4210  146.1550 C   0  0  0  0  0  3  0  0  0  0  0  0
  161.2270  205.0660  147.8090 C   0  0  0  0  0  3  0  0  0  0  0  0
  162.1580  204.4450  145.2520 C   0  0  0  0  0  3  0  0  0  0  0  0
  161.9960  205.7790  145.6310 C   0  0  0  0  0  3  0  0  0  0  0  0
  161.3800  203.7210  147.4440 C   0  0  0  0  0  0  0  0  0  0  0  0
  161.5270  206.0970  146.9160 C   0  0  0  0  0  0  0  0  0  0  0  0
  160.9210  201.3920  147.9830 C   0  0  0  0  0  2  0  0  0  0  0  0
  161.0890  202.6400  148.4230 C   0  0  0  0  0  0  0  0  0  0  0  0
  160.6260  204.0340  151.8750 N   0  0  2  0  0  0  0  0  0  0  0  0
  160.6680  204.1950  150.4070 C   0  0  2  0  0  3  0  0  0  0  0  0
  161.0100  202.9060  149.8400 N   0  0  0  0  0  0  0  0  0  0  0  0
  161.7640  204.7080  151.2240 C   0  0  0  0  0  2  0  0  0  0  0  0
  161.0230  202.6520  152.1580 C   0  0  0  0  0  2  0  0  0  0  0  0
  161.0910  201.8830  150.8560 C   0  0  0  0  0  2  0  0  0  0  0  0
  162.2600  211.2130  148.8320 C   0  0  0  0  0  2  0  0  0  0  0  0
  161.2410  211.4350  147.8690 O   0  0  0  0  0  0  0  0  0  0  0  0
  160.6790  213.6530  147.9660 O   0  0  0  0  0  0  0  0  0  0  0  0
  161.0630  212.6840  147.2630 C   0  0  0  0  0  0  0  0  0  0  0  0
  161.4240  212.9070  145.8250 C   0  0  2  0  0  3  0  0  0  0  0  0
  162.3120  214.1450  145.7350 C   0  0  0  0  0  1  0  0  0  0  0  0
  160.2560  213.0710  145.0650 O   0  0  0  0  0  0  0  0  0  0  0  0
  160.3480  212.1860  143.9810 C   0  0  0  0  0  2  0  0  0  0  0  0
  160.9820  210.9940  141.0110 C   0  0  1  0  0  3  0  0  0  0  0  0
  158.3060  213.3520  139.6730 C   0  0  2  0  0  3  0  0  0  0  0  0
  159.6680  210.3360  139.1040 O   0  0  0  0  0  1  0  0  0  0  0  0
  161.6240  212.1780  141.7700 C   0  0  0  0  0  2  0  0  0  0  0  0
  160.1250  211.4520  139.8130 C   0  0  1  0  0  3  0  0  0  0  0  0
  159.4430  213.6620  142.1080 C   0  0  0  0  0  2  0  0  0  0  0  0
  160.6850  212.9660  142.7190 C   0  0  1  0  0  3  0  0  0  0  0  0
  158.9460  212.1890  140.3880 C   0  0  1  0  0  3  0  0  0  0  0  0
  159.4980  213.5870  140.5950 C   0  0  1  0  0  3  0  0  0  0  0  0
  161.9910  210.1330  140.5700 O   0  0  0  0  0  0  0  0  0  0  0  0
  162.7730  210.9070  139.7120 C   0  0  0  0  0  1  0  0  0  0  0  0
  156.9750  213.6670  140.3390 C   0  0  0  0  0  2  0  0  0  0  0  0
  155.8240  213.5790  139.3560 C   0  0  0  0  0  2  0  0  0  0  0  0
  155.3090  212.2220  139.3320 N   0  0  0  0  0  2  0  0  0  0  0  0
  153.8640  212.3140  139.4490 C   0  0  0  0  0  2  0  0  0  0  0  0
  153.3310  211.0440  140.0830 C   0  0  0  0  0  2  0  0  0  0  0  0
  153.3710  209.7650  137.9410 O   0  0  0  0  0  0  0  0  0  0  0  0
  153.7430  209.8630  139.2760 C   0  0  0  0  0  0  0  0  0  0  0  0
  154.4430  208.9580  139.8020 O   0  0  0  0  0  1  0  0  0  0  0  0
  162.4130  210.1440  150.9960 O   0  0  0  0  0  0  0  0  0  0  0  0
  161.6100  210.3440  152.1230 C   0  0  0  0  0  0  0  0  0  0  0  0
  160.0440  210.6970  154.4190 C   0  0  0  0  0  3  0  0  0  0  0  0
  159.4920  210.9190  153.1560 C   0  0  0  0  0  3  0  0  0  0  0  0
  160.2700  210.7420  152.0120 C   0  0  0  0  0  3  0  0  0  0  0  0
  162.1600  210.1310  153.3910 C   0  0  0  0  0  3  0  0  0  0  0  0
  161.3810  210.3030  154.5470 C   0  0  0  0  0  0  0  0  0  0  0  0
  161.9000  210.0700  155.8230 O   0  0  0  0  0  0  0  0  0  0  0  0
  161.5420  208.9360  156.6000 C   0  0  0  0  0  2  0  0  0  0  0  0
  159.7670  207.2620  156.0590 C   0  0  0  0  0  1  0  0  0  0  0  0
  161.1430  207.7870  155.6890 C   0  0  0  0  0  2  0  0  0  0  0  0
  1 19  1  6  0  0  0
  1 46  1  0  0  0  0
  2  1  1  0  0  0  0
  3  2  1  0  0  0  0
  4  3  1  0  0  0  0
  5  9  1  0  0  0  0
  7  8  1  0  0  0  0
  7  5  2  0  0  0  0
  8 10  2  0  0  0  0
  9  6  2  0  0  0  0
  9 12  1  0  0  0  0
 10  4  1  0  0  0  0
 10  6  1  0  0  0  0
 11 12  2  0  0  0  0
 12 15  1  0  0  0  0
 13 16  1  1  0  0  0
 13 17  1  0  0  0  0
 14 16  1  1  0  0  0
 14 13  1  0  0  0  0
 15 14  1  0  0  0  0
 15 18  1  0  0  0  0
 18 17  1  0  0  0  0
 20 19  1  0  0  0  0
 22 20  1  0  0  0  0
 22 21  2  0  0  0  0
 23 24  1  1  0  0  0
 23 22  1  0  0  0  0
 25 23  1  0  0  0  0
 26 25  1  0  0  0  0
 27 36  1  6  0  0  0
 27 30  1  0  0  0  0
 28 38  1  1  0  0  0
 28 34  1  0  0  0  0
 28 35  1  0  0  0  0
 30 33  1  0  0  0  0
 31 29  1  1  0  0  0
 31 34  1  0  0  0  0
 31 27  1  0  0  0  0
 32 33  1  0  0  0  0
 33 26  1  1  0  0  0
 34 35  1  0  0  0  0
 35 32  1  0  0  0  0
 37 36  1  0  0  0  0
 39 38  1  0  0  0  0
 40 39  1  0  0  0  0
 40 41  1  0  0  0  0
 41 42  1  0  0  0  0
 43 44  2  0  0  0  0
 44 45  1  0  0  0  0
 44 42  1  0  0  0  0
 46 47  1  0  0  0  0
 47 51  1  0  0  0  0
 48 52  1  0  0  0  0
 49 48  2  0  0  0  0
 50 47  2  0  0  0  0
 50 49  1  0  0  0  0
 51 52  2  0  0  0  0
 52 53  1  0  0  0  0
 53 54  1  0  0  0  0
 56 55  1  0  0  0  0
 56 54  1  0  0  0  0
M  END
>  <MODEL>
1

>  <REMARK>
 VINA RESULT:      -6.7      0.000      0.000
  Name = 
  25 active torsions:
  status: ('A' for Active; 'I' for Inactive)
    1  A    between atoms: C_1  and  O_5
    2  A    between atoms: C_3  and  C_30
    3  A    between atoms: C_6  and  C_28
    4  A    between atoms: C_6  and  C_45
    5  A    between atoms: O_8  and  C_18
    6  A    between atoms: O_8  and  C_51
    7  A    between atoms: C_9  and  O_22
    8  A    between atoms: C_11  and  C_30
    9  A    between atoms: C_11  and  N_43
   10  A    between atoms: C_13  and  O_33
   11  A    between atoms: C_13  and  C_45
   12  A    between atoms: C_15  and  C_25
   13  A    between atoms: O_16  and  C_28
   14  A    between atoms: O_16  and  C_47
   15  A    between atoms: C_18  and  C_49
   16  A    between atoms: C_21  and  O_27
   17  A    between atoms: C_21  and  C_55
   18  A    between atoms: O_22  and  C_45
   19  A    between atoms: C_25  and  C_29
   20  A    between atoms: N_26  and  C_44
   21  A    between atoms: O_27  and  C_37
   22  A    between atoms: C_29  and  N_43
   23  A    between atoms: O_33  and  C_55
   24  A    between atoms: C_37  and  C_41
   25  A    between atoms: C_40  and  C_44
                            x       y       z     vdW  Elec       q    Type
                         _______ _______ _______ _____ _____    ______ ____

>  <TORSDO>
F 25

$$$$
=
 OpenBabel11052409523D

 56 61  0  0  1  0  0  0  0  0999 V2000
  162.3620  213.1140  147.6500 C   0  0  2  0  0  3  0  0  0  0  0  0
  163.1320  213.2700  146.3540 C   0  0  0  0  0  2  0  0  0  0  0  0
  162.4440  214.2960  145.4720 C   0  0  0  0  0  2  0  0  0  0  0  0
  162.6880  214.0190  144.0990 O   0  0  0  0  0  0  0  0  0  0  0  0
  160.3870  211.4120  141.7470 C   0  0  0  0  0  3  0  0  0  0  0  0
  162.4200  212.6570  142.1370 C   0  0  0  0  0  3  0  0  0  0  0  0
  159.8570  211.9040  142.9430 C   0  0  0  0  0  3  0  0  0  0  0  0
  160.6100  212.7740  143.7340 C   0  0  0  0  0  3  0  0  0  0  0  0
  161.6800  211.7790  141.3320 C   0  0  0  0  0  0  0  0  0  0  0  0
  161.9010  213.1550  143.3330 C   0  0  0  0  0  0  0  0  0  0  0  0
  163.1520  212.0250  139.4090 C   0  0  0  0  0  2  0  0  0  0  0  0
  162.2380  211.2890  140.0440 C   0  0  0  0  0  0  0  0  0  0  0  0
  161.0900  208.4190  137.9190 N   0  0  2  0  0  0  0  0  0  0  0  0
  161.3170  209.8640  138.1340 C   0  0  2  0  0  3  0  0  0  0  0  0
  161.8340  210.0240  139.4790 N   0  0  0  0  0  0  0  0  0  0  0  0
  159.9580  209.3300  138.1630 C   0  0  0  0  0  2  0  0  0  0  0  0
  161.4110  207.7500  139.1820 C   0  0  0  0  0  2  0  0  0  0  0  0
  162.0580  208.7480  140.1180 C   0  0  0  0  0  2  0  0  0  0  0  0
  161.6240  211.7880  147.6500 C   0  0  0  0  0  2  0  0  0  0  0  0
  162.3290  210.8680  148.4700 O   0  0  0  0  0  0  0  0  0  0  0  0
  161.5490  211.5380  150.5160 O   0  0  0  0  0  0  0  0  0  0  0  0
  161.9220  210.5910  149.7790 C   0  0  0  0  0  0  0  0  0  0  0  0
  161.8200  209.1800  150.2780 C   0  0  2  0  0  3  0  0  0  0  0  0
  162.0760  209.1770  151.7830 C   0  0  0  0  0  1  0  0  0  0  0  0
  162.7520  208.3740  149.6090 O   0  0  0  0  0  0  0  0  0  0  0  0
  162.1660  207.9920  148.3950 C   0  0  0  0  0  2  0  0  0  0  0  0
  161.3610  205.0870  147.1460 C   0  0  1  0  0  3  0  0  0  0  0  0
  160.8500  203.8760  150.7220 C   0  0  2  0  0  3  0  0  0  0  0  0
  161.8230  202.7890  147.6970 O   0  0  0  0  0  1  0  0  0  0  0  0
  160.4810  206.3190  147.4540 C   0  0  0  0  0  2  0  0  0  0  0  0
  161.0820  203.9050  148.0980 C   0  0  1  0  0  3  0  0  0  0  0  0
  160.9500  206.4990  150.0660 C   0  0  0  0  0  2  0  0  0  0  0  0
  160.9130  207.1760  148.6730 C   0  0  1  0  0  3  0  0  0  0  0  0
  161.5400  204.3390  149.4640 C   0  0  1  0  0  3  0  0  0  0  0  0
  160.3430  205.1110  149.9860 C   0  0  1  0  0  3  0  0  0  0  0  0
  161.1450  204.6900  145.8230 O   0  0  0  0  0  0  0  0  0  0  0  0
  162.3110  205.0470  145.1460 C   0  0  0  0  0  1  0  0  0  0  0  0
  161.7250  204.2210  151.9180 C   0  0  0  0  0  2  0  0  0  0  0  0
  160.9140  204.8210  153.0490 C   0  0  0  0  0  2  0  0  0  0  0  0
  161.5720  206.0200  153.5360 N   0  0  0  0  0  2  0  0  0  0  0  0
  160.8570  206.4420  154.7280 C   0  0  0  0  0  2  0  0  0  0  0  0
  160.5750  207.9300  154.6420 C   0  0  0  0  0  2  0  0  0  0  0  0
  161.4320  210.0410  155.6570 O   0  0  0  0  0  0  0  0  0  0  0  0
  161.3540  208.6550  155.6820 C   0  0  0  0  0  0  0  0  0  0  0  0
  161.9320  208.0090  156.5960 O   0  0  0  0  0  1  0  0  0  0  0  0
  161.4410  214.1950  147.7940 O   0  0  0  0  0  0  0  0  0  0  0  0
  160.1760  214.0490  148.3730 C   0  0  0  0  0  0  0  0  0  0  0  0
  157.6750  213.7350  149.5950 C   0  0  0  0  0  3  0  0  0  0  0  0
  157.7890  213.6540  148.2060 C   0  0  0  0  0  3  0  0  0  0  0  0
  159.0340  213.8090  147.5960 C   0  0  0  0  0  3  0  0  0  0  0  0
  160.0560  214.1370  149.7630 C   0  0  0  0  0  3  0  0  0  0  0  0
  158.8060  213.9780  150.3840 C   0  0  0  0  0  0  0  0  0  0  0  0
  158.6640  214.0340  151.7730 O   0  0  0  0  0  0  0  0  0  0  0  0
  157.5420  213.4880  152.4520 C   0  0  0  0  0  2  0  0  0  0  0  0
  158.8390  211.4350  153.0380 C   0  0  0  0  0  1  0  0  0  0  0  0
  158.0070  212.5830  153.5810 C   0  0  0  0  0  2  0  0  0  0  0  0
  1  2  1  6  0  0  0
  1 46  1  0  0  0  0
  3  2  1  0  0  0  0
  4  3  1  0  0  0  0
  5  7  1  0  0  0  0
  6 10  2  0  0  0  0
  7  8  2  0  0  0  0
  9  5  2  0  0  0  0
  9  6  1  0  0  0  0
 10  8  1  0  0  0  0
 10  4  1  0  0  0  0
 11 12  2  0  0  0  0
 12  9  1  0  0  0  0
 13 14  1  0  0  0  0
 13 16  1  1  0  0  0
 13 17  1  0  0  0  0
 14 16  1  1  0  0  0
 14 15  1  0  0  0  0
 15 12  1  0  0  0  0
 15 18  1  0  0  0  0
 17 18  1  0  0  0  0
 19  1  1  0  0  0  0
 19 20  1  0  0  0  0
 20 22  1  0  0  0  0
 22 23  1  0  0  0  0
 22 21  2  0  0  0  0
 23 24  1  1  0  0  0
 25 23  1  0  0  0  0
 26 25  1  0  0  0  0
 27 36  1  6  0  0  0
 27 30  1  0  0  0  0
 27 31  1  0  0  0  0
 28 38  1  1  0  0  0
 30 33  1  0  0  0  0
 31 29  1  6  0  0  0
 31 34  1  0  0  0  0
 33 26  1  6  0  0  0
 33 32  1  0  0  0  0
 34 35  1  0  0  0  0
 34 28  1  0  0  0  0
 35 32  1  0  0  0  0
 35 28  1  0  0  0  0
 37 36  1  0  0  0  0
 38 39  1  0  0  0  0
 39 40  1  0  0  0  0
 40 41  1  0  0  0  0
 42 41  1  0  0  0  0
 42 44  1  0  0  0  0
 43 44  2  0  0  0  0
 44 45  1  0  0  0  0
 46 47  1  0  0  0  0
 47 51  1  0  0  0  0
 48 52  1  0  0  0  0
 49 48  2  0  0  0  0
 50 49  1  0  0  0  0
 50 47  2  0  0  0  0
 51 52  2  0  0  0  0
 52 53  1  0  0  0  0
 53 54  1  0  0  0  0
 54 56  1  0  0  0  0
 55 56  1  0  0  0  0
M  END
>  <MODEL>
2

>  <REMARK>
 VINA RESULT:      -6.6      3.522     10.656
  Name = 
  25 active torsions:
  status: ('A' for Active; 'I' for Inactive)
    1  A    between atoms: C_1  and  O_5
    2  A    between atoms: C_3  and  C_30
    3  A    between atoms: C_6  and  C_28
    4  A    between atoms: C_6  and  C_45
    5  A    between atoms: O_8  and  C_18
    6  A    between atoms: O_8  and  C_51
    7  A    between atoms: C_9  and  O_22
    8  A    between atoms: C_11  and  C_30
    9  A    between atoms: C_11  and  N_43
   10  A    between atoms: C_13  and  O_33
   11  A    between atoms: C_13  and  C_45
   12  A    between atoms: C_15  and  C_25
   13  A    between atoms: O_16  and  C_28
   14  A    between atoms: O_16  and  C_47
   15  A    between atoms: C_18  and  C_49
   16  A    between atoms: C_21  and  O_27
   17  A    between atoms: C_21  and  C_55
   18  A    between atoms: O_22  and  C_45
   19  A    between atoms: C_25  and  C_29
   20  A    between atoms: N_26  and  C_44
   21  A    between atoms: O_27  and  C_37
   22  A    between atoms: C_29  and  N_43
   23  A    between atoms: O_33  and  C_55
   24  A    between atoms: C_37  and  C_41
   25  A    between atoms: C_40  and  C_44
                            x       y       z     vdW  Elec       q    Type
                         _______ _______ _______ _____ _____    ______ ____

>  <TORSDO>
F 25

$$$$
=
 OpenBabel11052409523D

 56 61  0  0  1  0  0  0  0  0999 V2000
  161.2400  205.2100  145.0660 C   0  0  2  0  0  3  0  0  0  0  0  0
  162.1040  205.9350  144.0530 C   0  0  0  0  0  2  0  0  0  0  0  0
  161.4180  205.9260  142.6990 C   0  0  0  0  0  2  0  0  0  0  0  0
  162.3710  206.0840  141.6550 O   0  0  0  0  0  0  0  0  0  0  0  0
  161.5670  208.2210  138.1320 C   0  0  0  0  0  3  0  0  0  0  0  0
  161.5440  208.0470  140.5420 C   0  0  0  0  0  3  0  0  0  0  0  0
  162.1340  206.9460  138.0460 C   0  0  0  0  0  3  0  0  0  0  0  0
  162.4050  206.2230  139.2100 C   0  0  0  0  0  3  0  0  0  0  0  0
  161.2690  208.7890  139.3850 C   0  0  0  0  0  0  0  0  0  0  0  0
  162.1100  206.7730  140.4680 C   0  0  0  0  0  0  0  0  0  0  0  0
  159.3660  210.2780  139.0920 C   0  0  0  0  0  2  0  0  0  0  0  0
  160.6330  210.1280  139.4850 C   0  0  0  0  0  0  0  0  0  0  0  0
  162.5550  213.2850  140.1270 N   0  0  2  0  0  0  0  0  0  0  0  0
  162.0150  212.2600  139.2100 C   0  0  2  0  0  3  0  0  0  0  0  0
  161.3440  211.2640  140.0220 N   0  0  0  0  0  0  0  0  0  0  0  0
  163.4450  212.2890  139.5040 C   0  0  0  0  0  2  0  0  0  0  0  0
  162.2550  212.8320  141.4880 C   0  0  0  0  0  2  0  0  0  0  0  0
  161.3260  211.6400  141.4170 C   0  0  0  0  0  2  0  0  0  0  0  0
  160.5480  206.2190  145.9640 C   0  0  0  0  0  2  0  0  0  0  0  0
  161.5320  206.9480  146.6820 O   0  0  0  0  0  0  0  0  0  0  0  0
  160.3980  206.7630  148.6640 O   0  0  0  0  0  0  0  0  0  0  0  0
  161.3820  207.2390  148.0420 C   0  0  0  0  0  0  0  0  0  0  0  0
  162.4260  208.0140  148.7900 C   0  0  2  0  0  3  0  0  0  0  0  0
  161.9830  208.1460  150.2450 C   0  0  0  0  0  1  0  0  0  0  0  0
  162.5920  209.2750  148.1990 O   0  0  0  0  0  0  0  0  0  0  0  0
  161.4920  210.0540  148.5850 C   0  0  0  0  0  2  0  0  0  0  0  0
  161.0400  212.6090  146.6070 C   0  0  1  0  0  3  0  0  0  0  0  0
  159.5480  214.4460  149.5920 C   0  0  2  0  0  3  0  0  0  0  0  0
  159.2880  214.2220  146.2520 O   0  0  0  0  0  1  0  0  0  0  0  0
  162.2590  212.2220  147.4750 C   0  0  0  0  0  2  0  0  0  0  0  0
  160.3060  213.8570  147.1390 C   0  0  1  0  0  3  0  0  0  0  0  0
  161.0700  212.2250  149.8540 C   0  0  0  0  0  2  0  0  0  0  0  0
  161.9420  211.4900  148.8050 C   0  0  1  0  0  3  0  0  0  0  0  0
  159.6950  213.4650  148.4580 C   0  0  1  0  0  3  0  0  0  0  0  0
  160.8450  213.6630  149.4270 C   0  0  1  0  0  3  0  0  0  0  0  0
  161.4660  212.8340  145.2950 O   0  0  0  0  0  0  0  0  0  0  0  0
  162.6800  213.5110  145.4230 C   0  0  0  0  0  1  0  0  0  0  0  0
  158.6270  213.8460  150.6440 C   0  0  0  0  0  2  0  0  0  0  0  0
  158.9140  214.4060  152.0240 C   0  0  0  0  0  2  0  0  0  0  0  0
  158.4120  213.4910  153.0330 N   0  0  0  0  0  2  0  0  0  0  0  0
  158.6590  214.1090  154.3250 C   0  0  0  0  0  2  0  0  0  0  0  0
  157.3780  214.1030  155.1360 C   0  0  0  0  0  2  0  0  0  0  0  0
  157.5380  211.7520  155.9560 O   0  0  0  0  0  1  0  0  0  0  0  0
  156.8460  212.7160  155.2340 C   0  0  0  0  0  0  0  0  0  0  0  0
  155.7590  212.4210  154.6720 O   0  0  0  0  0  0  0  0  0  0  0  0
  162.0490  204.3270  145.8430 O   0  0  0  0  0  0  0  0  0  0  0  0
  161.5180  203.3830  146.7270 C   0  0  0  0  0  0  0  0  0  0  0  0
  160.4920  201.5230  148.5530 C   0  0  0  0  0  3  0  0  0  0  0  0
  160.5740  201.1980  147.1980 C   0  0  0  0  0  3  0  0  0  0  0  0
  161.0860  202.1230  146.2880 C   0  0  0  0  0  3  0  0  0  0  0  0
  161.4260  203.7050  148.0850 C   0  0  0  0  0  3  0  0  0  0  0  0
  160.9150  202.7770  149.0070 C   0  0  0  0  0  0  0  0  0  0  0  0
  160.8390  203.0660  150.3720 O   0  0  0  0  0  0  0  0  0  0  0  0
  161.3570  204.2650  150.9320 C   0  0  0  0  0  2  0  0  0  0  0  0
  161.3830  205.6780  152.9920 C   0  0  0  0  0  1  0  0  0  0  0  0
  161.0780  204.3040  152.4260 C   0  0  0  0  0  2  0  0  0  0  0  0
  1  2  1  6  0  0  0
  1 46  1  0  0  0  0
  1 19  1  0  0  0  0
  3  2  1  0  0  0  0
  4  3  1  0  0  0  0
  5  9  1  0  0  0  0
  7  5  2  0  0  0  0
  7  8  1  0  0  0  0
  8 10  2  0  0  0  0
  9 12  1  0  0  0  0
  9  6  2  0  0  0  0
 10  6  1  0  0  0  0
 10  4  1  0  0  0  0
 11 12  2  0  0  0  0
 12 15  1  0  0  0  0
 13 16  1  1  0  0  0
 13 17  1  0  0  0  0
 14 16  1  1  0  0  0
 14 15  1  0  0  0  0
 14 13  1  0  0  0  0
 15 18  1  0  0  0  0
 18 17  1  0  0  0  0
 19 20  1  0  0  0  0
 20 22  1  0  0  0  0
 22 21  2  0  0  0  0
 22 23  1  0  0  0  0
 23 24  1  1  0  0  0
 25 26  1  0  0  0  0
 25 23  1  0  0  0  0
 27 36  1  6  0  0  0
 27 31  1  0  0  0  0
 27 30  1  0  0  0  0
 28 38  1  1  0  0  0
 30 33  1  0  0  0  0
 31 29  1  6  0  0  0
 31 34  1  0  0  0  0
 33 26  1  6  0  0  0
 33 32  1  0  0  0  0
 34 35  1  0  0  0  0
 34 28  1  0  0  0  0
 35 28  1  0  0  0  0
 35 32  1  0  0  0  0
 36 37  1  0  0  0  0
 38 39  1  0  0  0  0
 39 40  1  0  0  0  0
 40 41  1  0  0  0  0
 41 42  1  0  0  0  0
 42 44  1  0  0  0  0
 44 43  1  0  0  0  0
 45 44  2  0  0  0  0
 46 47  1  0  0  0  0
 47 51  1  0  0  0  0
 48 52  1  0  0  0  0
 49 48  2  0  0  0  0
 50 47  2  0  0  0  0
 50 49  1  0  0  0  0
 51 52  2  0  0  0  0
 52 53  1  0  0  0  0
 53 54  1  0  0  0  0
 54 56  1  0  0  0  0
 56 55  1  0  0  0  0
M  END
>  <MODEL>
3

>  <REMARK>
 VINA RESULT:      -6.4      3.974      9.976
  Name = 
  25 active torsions:
  status: ('A' for Active; 'I' for Inactive)
    1  A    between atoms: C_1  and  O_5
    2  A    between atoms: C_3  and  C_30
    3  A    between atoms: C_6  and  C_28
    4  A    between atoms: C_6  and  C_45
    5  A    between atoms: O_8  and  C_18
    6  A    between atoms: O_8  and  C_51
    7  A    between atoms: C_9  and  O_22
    8  A    between atoms: C_11  and  C_30
    9  A    between atoms: C_11  and  N_43
   10  A    between atoms: C_13  and  O_33
   11  A    between atoms: C_13  and  C_45
   12  A    between atoms: C_15  and  C_25
   13  A    between atoms: O_16  and  C_28
   14  A    between atoms: O_16  and  C_47
   15  A    between atoms: C_18  and  C_49
   16  A    between atoms: C_21  and  O_27
   17  A    between atoms: C_21  and  C_55
   18  A    between atoms: O_22  and  C_45
   19  A    between atoms: C_25  and  C_29
   20  A    between atoms: N_26  and  C_44
   21  A    between atoms: O_27  and  C_37
   22  A    between atoms: C_29  and  N_43
   23  A    between atoms: O_33  and  C_55
   24  A    between atoms: C_37  and  C_41
   25  A    between atoms: C_40  and  C_44
                            x       y       z     vdW  Elec       q    Type
                         _______ _______ _______ _____ _____    ______ ____

>  <TORSDO>
F 25

$$$$
=
 OpenBabel11052409523D

 56 61  0  0  1  0  0  0  0  0999 V2000
  161.3450  205.1920  144.8860 C   0  0  2  0  0  3  0  0  0  0  0  0
  162.2380  205.8430  143.8480 C   0  0  0  0  0  2  0  0  0  0  0  0
  161.4750  206.0020  142.5460 C   0  0  0  0  0  2  0  0  0  0  0  0
  162.3720  206.2090  141.4630 O   0  0  0  0  0  0  0  0  0  0  0  0
  161.7150  209.0200  138.4150 C   0  0  0  0  0  3  0  0  0  0  0  0
  162.3690  208.4800  140.6780 C   0  0  0  0  0  3  0  0  0  0  0  0
  161.4870  207.6660  138.1580 C   0  0  0  0  0  3  0  0  0  0  0  0
  161.6990  206.7190  139.1630 C   0  0  0  0  0  3  0  0  0  0  0  0
  162.1650  209.4430  139.6790 C   0  0  0  0  0  0  0  0  0  0  0  0
  162.1430  207.1250  140.4320 C   0  0  0  0  0  0  0  0  0  0  0  0
  163.4910  211.4810  139.5430 C   0  0  0  0  0  2  0  0  0  0  0  0
  162.3760  210.8850  139.9730 C   0  0  0  0  0  0  0  0  0  0  0  0
  159.3250  212.3430  141.5970 N   0  0  2  0  0  0  0  0  0  0  0  0
  159.9740  211.3620  140.7020 C   0  0  2  0  0  3  0  0  0  0  0  0
  161.3920  211.6630  140.6880 N   0  0  0  0  0  0  0  0  0  0  0  0
  159.2060  212.4670  140.1340 C   0  0  0  0  0  2  0  0  0  0  0  0
  160.3740  213.2630  142.0450 C   0  0  0  0  0  2  0  0  0  0  0  0
  161.7200  212.7230  141.6120 C   0  0  0  0  0  2  0  0  0  0  0  0
  160.6690  206.2630  145.7230 C   0  0  0  0  0  2  0  0  0  0  0  0
  161.6400  206.8790  146.5550 O   0  0  0  0  0  0  0  0  0  0  0  0
  160.3340  206.7020  148.4270 O   0  0  0  0  0  0  0  0  0  0  0  0
  161.3900  207.1410  147.9060 C   0  0  0  0  0  0  0  0  0  0  0  0
  162.4060  207.8380  148.7620 C   0  0  2  0  0  3  0  0  0  0  0  0
  161.8700  207.9070  150.1900 C   0  0  0  0  0  1  0  0  0  0  0  0
  162.6500  209.1220  148.2550 O   0  0  0  0  0  0  0  0  0  0  0  0
  161.5300  209.9050  148.5700 C   0  0  0  0  0  2  0  0  0  0  0  0
  160.9250  212.5570  146.7670 C   0  0  1  0  0  3  0  0  0  0  0  0
  159.5910  214.2030  149.9330 C   0  0  2  0  0  3  0  0  0  0  0  0
  159.1330  214.1570  146.6070 O   0  0  0  0  0  1  0  0  0  0  0  0
  162.2000  212.1430  147.5380 C   0  0  0  0  0  2  0  0  0  0  0  0
  160.2080  213.7610  147.4100 C   0  0  1  0  0  3  0  0  0  0  0  0
  161.1560  211.9970  149.9800 C   0  0  0  0  0  2  0  0  0  0  0  0
  161.9730  211.3350  148.8420 C   0  0  1  0  0  3  0  0  0  0  0  0
  159.6830  213.2870  148.7390 C   0  0  1  0  0  3  0  0  0  0  0  0
  160.8870  213.4510  149.6480 C   0  0  1  0  0  3  0  0  0  0  0  0
  161.2680  212.8600  145.4470 O   0  0  0  0  0  0  0  0  0  0  0  0
  162.4980  213.5130  145.5360 C   0  0  0  0  0  1  0  0  0  0  0  0
  158.7430  213.5300  151.0030 C   0  0  0  0  0  2  0  0  0  0  0  0
  158.5080  214.4470  152.1870 C   0  0  0  0  0  2  0  0  0  0  0  0
  159.0110  213.8190  153.3960 N   0  0  0  0  0  2  0  0  0  0  0  0
  159.0190  212.3860  153.1560 C   0  0  0  0  0  2  0  0  0  0  0  0
  160.0350  211.7310  154.0710 C   0  0  0  0  0  2  0  0  0  0  0  0
  160.0350  209.7810  152.5150 O   0  0  0  0  0  0  0  0  0  0  0  0
  160.7420  210.6400  153.3470 C   0  0  0  0  0  0  0  0  0  0  0  0
  161.9870  210.5060  153.4770 O   0  0  0  0  0  1  0  0  0  0  0  0
  162.1220  204.3300  145.7160 O   0  0  0  0  0  0  0  0  0  0  0  0
  161.5570  203.3690  146.5600 C   0  0  0  0  0  0  0  0  0  0  0  0
  160.4650  201.4710  148.3080 C   0  0  0  0  0  3  0  0  0  0  0  0
  160.5460  201.1970  146.9410 C   0  0  0  0  0  3  0  0  0  0  0  0
  161.0910  202.1400  146.0700 C   0  0  0  0  0  3  0  0  0  0  0  0
  161.4660  203.6410  147.9290 C   0  0  0  0  0  3  0  0  0  0  0  0
  160.9220  202.6940  148.8120 C   0  0  0  0  0  0  0  0  0  0  0  0
  160.8460  202.9320  150.1870 O   0  0  0  0  0  0  0  0  0  0  0  0
  161.1340  204.1990  150.7620 C   0  0  0  0  0  2  0  0  0  0  0  0
  161.1740  205.4270  152.9370 C   0  0  0  0  0  1  0  0  0  0  0  0
  161.2630  204.0660  152.2710 C   0  0  0  0  0  2  0  0  0  0  0  0
  1  2  1  6  0  0  0
  1 46  1  0  0  0  0
  1 19  1  0  0  0  0
  3  2  1  0  0  0  0
  4  3  1  0  0  0  0
  5  9  1  0  0  0  0
  7  5  2  0  0  0  0
  7  8  1  0  0  0  0
  8 10  2  0  0  0  0
  9 12  1  0  0  0  0
  9  6  2  0  0  0  0
 10  6  1  0  0  0  0
 10  4  1  0  0  0  0
 11 12  2  0  0  0  0
 12 15  1  0  0  0  0
 13 16  1  6  0  0  0
 13 17  1  0  0  0  0
 14 16  1  6  0  0  0
 14 13  1  0  0  0  0
 15 14  1  0  0  0  0
 15 18  1  0  0  0  0
 18 17  1  0  0  0  0
 19 20  1  0  0  0  0
 20 22  1  0  0  0  0
 22 21  2  0  0  0  0
 22 23  1  0  0  0  0
 23 24  1  1  0  0  0
 25 26  1  0  0  0  0
 25 23  1  0  0  0  0
 27 36  1  6  0  0  0
 27 31  1  0  0  0  0
 27 30  1  0  0  0  0
 28 38  1  1  0  0  0
 30 33  1  0  0  0  0
 31 29  1  6  0  0  0
 31 34  1  0  0  0  0
 33 26  1  6  0  0  0
 33 32  1  0  0  0  0
 34 35  1  0  0  0  0
 34 28  1  0  0  0  0
 35 28  1  0  0  0  0
 35 32  1  0  0  0  0
 36 37  1  0  0  0  0
 38 39  1  0  0  0  0
 39 40  1  0  0  0  0
 41 40  1  0  0  0  0
 41 42  1  0  0  0  0
 43 44  2  0  0  0  0
 44 45  1  0  0  0  0
 44 42  1  0  0  0  0
 46 47  1  0  0  0  0
 47 51  1  0  0  0  0
 48 52  1  0  0  0  0
 49 48  2  0  0  0  0
 50 47  2  0  0  0  0
 50 49  1  0  0  0  0
 51 52  2  0  0  0  0
 52 53  1  0  0  0  0
 53 54  1  0  0  0  0
 54 56  1  0  0  0  0
 56 55  1  0  0  0  0
M  END
>  <MODEL>
4

>  <REMARK>
 VINA RESULT:      -6.4      3.586      9.885
  Name = 
  25 active torsions:
  status: ('A' for Active; 'I' for Inactive)
    1  A    between atoms: C_1  and  O_5
    2  A    between atoms: C_3  and  C_30
    3  A    between atoms: C_6  and  C_28
    4  A    between atoms: C_6  and  C_45
    5  A    between atoms: O_8  and  C_18
    6  A    between atoms: O_8  and  C_51
    7  A    between atoms: C_9  and  O_22
    8  A    between atoms: C_11  and  C_30
    9  A    between atoms: C_11  and  N_43
   10  A    between atoms: C_13  and  O_33
   11  A    between atoms: C_13  and  C_45
   12  A    between atoms: C_15  and  C_25
   13  A    between atoms: O_16  and  C_28
   14  A    between atoms: O_16  and  C_47
   15  A    between atoms: C_18  and  C_49
   16  A    between atoms: C_21  and  O_27
   17  A    between atoms: C_21  and  C_55
   18  A    between atoms: O_22  and  C_45
   19  A    between atoms: C_25  and  C_29
   20  A    between atoms: N_26  and  C_44
   21  A    between atoms: O_27  and  C_37
   22  A    between atoms: C_29  and  N_43
   23  A    between atoms: O_33  and  C_55
   24  A    between atoms: C_37  and  C_41
   25  A    between atoms: C_40  and  C_44
                            x       y       z     vdW  Elec       q    Type
                         _______ _______ _______ _____ _____    ______ ____

>  <TORSDO>
F 25

$$$$
=
 OpenBabel11052409523D

 56 61  0  0  1  0  0  0  0  0999 V2000
  161.6920  205.2110  144.1400 C   0  0  2  0  0  3  0  0  0  0  0  0
  162.3930  205.7300  145.3800 C   0  0  0  0  0  2  0  0  0  0  0  0
  161.3880  206.4270  146.2800 C   0  0  0  0  0  2  0  0  0  0  0  0
  162.0440  207.0250  147.3910 O   0  0  0  0  0  0  0  0  0  0  0  0
  160.8590  206.5370  151.3890 C   0  0  0  0  0  3  0  0  0  0  0  0
  161.7490  207.9060  149.6070 C   0  0  0  0  0  3  0  0  0  0  0  0
  160.7500  205.4590  150.5050 C   0  0  0  0  0  3  0  0  0  0  0  0
  161.1430  205.6060  149.1730 C   0  0  0  0  0  3  0  0  0  0  0  0
  161.3560  207.7770  150.9470 C   0  0  0  0  0  0  0  0  0  0  0  0
  161.6450  206.8360  148.7170 C   0  0  0  0  0  0  0  0  0  0  0  0
  161.9340  210.0940  151.4210 C   0  0  0  0  0  2  0  0  0  0  0  0
  161.5090  208.9190  151.8870 C   0  0  0  0  0  0  0  0  0  0  0  0
  161.1460  207.9760  155.5000 N   0  0  2  0  0  0  0  0  0  0  0  0
  161.6310  207.7020  154.1310 C   0  0  2  0  0  3  0  0  0  0  0  0
  161.1820  208.7920  153.2880 N   0  0  0  0  0  0  0  0  0  0  0  0
  160.4930  206.9550  154.6610 C   0  0  0  0  0  2  0  0  0  0  0  0
  160.3450  209.2010  155.4260 C   0  0  0  0  0  2  0  0  0  0  0  0
  160.5170  209.8200  154.0560 C   0  0  0  0  0  2  0  0  0  0  0  0
  161.4050  206.3620  143.1940 C   0  0  0  0  0  2  0  0  0  0  0  0
  161.7600  205.9750  141.8750 O   0  0  0  0  0  0  0  0  0  0  0  0
  163.5180  207.1770  141.0320 O   0  0  0  0  0  0  0  0  0  0  0  0
  162.2960  206.8890  140.9610 C   0  0  0  0  0  0  0  0  0  0  0  0
  161.4680  207.4410  139.8400 C   0  0  2  0  0  3  0  0  0  0  0  0
  162.0240  206.9130  138.5200 C   0  0  0  0  0  1  0  0  0  0  0  0
  161.5010  208.8430  139.8740 O   0  0  0  0  0  0  0  0  0  0  0  0
  161.5960  209.2810  138.5450 C   0  0  0  0  0  2  0  0  0  0  0  0
  159.5590  211.8300  138.5630 C   0  0  1  0  0  3  0  0  0  0  0  0
  161.5220  213.1680  141.5410 C   0  0  2  0  0  3  0  0  0  0  0  0
  158.4220  213.1130  140.2530 O   0  0  0  0  0  1  0  0  0  0  0  0
  160.8880  211.6190  137.8020 C   0  0  0  0  0  2  0  0  0  0  0  0
  159.6780  212.8850  139.6820 C   0  0  1  0  0  3  0  0  0  0  0  0
  162.4900  211.2520  139.8940 C   0  0  0  0  0  2  0  0  0  0  0  0
  161.9570  210.7590  138.5250 C   0  0  1  0  0  3  0  0  0  0  0  0
  160.5970  212.3040  140.7230 C   0  0  1  0  0  3  0  0  0  0  0  0
  161.9710  212.6480  140.1800 C   0  0  1  0  0  3  0  0  0  0  0  0
  158.5690  212.2130  137.6550 O   0  0  0  0  0  0  0  0  0  0  0  0
  157.6750  211.1420  137.6250 C   0  0  0  0  0  1  0  0  0  0  0  0
  162.0700  212.3420  142.6970 C   0  0  0  0  0  2  0  0  0  0  0  0
  161.6280  212.8960  144.0370 C   0  0  0  0  0  2  0  0  0  0  0  0
  162.7960  213.2140  144.8400 N   0  0  0  0  0  2  0  0  0  0  0  0
  162.3770  214.1900  145.8310 C   0  0  0  0  0  2  0  0  0  0  0  0
  162.5830  213.6150  147.2180 C   0  0  0  0  0  2  0  0  0  0  0  0
  161.3340  211.5100  147.6990 O   0  0  0  0  0  0  0  0  0  0  0  0
  161.3550  212.8980  147.6580 C   0  0  0  0  0  0  0  0  0  0  0  0
  160.3380  213.5530  148.0070 O   0  0  0  0  0  1  0  0  0  0  0  0
  160.4780  204.5590  144.5130 O   0  0  0  0  0  0  0  0  0  0  0  0
  160.4320  203.2480  144.9960 C   0  0  0  0  0  0  0  0  0  0  0  0
  160.4030  200.6320  145.9980 C   0  0  0  0  0  3  0  0  0  0  0  0
  159.7250  200.9340  144.8160 C   0  0  0  0  0  3  0  0  0  0  0  0
  159.7400  202.2360  144.3150 C   0  0  0  0  0  3  0  0  0  0  0  0
  161.1020  202.9410  146.1840 C   0  0  0  0  0  3  0  0  0  0  0  0
  161.0950  201.6320  146.6920 C   0  0  0  0  0  0  0  0  0  0  0  0
  161.7810  201.2950  147.8620 O   0  0  0  0  0  0  0  0  0  0  0  0
  161.1220  200.8060  149.0220 C   0  0  0  0  0  2  0  0  0  0  0  0
  161.0660  202.1410  151.1340 C   0  0  0  0  0  1  0  0  0  0  0  0
  160.4500  201.9530  149.7590 C   0  0  0  0  0  2  0  0  0  0  0  0
  1 19  1  6  0  0  0
  1 46  1  0  0  0  0
  1  2  1  0  0  0  0
  2  3  1  0  0  0  0
  3  4  1  0  0  0  0
  4 10  1  0  0  0  0
  6  9  2  0  0  0  0
  7  5  2  0  0  0  0
  8  7  1  0  0  0  0
  9  5  1  0  0  0  0
  9 12  1  0  0  0  0
 10  8  2  0  0  0  0
 10  6  1  0  0  0  0
 11 12  2  0  0  0  0
 12 15  1  0  0  0  0
 13 16  1  6  0  0  0
 14 16  1  6  0  0  0
 14 13  1  0  0  0  0
 15 18  1  0  0  0  0
 15 14  1  0  0  0  0
 17 13  1  0  0  0  0
 18 17  1  0  0  0  0
 20 19  1  0  0  0  0
 22 21  2  0  0  0  0
 22 20  1  0  0  0  0
 23 24  1  6  0  0  0
 23 25  1  0  0  0  0
 23 22  1  0  0  0  0
 26 25  1  0  0  0  0
 27 36  1  6  0  0  0
 27 31  1  0  0  0  0
 28 38  1  1  0  0  0
 30 33  1  0  0  0  0
 30 27  1  0  0  0  0
 31 29  1  1  0  0  0
 31 34  1  0  0  0  0
 32 35  1  0  0  0  0
 33 26  1  1  0  0  0
 33 32  1  0  0  0  0
 34 28  1  0  0  0  0
 35 34  1  0  0  0  0
 35 28  1  0  0  0  0
 37 36  1  0  0  0  0
 38 39  1  0  0  0  0
 39 40  1  0  0  0  0
 40 41  1  0  0  0  0
 41 42  1  0  0  0  0
 42 44  1  0  0  0  0
 44 43  2  0  0  0  0
 44 45  1  0  0  0  0
 46 47  1  0  0  0  0
 47 51  1  0  0  0  0
 48 52  1  0  0  0  0
 49 48  2  0  0  0  0
 50 49  1  0  0  0  0
 50 47  2  0  0  0  0
 51 52  2  0  0  0  0
 52 53  1  0  0  0  0
 53 54  1  0  0  0  0
 54 56  1  0  0  0  0
 56 55  1  0  0  0  0
M  END
>  <MODEL>
5

>  <REMARK>
 VINA RESULT:      -6.1      2.926      7.850
  Name = 
  25 active torsions:
  status: ('A' for Active; 'I' for Inactive)
    1  A    between atoms: C_1  and  O_5
    2  A    between atoms: C_3  and  C_30
    3  A    between atoms: C_6  and  C_28
    4  A    between atoms: C_6  and  C_45
    5  A    between atoms: O_8  and  C_18
    6  A    between atoms: O_8  and  C_51
    7  A    between atoms: C_9  and  O_22
    8  A    between atoms: C_11  and  C_30
    9  A    between atoms: C_11  and  N_43
   10  A    between atoms: C_13  and  O_33
   11  A    between atoms: C_13  and  C_45
   12  A    between atoms: C_15  and  C_25
   13  A    between atoms: O_16  and  C_28
   14  A    between atoms: O_16  and  C_47
   15  A    between atoms: C_18  and  C_49
   16  A    between atoms: C_21  and  O_27
   17  A    between atoms: C_21  and  C_55
   18  A    between atoms: O_22  and  C_45
   19  A    between atoms: C_25  and  C_29
   20  A    between atoms: N_26  and  C_44
   21  A    between atoms: O_27  and  C_37
   22  A    between atoms: C_29  and  N_43
   23  A    between atoms: O_33  and  C_55
   24  A    between atoms: C_37  and  C_41
   25  A    between atoms: C_40  and  C_44
                            x       y       z     vdW  Elec       q    Type
                         _______ _______ _______ _____ _____    ______ ____

>  <TORSDO>
F 25

$$$$
=
 OpenBabel11052409523D

 56 61  0  0  1  0  0  0  0  0999 V2000
  162.0490  209.3620  149.4170 C   0  0  2  0  0  3  0  0  0  0  0  0
  162.5860  210.4720  150.2990 C   0  0  0  0  0  2  0  0  0  0  0  0
  161.7360  210.5860  151.5510 C   0  0  0  0  0  2  0  0  0  0  0  0
  160.7200  211.5650  151.3780 O   0  0  0  0  0  0  0  0  0  0  0  0
  158.6580  213.2730  154.6120 C   0  0  0  0  0  3  0  0  0  0  0  0
  160.0670  211.5390  153.6910 C   0  0  0  0  0  3  0  0  0  0  0  0
  158.6080  213.8950  153.3620 C   0  0  0  0  0  3  0  0  0  0  0  0
  159.2860  213.3370  152.2760 C   0  0  0  0  0  3  0  0  0  0  0  0
  159.3940  212.0870  154.7920 C   0  0  0  0  0  0  0  0  0  0  0  0
  160.0220  212.1520  152.4380 C   0  0  0  0  0  0  0  0  0  0  0  0
  158.3820  211.5230  156.9340 C   0  0  0  0  0  2  0  0  0  0  0  0
  159.4250  211.3990  156.1100 C   0  0  0  0  0  0  0  0  0  0  0  0
  162.6890  209.9510  157.2580 N   0  0  2  0  0  0  0  0  0  0  0  0
  161.8550  211.0960  156.8390 C   0  0  2  0  0  3  0  0  0  0  0  0
  160.5430  210.5770  156.5060 N   0  0  0  0  0  0  0  0  0  0  0  0
  162.8670  210.5650  155.9300 C   0  0  0  0  0  2  0  0  0  0  0  0
  161.8670  208.7490  157.0920 C   0  0  0  0  0  2  0  0  0  0  0  0
  160.4440  209.1630  156.7870 C   0  0  0  0  0  2  0  0  0  0  0  0
  161.4130  209.9580  148.1750 C   0  0  0  0  0  2  0  0  0  0  0  0
  161.8160  211.3140  148.0560 O   0  0  0  0  0  0  0  0  0  0  0  0
  159.9710  212.6670  147.9480 O   0  0  0  0  0  0  0  0  0  0  0  0
  161.0250  212.2600  147.3960 C   0  0  0  0  0  0  0  0  0  0  0  0
  161.4660  212.8720  146.1000 C   0  0  2  0  0  3  0  0  0  0  0  0
  162.3410  214.0840  146.4090 C   0  0  0  0  0  1  0  0  0  0  0  0
  160.3430  213.2430  145.3460 O   0  0  0  0  0  0  0  0  0  0  0  0
  160.5160  212.7020  144.0640 C   0  0  0  0  0  2  0  0  0  0  0  0
  161.9890  212.9780  141.1660 C   0  0  1  0  0  3  0  0  0  0  0  0
  158.5210  213.2940  139.6190 C   0  0  2  0  0  3  0  0  0  0  0  0
  161.5980  212.1250  138.9480 O   0  0  0  0  0  1  0  0  0  0  0  0
  161.6090  214.0630  142.2000 C   0  0  0  0  0  2  0  0  0  0  0  0
  161.1310  213.0530  139.8850 C   0  0  1  0  0  3  0  0  0  0  0  0
  158.9810  213.6500  142.2600 C   0  0  0  0  0  2  0  0  0  0  0  0
  160.3230  213.7950  143.0240 C   0  0  1  0  0  3  0  0  0  0  0  0
  159.7280  212.6860  140.2880 C   0  0  1  0  0  3  0  0  0  0  0  0
  159.1750  214.0030  140.7990 C   0  0  1  0  0  3  0  0  0  0  0  0
  163.3400  213.1130  140.8380 O   0  0  0  0  0  0  0  0  0  0  0  0
  163.4920  214.4530  140.4820 C   0  0  0  0  0  1  0  0  0  0  0  0
  157.2860  212.5000  140.0190 C   0  0  0  0  0  2  0  0  0  0  0  0
  156.1290  212.7510  139.0720 C   0  0  0  0  0  2  0  0  0  0  0  0
  155.8960  211.5660  138.2670 N   0  0  0  0  0  2  0  0  0  0  0  0
  154.4600  211.4700  138.0600 C   0  0  0  0  0  2  0  0  0  0  0  0
  153.9770  210.1130  138.5300 C   0  0  0  0  0  2  0  0  0  0  0  0
  155.5620  208.4810  137.5060 O   0  0  0  0  0  0  0  0  0  0  0  0
  155.1250  209.1720  138.6290 C   0  0  0  0  0  0  0  0  0  0  0  0
  155.7120  209.0130  139.7320 O   0  0  0  0  0  1  0  0  0  0  0  0
  161.0920  208.5920  150.1450 O   0  0  0  0  0  0  0  0  0  0  0  0
  161.1470  207.1980  150.2390 C   0  0  0  0  0  0  0  0  0  0  0  0
  161.2160  204.4000  150.3650 C   0  0  0  0  0  3  0  0  0  0  0  0
  161.3230  205.1550  151.5350 C   0  0  0  0  0  3  0  0  0  0  0  0
  161.2870  206.5480  151.4740 C   0  0  0  0  0  3  0  0  0  0  0  0
  161.0480  206.4370  149.0700 C   0  0  0  0  0  3  0  0  0  0  0  0
  161.0800  205.0340  149.1250 C   0  0  0  0  0  0  0  0  0  0  0  0
  160.9560  204.2520  147.9730 O   0  0  0  0  0  0  0  0  0  0  0  0
  161.6710  203.0380  147.7910 C   0  0  0  0  0  2  0  0  0  0  0  0
  160.5210  201.2440  149.0960 C   0  0  0  0  0  1  0  0  0  0  0  0
  160.7010  201.8690  147.7250 C   0  0  0  0  0  2  0  0  0  0  0  0
  1 19  1  6  0  0  0
  1 46  1  0  0  0  0
  1  2  1  0  0  0  0
  2  3  1  0  0  0  0
  4  3  1  0  0  0  0
  4 10  1  0  0  0  0
  5  9  1  0  0  0  0
  6  9  2  0  0  0  0
  7  5  2  0  0  0  0
  8 10  2  0  0  0  0
  8  7  1  0  0  0  0
  9 12  1  0  0  0  0
 10  6  1  0  0  0  0
 12 15  1  0  0  0  0
 12 11  2  0  0  0  0
 13 16  1  6  0  0  0
 14 16  1  6  0  0  0
 14 13  1  0  0  0  0
 15 18  1  0  0  0  0
 15 14  1  0  0  0  0
 17 13  1  0  0  0  0
 18 17  1  0  0  0  0
 20 19  1  0  0  0  0
 22 21  2  0  0  0  0
 22 20  1  0  0  0  0
 23 24  1  1  0  0  0
 23 22  1  0  0  0  0
 25 23  1  0  0  0  0
 26 25  1  0  0  0  0
 27 36  1  6  0  0  0
 27 30  1  0  0  0  0
 28 38  1  1  0  0  0
 28 34  1  0  0  0  0
 28 35  1  0  0  0  0
 30 33  1  0  0  0  0
 31 29  1  6  0  0  0
 31 34  1  0  0  0  0
 31 27  1  0  0  0  0
 32 33  1  0  0  0  0
 33 26  1  6  0  0  0
 34 35  1  0  0  0  0
 35 32  1  0  0  0  0
 37 36  1  0  0  0  0
 39 38  1  0  0  0  0
 40 39  1  0  0  0  0
 41 40  1  0  0  0  0
 41 42  1  0  0  0  0
 42 44  1  0  0  0  0
 43 44  2  0  0  0  0
 44 45  1  0  0  0  0
 46 47  1  0  0  0  0
 47 50  1  0  0  0  0
 48 49  1  0  0  0  0
 50 49  2  0  0  0  0
 51 52  1  0  0  0  0
 51 47  2  0  0  0  0
 52 48  2  0  0  0  0
 53 52  1  0  0  0  0
 54 53  1  0  0  0  0
 56 54  1  0  0  0  0
 56 55  1  0  0  0  0
M  END
>  <MODEL>
6

>  <REMARK>
 VINA RESULT:      -5.6      2.427      6.374
  Name = 
  25 active torsions:
  status: ('A' for Active; 'I' for Inactive)
    1  A    between atoms: C_1  and  O_5
    2  A    between atoms: C_3  and  C_30
    3  A    between atoms: C_6  and  C_28
    4  A    between atoms: C_6  and  C_45
    5  A    between atoms: O_8  and  C_18
    6  A    between atoms: O_8  and  C_51
    7  A    between atoms: C_9  and  O_22
    8  A    between atoms: C_11  and  C_30
    9  A    between atoms: C_11  and  N_43
   10  A    between atoms: C_13  and  O_33
   11  A    between atoms: C_13  and  C_45
   12  A    between atoms: C_15  and  C_25
   13  A    between atoms: O_16  and  C_28
   14  A    between atoms: O_16  and  C_47
   15  A    between atoms: C_18  and  C_49
   16  A    between atoms: C_21  and  O_27
   17  A    between atoms: C_21  and  C_55
   18  A    between atoms: O_22  and  C_45
   19  A    between atoms: C_25  and  C_29
   20  A    between atoms: N_26  and  C_44
   21  A    between atoms: O_27  and  C_37
   22  A    between atoms: C_29  and  N_43
   23  A    between atoms: O_33  and  C_55
   24  A    between atoms: C_37  and  C_41
   25  A    between atoms: C_40  and  C_44
                            x       y       z     vdW  Elec       q    Type
                         _______ _______ _______ _____ _____    ______ ____

>  <TORSDO>
F 25

$$$$
=
 OpenBabel11052409523D

 56 61  0  0  1  0  0  0  0  0999 V2000
  161.9870  209.3650  149.3450 C   0  0  2  0  0  3  0  0  0  0  0  0
  162.4650  210.4160  150.3270 C   0  0  0  0  0  2  0  0  0  0  0  0
  161.4120  210.6310  151.3980 C   0  0  0  0  0  2  0  0  0  0  0  0
  161.8290  210.0580  152.6310 O   0  0  0  0  0  0  0  0  0  0  0  0
  159.6450  210.5040  156.1880 C   0  0  0  0  0  3  0  0  0  0  0  0
  160.4450  211.3810  154.0840 C   0  0  0  0  0  3  0  0  0  0  0  0
  160.3070  209.2980  155.9380 C   0  0  0  0  0  3  0  0  0  0  0  0
  161.0390  209.1370  154.7590 C   0  0  0  0  0  3  0  0  0  0  0  0
  159.7020  211.5590  155.2600 C   0  0  0  0  0  0  0  0  0  0  0  0
  161.1110  210.1820  153.8240 C   0  0  0  0  0  0  0  0  0  0  0  0
  159.6580  213.7690  156.2810 C   0  0  0  0  0  2  0  0  0  0  0  0
  159.0310  212.8570  155.5350 C   0  0  0  0  0  0  0  0  0  0  0  0
  155.4360  213.7010  154.8750 N   0  0  2  0  0  0  0  0  0  0  0  0
  156.5330  213.3260  155.7920 C   0  0  2  0  0  3  0  0  0  0  0  0
  157.7300  213.1640  154.9910 N   0  0  0  0  0  0  0  0  0  0  0  0
  155.5250  212.3360  155.4230 C   0  0  0  0  0  2  0  0  0  0  0  0
  155.9950  213.6800  153.5210 C   0  0  0  0  0  2  0  0  0  0  0  0
  157.4970  213.5170  153.6100 C   0  0  0  0  0  2  0  0  0  0  0  0
  161.4000  210.0390  148.1190 C   0  0  0  0  0  2  0  0  0  0  0  0
  161.7740  211.4080  148.1230 O   0  0  0  0  0  0  0  0  0  0  0  0
  159.8590  212.6630  148.0700 O   0  0  0  0  0  0  0  0  0  0  0  0
  160.9670  212.3920  147.5410 C   0  0  0  0  0  0  0  0  0  0  0  0
  161.4460  213.1970  146.3700 C   0  0  2  0  0  3  0  0  0  0  0  0
  162.2830  214.3620  146.8930 C   0  0  0  0  0  1  0  0  0  0  0  0
  160.3470  213.6600  145.6330 O   0  0  0  0  0  0  0  0  0  0  0  0
  160.2030  212.8030  144.5330 C   0  0  0  0  0  2  0  0  0  0  0  0
  162.4780  213.5220  142.3070 C   0  0  1  0  0  3  0  0  0  0  0  0
  160.0880  212.1700  139.6670 C   0  0  2  0  0  3  0  0  0  0  0  0
  163.3660  212.4480  140.3430 O   0  0  0  0  0  1  0  0  0  0  0  0
  161.3320  214.3880  142.8790 C   0  0  0  0  0  2  0  0  0  0  0  0
  162.2460  213.1290  140.8330 C   0  0  1  0  0  3  0  0  0  0  0  0
  159.2810  212.8570  142.1560 C   0  0  0  0  0  2  0  0  0  0  0  0
  160.0360  213.6300  143.2660 C   0  0  1  0  0  3  0  0  0  0  0  0
  161.0590  212.2040  140.8200 C   0  0  1  0  0  3  0  0  0  0  0  0
  159.8880  213.1680  140.8020 C   0  0  1  0  0  3  0  0  0  0  0  0
  163.6820  214.2220  142.4260 O   0  0  0  0  0  0  0  0  0  0  0  0
  163.9570  214.2340  143.7940 C   0  0  0  0  0  1  0  0  0  0  0  0
  159.2060  210.9370  139.8050 C   0  0  0  0  0  2  0  0  0  0  0  0
  158.1270  210.9010  138.7400 C   0  0  0  0  0  2  0  0  0  0  0  0
  157.1910  209.8310  139.0350 N   0  0  0  0  0  2  0  0  0  0  0  0
  155.9760  210.1140  138.2890 C   0  0  0  0  0  2  0  0  0  0  0  0
  154.8600  210.4490  139.2600 C   0  0  0  0  0  2  0  0  0  0  0  0
  154.2690  212.4880  140.5690 O   0  0  0  0  0  1  0  0  0  0  0  0
  154.7210  211.9250  139.3820 C   0  0  0  0  0  0  0  0  0  0  0  0
  155.0280  212.6660  138.4120 O   0  0  0  0  0  0  0  0  0  0  0  0
  161.0100  208.5340  149.9710 O   0  0  0  0  0  0  0  0  0  0  0  0
  161.2100  207.1720  150.2180 C   0  0  0  0  0  0  0  0  0  0  0  0
  161.5640  204.4280  150.6570 C   0  0  0  0  0  3  0  0  0  0  0  0
  161.7650  205.3340  151.7000 C   0  0  0  0  0  3  0  0  0  0  0  0
  161.5870  206.7000  151.4830 C   0  0  0  0  0  3  0  0  0  0  0  0
  161.0180  206.2610  149.1740 C   0  0  0  0  0  3  0  0  0  0  0  0
  161.1920  204.8830  149.3860 C   0  0  0  0  0  0  0  0  0  0  0  0
  160.9790  203.9510  148.3670 O   0  0  0  0  0  0  0  0  0  0  0  0
  161.5120  202.6350  148.4090 C   0  0  0  0  0  2  0  0  0  0  0  0
  161.2430  200.3000  147.5610 C   0  0  0  0  0  1  0  0  0  0  0  0
  160.6930  201.7140  147.5200 C   0  0  0  0  0  2  0  0  0  0  0  0
  1 19  1  6  0  0  0
  1 46  1  0  0  0  0
  1  2  1  0  0  0  0
  2  3  1  0  0  0  0
  3  4  1  0  0  0  0
  4 10  1  0  0  0  0
  6  9  1  0  0  0  0
  7  5  1  0  0  0  0
  8  7  2  0  0  0  0
  9 12  1  0  0  0  0
  9  5  2  0  0  0  0
 10  6  2  0  0  0  0
 10  8  1  0  0  0  0
 12 11  2  0  0  0  0
 13 17  1  6  0  0  0
 13 16  1  0  0  0  0
 13 14  1  0  0  0  0
 14 16  1  6  0  0  0
 15 12  1  0  0  0  0
 15 14  1  0  0  0  0
 17 18  1  0  0  0  0
 18 15  1  0  0  0  0
 19 20  1  0  0  0  0
 22 21  2  0  0  0  0
 22 20  1  0  0  0  0
 23 24  1  1  0  0  0
 23 22  1  0  0  0  0
 25 23  1  0  0  0  0
 26 25  1  0  0  0  0
 27 36  1  6  0  0  0
 27 30  1  0  0  0  0
 28 38  1  1  0  0  0
 28 35  1  0  0  0  0
 28 34  1  0  0  0  0
 30 33  1  0  0  0  0
 31 29  1  1  0  0  0
 31 27  1  0  0  0  0
 32 33  1  0  0  0  0
 33 26  1  1  0  0  0
 34 31  1  0  0  0  0
 35 34  1  0  0  0  0
 35 32  1  0  0  0  0
 36 37  1  0  0  0  0
 39 40  1  0  0  0  0
 39 38  1  0  0  0  0
 41 40  1  0  0  0  0
 41 42  1  0  0  0  0
 42 44  1  0  0  0  0
 44 43  1  0  0  0  0
 45 44  2  0  0  0  0
 46 47  1  0  0  0  0
 47 50  1  0  0  0  0
 48 49  1  0  0  0  0
 50 49  2  0  0  0  0
 51 52  1  0  0  0  0
 51 47  2  0  0  0  0
 52 48  2  0  0  0  0
 53 54  1  0  0  0  0
 53 52  1  0  0  0  0
 56 55  1  0  0  0  0
 56 54  1  0  0  0  0
M  END
>  <MODEL>
7

>  <REMARK>
 VINA RESULT:      -5.4      2.914      7.036
  Name = 
  25 active torsions:
  status: ('A' for Active; 'I' for Inactive)
    1  A    between atoms: C_1  and  O_5
    2  A    between atoms: C_3  and  C_30
    3  A    between atoms: C_6  and  C_28
    4  A    between atoms: C_6  and  C_45
    5  A    between atoms: O_8  and  C_18
    6  A    between atoms: O_8  and  C_51
    7  A    between atoms: C_9  and  O_22
    8  A    between atoms: C_11  and  C_30
    9  A    between atoms: C_11  and  N_43
   10  A    between atoms: C_13  and  O_33
   11  A    between atoms: C_13  and  C_45
   12  A    between atoms: C_15  and  C_25
   13  A    between atoms: O_16  and  C_28
   14  A    between atoms: O_16  and  C_47
   15  A    between atoms: C_18  and  C_49
   16  A    between atoms: C_21  and  O_27
   17  A    between atoms: C_21  and  C_55
   18  A    between atoms: O_22  and  C_45
   19  A    between atoms: C_25  and  C_29
   20  A    between atoms: N_26  and  C_44
   21  A    between atoms: O_27  and  C_37
   22  A    between atoms: C_29  and  N_43
   23  A    between atoms: O_33  and  C_55
   24  A    between atoms: C_37  and  C_41
   25  A    between atoms: C_40  and  C_44
                            x       y       z     vdW  Elec       q    Type
                         _______ _______ _______ _____ _____    ______ ____

>  <TORSDO>
F 25

$$$$
=
 OpenBabel11052409523D

 56 61  0  0  1  0  0  0  0  0999 V2000
  161.2520  205.1750  144.4230 C   0  0  2  0  0  3  0  0  0  0  0  0
  162.1500  205.9340  143.4670 C   0  0  0  0  0  2  0  0  0  0  0  0
  161.4450  206.1070  142.1340 C   0  0  0  0  0  2  0  0  0  0  0  0
  162.3460  206.6050  141.1530 O   0  0  0  0  0  0  0  0  0  0  0  0
  161.3540  209.5790  138.3600 C   0  0  0  0  0  3  0  0  0  0  0  0
  162.3310  208.9080  140.4660 C   0  0  0  0  0  3  0  0  0  0  0  0
  161.0200  208.2480  138.0920 C   0  0  0  0  0  3  0  0  0  0  0  0
  161.3420  207.2490  139.0130 C   0  0  0  0  0  3  0  0  0  0  0  0
  162.0190  209.9240  139.5510 C   0  0  0  0  0  0  0  0  0  0  0  0
  162.0020  207.5770  140.2090 C   0  0  0  0  0  0  0  0  0  0  0  0
  163.1620  212.0140  139.0480 C   0  0  0  0  0  2  0  0  0  0  0  0
  162.3460  211.3410  139.8610 C   0  0  0  0  0  0  0  0  0  0  0  0
  161.4680  213.5870  142.7340 N   0  0  2  0  0  0  0  0  0  0  0  0
  162.3860  213.1550  141.6600 C   0  0  2  0  0  3  0  0  0  0  0  0
  161.7790  212.0130  141.0060 N   0  0  0  0  0  0  0  0  0  0  0  0
  162.7020  212.8470  143.0520 C   0  0  0  0  0  2  0  0  0  0  0  0
  160.3550  212.6340  142.7450 C   0  0  0  0  0  2  0  0  0  0  0  0
  160.4600  211.7400  141.5290 C   0  0  0  0  0  2  0  0  0  0  0  0
  160.5700  206.1480  145.3670 C   0  0  0  0  0  2  0  0  0  0  0  0
  161.5060  206.5720  146.3470 O   0  0  0  0  0  0  0  0  0  0  0  0
  160.0900  206.1650  148.1010 O   0  0  0  0  0  0  0  0  0  0  0  0
  161.1480  206.7070  147.6930 C   0  0  0  0  0  0  0  0  0  0  0  0
  162.0570  207.3890  148.6720 C   0  0  2  0  0  3  0  0  0  0  0  0
  161.2910  207.6030  149.9750 C   0  0  0  0  0  1  0  0  0  0  0  0
  162.4920  208.6110  148.1400 O   0  0  0  0  0  0  0  0  0  0  0  0
  161.5300  209.5720  148.4810 C   0  0  0  0  0  2  0  0  0  0  0  0
  160.8790  212.7500  148.8270 C   0  0  1  0  0  3  0  0  0  0  0  0
  160.1450  212.0320  152.4960 C   0  0  2  0  0  3  0  0  0  0  0  0
  159.2120  214.0510  149.9800 O   0  0  0  0  0  1  0  0  0  0  0  0
  162.2160  211.9850  148.9610 C   0  0  0  0  0  2  0  0  0  0  0  0
  160.3570  213.2730  150.1820 C   0  0  1  0  0  3  0  0  0  0  0  0
  161.5250  210.3210  150.9190 C   0  0  0  0  0  2  0  0  0  0  0  0
  162.1170  210.5350  149.5020 C   0  0  1  0  0  3  0  0  0  0  0  0
  159.9940  212.0600  150.9960 C   0  0  1  0  0  3  0  0  0  0  0  0
  161.3240  211.6590  151.6040 C   0  0  1  0  0  3  0  0  0  0  0  0
  161.0520  213.8190  147.9430 O   0  0  0  0  0  0  0  0  0  0  0  0
  162.3370  214.2960  148.2030 C   0  0  0  0  0  1  0  0  0  0  0  0
  159.4110  210.8160  153.0410 C   0  0  0  0  0  2  0  0  0  0  0  0
  159.7600  210.5560  154.4930 C   0  0  0  0  0  2  0  0  0  0  0  0
  160.0180  211.8190  155.1630 N   0  0  0  0  0  2  0  0  0  0  0  0
  159.0100  211.9610  156.2010 C   0  0  0  0  0  2  0  0  0  0  0  0
  157.9450  212.9330  155.7340 C   0  0  0  0  0  2  0  0  0  0  0  0
  156.2950  211.0650  155.6280 O   0  0  0  0  0  0  0  0  0  0  0  0
  156.5930  212.3700  155.9980 C   0  0  0  0  0  0  0  0  0  0  0  0
  155.7220  213.0750  156.5730 O   0  0  0  0  0  1  0  0  0  0  0  0
  162.0260  204.2280  145.1590 O   0  0  0  0  0  0  0  0  0  0  0  0
  161.4580  203.2680  146.0020 C   0  0  0  0  0  0  0  0  0  0  0  0
  160.3640  201.3680  147.7470 C   0  0  0  0  0  3  0  0  0  0  0  0
  160.3590  201.1370  146.3700 C   0  0  0  0  0  3  0  0  0  0  0  0
  160.9050  202.0810  145.5000 C   0  0  0  0  0  3  0  0  0  0  0  0
  161.4530  203.4980  147.3820 C   0  0  0  0  0  3  0  0  0  0  0  0
  160.9080  202.5490  148.2630 C   0  0  0  0  0  0  0  0  0  0  0  0
  160.9170  202.7440  149.6470 O   0  0  0  0  0  0  0  0  0  0  0  0
  160.7540  204.0240  150.2410 C   0  0  0  0  0  2  0  0  0  0  0  0
  160.9470  205.2700  152.3990 C   0  0  0  0  0  1  0  0  0  0  0  0
  161.3810  204.0380  151.6260 C   0  0  0  0  0  2  0  0  0  0  0  0
  1  2  1  6  0  0  0
  1 46  1  0  0  0  0
  1 19  1  0  0  0  0
  3  2  1  0  0  0  0
  4  3  1  0  0  0  0
  5  9  1  0  0  0  0
  7  5  2  0  0  0  0
  7  8  1  0  0  0  0
  8 10  2  0  0  0  0
  9 12  1  0  0  0  0
  9  6  2  0  0  0  0
 10  6  1  0  0  0  0
 10  4  1  0  0  0  0
 11 12  2  0  0  0  0
 12 15  1  0  0  0  0
 13 17  1  6  0  0  0
 13 16  1  0  0  0  0
 14 13  1  0  0  0  0
 14 16  1  1  0  0  0
 15 18  1  0  0  0  0
 15 14  1  0  0  0  0
 18 17  1  0  0  0  0
 19 20  1  0  0  0  0
 20 22  1  0  0  0  0
 22 21  2  0  0  0  0
 22 23  1  0  0  0  0
 23 24  1  1  0  0  0
 25 26  1  0  0  0  0
 25 23  1  0  0  0  0
 27 36  1  6  0  0  0
 27 30  1  0  0  0  0
 27 31  1  0  0  0  0
 28 38  1  1  0  0  0
 30 33  1  0  0  0  0
 31 29  1  6  0  0  0
 31 34  1  0  0  0  0
 32 35  1  0  0  0  0
 33 26  1  6  0  0  0
 33 32  1  0  0  0  0
 34 35  1  0  0  0  0
 34 28  1  0  0  0  0
 35 28  1  0  0  0  0
 36 37  1  0  0  0  0
 38 39  1  0  0  0  0
 39 40  1  0  0  0  0
 40 41  1  0  0  0  0
 42 44  1  0  0  0  0
 42 41  1  0  0  0  0
 43 44  2  0  0  0  0
 44 45  1  0  0  0  0
 46 47  1  0  0  0  0
 47 51  1  0  0  0  0
 48 52  1  0  0  0  0
 49 48  2  0  0  0  0
 50 47  2  0  0  0  0
 50 49  1  0  0  0  0
 51 52  2  0  0  0  0
 52 53  1  0  0  0  0
 53 54  1  0  0  0  0
 54 56  1  0  0  0  0
 56 55  1  0  0  0  0
M  END
>  <MODEL>
8

>  <REMARK>
 VINA RESULT:      -5.0      3.805     10.761
  Name = 
  25 active torsions:
  status: ('A' for Active; 'I' for Inactive)
    1  A    between atoms: C_1  and  O_5
    2  A    between atoms: C_3  and  C_30
    3  A    between atoms: C_6  and  C_28
    4  A    between atoms: C_6  and  C_45
    5  A    between atoms: O_8  and  C_18
    6  A    between atoms: O_8  and  C_51
    7  A    between atoms: C_9  and  O_22
    8  A    between atoms: C_11  and  C_30
    9  A    between atoms: C_11  and  N_43
   10  A    between atoms: C_13  and  O_33
   11  A    between atoms: C_13  and  C_45
   12  A    between atoms: C_15  and  C_25
   13  A    between atoms: O_16  and  C_28
   14  A    between atoms: O_16  and  C_47
   15  A    between atoms: C_18  and  C_49
   16  A    between atoms: C_21  and  O_27
   17  A    between atoms: C_21  and  C_55
   18  A    between atoms: O_22  and  C_45
   19  A    between atoms: C_25  and  C_29
   20  A    between atoms: N_26  and  C_44
   21  A    between atoms: O_27  and  C_37
   22  A    between atoms: C_29  and  N_43
   23  A    between atoms: O_33  and  C_55
   24  A    between atoms: C_37  and  C_41
   25  A    between atoms: C_40  and  C_44
                            x       y       z     vdW  Elec       q    Type
                         _______ _______ _______ _____ _____    ______ ____

>  <TORSDO>
F 25

$$$$
=
 OpenBabel11052409523D

 56 61  0  0  1  0  0  0  0  0999 V2000
  161.1860  205.0980  144.2890 C   0  0  2  0  0  3  0  0  0  0  0  0
  162.0770  205.9710  143.4270 C   0  0  0  0  0  2  0  0  0  0  0  0
  161.3920  206.2440  142.1000 C   0  0  0  0  0  2  0  0  0  0  0  0
  162.3390  206.6690  141.1280 O   0  0  0  0  0  0  0  0  0  0  0  0
  161.3340  209.0390  137.8110 C   0  0  0  0  0  3  0  0  0  0  0  0
  161.6300  208.7670  140.1940 C   0  0  0  0  0  3  0  0  0  0  0  0
  161.7090  207.7070  137.6130 C   0  0  0  0  0  3  0  0  0  0  0  0
  162.0440  206.9060  138.7080 C   0  0  0  0  0  3  0  0  0  0  0  0
  161.2950  209.5860  139.1060 C   0  0  0  0  0  0  0  0  0  0  0  0
  162.0060  207.4360  140.0080 C   0  0  0  0  0  0  0  0  0  0  0  0
  161.7580  211.8910  139.7380 C   0  0  0  0  0  2  0  0  0  0  0  0
  160.8620  210.9910  139.3300 C   0  0  0  0  0  0  0  0  0  0  0  0
  157.6410  212.4810  138.1120 N   0  0  2  0  0  0  0  0  0  0  0  0
  159.1160  212.3860  138.0910 C   0  0  2  0  0  3  0  0  0  0  0  0
  159.5010  211.4090  139.0900 N   0  0  0  0  0  0  0  0  0  0  0  0
  158.4710  213.5380  138.7160 C   0  0  0  0  0  2  0  0  0  0  0  0
  157.1790  211.6000  139.1890 C   0  0  0  0  0  2  0  0  0  0  0  0
  158.3470  210.7800  139.6910 C   0  0  0  0  0  2  0  0  0  0  0  0
  160.4690  205.9560  145.3160 C   0  0  0  0  0  2  0  0  0  0  0  0
  161.4340  206.5830  146.1470 O   0  0  0  0  0  0  0  0  0  0  0  0
  160.0870  206.4830  147.9960 O   0  0  0  0  0  0  0  0  0  0  0  0
  161.2080  206.7810  147.5130 C   0  0  0  0  0  0  0  0  0  0  0  0
  162.3090  207.2380  148.4230 C   0  0  2  0  0  3  0  0  0  0  0  0
  161.7970  207.2030  149.8610 C   0  0  0  0  0  1  0  0  0  0  0  0
  162.7110  208.5330  148.0660 O   0  0  0  0  0  0  0  0  0  0  0  0
  161.6570  209.3950  148.4010 C   0  0  0  0  0  2  0  0  0  0  0  0
  161.2320  212.4840  147.4420 C   0  0  1  0  0  3  0  0  0  0  0  0
  160.0940  213.2570  150.9950 C   0  0  2  0  0  3  0  0  0  0  0  0
  159.5710  214.1880  147.8110 O   0  0  0  0  0  1  0  0  0  0  0  0
  162.4840  211.7800  148.0130 C   0  0  0  0  0  2  0  0  0  0  0  0
  160.6250  213.5050  148.4270 C   0  0  1  0  0  3  0  0  0  0  0  0
  161.4780  211.0220  150.3560 C   0  0  0  0  0  2  0  0  0  0  0  0
  162.2180  210.6530  149.0450 C   0  0  1  0  0  3  0  0  0  0  0  0
  160.0900  212.7120  149.5890 C   0  0  1  0  0  3  0  0  0  0  0  0
  161.3190  212.5260  150.4580 C   0  0  1  0  0  3  0  0  0  0  0  0
  161.5730  213.1250  146.2480 O   0  0  0  0  0  0  0  0  0  0  0  0
  162.7460  213.8230  146.5370 C   0  0  0  0  0  1  0  0  0  0  0  0
  159.2150  212.3700  151.8660 C   0  0  0  0  0  2  0  0  0  0  0  0
  159.2150  212.8320  153.3110 C   0  0  0  0  0  2  0  0  0  0  0  0
  158.5660  214.1280  153.4060 N   0  0  0  0  0  2  0  0  0  0  0  0
  157.1330  213.8880  153.3640 C   0  0  0  0  0  2  0  0  0  0  0  0
  156.7170  213.1280  154.6080 C   0  0  0  0  0  2  0  0  0  0  0  0
  155.4080  213.8680  156.5990 O   0  0  0  0  0  1  0  0  0  0  0  0
  155.5200  213.7690  155.2180 C   0  0  0  0  0  0  0  0  0  0  0  0
  154.6150  214.2370  154.4780 O   0  0  0  0  0  0  0  0  0  0  0  0
  161.9740  204.1010  144.9380 O   0  0  0  0  0  0  0  0  0  0  0  0
  161.4970  203.3170  145.9930 C   0  0  0  0  0  0  0  0  0  0  0  0
  160.5930  201.7730  148.1490 C   0  0  0  0  0  3  0  0  0  0  0  0
  160.3520  201.3530  146.8400 C   0  0  0  0  0  3  0  0  0  0  0  0
  160.8030  202.1190  145.7650 C   0  0  0  0  0  3  0  0  0  0  0  0
  161.7290  203.7370  147.3060 C   0  0  0  0  0  3  0  0  0  0  0  0
  161.2810  202.9680  148.3930 C   0  0  0  0  0  0  0  0  0  0  0  0
  161.5250  203.3530  149.7140 O   0  0  0  0  0  0  0  0  0  0  0  0
  160.7600  202.8660  150.8080 C   0  0  0  0  0  2  0  0  0  0  0  0
  161.8630  204.8490  151.8520 C   0  0  0  0  0  1  0  0  0  0  0  0
  161.2590  203.4800  152.1050 C   0  0  0  0  0  2  0  0  0  0  0  0
  1  2  1  1  0  0  0
  1 46  1  0  0  0  0
  1 19  1  0  0  0  0
  3  2  1  0  0  0  0
  4  3  1  0  0  0  0
  5  9  1  0  0  0  0
  7  5  2  0  0  0  0
  7  8  1  0  0  0  0
  8 10  2  0  0  0  0
  9 12  1  0  0  0  0
  9  6  2  0  0  0  0
 10  6  1  0  0  0  0
 10  4  1  0  0  0  0
 12 11  2  0  0  0  0
 13 16  1  1  0  0  0
 13 17  1  0  0  0  0
 14 13  1  0  0  0  0
 14 16  1  1  0  0  0
 14 15  1  0  0  0  0
 15 12  1  0  0  0  0
 15 18  1  0  0  0  0
 17 18  1  0  0  0  0
 19 20  1  0  0  0  0
 20 22  1  0  0  0  0
 22 21  2  0  0  0  0
 22 23  1  0  0  0  0
 23 24  1  1  0  0  0
 25 26  1  0  0  0  0
 25 23  1  0  0  0  0
 27 36  1  6  0  0  0
 27 30  1  0  0  0  0
 27 31  1  0  0  0  0
 28 38  1  1  0  0  0
 30 33  1  0  0  0  0
 31 29  1  6  0  0  0
 31 34  1  0  0  0  0
 32 35  1  0  0  0  0
 33 26  1  6  0  0  0
 33 32  1  0  0  0  0
 34 35  1  0  0  0  0
 34 28  1  0  0  0  0
 35 28  1  0  0  0  0
 36 37  1  0  0  0  0
 38 39  1  0  0  0  0
 39 40  1  0  0  0  0
 41 40  1  0  0  0  0
 41 42  1  0  0  0  0
 42 44  1  0  0  0  0
 44 43  1  0  0  0  0
 45 44  2  0  0  0  0
 46 47  1  0  0  0  0
 47 51  1  0  0  0  0
 48 52  1  0  0  0  0
 49 48  2  0  0  0  0
 50 47  2  0  0  0  0
 50 49  1  0  0  0  0
 51 52  2  0  0  0  0
 52 53  1  0  0  0  0
 53 54  1  0  0  0  0
 54 56  1  0  0  0  0
 55 56  1  0  0  0  0
M  END
>  <MODEL>
9

>  <REMARK>
 VINA RESULT:      -4.8      3.780     10.576
  Name = 
  25 active torsions:
  status: ('A' for Active; 'I' for Inactive)
    1  A    between atoms: C_1  and  O_5
    2  A    between atoms: C_3  and  C_30
    3  A    between atoms: C_6  and  C_28
    4  A    between atoms: C_6  and  C_45
    5  A    between atoms: O_8  and  C_18
    6  A    between atoms: O_8  and  C_51
    7  A    between atoms: C_9  and  O_22
    8  A    between atoms: C_11  and  C_30
    9  A    between atoms: C_11  and  N_43
   10  A    between atoms: C_13  and  O_33
   11  A    between atoms: C_13  and  C_45
   12  A    between atoms: C_15  and  C_25
   13  A    between atoms: O_16  and  C_28
   14  A    between atoms: O_16  and  C_47
   15  A    between atoms: C_18  and  C_49
   16  A    between atoms: C_21  and  O_27
   17  A    between atoms: C_21  and  C_55
   18  A    between atoms: O_22  and  C_45
   19  A    between atoms: C_25  and  C_29
   20  A    between atoms: N_26  and  C_44
   21  A    between atoms: O_27  and  C_37
   22  A    between atoms: C_29  and  N_43
   23  A    between atoms: O_33  and  C_55
   24  A    between atoms: C_37  and  C_41
   25  A    between atoms: C_40  and  C_44
                            x       y       z     vdW  Elec       q    Type
                         _______ _______ _______ _____ _____    ______ ____

>  <TORSDO>
F 25

$$$$
