=
 OpenBabel11042420253D

 31 35  0  0  1  0  0  0  0  0999 V2000
  160.7400  205.5750  149.2480 C   0  0  0  0  0  0  0  0  0  0  0  0
  161.9050  206.4070  149.1250 N   0  0  0  0  0  0  0  0  0  0  0  0
  159.6140  206.0510  148.9450 O   0  0  0  0  0  0  0  0  0  0  0  0
  162.7700  204.9960  145.9850 C   0  0  0  0  0  0  0  0  0  0  0  0
  160.4080  205.5670  145.1500 C   0  0  0  0  0  3  0  0  0  0  0  0
  160.1560  206.5700  146.0860 N   0  0  0  0  0  0  0  0  0  0  0  0
  161.6640  204.7930  145.0810 C   0  0  0  0  0  3  0  0  0  0  0  0
  164.0460  204.2360  145.9530 C   0  0  0  0  0  1  0  0  0  0  0  0
  161.2160  206.7020  146.8780 C   0  0  0  0  0  0  0  0  0  0  0  0
  162.2190  206.9950  147.8180 C   0  0  2  0  0  3  0  0  0  0  0  0
  162.4750  205.9820  146.8720 C   0  0  0  0  0  0  0  0  0  0  0  0
  160.8740  204.1620  149.6790 C   0  0  0  0  0  0  0  0  0  0  0  0
  161.1160  201.4430  150.3690 C   0  0  0  0  0  3  0  0  0  0  0  0
  160.9600  203.7710  151.0390 C   0  0  0  0  0  0  0  0  0  0  0  0
  161.0810  202.4160  151.3680 C   0  0  0  0  0  3  0  0  0  0  0  0
  160.9580  204.7550  152.1610 C   0  0  0  0  0  1  0  0  0  0  0  0
  160.9080  203.1670  148.6890 C   0  0  0  0  0  3  0  0  0  0  0  0
  161.0290  201.8180  149.0280 C   0  0  0  0  0  3  0  0  0  0  0  0
  162.4010  208.6160  150.0640 C   0  0  0  0  0  2  0  0  0  0  0  0
  161.2410  208.0340  150.8370 C   0  0  1  0  0  3  0  0  0  0  0  0
  162.3440  207.1220  150.3250 C   0  0  1  0  0  3  0  0  0  0  0  0
  161.4570  208.2860  152.3170 C   0  0  0  0  0  2  0  0  0  0  0  0
  161.5950  209.7780  152.5970 C   0  0  0  0  0  2  0  0  0  0  0  0
  159.8570  210.6000  155.8410 C   0  0  0  0  0  2  0  0  0  0  0  0
  158.4850  211.8280  153.2080 C   0  0  0  0  0  2  0  0  0  0  0  0
  160.3160  210.4460  152.5030 N   0  0  0  0  0  0  0  0  0  0  0  0
  157.4780  211.4610  154.2930 C   0  0  0  0  0  2  0  0  0  0  0  0
  157.8230  212.1890  155.5850 C   0  0  0  0  0  2  0  0  0  0  0  0
  159.8180  211.1830  153.4390 C   0  0  0  0  0  0  0  0  0  0  0  0
  160.5380  211.4030  154.7430 C   0  0  0  0  0  2  0  0  0  0  0  0
  158.7120  211.3610  156.5200 C   0  0  0  0  0  2  0  0  0  0  0  0
  1 12  1  0  0  0  0
  2  1  1  0  0  0  0
  3  1  2  0  0  0  0
  4 11  1  0  0  0  0
  5  6  2  0  0  0  0
  6  9  1  0  0  0  0
  7  5  1  0  0  0  0
  7  4  2  0  0  0  0
  8  4  1  0  0  0  0
  9 10  1  0  0  0  0
 10  2  1  1  0  0  0
 11  9  2  0  0  0  0
 11 10  1  0  0  0  0
 12 14  1  0  0  0  0
 13 15  1  0  0  0  0
 14 15  2  0  0  0  0
 14 16  1  0  0  0  0
 17 18  1  0  0  0  0
 17 12  2  0  0  0  0
 18 13  2  0  0  0  0
 19 21  1  0  0  0  0
 19 20  1  0  0  0  0
 20 22  1  1  0  0  0
 21  2  1  6  0  0  0
 21 20  1  0  0  0  0
 22 23  1  0  0  0  0
 24 31  1  0  0  0  0
 25 29  1  0  0  0  0
 25 27  1  0  0  0  0
 26 23  1  0  0  0  0
 26 29  2  0  0  0  0
 27 28  1  0  0  0  0
 28 31  1  0  0  0  0
 29 30  1  0  0  0  0
 30 24  1  0  0  0  0
M  END
>  <MODEL>
1

>  <REMARK>
 VINA RESULT:      -9.1      0.000      0.000
  Name = 
  6 active torsions:
  status: ('A' for Active; 'I' for Inactive)
    1  A    between atoms: C_3  and  C_13
    2  A    between atoms: C_10  and  N_15
    3  A    between atoms: C_10  and  C_28
    4  A    between atoms: C_14  and  C_28
    5  A    between atoms: N_16  and  C_18
    6  A    between atoms: N_16  and  C_21
                            x       y       z     vdW  Elec       q    Type
                         _______ _______ _______ _____ _____    ______ ____

>  <TORSDO>
F 6

$$$$
=
 OpenBabel11042420253D

 31 35  0  0  1  0  0  0  0  0999 V2000
  160.7500  205.5850  149.3000 C   0  0  0  0  0  0  0  0  0  0  0  0
  161.9160  206.4200  149.1990 N   0  0  0  0  0  0  0  0  0  0  0  0
  159.6250  206.0660  149.0000 O   0  0  0  0  0  0  0  0  0  0  0  0
  162.7440  205.0640  146.0250 C   0  0  0  0  0  0  0  0  0  0  0  0
  160.3900  205.6970  145.2110 C   0  0  0  0  0  3  0  0  0  0  0  0
  160.1600  206.6840  146.1710 N   0  0  0  0  0  0  0  0  0  0  0  0
  161.6310  204.9020  145.1200 C   0  0  0  0  0  3  0  0  0  0  0  0
  164.0050  204.2800  145.9720 C   0  0  0  0  0  1  0  0  0  0  0  0
  161.2250  206.7780  146.9610 C   0  0  0  0  0  0  0  0  0  0  0  0
  162.2360  207.0310  147.9040 C   0  0  2  0  0  3  0  0  0  0  0  0
  162.4700  206.0340  146.9350 C   0  0  0  0  0  0  0  0  0  0  0  0
  160.8830  204.1650  149.7070 C   0  0  0  0  0  0  0  0  0  0  0  0
  161.1240  201.4340  150.3500 C   0  0  0  0  0  3  0  0  0  0  0  0
  160.9450  203.7490  151.0610 C   0  0  0  0  0  0  0  0  0  0  0  0
  161.0660  202.3890  151.3670 C   0  0  0  0  0  3  0  0  0  0  0  0
  160.9180  204.7110  152.2010 C   0  0  0  0  0  1  0  0  0  0  0  0
  160.9400  203.1890  148.6990 C   0  0  0  0  0  3  0  0  0  0  0  0
  161.0600  201.8340  149.0150 C   0  0  0  0  0  3  0  0  0  0  0  0
  162.4090  208.6110  150.1780 C   0  0  0  0  0  2  0  0  0  0  0  0
  161.2430  208.0190  150.9330 C   0  0  1  0  0  3  0  0  0  0  0  0
  162.3470  207.1140  150.4140 C   0  0  1  0  0  3  0  0  0  0  0  0
  161.4480  208.2460  152.4180 C   0  0  0  0  0  2  0  0  0  0  0  0
  161.6280  209.7290  152.7190 C   0  0  0  0  0  2  0  0  0  0  0  0
  159.3460  212.7260  152.5340 C   0  0  0  0  0  2  0  0  0  0  0  0
  159.2130  211.0770  155.2880 C   0  0  0  0  0  2  0  0  0  0  0  0
  160.9380  210.1020  153.9340 N   0  0  0  0  0  0  0  0  0  0  0  0
  158.9860  212.5730  155.4740 C   0  0  0  0  0  2  0  0  0  0  0  0
  157.8200  213.0290  154.6090 C   0  0  0  0  0  2  0  0  0  0  0  0
  159.8300  210.7640  153.9580 C   0  0  0  0  0  0  0  0  0  0  0  0
  159.1540  211.2250  152.6940 C   0  0  0  0  0  2  0  0  0  0  0  0
  158.2610  213.5500  153.2350 C   0  0  0  0  0  2  0  0  0  0  0  0
  1 12  1  0  0  0  0
  2  1  1  0  0  0  0
  3  1  2  0  0  0  0
  4 11  1  0  0  0  0
  5  6  2  0  0  0  0
  6  9  1  0  0  0  0
  7  5  1  0  0  0  0
  7  4  2  0  0  0  0
  8  4  1  0  0  0  0
  9 10  1  0  0  0  0
 10  2  1  1  0  0  0
 11  9  2  0  0  0  0
 11 10  1  0  0  0  0
 12 14  1  0  0  0  0
 13 15  1  0  0  0  0
 14 15  2  0  0  0  0
 14 16  1  0  0  0  0
 17 18  1  0  0  0  0
 17 12  2  0  0  0  0
 18 13  2  0  0  0  0
 19 21  1  0  0  0  0
 19 20  1  0  0  0  0
 20 22  1  1  0  0  0
 21  2  1  6  0  0  0
 21 20  1  0  0  0  0
 22 23  1  0  0  0  0
 23 26  1  0  0  0  0
 24 30  1  0  0  0  0
 24 31  1  0  0  0  0
 25 27  1  0  0  0  0
 26 29  2  0  0  0  0
 28 27  1  0  0  0  0
 29 25  1  0  0  0  0
 30 29  1  0  0  0  0
 31 28  1  0  0  0  0
M  END
>  <MODEL>
2

>  <REMARK>
 VINA RESULT:      -9.0      0.655      1.305
  Name = 
  6 active torsions:
  status: ('A' for Active; 'I' for Inactive)
    1  A    between atoms: C_3  and  C_13
    2  A    between atoms: C_10  and  N_15
    3  A    between atoms: C_10  and  C_28
    4  A    between atoms: C_14  and  C_28
    5  A    between atoms: N_16  and  C_18
    6  A    between atoms: N_16  and  C_21
                            x       y       z     vdW  Elec       q    Type
                         _______ _______ _______ _____ _____    ______ ____

>  <TORSDO>
F 6

$$$$
=
 OpenBabel11042420253D

 31 35  0  0  1  0  0  0  0  0999 V2000
  160.3600  210.9170  154.5760 C   0  0  0  0  0  0  0  0  0  0  0  0
  159.9060  210.7150  153.2270 N   0  0  0  0  0  0  0  0  0  0  0  0
  160.5490  212.0930  154.9880 O   0  0  0  0  0  0  0  0  0  0  0  0
  157.1850  212.1210  155.0200 C   0  0  0  0  0  0  0  0  0  0  0  0
  158.0240  214.4530  154.3400 C   0  0  0  0  0  3  0  0  0  0  0  0
  158.7550  214.0310  153.2290 N   0  0  0  0  0  0  0  0  0  0  0  0
  157.2570  213.5490  155.2210 C   0  0  0  0  0  3  0  0  0  0  0  0
  156.4310  211.1780  155.8860 C   0  0  0  0  0  1  0  0  0  0  0  0
  158.6380  212.7130  153.1070 C   0  0  0  0  0  0  0  0  0  0  0  0
  158.6480  211.3400  152.8050 C   0  0  2  0  0  3  0  0  0  0  0  0
  157.9090  211.7650  153.9280 C   0  0  0  0  0  0  0  0  0  0  0  0
  160.5560  209.7570  155.4790 C   0  0  0  0  0  0  0  0  0  0  0  0
  160.8060  207.5100  157.1560 C   0  0  0  0  0  3  0  0  0  0  0  0
  161.6750  209.6240  156.3390 C   0  0  0  0  0  0  0  0  0  0  0  0
  161.7880  208.5010  157.1660 C   0  0  0  0  0  3  0  0  0  0  0  0
  162.7780  210.6270  156.3860 C   0  0  0  0  0  1  0  0  0  0  0  0
  159.5770  208.7500  155.4860 C   0  0  0  0  0  3  0  0  0  0  0  0
  159.6990  207.6340  156.3160 C   0  0  0  0  0  3  0  0  0  0  0  0
  162.0710  209.6560  152.7890 C   0  0  0  0  0  2  0  0  0  0  0  0
  161.0410  208.9820  151.9130 C   0  0  1  0  0  3  0  0  0  0  0  0
  160.9290  210.4690  152.2090 C   0  0  1  0  0  3  0  0  0  0  0  0
  161.6170  208.7980  150.5230 C   0  0  0  0  0  2  0  0  0  0  0  0
  162.4630  207.5320  150.4510 C   0  0  0  0  0  2  0  0  0  0  0  0
  161.5830  203.9560  151.2650 C   0  0  0  0  0  2  0  0  0  0  0  0
  160.9470  204.8660  148.2500 C   0  0  0  0  0  2  0  0  0  0  0  0
  162.0520  206.6920  149.3480 N   0  0  0  0  0  0  0  0  0  0  0  0
  161.3560  203.4020  148.3610 C   0  0  0  0  0  2  0  0  0  0  0  0
  160.4280  202.6780  149.3270 C   0  0  0  0  0  2  0  0  0  0  0  0
  161.3100  205.6440  149.4800 C   0  0  0  0  0  0  0  0  0  0  0  0
  160.8090  205.1900  150.8250 C   0  0  0  0  0  2  0  0  0  0  0  0
  160.9650  202.6470  150.7630 C   0  0  0  0  0  2  0  0  0  0  0  0
  1  3  2  0  0  0  0
  1 12  1  0  0  0  0
  2  1  1  0  0  0  0
  4  7  1  0  0  0  0
  4  8  1  0  0  0  0
  5  7  2  0  0  0  0
  6  5  1  0  0  0  0
  9  6  2  0  0  0  0
  9 11  1  0  0  0  0
 10  9  1  0  0  0  0
 10  2  1  1  0  0  0
 10 11  1  0  0  0  0
 11  4  2  0  0  0  0
 12 17  2  0  0  0  0
 12 14  1  0  0  0  0
 13 15  1  0  0  0  0
 14 16  1  0  0  0  0
 14 15  2  0  0  0  0
 17 18  1  0  0  0  0
 18 13  2  0  0  0  0
 20 22  1  6  0  0  0
 20 21  1  0  0  0  0
 20 19  1  0  0  0  0
 21 19  1  0  0  0  0
 21  2  1  1  0  0  0
 23 22  1  0  0  0  0
 25 27  1  0  0  0  0
 25 29  1  0  0  0  0
 26 29  2  0  0  0  0
 26 23  1  0  0  0  0
 27 28  1  0  0  0  0
 28 31  1  0  0  0  0
 29 30  1  0  0  0  0
 30 24  1  0  0  0  0
 31 24  1  0  0  0  0
M  END
>  <MODEL>
3

>  <REMARK>
 VINA RESULT:      -8.1      2.343      8.885
  Name = 
  6 active torsions:
  status: ('A' for Active; 'I' for Inactive)
    1  A    between atoms: C_3  and  C_13
    2  A    between atoms: C_10  and  N_15
    3  A    between atoms: C_10  and  C_28
    4  A    between atoms: C_14  and  C_28
    5  A    between atoms: N_16  and  C_18
    6  A    between atoms: N_16  and  C_21
                            x       y       z     vdW  Elec       q    Type
                         _______ _______ _______ _____ _____    ______ ____

>  <TORSDO>
F 6

$$$$
=
 OpenBabel11042420253D

 31 35  0  0  1  0  0  0  0  0999 V2000
  161.3850  210.2890  154.3640 C   0  0  0  0  0  0  0  0  0  0  0  0
  160.5000  211.0330  153.5090 N   0  0  0  0  0  0  0  0  0  0  0  0
  162.5550  210.7150  154.5510 O   0  0  0  0  0  0  0  0  0  0  0  0
  157.8490  213.2250  152.6360 C   0  0  0  0  0  0  0  0  0  0  0  0
  156.9370  212.9710  155.0250 C   0  0  0  0  0  3  0  0  0  0  0  0
  158.1430  212.5730  155.6040 N   0  0  0  0  0  0  0  0  0  0  0  0
  156.7710  213.2930  153.5930 C   0  0  0  0  0  3  0  0  0  0  0  0
  157.7210  213.5340  151.1880 C   0  0  0  0  0  1  0  0  0  0  0  0
  159.0840  212.5390  154.6670 C   0  0  0  0  0  0  0  0  0  0  0  0
  160.2140  212.4340  153.8360 C   0  0  2  0  0  3  0  0  0  0  0  0
  158.9960  212.8360  153.2500 C   0  0  0  0  0  0  0  0  0  0  0  0
  160.9050  209.0650  155.0510 C   0  0  0  0  0  0  0  0  0  0  0  0
  160.0070  206.6760  156.2390 C   0  0  0  0  0  3  0  0  0  0  0  0
  160.4550  209.0570  156.3950 C   0  0  0  0  0  0  0  0  0  0  0  0
  160.0120  207.8620  156.9740 C   0  0  0  0  0  3  0  0  0  0  0  0
  160.4560  210.2780  157.2520 C   0  0  0  0  0  1  0  0  0  0  0  0
  160.8890  207.8610  154.3270 C   0  0  0  0  0  3  0  0  0  0  0  0
  160.4450  206.6750  154.9140 C   0  0  0  0  0  3  0  0  0  0  0  0
  161.2850  211.5360  151.2430 C   0  0  0  0  0  2  0  0  0  0  0  0
  161.7930  210.1620  151.6140 C   0  0  1  0  0  3  0  0  0  0  0  0
  160.4310  210.6250  152.1040 C   0  0  1  0  0  3  0  0  0  0  0  0
  161.6020  209.2290  150.4350 C   0  0  0  0  0  2  0  0  0  0  0  0
  162.2840  207.8900  150.6890 C   0  0  0  0  0  2  0  0  0  0  0  0
  161.6440  204.3730  151.8890 C   0  0  0  0  0  2  0  0  0  0  0  0
  160.9000  204.9210  148.8120 C   0  0  0  0  0  2  0  0  0  0  0  0
  161.9070  206.9150  149.6880 N   0  0  0  0  0  0  0  0  0  0  0  0
  161.4020  203.5030  149.0640 C   0  0  0  0  0  2  0  0  0  0  0  0
  160.5380  202.8310  150.1220 C   0  0  0  0  0  2  0  0  0  0  0  0
  161.2350  205.8440  149.9450 C   0  0  0  0  0  0  0  0  0  0  0  0
  160.7860  205.5040  151.3420 C   0  0  0  0  0  2  0  0  0  0  0  0
  161.1000  202.9830  151.5400 C   0  0  0  0  0  2  0  0  0  0  0  0
  1  3  2  0  0  0  0
  1 12  1  0  0  0  0
  2  1  1  0  0  0  0
  4 11  2  0  0  0  0
  4  7  1  0  0  0  0
  5  6  1  0  0  0  0
  7  5  2  0  0  0  0
  8  4  1  0  0  0  0
  9  6  2  0  0  0  0
 10  2  1  6  0  0  0
 10  9  1  0  0  0  0
 11 10  1  0  0  0  0
 11  9  1  0  0  0  0
 12 14  1  0  0  0  0
 13 15  1  0  0  0  0
 14 15  2  0  0  0  0
 14 16  1  0  0  0  0
 17 18  1  0  0  0  0
 17 12  2  0  0  0  0
 18 13  2  0  0  0  0
 19 20  1  0  0  0  0
 19 21  1  0  0  0  0
 20 22  1  6  0  0  0
 20 21  1  0  0  0  0
 21  2  1  1  0  0  0
 22 23  1  0  0  0  0
 25 27  1  0  0  0  0
 25 29  1  0  0  0  0
 26 29  2  0  0  0  0
 26 23  1  0  0  0  0
 27 28  1  0  0  0  0
 28 31  1  0  0  0  0
 29 30  1  0  0  0  0
 30 24  1  0  0  0  0
 31 24  1  0  0  0  0
M  END
>  <MODEL>
4

>  <REMARK>
 VINA RESULT:      -7.7      2.489      8.428
  Name = 
  6 active torsions:
  status: ('A' for Active; 'I' for Inactive)
    1  A    between atoms: C_3  and  C_13
    2  A    between atoms: C_10  and  N_15
    3  A    between atoms: C_10  and  C_28
    4  A    between atoms: C_14  and  C_28
    5  A    between atoms: N_16  and  C_18
    6  A    between atoms: N_16  and  C_21
                            x       y       z     vdW  Elec       q    Type
                         _______ _______ _______ _____ _____    ______ ____

>  <TORSDO>
F 6

$$$$
=
 OpenBabel11042420253D

 31 35  0  0  1  0  0  0  0  0999 V2000
  160.8090  205.5350  149.2180 C   0  0  0  0  0  0  0  0  0  0  0  0
  161.9630  206.3840  149.1010 N   0  0  0  0  0  0  0  0  0  0  0  0
  159.6890  205.9690  148.8380 O   0  0  0  0  0  0  0  0  0  0  0  0
  162.7450  204.8110  146.0170 C   0  0  0  0  0  0  0  0  0  0  0  0
  160.4340  205.5190  145.1430 C   0  0  0  0  0  3  0  0  0  0  0  0
  160.2480  206.5680  146.0440 N   0  0  0  0  0  0  0  0  0  0  0  0
  161.6330  204.6570  145.1100 C   0  0  0  0  0  3  0  0  0  0  0  0
  163.9640  203.9620  146.0200 C   0  0  0  0  0  1  0  0  0  0  0  0
  161.3100  206.6510  146.8390 C   0  0  0  0  0  0  0  0  0  0  0  0
  162.3250  206.9050  147.7780 C   0  0  2  0  0  3  0  0  0  0  0  0
  162.5140  205.8440  146.8680 C   0  0  0  0  0  0  0  0  0  0  0  0
  160.9500  204.1510  149.7350 C   0  0  0  0  0  0  0  0  0  0  0  0
  161.2490  201.5770  150.8350 C   0  0  0  0  0  3  0  0  0  0  0  0
  160.8340  203.0020  148.9130 C   0  0  0  0  0  0  0  0  0  0  0  0
  160.9840  201.7280  149.4730 C   0  0  0  0  0  3  0  0  0  0  0  0
  160.5250  203.0810  147.4560 C   0  0  0  0  0  1  0  0  0  0  0  0
  161.2190  203.9790  151.1020 C   0  0  0  0  0  3  0  0  0  0  0  0
  161.3670  202.7030  151.6500 C   0  0  0  0  0  3  0  0  0  0  0  0
  162.3680  208.6520  149.9360 C   0  0  0  0  0  2  0  0  0  0  0  0
  161.1880  208.0850  150.6900 C   0  0  1  0  0  3  0  0  0  0  0  0
  162.3320  207.1740  150.2770 C   0  0  1  0  0  3  0  0  0  0  0  0
  161.3310  208.4230  152.1610 C   0  0  0  0  0  2  0  0  0  0  0  0
  160.8520  207.2670  153.0310 C   0  0  0  0  0  2  0  0  0  0  0  0
  160.6670  210.6270  154.7350 C   0  0  0  0  0  2  0  0  0  0  0  0
  161.6860  208.2090  156.5900 C   0  0  0  0  0  2  0  0  0  0  0  0
  161.4040  207.3560  154.3650 N   0  0  0  0  0  0  0  0  0  0  0  0
  162.3310  209.5460  156.9400 C   0  0  0  0  0  2  0  0  0  0  0  0
  161.2520  210.5710  157.2610 C   0  0  0  0  0  2  0  0  0  0  0  0
  161.0400  208.2350  155.2370 C   0  0  0  0  0  0  0  0  0  0  0  0
  159.9960  209.2750  154.9280 C   0  0  0  0  0  2  0  0  0  0  0  0
  160.8380  211.4060  156.0430 C   0  0  0  0  0  2  0  0  0  0  0  0
  1 12  1  0  0  0  0
  2  1  1  0  0  0  0
  3  1  2  0  0  0  0
  4  8  1  0  0  0  0
  4 11  1  0  0  0  0
  5  6  2  0  0  0  0
  6  9  1  0  0  0  0
  7  5  1  0  0  0  0
  7  4  2  0  0  0  0
  9 11  2  0  0  0  0
  9 10  1  0  0  0  0
 10  2  1  1  0  0  0
 11 10  1  0  0  0  0
 12 17  1  0  0  0  0
 13 18  1  0  0  0  0
 14 15  1  0  0  0  0
 14 12  2  0  0  0  0
 15 13  2  0  0  0  0
 16 14  1  0  0  0  0
 17 18  2  0  0  0  0
 19 21  1  0  0  0  0
 19 20  1  0  0  0  0
 20 22  1  1  0  0  0
 21  2  1  6  0  0  0
 21 20  1  0  0  0  0
 22 23  1  0  0  0  0
 23 26  1  0  0  0  0
 24 30  1  0  0  0  0
 24 31  1  0  0  0  0
 25 27  1  0  0  0  0
 26 29  2  0  0  0  0
 27 28  1  0  0  0  0
 29 25  1  0  0  0  0
 30 29  1  0  0  0  0
 31 28  1  0  0  0  0
M  END
>  <MODEL>
5

>  <REMARK>
 VINA RESULT:      -7.4      1.375      2.421
  Name = 
  6 active torsions:
  status: ('A' for Active; 'I' for Inactive)
    1  A    between atoms: C_3  and  C_13
    2  A    between atoms: C_10  and  N_15
    3  A    between atoms: C_10  and  C_28
    4  A    between atoms: C_14  and  C_28
    5  A    between atoms: N_16  and  C_18
    6  A    between atoms: N_16  and  C_21
                            x       y       z     vdW  Elec       q    Type
                         _______ _______ _______ _____ _____    ______ ____

>  <TORSDO>
F 6

$$$$
=
 OpenBabel11042420253D

 31 35  0  0  1  0  0  0  0  0999 V2000
  161.6110  205.2780  148.2580 C   0  0  0  0  0  0  0  0  0  0  0  0
  161.2270  206.3530  149.1320 N   0  0  0  0  0  0  0  0  0  0  0  0
  162.0300  204.2010  148.7590 O   0  0  0  0  0  0  0  0  0  0  0  0
  161.0840  204.3240  152.0400 C   0  0  0  0  0  0  0  0  0  0  0  0
  161.2880  206.4560  153.4610 C   0  0  0  0  0  3  0  0  0  0  0  0
  160.8300  207.3340  152.4790 N   0  0  0  0  0  0  0  0  0  0  0  0
  161.4190  204.9960  153.2730 C   0  0  0  0  0  3  0  0  0  0  0  0
  161.2070  202.8610  151.8100 C   0  0  0  0  0  1  0  0  0  0  0  0
  160.5390  206.6450  151.3800 C   0  0  0  0  0  0  0  0  0  0  0  0
  160.1800  206.1110  150.1310 C   0  0  2  0  0  3  0  0  0  0  0  0
  160.6430  205.2220  151.1220 C   0  0  0  0  0  0  0  0  0  0  0  0
  161.4680  205.4250  146.7880 C   0  0  0  0  0  0  0  0  0  0  0  0
  161.0740  205.7520  144.0200 C   0  0  0  0  0  3  0  0  0  0  0  0
  162.4430  204.9680  145.8660 C   0  0  0  0  0  0  0  0  0  0  0  0
  162.2350  205.1390  144.4920 C   0  0  0  0  0  3  0  0  0  0  0  0
  163.7210  204.3290  146.2940 C   0  0  0  0  0  1  0  0  0  0  0  0
  160.3050  206.0370  146.2930 C   0  0  0  0  0  3  0  0  0  0  0  0
  160.1080  206.2010  144.9210 C   0  0  0  0  0  3  0  0  0  0  0  0
  162.7050  208.0450  148.1540 C   0  0  0  0  0  2  0  0  0  0  0  0
  161.7340  208.7520  149.0710 C   0  0  1  0  0  3  0  0  0  0  0  0
  162.2420  207.3660  149.4290 C   0  0  1  0  0  3  0  0  0  0  0  0
  162.4880  209.7810  149.8900 C   0  0  0  0  0  2  0  0  0  0  0  0
  161.9610  211.1850  149.6150 C   0  0  0  0  0  2  0  0  0  0  0  0
  159.3870  213.3280  147.8820 C   0  0  0  0  0  2  0  0  0  0  0  0
  162.1550  212.9640  146.2910 C   0  0  0  0  0  2  0  0  0  0  0  0
  162.2560  211.5950  148.2590 N   0  0  0  0  0  0  0  0  0  0  0  0
  160.9460  213.0850  145.3700 C   0  0  0  0  0  2  0  0  0  0  0  0
  160.2060  214.3830  145.6580 C   0  0  0  0  0  2  0  0  0  0  0  0
  161.7560  212.6460  147.7010 C   0  0  0  0  0  0  0  0  0  0  0  0
  160.7920  213.5470  148.4250 C   0  0  0  0  0  2  0  0  0  0  0  0
  159.0670  214.2120  146.6710 C   0  0  0  0  0  2  0  0  0  0  0  0
  1  3  2  0  0  0  0
  1  2  1  0  0  0  0
  4  7  1  0  0  0  0
  6  5  1  0  0  0  0
  7  5  2  0  0  0  0
  8  4  1  0  0  0  0
  9  6  2  0  0  0  0
 10  2  1  6  0  0  0
 10 11  1  0  0  0  0
 10  9  1  0  0  0  0
 11  9  1  0  0  0  0
 11  4  2  0  0  0  0
 12  1  1  0  0  0  0
 13 15  2  0  0  0  0
 13 18  1  0  0  0  0
 14 16  1  0  0  0  0
 14 12  2  0  0  0  0
 15 14  1  0  0  0  0
 17 12  1  0  0  0  0
 18 17  2  0  0  0  0
 19 20  1  0  0  0  0
 19 21  1  0  0  0  0
 20 21  1  0  0  0  0
 20 22  1  1  0  0  0
 21  2  1  6  0  0  0
 23 22  1  0  0  0  0
 24 30  1  0  0  0  0
 25 29  1  0  0  0  0
 26 23  1  0  0  0  0
 27 28  1  0  0  0  0
 27 25  1  0  0  0  0
 28 31  1  0  0  0  0
 29 26  2  0  0  0  0
 29 30  1  0  0  0  0
 31 24  1  0  0  0  0
M  END
>  <MODEL>
6

>  <REMARK>
 VINA RESULT:      -7.2      3.318      6.105
  Name = 
  6 active torsions:
  status: ('A' for Active; 'I' for Inactive)
    1  A    between atoms: C_3  and  C_13
    2  A    between atoms: C_10  and  N_15
    3  A    between atoms: C_10  and  C_28
    4  A    between atoms: C_14  and  C_28
    5  A    between atoms: N_16  and  C_18
    6  A    between atoms: N_16  and  C_21
                            x       y       z     vdW  Elec       q    Type
                         _______ _______ _______ _____ _____    ______ ____

>  <TORSDO>
F 6

$$$$
=
 OpenBabel11042420253D

 31 35  0  0  1  0  0  0  0  0999 V2000
  160.9050  205.5130  150.0910 C   0  0  0  0  0  0  0  0  0  0  0  0
  161.5530  206.0190  151.2700 N   0  0  0  0  0  0  0  0  0  0  0  0
  160.4030  206.3280  149.2720 O   0  0  0  0  0  0  0  0  0  0  0  0
  162.4000  208.3840  148.7630 C   0  0  0  0  0  0  0  0  0  0  0  0
  161.6880  210.2530  150.3760 C   0  0  0  0  0  3  0  0  0  0  0  0
  161.8340  209.5070  151.5450 N   0  0  0  0  0  0  0  0  0  0  0  0
  161.9560  209.7330  149.0200 C   0  0  0  0  0  3  0  0  0  0  0  0
  162.6750  207.8210  147.4160 C   0  0  0  0  0  1  0  0  0  0  0  0
  162.2480  208.2830  151.2310 C   0  0  0  0  0  0  0  0  0  0  0  0
  162.6760  206.9500  151.1140 C   0  0  2  0  0  3  0  0  0  0  0  0
  162.5290  207.7030  149.9310 C   0  0  0  0  0  0  0  0  0  0  0  0
  160.8720  204.0540  149.8250 C   0  0  0  0  0  0  0  0  0  0  0  0
  160.7830  201.2650  149.4490 C   0  0  0  0  0  3  0  0  0  0  0  0
  161.2060  203.4880  148.5690 C   0  0  0  0  0  0  0  0  0  0  0  0
  161.1560  202.1000  148.3950 C   0  0  0  0  0  3  0  0  0  0  0  0
  161.5860  204.3160  147.3880 C   0  0  0  0  0  1  0  0  0  0  0  0
  160.5030  203.1970  150.8740 C   0  0  0  0  0  3  0  0  0  0  0  0
  160.4570  201.8130  150.6900 C   0  0  0  0  0  3  0  0  0  0  0  0
  161.2060  205.0900  153.5110 C   0  0  0  0  0  2  0  0  0  0  0  0
  161.6030  206.5390  153.6670 C   0  0  1  0  0  3  0  0  0  0  0  0
  160.7450  206.1110  152.4880 C   0  0  1  0  0  3  0  0  0  0  0  0
  160.7160  207.1850  154.7140 C   0  0  0  0  0  2  0  0  0  0  0  0
  161.2050  208.5900  155.0450 C   0  0  0  0  0  2  0  0  0  0  0  0
  160.0820  211.8940  153.6140 C   0  0  0  0  0  2  0  0  0  0  0  0
  158.4140  210.8730  156.1630 C   0  0  0  0  0  2  0  0  0  0  0  0
  160.2100  209.3240  155.7950 N   0  0  0  0  0  0  0  0  0  0  0  0
  158.5400  212.3910  156.0980 C   0  0  0  0  0  2  0  0  0  0  0  0
  157.9900  212.8980  154.7720 C   0  0  0  0  0  2  0  0  0  0  0  0
  159.4070  210.1890  155.2720 C   0  0  0  0  0  0  0  0  0  0  0  0
  159.4480  210.5230  153.8050 C   0  0  0  0  0  2  0  0  0  0  0  0
  159.0690  213.0410  153.6920 C   0  0  0  0  0  2  0  0  0  0  0  0
  1  2  1  0  0  0  0
  3  1  2  0  0  0  0
  4  7  2  0  0  0  0
  4 11  1  0  0  0  0
  5  6  2  0  0  0  0
  7  5  1  0  0  0  0
  8  4  1  0  0  0  0
  9  6  1  0  0  0  0
 10  9  1  0  0  0  0
 10  2  1  6  0  0  0
 11 10  1  0  0  0  0
 11  9  2  0  0  0  0
 12  1  1  0  0  0  0
 12 17  1  0  0  0  0
 13 18  1  0  0  0  0
 14 12  2  0  0  0  0
 15 14  1  0  0  0  0
 15 13  2  0  0  0  0
 16 14  1  0  0  0  0
 18 17  2  0  0  0  0
 19 20  1  0  0  0  0
 20 22  1  1  0  0  0
 21  2  1  6  0  0  0
 21 19  1  0  0  0  0
 21 20  1  0  0  0  0
 22 23  1  0  0  0  0
 23 26  1  0  0  0  0
 24 31  1  0  0  0  0
 24 30  1  0  0  0  0
 27 25  1  0  0  0  0
 28 27  1  0  0  0  0
 29 26  2  0  0  0  0
 29 25  1  0  0  0  0
 30 29  1  0  0  0  0
 31 28  1  0  0  0  0
M  END
>  <MODEL>
7

>  <REMARK>
 VINA RESULT:      -6.9      1.765      3.505
  Name = 
  6 active torsions:
  status: ('A' for Active; 'I' for Inactive)
    1  A    between atoms: C_3  and  C_13
    2  A    between atoms: C_10  and  N_15
    3  A    between atoms: C_10  and  C_28
    4  A    between atoms: C_14  and  C_28
    5  A    between atoms: N_16  and  C_18
    6  A    between atoms: N_16  and  C_21
                            x       y       z     vdW  Elec       q    Type
                         _______ _______ _______ _____ _____    ______ ____

>  <TORSDO>
F 6

$$$$
=
 OpenBabel11042420253D

 31 35  0  0  1  0  0  0  0  0999 V2000
  161.6080  205.0450  148.1310 C   0  0  0  0  0  0  0  0  0  0  0  0
  161.2720  206.0820  149.0690 N   0  0  0  0  0  0  0  0  0  0  0  0
  161.9580  203.9160  148.5670 O   0  0  0  0  0  0  0  0  0  0  0  0
  161.0140  203.9680  151.9080 C   0  0  0  0  0  0  0  0  0  0  0  0
  161.2440  206.0490  153.3980 C   0  0  0  0  0  3  0  0  0  0  0  0
  160.8300  206.9700  152.4360 N   0  0  0  0  0  0  0  0  0  0  0  0
  161.3400  204.5930  153.1670 C   0  0  0  0  0  3  0  0  0  0  0  0
  161.1040  202.5110  151.6330 C   0  0  0  0  0  1  0  0  0  0  0  0
  160.5450  206.3230  151.3100 C   0  0  0  0  0  0  0  0  0  0  0  0
  160.1980  205.8370  150.0370 C   0  0  2  0  0  3  0  0  0  0  0  0
  160.6160  204.9060  151.0090 C   0  0  0  0  0  0  0  0  0  0  0  0
  161.4960  205.2930  146.6730 C   0  0  0  0  0  0  0  0  0  0  0  0
  161.1570  205.8060  143.9250 C   0  0  0  0  0  3  0  0  0  0  0  0
  162.5120  204.9450  145.7470 C   0  0  0  0  0  0  0  0  0  0  0  0
  162.3300  205.2060  144.3840 C   0  0  0  0  0  3  0  0  0  0  0  0
  163.8040  204.3280  146.1640 C   0  0  0  0  0  1  0  0  0  0  0  0
  160.3210  205.8920  146.1910 C   0  0  0  0  0  3  0  0  0  0  0  0
  160.1500  206.1480  144.8290 C   0  0  0  0  0  3  0  0  0  0  0  0
  162.7080  207.8980  148.2650 C   0  0  0  0  0  2  0  0  0  0  0  0
  161.8420  208.4490  149.3720 C   0  0  1  0  0  3  0  0  0  0  0  0
  162.3380  207.0140  149.4420 C   0  0  1  0  0  3  0  0  0  0  0  0
  162.6930  209.3110  150.2850 C   0  0  0  0  0  2  0  0  0  0  0  0
  161.8400  210.3600  150.9880 C   0  0  0  0  0  2  0  0  0  0  0  0
  159.0680  211.7290  153.1470 C   0  0  0  0  0  2  0  0  0  0  0  0
  161.4420  210.2640  154.7410 C   0  0  0  0  0  2  0  0  0  0  0  0
  162.0470  210.3250  152.4200 N   0  0  0  0  0  0  0  0  0  0  0  0
  160.8260  211.4250  155.5160 C   0  0  0  0  0  2  0  0  0  0  0  0
  159.3290  211.2030  155.6730 C   0  0  0  0  0  2  0  0  0  0  0  0
  161.0890  210.3130  153.2850 C   0  0  0  0  0  0  0  0  0  0  0  0
  159.6420  210.3480  152.8680 C   0  0  0  0  0  2  0  0  0  0  0  0
  158.5050  211.8710  154.5660 C   0  0  0  0  0  2  0  0  0  0  0  0
  1  3  2  0  0  0  0
  1  2  1  0  0  0  0
  4  7  1  0  0  0  0
  6  5  1  0  0  0  0
  7  5  2  0  0  0  0
  8  4  1  0  0  0  0
  9  6  2  0  0  0  0
 10  2  1  6  0  0  0
 10 11  1  0  0  0  0
 10  9  1  0  0  0  0
 11  9  1  0  0  0  0
 11  4  2  0  0  0  0
 12  1  1  0  0  0  0
 13 15  2  0  0  0  0
 13 18  1  0  0  0  0
 14 16  1  0  0  0  0
 14 12  2  0  0  0  0
 15 14  1  0  0  0  0
 17 12  1  0  0  0  0
 18 17  2  0  0  0  0
 19 20  1  0  0  0  0
 19 21  1  0  0  0  0
 20 21  1  0  0  0  0
 20 22  1  1  0  0  0
 21  2  1  6  0  0  0
 22 23  1  0  0  0  0
 23 26  1  0  0  0  0
 24 31  1  0  0  0  0
 25 27  1  0  0  0  0
 26 29  2  0  0  0  0
 27 28  1  0  0  0  0
 29 25  1  0  0  0  0
 30 24  1  0  0  0  0
 30 29  1  0  0  0  0
 31 28  1  0  0  0  0
M  END
>  <MODEL>
8

>  <REMARK>
 VINA RESULT:      -6.9      1.468      4.583
  Name = 
  6 active torsions:
  status: ('A' for Active; 'I' for Inactive)
    1  A    between atoms: C_3  and  C_13
    2  A    between atoms: C_10  and  N_15
    3  A    between atoms: C_10  and  C_28
    4  A    between atoms: C_14  and  C_28
    5  A    between atoms: N_16  and  C_18
    6  A    between atoms: N_16  and  C_21
                            x       y       z     vdW  Elec       q    Type
                         _______ _______ _______ _____ _____    ______ ____

>  <TORSDO>
F 6

$$$$
=
 OpenBabel11042420253D

 31 35  0  0  1  0  0  0  0  0999 V2000
  161.1380  205.3640  148.8370 C   0  0  0  0  0  0  0  0  0  0  0  0
  162.3360  205.8730  148.2270 N   0  0  0  0  0  0  0  0  0  0  0  0
  160.1330  205.1350  148.1130 O   0  0  0  0  0  0  0  0  0  0  0  0
  161.1820  203.2280  146.1610 C   0  0  0  0  0  0  0  0  0  0  0  0
  161.0150  204.9020  144.2190 C   0  0  0  0  0  3  0  0  0  0  0  0
  161.9170  205.8290  144.7420 N   0  0  0  0  0  0  0  0  0  0  0  0
  160.6450  203.6370  144.8860 C   0  0  0  0  0  3  0  0  0  0  0  0
  160.8320  201.9680  146.8670 C   0  0  0  0  0  1  0  0  0  0  0  0
  162.3710  205.3830  145.9090 C   0  0  0  0  0  0  0  0  0  0  0  0
  162.9650  205.0990  147.1510 C   0  0  2  0  0  3  0  0  0  0  0  0
  162.0540  204.1610  146.6230 C   0  0  0  0  0  0  0  0  0  0  0  0
  161.1090  205.0670  150.2900 C   0  0  0  0  0  0  0  0  0  0  0  0
  161.0770  204.6350  153.0720 C   0  0  0  0  0  3  0  0  0  0  0  0
  160.9820  203.7550  150.8110 C   0  0  0  0  0  0  0  0  0  0  0  0
  160.9660  203.5550  152.1960 C   0  0  0  0  0  3  0  0  0  0  0  0
  160.8310  202.5540  149.9400 C   0  0  0  0  0  1  0  0  0  0  0  0
  161.2220  206.1410  151.1880 C   0  0  0  0  0  3  0  0  0  0  0  0
  161.2060  205.9300  152.5680 C   0  0  0  0  0  3  0  0  0  0  0  0
  161.2170  208.0270  147.8860 C   0  0  0  0  0  2  0  0  0  0  0  0
  161.6820  207.9690  149.3220 C   0  0  1  0  0  3  0  0  0  0  0  0
  162.5190  207.3260  148.2280 C   0  0  1  0  0  3  0  0  0  0  0  0
  162.2990  209.3020  149.6960 C   0  0  0  0  0  2  0  0  0  0  0  0
  162.2820  209.5010  151.2070 C   0  0  0  0  0  2  0  0  0  0  0  0
  160.6310  208.9750  154.5570 C   0  0  0  0  0  2  0  0  0  0  0  0
  159.8820  211.7310  153.0840 C   0  0  0  0  0  2  0  0  0  0  0  0
  161.2680  210.4580  151.5950 N   0  0  0  0  0  0  0  0  0  0  0  0
  158.7350  211.1630  153.9120 C   0  0  0  0  0  2  0  0  0  0  0  0
  159.1840  210.9740  155.3550 C   0  0  0  0  0  2  0  0  0  0  0  0
  160.9440  210.7060  152.8200 C   0  0  0  0  0  0  0  0  0  0  0  0
  161.5990  209.9940  153.9740 C   0  0  0  0  0  2  0  0  0  0  0  0
  159.7160  209.5640  155.6370 C   0  0  0  0  0  2  0  0  0  0  0  0
  1 12  1  0  0  0  0
  2  1  1  0  0  0  0
  3  1  2  0  0  0  0
  4 11  1  0  0  0  0
  4  8  1  0  0  0  0
  5  6  2  0  0  0  0
  5  7  1  0  0  0  0
  6  9  1  0  0  0  0
  7  4  2  0  0  0  0
  9 11  2  0  0  0  0
  9 10  1  0  0  0  0
 10  2  1  1  0  0  0
 11 10  1  0  0  0  0
 12 14  2  0  0  0  0
 12 17  1  0  0  0  0
 14 15  1  0  0  0  0
 15 13  2  0  0  0  0
 16 14  1  0  0  0  0
 17 18  2  0  0  0  0
 18 13  1  0  0  0  0
 19 21  1  0  0  0  0
 19 20  1  0  0  0  0
 20 22  1  6  0  0  0
 21  2  1  1  0  0  0
 21 20  1  0  0  0  0
 22 23  1  0  0  0  0
 23 26  1  0  0  0  0
 24 31  1  0  0  0  0
 25 27  1  0  0  0  0
 26 29  2  0  0  0  0
 27 28  1  0  0  0  0
 28 31  1  0  0  0  0
 29 25  1  0  0  0  0
 29 30  1  0  0  0  0
 30 24  1  0  0  0  0
M  END
>  <MODEL>
9

>  <REMARK>
 VINA RESULT:      -6.8      1.314      2.351
  Name = 
  6 active torsions:
  status: ('A' for Active; 'I' for Inactive)
    1  A    between atoms: C_3  and  C_13
    2  A    between atoms: C_10  and  N_15
    3  A    between atoms: C_10  and  C_28
    4  A    between atoms: C_14  and  C_28
    5  A    between atoms: N_16  and  C_18
    6  A    between atoms: N_16  and  C_21
                            x       y       z     vdW  Elec       q    Type
                         _______ _______ _______ _____ _____    ______ ____

>  <TORSDO>
F 6

$$$$
