=
 OpenBabel11052410223D

 55 60  0  0  1  0  0  0  0  0999 V2000
  161.8700  207.0330  147.7390 C   0  0  0  0  0  0  0  0  0  0  0  0
  161.5540  208.0520  150.3750 C   0  0  0  0  0  3  0  0  0  0  0  0
  160.9890  202.4520  147.7500 S   0  0  0  0  0  0  0  0  0  0  0  0
  161.1240  205.7120  151.2310 C   0  0  0  0  0  0  0  0  0  0  0  0
  160.9730  203.8960  149.7110 C   0  0  0  0  0  0  0  0  0  0  0  0
  161.5350  206.0920  148.8390 C   0  0  0  0  0  0  0  0  0  0  0  0
  160.7550  202.5600  149.4130 C   0  0  0  0  0  3  0  0  0  0  0  0
  162.3510  208.4190  148.0500 C   0  0  0  0  0  2  0  0  0  0  0  0
  160.8950  204.3940  150.9670 N   0  0  0  0  0  0  0  0  0  0  0  0
  161.3010  204.7220  148.6260 C   0  0  0  0  0  0  0  0  0  0  0  0
  161.4290  206.5960  150.1560 C   0  0  0  0  0  0  0  0  0  0  0  0
  161.9410  208.8980  149.4150 C   0  0  0  0  0  0  0  0  0  0  0  0
  161.3590  204.0570  147.4040 C   0  0  0  0  0  3  0  0  0  0  0  0
  161.7950  206.6800  146.5330 O   0  0  0  0  0  0  0  0  0  0  0  0
  160.7710  207.9190  154.2770 C   0  0  0  0  0  0  0  0  0  0  0  0
  160.8950  207.5070  152.9480 C   0  0  0  0  0  3  0  0  0  0  0  0
  160.9510  205.6710  155.0200 C   0  0  0  0  0  3  0  0  0  0  0  0
  160.7950  206.9960  155.2780 N   0  0  0  0  0  0  0  0  0  0  0  0
  161.0840  205.2260  153.7040 C   0  0  0  0  0  3  0  0  0  0  0  0
  161.0670  206.1480  152.6510 C   0  0  0  0  0  0  0  0  0  0  0  0
  159.9010  212.7310  157.2390 Cl  0  0  0  0  0  0  0  0  0  0  0  0
  161.5860  209.8430  155.5630 C   0  0  0  0  0  3  0  0  0  0  0  0
  160.5600  209.3680  154.5770 C   0  0  1  0  0  3  0  0  0  0  0  0
  159.7500  212.1360  154.5830 C   0  0  1  0  0  3  0  0  0  0  0  0
  160.2690  211.4750  153.3350 C   0  0  0  0  0  3  0  0  0  0  0  0
  160.7560  212.2690  155.7450 C   0  0  2  0  0  3  0  0  0  0  0  0
  161.6610  211.0930  156.0460 C   0  0  0  0  0  3  0  0  0  0  0  0
  160.6270  210.1900  153.3260 C   0  0  0  0  0  3  0  0  0  0  0  0
  159.0500  213.3930  154.2830 N   0  0  0  0  0  2  0  0  0  0  0  0
  157.4160  213.1340  153.6490 P   0  0  2  0  0  0  0  0  0  0  0  0
  157.0370  211.6790  153.8420 O   0  0  0  0  0  0  0  0  0  0  0  0
  157.4180  213.4930  151.9870 O   0  0  0  0  0  0  0  0  0  0  0  0
  158.5500  214.2800  151.7670 C   0  0  0  0  0  1  0  0  0  0  0  0
  156.2870  214.1060  154.4790 O   0  0  0  0  0  0  0  0  0  0  0  0
  156.2210  213.5760  156.0980 P   0  0  0  0  0  0  0  0  0  0  0  0
  156.7090  211.9610  156.2520 O   0  0  0  0  0  0  0  0  0  0  0  0
  157.1000  214.4510  156.9610 O   0  0  0  0  0  1  0  0  0  0  0  0
  154.6250  213.7100  156.6400 O   0  0  0  0  0  1  0  0  0  0  0  0
  162.0060  210.3600  149.6990 C   0  0  0  0  0  2  0  0  0  0  0  0
  162.5250  211.1320  148.4960 C   0  0  0  0  0  2  0  0  0  0  0  0
  160.5210  211.8820  147.1660 N   0  0  0  0  0  2  0  0  0  0  0  0
  161.5470  212.1870  148.1130 C   0  0  0  0  0  0  0  0  0  0  0  0
  161.6180  213.3310  148.6380 O   0  0  0  0  0  0  0  0  0  0  0  0
  159.4850  212.8350  146.7920 C   0  0  1  0  0  3  0  0  0  0  0  0
  158.3710  213.6910  148.4180 O   0  0  0  0  0  1  0  0  0  0  0  0
  159.4570  213.8940  147.7030 O   0  0  0  0  0  0  0  0  0  0  0  0
  159.7480  213.3480  145.3760 C   0  0  2  0  0  3  0  0  0  0  0  0
  158.6360  213.0980  144.5640 O   0  0  0  0  0  1  0  0  0  0  0  0
  160.8420  212.2870  143.3080 C   0  0  2  0  0  3  0  0  0  0  0  0
  161.0000  212.7030  144.7730 C   0  0  1  0  0  3  0  0  0  0  0  0
  162.1930  212.5290  142.7510 C   0  0  0  0  0  0  0  0  0  0  0  0
  162.2140  213.6310  144.8350 C   0  0  0  0  0  2  0  0  0  0  0  0
  159.9350  213.0960  142.6430 F   0  0  0  0  0  0  0  0  0  0  0  0
  162.5280  212.1560  141.6380 O   0  0  0  0  0  0  0  0  0  0  0  0
  163.1050  213.2590  143.6610 C   0  0  0  0  0  2  0  0  0  0  0  0
  1  8  1  0  0  0  0
  1  6  1  0  0  0  0
  3  7  1  0  0  0  0
  4 20  1  0  0  0  0
  5  9  1  0  0  0  0
  6 11  2  0  0  0  0
  7  5  2  0  0  0  0
  8 12  1  0  0  0  0
  9  4  2  0  0  0  0
 10  6  1  0  0  0  0
 10  5  1  0  0  0  0
 11  2  1  0  0  0  0
 11  4  1  0  0  0  0
 12 39  1  0  0  0  0
 12  2  2  0  0  0  0
 13  3  1  0  0  0  0
 13 10  2  0  0  0  0
 14  1  2  0  0  0  0
 15 18  1  0  0  0  0
 16 15  2  0  0  0  0
 17 18  2  0  0  0  0
 19 17  1  0  0  0  0
 20 16  1  0  0  0  0
 20 19  2  0  0  0  0
 22 27  2  0  0  0  0
 23 15  1  6  0  0  0
 23 22  1  0  0  0  0
 24 29  1  6  0  0  0
 24 26  1  0  0  0  0
 25 24  1  0  0  0  0
 26 27  1  0  0  0  0
 26 21  1  1  0  0  0
 28 25  2  0  0  0  0
 28 23  1  0  0  0  0
 30 31  2  1  0  0  0
 30 29  1  0  0  0  0
 30 34  1  0  0  0  0
 32 30  1  0  0  0  0
 33 32  1  0  0  0  0
 34 35  1  0  0  0  0
 35 36  2  0  0  0  0
 35 38  1  0  0  0  0
 35 37  1  0  0  0  0
 40 39  1  0  0  0  0
 41 42  1  0  0  0  0
 42 40  1  0  0  0  0
 42 43  2  0  0  0  0
 44 41  1  1  0  0  0
 44 46  1  0  0  0  0
 46 45  1  0  0  0  0
 47 48  1  6  0  0  0
 47 44  1  0  0  0  0
 49 53  1  6  0  0  0
 49 50  1  0  0  0  0
 50 52  1  0  0  0  0
 50 47  1  6  0  0  0
 51 49  1  0  0  0  0
 51 55  1  0  0  0  0
 54 51  2  0  0  0  0
 55 52  1  0  0  0  0
M  END
>  <MODEL>
1

>  <REMARK>
 VINA RESULT:      -7.7      0.000      0.000
  Name = 
  14 active torsions:
  status: ('A' for Active; 'I' for Inactive)
    1  A    between atoms: C_2  and  C_28
    2  A    between atoms: C_4  and  C_27
    3  A    between atoms: C_4  and  C_44
    4  A    between atoms: C_6  and  C_20
    5  A    between atoms: C_6  and  C_31
    6  A    between atoms: O_7  and  P_17
    7  A    between atoms: N_10  and  P_17
    8  A    between atoms: N_10  and  C_29
    9  A    between atoms: O_13  and  P_17
   10  A    between atoms: O_13  and  P_18
   11  A    between atoms: C_14  and  C_49
   12  A    between atoms: C_20  and  N_25
   13  A    between atoms: C_20  and  O_53
   14  A    between atoms: C_27  and  C_46
                            x       y       z     vdW  Elec       q    Type
                         _______ _______ _______ _____ _____    ______ ____

>  <TORSDO>
F 14

$$$$
=
 OpenBabel11052410223D

 55 60  0  0  1  0  0  0  0  0999 V2000
  161.4550  205.9490  146.8670 C   0  0  0  0  0  0  0  0  0  0  0  0
  161.1740  207.0430  149.4770 C   0  0  0  0  0  3  0  0  0  0  0  0
  161.1840  201.2980  147.1160 S   0  0  0  0  0  0  0  0  0  0  0  0
  161.1090  204.7100  150.4500 C   0  0  0  0  0  0  0  0  0  0  0  0
  161.1020  202.8200  149.0160 C   0  0  0  0  0  0  0  0  0  0  0  0
  161.3160  205.0260  148.0230 C   0  0  0  0  0  0  0  0  0  0  0  0
  161.0430  201.4540  148.7850 C   0  0  0  0  0  3  0  0  0  0  0  0
  161.7690  207.3990  147.0900 C   0  0  0  0  0  2  0  0  0  0  0  0
  161.0390  203.3620  150.2540 N   0  0  0  0  0  0  0  0  0  0  0  0
  161.2510  203.6280  147.8800 C   0  0  0  0  0  0  0  0  0  0  0  0
  161.2280  205.5740  149.3240 C   0  0  0  0  0  0  0  0  0  0  0  0
  161.3870  207.8850  148.4610 C   0  0  0  0  0  0  0  0  0  0  0  0
  161.3190  202.9200  146.6830 C   0  0  0  0  0  3  0  0  0  0  0  0
  161.3520  205.5320  145.6830 O   0  0  0  0  0  0  0  0  0  0  0  0
  160.9340  207.0510  153.4100 C   0  0  0  0  0  0  0  0  0  0  0  0
  161.0260  206.5810  152.0990 C   0  0  0  0  0  3  0  0  0  0  0  0
  160.9220  204.8260  154.2370 C   0  0  0  0  0  3  0  0  0  0  0  0
  160.8770  206.1680  154.4450 N   0  0  0  0  0  0  0  0  0  0  0  0
  161.0220  204.3220  152.9390 C   0  0  0  0  0  3  0  0  0  0  0  0
  161.0850  205.2020  151.8530 C   0  0  0  0  0  0  0  0  0  0  0  0
  160.1940  212.0180  156.1450 Cl  0  0  0  0  0  0  0  0  0  0  0  0
  161.7680  208.9150  154.7700 C   0  0  0  0  0  3  0  0  0  0  0  0
  160.8440  208.5230  153.6550 C   0  0  1  0  0  3  0  0  0  0  0  0
  160.3520  211.3610  153.5040 C   0  0  1  0  0  3  0  0  0  0  0  0
  160.9640  210.6100  152.3520 C   0  0  0  0  0  3  0  0  0  0  0  0
  161.1930  211.4210  154.7950 C   0  0  2  0  0  3  0  0  0  0  0  0
  161.9120  210.1650  155.2400 C   0  0  0  0  0  3  0  0  0  0  0  0
  161.1750  209.2940  152.4140 C   0  0  0  0  0  3  0  0  0  0  0  0
  159.8430  212.6760  153.0880 N   0  0  0  0  0  2  0  0  0  0  0  0
  158.0840  212.8150  153.2520 P   0  0  2  0  0  0  0  0  0  0  0  0
  157.4770  211.4260  153.2450 O   0  0  0  0  0  0  0  0  0  0  0  0
  157.4850  213.6900  151.9240 O   0  0  0  0  0  0  0  0  0  0  0  0
  158.1520  213.1900  150.8040 C   0  0  0  0  0  1  0  0  0  0  0  0
  157.6760  213.5810  154.7200 O   0  0  0  0  0  0  0  0  0  0  0  0
  156.1580  212.9900  155.2220 P   0  0  0  0  0  0  0  0  0  0  0  0
  155.0230  213.0200  153.9660 O   0  0  0  0  0  0  0  0  0  0  0  0
  156.3020  211.5750  155.7350 O   0  0  0  0  0  1  0  0  0  0  0  0
  155.5940  213.9660  156.4820 O   0  0  0  0  0  1  0  0  0  0  0  0
  161.2770  209.3550  148.6830 C   0  0  0  0  0  2  0  0  0  0  0  0
  162.5890  210.0580  148.3720 C   0  0  0  0  0  2  0  0  0  0  0  0
  161.1510  211.8570  147.3500 N   0  0  0  0  0  2  0  0  0  0  0  0
  162.3340  211.4920  148.0650 C   0  0  0  0  0  0  0  0  0  0  0  0
  163.1490  212.3730  148.4510 O   0  0  0  0  0  0  0  0  0  0  0  0
  160.7930  213.2410  147.0720 C   0  0  1  0  0  3  0  0  0  0  0  0
  160.5380  214.4530  148.8290 O   0  0  0  0  0  1  0  0  0  0  0  0
  161.4570  214.0940  147.9580 O   0  0  0  0  0  0  0  0  0  0  0  0
  161.1490  213.5810  145.6250 C   0  0  2  0  0  3  0  0  0  0  0  0
  162.3670  214.2690  145.5840 O   0  0  0  0  0  1  0  0  0  0  0  0
  159.9590  214.2350  143.4450 C   0  0  2  0  0  3  0  0  0  0  0  0
  160.0470  214.4150  144.9620 C   0  0  1  0  0  3  0  0  0  0  0  0
  158.5060  214.3520  143.1840 C   0  0  0  0  0  0  0  0  0  0  0  0
  158.6610  214.0880  145.5220 C   0  0  0  0  0  2  0  0  0  0  0  0
  160.3810  212.9750  143.0540 F   0  0  0  0  0  0  0  0  0  0  0  0
  158.0380  214.4370  142.0600 O   0  0  0  0  0  0  0  0  0  0  0  0
  157.6670  214.3610  144.4050 C   0  0  0  0  0  2  0  0  0  0  0  0
  1  8  1  0  0  0  0
  1  6  1  0  0  0  0
  3  7  1  0  0  0  0
  4 20  1  0  0  0  0
  5  9  1  0  0  0  0
  6 11  2  0  0  0  0
  7  5  2  0  0  0  0
  8 12  1  0  0  0  0
  9  4  2  0  0  0  0
 10  6  1  0  0  0  0
 10  5  1  0  0  0  0
 11  2  1  0  0  0  0
 11  4  1  0  0  0  0
 12 39  1  0  0  0  0
 12  2  2  0  0  0  0
 13  3  1  0  0  0  0
 13 10  2  0  0  0  0
 14  1  2  0  0  0  0
 15 18  1  0  0  0  0
 16 15  2  0  0  0  0
 17 18  2  0  0  0  0
 19 17  1  0  0  0  0
 20 16  1  0  0  0  0
 20 19  2  0  0  0  0
 22 27  2  0  0  0  0
 23 15  1  6  0  0  0
 23 22  1  0  0  0  0
 24 29  1  6  0  0  0
 24 26  1  0  0  0  0
 25 28  2  0  0  0  0
 25 24  1  0  0  0  0
 26 27  1  0  0  0  0
 26 21  1  1  0  0  0
 28 23  1  0  0  0  0
 29 30  1  0  0  0  0
 30 31  2  6  0  0  0
 30 34  1  0  0  0  0
 32 30  1  0  0  0  0
 33 32  1  0  0  0  0
 34 35  1  0  0  0  0
 35 37  1  0  0  0  0
 35 38  1  0  0  0  0
 36 35  2  0  0  0  0
 40 39  1  0  0  0  0
 41 42  1  0  0  0  0
 42 40  1  0  0  0  0
 42 43  2  0  0  0  0
 44 41  1  1  0  0  0
 44 46  1  0  0  0  0
 46 45  1  0  0  0  0
 47 48  1  1  0  0  0
 47 44  1  0  0  0  0
 49 53  1  1  0  0  0
 49 50  1  0  0  0  0
 50 52  1  0  0  0  0
 50 47  1  1  0  0  0
 51 49  1  0  0  0  0
 51 55  1  0  0  0  0
 54 51  2  0  0  0  0
 55 52  1  0  0  0  0
M  END
>  <MODEL>
2

>  <REMARK>
 VINA RESULT:      -6.9      1.440      1.975
  Name = 
  14 active torsions:
  status: ('A' for Active; 'I' for Inactive)
    1  A    between atoms: C_2  and  C_28
    2  A    between atoms: C_4  and  C_27
    3  A    between atoms: C_4  and  C_44
    4  A    between atoms: C_6  and  C_20
    5  A    between atoms: C_6  and  C_31
    6  A    between atoms: O_7  and  P_17
    7  A    between atoms: N_10  and  P_17
    8  A    between atoms: N_10  and  C_29
    9  A    between atoms: O_13  and  P_17
   10  A    between atoms: O_13  and  P_18
   11  A    between atoms: C_14  and  C_49
   12  A    between atoms: C_20  and  N_25
   13  A    between atoms: C_20  and  O_53
   14  A    between atoms: C_27  and  C_46
                            x       y       z     vdW  Elec       q    Type
                         _______ _______ _______ _____ _____    ______ ____

>  <TORSDO>
F 14

$$$$
=
 OpenBabel11052410223D

 55 60  0  0  1  0  0  0  0  0999 V2000
  161.1900  202.9590  145.7130 C   0  0  0  0  0  0  0  0  0  0  0  0
  161.2850  205.7480  146.2580 C   0  0  0  0  0  3  0  0  0  0  0  0
  160.7510  200.6260  149.7300 S   0  0  0  0  0  0  0  0  0  0  0  0
  161.2410  205.2680  148.7400 C   0  0  0  0  0  0  0  0  0  0  0  0
  160.9740  203.0420  149.5180 C   0  0  0  0  0  0  0  0  0  0  0  0
  161.1570  203.4170  147.1260 C   0  0  0  0  0  0  0  0  0  0  0  0
  160.8270  202.1050  150.5290 C   0  0  0  0  0  3  0  0  0  0  0  0
  161.5920  203.9040  144.6200 C   0  0  0  0  0  2  0  0  0  0  0  0
  161.0890  204.3700  149.7550 N   0  0  0  0  0  0  0  0  0  0  0  0
  161.0140  202.5350  148.2120 C   0  0  0  0  0  0  0  0  0  0  0  0
  161.2550  204.8030  147.3930 C   0  0  0  0  0  0  0  0  0  0  0  0
  161.4060  205.3500  144.9870 C   0  0  0  0  0  0  0  0  0  0  0  0
  160.9010  201.1490  148.1360 C   0  0  0  0  0  3  0  0  0  0  0  0
  160.9220  201.7670  145.4080 O   0  0  0  0  0  0  0  0  0  0  0  0
  161.3590  208.4370  150.7920 C   0  0  0  0  0  0  0  0  0  0  0  0
  161.1340  207.1110  150.4170 C   0  0  0  0  0  3  0  0  0  0  0  0
  162.1640  208.9450  148.6170 C   0  0  0  0  0  3  0  0  0  0  0  0
  161.8730  209.3190  149.8900 N   0  0  0  0  0  0  0  0  0  0  0  0
  161.9440  207.6290  148.2070 C   0  0  0  0  0  3  0  0  0  0  0  0
  161.4140  206.6970  149.1080 C   0  0  0  0  0  0  0  0  0  0  0  0
  159.1910  208.4330  156.0820 Cl  0  0  0  0  0  0  0  0  0  0  0  0
  161.3950  207.7340  153.1420 C   0  0  0  0  0  3  0  0  0  0  0  0
  161.0810  208.8570  152.1990 C   0  0  1  0  0  3  0  0  0  0  0  0
  160.5330  210.3100  154.6310 C   0  0  1  0  0  3  0  0  0  0  0  0
  161.6340  210.7340  153.6960 C   0  0  0  0  0  3  0  0  0  0  0  0
  160.7160  208.9370  155.3100 C   0  0  2  0  0  3  0  0  0  0  0  0
  161.2410  207.7880  154.4750 C   0  0  0  0  0  3  0  0  0  0  0  0
  161.8770  210.0740  152.5620 C   0  0  0  0  0  3  0  0  0  0  0  0
  160.1800  211.3770  155.5770 N   0  0  0  0  0  2  0  0  0  0  0  0
  158.5280  211.9780  155.3490 P   0  0  2  0  0  0  0  0  0  0  0  0
  157.9340  211.3290  154.1150 O   0  0  0  0  0  0  0  0  0  0  0  0
  158.5930  213.6610  155.1180 O   0  0  0  0  0  0  0  0  0  0  0  0
  158.8630  213.8500  153.7610 C   0  0  0  0  0  1  0  0  0  0  0  0
  157.5550  211.5860  156.6930 O   0  0  0  0  0  0  0  0  0  0  0  0
  156.0590  212.3820  156.5150 P   0  0  0  0  0  0  0  0  0  0  0  0
  155.6450  212.5870  154.8850 O   0  0  0  0  0  0  0  0  0  0  0  0
  154.9730  211.5980  157.2150 O   0  0  0  0  0  1  0  0  0  0  0  0
  156.1750  213.9070  157.2370 O   0  0  0  0  0  1  0  0  0  0  0  0
  161.3880  206.3600  143.8900 C   0  0  0  0  0  2  0  0  0  0  0  0
  161.4490  205.6910  142.5260 C   0  0  0  0  0  2  0  0  0  0  0  0
  161.2930  207.0800  140.4300 N   0  0  0  0  0  2  0  0  0  0  0  0
  162.0670  206.6160  141.5370 C   0  0  0  0  0  0  0  0  0  0  0  0
  163.2590  206.9970  141.6930 O   0  0  0  0  0  0  0  0  0  0  0  0
  161.8000  208.0400  139.4590 C   0  0  1  0  0  3  0  0  0  0  0  0
  162.3090  206.1280  138.6180 O   0  0  0  0  0  1  0  0  0  0  0  0
  162.1360  207.3860  138.2700 O   0  0  0  0  0  0  0  0  0  0  0  0
  160.7460  209.1160  139.2030 C   0  0  2  0  0  3  0  0  0  0  0  0
  159.8430  208.6760  138.2280 O   0  0  0  0  0  1  0  0  0  0  0  0
  160.4840  211.6580  138.9400 C   0  0  2  0  0  3  0  0  0  0  0  0
  161.3910  210.4370  138.7700 C   0  0  1  0  0  3  0  0  0  0  0  0
  161.4400  212.7280  139.3080 C   0  0  0  0  0  0  0  0  0  0  0  0
  162.6740  210.7340  139.5500 C   0  0  0  0  0  2  0  0  0  0  0  0
  159.5870  211.4870  139.9810 F   0  0  0  0  0  0  0  0  0  0  0  0
  161.1280  213.9070  139.3620 O   0  0  0  0  0  0  0  0  0  0  0  0
  162.8100  212.2470  139.6010 C   0  0  0  0  0  2  0  0  0  0  0  0
  1  6  1  0  0  0  0
  2 11  1  0  0  0  0
  3  7  1  0  0  0  0
  4 20  1  0  0  0  0
  4  9  2  0  0  0  0
  5  9  1  0  0  0  0
  5  7  2  0  0  0  0
  6 11  2  0  0  0  0
  6 10  1  0  0  0  0
  8 12  1  0  0  0  0
  8  1  1  0  0  0  0
 10  5  1  0  0  0  0
 11  4  1  0  0  0  0
 12  2  2  0  0  0  0
 13 10  2  0  0  0  0
 13  3  1  0  0  0  0
 14  1  2  0  0  0  0
 16 15  1  0  0  0  0
 17 18  1  0  0  0  0
 18 15  2  0  0  0  0
 19 17  2  0  0  0  0
 19 20  1  0  0  0  0
 20 16  2  0  0  0  0
 22 27  2  0  0  0  0
 23 15  1  6  0  0  0
 23 28  1  0  0  0  0
 23 22  1  0  0  0  0
 24 26  1  0  0  0  0
 24 29  1  1  0  0  0
 25 24  1  0  0  0  0
 26 21  1  6  0  0  0
 27 26  1  0  0  0  0
 28 25  2  0  0  0  0
 30 31  2  6  0  0  0
 30 29  1  0  0  0  0
 30 34  1  0  0  0  0
 32 30  1  0  0  0  0
 33 32  1  0  0  0  0
 35 34  1  0  0  0  0
 35 37  1  0  0  0  0
 35 38  1  0  0  0  0
 36 35  2  0  0  0  0
 39 12  1  0  0  0  0
 40 39  1  0  0  0  0
 41 42  1  0  0  0  0
 42 43  2  0  0  0  0
 42 40  1  0  0  0  0
 44 46  1  6  0  0  0
 44 41  1  0  0  0  0
 46 45  1  0  0  0  0
 47 48  1  6  0  0  0
 47 44  1  0  0  0  0
 49 51  1  0  0  0  0
 49 53  1  1  0  0  0
 50 49  1  0  0  0  0
 50 47  1  1  0  0  0
 50 52  1  0  0  0  0
 51 54  2  0  0  0  0
 51 55  1  0  0  0  0
 52 55  1  0  0  0  0
M  END
>  <MODEL>
3

>  <REMARK>
 VINA RESULT:      -6.8      3.262      5.195
  Name = 
  14 active torsions:
  status: ('A' for Active; 'I' for Inactive)
    1  A    between atoms: C_2  and  C_28
    2  A    between atoms: C_4  and  C_27
    3  A    between atoms: C_4  and  C_44
    4  A    between atoms: C_6  and  C_20
    5  A    between atoms: C_6  and  C_31
    6  A    between atoms: O_7  and  P_17
    7  A    between atoms: N_10  and  P_17
    8  A    between atoms: N_10  and  C_29
    9  A    between atoms: O_13  and  P_17
   10  A    between atoms: O_13  and  P_18
   11  A    between atoms: C_14  and  C_49
   12  A    between atoms: C_20  and  N_25
   13  A    between atoms: C_20  and  O_53
   14  A    between atoms: C_27  and  C_46
                            x       y       z     vdW  Elec       q    Type
                         _______ _______ _______ _____ _____    ______ ____

>  <TORSDO>
F 14

$$$$
=
 OpenBabel11052410223D

 55 60  0  0  1  0  0  0  0  0999 V2000
  161.9940  206.9730  147.6480 C   0  0  0  0  0  0  0  0  0  0  0  0
  161.6640  208.0260  150.2690 C   0  0  0  0  0  3  0  0  0  0  0  0
  160.9360  202.4290  147.6780 S   0  0  0  0  0  0  0  0  0  0  0  0
  161.1270  205.7130  151.1340 C   0  0  0  0  0  0  0  0  0  0  0  0
  160.9370  203.8910  149.6260 C   0  0  0  0  0  0  0  0  0  0  0  0
  161.6010  206.0550  148.7480 C   0  0  0  0  0  0  0  0  0  0  0  0
  160.6730  202.5610  149.3350 C   0  0  0  0  0  3  0  0  0  0  0  0
  162.5220  208.3420  147.9580 C   0  0  0  0  0  2  0  0  0  0  0  0
  160.8520  204.4020  150.8770 N   0  0  0  0  0  0  0  0  0  0  0  0
  161.3190  204.6930  148.5420 C   0  0  0  0  0  0  0  0  0  0  0  0
  161.4880  206.5750  150.0590 C   0  0  0  0  0  0  0  0  0  0  0  0
  162.1040  208.8480  149.3100 C   0  0  0  0  0  0  0  0  0  0  0  0
  161.3760  204.0160  147.3260 C   0  0  0  0  0  3  0  0  0  0  0  0
  161.9310  206.6120  146.4430 O   0  0  0  0  0  0  0  0  0  0  0  0
  160.7500  207.9510  154.1550 C   0  0  0  0  0  0  0  0  0  0  0  0
  160.8850  207.5250  152.8310 C   0  0  0  0  0  3  0  0  0  0  0  0
  160.9200  205.7110  154.9220 C   0  0  0  0  0  3  0  0  0  0  0  0
  160.7640  207.0380  155.1650 N   0  0  0  0  0  0  0  0  0  0  0  0
  161.0640  205.2520  153.6120 C   0  0  0  0  0  3  0  0  0  0  0  0
  161.0580  206.1630  152.5490 C   0  0  0  0  0  0  0  0  0  0  0  0
  159.8090  212.7880  157.0540 Cl  0  0  0  0  0  0  0  0  0  0  0  0
  161.5320  209.8770  155.4570 C   0  0  0  0  0  3  0  0  0  0  0  0
  160.5390  209.4030  154.4380 C   0  0  1  0  0  3  0  0  0  0  0  0
  159.7490  212.1770  154.3980 C   0  0  1  0  0  3  0  0  0  0  0  0
  160.3070  211.5040  153.1730 C   0  0  0  0  0  3  0  0  0  0  0  0
  160.7130  212.3100  155.5950 C   0  0  2  0  0  3  0  0  0  0  0  0
  161.5990  211.1300  155.9350 C   0  0  0  0  0  3  0  0  0  0  0  0
  160.6560  210.2160  153.1850 C   0  0  0  0  0  3  0  0  0  0  0  0
  159.0680  213.4360  154.0660 N   0  0  0  0  0  2  0  0  0  0  0  0
  157.3070  213.2620  153.9730 P   0  0  2  0  0  0  0  0  0  0  0  0
  156.6840  213.8960  155.2010 O   0  0  0  0  0  0  0  0  0  0  0  0
  156.9290  211.6050  153.9500 O   0  0  0  0  0  0  0  0  0  0  0  0
  156.2950  211.3400  155.1660 C   0  0  0  0  0  1  0  0  0  0  0  0
  156.6970  214.0440  152.5860 O   0  0  0  0  0  0  0  0  0  0  0  0
  157.7740  213.7540  151.2980 P   0  0  0  0  0  0  0  0  0  0  0  0
  158.0060  212.0970  151.0310 O   0  0  0  0  0  1  0  0  0  0  0  0
  157.2490  214.3970  150.0340 O   0  0  0  0  0  0  0  0  0  0  0  0
  159.2660  214.4520  151.6790 O   0  0  0  0  0  1  0  0  0  0  0  0
  162.2200  210.3100  149.5840 C   0  0  0  0  0  2  0  0  0  0  0  0
  160.9150  211.0310  149.2840 C   0  0  0  0  0  2  0  0  0  0  0  0
  161.3010  212.3520  147.1740 N   0  0  0  0  0  2  0  0  0  0  0  0
  161.1980  212.3220  148.5990 C   0  0  0  0  0  0  0  0  0  0  0  0
  161.3250  213.3780  149.2760 O   0  0  0  0  0  0  0  0  0  0  0  0
  161.5060  213.5840  146.4240 C   0  0  1  0  0  3  0  0  0  0  0  0
  163.4270  212.6250  146.5290 O   0  0  0  0  0  1  0  0  0  0  0  0
  162.8630  213.7460  146.1310 O   0  0  0  0  0  0  0  0  0  0  0  0
  160.6770  213.5460  145.1400 C   0  0  2  0  0  3  0  0  0  0  0  0
  159.3490  213.2200  145.4400 O   0  0  0  0  0  1  0  0  0  0  0  0
  160.1980  211.8530  143.2690 C   0  0  2  0  0  3  0  0  0  0  0  0
  161.2550  212.5450  144.1340 C   0  0  1  0  0  3  0  0  0  0  0  0
  160.8930  211.6900  141.9710 C   0  0  0  0  0  0  0  0  0  0  0  0
  162.2460  213.2030  143.1720 C   0  0  0  0  0  2  0  0  0  0  0  0
  159.0870  212.6580  143.0790 F   0  0  0  0  0  0  0  0  0  0  0  0
  160.4420  211.0190  141.0570 O   0  0  0  0  0  0  0  0  0  0  0  0
  162.1860  212.4070  141.8780 C   0  0  0  0  0  2  0  0  0  0  0  0
  1  8  1  0  0  0  0
  1  6  1  0  0  0  0
  3  7  1  0  0  0  0
  4 20  1  0  0  0  0
  5  9  1  0  0  0  0
  6 11  2  0  0  0  0
  7  5  2  0  0  0  0
  8 12  1  0  0  0  0
  9  4  2  0  0  0  0
 10  6  1  0  0  0  0
 10  5  1  0  0  0  0
 11  2  1  0  0  0  0
 11  4  1  0  0  0  0
 12 39  1  0  0  0  0
 12  2  2  0  0  0  0
 13  3  1  0  0  0  0
 13 10  2  0  0  0  0
 14  1  2  0  0  0  0
 15 18  1  0  0  0  0
 16 15  2  0  0  0  0
 17 18  2  0  0  0  0
 19 17  1  0  0  0  0
 20 16  1  0  0  0  0
 20 19  2  0  0  0  0
 22 27  2  0  0  0  0
 23 15  1  6  0  0  0
 23 22  1  0  0  0  0
 24 29  1  6  0  0  0
 24 26  1  0  0  0  0
 25 28  2  0  0  0  0
 25 24  1  0  0  0  0
 26 27  1  0  0  0  0
 26 21  1  1  0  0  0
 28 23  1  0  0  0  0
 30 29  1  0  0  0  0
 30 31  2  1  0  0  0
 32 30  1  0  0  0  0
 32 33  1  0  0  0  0
 34 30  1  0  0  0  0
 35 38  1  0  0  0  0
 35 34  1  0  0  0  0
 36 35  1  0  0  0  0
 37 35  2  0  0  0  0
 40 39  1  0  0  0  0
 41 42  1  0  0  0  0
 42 43  2  0  0  0  0
 42 40  1  0  0  0  0
 44 46  1  6  0  0  0
 44 41  1  0  0  0  0
 46 45  1  0  0  0  0
 47 48  1  1  0  0  0
 47 44  1  0  0  0  0
 49 53  1  6  0  0  0
 49 50  1  0  0  0  0
 50 47  1  1  0  0  0
 51 49  1  0  0  0  0
 52 50  1  0  0  0  0
 54 51  2  0  0  0  0
 55 51  1  0  0  0  0
 55 52  1  0  0  0  0
M  END
>  <MODEL>
4

>  <REMARK>
 VINA RESULT:      -6.7      1.132      2.210
  Name = 
  14 active torsions:
  status: ('A' for Active; 'I' for Inactive)
    1  A    between atoms: C_2  and  C_28
    2  A    between atoms: C_4  and  C_27
    3  A    between atoms: C_4  and  C_44
    4  A    between atoms: C_6  and  C_20
    5  A    between atoms: C_6  and  C_31
    6  A    between atoms: O_7  and  P_17
    7  A    between atoms: N_10  and  P_17
    8  A    between atoms: N_10  and  C_29
    9  A    between atoms: O_13  and  P_17
   10  A    between atoms: O_13  and  P_18
   11  A    between atoms: C_14  and  C_49
   12  A    between atoms: C_20  and  N_25
   13  A    between atoms: C_20  and  O_53
   14  A    between atoms: C_27  and  C_46
                            x       y       z     vdW  Elec       q    Type
                         _______ _______ _______ _____ _____    ______ ____

>  <TORSDO>
F 14

$$$$
=
 OpenBabel11052410223D

 55 60  0  0  1  0  0  0  0  0999 V2000
  156.7700  214.1880  146.3110 C   0  0  0  0  0  0  0  0  0  0  0  0
  158.6190  213.1040  148.1800 C   0  0  0  0  0  3  0  0  0  0  0  0
  158.7190  214.2220  142.0720 S   0  0  0  0  0  0  0  0  0  0  0  0
  160.3710  212.9510  146.3640 C   0  0  0  0  0  0  0  0  0  0  0  0
  159.8140  213.4940  144.1230 C   0  0  0  0  0  0  0  0  0  0  0  0
  158.1270  213.8030  145.8410 C   0  0  0  0  0  0  0  0  0  0  0  0
  160.1190  213.6080  142.7750 C   0  0  0  0  0  3  0  0  0  0  0  0
  156.4850  214.3130  147.7780 C   0  0  0  0  0  2  0  0  0  0  0  0
  160.6970  213.0440  145.0430 N   0  0  0  0  0  0  0  0  0  0  0  0
  158.5210  213.8900  144.4950 C   0  0  0  0  0  0  0  0  0  0  0  0
  159.0590  213.3120  146.7860 C   0  0  0  0  0  0  0  0  0  0  0  0
  157.4350  213.5260  148.6370 C   0  0  0  0  0  0  0  0  0  0  0  0
  157.7400  214.3460  143.4360 C   0  0  0  0  0  3  0  0  0  0  0  0
  155.8490  214.4530  145.4950 O   0  0  0  0  0  0  0  0  0  0  0  0
  162.2850  210.8200  148.8280 C   0  0  0  0  0  0  0  0  0  0  0  0
  161.2660  211.2900  147.9960 C   0  0  0  0  0  3  0  0  0  0  0  0
  163.6350  212.6930  148.2780 C   0  0  0  0  0  3  0  0  0  0  0  0
  163.4440  211.5250  148.9440 N   0  0  0  0  0  0  0  0  0  0  0  0
  162.6350  213.1950  147.4440 C   0  0  0  0  0  3  0  0  0  0  0  0
  161.4290  212.4970  147.3030 C   0  0  0  0  0  0  0  0  0  0  0  0
  162.2050  206.9510  153.0370 Cl  0  0  0  0  0  0  0  0  0  0  0  0
  161.1800  209.6900  150.7040 C   0  0  0  0  0  3  0  0  0  0  0  0
  162.1070  209.5170  149.5380 C   0  0  1  0  0  3  0  0  0  0  0  0
  162.0480  206.7420  150.3230 C   0  0  1  0  0  3  0  0  0  0  0  0
  161.5340  207.1870  148.9810 C   0  0  0  0  0  3  0  0  0  0  0  0
  161.2730  207.2650  151.5500 C   0  0  2  0  0  3  0  0  0  0  0  0
  160.8250  208.7110  151.5520 C   0  0  0  0  0  3  0  0  0  0  0  0
  161.5770  208.4680  148.6080 C   0  0  0  0  0  3  0  0  0  0  0  0
  162.2800  205.2910  150.3650 N   0  0  0  0  0  2  0  0  0  0  0  0
  160.9160  204.3590  149.7240 P   0  0  2  0  0  0  0  0  0  0  0  0
  159.7560  205.2990  149.4630 O   0  0  0  0  0  0  0  0  0  0  0  0
  160.4520  203.2110  150.8880 O   0  0  0  0  0  0  0  0  0  0  0  0
  161.2320  203.4730  152.0160 C   0  0  0  0  0  1  0  0  0  0  0  0
  161.3430  203.6000  148.2570 O   0  0  0  0  0  0  0  0  0  0  0  0
  160.8320  201.9760  148.3330 P   0  0  0  0  0  0  0  0  0  0  0  0
  160.6290  201.3070  146.7900 O   0  0  0  0  0  0  0  0  0  0  0  0
  161.8390  201.1570  149.1070 O   0  0  0  0  0  1  0  0  0  0  0  0
  159.3500  201.9180  149.1450 O   0  0  0  0  0  1  0  0  0  0  0  0
  157.0420  213.2440  150.0480 C   0  0  0  0  0  2  0  0  0  0  0  0
  157.6590  214.2540  151.0030 C   0  0  0  0  0  2  0  0  0  0  0  0
  158.5950  213.2280  153.1050 N   0  0  0  0  0  2  0  0  0  0  0  0
  157.4830  213.7930  152.4070 C   0  0  0  0  0  0  0  0  0  0  0  0
  156.3640  213.9210  152.9760 O   0  0  0  0  0  0  0  0  0  0  0  0
  158.5240  212.8180  154.5010 C   0  0  1  0  0  3  0  0  0  0  0  0
  157.6610  213.7790  156.2190 O   0  0  0  0  0  1  0  0  0  0  0  0
  157.3190  213.2460  155.0650 O   0  0  0  0  0  0  0  0  0  0  0  0
  158.6550  211.2980  154.5960 C   0  0  2  0  0  3  0  0  0  0  0  0
  157.4120  210.7320  154.9040 O   0  0  0  0  0  1  0  0  0  0  0  0
  159.9430  209.3850  155.7260 C   0  0  2  0  0  3  0  0  0  0  0  0
  159.6960  210.8940  155.6440 C   0  0  1  0  0  3  0  0  0  0  0  0
  161.3870  209.3050  156.0450 C   0  0  0  0  0  0  0  0  0  0  0  0
  161.0560  211.5460  155.3870 C   0  0  0  0  0  2  0  0  0  0  0  0
  159.7230  208.7650  154.5060 F   0  0  0  0  0  0  0  0  0  0  0  0
  161.9410  208.2650  156.3640 O   0  0  0  0  0  0  0  0  0  0  0  0
  162.1040  210.5980  155.9490 C   0  0  0  0  0  2  0  0  0  0  0  0
  1  8  1  0  0  0  0
  2 12  2  0  0  0  0
  3  7  1  0  0  0  0
  3 13  1  0  0  0  0
  4 11  1  0  0  0  0
  4 20  1  0  0  0  0
  5 10  1  0  0  0  0
  5  9  1  0  0  0  0
  6  1  1  0  0  0  0
  6 11  2  0  0  0  0
  7  5  2  0  0  0  0
  8 12  1  0  0  0  0
  9  4  2  0  0  0  0
 10  6  1  0  0  0  0
 11  2  1  0  0  0  0
 12 39  1  0  0  0  0
 13 10  2  0  0  0  0
 14  1  2  0  0  0  0
 15 18  1  0  0  0  0
 16 15  2  0  0  0  0
 17 18  2  0  0  0  0
 19 17  1  0  0  0  0
 20 19  2  0  0  0  0
 20 16  1  0  0  0  0
 22 27  2  0  0  0  0
 23 15  1  6  0  0  0
 23 22  1  0  0  0  0
 24 29  1  6  0  0  0
 24 26  1  0  0  0  0
 25 24  1  0  0  0  0
 26 27  1  0  0  0  0
 26 21  1  1  0  0  0
 28 25  2  0  0  0  0
 28 23  1  0  0  0  0
 30 31  2  6  0  0  0
 30 29  1  0  0  0  0
 30 32  1  0  0  0  0
 32 33  1  0  0  0  0
 34 35  1  0  0  0  0
 34 30  1  0  0  0  0
 35 37  1  0  0  0  0
 35 38  1  0  0  0  0
 36 35  2  0  0  0  0
 39 40  1  0  0  0  0
 40 42  1  0  0  0  0
 42 43  2  0  0  0  0
 42 41  1  0  0  0  0
 44 41  1  6  0  0  0
 44 47  1  0  0  0  0
 44 46  1  0  0  0  0
 46 45  1  0  0  0  0
 47 48  1  1  0  0  0
 49 53  1  6  0  0  0
 49 51  1  0  0  0  0
 50 47  1  6  0  0  0
 50 49  1  0  0  0  0
 51 54  2  0  0  0  0
 52 50  1  0  0  0  0
 52 55  1  0  0  0  0
 55 51  1  0  0  0  0
M  END
>  <MODEL>
5

>  <REMARK>
 VINA RESULT:      -5.6      4.266      9.909
  Name = 
  14 active torsions:
  status: ('A' for Active; 'I' for Inactive)
    1  A    between atoms: C_2  and  C_28
    2  A    between atoms: C_4  and  C_27
    3  A    between atoms: C_4  and  C_44
    4  A    between atoms: C_6  and  C_20
    5  A    between atoms: C_6  and  C_31
    6  A    between atoms: O_7  and  P_17
    7  A    between atoms: N_10  and  P_17
    8  A    between atoms: N_10  and  C_29
    9  A    between atoms: O_13  and  P_17
   10  A    between atoms: O_13  and  P_18
   11  A    between atoms: C_14  and  C_49
   12  A    between atoms: C_20  and  N_25
   13  A    between atoms: C_20  and  O_53
   14  A    between atoms: C_27  and  C_46
                            x       y       z     vdW  Elec       q    Type
                         _______ _______ _______ _____ _____    ______ ____

>  <TORSDO>
F 14

$$$$
=
 OpenBabel11052410223D

 55 60  0  0  1  0  0  0  0  0999 V2000
  161.9690  206.9290  152.5850 C   0  0  0  0  0  0  0  0  0  0  0  0
  160.7870  208.9890  151.0190 C   0  0  0  0  0  3  0  0  0  0  0  0
  161.4900  207.9740  157.1070 S   0  0  0  0  0  0  0  0  0  0  0  0
  160.3040  210.3110  153.1190 C   0  0  0  0  0  0  0  0  0  0  0  0
  160.7660  209.3740  155.2500 C   0  0  0  0  0  0  0  0  0  0  0  0
  161.3900  208.1130  153.2720 C   0  0  0  0  0  0  0  0  0  0  0  0
  160.7540  209.4120  156.6360 C   0  0  0  0  0  3  0  0  0  0  0  0
  162.2220  206.9610  151.1070 C   0  0  0  0  0  2  0  0  0  0  0  0
  160.2700  210.3720  154.4810 N   0  0  0  0  0  0  0  0  0  0  0  0
  161.3410  208.2350  154.6710 C   0  0  0  0  0  0  0  0  0  0  0  0
  160.8500  209.1580  152.4860 C   0  0  0  0  0  0  0  0  0  0  0  0
  161.3800  207.9740  150.3820 C   0  0  0  0  0  0  0  0  0  0  0  0
  161.8200  207.3090  155.5950 C   0  0  0  0  0  3  0  0  0  0  0  0
  162.2920  205.8960  153.2270 O   0  0  0  0  0  0  0  0  0  0  0  0
  159.7690  212.8220  150.3480 C   0  0  0  0  0  0  0  0  0  0  0  0
  160.2980  211.7660  151.0930 C   0  0  0  0  0  3  0  0  0  0  0  0
  158.2150  213.3010  152.0780 C   0  0  0  0  0  3  0  0  0  0  0  0
  158.7400  213.5580  150.8510 N   0  0  0  0  0  0  0  0  0  0  0  0
  158.7250  212.2570  152.8520 C   0  0  0  0  0  3  0  0  0  0  0  0
  159.7840  211.4820  152.3660 C   0  0  0  0  0  0  0  0  0  0  0  0
  163.3510  214.4520  146.2010 Cl  0  0  0  0  0  0  0  0  0  0  0  0
  161.6170  212.3890  148.7940 C   0  0  0  0  0  3  0  0  0  0  0  0
  160.3080  213.0950  148.9810 C   0  0  1  0  0  3  0  0  0  0  0  0
  160.6930  213.8460  146.2230 C   0  0  1  0  0  3  0  0  0  0  0  0
  159.5240  213.0000  146.6480 C   0  0  0  0  0  3  0  0  0  0  0  0
  162.0880  213.2120  146.4050 C   0  0  2  0  0  3  0  0  0  0  0  0
  162.3630  212.4420  147.6790 C   0  0  0  0  0  3  0  0  0  0  0  0
  159.3340  212.6670  147.9260 C   0  0  0  0  0  3  0  0  0  0  0  0
  160.4930  214.4200  144.8840 N   0  0  0  0  0  2  0  0  0  0  0  0
  159.4770  213.4050  143.8460 P   0  0  2  0  0  0  0  0  0  0  0  0
  159.2570  214.1160  142.5260 O   0  0  0  0  0  0  0  0  0  0  0  0
  157.9770  213.1800  144.6140 O   0  0  0  0  0  0  0  0  0  0  0  0
  157.5540  214.4510  145.0080 C   0  0  0  0  0  1  0  0  0  0  0  0
  160.2350  211.9090  143.5410 O   0  0  0  0  0  0  0  0  0  0  0  0
  161.3350  212.1250  142.2570 P   0  0  0  0  0  0  0  0  0  0  0  0
  162.9380  212.1810  142.8030 O   0  0  0  0  0  1  0  0  0  0  0  0
  161.1850  211.0010  141.2570 O   0  0  0  0  0  0  0  0  0  0  0  0
  160.9770  213.5860  141.4860 O   0  0  0  0  0  1  0  0  0  0  0  0
  161.2410  207.8470  148.9020 C   0  0  0  0  0  2  0  0  0  0  0  0
  162.5700  207.4980  148.2520 C   0  0  0  0  0  2  0  0  0  0  0  0
  161.1030  205.7460  147.1910 N   0  0  0  0  0  2  0  0  0  0  0  0
  162.4020  206.3160  147.3640 C   0  0  0  0  0  0  0  0  0  0  0  0
  163.4000  205.8380  146.7580 O   0  0  0  0  0  0  0  0  0  0  0  0
  160.8430  204.6340  146.2870 C   0  0  1  0  0  3  0  0  0  0  0  0
  160.4900  205.4180  144.3170 O   0  0  0  0  0  1  0  0  0  0  0  0
  161.4410  204.8760  145.0470 O   0  0  0  0  0  0  0  0  0  0  0  0
  161.3760  203.3390  146.9000 C   0  0  2  0  0  3  0  0  0  0  0  0
  161.1880  202.2770  146.0080 O   0  0  0  0  0  1  0  0  0  0  0  0
  160.8250  201.5760  148.6840 C   0  0  2  0  0  3  0  0  0  0  0  0
  160.6950  203.0340  148.2380 C   0  0  1  0  0  3  0  0  0  0  0  0
  160.9210  201.6910  150.1580 C   0  0  0  0  0  0  0  0  0  0  0  0
  161.2510  203.8910  149.3770 C   0  0  0  0  0  2  0  0  0  0  0  0
  161.9900  200.9980  148.2070 F   0  0  0  0  0  0  0  0  0  0  0  0
  160.8640  200.7270  150.9040 O   0  0  0  0  0  0  0  0  0  0  0  0
  161.0880  203.0780  150.6500 C   0  0  0  0  0  2  0  0  0  0  0  0
  1 14  2  0  0  0  0
  1  6  1  0  0  0  0
  2 11  1  0  0  0  0
  4  9  2  0  0  0  0
  5  7  2  0  0  0  0
  6 10  1  0  0  0  0
  7  3  1  0  0  0  0
  8  1  1  0  0  0  0
  9  5  1  0  0  0  0
 10  5  1  0  0  0  0
 10 13  2  0  0  0  0
 11  4  1  0  0  0  0
 11  6  2  0  0  0  0
 12  2  2  0  0  0  0
 12  8  1  0  0  0  0
 13  3  1  0  0  0  0
 15 18  2  0  0  0  0
 15 16  1  0  0  0  0
 16 20  2  0  0  0  0
 17 19  2  0  0  0  0
 18 17  1  0  0  0  0
 20 19  1  0  0  0  0
 20  4  1  0  0  0  0
 22 23  1  0  0  0  0
 23 15  1  1  0  0  0
 24 29  1  6  0  0  0
 24 26  1  0  0  0  0
 24 25  1  0  0  0  0
 25 28  2  0  0  0  0
 26 21  1  1  0  0  0
 26 27  1  0  0  0  0
 27 22  2  0  0  0  0
 28 23  1  0  0  0  0
 30 31  2  6  0  0  0
 30 32  1  0  0  0  0
 30 29  1  0  0  0  0
 32 33  1  0  0  0  0
 34 30  1  0  0  0  0
 35 36  1  0  0  0  0
 35 34  1  0  0  0  0
 37 35  2  0  0  0  0
 38 35  1  0  0  0  0
 39 12  1  0  0  0  0
 40 39  1  0  0  0  0
 41 42  1  0  0  0  0
 42 40  1  0  0  0  0
 43 42  2  0  0  0  0
 44 46  1  6  0  0  0
 44 47  1  0  0  0  0
 44 41  1  0  0  0  0
 45 46  1  0  0  0  0
 47 48  1  6  0  0  0
 49 53  1  6  0  0  0
 49 51  1  0  0  0  0
 50 47  1  6  0  0  0
 50 49  1  0  0  0  0
 50 52  1  0  0  0  0
 51 55  1  0  0  0  0
 51 54  2  0  0  0  0
 52 55  1  0  0  0  0
M  END
>  <MODEL>
6

>  <REMARK>
 VINA RESULT:      -5.5      5.128      9.281
  Name = 
  14 active torsions:
  status: ('A' for Active; 'I' for Inactive)
    1  A    between atoms: C_2  and  C_28
    2  A    between atoms: C_4  and  C_27
    3  A    between atoms: C_4  and  C_44
    4  A    between atoms: C_6  and  C_20
    5  A    between atoms: C_6  and  C_31
    6  A    between atoms: O_7  and  P_17
    7  A    between atoms: N_10  and  P_17
    8  A    between atoms: N_10  and  C_29
    9  A    between atoms: O_13  and  P_17
   10  A    between atoms: O_13  and  P_18
   11  A    between atoms: C_14  and  C_49
   12  A    between atoms: C_20  and  N_25
   13  A    between atoms: C_20  and  O_53
   14  A    between atoms: C_27  and  C_46
                            x       y       z     vdW  Elec       q    Type
                         _______ _______ _______ _____ _____    ______ ____

>  <TORSDO>
F 14

$$$$
=
 OpenBabel11052410223D

 55 60  0  0  1  0  0  0  0  0999 V2000
  158.2710  213.4390  151.9460 C   0  0  0  0  0  0  0  0  0  0  0  0
  160.3410  211.4960  152.1090 C   0  0  0  0  0  3  0  0  0  0  0  0
  155.6120  213.1700  155.7710 S   0  0  0  0  0  0  0  0  0  0  0  0
  159.3560  210.6220  154.2660 C   0  0  0  0  0  0  0  0  0  0  0  0
  157.5020  211.7200  155.2610 C   0  0  0  0  0  0  0  0  0  0  0  0
  158.3070  212.5210  153.1150 C   0  0  0  0  0  0  0  0  0  0  0  0
  156.5690  211.8800  156.2740 C   0  0  0  0  0  3  0  0  0  0  0  0
  159.0950  213.1450  150.7280 C   0  0  0  0  0  2  0  0  0  0  0  0
  158.4560  210.7610  155.2820 N   0  0  0  0  0  0  0  0  0  0  0  0
  157.3970  212.6110  154.1830 C   0  0  0  0  0  0  0  0  0  0  0  0
  159.3090  211.5240  153.1650 C   0  0  0  0  0  0  0  0  0  0  0  0
  160.2730  212.2530  151.0090 C   0  0  0  0  0  0  0  0  0  0  0  0
  156.3550  213.5260  154.3020 C   0  0  0  0  0  3  0  0  0  0  0  0
  157.5250  214.4530  151.9360 O   0  0  0  0  0  0  0  0  0  0  0  0
  161.2390  207.4510  153.4440 C   0  0  0  0  0  0  0  0  0  0  0  0
  160.2860  208.4720  153.4090 C   0  0  0  0  0  3  0  0  0  0  0  0
  162.2940  208.4640  155.3150 C   0  0  0  0  0  3  0  0  0  0  0  0
  162.2210  207.4740  154.3880 N   0  0  0  0  0  0  0  0  0  0  0  0
  161.3530  209.4950  155.3120 C   0  0  0  0  0  3  0  0  0  0  0  0
  160.3280  209.5020  154.3580 C   0  0  0  0  0  0  0  0  0  0  0  0
  162.3190  202.5210  150.7590 Cl  0  0  0  0  0  0  0  0  0  0  0  0
  160.8050  205.0710  153.0380 C   0  0  0  0  0  3  0  0  0  0  0  0
  161.1970  206.3750  152.4090 C   0  0  1  0  0  3  0  0  0  0  0  0
  161.1260  204.8410  149.9670 C   0  0  1  0  0  3  0  0  0  0  0  0
  160.1970  206.0040  150.1890 C   0  0  0  0  0  3  0  0  0  0  0  0
  160.9360  203.6350  150.9110 C   0  0  2  0  0  3  0  0  0  0  0  0
  160.6880  203.9070  152.3790 C   0  0  0  0  0  3  0  0  0  0  0  0
  160.2410  206.7260  151.3090 C   0  0  0  0  0  3  0  0  0  0  0  0
  161.1910  204.4570  148.5500 N   0  0  0  0  0  2  0  0  0  0  0  0
  162.0550  205.6420  147.5560 P   0  0  2  0  0  0  0  0  0  0  0  0
  163.2140  204.9530  146.8630 O   0  0  0  0  0  0  0  0  0  0  0  0
  162.6600  206.8620  148.5730 O   0  0  0  0  0  0  0  0  0  0  0  0
  161.8670  207.9860  148.3370 C   0  0  0  0  0  1  0  0  0  0  0  0
  161.0210  206.2980  146.3680 O   0  0  0  0  0  0  0  0  0  0  0  0
  160.9440  205.1990  145.0680 P   0  0  0  0  0  0  0  0  0  0  0  0
  161.6620  203.7140  145.4540 O   0  0  0  0  0  1  0  0  0  0  0  0
  159.5020  204.9720  144.6730 O   0  0  0  0  0  1  0  0  0  0  0  0
  161.7660  205.8690  143.7510 O   0  0  0  0  0  0  0  0  0  0  0  0
  161.3730  212.2010  150.0040 C   0  0  0  0  0  2  0  0  0  0  0  0
  161.1500  213.2110  148.8900 C   0  0  0  0  0  2  0  0  0  0  0  0
  160.3460  213.1770  146.5030 N   0  0  0  0  0  2  0  0  0  0  0  0
  160.9780  212.5020  147.5920 C   0  0  0  0  0  0  0  0  0  0  0  0
  161.4050  211.3230  147.4580 O   0  0  0  0  0  0  0  0  0  0  0  0
  160.2020  212.5800  145.1820 C   0  0  1  0  0  3  0  0  0  0  0  0
  158.1250  212.7760  145.7010 O   0  0  0  0  0  1  0  0  0  0  0  0
  158.9330  212.8600  144.6660 O   0  0  0  0  0  0  0  0  0  0  0  0
  161.2920  213.1170  144.2550 C   0  0  2  0  0  3  0  0  0  0  0  0
  161.5710  214.4520  144.5710 O   0  0  0  0  0  1  0  0  0  0  0  0
  161.8190  213.7210  141.8150 C   0  0  2  0  0  3  0  0  0  0  0  0
  160.8820  212.9950  142.7840 C   0  0  1  0  0  3  0  0  0  0  0  0
  161.8000  212.8440  140.6210 C   0  0  0  0  0  0  0  0  0  0  0  0
  160.8190  211.5380  142.3220 C   0  0  0  0  0  2  0  0  0  0  0  0
  163.1150  213.7770  142.3030 F   0  0  0  0  0  0  0  0  0  0  0  0
  162.2930  213.1660  139.5520 O   0  0  0  0  0  0  0  0  0  0  0  0
  161.1260  211.5420  140.8340 C   0  0  0  0  0  2  0  0  0  0  0  0
  1  6  1  0  0  0  0
  2 11  1  0  0  0  0
  3  7  1  0  0  0  0
  4 20  1  0  0  0  0
  4  9  2  0  0  0  0
  5  9  1  0  0  0  0
  5  7  2  0  0  0  0
  6 11  2  0  0  0  0
  6 10  1  0  0  0  0
  8 12  1  0  0  0  0
  8  1  1  0  0  0  0
 10 13  2  0  0  0  0
 10  5  1  0  0  0  0
 11  4  1  0  0  0  0
 12  2  2  0  0  0  0
 13  3  1  0  0  0  0
 14  1  2  0  0  0  0
 15 18  1  0  0  0  0
 16 15  2  0  0  0  0
 16 20  1  0  0  0  0
 18 17  2  0  0  0  0
 19 17  1  0  0  0  0
 20 19  2  0  0  0  0
 23 22  1  0  0  0  0
 23 15  1  1  0  0  0
 24 29  1  6  0  0  0
 24 25  1  0  0  0  0
 24 26  1  0  0  0  0
 25 28  2  0  0  0  0
 26 21  1  1  0  0  0
 26 27  1  0  0  0  0
 27 22  2  0  0  0  0
 28 23  1  0  0  0  0
 30 31  2  6  0  0  0
 30 29  1  0  0  0  0
 30 32  1  0  0  0  0
 33 32  1  0  0  0  0
 34 30  1  0  0  0  0
 35 36  1  0  0  0  0
 35 34  1  0  0  0  0
 37 35  1  0  0  0  0
 38 35  2  0  0  0  0
 39 12  1  0  0  0  0
 40 39  1  0  0  0  0
 41 42  1  0  0  0  0
 42 40  1  0  0  0  0
 43 42  2  0  0  0  0
 44 46  1  6  0  0  0
 44 41  1  0  0  0  0
 46 45  1  0  0  0  0
 47 48  1  1  0  0  0
 47 44  1  0  0  0  0
 49 53  1  1  0  0  0
 49 50  1  0  0  0  0
 50 47  1  1  0  0  0
 51 55  1  0  0  0  0
 51 49  1  0  0  0  0
 52 50  1  0  0  0  0
 54 51  2  0  0  0  0
 55 52  1  0  0  0  0
M  END
>  <MODEL>
7

>  <REMARK>
 VINA RESULT:      -5.2      3.994      7.931
  Name = 
  14 active torsions:
  status: ('A' for Active; 'I' for Inactive)
    1  A    between atoms: C_2  and  C_28
    2  A    between atoms: C_4  and  C_27
    3  A    between atoms: C_4  and  C_44
    4  A    between atoms: C_6  and  C_20
    5  A    between atoms: C_6  and  C_31
    6  A    between atoms: O_7  and  P_17
    7  A    between atoms: N_10  and  P_17
    8  A    between atoms: N_10  and  C_29
    9  A    between atoms: O_13  and  P_17
   10  A    between atoms: O_13  and  P_18
   11  A    between atoms: C_14  and  C_49
   12  A    between atoms: C_20  and  N_25
   13  A    between atoms: C_20  and  O_53
   14  A    between atoms: C_27  and  C_46
                            x       y       z     vdW  Elec       q    Type
                         _______ _______ _______ _____ _____    ______ ____

>  <TORSDO>
F 14

$$$$
=
 OpenBabel11052410223D

 55 60  0  0  1  0  0  0  0  0999 V2000
  157.3410  212.7870  152.8030 C   0  0  0  0  0  0  0  0  0  0  0  0
  159.8200  212.6880  151.4130 C   0  0  0  0  0  3  0  0  0  0  0  0
  154.0120  214.2840  149.8960 S   0  0  0  0  0  0  0  0  0  0  0  0
  158.7160  213.6830  149.3680 C   0  0  0  0  0  0  0  0  0  0  0  0
  156.3740  214.0600  149.3420 C   0  0  0  0  0  0  0  0  0  0  0  0
  157.3920  213.2410  151.3890 C   0  0  0  0  0  0  0  0  0  0  0  0
  155.2000  214.4530  148.7170 C   0  0  0  0  0  3  0  0  0  0  0  0
  158.6080  212.5930  153.5810 C   0  0  0  0  0  2  0  0  0  0  0  0
  157.5770  214.0670  148.7240 N   0  0  0  0  0  0  0  0  0  0  0  0
  156.2520  213.6600  150.6800 C   0  0  0  0  0  0  0  0  0  0  0  0
  158.6380  213.2380  150.7190 C   0  0  0  0  0  0  0  0  0  0  0  0
  159.8110  212.3600  152.7090 C   0  0  0  0  0  0  0  0  0  0  0  0
  154.9520  213.7250  151.1770 C   0  0  0  0  0  3  0  0  0  0  0  0
  156.2420  212.5940  153.3870 O   0  0  0  0  0  0  0  0  0  0  0  0
  161.1750  213.7950  146.5020 C   0  0  0  0  0  0  0  0  0  0  0  0
  159.9900  213.6370  147.2230 C   0  0  0  0  0  3  0  0  0  0  0  0
  162.3630  214.2670  148.5030 C   0  0  0  0  0  3  0  0  0  0  0  0
  162.3280  214.1120  147.1540 N   0  0  0  0  0  0  0  0  0  0  0  0
  161.1980  214.1090  149.2550 C   0  0  0  0  0  3  0  0  0  0  0  0
  159.9960  213.7800  148.6180 C   0  0  0  0  0  0  0  0  0  0  0  0
  162.7160  214.3410  141.0230 Cl  0  0  0  0  0  0  0  0  0  0  0  0
  162.4320  213.0620  144.5270 C   0  0  0  0  0  3  0  0  0  0  0  0
  161.1490  213.6670  145.0130 C   0  0  1  0  0  3  0  0  0  0  0  0
  160.4100  213.5290  142.2280 C   0  0  1  0  0  3  0  0  0  0  0  0
  159.6560  212.7580  143.2780 C   0  0  0  0  0  3  0  0  0  0  0  0
  161.8820  213.1190  142.0160 C   0  0  2  0  0  3  0  0  0  0  0  0
  162.7260  212.8250  143.2380 C   0  0  0  0  0  3  0  0  0  0  0  0
  159.9840  212.8350  144.5680 C   0  0  0  0  0  3  0  0  0  0  0  0
  159.6530  213.6250  140.9720 N   0  0  0  0  0  2  0  0  0  0  0  0
  159.8960  212.2230  139.9160 P   0  0  2  0  0  0  0  0  0  0  0  0
  160.1300  212.7080  138.4990 O   0  0  0  0  0  0  0  0  0  0  0  0
  158.4890  211.2690  139.9520 O   0  0  0  0  0  0  0  0  0  0  0  0
  157.6970  211.7150  138.8920 C   0  0  0  0  0  1  0  0  0  0  0  0
  161.2540  211.3210  140.4160 O   0  0  0  0  0  0  0  0  0  0  0  0
  161.4430  210.0100  139.3440 P   0  0  0  0  0  0  0  0  0  0  0  0
  161.7560  208.5630  140.1680 O   0  0  0  0  0  1  0  0  0  0  0  0
  160.1970  209.8500  138.5030 O   0  0  0  0  0  1  0  0  0  0  0  0
  162.7470  210.3390  138.3200 O   0  0  0  0  0  0  0  0  0  0  0  0
  161.0320  211.7730  153.3330 C   0  0  0  0  0  2  0  0  0  0  0  0
  160.6880  211.0060  154.6000 C   0  0  0  0  0  2  0  0  0  0  0  0
  160.9510  208.8710  153.2890 N   0  0  0  0  0  2  0  0  0  0  0  0
  161.1830  209.6060  154.4920 C   0  0  0  0  0  0  0  0  0  0  0  0
  161.8160  209.0870  155.4520 O   0  0  0  0  0  0  0  0  0  0  0  0
  161.4630  207.5240  153.0780 C   0  0  1  0  0  3  0  0  0  0  0  0
  160.8600  205.9130  154.3680 O   0  0  0  0  0  1  0  0  0  0  0  0
  160.4530  206.5860  153.3120 O   0  0  0  0  0  0  0  0  0  0  0  0
  161.9970  207.3960  151.6510 C   0  0  2  0  0  3  0  0  0  0  0  0
  162.4980  208.6300  151.2180 O   0  0  0  0  0  1  0  0  0  0  0  0
  161.2260  207.1430  149.2140 C   0  0  2  0  0  3  0  0  0  0  0  0
  160.9100  206.9000  150.6920 C   0  0  1  0  0  3  0  0  0  0  0  0
  160.6290  205.9600  148.5520 C   0  0  0  0  0  0  0  0  0  0  0  0
  160.6500  205.4000  150.8420 C   0  0  0  0  0  2  0  0  0  0  0  0
  162.5910  207.1440  148.9770 F   0  0  0  0  0  0  0  0  0  0  0  0
  160.5170  205.8640  147.3400 O   0  0  0  0  0  0  0  0  0  0  0  0
  160.1740  204.9050  149.4860 C   0  0  0  0  0  2  0  0  0  0  0  0
  1 14  2  0  0  0  0
  1  8  1  0  0  0  0
  2 12  2  0  0  0  0
  3 13  1  0  0  0  0
  4 11  1  0  0  0  0
  5 10  1  0  0  0  0
  6  1  1  0  0  0  0
  7  5  2  0  0  0  0
  7  3  1  0  0  0  0
  9  5  1  0  0  0  0
  9  4  2  0  0  0  0
 10 13  2  0  0  0  0
 10  6  1  0  0  0  0
 11  6  2  0  0  0  0
 11  2  1  0  0  0  0
 12 39  1  0  0  0  0
 12  8  1  0  0  0  0
 15 18  2  0  0  0  0
 15 16  1  0  0  0  0
 16 20  2  0  0  0  0
 17 19  2  0  0  0  0
 18 17  1  0  0  0  0
 20 19  1  0  0  0  0
 20  4  1  0  0  0  0
 22 23  1  0  0  0  0
 23 15  1  1  0  0  0
 24 29  1  6  0  0  0
 24 25  1  0  0  0  0
 25 28  2  0  0  0  0
 26 21  1  1  0  0  0
 26 24  1  0  0  0  0
 26 27  1  0  0  0  0
 27 22  2  0  0  0  0
 28 23  1  0  0  0  0
 30 31  2  6  0  0  0
 30 32  1  0  0  0  0
 30 34  1  0  0  0  0
 30 29  1  0  0  0  0
 33 32  1  0  0  0  0
 35 36  1  0  0  0  0
 35 34  1  0  0  0  0
 37 35  1  0  0  0  0
 38 35  2  0  0  0  0
 39 40  1  0  0  0  0
 41 42  1  0  0  0  0
 42 40  1  0  0  0  0
 42 43  2  0  0  0  0
 44 41  1  6  0  0  0
 44 46  1  0  0  0  0
 46 45  1  0  0  0  0
 47 48  1  6  0  0  0
 47 44  1  0  0  0  0
 49 53  1  1  0  0  0
 49 50  1  0  0  0  0
 50 52  1  0  0  0  0
 50 47  1  1  0  0  0
 51 49  1  0  0  0  0
 51 55  1  0  0  0  0
 54 51  2  0  0  0  0
 55 52  1  0  0  0  0
M  END
>  <MODEL>
8

>  <REMARK>
 VINA RESULT:      -5.1      5.103     11.246
  Name = 
  14 active torsions:
  status: ('A' for Active; 'I' for Inactive)
    1  A    between atoms: C_2  and  C_28
    2  A    between atoms: C_4  and  C_27
    3  A    between atoms: C_4  and  C_44
    4  A    between atoms: C_6  and  C_20
    5  A    between atoms: C_6  and  C_31
    6  A    between atoms: O_7  and  P_17
    7  A    between atoms: N_10  and  P_17
    8  A    between atoms: N_10  and  C_29
    9  A    between atoms: O_13  and  P_17
   10  A    between atoms: O_13  and  P_18
   11  A    between atoms: C_14  and  C_49
   12  A    between atoms: C_20  and  N_25
   13  A    between atoms: C_20  and  O_53
   14  A    between atoms: C_27  and  C_46
                            x       y       z     vdW  Elec       q    Type
                         _______ _______ _______ _____ _____    ______ ____

>  <TORSDO>
F 14

$$$$
