=
 OpenBabel11052411033D

 67 72  0  0  1  0  0  0  0  0999 V2000
  161.6510  204.6670  145.6330 O   0  0  0  0  0  0  0  0  0  0  0  0
  160.8870  209.8530  140.9320 C   0  0  0  0  0  0  0  0  0  0  0  0
  160.9240  205.6650  143.4260 C   0  0  0  0  0  3  0  0  0  0  0  0
  161.2450  213.1440  143.9120 C   0  0  0  0  0  3  0  0  0  0  0  0
  159.7810  203.6120  144.4430 C   0  0  1  0  0  0  0  0  0  0  0  0
  161.4130  208.6750  140.8210 N   0  0  0  0  0  0  0  0  0  0  0  0
  161.2130  212.5610  142.5390 C   0  0  0  0  0  2  0  0  0  0  0  0
  162.0670  208.6100  148.5630 C   0  0  0  0  0  0  0  0  0  0  0  0
  159.2000  204.8290  145.1390 C   0  0  0  0  0  2  0  0  0  0  0  0
  161.9330  205.9200  146.1930 C   0  0  2  0  0  3  0  0  0  0  0  0
  159.2480  203.4080  143.1690 O   0  0  0  0  0  1  0  0  0  0  0  0
  161.1830  207.9510  147.6830 C   0  0  0  0  0  0  0  0  0  0  0  0
  161.7340  212.1510  147.4260 N   0  0  0  0  0  2  0  0  0  0  0  0
  161.8230  207.9460  141.9430 N   0  0  0  0  0  2  0  0  0  0  0  0
  162.2320  209.9970  148.4630 C   0  0  0  0  0  3  0  0  0  0  0  0
  161.5370  210.7310  147.4990 C   0  0  0  0  0  0  0  0  0  0  0  0
  162.1160  205.8310  142.9840 N   0  0  0  0  0  0  0  0  0  0  0  0
  160.7270  210.4510  142.2310 N   0  0  0  0  0  2  0  0  0  0  0  0
  161.5050  212.9290  146.2760 N   0  0  0  0  0  2  0  0  0  0  0  0
  160.6280  210.0780  146.6590 C   0  0  0  0  0  3  0  0  0  0  0  0
  162.3420  206.5970  141.7850 C   0  0  0  0  0  2  0  0  0  0  0  0
  160.4530  208.6960  146.7510 C   0  0  0  0  0  3  0  0  0  0  0  0
  161.4500  212.3690  144.9660 C   0  0  0  0  0  3  0  0  0  0  0  0
  163.4140  206.0010  146.5050 C   0  0  0  0  0  1  0  0  0  0  0  0
  160.1470  211.6630  142.4150 O   0  0  0  0  0  0  0  0  0  0  0  0
  160.6490  204.8430  144.6530 C   0  0  1  0  0  0  0  0  0  0  0  0
  160.9590  206.1670  147.7150 S   0  0  0  0  0  0  0  0  0  0  0  0
  159.1370  209.9290  139.1280 C   0  0  0  0  0  2  0  0  0  0  0  0
  160.4360  210.5500  139.6850 C   0  0  1  0  0  3  0  0  0  0  0  0
  158.5200  213.7320  137.0110 C   0  0  0  0  0  1  0  0  0  0  0  0
  160.2440  212.8510  138.5770 C   0  0  0  0  0  2  0  0  0  0  0  0
  157.8420  211.9940  138.6260 C   0  0  0  0  0  3  0  0  0  0  0  0
  157.9200  210.8090  139.2470 C   0  0  0  0  0  3  0  0  0  0  0  0
  160.4300  212.0680  139.8830 C   0  0  0  0  0  2  0  0  0  0  0  0
  158.9750  212.5140  137.7820 C   0  0  1  0  0  3  0  0  0  0  0  0
  160.1550  200.9280  144.6950 O   0  0  0  0  0  0  0  0  0  0  0  0
  159.9150  202.1600  145.5390 P   0  0  2  0  0  0  0  0  0  0  0  0
  158.4550  201.9980  146.3770 O   0  0  0  0  0  1  0  0  0  0  0  0
  161.2430  202.3970  146.6650 N   0  0  0  0  0  2  0  0  0  0  0  0
  161.0140  202.9950  149.3960 O   0  0  0  0  0  1  0  0  0  0  0  0
  159.3170  201.3910  148.2370 O   0  0  0  0  0  0  0  0  0  0  0  0
  161.7250  200.4410  148.6560 O   0  0  0  0  0  1  0  0  0  0  0  0
  160.7790  201.7820  148.2440 P   0  0  0  0  0  0  0  0  0  0  0  0
  162.8420  207.8830  149.6180 C   0  0  0  0  0  2  0  0  0  0  0  0
  160.7700  207.6130  152.6680 N   0  0  0  0  0  2  0  0  0  0  0  0
  161.9490  207.4090  150.6640 N   0  0  0  0  0  2  0  0  0  0  0  0
  161.5570  208.1750  151.8100 C   0  0  0  0  0  0  0  0  0  0  0  0
  161.7590  209.6770  151.8410 C   0  0  2  0  0  3  0  0  0  0  0  0
  163.1230  209.9710  151.7180 O   0  0  0  0  0  1  0  0  0  0  0  0
  161.2020  210.3750  153.1010 C   0  0  2  0  0  3  0  0  0  0  0  0
  162.0720  210.3230  155.1210 O   0  0  0  0  0  1  0  0  0  0  0  0
  161.3570  209.6030  154.2730 O   0  0  0  0  0  0  0  0  0  0  0  0
  159.7430  210.7980  152.9080 C   0  0  0  0  0  2  0  0  0  0  0  0
  157.6240  213.4900  152.2610 O   0  0  0  0  0  0  0  0  0  0  0  0
  159.6040  212.3150  152.8940 C   0  0  2  0  0  3  0  0  0  0  0  0
  158.2040  212.7460  153.3070 C   0  0  1  0  0  3  0  0  0  0  0  0
  159.7390  212.7990  151.4800 C   0  0  0  0  0  2  0  0  0  0  0  0
  158.3220  213.1390  151.0970 C   0  0  0  0  0  2  0  0  0  0  0  0
  158.2980  213.5810  154.4980 N   0  0  0  0  0  2  0  0  0  0  0  0
  157.7520  212.8680  155.6500 C   0  0  0  0  0  0  0  0  0  0  0  0
  158.6750  211.8690  156.3170 C   0  0  0  0  0  2  0  0  0  0  0  0
  158.4660  213.2450  156.9320 C   0  0  0  0  0  2  0  0  0  0  0  0
  155.6200  213.7060  156.5060 O   0  0  0  0  0  1  0  0  0  0  0  0
  156.2240  212.6920  155.7510 C   0  0  2  0  0  3  0  0  0  0  0  0
  155.4110  210.4070  155.1500 C   0  0  0  0  0  1  0  0  0  0  0  0
  155.8430  211.3130  156.2880 C   0  0  2  0  0  3  0  0  0  0  0  0
  154.8130  211.4060  157.2290 O   0  0  0  0  0  1  0  0  0  0  0  0
  1 10  1  0  0  0  0
  2 18  1  0  0  0  0
  4 23  2  0  0  0  0
  5 11  1  6  0  0  0
  5 26  1  0  0  0  0
  5  9  1  0  0  0  0
  5 37  1  0  0  0  0
  6  2  2  0  0  0  0
  6 14  1  0  0  0  0
  7  4  1  0  0  0  0
  8 44  1  0  0  0  0
 10 24  1  1  0  0  0
 10 27  1  0  0  0  0
 12 27  1  0  0  0  0
 12  8  2  0  0  0  0
 13 16  1  0  0  0  0
 15  8  1  0  0  0  0
 16 15  2  0  0  0  0
 17  3  2  0  0  0  0
 18 25  1  0  0  0  0
 19 13  1  0  0  0  0
 20 22  2  0  0  0  0
 20 16  1  0  0  0  0
 21 14  1  0  0  0  0
 21 17  1  0  0  0  0
 22 12  1  0  0  0  0
 23 19  1  0  0  0  0
 25  7  1  0  0  0  0
 26  3  1  6  0  0  0
 26  9  1  0  0  0  0
 26  1  1  0  0  0  0
 28 33  1  0  0  0  0
 28 29  1  0  0  0  0
 29 34  1  0  0  0  0
 29  2  1  1  0  0  0
 31 34  1  0  0  0  0
 32 33  2  0  0  0  0
 35 30  1  1  0  0  0
 35 31  1  0  0  0  0
 35 32  1  0  0  0  0
 37 36  2  6  0  0  0
 37 38  1  0  0  0  0
 37 39  1  0  0  0  0
 39 43  1  0  0  0  0
 41 43  2  0  0  0  0
 43 42  1  0  0  0  0
 43 40  1  0  0  0  0
 44 46  1  0  0  0  0
 46 47  1  0  0  0  0
 47 48  1  0  0  0  0
 47 45  2  0  0  0  0
 48 49  1  1  0  0  0
 48 50  1  0  0  0  0
 50 53  1  6  0  0  0
 50 52  1  0  0  0  0
 52 51  1  0  0  0  0
 54 56  1  0  0  0  0
 55 53  1  6  0  0  0
 55 56  1  0  0  0  0
 56 59  1  1  0  0  0
 57 55  1  0  0  0  0
 58 57  1  0  0  0  0
 58 54  1  0  0  0  0
 59 60  1  0  0  0  0
 60 64  1  0  0  0  0
 60 61  1  0  0  0  0
 60 62  1  0  0  0  0
 61 62  1  0  0  0  0
 64 66  1  0  0  0  0
 64 63  1  1  0  0  0
 66 65  1  6  0  0  0
 66 67  1  0  0  0  0
M  END
>  <MODEL>
1

>  <REMARK>
 VINA RESULT:       6.3      0.000      0.000
  Name = 
  15 active torsions:
  status: ('A' for Active; 'I' for Inactive)
    1  A    between atoms: C_6  and  C_8
    2  A    between atoms: N_10  and  C_28
    3  A    between atoms: C_11  and  C_55
    4  A    between atoms: N_13  and  P_35
    5  A    between atoms: N_13  and  P_61
    6  A    between atoms: C_14  and  P_61
    7  A    between atoms: C_18  and  C_32
    8  A    between atoms: C_18  and  N_34
    9  A    between atoms: C_19  and  C_28
   10  A    between atoms: C_20  and  N_34
   11  A    between atoms: C_29  and  C_32
   12  A    between atoms: C_33  and  C_43
   13  A    between atoms: C_33  and  C_47
   14  A    between atoms: O_45  and  C_47
   15  A    between atoms: C_47  and  C_55
                            x       y       z     vdW  Elec       q    Type
                         _______ _______ _______ _____ _____    ______ ____

>  <TORSDO>
F 15

$$$$
=
 OpenBabel11052411033D

 67 72  0  0  1  0  0  0  0  0999 V2000
  161.2750  212.4690  147.2140 O   0  0  0  0  0  0  0  0  0  0  0  0
  158.5020  212.6670  153.6820 C   0  0  0  0  0  0  0  0  0  0  0  0
  159.6710  213.2840  148.9900 C   0  0  0  0  0  3  0  0  0  0  0  0
  159.9990  208.6460  154.8780 C   0  0  0  0  0  2  0  0  0  0  0  0
  159.1040  213.3580  146.4940 C   0  0  1  0  0  0  0  0  0  0  0  0
  158.9590  213.6110  152.9230 N   0  0  0  0  0  0  0  0  0  0  0  0
  159.4090  209.9960  155.1180 C   0  0  0  0  0  2  0  0  0  0  0  0
  162.7900  208.1220  148.9780 C   0  0  0  0  0  0  0  0  0  0  0  0
  158.8400  211.9390  146.9630 C   0  0  0  0  0  2  0  0  0  0  0  0
  161.7390  211.4120  148.0080 C   0  0  2  0  0  3  0  0  0  0  0  0
  158.0920  214.2490  146.8580 O   0  0  0  0  0  1  0  0  0  0  0  0
  161.6340  208.8720  148.6760 C   0  0  0  0  0  0  0  0  0  0  0  0
  161.9340  206.7820  152.3570 N   0  0  0  0  0  2  0  0  0  0  0  0
  159.8170  213.3400  151.8520 N   0  0  0  0  0  2  0  0  0  0  0  0
  162.8680  207.4380  150.1980 C   0  0  0  0  0  3  0  0  0  0  0  0
  161.8170  207.4950  151.1170 C   0  0  0  0  0  0  0  0  0  0  0  0
  160.5650  213.9030  149.6680 N   0  0  0  0  0  0  0  0  0  0  0  0
  158.8860  211.3010  153.4430 N   0  0  0  0  0  2  0  0  0  0  0  0
  161.2280  207.1040  153.5310 N   0  0  0  0  0  0  0  0  0  0  0  0
  160.6560  208.2040  150.7910 C   0  0  0  0  0  3  0  0  0  0  0  0
  160.2520  214.4180  150.9770 C   0  0  0  0  0  2  0  0  0  0  0  0
  160.5660  208.8880  149.5770 C   0  0  0  0  0  3  0  0  0  0  0  0
  160.6430  208.3860  153.7500 C   0  0  0  0  0  3  0  0  0  0  0  0
  163.2120  211.6170  148.2970 C   0  0  0  0  0  1  0  0  0  0  0  0
  158.4090  210.2650  154.1760 O   0  0  0  0  0  0  0  0  0  0  0  0
  159.9530  212.7660  147.6080 C   0  0  1  0  0  0  0  0  0  0  0  0
  161.4840  209.8200  147.1550 S   0  0  0  0  0  0  0  0  0  0  0  0
  156.9520  214.4400  154.5640 C   0  0  0  0  0  2  0  0  0  0  0  0
  157.5550  213.0360  154.7830 C   0  0  1  0  0  3  0  0  0  0  0  0
  153.7000  213.1900  157.2450 C   0  0  0  0  0  1  0  0  0  0  0  0
  155.7410  212.0970  156.3280 C   0  0  0  0  0  2  0  0  0  0  0  0
  154.5600  213.9750  155.0690 C   0  0  0  0  0  3  0  0  0  0  0  0
  155.4850  214.4460  154.2220 C   0  0  0  0  0  3  0  0  0  0  0  0
  156.5580  211.9040  155.0440 C   0  0  0  0  0  2  0  0  0  0  0  0
  154.9410  213.4050  156.4090 C   0  0  1  0  0  3  0  0  0  0  0  0
  160.9940  214.2490  144.7490 O   0  0  0  0  0  1  0  0  0  0  0  0
  159.7160  213.4400  144.7780 P   0  0  2  0  0  0  0  0  0  0  0  0
  158.5380  214.2060  143.8370 O   0  0  0  0  0  0  0  0  0  0  0  0
  160.0110  211.8130  144.1840 N   0  0  0  0  0  2  0  0  0  0  0  0
  160.2320  210.4010  141.7700 O   0  0  0  0  0  0  0  0  0  0  0  0
  159.7280  212.9590  141.7750 O   0  0  0  0  0  1  0  0  0  0  0  0
  162.1720  212.2470  142.4060 O   0  0  0  0  0  1  0  0  0  0  0  0
  160.5200  211.8950  142.5040 P   0  0  0  0  0  0  0  0  0  0  0  0
  163.9520  208.0190  148.0390 C   0  0  0  0  0  2  0  0  0  0  0  0
  164.0900  204.4120  147.2370 N   0  0  0  0  0  2  0  0  0  0  0  0
  164.3690  206.6320  147.9040 N   0  0  0  0  0  2  0  0  0  0  0  0
  163.5970  205.6070  147.2650 C   0  0  0  0  0  0  0  0  0  0  0  0
  162.4360  205.9670  146.3580 C   0  0  2  0  0  3  0  0  0  0  0  0
  161.2980  206.2270  147.1310 O   0  0  0  0  0  1  0  0  0  0  0  0
  162.0950  204.8980  145.2970 C   0  0  2  0  0  3  0  0  0  0  0  0
  160.6600  206.4660  144.7250 O   0  0  0  0  0  1  0  0  0  0  0  0
  160.8920  205.1680  144.6090 O   0  0  0  0  0  0  0  0  0  0  0  0
  162.0800  203.4920  145.9040 C   0  0  0  0  0  2  0  0  0  0  0  0
  160.0110  200.7040  146.2230 O   0  0  0  0  0  0  0  0  0  0  0  0
  160.6550  203.0010  146.1280 C   0  0  2  0  0  3  0  0  0  0  0  0
  160.6340  201.7290  146.9630 C   0  0  1  0  0  3  0  0  0  0  0  0
  160.0740  202.5890  144.8080 C   0  0  0  0  0  2  0  0  0  0  0  0
  160.0990  201.0830  144.8770 C   0  0  0  0  0  2  0  0  0  0  0  0
  159.8720  201.9750  148.1810 N   0  0  0  0  0  2  0  0  0  0  0  0
  160.7110  202.6590  149.1630 C   0  0  0  0  0  0  0  0  0  0  0  0
  161.0690  204.0980  148.8480 C   0  0  0  0  0  2  0  0  0  0  0  0
  159.9650  203.7860  149.8470 C   0  0  0  0  0  2  0  0  0  0  0  0
  161.1260  200.5290  150.2880 O   0  0  0  0  0  1  0  0  0  0  0  0
  161.6350  201.8140  150.0590 C   0  0  2  0  0  3  0  0  0  0  0  0
  162.7250  201.5900  152.2970 C   0  0  0  0  0  1  0  0  0  0  0  0
  161.9510  202.5170  151.3790 C   0  0  2  0  0  3  0  0  0  0  0  0
  160.7800  202.9380  152.0170 O   0  0  0  0  0  1  0  0  0  0  0  0
  1 26  1  0  0  0  0
  1 10  1  0  0  0  0
  3 17  2  0  0  0  0
  4  7  1  0  0  0  0
  5 11  1  1  0  0  0
  5  9  1  0  0  0  0
  5 26  1  0  0  0  0
  6  2  2  0  0  0  0
  8 15  1  0  0  0  0
 10 24  1  6  0  0  0
 12  8  2  0  0  0  0
 12 22  1  0  0  0  0
 13 19  1  0  0  0  0
 14  6  1  0  0  0  0
 15 16  2  0  0  0  0
 16 13  1  0  0  0  0
 17 21  1  0  0  0  0
 18  2  1  0  0  0  0
 18 25  1  0  0  0  0
 19 23  2  0  0  0  0
 20 16  1  0  0  0  0
 21 14  1  0  0  0  0
 22 20  2  0  0  0  0
 23  4  1  0  0  0  0
 25  7  1  0  0  0  0
 26  9  1  1  0  0  0
 26  3  1  0  0  0  0
 27 10  1  0  0  0  0
 27 12  1  0  0  0  0
 28 29  1  0  0  0  0
 29  2  1  6  0  0  0
 29 34  1  0  0  0  0
 31 35  1  0  0  0  0
 32 35  1  0  0  0  0
 33 28  1  0  0  0  0
 33 32  2  0  0  0  0
 34 31  1  0  0  0  0
 35 30  1  1  0  0  0
 36 37  1  0  0  0  0
 37 38  2  6  0  0  0
 37  5  1  0  0  0  0
 39 37  1  0  0  0  0
 40 43  2  0  0  0  0
 41 43  1  0  0  0  0
 42 43  1  0  0  0  0
 43 39  1  0  0  0  0
 44  8  1  0  0  0  0
 45 47  2  0  0  0  0
 46 44  1  0  0  0  0
 47 46  1  0  0  0  0
 48 49  1  1  0  0  0
 48 47  1  0  0  0  0
 50 53  1  1  0  0  0
 50 48  1  0  0  0  0
 52 51  1  0  0  0  0
 52 50  1  0  0  0  0
 54 56  1  0  0  0  0
 55 53  1  6  0  0  0
 55 56  1  0  0  0  0
 56 59  1  1  0  0  0
 57 58  1  0  0  0  0
 57 55  1  0  0  0  0
 58 54  1  0  0  0  0
 59 60  1  0  0  0  0
 60 62  1  0  0  0  0
 60 64  1  0  0  0  0
 61 60  1  0  0  0  0
 61 62  1  0  0  0  0
 64 63  1  1  0  0  0
 64 66  1  0  0  0  0
 66 67  1  0  0  0  0
 66 65  1  1  0  0  0
M  END
>  <MODEL>
2

>  <REMARK>
 VINA RESULT:       6.4      4.247     11.389
  Name = 
  15 active torsions:
  status: ('A' for Active; 'I' for Inactive)
    1  A    between atoms: C_6  and  C_8
    2  A    between atoms: N_10  and  C_28
    3  A    between atoms: C_11  and  C_55
    4  A    between atoms: N_13  and  P_35
    5  A    between atoms: N_13  and  P_61
    6  A    between atoms: C_14  and  P_61
    7  A    between atoms: C_18  and  C_32
    8  A    between atoms: C_18  and  N_34
    9  A    between atoms: C_19  and  C_28
   10  A    between atoms: C_20  and  N_34
   11  A    between atoms: C_29  and  C_32
   12  A    between atoms: C_33  and  C_43
   13  A    between atoms: C_33  and  C_47
   14  A    between atoms: O_45  and  C_47
   15  A    between atoms: C_47  and  C_55
                            x       y       z     vdW  Elec       q    Type
                         _______ _______ _______ _____ _____    ______ ____

>  <TORSDO>
F 15

$$$$
=
 OpenBabel11052411033D

 67 72  0  0  1  0  0  0  0  0999 V2000
  161.6680  204.6290  145.7330 O   0  0  0  0  0  0  0  0  0  0  0  0
  161.0260  209.8020  141.0000 C   0  0  0  0  0  0  0  0  0  0  0  0
  160.9920  205.6230  143.5080 C   0  0  0  0  0  3  0  0  0  0  0  0
  161.3390  213.1020  143.9750 C   0  0  0  0  0  3  0  0  0  0  0  0
  159.8180  203.5790  144.5090 C   0  0  1  0  0  0  0  0  0  0  0  0
  161.5490  208.6210  140.9040 N   0  0  0  0  0  0  0  0  0  0  0  0
  161.3330  212.5150  142.6030 C   0  0  0  0  0  2  0  0  0  0  0  0
  162.0420  208.5800  148.6570 C   0  0  0  0  0  0  0  0  0  0  0  0
  159.2290  204.8010  145.1880 C   0  0  0  0  0  2  0  0  0  0  0  0
  161.9450  205.8830  146.2950 C   0  0  2  0  0  3  0  0  0  0  0  0
  159.3110  203.3730  143.2240 O   0  0  0  0  0  1  0  0  0  0  0  0
  161.1740  207.9230  147.7610 C   0  0  0  0  0  0  0  0  0  0  0  0
  161.7500  212.1190  147.5010 N   0  0  0  0  0  2  0  0  0  0  0  0
  161.9320  207.8950  142.0360 N   0  0  0  0  0  2  0  0  0  0  0  0
  162.2160  209.9660  148.5560 C   0  0  0  0  0  3  0  0  0  0  0  0
  161.5450  210.7010  147.5750 C   0  0  0  0  0  0  0  0  0  0  0  0
  162.1930  205.7820  143.0900 N   0  0  0  0  0  0  0  0  0  0  0  0
  160.8430  210.4060  142.2920 N   0  0  0  0  0  2  0  0  0  0  0  0
  161.5490  212.8950  146.3440 N   0  0  0  0  0  2  0  0  0  0  0  0
  160.6510  210.0480  146.7190 C   0  0  0  0  0  3  0  0  0  0  0  0
  162.4480  206.5430  141.8930 C   0  0  0  0  0  2  0  0  0  0  0  0
  160.4670  208.6680  146.8130 C   0  0  0  0  0  3  0  0  0  0  0  0
  161.5180  212.3300  145.0350 C   0  0  0  0  0  3  0  0  0  0  0  0
  163.4200  205.9580  146.6370 C   0  0  0  0  0  1  0  0  0  0  0  0
  160.2650  211.6200  142.4610 O   0  0  0  0  0  0  0  0  0  0  0  0
  160.6880  204.8060  144.7320 C   0  0  1  0  0  0  0  0  0  0  0  0
  160.9400  206.1400  147.7950 S   0  0  0  0  0  0  0  0  0  0  0  0
  159.4670  209.7360  139.0290 C   0  0  0  0  0  2  0  0  0  0  0  0
  160.6050  210.4970  139.7410 C   0  0  1  0  0  3  0  0  0  0  0  0
  158.5280  213.5260  137.0110 C   0  0  0  0  0  1  0  0  0  0  0  0
  160.1980  212.8060  138.7110 C   0  0  0  0  0  2  0  0  0  0  0  0
  157.9480  211.6280  138.4770 C   0  0  0  0  0  3  0  0  0  0  0  0
  158.1320  210.4330  139.0550 C   0  0  0  0  0  3  0  0  0  0  0  0
  160.3660  211.9880  139.9970 C   0  0  0  0  0  2  0  0  0  0  0  0
  159.0730  212.3430  137.7760 C   0  0  1  0  0  3  0  0  0  0  0  0
  161.3270  201.5730  145.5600 O   0  0  0  0  0  1  0  0  0  0  0  0
  159.9220  202.1300  145.6110 P   0  0  2  0  0  0  0  0  0  0  0  0
  158.8290  200.9670  145.0550 O   0  0  0  0  0  0  0  0  0  0  0  0
  159.5180  202.6140  147.2520 N   0  0  0  0  0  2  0  0  0  0  0  0
  160.0710  201.9400  149.9180 O   0  0  0  0  0  1  0  0  0  0  0  0
  161.0830  200.5530  147.9570 O   0  0  0  0  0  0  0  0  0  0  0  0
  162.1070  202.9340  148.3550 O   0  0  0  0  0  1  0  0  0  0  0  0
  160.7190  201.9660  148.3580 P   0  0  0  0  0  0  0  0  0  0  0  0
  162.7930  207.8540  149.7310 C   0  0  0  0  0  2  0  0  0  0  0  0
  161.2380  205.1220  151.6790 N   0  0  0  0  0  2  0  0  0  0  0  0
  162.0710  206.6540  150.1270 N   0  0  0  0  0  2  0  0  0  0  0  0
  161.8890  206.2220  151.4810 C   0  0  0  0  0  0  0  0  0  0  0  0
  162.1280  207.1770  152.6350 C   0  0  2  0  0  3  0  0  0  0  0  0
  162.5880  206.4630  153.7480 O   0  0  0  0  0  1  0  0  0  0  0  0
  160.8950  208.0120  153.0430 C   0  0  2  0  0  3  0  0  0  0  0  0
  160.7300  209.7560  151.7110 O   0  0  0  0  0  1  0  0  0  0  0  0
  160.2100  208.5610  151.9370 O   0  0  0  0  0  0  0  0  0  0  0  0
  161.2650  209.0980  154.0580 C   0  0  0  0  0  2  0  0  0  0  0  0
  160.2100  210.8480  156.8820 O   0  0  0  0  0  0  0  0  0  0  0  0
  160.2560  209.1570  155.1970 C   0  0  2  0  0  3  0  0  0  0  0  0
  159.8860  210.5940  155.5340 C   0  0  1  0  0  3  0  0  0  0  0  0
  160.9060  208.6390  156.4450 C   0  0  0  0  0  2  0  0  0  0  0  0
  161.1680  209.8910  157.2420 C   0  0  0  0  0  2  0  0  0  0  0  0
  158.4530  210.7720  155.3410 N   0  0  0  0  0  2  0  0  0  0  0  0
  158.2000  211.9970  154.5850 C   0  0  0  0  0  0  0  0  0  0  0  0
  159.3570  212.9700  154.4840 C   0  0  0  0  0  2  0  0  0  0  0  0
  159.0260  212.0530  153.3170 C   0  0  0  0  0  2  0  0  0  0  0  0
  156.6910  213.8680  154.1410 O   0  0  0  0  0  1  0  0  0  0  0  0
  156.7510  212.5090  154.4750 C   0  0  2  0  0  3  0  0  0  0  0  0
  155.0700  211.0010  155.5440 C   0  0  0  0  0  1  0  0  0  0  0  0
  155.9460  212.2240  155.7420 C   0  0  2  0  0  3  0  0  0  0  0  0
  155.1500  213.3190  156.0890 O   0  0  0  0  0  1  0  0  0  0  0  0
  1 10  1  0  0  0  0
  2 18  1  0  0  0  0
  4 23  2  0  0  0  0
  5 11  1  6  0  0  0
  5 26  1  0  0  0  0
  5  9  1  0  0  0  0
  5 37  1  0  0  0  0
  6  2  2  0  0  0  0
  6 14  1  0  0  0  0
  7  4  1  0  0  0  0
  8 44  1  0  0  0  0
 10 24  1  1  0  0  0
 10 27  1  0  0  0  0
 12 27  1  0  0  0  0
 12  8  2  0  0  0  0
 13 16  1  0  0  0  0
 15  8  1  0  0  0  0
 16 15  2  0  0  0  0
 17  3  2  0  0  0  0
 18 25  1  0  0  0  0
 19 13  1  0  0  0  0
 20 22  2  0  0  0  0
 20 16  1  0  0  0  0
 21 14  1  0  0  0  0
 21 17  1  0  0  0  0
 22 12  1  0  0  0  0
 23 19  1  0  0  0  0
 25  7  1  0  0  0  0
 26  3  1  6  0  0  0
 26  9  1  0  0  0  0
 26  1  1  0  0  0  0
 28 33  1  0  0  0  0
 28 29  1  0  0  0  0
 29 34  1  0  0  0  0
 29  2  1  1  0  0  0
 31 34  1  0  0  0  0
 32 33  2  0  0  0  0
 35 30  1  1  0  0  0
 35 32  1  0  0  0  0
 35 31  1  0  0  0  0
 36 37  1  0  0  0  0
 37 38  2  6  0  0  0
 37 39  1  0  0  0  0
 39 43  1  0  0  0  0
 41 43  2  0  0  0  0
 42 43  1  0  0  0  0
 43 40  1  0  0  0  0
 44 46  1  0  0  0  0
 46 47  1  0  0  0  0
 47 45  2  0  0  0  0
 47 48  1  0  0  0  0
 48 50  1  0  0  0  0
 48 49  1  1  0  0  0
 50 53  1  1  0  0  0
 51 52  1  0  0  0  0
 52 50  1  0  0  0  0
 54 58  1  0  0  0  0
 55 53  1  6  0  0  0
 55 56  1  0  0  0  0
 55 57  1  0  0  0  0
 56 59  1  1  0  0  0
 56 54  1  0  0  0  0
 57 58  1  0  0  0  0
 60 59  1  0  0  0  0
 61 60  1  0  0  0  0
 62 61  1  0  0  0  0
 62 60  1  0  0  0  0
 64 63  1  1  0  0  0
 64 60  1  0  0  0  0
 64 66  1  0  0  0  0
 66 65  1  6  0  0  0
 66 67  1  0  0  0  0
M  END
>  <MODEL>
3

>  <REMARK>
 VINA RESULT:       7.1      1.352      2.121
  Name = 
  15 active torsions:
  status: ('A' for Active; 'I' for Inactive)
    1  A    between atoms: C_6  and  C_8
    2  A    between atoms: N_10  and  C_28
    3  A    between atoms: C_11  and  C_55
    4  A    between atoms: N_13  and  P_35
    5  A    between atoms: N_13  and  P_61
    6  A    between atoms: C_14  and  P_61
    7  A    between atoms: C_18  and  C_32
    8  A    between atoms: C_18  and  N_34
    9  A    between atoms: C_19  and  C_28
   10  A    between atoms: C_20  and  N_34
   11  A    between atoms: C_29  and  C_32
   12  A    between atoms: C_33  and  C_43
   13  A    between atoms: C_33  and  C_47
   14  A    between atoms: O_45  and  C_47
   15  A    between atoms: C_47  and  C_55
                            x       y       z     vdW  Elec       q    Type
                         _______ _______ _______ _____ _____    ______ ____

>  <TORSDO>
F 15

$$$$
