=
 OpenBabel11052410143D

 25 27  0  0  1  0  0  0  0  0999 V2000
  161.8770  208.3400  149.2660 C   0  0  0  0  0  0  0  0  0  0  0  0
  160.8130  204.8300  149.2250 C   0  0  0  0  0  3  0  0  0  0  0  0
  161.4310  207.1700  148.6440 C   0  0  0  0  0  0  0  0  0  0  0  0
  161.1990  207.0520  147.2770 O   0  0  0  0  0  1  0  0  0  0  0  0
  162.0530  208.0620  150.9220 S   0  0  0  0  0  0  0  0  0  0  0  0
  161.5520  206.4540  150.8590 C   0  0  0  0  0  0  0  0  0  0  0  0
  161.2480  206.1170  149.5440 C   0  0  0  0  0  0  0  0  0  0  0  0
  160.9980  204.2320  151.5830 C   0  0  0  0  0  3  0  0  0  0  0  0
  161.4370  205.5290  151.9030 C   0  0  0  0  0  0  0  0  0  0  0  0
  160.6830  203.8840  150.2560 C   0  0  0  0  0  0  0  0  0  0  0  0
  160.9210  206.5240  154.0370 N   0  0  0  0  0  2  0  0  0  0  0  0
  161.7690  205.9050  153.2840 C   0  0  0  0  0  3  0  0  0  0  0  0
  162.1700  209.5920  148.6380 N   0  0  0  0  0  2  0  0  0  0  0  0
  162.1070  210.8750  149.3200 C   0  0  0  0  0  2  0  0  0  0  0  0
  161.2740  212.3380  147.8960 C   0  0  0  0  0  1  0  0  0  0  0  0
  162.4770  211.8930  148.4400 O   0  0  0  0  0  0  0  0  0  0  0  0
  160.2400  202.4980  149.9370 C   0  0  0  0  0  2  0  0  0  0  0  0
  160.9170  202.0050  148.7040 C   0  0  0  0  0  0  0  0  0  0  0  0
  160.6300  202.6200  147.4460 N   0  0  0  0  0  2  0  0  0  0  0  0
  161.7110  201.0290  148.7760 O   0  0  0  0  0  0  0  0  0  0  0  0
  161.2550  202.1920  146.2020 C   0  0  0  0  0  2  0  0  0  0  0  0
  163.3900  204.7000  145.9550 O   0  0  0  0  0  0  0  0  0  0  0  0
  162.2240  204.2910  145.7180 C   0  0  0  0  0  0  0  0  0  0  0  0
  160.7370  204.4550  145.7750 O   0  0  0  0  0  0  0  0  0  0  0  0
  161.3400  203.3550  145.2290 C   0  0  2  0  0  3  0  0  0  0  0  0
  1  5  1  0  0  0  0
  2  7  2  0  0  0  0
  2 10  1  0  0  0  0
  3  1  2  0  0  0  0
  3  7  1  0  0  0  0
  4  3  1  0  0  0  0
  6  5  1  0  0  0  0
  6  9  2  0  0  0  0
  7  6  1  0  0  0  0
  8  9  1  0  0  0  0
  9 12  1  0  0  0  0
 10  8  2  0  0  0  0
 12 11  2  0  0  0  0
 13  1  1  0  0  0  0
 13 14  1  0  0  0  0
 15 16  1  0  0  0  0
 16 14  1  0  0  0  0
 17 10  1  0  0  0  0
 18 20  2  0  0  0  0
 18 17  1  0  0  0  0
 19 18  1  0  0  0  0
 21 19  1  0  0  0  0
 23 24  1  0  0  0  0
 23 22  2  0  0  0  0
 25 23  1  0  0  0  0
 25 24  1  0  0  0  0
 25 21  1  1  0  0  0
M  END
>  <MODEL>
1

>  <REMARK>
 VINA RESULT:      -7.6      0.000      0.000
  Name = 
  8 active torsions:
  status: ('A' for Active; 'I' for Inactive)
    1  A    between atoms: C_1  and  N_19
    2  A    between atoms: C_7  and  C_25
    3  A    between atoms: C_13  and  C_23
    4  A    between atoms: C_14  and  N_19
    5  A    between atoms: C_14  and  O_20
    6  A    between atoms: N_15  and  C_23
    7  A    between atoms: C_18  and  C_24
    8  A    between atoms: C_22  and  C_25
                            x       y       z     vdW  Elec       q    Type
                         _______ _______ _______ _____ _____    ______ ____

>  <TORSDO>
F 8

$$$$
=
 OpenBabel11052410143D

 25 27  0  0  1  0  0  0  0  0999 V2000
  161.4830  208.7990  152.5240 C   0  0  0  0  0  0  0  0  0  0  0  0
  161.5120  207.8240  148.9880 C   0  0  0  0  0  3  0  0  0  0  0  0
  161.6220  209.0450  151.1550 C   0  0  0  0  0  0  0  0  0  0  0  0
  161.9220  210.2890  150.6110 O   0  0  0  0  0  1  0  0  0  0  0  0
  161.1400  207.1640  152.7680 S   0  0  0  0  0  0  0  0  0  0  0  0
  161.1580  206.7600  151.1310 C   0  0  0  0  0  0  0  0  0  0  0  0
  161.4360  207.8970  150.3790 C   0  0  0  0  0  0  0  0  0  0  0  0
  161.0220  205.4380  149.1300 C   0  0  0  0  0  3  0  0  0  0  0  0
  160.9460  205.5130  150.5330 C   0  0  0  0  0  0  0  0  0  0  0  0
  161.2970  206.5850  148.3620 C   0  0  0  0  0  0  0  0  0  0  0  0
  161.5970  203.5110  151.7080 N   0  0  0  0  0  2  0  0  0  0  0  0
  160.6590  204.3240  151.3480 C   0  0  0  0  0  3  0  0  0  0  0  0
  161.6180  209.7460  153.5870 N   0  0  0  0  0  2  0  0  0  0  0  0
  160.8650  209.6830  154.8310 C   0  0  0  0  0  2  0  0  0  0  0  0
  162.5870  210.5800  155.8760 C   0  0  0  0  0  1  0  0  0  0  0  0
  161.7380  209.4750  155.8990 O   0  0  0  0  0  0  0  0  0  0  0  0
  161.3950  206.4780  146.8790 C   0  0  0  0  0  2  0  0  0  0  0  0
  161.8660  205.1200  146.4840 C   0  0  0  0  0  0  0  0  0  0  0  0
  160.9400  204.1830  145.9300 N   0  0  0  0  0  2  0  0  0  0  0  0
  163.0700  204.7990  146.6720 O   0  0  0  0  0  0  0  0  0  0  0  0
  161.3300  202.8410  145.5200 C   0  0  0  0  0  2  0  0  0  0  0  0
  160.9910  201.9630  148.6870 O   0  0  0  0  0  0  0  0  0  0  0  0
  160.8810  201.6080  147.4850 C   0  0  0  0  0  0  0  0  0  0  0  0
  161.1460  200.6460  146.3690 O   0  0  0  0  0  0  0  0  0  0  0  0
  160.4450  201.8070  146.1940 C   0  0  2  0  0  3  0  0  0  0  0  0
  1  5  1  0  0  0  0
  1 13  1  0  0  0  0
  2  7  1  0  0  0  0
  3  1  2  0  0  0  0
  4  3  1  0  0  0  0
  6  5  1  0  0  0  0
  7  6  2  0  0  0  0
  7  3  1  0  0  0  0
  8  9  2  0  0  0  0
  9  6  1  0  0  0  0
  9 12  1  0  0  0  0
 10  2  2  0  0  0  0
 10  8  1  0  0  0  0
 12 11  2  0  0  0  0
 13 14  1  0  0  0  0
 14 16  1  0  0  0  0
 15 16  1  0  0  0  0
 17 10  1  0  0  0  0
 18 20  2  0  0  0  0
 18 17  1  0  0  0  0
 19 18  1  0  0  0  0
 21 19  1  0  0  0  0
 23 22  2  0  0  0  0
 24 23  1  0  0  0  0
 25 21  1  6  0  0  0
 25 24  1  0  0  0  0
 25 23  1  0  0  0  0
M  END
>  <MODEL>
2

>  <REMARK>
 VINA RESULT:      -7.4      2.725      4.069
  Name = 
  8 active torsions:
  status: ('A' for Active; 'I' for Inactive)
    1  A    between atoms: C_1  and  N_19
    2  A    between atoms: C_7  and  C_25
    3  A    between atoms: C_13  and  C_23
    4  A    between atoms: C_14  and  N_19
    5  A    between atoms: C_14  and  O_20
    6  A    between atoms: N_15  and  C_23
    7  A    between atoms: C_18  and  C_24
    8  A    between atoms: C_22  and  C_25
                            x       y       z     vdW  Elec       q    Type
                         _______ _______ _______ _____ _____    ______ ____

>  <TORSDO>
F 8

$$$$
=
 OpenBabel11052410143D

 25 27  0  0  1  0  0  0  0  0999 V2000
  161.1460  208.1390  153.1320 C   0  0  0  0  0  0  0  0  0  0  0  0
  161.1250  204.6920  151.8790 C   0  0  0  0  0  3  0  0  0  0  0  0
  161.1070  206.7500  153.2800 C   0  0  0  0  0  0  0  0  0  0  0  0
  161.0250  206.0960  154.5050 O   0  0  0  0  0  1  0  0  0  0  0  0
  161.2230  208.5270  151.4900 S   0  0  0  0  0  0  0  0  0  0  0  0
  161.2160  206.9270  150.9580 C   0  0  0  0  0  0  0  0  0  0  0  0
  161.1490  206.0760  152.0560 C   0  0  0  0  0  0  0  0  0  0  0  0
  161.2360  205.0440  149.4670 C   0  0  0  0  0  3  0  0  0  0  0  0
  161.2600  206.4390  149.6470 C   0  0  0  0  0  0  0  0  0  0  0  0
  161.1740  204.1760  150.5730 C   0  0  0  0  0  0  0  0  0  0  0  0
  162.4560  207.7400  148.0080 N   0  0  0  0  0  2  0  0  0  0  0  0
  161.3250  207.3560  148.5020 C   0  0  0  0  0  3  0  0  0  0  0  0
  161.1100  209.1180  154.1750 N   0  0  0  0  0  2  0  0  0  0  0  0
  161.7000  210.4440  154.0640 C   0  0  0  0  0  2  0  0  0  0  0  0
  161.9780  209.8060  156.1560 C   0  0  0  0  0  1  0  0  0  0  0  0
  162.4300  210.7320  155.2170 O   0  0  0  0  0  0  0  0  0  0  0  0
  161.1280  202.7020  150.3580 C   0  0  0  0  0  2  0  0  0  0  0  0
  160.6750  202.3910  148.9720 C   0  0  0  0  0  0  0  0  0  0  0  0
  161.4890  202.7700  147.8600 N   0  0  0  0  0  2  0  0  0  0  0  0
  159.5630  201.8270  148.7910 O   0  0  0  0  0  0  0  0  0  0  0  0
  161.1110  202.4980  146.4810 C   0  0  0  0  0  2  0  0  0  0  0  0
  163.6440  204.6150  146.3520 O   0  0  0  0  0  0  0  0  0  0  0  0
  162.4160  204.4380  146.1400 C   0  0  0  0  0  0  0  0  0  0  0  0
  160.9840  204.8470  146.2880 O   0  0  0  0  0  0  0  0  0  0  0  0
  161.3650  203.7200  145.6140 C   0  0  2  0  0  3  0  0  0  0  0  0
  1  3  2  0  0  0  0
  1 13  1  0  0  0  0
  2  7  1  0  0  0  0
  3  4  1  0  0  0  0
  5  1  1  0  0  0  0
  6  5  1  0  0  0  0
  6  7  2  0  0  0  0
  7  3  1  0  0  0  0
  8  9  2  0  0  0  0
  8 10  1  0  0  0  0
  9  6  1  0  0  0  0
 10  2  2  0  0  0  0
 11 12  2  0  0  0  0
 12  9  1  0  0  0  0
 14 13  1  0  0  0  0
 14 16  1  0  0  0  0
 16 15  1  0  0  0  0
 17 10  1  0  0  0  0
 18 17  1  0  0  0  0
 19 18  1  0  0  0  0
 20 18  2  0  0  0  0
 21 19  1  0  0  0  0
 23 24  1  0  0  0  0
 23 22  2  0  0  0  0
 25 23  1  0  0  0  0
 25 24  1  0  0  0  0
 25 21  1  1  0  0  0
M  END
>  <MODEL>
3

>  <REMARK>
 VINA RESULT:      -7.4      2.642      3.840
  Name = 
  8 active torsions:
  status: ('A' for Active; 'I' for Inactive)
    1  A    between atoms: C_1  and  N_19
    2  A    between atoms: C_7  and  C_25
    3  A    between atoms: C_13  and  C_23
    4  A    between atoms: C_14  and  N_19
    5  A    between atoms: C_14  and  O_20
    6  A    between atoms: N_15  and  C_23
    7  A    between atoms: C_18  and  C_24
    8  A    between atoms: C_22  and  C_25
                            x       y       z     vdW  Elec       q    Type
                         _______ _______ _______ _____ _____    ______ ____

>  <TORSDO>
F 8

$$$$
=
 OpenBabel11052410143D

 25 27  0  0  1  0  0  0  0  0999 V2000
  161.7170  208.1250  149.3570 C   0  0  0  0  0  0  0  0  0  0  0  0
  161.1820  204.5500  149.9780 C   0  0  0  0  0  3  0  0  0  0  0  0
  161.5180  206.7980  148.9640 C   0  0  0  0  0  0  0  0  0  0  0  0
  161.4630  206.3750  147.6400 O   0  0  0  0  0  1  0  0  0  0  0  0
  161.7400  208.2130  151.0430 S   0  0  0  0  0  0  0  0  0  0  0  0
  161.4870  206.5630  151.2830 C   0  0  0  0  0  0  0  0  0  0  0  0
  161.3870  205.9280  150.0500 C   0  0  0  0  0  0  0  0  0  0  0  0
  161.1800  204.4680  152.4170 C   0  0  0  0  0  3  0  0  0  0  0  0
  161.3880  205.8570  152.4870 C   0  0  0  0  0  0  0  0  0  0  0  0
  161.0720  203.8180  151.1730 C   0  0  0  0  0  0  0  0  0  0  0  0
  160.4670  206.7630  154.5230 N   0  0  0  0  0  2  0  0  0  0  0  0
  161.5020  206.5480  153.7790 C   0  0  0  0  0  3  0  0  0  0  0  0
  161.8960  209.2580  148.5030 N   0  0  0  0  0  2  0  0  0  0  0  0
  161.9410  210.6330  148.9790 C   0  0  0  0  0  2  0  0  0  0  0  0
  161.7710  212.4290  147.7120 C   0  0  0  0  0  1  0  0  0  0  0  0
  162.6590  211.4190  148.0770 O   0  0  0  0  0  0  0  0  0  0  0  0
  160.8740  202.3420  151.1220 C   0  0  0  0  0  2  0  0  0  0  0  0
  160.5100  201.9120  149.7410 C   0  0  0  0  0  0  0  0  0  0  0  0
  161.5400  201.6700  148.7810 N   0  0  0  0  0  2  0  0  0  0  0  0
  159.2960  201.7980  149.4240 O   0  0  0  0  0  0  0  0  0  0  0  0
  161.2590  201.2470  147.4170 C   0  0  0  0  0  2  0  0  0  0  0  0
  159.7250  201.3330  144.4920 O   0  0  0  0  0  0  0  0  0  0  0  0
  160.4020  201.9730  145.3380 C   0  0  0  0  0  0  0  0  0  0  0  0
  161.5640  202.8430  145.7040 O   0  0  0  0  0  0  0  0  0  0  0  0
  160.6570  202.3940  146.6240 C   0  0  2  0  0  3  0  0  0  0  0  0
  1  5  1  0  0  0  0
  2  7  2  0  0  0  0
  2 10  1  0  0  0  0
  3  1  2  0  0  0  0
  3  7  1  0  0  0  0
  4  3  1  0  0  0  0
  5  6  1  0  0  0  0
  6  9  2  0  0  0  0
  7  6  1  0  0  0  0
  8  9  1  0  0  0  0
  9 12  1  0  0  0  0
 10  8  2  0  0  0  0
 12 11  2  0  0  0  0
 13 14  1  0  0  0  0
 13  1  1  0  0  0  0
 15 16  1  0  0  0  0
 16 14  1  0  0  0  0
 17 10  1  0  0  0  0
 18 17  1  0  0  0  0
 19 18  1  0  0  0  0
 20 18  2  0  0  0  0
 21 19  1  0  0  0  0
 22 23  2  0  0  0  0
 23 24  1  0  0  0  0
 23 25  1  0  0  0  0
 24 25  1  0  0  0  0
 25 21  1  1  0  0  0
M  END
>  <MODEL>
4

>  <REMARK>
 VINA RESULT:      -7.4      1.250      1.614
  Name = 
  8 active torsions:
  status: ('A' for Active; 'I' for Inactive)
    1  A    between atoms: C_1  and  N_19
    2  A    between atoms: C_7  and  C_25
    3  A    between atoms: C_13  and  C_23
    4  A    between atoms: C_14  and  N_19
    5  A    between atoms: C_14  and  O_20
    6  A    between atoms: N_15  and  C_23
    7  A    between atoms: C_18  and  C_24
    8  A    between atoms: C_22  and  C_25
                            x       y       z     vdW  Elec       q    Type
                         _______ _______ _______ _____ _____    ______ ____

>  <TORSDO>
F 8

$$$$
=
 OpenBabel11052410143D

 25 27  0  0  1  0  0  0  0  0999 V2000
  161.3280  208.2210  152.4990 C   0  0  0  0  0  0  0  0  0  0  0  0
  161.1050  204.5870  152.0540 C   0  0  0  0  0  3  0  0  0  0  0  0
  161.2510  206.9020  152.9570 C   0  0  0  0  0  0  0  0  0  0  0  0
  161.2290  206.5410  154.3000 O   0  0  0  0  0  1  0  0  0  0  0  0
  161.3090  208.2310  150.8110 S   0  0  0  0  0  0  0  0  0  0  0  0
  161.2120  206.5550  150.6520 C   0  0  0  0  0  0  0  0  0  0  0  0
  161.1890  205.9730  151.9140 C   0  0  0  0  0  0  0  0  0  0  0  0
  161.0680  204.3900  149.6220 C   0  0  0  0  0  3  0  0  0  0  0  0
  161.1520  205.7870  149.4840 C   0  0  0  0  0  0  0  0  0  0  0  0
  161.0500  203.7920  150.8960 C   0  0  0  0  0  0  0  0  0  0  0  0
  162.2770  206.5970  147.5110 N   0  0  0  0  0  2  0  0  0  0  0  0
  161.1720  206.4240  148.1600 C   0  0  0  0  0  3  0  0  0  0  0  0
  161.3960  209.4070  153.2970 N   0  0  0  0  0  2  0  0  0  0  0  0
  160.8730  210.6980  152.8760 C   0  0  0  0  0  2  0  0  0  0  0  0
  159.6540  212.2370  153.8800 C   0  0  0  0  0  1  0  0  0  0  0  0
  159.6220  210.9100  153.4550 O   0  0  0  0  0  0  0  0  0  0  0  0
  160.9380  202.3110  151.0200 C   0  0  0  0  0  2  0  0  0  0  0  0
  160.5340  201.7080  149.7170 C   0  0  0  0  0  0  0  0  0  0  0  0
  161.5090  201.5320  148.6870 N   0  0  0  0  0  2  0  0  0  0  0  0
  159.3310  201.3900  149.5240 O   0  0  0  0  0  0  0  0  0  0  0  0
  161.1870  200.9490  147.3930 C   0  0  0  0  0  2  0  0  0  0  0  0
  159.7530  200.6770  144.4290 O   0  0  0  0  0  0  0  0  0  0  0  0
  160.2970  201.4480  145.2620 C   0  0  0  0  0  0  0  0  0  0  0  0
  161.2990  202.5010  145.6180 O   0  0  0  0  0  0  0  0  0  0  0  0
  160.4420  201.9550  146.5330 C   0  0  2  0  0  3  0  0  0  0  0  0
  1  3  2  0  0  0  0
  1 13  1  0  0  0  0
  3  4  1  0  0  0  0
  5  1  1  0  0  0  0
  6  5  1  0  0  0  0
  6  7  2  0  0  0  0
  7  2  1  0  0  0  0
  7  3  1  0  0  0  0
  8 10  1  0  0  0  0
  9  8  2  0  0  0  0
  9  6  1  0  0  0  0
 10 17  1  0  0  0  0
 10  2  2  0  0  0  0
 11 12  2  0  0  0  0
 12  9  1  0  0  0  0
 14 13  1  0  0  0  0
 14 16  1  0  0  0  0
 16 15  1  0  0  0  0
 18 17  1  0  0  0  0
 19 18  1  0  0  0  0
 20 18  2  0  0  0  0
 21 19  1  0  0  0  0
 22 23  2  0  0  0  0
 23 24  1  0  0  0  0
 23 25  1  0  0  0  0
 24 25  1  0  0  0  0
 25 21  1  1  0  0  0
M  END
>  <MODEL>
5

>  <REMARK>
 VINA RESULT:      -7.4      2.801      3.756
  Name = 
  8 active torsions:
  status: ('A' for Active; 'I' for Inactive)
    1  A    between atoms: C_1  and  N_19
    2  A    between atoms: C_7  and  C_25
    3  A    between atoms: C_13  and  C_23
    4  A    between atoms: C_14  and  N_19
    5  A    between atoms: C_14  and  O_20
    6  A    between atoms: N_15  and  C_23
    7  A    between atoms: C_18  and  C_24
    8  A    between atoms: C_22  and  C_25
                            x       y       z     vdW  Elec       q    Type
                         _______ _______ _______ _____ _____    ______ ____

>  <TORSDO>
F 8

$$$$
=
 OpenBabel11052410143D

 25 27  0  0  1  0  0  0  0  0999 V2000
  161.8630  208.8640  149.6410 C   0  0  0  0  0  0  0  0  0  0  0  0
  161.1730  205.2660  149.8240 C   0  0  0  0  0  3  0  0  0  0  0  0
  161.6120  207.6040  149.0900 C   0  0  0  0  0  0  0  0  0  0  0  0
  161.5510  207.3460  147.7250 O   0  0  0  0  0  1  0  0  0  0  0  0
  161.8750  208.7470  151.3260 S   0  0  0  0  0  0  0  0  0  0  0  0
  161.5510  207.0930  151.3640 C   0  0  0  0  0  0  0  0  0  0  0  0
  161.4350  206.6150  150.0630 C   0  0  0  0  0  0  0  0  0  0  0  0
  161.1460  204.8910  152.2350 C   0  0  0  0  0  3  0  0  0  0  0  0
  161.4120  206.2520  152.4730 C   0  0  0  0  0  0  0  0  0  0  0  0
  161.0220  204.4010  150.9210 C   0  0  0  0  0  0  0  0  0  0  0  0
  160.5120  207.1530  154.5200 N   0  0  0  0  0  2  0  0  0  0  0  0
  161.5440  206.7770  153.8400 C   0  0  0  0  0  3  0  0  0  0  0  0
  162.0970  210.0830  148.9310 N   0  0  0  0  0  2  0  0  0  0  0  0
  161.8690  211.4060  149.4940 C   0  0  0  0  0  2  0  0  0  0  0  0
  162.9870  212.4400  147.8980 C   0  0  0  0  0  1  0  0  0  0  0  0
  161.7170  212.3350  148.4640 O   0  0  0  0  0  0  0  0  0  0  0  0
  160.7620  202.9520  150.6920 C   0  0  0  0  0  2  0  0  0  0  0  0
  160.6230  202.6710  149.2340 C   0  0  0  0  0  0  0  0  0  0  0  0
  161.4320  203.3850  148.2960 N   0  0  0  0  0  2  0  0  0  0  0  0
  159.7710  201.8320  148.8400 O   0  0  0  0  0  0  0  0  0  0  0  0
  161.3510  203.1620  146.8600 C   0  0  0  0  0  2  0  0  0  0  0  0
  160.2380  205.7100  145.0770 O   0  0  0  0  0  0  0  0  0  0  0  0
  161.1890  204.9130  145.2820 C   0  0  0  0  0  0  0  0  0  0  0  0
  162.2040  203.9260  144.7960 O   0  0  0  0  0  0  0  0  0  0  0  0
  162.0770  204.2680  146.1140 C   0  0  2  0  0  3  0  0  0  0  0  0
  1  5  1  0  0  0  0
  2  7  2  0  0  0  0
  2 10  1  0  0  0  0
  3  1  2  0  0  0  0
  3  7  1  0  0  0  0
  4  3  1  0  0  0  0
  5  6  1  0  0  0  0
  6  9  2  0  0  0  0
  7  6  1  0  0  0  0
  8  9  1  0  0  0  0
  9 12  1  0  0  0  0
 10  8  2  0  0  0  0
 12 11  2  0  0  0  0
 13 14  1  0  0  0  0
 13  1  1  0  0  0  0
 15 16  1  0  0  0  0
 16 14  1  0  0  0  0
 17 10  1  0  0  0  0
 18 17  1  0  0  0  0
 19 18  1  0  0  0  0
 20 18  2  0  0  0  0
 21 19  1  0  0  0  0
 22 23  2  0  0  0  0
 23 25  1  0  0  0  0
 24 23  1  0  0  0  0
 24 25  1  0  0  0  0
 25 21  1  1  0  0  0
M  END
>  <MODEL>
6

>  <REMARK>
 VINA RESULT:      -7.3      1.078      1.284
  Name = 
  8 active torsions:
  status: ('A' for Active; 'I' for Inactive)
    1  A    between atoms: C_1  and  N_19
    2  A    between atoms: C_7  and  C_25
    3  A    between atoms: C_13  and  C_23
    4  A    between atoms: C_14  and  N_19
    5  A    between atoms: C_14  and  O_20
    6  A    between atoms: N_15  and  C_23
    7  A    between atoms: C_18  and  C_24
    8  A    between atoms: C_22  and  C_25
                            x       y       z     vdW  Elec       q    Type
                         _______ _______ _______ _____ _____    ______ ____

>  <TORSDO>
F 8

$$$$
=
 OpenBabel11052410143D

 25 27  0  0  1  0  0  0  0  0999 V2000
  161.2110  204.3860  148.7360 C   0  0  0  0  0  0  0  0  0  0  0  0
  161.1960  205.0480  152.3430 C   0  0  0  0  0  3  0  0  0  0  0  0
  161.1350  204.0120  150.0810 C   0  0  0  0  0  0  0  0  0  0  0  0
  160.9840  202.7010  150.5210 O   0  0  0  0  0  1  0  0  0  0  0  0
  161.4120  206.0590  148.6290 S   0  0  0  0  0  0  0  0  0  0  0  0
  161.3940  206.3190  150.2950 C   0  0  0  0  0  0  0  0  0  0  0  0
  161.2360  205.1030  150.9500 C   0  0  0  0  0  0  0  0  0  0  0  0
  161.4780  207.4710  152.4010 C   0  0  0  0  0  3  0  0  0  0  0  0
  161.5190  207.5230  150.9950 C   0  0  0  0  0  0  0  0  0  0  0  0
  161.3120  206.2450  153.0710 C   0  0  0  0  0  0  0  0  0  0  0  0
  162.3250  209.7890  150.8170 N   0  0  0  0  0  2  0  0  0  0  0  0
  161.6920  208.7970  150.2830 C   0  0  0  0  0  3  0  0  0  0  0  0
  161.1510  203.5210  147.5970 N   0  0  0  0  0  2  0  0  0  0  0  0
  161.7670  203.8260  146.3150 C   0  0  0  0  0  2  0  0  0  0  0  0
  160.8300  201.8780  145.8780 C   0  0  0  0  0  1  0  0  0  0  0  0
  161.1230  203.1140  145.3030 O   0  0  0  0  0  0  0  0  0  0  0  0
  161.2940  206.2100  154.5600 C   0  0  0  0  0  2  0  0  0  0  0  0
  160.5580  207.3890  155.1010 C   0  0  0  0  0  0  0  0  0  0  0  0
  161.2550  208.6170  155.3240 N   0  0  0  0  0  2  0  0  0  0  0  0
  159.3350  207.2830  155.3860 O   0  0  0  0  0  0  0  0  0  0  0  0
  160.6010  209.8070  155.8470 C   0  0  0  0  0  2  0  0  0  0  0  0
  159.6490  210.7670  152.8330 O   0  0  0  0  0  0  0  0  0  0  0  0
  160.5460  210.8200  153.7130 C   0  0  0  0  0  0  0  0  0  0  0  0
  161.9740  210.6930  154.1440 O   0  0  0  0  0  0  0  0  0  0  0  0
  160.9670  211.0200  155.0090 C   0  0  2  0  0  3  0  0  0  0  0  0
  1  3  2  0  0  0  0
  2 10  1  0  0  0  0
  3  4  1  0  0  0  0
  3  7  1  0  0  0  0
  5  1  1  0  0  0  0
  5  6  1  0  0  0  0
  6  7  1  0  0  0  0
  6  9  2  0  0  0  0
  7  2  2  0  0  0  0
  8 10  2  0  0  0  0
  9  8  1  0  0  0  0
 10 17  1  0  0  0  0
 12 11  2  0  0  0  0
 12  9  1  0  0  0  0
 13  1  1  0  0  0  0
 14 13  1  0  0  0  0
 16 15  1  0  0  0  0
 16 14  1  0  0  0  0
 17 18  1  0  0  0  0
 18 19  1  0  0  0  0
 18 20  2  0  0  0  0
 19 21  1  0  0  0  0
 22 23  2  0  0  0  0
 23 24  1  0  0  0  0
 23 25  1  0  0  0  0
 24 25  1  0  0  0  0
 25 21  1  1  0  0  0
M  END
>  <MODEL>
7

>  <REMARK>
 VINA RESULT:      -7.2      3.200      7.399
  Name = 
  8 active torsions:
  status: ('A' for Active; 'I' for Inactive)
    1  A    between atoms: C_1  and  N_19
    2  A    between atoms: C_7  and  C_25
    3  A    between atoms: C_13  and  C_23
    4  A    between atoms: C_14  and  N_19
    5  A    between atoms: C_14  and  O_20
    6  A    between atoms: N_15  and  C_23
    7  A    between atoms: C_18  and  C_24
    8  A    between atoms: C_22  and  C_25
                            x       y       z     vdW  Elec       q    Type
                         _______ _______ _______ _____ _____    ______ ____

>  <TORSDO>
F 8

$$$$
=
 OpenBabel11052410143D

 25 27  0  0  1  0  0  0  0  0999 V2000
  160.8700  208.6330  154.3430 C   0  0  0  0  0  0  0  0  0  0  0  0
  161.7050  208.3570  150.7820 C   0  0  0  0  0  3  0  0  0  0  0  0
  161.1880  209.1510  153.0840 C   0  0  0  0  0  0  0  0  0  0  0  0
  161.3150  210.5080  152.8070 O   0  0  0  0  0  1  0  0  0  0  0  0
  160.8350  206.9460  154.2630 S   0  0  0  0  0  0  0  0  0  0  0  0
  161.2150  206.8660  152.6220 C   0  0  0  0  0  0  0  0  0  0  0  0
  161.3780  208.1530  152.1230 C   0  0  0  0  0  0  0  0  0  0  0  0
  161.6990  205.9390  150.4600 C   0  0  0  0  0  3  0  0  0  0  0  0
  161.3710  205.7350  151.8130 C   0  0  0  0  0  0  0  0  0  0  0  0
  161.8600  207.2390  149.9460 C   0  0  0  0  0  0  0  0  0  0  0  0
  161.4610  203.3310  151.6600 N   0  0  0  0  0  2  0  0  0  0  0  0
  161.1990  204.3840  152.3630 C   0  0  0  0  0  3  0  0  0  0  0  0
  160.6230  209.3730  155.5420 N   0  0  0  0  0  2  0  0  0  0  0  0
  161.6490  209.6940  156.5220 C   0  0  0  0  0  2  0  0  0  0  0  0
  163.4550  210.8790  156.9650 C   0  0  0  0  0  1  0  0  0  0  0  0
  162.6810  210.4040  155.9080 O   0  0  0  0  0  0  0  0  0  0  0  0
  162.2300  207.4300  148.5150 C   0  0  0  0  0  2  0  0  0  0  0  0
  161.2800  206.6990  147.6280 C   0  0  0  0  0  0  0  0  0  0  0  0
  161.7290  206.2050  146.3640 N   0  0  0  0  0  2  0  0  0  0  0  0
  160.0810  206.5530  147.9860 O   0  0  0  0  0  0  0  0  0  0  0  0
  160.8580  205.4830  145.4490 C   0  0  0  0  0  2  0  0  0  0  0  0
  161.2080  202.9740  147.5710 O   0  0  0  0  0  0  0  0  0  0  0  0
  161.5960  203.4960  146.4940 C   0  0  0  0  0  0  0  0  0  0  0  0
  162.6820  203.9910  145.5900 O   0  0  0  0  0  0  0  0  0  0  0  0
  161.3570  204.0600  145.2610 C   0  0  2  0  0  3  0  0  0  0  0  0
  1 13  1  0  0  0  0
  2  7  1  0  0  0  0
  3  1  2  0  0  0  0
  4  3  1  0  0  0  0
  5  1  1  0  0  0  0
  6  5  1  0  0  0  0
  7  6  2  0  0  0  0
  7  3  1  0  0  0  0
  8  9  2  0  0  0  0
  9 12  1  0  0  0  0
  9  6  1  0  0  0  0
 10  8  1  0  0  0  0
 10  2  2  0  0  0  0
 11 12  2  0  0  0  0
 13 14  1  0  0  0  0
 16 14  1  0  0  0  0
 16 15  1  0  0  0  0
 17 10  1  0  0  0  0
 18 20  2  0  0  0  0
 18 17  1  0  0  0  0
 19 18  1  0  0  0  0
 21 19  1  0  0  0  0
 23 22  2  0  0  0  0
 24 23  1  0  0  0  0
 25 21  1  1  0  0  0
 25 24  1  0  0  0  0
 25 23  1  0  0  0  0
M  END
>  <MODEL>
8

>  <REMARK>
 VINA RESULT:      -7.1      3.160      4.713
  Name = 
  8 active torsions:
  status: ('A' for Active; 'I' for Inactive)
    1  A    between atoms: C_1  and  N_19
    2  A    between atoms: C_7  and  C_25
    3  A    between atoms: C_13  and  C_23
    4  A    between atoms: C_14  and  N_19
    5  A    between atoms: C_14  and  O_20
    6  A    between atoms: N_15  and  C_23
    7  A    between atoms: C_18  and  C_24
    8  A    between atoms: C_22  and  C_25
                            x       y       z     vdW  Elec       q    Type
                         _______ _______ _______ _____ _____    ______ ____

>  <TORSDO>
F 8

$$$$
=
 OpenBabel11052410143D

 25 27  0  0  1  0  0  0  0  0999 V2000
  161.3740  206.1090  148.0070 C   0  0  0  0  0  0  0  0  0  0  0  0
  161.3350  207.8130  151.2540 C   0  0  0  0  0  3  0  0  0  0  0  0
  161.4350  207.2330  148.8350 C   0  0  0  0  0  0  0  0  0  0  0  0
  161.5900  208.5360  148.3750 O   0  0  0  0  0  1  0  0  0  0  0  0
  161.1610  204.7260  148.9520 S   0  0  0  0  0  0  0  0  0  0  0  0
  161.1540  205.5490  150.4230 C   0  0  0  0  0  0  0  0  0  0  0  0
  161.3130  206.9110  150.1900 C   0  0  0  0  0  0  0  0  0  0  0  0
  161.0330  205.9420  152.7900 C   0  0  0  0  0  3  0  0  0  0  0  0
  161.0100  205.0330  151.7150 C   0  0  0  0  0  0  0  0  0  0  0  0
  161.1990  207.3210  152.5630 C   0  0  0  0  0  0  0  0  0  0  0  0
  161.7930  202.7530  151.7050 N   0  0  0  0  0  2  0  0  0  0  0  0
  160.8370  203.5910  151.9380 C   0  0  0  0  0  3  0  0  0  0  0  0
  161.4560  206.0870  146.5780 N   0  0  0  0  0  2  0  0  0  0  0  0
  162.3490  205.2140  145.8310 C   0  0  0  0  0  2  0  0  0  0  0  0
  161.2020  203.3870  145.3770 C   0  0  0  0  0  1  0  0  0  0  0  0
  161.6410  204.5810  144.8090 O   0  0  0  0  0  0  0  0  0  0  0  0
  161.1980  208.2670  153.7140 C   0  0  0  0  0  2  0  0  0  0  0  0
  161.2120  209.6770  153.2300 C   0  0  0  0  0  0  0  0  0  0  0  0
  159.9900  210.2970  152.8210 N   0  0  0  0  0  2  0  0  0  0  0  0
  162.3050  210.2990  153.1550 O   0  0  0  0  0  0  0  0  0  0  0  0
  159.9280  211.6690  152.3400 C   0  0  0  0  0  2  0  0  0  0  0  0
  159.9050  212.8890  155.4110 O   0  0  0  0  0  0  0  0  0  0  0  0
  159.2150  212.4700  154.4450 C   0  0  0  0  0  0  0  0  0  0  0  0
  158.1410  211.5920  153.8800 O   0  0  0  0  0  0  0  0  0  0  0  0
  158.8780  212.4500  153.1110 C   0  0  2  0  0  3  0  0  0  0  0  0
  1  3  2  0  0  0  0
  1  5  1  0  0  0  0
  2 10  1  0  0  0  0
  3  7  1  0  0  0  0
  4  3  1  0  0  0  0
  5  6  1  0  0  0  0
  6  9  2  0  0  0  0
  7  6  1  0  0  0  0
  7  2  2  0  0  0  0
  9 12  1  0  0  0  0
  9  8  1  0  0  0  0
 10  8  2  0  0  0  0
 10 17  1  0  0  0  0
 11 12  2  0  0  0  0
 13  1  1  0  0  0  0
 14 13  1  0  0  0  0
 16 15  1  0  0  0  0
 16 14  1  0  0  0  0
 18 17  1  0  0  0  0
 19 18  1  0  0  0  0
 20 18  2  0  0  0  0
 21 19  1  0  0  0  0
 23 22  2  0  0  0  0
 24 23  1  0  0  0  0
 25 21  1  6  0  0  0
 25 24  1  0  0  0  0
 25 23  1  0  0  0  0
M  END
>  <MODEL>
9

>  <REMARK>
 VINA RESULT:      -7.0      3.526      7.358
  Name = 
  8 active torsions:
  status: ('A' for Active; 'I' for Inactive)
    1  A    between atoms: C_1  and  N_19
    2  A    between atoms: C_7  and  C_25
    3  A    between atoms: C_13  and  C_23
    4  A    between atoms: C_14  and  N_19
    5  A    between atoms: C_14  and  O_20
    6  A    between atoms: N_15  and  C_23
    7  A    between atoms: C_18  and  C_24
    8  A    between atoms: C_22  and  C_25
                            x       y       z     vdW  Elec       q    Type
                         _______ _______ _______ _____ _____    ______ ____

>  <TORSDO>
F 8

$$$$
