=
 OpenBabel11052409563D

 29 31  0  0  1  0  0  0  0  0999 V2000
  162.3390  205.7420  152.6120 C   0  0  0  0  0  3  0  0  0  0  0  0
  160.9410  207.6410  152.1900 N   0  0  0  0  0  0  0  0  0  0  0  0
  161.3310  207.5820  153.5480 C   0  0  0  0  0  0  0  0  0  0  0  0
  162.1330  206.4690  153.8560 N   0  0  0  0  0  0  0  0  0  0  0  0
  161.0290  208.4610  154.3980 O   0  0  0  0  0  0  0  0  0  0  0  0
  161.5540  206.5010  151.5140 C   0  0  2  0  0  3  0  0  0  0  0  0
  160.5210  205.7300  149.3710 C   0  0  0  0  0  3  0  0  0  0  0  0
  161.0550  204.8040  148.5550 C   0  0  0  0  0  0  0  0  0  0  0  0
  160.4850  205.5950  150.8760 C   0  0  1  0  0  3  0  0  0  0  0  0
  160.6720  204.1540  151.2930 C   0  0  0  0  0  0  0  0  0  0  0  0
  160.2770  203.7670  152.4230 O   0  0  0  0  0  0  0  0  0  0  0  0
  161.5400  203.5230  149.1170 C   0  0  0  0  0  3  0  0  0  0  0  0
  161.3490  203.2080  150.3970 C   0  0  0  0  0  3  0  0  0  0  0  0
  161.1190  205.0420  147.0930 C   0  0  0  0  0  0  0  0  0  0  0  0
  160.4230  206.1120  146.5130 C   0  0  0  0  0  3  0  0  0  0  0  0
  161.2090  205.5230  144.3510 C   0  0  0  0  0  3  0  0  0  0  0  0
  161.9190  204.4450  144.8790 C   0  0  0  0  0  3  0  0  0  0  0  0
  160.4810  206.3270  145.1700 N   0  0  0  0  0  0  0  0  0  0  0  0
  161.8730  204.2080  146.2530 C   0  0  0  0  0  3  0  0  0  0  0  0
  160.6310  208.8890  151.5020 C   0  0  0  0  0  2  0  0  0  0  0  0
  162.8430  209.6820  151.5740 O   0  0  0  0  0  0  0  0  0  0  0  0
  161.8610  209.4670  150.8810 C   0  0  0  0  0  0  0  0  0  0  0  0
  161.8780  209.7680  149.4120 C   0  0  2  0  0  3  0  0  0  0  0  0
  162.2740  208.5650  148.5710 C   0  0  0  0  0  1  0  0  0  0  0  0
  162.6410  211.0420  149.0370 C   0  0  0  0  0  2  0  0  0  0  0  0
  160.5670  212.9400  149.6890 O   0  0  0  0  0  1  0  0  0  0  0  0
  161.5920  212.4180  148.4510 P   0  0  0  0  0  0  0  0  0  0  0  0
  160.7520  211.9280  147.2950 O   0  0  0  0  0  0  0  0  0  0  0  0
  162.5490  213.7120  147.9290 O   0  0  0  0  0  1  0  0  0  0  0  0
  1  4  2  0  0  0  0
  2  3  1  0  0  0  0
  3  4  1  0  0  0  0
  3  5  2  0  0  0  0
  6  2  1  0  0  0  0
  6  1  1  1  0  0  0
  8 12  1  0  0  0  0
  8  7  2  0  0  0  0
  9  7  1  6  0  0  0
  9 10  1  0  0  0  0
  9  6  1  0  0  0  0
 10 11  2  0  0  0  0
 12 13  2  0  0  0  0
 13 10  1  0  0  0  0
 14  8  1  0  0  0  0
 15 14  1  0  0  0  0
 16 17  2  0  0  0  0
 16 18  1  0  0  0  0
 17 19  1  0  0  0  0
 18 15  2  0  0  0  0
 19 14  2  0  0  0  0
 20  2  1  0  0  0  0
 22 20  1  0  0  0  0
 22 21  2  0  0  0  0
 23 24  1  6  0  0  0
 23 22  1  0  0  0  0
 25 23  1  0  0  0  0
 27 25  1  0  0  0  0
 27 26  1  0  0  0  0
 28 27  2  0  0  0  0
 29 27  1  0  0  0  0
M  END
>  <MODEL>
1

>  <REMARK>
 VINA RESULT:      -7.3      0.000      0.000
  Name = 
  7 active torsions:
  status: ('A' for Active; 'I' for Inactive)
    1  A    between atoms: C_2  and  C_10
    2  A    between atoms: C_3  and  C_8
    3  A    between atoms: C_3  and  C_24
    4  A    between atoms: P_7  and  C_8
    5  A    between atoms: N_9  and  C_18
    6  A    between atoms: C_18  and  C_24
    7  A    between atoms: C_19  and  C_29
                            x       y       z     vdW  Elec       q    Type
                         _______ _______ _______ _____ _____    ______ ____

>  <TORSDO>
F 7

$$$$
=
 OpenBabel11052409563D

 29 31  0  0  1  0  0  0  0  0999 V2000
  162.2500  209.6100  151.9230 C   0  0  0  0  0  3  0  0  0  0  0  0
  162.1240  208.5290  149.7890 N   0  0  0  0  0  0  0  0  0  0  0  0
  162.2050  209.9340  149.6480 C   0  0  0  0  0  0  0  0  0  0  0  0
  162.2540  210.6200  150.8750 N   0  0  0  0  0  0  0  0  0  0  0  0
  162.2700  210.5200  148.5360 O   0  0  0  0  0  0  0  0  0  0  0  0
  162.1580  208.2340  151.2190 C   0  0  2  0  0  3  0  0  0  0  0  0
  160.8060  206.1500  150.9350 C   0  0  0  0  0  3  0  0  0  0  0  0
  161.0910  204.9700  151.5120 C   0  0  0  0  0  0  0  0  0  0  0  0
  160.8920  207.4750  151.6570 C   0  0  1  0  0  3  0  0  0  0  0  0
  160.8680  207.2760  153.1550 C   0  0  0  0  0  0  0  0  0  0  0  0
  160.5220  208.2190  153.9130 O   0  0  0  0  0  0  0  0  0  0  0  0
  161.4000  204.9160  152.9600 C   0  0  0  0  0  3  0  0  0  0  0  0
  161.2820  205.9920  153.7370 C   0  0  0  0  0  3  0  0  0  0  0  0
  161.0550  203.7190  150.7180 C   0  0  0  0  0  0  0  0  0  0  0  0
  161.1770  202.4710  151.3460 C   0  0  0  0  0  3  0  0  0  0  0  0
  160.9960  201.3430  149.2640 C   0  0  0  0  0  3  0  0  0  0  0  0
  160.8700  202.5590  148.5920 C   0  0  0  0  0  3  0  0  0  0  0  0
  161.1460  201.3230  150.6150 N   0  0  0  0  0  0  0  0  0  0  0  0
  160.8990  203.7470  149.3240 C   0  0  0  0  0  3  0  0  0  0  0  0
  162.6200  207.5960  148.7830 C   0  0  0  0  0  2  0  0  0  0  0  0
  160.7440  208.1630  147.4830 O   0  0  0  0  0  0  0  0  0  0  0  0
  161.5600  207.3010  147.7710 C   0  0  0  0  0  0  0  0  0  0  0  0
  161.5170  205.9530  147.1150 C   0  0  2  0  0  3  0  0  0  0  0  0
  162.8910  205.4660  146.6840 C   0  0  0  0  0  1  0  0  0  0  0  0
  160.4580  205.8210  146.0160 C   0  0  0  0  0  2  0  0  0  0  0  0
  161.6380  205.4290  143.4100 O   0  0  0  0  0  0  0  0  0  0  0  0
  160.8760  204.6330  144.6920 P   0  0  0  0  0  0  0  0  0  0  0  0
  159.5990  204.0040  144.1850 O   0  0  0  0  0  1  0  0  0  0  0  0
  161.8920  203.4170  145.2850 O   0  0  0  0  0  1  0  0  0  0  0  0
  2  6  1  0  0  0  0
  3  2  1  0  0  0  0
  3  4  1  0  0  0  0
  4  1  2  0  0  0  0
  5  3  2  0  0  0  0
  6  9  1  0  0  0  0
  6  1  1  1  0  0  0
  7  8  2  0  0  0  0
  8 12  1  0  0  0  0
  9  7  1  6  0  0  0
  9 10  1  0  0  0  0
 10 13  1  0  0  0  0
 10 11  2  0  0  0  0
 12 13  2  0  0  0  0
 14 15  1  0  0  0  0
 14  8  1  0  0  0  0
 16 18  1  0  0  0  0
 17 16  2  0  0  0  0
 17 19  1  0  0  0  0
 18 15  2  0  0  0  0
 19 14  2  0  0  0  0
 20  2  1  0  0  0  0
 21 22  2  0  0  0  0
 22 20  1  0  0  0  0
 23 24  1  6  0  0  0
 23 22  1  0  0  0  0
 25 23  1  0  0  0  0
 26 27  2  0  0  0  0
 27 29  1  0  0  0  0
 27 25  1  0  0  0  0
 28 27  1  0  0  0  0
M  END
>  <MODEL>
2

>  <REMARK>
 VINA RESULT:      -7.0      3.532      5.459
  Name = 
  7 active torsions:
  status: ('A' for Active; 'I' for Inactive)
    1  A    between atoms: C_2  and  C_10
    2  A    between atoms: C_3  and  C_8
    3  A    between atoms: C_3  and  C_24
    4  A    between atoms: P_7  and  C_8
    5  A    between atoms: N_9  and  C_18
    6  A    between atoms: C_18  and  C_24
    7  A    between atoms: C_19  and  C_29
                            x       y       z     vdW  Elec       q    Type
                         _______ _______ _______ _____ _____    ______ ____

>  <TORSDO>
F 7

$$$$
=
 OpenBabel11052409563D

 29 31  0  0  1  0  0  0  0  0999 V2000
  162.5320  205.6590  152.0790 C   0  0  0  0  0  3  0  0  0  0  0  0
  160.9280  207.4010  152.4380 N   0  0  0  0  0  0  0  0  0  0  0  0
  161.5490  207.0180  153.6490 C   0  0  0  0  0  0  0  0  0  0  0  0
  162.4820  205.9760  153.4980 N   0  0  0  0  0  0  0  0  0  0  0  0
  161.3240  207.5770  154.7550 O   0  0  0  0  0  0  0  0  0  0  0  0
  161.5100  206.5850  151.3750 C   0  0  2  0  0  3  0  0  0  0  0  0
  160.5620  205.9260  149.1580 C   0  0  0  0  0  3  0  0  0  0  0  0
  161.0860  204.9860  148.3510 C   0  0  0  0  0  0  0  0  0  0  0  0
  160.4270  205.7620  150.6540 C   0  0  1  0  0  3  0  0  0  0  0  0
  160.5000  204.3040  151.0460 C   0  0  0  0  0  0  0  0  0  0  0  0
  160.0150  203.9180  152.1410 O   0  0  0  0  0  0  0  0  0  0  0  0
  161.4570  203.6650  148.9090 C   0  0  0  0  0  3  0  0  0  0  0  0
  161.1700  203.3350  150.1680 C   0  0  0  0  0  3  0  0  0  0  0  0
  161.2530  205.2490  146.9020 C   0  0  0  0  0  0  0  0  0  0  0  0
  160.3210  206.0340  146.2080 C   0  0  0  0  0  3  0  0  0  0  0  0
  161.5250  205.7660  144.1790 C   0  0  0  0  0  3  0  0  0  0  0  0
  162.4790  204.9800  144.8240 C   0  0  0  0  0  3  0  0  0  0  0  0
  160.4740  206.2720  144.8770 N   0  0  0  0  0  0  0  0  0  0  0  0
  162.3400  204.7240  146.1880 C   0  0  0  0  0  3  0  0  0  0  0  0
  160.4000  208.7400  152.2000 C   0  0  0  0  0  2  0  0  0  0  0  0
  162.4640  209.8320  151.9260 O   0  0  0  0  0  0  0  0  0  0  0  0
  161.4180  209.7770  152.5520 C   0  0  0  0  0  0  0  0  0  0  0  0
  161.1360  210.7440  153.6630 C   0  0  2  0  0  3  0  0  0  0  0  0
  162.2090  210.7280  154.7400 C   0  0  0  0  0  1  0  0  0  0  0  0
  159.7150  210.6600  154.2270 C   0  0  0  0  0  2  0  0  0  0  0  0
  158.5600  212.1320  152.0280 O   0  0  0  0  0  0  0  0  0  0  0  0
  158.6080  212.0210  153.7140 P   0  0  0  0  0  0  0  0  0  0  0  0
  159.1420  213.3180  154.2740 O   0  0  0  0  0  1  0  0  0  0  0  0
  157.0430  211.7670  154.3060 O   0  0  0  0  0  1  0  0  0  0  0  0
  1  4  2  0  0  0  0
  2  3  1  0  0  0  0
  3  5  2  0  0  0  0
  4  3  1  0  0  0  0
  6  1  1  1  0  0  0
  6  2  1  0  0  0  0
  8 12  1  0  0  0  0
  8  7  2  0  0  0  0
  9  7  1  6  0  0  0
  9 10  1  0  0  0  0
  9  6  1  0  0  0  0
 10 11  2  0  0  0  0
 12 13  2  0  0  0  0
 13 10  1  0  0  0  0
 14  8  1  0  0  0  0
 15 14  1  0  0  0  0
 16 17  2  0  0  0  0
 16 18  1  0  0  0  0
 17 19  1  0  0  0  0
 18 15  2  0  0  0  0
 19 14  2  0  0  0  0
 20  2  1  0  0  0  0
 20 22  1  0  0  0  0
 21 22  2  0  0  0  0
 22 23  1  0  0  0  0
 23 25  1  0  0  0  0
 23 24  1  1  0  0  0
 26 27  2  0  0  0  0
 27 25  1  0  0  0  0
 27 28  1  0  0  0  0
 27 29  1  0  0  0  0
M  END
>  <MODEL>
3

>  <REMARK>
 VINA RESULT:      -6.5      2.271      3.115
  Name = 
  7 active torsions:
  status: ('A' for Active; 'I' for Inactive)
    1  A    between atoms: C_2  and  C_10
    2  A    between atoms: C_3  and  C_8
    3  A    between atoms: C_3  and  C_24
    4  A    between atoms: P_7  and  C_8
    5  A    between atoms: N_9  and  C_18
    6  A    between atoms: C_18  and  C_24
    7  A    between atoms: C_19  and  C_29
                            x       y       z     vdW  Elec       q    Type
                         _______ _______ _______ _____ _____    ______ ____

>  <TORSDO>
F 7

$$$$
=
 OpenBabel11052409563D

 29 31  0  0  1  0  0  0  0  0999 V2000
  161.9520  209.4370  155.6350 C   0  0  0  0  0  3  0  0  0  0  0  0
  160.6570  211.0050  154.3680 N   0  0  0  0  0  0  0  0  0  0  0  0
  160.8190  211.4350  155.7060 C   0  0  0  0  0  0  0  0  0  0  0  0
  161.5500  210.5350  156.5020 N   0  0  0  0  0  0  0  0  0  0  0  0
  160.3880  212.5350  156.1410 O   0  0  0  0  0  0  0  0  0  0  0  0
  161.3640  209.7340  154.2330 C   0  0  2  0  0  3  0  0  0  0  0  0
  160.6120  208.3050  152.3240 C   0  0  0  0  0  3  0  0  0  0  0  0
  161.2680  207.2180  151.8780 C   0  0  0  0  0  0  0  0  0  0  0  0
  160.4060  208.6130  153.7890 C   0  0  1  0  0  3  0  0  0  0  0  0
  160.5920  207.3720  154.6330 C   0  0  0  0  0  0  0  0  0  0  0  0
  160.0810  207.3060  155.7810 O   0  0  0  0  0  0  0  0  0  0  0  0
  161.7270  206.1920  152.8420 C   0  0  0  0  0  3  0  0  0  0  0  0
  161.3990  206.2530  154.1320 C   0  0  0  0  0  3  0  0  0  0  0  0
  161.4940  207.0230  150.4270 C   0  0  0  0  0  0  0  0  0  0  0  0
  162.0690  208.0390  149.6500 C   0  0  0  0  0  3  0  0  0  0  0  0
  161.9320  206.6990  147.6950 C   0  0  0  0  0  3  0  0  0  0  0  0
  161.3580  205.6570  148.4230 C   0  0  0  0  0  3  0  0  0  0  0  0
  162.2730  207.8590  148.3170 N   0  0  0  0  0  0  0  0  0  0  0  0
  161.1400  205.8230  149.7910 C   0  0  0  0  0  3  0  0  0  0  0  0
  160.4730  211.9250  153.2510 C   0  0  0  0  0  2  0  0  0  0  0  0
  158.3360  211.0850  152.7490 O   0  0  0  0  0  0  0  0  0  0  0  0
  159.0220  212.0780  152.9280 C   0  0  0  0  0  0  0  0  0  0  0  0
  158.4240  213.4510  152.8390 C   0  0  2  0  0  3  0  0  0  0  0  0
  159.1930  214.3660  151.9000 C   0  0  0  0  0  1  0  0  0  0  0  0
  158.1220  214.0960  154.1950 C   0  0  0  0  0  2  0  0  0  0  0  0
  155.4500  213.0310  153.9480 O   0  0  0  0  0  0  0  0  0  0  0  0
  156.6650  213.4100  155.0590 P   0  0  0  0  0  0  0  0  0  0  0  0
  156.1390  214.4500  156.0220 O   0  0  0  0  0  1  0  0  0  0  0  0
  157.0900  212.0210  155.9260 O   0  0  0  0  0  1  0  0  0  0  0  0
  1  4  2  0  0  0  0
  2  3  1  0  0  0  0
  3  5  2  0  0  0  0
  3  4  1  0  0  0  0
  6  2  1  0  0  0  0
  6  1  1  1  0  0  0
  8  7  2  0  0  0  0
  8 12  1  0  0  0  0
  9  7  1  6  0  0  0
  9  6  1  0  0  0  0
  9 10  1  0  0  0  0
 10 11  2  0  0  0  0
 12 13  2  0  0  0  0
 13 10  1  0  0  0  0
 14  8  1  0  0  0  0
 15 14  2  0  0  0  0
 16 18  2  0  0  0  0
 16 17  1  0  0  0  0
 17 19  2  0  0  0  0
 18 15  1  0  0  0  0
 19 14  1  0  0  0  0
 20  2  1  0  0  0  0
 21 22  2  0  0  0  0
 22 20  1  0  0  0  0
 23 24  1  1  0  0  0
 23 22  1  0  0  0  0
 23 25  1  0  0  0  0
 25 27  1  0  0  0  0
 26 27  2  0  0  0  0
 27 29  1  0  0  0  0
 27 28  1  0  0  0  0
M  END
>  <MODEL>
4

>  <REMARK>
 VINA RESULT:      -6.4      4.060      5.467
  Name = 
  7 active torsions:
  status: ('A' for Active; 'I' for Inactive)
    1  A    between atoms: C_2  and  C_10
    2  A    between atoms: C_3  and  C_8
    3  A    between atoms: C_3  and  C_24
    4  A    between atoms: P_7  and  C_8
    5  A    between atoms: N_9  and  C_18
    6  A    between atoms: C_18  and  C_24
    7  A    between atoms: C_19  and  C_29
                            x       y       z     vdW  Elec       q    Type
                         _______ _______ _______ _____ _____    ______ ____

>  <TORSDO>
F 7

$$$$
=
 OpenBabel11052409563D

 29 31  0  0  1  0  0  0  0  0999 V2000
  160.8130  209.0900  152.7050 C   0  0  0  0  0  3  0  0  0  0  0  0
  160.9050  206.7170  152.3920 N   0  0  0  0  0  0  0  0  0  0  0  0
  160.8310  207.0510  153.7640 C   0  0  0  0  0  0  0  0  0  0  0  0
  160.8020  208.4360  154.0050 N   0  0  0  0  0  0  0  0  0  0  0  0
  160.7560  206.1960  154.6860 O   0  0  0  0  0  0  0  0  0  0  0  0
  160.8880  207.9690  151.6390 C   0  0  2  0  0  3  0  0  0  0  0  0
  162.0870  207.1720  149.5950 C   0  0  0  0  0  3  0  0  0  0  0  0
  161.8090  207.5720  148.3420 C   0  0  0  0  0  0  0  0  0  0  0  0
  162.1540  208.1130  150.7760 C   0  0  1  0  0  3  0  0  0  0  0  0
  162.3410  209.5410  150.3180 C   0  0  0  0  0  0  0  0  0  0  0  0
  162.8210  210.4000  151.1030 O   0  0  0  0  0  0  0  0  0  0  0  0
  161.6670  209.0160  148.0470 C   0  0  0  0  0  3  0  0  0  0  0  0
  161.9300  209.9440  148.9670 C   0  0  0  0  0  3  0  0  0  0  0  0
  161.6880  206.5790  147.2480 C   0  0  0  0  0  0  0  0  0  0  0  0
  160.5670  206.5790  146.4050 C   0  0  0  0  0  3  0  0  0  0  0  0
  161.4170  204.7280  145.1830 C   0  0  0  0  0  3  0  0  0  0  0  0
  162.5510  204.6860  145.9940 C   0  0  0  0  0  3  0  0  0  0  0  0
  160.4560  205.6640  145.4030 N   0  0  0  0  0  0  0  0  0  0  0  0
  162.6840  205.6150  147.0270 C   0  0  0  0  0  3  0  0  0  0  0  0
  160.3920  205.4650  151.8460 C   0  0  0  0  0  2  0  0  0  0  0  0
  162.6310  204.7670  152.0100 O   0  0  0  0  0  0  0  0  0  0  0  0
  161.5030  204.4870  151.6370 C   0  0  0  0  0  0  0  0  0  0  0  0
  161.2160  203.1690  150.9810 C   0  0  2  0  0  3  0  0  0  0  0  0
  161.9550  202.0140  151.6360 C   0  0  0  0  0  1  0  0  0  0  0  0
  161.3480  203.1820  149.4550 C   0  0  0  0  0  2  0  0  0  0  0  0
  159.1420  201.3290  149.2870 O   0  0  0  0  0  1  0  0  0  0  0  0
  160.6410  201.7230  148.6140 P   0  0  0  0  0  0  0  0  0  0  0  0
  161.5810  200.5540  148.7970 O   0  0  0  0  0  1  0  0  0  0  0  0
  160.4540  202.0250  146.9600 O   0  0  0  0  0  0  0  0  0  0  0  0
  1  4  2  0  0  0  0
  2  3  1  0  0  0  0
  3  4  1  0  0  0  0
  3  5  2  0  0  0  0
  6  2  1  0  0  0  0
  6  1  1  1  0  0  0
  8  7  2  0  0  0  0
  9  7  1  6  0  0  0
  9  6  1  0  0  0  0
 10  9  1  0  0  0  0
 10 11  2  0  0  0  0
 12  8  1  0  0  0  0
 12 13  2  0  0  0  0
 13 10  1  0  0  0  0
 14  8  1  0  0  0  0
 15 14  2  0  0  0  0
 16 18  2  0  0  0  0
 16 17  1  0  0  0  0
 17 19  2  0  0  0  0
 18 15  1  0  0  0  0
 19 14  1  0  0  0  0
 20  2  1  0  0  0  0
 22 20  1  0  0  0  0
 22 21  2  0  0  0  0
 23 24  1  1  0  0  0
 23 22  1  0  0  0  0
 25 23  1  0  0  0  0
 27 28  1  0  0  0  0
 27 26  1  0  0  0  0
 27 25  1  0  0  0  0
 29 27  2  0  0  0  0
M  END
>  <MODEL>
5

>  <REMARK>
 VINA RESULT:      -6.2      2.827      5.799
  Name = 
  7 active torsions:
  status: ('A' for Active; 'I' for Inactive)
    1  A    between atoms: C_2  and  C_10
    2  A    between atoms: C_3  and  C_8
    3  A    between atoms: C_3  and  C_24
    4  A    between atoms: P_7  and  C_8
    5  A    between atoms: N_9  and  C_18
    6  A    between atoms: C_18  and  C_24
    7  A    between atoms: C_19  and  C_29
                            x       y       z     vdW  Elec       q    Type
                         _______ _______ _______ _____ _____    ______ ____

>  <TORSDO>
F 7

$$$$
=
 OpenBabel11052409563D

 29 31  0  0  1  0  0  0  0  0999 V2000
  162.6820  210.0100  154.2210 C   0  0  0  0  0  3  0  0  0  0  0  0
  160.9010  211.2520  155.2330 N   0  0  0  0  0  0  0  0  0  0  0  0
  161.9990  211.1170  156.1150 C   0  0  0  0  0  0  0  0  0  0  0  0
  163.0630  210.3710  155.5780 N   0  0  0  0  0  0  0  0  0  0  0  0
  162.0450  211.6460  157.2570 O   0  0  0  0  0  0  0  0  0  0  0  0
  161.2600  210.5790  153.9880 C   0  0  2  0  0  3  0  0  0  0  0  0
  160.4690  208.9720  152.2430 C   0  0  0  0  0  3  0  0  0  0  0  0
  161.0850  207.8180  151.9310 C   0  0  0  0  0  0  0  0  0  0  0  0
  160.2630  209.4520  153.6620 C   0  0  1  0  0  3  0  0  0  0  0  0
  160.3920  208.3090  154.6420 C   0  0  0  0  0  0  0  0  0  0  0  0
  159.8700  208.3930  155.7840 O   0  0  0  0  0  0  0  0  0  0  0  0
  161.4950  206.8910  153.0110 C   0  0  0  0  0  3  0  0  0  0  0  0
  161.1590  207.1090  154.2820 C   0  0  0  0  0  3  0  0  0  0  0  0
  161.3150  207.4500  150.5140 C   0  0  0  0  0  0  0  0  0  0  0  0
  161.9120  208.3600  149.6290 C   0  0  0  0  0  3  0  0  0  0  0  0
  161.7620  206.8030  147.8420 C   0  0  0  0  0  3  0  0  0  0  0  0
  161.1650  205.8630  148.6820 C   0  0  0  0  0  3  0  0  0  0  0  0
  162.1200  208.0210  148.3270 N   0  0  0  0  0  0  0  0  0  0  0  0
  160.9430  206.1910  150.0200 C   0  0  0  0  0  3  0  0  0  0  0  0
  159.9750  212.3790  155.2790 C   0  0  0  0  0  2  0  0  0  0  0  0
  158.2580  211.1910  156.3590 O   0  0  0  0  0  0  0  0  0  0  0  0
  158.5670  211.8970  155.4120 C   0  0  0  0  0  0  0  0  0  0  0  0
  157.5470  212.2960  154.3870 C   0  0  2  0  0  3  0  0  0  0  0  0
  156.1260  211.9640  154.8130 C   0  0  0  0  0  1  0  0  0  0  0  0
  157.8720  211.8370  152.9630 C   0  0  0  0  0  2  0  0  0  0  0  0
  160.1040  212.7610  151.3820 O   0  0  0  0  0  1  0  0  0  0  0  0
  158.5320  213.1440  151.8700 P   0  0  0  0  0  0  0  0  0  0  0  0
  158.5620  214.4470  152.6350 O   0  0  0  0  0  1  0  0  0  0  0  0
  157.5480  213.3290  150.5060 O   0  0  0  0  0  0  0  0  0  0  0  0
  1  4  2  0  0  0  0
  2 20  1  0  0  0  0
  2  3  1  0  0  0  0
  3  5  2  0  0  0  0
  4  3  1  0  0  0  0
  6  1  1  1  0  0  0
  6  2  1  0  0  0  0
  8  7  2  0  0  0  0
  8 12  1  0  0  0  0
  9  7  1  6  0  0  0
  9  6  1  0  0  0  0
  9 10  1  0  0  0  0
 10 11  2  0  0  0  0
 12 13  2  0  0  0  0
 13 10  1  0  0  0  0
 14  8  1  0  0  0  0
 15 14  2  0  0  0  0
 16 18  2  0  0  0  0
 16 17  1  0  0  0  0
 17 19  2  0  0  0  0
 18 15  1  0  0  0  0
 19 14  1  0  0  0  0
 20 22  1  0  0  0  0
 22 21  2  0  0  0  0
 23 24  1  1  0  0  0
 23 22  1  0  0  0  0
 25 23  1  0  0  0  0
 26 27  1  0  0  0  0
 27 28  1  0  0  0  0
 27 25  1  0  0  0  0
 29 27  2  0  0  0  0
M  END
>  <MODEL>
6

>  <REMARK>
 VINA RESULT:      -6.0      3.468      5.212
  Name = 
  7 active torsions:
  status: ('A' for Active; 'I' for Inactive)
    1  A    between atoms: C_2  and  C_10
    2  A    between atoms: C_3  and  C_8
    3  A    between atoms: C_3  and  C_24
    4  A    between atoms: P_7  and  C_8
    5  A    between atoms: N_9  and  C_18
    6  A    between atoms: C_18  and  C_24
    7  A    between atoms: C_19  and  C_29
                            x       y       z     vdW  Elec       q    Type
                         _______ _______ _______ _____ _____    ______ ____

>  <TORSDO>
F 7

$$$$
=
 OpenBabel11052409563D

 29 31  0  0  1  0  0  0  0  0999 V2000
  162.8610  207.7640  149.1240 C   0  0  0  0  0  3  0  0  0  0  0  0
  160.8560  206.4890  149.4280 N   0  0  0  0  0  0  0  0  0  0  0  0
  161.3300  206.3920  148.1000 C   0  0  0  0  0  0  0  0  0  0  0  0
  162.4930  207.1460  147.8600 N   0  0  0  0  0  0  0  0  0  0  0  0
  160.7920  205.6700  147.2190 O   0  0  0  0  0  0  0  0  0  0  0  0
  161.7880  207.3440  150.1590 C   0  0  2  0  0  3  0  0  0  0  0  0
  160.7280  208.3420  152.1920 C   0  0  0  0  0  3  0  0  0  0  0  0
  161.4060  208.8950  153.2140 C   0  0  0  0  0  0  0  0  0  0  0  0
  161.0710  208.5770  150.7390 C   0  0  1  0  0  3  0  0  0  0  0  0
  161.9110  209.8220  150.5770 C   0  0  0  0  0  0  0  0  0  0  0  0
  161.9570  210.4140  149.4680 O   0  0  0  0  0  0  0  0  0  0  0  0
  162.4770  209.8790  152.9360 C   0  0  0  0  0  3  0  0  0  0  0  0
  162.7070  210.3280  151.7030 C   0  0  0  0  0  3  0  0  0  0  0  0
  161.0570  208.5580  154.6140 C   0  0  0  0  0  0  0  0  0  0  0  0
  161.3790  209.4340  155.6610 C   0  0  0  0  0  3  0  0  0  0  0  0
  160.4230  207.9630  157.2610 C   0  0  0  0  0  3  0  0  0  0  0  0
  160.0810  207.0580  156.2560 C   0  0  0  0  0  3  0  0  0  0  0  0
  161.0600  209.1220  156.9460 N   0  0  0  0  0  0  0  0  0  0  0  0
  160.3990  207.3590  154.9320 C   0  0  0  0  0  3  0  0  0  0  0  0
  160.0790  205.4400  150.0780 C   0  0  0  0  0  2  0  0  0  0  0  0
  161.6260  204.9770  151.7870 O   0  0  0  0  0  0  0  0  0  0  0  0
  160.9720  204.5300  150.8580 C   0  0  0  0  0  0  0  0  0  0  0  0
  161.0450  203.0760  150.4970 C   0  0  2  0  0  3  0  0  0  0  0  0
  161.6170  202.2220  151.6170 C   0  0  0  0  0  1  0  0  0  0  0  0
  161.6900  202.7950  149.1370 C   0  0  0  0  0  2  0  0  0  0  0  0
  159.2510  201.3180  148.6860 O   0  0  0  0  0  1  0  0  0  0  0  0
  160.8320  201.5350  148.1290 P   0  0  0  0  0  0  0  0  0  0  0  0
  161.5770  200.2260  148.2530 O   0  0  0  0  0  1  0  0  0  0  0  0
  160.7980  201.9990  146.5030 O   0  0  0  0  0  0  0  0  0  0  0  0
  2 20  1  0  0  0  0
  2  6  1  0  0  0  0
  3  2  1  0  0  0  0
  4  3  1  0  0  0  0
  4  1  2  0  0  0  0
  5  3  2  0  0  0  0
  6  1  1  6  0  0  0
  6  9  1  0  0  0  0
  7  8  2  0  0  0  0
  8 14  1  0  0  0  0
  9  7  1  1  0  0  0
 10  9  1  0  0  0  0
 10 13  1  0  0  0  0
 11 10  2  0  0  0  0
 12  8  1  0  0  0  0
 13 12  2  0  0  0  0
 14 19  2  0  0  0  0
 14 15  1  0  0  0  0
 15 18  2  0  0  0  0
 17 16  2  0  0  0  0
 18 16  1  0  0  0  0
 19 17  1  0  0  0  0
 20 22  1  0  0  0  0
 22 21  2  0  0  0  0
 23 22  1  0  0  0  0
 23 24  1  1  0  0  0
 25 23  1  0  0  0  0
 27 28  1  0  0  0  0
 27 26  1  0  0  0  0
 27 25  1  0  0  0  0
 29 27  2  0  0  0  0
M  END
>  <MODEL>
7

>  <REMARK>
 VINA RESULT:      -5.9      3.463      8.085
  Name = 
  7 active torsions:
  status: ('A' for Active; 'I' for Inactive)
    1  A    between atoms: C_2  and  C_10
    2  A    between atoms: C_3  and  C_8
    3  A    between atoms: C_3  and  C_24
    4  A    between atoms: P_7  and  C_8
    5  A    between atoms: N_9  and  C_18
    6  A    between atoms: C_18  and  C_24
    7  A    between atoms: C_19  and  C_29
                            x       y       z     vdW  Elec       q    Type
                         _______ _______ _______ _____ _____    ______ ____

>  <TORSDO>
F 7

$$$$
=
 OpenBabel11052409563D

 29 31  0  0  1  0  0  0  0  0999 V2000
  160.3280  207.9680  154.9800 C   0  0  0  0  0  3  0  0  0  0  0  0
  161.0030  207.3740  152.7600 N   0  0  0  0  0  0  0  0  0  0  0  0
  161.2080  206.3050  153.6620 C   0  0  0  0  0  0  0  0  0  0  0  0
  160.8530  206.6110  154.9880 N   0  0  0  0  0  0  0  0  0  0  0  0
  161.6300  205.1700  153.3140 O   0  0  0  0  0  0  0  0  0  0  0  0
  160.4290  208.4800  153.5220 C   0  0  2  0  0  3  0  0  0  0  0  0
  160.7250  210.7310  152.4750 C   0  0  0  0  0  3  0  0  0  0  0  0
  160.0820  211.8460  152.8640 C   0  0  0  0  0  0  0  0  0  0  0  0
  161.3220  209.7310  153.4390 C   0  0  1  0  0  3  0  0  0  0  0  0
  161.5220  210.3500  154.8030 C   0  0  0  0  0  0  0  0  0  0  0  0
  162.3530  209.8540  155.6070 O   0  0  0  0  0  0  0  0  0  0  0  0
  160.0360  212.2010  154.3010 C   0  0  0  0  0  3  0  0  0  0  0  0
  160.7220  211.5120  155.2120 C   0  0  0  0  0  3  0  0  0  0  0  0
  159.4590  212.7410  151.8610 C   0  0  0  0  0  0  0  0  0  0  0  0
  158.1870  213.2890  152.0850 C   0  0  0  0  0  3  0  0  0  0  0  0
  158.2480  214.4240  150.0000 C   0  0  0  0  0  3  0  0  0  0  0  0
  159.5140  213.9040  149.7300 C   0  0  0  0  0  3  0  0  0  0  0  0
  157.6150  214.1090  151.1610 N   0  0  0  0  0  0  0  0  0  0  0  0
  160.1170  213.0620  150.6640 C   0  0  0  0  0  3  0  0  0  0  0  0
  160.7400  207.1790  151.3380 C   0  0  0  0  0  2  0  0  0  0  0  0
  163.0740  207.3350  151.1090 O   0  0  0  0  0  0  0  0  0  0  0  0
  161.9930  207.3510  150.5430 C   0  0  0  0  0  0  0  0  0  0  0  0
  161.9070  207.5290  149.0560 C   0  0  2  0  0  3  0  0  0  0  0  0
  161.9570  208.9900  148.6360 C   0  0  0  0  0  1  0  0  0  0  0  0
  160.7690  206.7500  148.3910 C   0  0  0  0  0  2  0  0  0  0  0  0
  161.2060  204.1550  147.2040 O   0  0  0  0  0  1  0  0  0  0  0  0
  161.2520  205.8160  146.8970 P   0  0  0  0  0  0  0  0  0  0  0  0
  162.6620  206.2030  146.5180 O   0  0  0  0  0  1  0  0  0  0  0  0
  160.2150  206.1790  145.6100 O   0  0  0  0  0  0  0  0  0  0  0  0
  1  4  2  0  0  0  0
  2  6  1  0  0  0  0
  2  3  1  0  0  0  0
  3  4  1  0  0  0  0
  5  3  2  0  0  0  0
  6  1  1  1  0  0  0
  7  8  2  0  0  0  0
  8 12  1  0  0  0  0
  9  7  1  6  0  0  0
  9  6  1  0  0  0  0
  9 10  1  0  0  0  0
 10 13  1  0  0  0  0
 10 11  2  0  0  0  0
 12 13  2  0  0  0  0
 14 15  1  0  0  0  0
 14  8  1  0  0  0  0
 16 18  1  0  0  0  0
 17 16  2  0  0  0  0
 17 19  1  0  0  0  0
 18 15  2  0  0  0  0
 19 14  2  0  0  0  0
 20  2  1  0  0  0  0
 22 21  2  0  0  0  0
 22 20  1  0  0  0  0
 23 24  1  1  0  0  0
 23 22  1  0  0  0  0
 25 23  1  0  0  0  0
 27 26  1  0  0  0  0
 27 25  1  0  0  0  0
 28 27  1  0  0  0  0
 29 27  2  0  0  0  0
M  END
>  <MODEL>
8

>  <REMARK>
 VINA RESULT:      -5.9      3.741      6.852
  Name = 
  7 active torsions:
  status: ('A' for Active; 'I' for Inactive)
    1  A    between atoms: C_2  and  C_10
    2  A    between atoms: C_3  and  C_8
    3  A    between atoms: C_3  and  C_24
    4  A    between atoms: P_7  and  C_8
    5  A    between atoms: N_9  and  C_18
    6  A    between atoms: C_18  and  C_24
    7  A    between atoms: C_19  and  C_29
                            x       y       z     vdW  Elec       q    Type
                         _______ _______ _______ _____ _____    ______ ____

>  <TORSDO>
F 7

$$$$
=
 OpenBabel11052409563D

 29 31  0  0  1  0  0  0  0  0999 V2000
  160.4720  208.1960  152.6560 C   0  0  0  0  0  3  0  0  0  0  0  0
  162.2100  207.5080  151.1580 N   0  0  0  0  0  0  0  0  0  0  0  0
  162.0030  206.5500  152.1780 C   0  0  0  0  0  0  0  0  0  0  0  0
  161.0090  206.9190  153.1030 N   0  0  0  0  0  0  0  0  0  0  0  0
  162.6160  205.4520  152.2370 O   0  0  0  0  0  0  0  0  0  0  0  0
  161.2590  208.5930  151.3830 C   0  0  2  0  0  3  0  0  0  0  0  0
  162.0870  210.6720  150.2680 C   0  0  0  0  0  3  0  0  0  0  0  0
  161.3160  211.7270  149.9480 C   0  0  0  0  0  0  0  0  0  0  0  0
  161.9880  209.9340  151.5830 C   0  0  1  0  0  3  0  0  0  0  0  0
  161.2950  210.7810  152.6260 C   0  0  0  0  0  0  0  0  0  0  0  0
  161.4670  210.5440  153.8500 O   0  0  0  0  0  0  0  0  0  0  0  0
  160.3900  212.2910  150.9560 C   0  0  0  0  0  3  0  0  0  0  0  0
  160.3870  211.8610  152.2170 C   0  0  0  0  0  3  0  0  0  0  0  0
  161.4210  212.3520  148.6080 C   0  0  0  0  0  0  0  0  0  0  0  0
  160.3010  212.9460  148.0080 C   0  0  0  0  0  3  0  0  0  0  0  0
  161.5720  213.5360  146.0910 C   0  0  0  0  0  3  0  0  0  0  0  0
  162.7160  212.9590  146.6450 C   0  0  0  0  0  3  0  0  0  0  0  0
  160.3990  213.5170  146.7760 N   0  0  0  0  0  0  0  0  0  0  0  0
  162.6360  212.3680  147.9060 C   0  0  0  0  0  3  0  0  0  0  0  0
  162.7110  207.1650  149.8310 C   0  0  0  0  0  2  0  0  0  0  0  0
  161.2070  208.1430  148.3110 O   0  0  0  0  0  0  0  0  0  0  0  0
  161.5910  207.1130  148.8430 C   0  0  0  0  0  0  0  0  0  0  0  0
  160.9590  205.7940  148.5080 C   0  0  2  0  0  3  0  0  0  0  0  0
  160.4570  205.0550  149.7380 C   0  0  0  0  0  1  0  0  0  0  0  0
  161.7950  204.9130  147.5750 C   0  0  0  0  0  2  0  0  0  0  0  0
  161.1970  203.7020  145.0240 O   0  0  0  0  0  0  0  0  0  0  0  0
  161.4880  205.1780  145.7940 P   0  0  0  0  0  0  0  0  0  0  0  0
  162.7130  205.8150  145.1800 O   0  0  0  0  0  1  0  0  0  0  0  0
  160.1610  206.2030  145.5670 O   0  0  0  0  0  1  0  0  0  0  0  0
  1  4  2  0  0  0  0
  2  6  1  0  0  0  0
  2  3  1  0  0  0  0
  3  5  2  0  0  0  0
  3  4  1  0  0  0  0
  6  9  1  0  0  0  0
  6  1  1  1  0  0  0
  8  7  2  0  0  0  0
  8 12  1  0  0  0  0
  9  7  1  6  0  0  0
  9 10  1  0  0  0  0
 10 11  2  0  0  0  0
 12 13  2  0  0  0  0
 13 10  1  0  0  0  0
 14  8  1  0  0  0  0
 15 14  1  0  0  0  0
 16 17  2  0  0  0  0
 16 18  1  0  0  0  0
 17 19  1  0  0  0  0
 18 15  2  0  0  0  0
 19 14  2  0  0  0  0
 20  2  1  0  0  0  0
 21 22  2  0  0  0  0
 22 20  1  0  0  0  0
 23 22  1  0  0  0  0
 23 24  1  1  0  0  0
 25 23  1  0  0  0  0
 26 27  2  0  0  0  0
 27 25  1  0  0  0  0
 28 27  1  0  0  0  0
 29 27  1  0  0  0  0
M  END
>  <MODEL>
9

>  <REMARK>
 VINA RESULT:      -5.9      3.560      6.316
  Name = 
  7 active torsions:
  status: ('A' for Active; 'I' for Inactive)
    1  A    between atoms: C_2  and  C_10
    2  A    between atoms: C_3  and  C_8
    3  A    between atoms: C_3  and  C_24
    4  A    between atoms: P_7  and  C_8
    5  A    between atoms: N_9  and  C_18
    6  A    between atoms: C_18  and  C_24
    7  A    between atoms: C_19  and  C_29
                            x       y       z     vdW  Elec       q    Type
                         _______ _______ _______ _____ _____    ______ ____

>  <TORSDO>
F 7

$$$$
