=
 OpenBabel11042421213D

 39 44  0  0  1  0  0  0  0  0999 V2000
  160.6580  209.2000  157.2610 O   0  0  0  0  0  0  0  0  0  0  0  0
  161.2170  206.9460  152.3200 C   0  0  0  0  0  3  0  0  0  0  0  0
  160.8020  208.7650  153.7700 C   0  0  0  0  0  0  0  0  0  0  0  0
  160.1780  211.8490  155.5310 C   0  0  0  0  0  1  0  0  0  0  0  0
  161.0600  207.3120  156.0290 N   0  0  0  0  0  0  0  0  0  0  0  0
  162.0270  210.3870  149.6780 C   0  0  2  0  0  3  0  0  0  0  0  0
  160.4190  210.8260  153.2390 N   0  0  0  0  0  0  0  0  0  0  0  0
  161.2280  207.3260  149.7890 C   0  0  2  0  0  3  0  0  0  0  0  0
  160.7790  209.2100  151.4630 C   0  0  0  0  0  0  0  0  0  0  0  0
  160.6610  209.6110  152.7590 N   0  0  0  0  0  0  0  0  0  0  0  0
  162.2510  209.2950  148.6590 C   0  0  0  0  0  0  0  0  0  0  0  0
  160.6740  210.2160  150.3580 C   0  0  0  0  0  2  0  0  0  0  0  0
  162.9250  207.0920  148.0620 O   0  0  0  0  0  1  0  0  0  0  0  0
  160.6570  209.3900  154.9530 C   0  0  0  0  0  0  0  0  0  0  0  0
  161.2110  206.6840  154.8110 C   0  0  0  0  0  3  0  0  0  0  0  0
  162.5030  207.8890  149.1340 C   0  0  2  0  0  3  0  0  0  0  0  0
  161.0560  207.8290  151.2110 C   0  0  0  0  0  0  0  0  0  0  0  0
  160.4100  210.7130  154.6000 C   0  0  0  0  0  0  0  0  0  0  0  0
  160.7850  208.6560  156.1320 C   0  0  0  0  0  0  0  0  0  0  0  0
  161.0810  207.4300  153.6260 C   0  0  0  0  0  0  0  0  0  0  0  0
  162.1300  209.5240  147.4630 O   0  0  0  0  0  0  0  0  0  0  0  0
  160.7540  203.0490  149.4310 C   0  0  0  0  0  0  0  0  0  0  0  0
  161.0250  205.2230  148.3820 C   0  0  0  0  0  3  0  0  0  0  0  0
  160.8770  203.8370  148.2780 C   0  0  0  0  0  3  0  0  0  0  0  0
  161.0490  205.8360  149.6450 C   0  0  0  0  0  0  0  0  0  0  0  0
  160.9320  205.0510  150.7950 C   0  0  0  0  0  3  0  0  0  0  0  0
  160.7840  203.6660  150.6900 C   0  0  0  0  0  3  0  0  0  0  0  0
  161.4420  200.8350  148.4530 N   0  0  0  0  0  1  0  0  0  0  0  0
  160.5980  201.5870  149.3200 C   0  0  0  0  0  0  0  0  0  0  0  0
  159.7180  200.9890  149.9940 O   0  0  0  0  0  0  0  0  0  0  0  0
  162.7450  212.7360  147.1520 C   0  0  0  0  0  2  0  0  0  0  0  0
  163.2060  211.8560  148.1510 O   0  0  0  0  0  0  0  0  0  0  0  0
  162.2220  211.8180  149.1560 C   0  0  1  0  0  3  0  0  0  0  0  0
  160.9470  212.4510  148.6470 C   0  0  0  0  0  2  0  0  0  0  0  0
  161.4440  213.3730  147.5880 C   0  0  2  0  0  3  0  0  0  0  0  0
  159.1900  213.9650  146.6030 C   0  0  0  0  0  0  0  0  0  0  0  0
  158.2840  213.9740  145.4260 C   0  0  0  0  0  1  0  0  0  0  0  0
  160.4990  213.4050  146.4810 N   0  0  0  0  0  2  0  0  0  0  0  0
  158.7960  214.4480  147.6980 O   0  0  0  0  0  0  0  0  0  0  0  0
  2 20  2  0  0  0  0
  3 14  2  0  0  0  0
  5 19  1  0  0  0  0
  6 12  1  6  0  0  0
  7 18  2  0  0  0  0
  8 25  1  1  0  0  0
  8 17  1  0  0  0  0
  9 10  1  0  0  0  0
 10  7  1  0  0  0  0
 10  3  1  0  0  0  0
 11 16  1  0  0  0  0
 11  6  1  0  0  0  0
 12  9  1  0  0  0  0
 14 19  1  0  0  0  0
 15  5  2  0  0  0  0
 16 13  1  6  0  0  0
 16  8  1  0  0  0  0
 17  9  2  0  0  0  0
 17  2  1  0  0  0  0
 18 14  1  0  0  0  0
 18  4  1  0  0  0  0
 19  1  2  0  0  0  0
 20  3  1  0  0  0  0
 20 15  1  0  0  0  0
 21 11  2  0  0  0  0
 22 27  1  0  0  0  0
 23 25  2  0  0  0  0
 24 23  1  0  0  0  0
 24 22  2  0  0  0  0
 25 26  1  0  0  0  0
 27 26  2  0  0  0  0
 28 29  1  0  0  0  0
 29 22  1  0  0  0  0
 29 30  2  0  0  0  0
 31 35  1  0  0  0  0
 31 32  1  0  0  0  0
 32 33  1  0  0  0  0
 33 34  1  6  0  0  0
 33  6  1  0  0  0  0
 35 38  1  6  0  0  0
 35 34  1  0  0  0  0
 36 39  2  0  0  0  0
 37 36  1  0  0  0  0
 38 36  1  0  0  0  0
M  END
>  <MODEL>
1

>  <REMARK>
 VINA RESULT:      -7.3      0.000      0.000
  Name = 
  4 active torsions:
  status: ('A' for Active; 'I' for Inactive)
    1  A    between atoms: C_3  and  C_9
    2  A    between atoms: C_11  and  C_19
    3  A    between atoms: C_12  and  C_22
    4  A    between atoms: N_15  and  C_35
                            x       y       z     vdW  Elec       q    Type
                         _______ _______ _______ _____ _____    ______ ____

>  <TORSDO>
F 4

$$$$
=
 OpenBabel11042421213D

 39 44  0  0  1  0  0  0  0  0999 V2000
  157.8870  214.1640  155.0740 O   0  0  0  0  0  0  0  0  0  0  0  0
  160.3110  212.3250  150.5410 C   0  0  0  0  0  3  0  0  0  0  0  0
  159.9230  212.3190  152.8720 C   0  0  0  0  0  0  0  0  0  0  0  0
  159.6390  211.8580  156.4370 C   0  0  0  0  0  1  0  0  0  0  0  0
  158.1420  214.3450  152.8060 N   0  0  0  0  0  0  0  0  0  0  0  0
  161.7320  208.3000  151.6640 C   0  0  2  0  0  3  0  0  0  0  0  0
  160.7800  211.0020  154.3580 N   0  0  0  0  0  0  0  0  0  0  0  0
  161.9370  210.6270  149.5280 C   0  0  2  0  0  3  0  0  0  0  0  0
  161.4390  210.7310  152.0370 C   0  0  0  0  0  0  0  0  0  0  0  0
  160.7600  211.3090  153.0660 N   0  0  0  0  0  0  0  0  0  0  0  0
  162.0790  208.2330  150.1960 C   0  0  0  0  0  0  0  0  0  0  0  0
  162.3270  209.5520  152.2980 C   0  0  0  0  0  2  0  0  0  0  0  0
  161.6900  208.8170  147.9230 O   0  0  0  0  0  1  0  0  0  0  0  0
  159.3590  212.7150  154.0290 C   0  0  0  0  0  0  0  0  0  0  0  0
  158.7210  213.9270  151.6270 C   0  0  0  0  0  3  0  0  0  0  0  0
  161.4300  209.2010  149.2440 C   0  0  2  0  0  3  0  0  0  0  0  0
  161.2310  211.2490  150.7200 C   0  0  0  0  0  0  0  0  0  0  0  0
  159.9190  211.8630  154.9760 C   0  0  0  0  0  0  0  0  0  0  0  0
  158.4370  213.7620  154.0150 C   0  0  0  0  0  0  0  0  0  0  0  0
  159.6490  212.8710  151.6470 C   0  0  0  0  0  0  0  0  0  0  0  0
  162.9490  207.4710  149.7960 O   0  0  0  0  0  0  0  0  0  0  0  0
  162.0750  213.1630  146.0350 C   0  0  0  0  0  0  0  0  0  0  0  0
  163.1830  212.1930  147.9660 C   0  0  0  0  0  3  0  0  0  0  0  0
  163.2190  213.0060  146.8300 C   0  0  0  0  0  3  0  0  0  0  0  0
  161.9990  211.5270  148.3200 C   0  0  0  0  0  0  0  0  0  0  0  0
  160.8600  211.6770  147.5250 C   0  0  0  0  0  3  0  0  0  0  0  0
  160.8960  212.4910  146.3900 C   0  0  0  0  0  3  0  0  0  0  0  0
  163.3580  214.3680  144.2370 N   0  0  0  0  0  1  0  0  0  0  0  0
  162.1130  214.0200  144.8370 C   0  0  0  0  0  0  0  0  0  0  0  0
  161.0430  214.4520  144.3300 O   0  0  0  0  0  0  0  0  0  0  0  0
  160.8610  205.4800  153.5870 C   0  0  0  0  0  2  0  0  0  0  0  0
  161.1480  206.8570  153.5240 O   0  0  0  0  0  0  0  0  0  0  0  0
  162.0690  207.0410  152.4750 C   0  0  1  0  0  3  0  0  0  0  0  0
  162.1430  205.7860  151.6350 C   0  0  0  0  0  2  0  0  0  0  0  0
  161.7200  204.7290  152.5940 C   0  0  2  0  0  3  0  0  0  0  0  0
  160.9700  203.5570  150.4820 C   0  0  0  0  0  0  0  0  0  0  0  0
  160.1470  202.4990  149.8420 C   0  0  0  0  0  1  0  0  0  0  0  0
  160.9310  203.7220  151.9000 N   0  0  0  0  0  2  0  0  0  0  0  0
  161.6940  204.3020  149.7670 O   0  0  0  0  0  0  0  0  0  0  0  0
  2 17  1  0  0  0  0
  2 20  2  0  0  0  0
  3 10  1  0  0  0  0
  3 14  2  0  0  0  0
  5 19  1  0  0  0  0
  6 12  1  1  0  0  0
  6 33  1  0  0  0  0
  7 18  2  0  0  0  0
  8 25  1  6  0  0  0
  8 17  1  0  0  0  0
  9 12  1  0  0  0  0
  9 10  1  0  0  0  0
 10  7  1  0  0  0  0
 11  6  1  0  0  0  0
 14 18  1  0  0  0  0
 15 20  1  0  0  0  0
 15  5  2  0  0  0  0
 16 13  1  6  0  0  0
 16  8  1  0  0  0  0
 16 11  1  0  0  0  0
 17  9  2  0  0  0  0
 18  4  1  0  0  0  0
 19 14  1  0  0  0  0
 19  1  2  0  0  0  0
 20  3  1  0  0  0  0
 21 11  2  0  0  0  0
 22 27  2  0  0  0  0
 22 24  1  0  0  0  0
 23 25  1  0  0  0  0
 24 23  2  0  0  0  0
 26 25  2  0  0  0  0
 27 26  1  0  0  0  0
 28 29  1  0  0  0  0
 29 22  1  0  0  0  0
 30 29  2  0  0  0  0
 32 31  1  0  0  0  0
 33 34  1  6  0  0  0
 33 32  1  0  0  0  0
 34 35  1  0  0  0  0
 35 38  1  6  0  0  0
 35 31  1  0  0  0  0
 36 38  1  0  0  0  0
 37 36  1  0  0  0  0
 39 36  2  0  0  0  0
M  END
>  <MODEL>
2

>  <REMARK>
 VINA RESULT:      -6.8      2.439      7.654
  Name = 
  4 active torsions:
  status: ('A' for Active; 'I' for Inactive)
    1  A    between atoms: C_3  and  C_9
    2  A    between atoms: C_11  and  C_19
    3  A    between atoms: C_12  and  C_22
    4  A    between atoms: N_15  and  C_35
                            x       y       z     vdW  Elec       q    Type
                         _______ _______ _______ _____ _____    ______ ____

>  <TORSDO>
F 4

$$$$
=
 OpenBabel11042421213D

 39 44  0  0  1  0  0  0  0  0999 V2000
  161.6420  202.6050  146.8340 O   0  0  0  0  0  0  0  0  0  0  0  0
  162.0800  207.8610  148.2420 C   0  0  0  0  0  3  0  0  0  0  0  0
  161.4160  205.6260  148.6270 C   0  0  0  0  0  0  0  0  0  0  0  0
  160.2720  202.3850  149.7180 C   0  0  0  0  0  1  0  0  0  0  0  0
  162.3400  204.7100  146.2640 N   0  0  0  0  0  0  0  0  0  0  0  0
  161.6210  207.8180  152.6320 C   0  0  2  0  0  3  0  0  0  0  0  0
  160.4530  204.8100  150.3830 N   0  0  0  0  0  0  0  0  0  0  0  0
  161.6490  209.6330  150.0390 C   0  0  2  0  0  3  0  0  0  0  0  0
  160.9670  207.1830  150.3290 C   0  0  0  0  0  0  0  0  0  0  0  0
  160.9280  205.9180  149.8260 N   0  0  0  0  0  0  0  0  0  0  0  0
  161.9740  209.2780  152.4820 C   0  0  0  0  0  0  0  0  0  0  0  0
  160.4610  207.4500  151.7130 C   0  0  0  0  0  2  0  0  0  0  0  0
  163.0990  211.0580  151.3740 O   0  0  0  0  0  1  0  0  0  0  0  0
  161.2790  204.3160  148.3510 C   0  0  0  0  0  0  0  0  0  0  0  0
  162.4790  206.0490  146.5610 C   0  0  0  0  0  3  0  0  0  0  0  0
  162.6380  209.7460  151.2140 C   0  0  2  0  0  3  0  0  0  0  0  0
  161.5500  208.2090  149.5210 C   0  0  0  0  0  0  0  0  0  0  0  0
  160.6580  203.8030  149.4850 C   0  0  0  0  0  0  0  0  0  0  0  0
  161.7490  203.8230  147.1330 C   0  0  0  0  0  0  0  0  0  0  0  0
  162.0040  206.5390  147.7890 C   0  0  0  0  0  0  0  0  0  0  0  0
  161.6380  210.0910  153.3320 O   0  0  0  0  0  0  0  0  0  0  0  0
  162.1430  212.5530  146.8950 C   0  0  0  0  0  0  0  0  0  0  0  0
  163.1020  211.2050  148.6740 C   0  0  0  0  0  3  0  0  0  0  0  0
  163.2510  212.1450  147.6500 C   0  0  0  0  0  3  0  0  0  0  0  0
  161.8380  210.6630  148.9540 C   0  0  0  0  0  0  0  0  0  0  0  0
  160.7330  211.0640  148.1990 C   0  0  0  0  0  3  0  0  0  0  0  0
  160.8830  212.0040  147.1760 C   0  0  0  0  0  3  0  0  0  0  0  0
  161.2480  214.4530  145.5110 N   0  0  0  0  0  1  0  0  0  0  0  0
  162.3010  213.5440  145.8160 C   0  0  0  0  0  0  0  0  0  0  0  0
  163.3710  213.5970  145.1530 O   0  0  0  0  0  0  0  0  0  0  0  0
  161.6660  208.2590  156.1270 C   0  0  0  0  0  2  0  0  0  0  0  0
  162.3380  207.8820  154.9470 O   0  0  0  0  0  0  0  0  0  0  0  0
  161.3720  207.3490  154.0730 C   0  0  1  0  0  3  0  0  0  0  0  0
  159.9860  207.6770  154.5810 C   0  0  0  0  0  2  0  0  0  0  0  0
  160.2110  207.8540  156.0430 C   0  0  2  0  0  3  0  0  0  0  0  0
  159.7830  210.2820  156.6080 C   0  0  0  0  0  0  0  0  0  0  0  0
  158.8530  211.3190  157.1220 C   0  0  0  0  0  1  0  0  0  0  0  0
  159.3580  208.9190  156.5460 N   0  0  0  0  0  2  0  0  0  0  0  0
  160.9410  210.6120  156.2340 O   0  0  0  0  0  0  0  0  0  0  0  0
  1 19  2  0  0  0  0
  2 17  1  0  0  0  0
  3 10  1  0  0  0  0
  5 15  2  0  0  0  0
  5 19  1  0  0  0  0
  6 12  1  6  0  0  0
  6 33  1  0  0  0  0
  8 25  1  6  0  0  0
  8 16  1  0  0  0  0
  9 12  1  0  0  0  0
 10  9  1  0  0  0  0
 10  7  1  0  0  0  0
 11  6  1  0  0  0  0
 11 21  2  0  0  0  0
 14  3  2  0  0  0  0
 14 18  1  0  0  0  0
 15 20  1  0  0  0  0
 16 13  1  1  0  0  0
 16 11  1  0  0  0  0
 17  8  1  0  0  0  0
 17  9  2  0  0  0  0
 18  4  1  0  0  0  0
 18  7  2  0  0  0  0
 19 14  1  0  0  0  0
 20  2  2  0  0  0  0
 20  3  1  0  0  0  0
 22 27  2  0  0  0  0
 22 24  1  0  0  0  0
 23 25  1  0  0  0  0
 24 23  2  0  0  0  0
 26 25  2  0  0  0  0
 27 26  1  0  0  0  0
 28 29  1  0  0  0  0
 29 22  1  0  0  0  0
 30 29  2  0  0  0  0
 32 31  1  0  0  0  0
 33 34  1  1  0  0  0
 33 32  1  0  0  0  0
 34 35  1  0  0  0  0
 35 31  1  0  0  0  0
 35 38  1  6  0  0  0
 36 37  1  0  0  0  0
 38 36  1  0  0  0  0
 39 36  2  0  0  0  0
M  END
>  <MODEL>
3

>  <REMARK>
 VINA RESULT:      -5.5      2.389      8.376
  Name = 
  4 active torsions:
  status: ('A' for Active; 'I' for Inactive)
    1  A    between atoms: C_3  and  C_9
    2  A    between atoms: C_11  and  C_19
    3  A    between atoms: C_12  and  C_22
    4  A    between atoms: N_15  and  C_35
                            x       y       z     vdW  Elec       q    Type
                         _______ _______ _______ _____ _____    ______ ____

>  <TORSDO>
F 4

$$$$
=
 OpenBabel11042421213D

 39 44  0  0  1  0  0  0  0  0999 V2000
  159.4910  210.2400  156.8950 O   0  0  0  0  0  0  0  0  0  0  0  0
  160.8340  210.1670  151.6040 C   0  0  0  0  0  3  0  0  0  0  0  0
  160.7550  209.2250  153.7700 C   0  0  0  0  0  0  0  0  0  0  0  0
  160.8330  207.3340  156.8400 C   0  0  0  0  0  1  0  0  0  0  0  0
  159.4890  211.3310  154.8830 N   0  0  0  0  0  0  0  0  0  0  0  0
  161.4330  205.8820  150.7290 C   0  0  2  0  0  3  0  0  0  0  0  0
  161.4730  207.2850  154.4030 N   0  0  0  0  0  0  0  0  0  0  0  0
  161.8870  208.8370  149.6880 C   0  0  2  0  0  3  0  0  0  0  0  0
  161.7520  207.9340  152.0790 C   0  0  0  0  0  0  0  0  0  0  0  0
  161.3590  208.1140  153.3700 N   0  0  0  0  0  0  0  0  0  0  0  0
  161.5650  206.3960  149.3150 C   0  0  0  0  0  0  0  0  0  0  0  0
  162.3740  206.6360  151.6620 C   0  0  0  0  0  2  0  0  0  0  0  0
  161.0320  207.9480  147.5910 O   0  0  0  0  0  1  0  0  0  0  0  0
  160.4490  209.1690  155.0800 C   0  0  0  0  0  0  0  0  0  0  0  0
  159.8020  211.3740  153.5410 C   0  0  0  0  0  3  0  0  0  0  0  0
  161.0370  207.7660  148.9800 C   0  0  2  0  0  3  0  0  0  0  0  0
  161.4990  208.9900  151.1470 C   0  0  0  0  0  0  0  0  0  0  0  0
  160.9170  207.9200  155.4760 C   0  0  0  0  0  0  0  0  0  0  0  0
  159.7960  210.2490  155.6740 C   0  0  0  0  0  0  0  0  0  0  0  0
  160.4600  210.2820  152.9480 C   0  0  0  0  0  0  0  0  0  0  0  0
  162.1800  205.7560  148.4740 O   0  0  0  0  0  0  0  0  0  0  0  0
  162.1650  212.5600  147.5160 C   0  0  0  0  0  0  0  0  0  0  0  0
  163.1930  210.8810  148.9390 C   0  0  0  0  0  3  0  0  0  0  0  0
  163.2740  212.0820  148.2280 C   0  0  0  0  0  3  0  0  0  0  0  0
  161.9980  210.1460  148.9470 C   0  0  0  0  0  0  0  0  0  0  0  0
  160.8930  210.6170  148.2330 C   0  0  0  0  0  3  0  0  0  0  0  0
  160.9740  211.8180  147.5230 C   0  0  0  0  0  3  0  0  0  0  0  0
  161.1010  214.3550  146.1100 N   0  0  0  0  0  1  0  0  0  0  0  0
  162.2500  213.8260  146.7660 C   0  0  0  0  0  0  0  0  0  0  0  0
  163.3400  214.4530  146.7000 O   0  0  0  0  0  0  0  0  0  0  0  0
  160.1310  202.6210  151.0170 C   0  0  0  0  0  2  0  0  0  0  0  0
  160.5040  203.8330  151.6320 O   0  0  0  0  0  0  0  0  0  0  0  0
  161.5760  204.3620  150.8880 C   0  0  1  0  0  3  0  0  0  0  0  0
  161.6970  203.6270  149.5720 C   0  0  0  0  0  2  0  0  0  0  0  0
  161.0790  202.3080  149.8800 C   0  0  2  0  0  3  0  0  0  0  0  0
  160.7390  202.1190  147.3810 C   0  0  0  0  0  0  0  0  0  0  0  0
  159.9440  201.5850  146.2460 C   0  0  0  0  0  1  0  0  0  0  0  0
  160.3410  201.8280  148.7220 N   0  0  0  0  0  2  0  0  0  0  0  0
  161.7570  202.8270  147.1510 O   0  0  0  0  0  0  0  0  0  0  0  0
  2 20  2  0  0  0  0
  3 14  2  0  0  0  0
  5 19  1  0  0  0  0
  6 33  1  0  0  0  0
  6 12  1  1  0  0  0
  7 18  2  0  0  0  0
  8 25  1  6  0  0  0
  8 17  1  0  0  0  0
  9 10  1  0  0  0  0
 10  3  1  0  0  0  0
 10  7  1  0  0  0  0
 11  6  1  0  0  0  0
 12  9  1  0  0  0  0
 14 18  1  0  0  0  0
 14 19  1  0  0  0  0
 15  5  2  0  0  0  0
 16 13  1  6  0  0  0
 16 11  1  0  0  0  0
 16  8  1  0  0  0  0
 17  2  1  0  0  0  0
 17  9  2  0  0  0  0
 18  4  1  0  0  0  0
 19  1  2  0  0  0  0
 20 15  1  0  0  0  0
 20  3  1  0  0  0  0
 21 11  2  0  0  0  0
 22 27  2  0  0  0  0
 22 24  1  0  0  0  0
 23 25  1  0  0  0  0
 24 23  2  0  0  0  0
 26 25  2  0  0  0  0
 27 26  1  0  0  0  0
 28 29  1  0  0  0  0
 29 22  1  0  0  0  0
 30 29  2  0  0  0  0
 31 32  1  0  0  0  0
 33 34  1  6  0  0  0
 33 32  1  0  0  0  0
 34 35  1  0  0  0  0
 35 38  1  6  0  0  0
 35 31  1  0  0  0  0
 36 38  1  0  0  0  0
 37 36  1  0  0  0  0
 39 36  2  0  0  0  0
M  END
>  <MODEL>
4

>  <REMARK>
 VINA RESULT:      -5.2      1.780      7.425
  Name = 
  4 active torsions:
  status: ('A' for Active; 'I' for Inactive)
    1  A    between atoms: C_3  and  C_9
    2  A    between atoms: C_11  and  C_19
    3  A    between atoms: C_12  and  C_22
    4  A    between atoms: N_15  and  C_35
                            x       y       z     vdW  Elec       q    Type
                         _______ _______ _______ _____ _____    ______ ____

>  <TORSDO>
F 4

$$$$
=
 OpenBabel11042421213D

 39 44  0  0  1  0  0  0  0  0999 V2000
  154.2750  214.4530  151.4530 O   0  0  0  0  0  0  0  0  0  0  0  0
  158.9750  213.0130  149.0790 C   0  0  0  0  0  3  0  0  0  0  0  0
  157.5690  213.3160  150.9540 C   0  0  0  0  0  0  0  0  0  0  0  0
  155.8200  213.5300  154.1000 C   0  0  0  0  0  1  0  0  0  0  0  0
  155.4850  214.2540  149.5200 N   0  0  0  0  0  0  0  0  0  0  0  0
  160.9060  210.3970  152.0650 C   0  0  2  0  0  3  0  0  0  0  0  0
  158.0030  212.8710  153.0260 N   0  0  0  0  0  0  0  0  0  0  0  0
  161.3290  212.0640  149.4080 C   0  0  2  0  0  3  0  0  0  0  0  0
  159.7160  212.4510  151.3570 C   0  0  0  0  0  0  0  0  0  0  0  0
  158.4920  212.8590  151.7900 N   0  0  0  0  0  0  0  0  0  0  0  0
  161.8980  210.1910  150.9460 C   0  0  0  0  0  0  0  0  0  0  0  0
  160.7020  211.8840  152.3330 C   0  0  0  0  0  2  0  0  0  0  0  0
  162.4510  210.0480  148.6360 O   0  0  0  0  0  1  0  0  0  0  0  0
  156.4390  213.6450  151.6070 C   0  0  0  0  0  0  0  0  0  0  0  0
  156.6460  213.9090  148.8620 C   0  0  0  0  0  3  0  0  0  0  0  0
  161.4980  210.5390  149.5370 C   0  0  2  0  0  3  0  0  0  0  0  0
  159.9930  212.5320  149.9550 C   0  0  0  0  0  0  0  0  0  0  0  0
  156.7300  213.3570  152.9370 C   0  0  0  0  0  0  0  0  0  0  0  0
  155.3510  214.1340  150.8840 C   0  0  0  0  0  0  0  0  0  0  0  0
  157.7390  213.4160  149.5970 C   0  0  0  0  0  0  0  0  0  0  0  0
  163.0450  209.8400  151.1870 O   0  0  0  0  0  0  0  0  0  0  0  0
  162.2140  213.6330  145.4820 C   0  0  0  0  0  0  0  0  0  0  0  0
  162.9820  212.6900  147.5840 C   0  0  0  0  0  3  0  0  0  0  0  0
  163.2560  213.1940  146.3100 C   0  0  0  0  0  3  0  0  0  0  0  0
  161.6580  212.6220  148.0460 C   0  0  0  0  0  0  0  0  0  0  0  0
  160.6160  213.0530  147.2190 C   0  0  0  0  0  3  0  0  0  0  0  0
  160.8920  213.5580  145.9460 C   0  0  0  0  0  3  0  0  0  0  0  0
  161.4510  214.3590  143.1970 N   0  0  0  0  0  1  0  0  0  0  0  0
  162.5030  214.1640  144.1380 C   0  0  0  0  0  0  0  0  0  0  0  0
  163.6840  214.4530  143.8090 O   0  0  0  0  0  0  0  0  0  0  0  0
  160.0090  208.2960  154.7470 C   0  0  0  0  0  2  0  0  0  0  0  0
  160.0760  209.5910  154.1960 O   0  0  0  0  0  0  0  0  0  0  0  0
  161.2070  209.6260  153.3580 C   0  0  1  0  0  3  0  0  0  0  0  0
  161.7080  208.2200  153.1170 C   0  0  0  0  0  2  0  0  0  0  0  0
  161.2150  207.4910  154.3180 C   0  0  2  0  0  3  0  0  0  0  0  0
  161.4990  205.3890  152.9400 C   0  0  0  0  0  0  0  0  0  0  0  0
  161.0460  204.0110  152.6210 C   0  0  0  0  0  1  0  0  0  0  0  0
  160.8180  206.1420  153.9450 N   0  0  0  0  0  2  0  0  0  0  0  0
  162.4790  205.8830  152.3190 O   0  0  0  0  0  0  0  0  0  0  0  0
  2 20  2  0  0  0  0
  2 17  1  0  0  0  0
  3 14  2  0  0  0  0
  3 10  1  0  0  0  0
  5 19  1  0  0  0  0
  6 12  1  1  0  0  0
  6 33  1  0  0  0  0
  8 25  1  6  0  0  0
  8 16  1  0  0  0  0
  8 17  1  0  0  0  0
  9 10  1  0  0  0  0
  9 12  1  0  0  0  0
 10  7  1  0  0  0  0
 11 21  2  0  0  0  0
 11  6  1  0  0  0  0
 14 18  1  0  0  0  0
 15  5  2  0  0  0  0
 15 20  1  0  0  0  0
 16 13  1  6  0  0  0
 16 11  1  0  0  0  0
 17  9  2  0  0  0  0
 18  7  2  0  0  0  0
 18  4  1  0  0  0  0
 19  1  2  0  0  0  0
 19 14  1  0  0  0  0
 20  3  1  0  0  0  0
 22 27  2  0  0  0  0
 22 24  1  0  0  0  0
 23 25  1  0  0  0  0
 24 23  2  0  0  0  0
 26 25  2  0  0  0  0
 27 26  1  0  0  0  0
 28 29  1  0  0  0  0
 29 22  1  0  0  0  0
 30 29  2  0  0  0  0
 32 31  1  0  0  0  0
 33 34  1  6  0  0  0
 33 32  1  0  0  0  0
 34 35  1  0  0  0  0
 35 38  1  6  0  0  0
 35 31  1  0  0  0  0
 36 38  1  0  0  0  0
 37 36  1  0  0  0  0
 39 36  2  0  0  0  0
M  END
>  <MODEL>
5

>  <REMARK>
 VINA RESULT:      -4.3      3.142      8.391
  Name = 
  4 active torsions:
  status: ('A' for Active; 'I' for Inactive)
    1  A    between atoms: C_3  and  C_9
    2  A    between atoms: C_11  and  C_19
    3  A    between atoms: C_12  and  C_22
    4  A    between atoms: N_15  and  C_35
                            x       y       z     vdW  Elec       q    Type
                         _______ _______ _______ _____ _____    ______ ____

>  <TORSDO>
F 4

$$$$
