=
 OpenBabel11042422043D

 59 67  0  0  1  0  0  0  0  0999 V2000
  163.6800  210.1600  152.4660 C   0  0  0  0  0  1  0  0  0  0  0  0
  162.3520  209.6880  151.8970 C   0  0  2  0  0  0  0  0  0  0  0  0
  162.5450  208.2900  151.2880 C   0  0  1  0  0  3  0  0  0  0  0  0
  161.9190  210.6480  150.9790 O   0  0  0  0  0  1  0  0  0  0  0  0
  161.4960  208.0540  153.4940 C   0  0  0  0  0  2  0  0  0  0  0  0
  161.3650  209.5050  153.0480 C   0  0  2  0  0  3  0  0  0  0  0  0
  162.4330  207.3710  152.5090 C   0  0  0  0  0  2  0  0  0  0  0  0
  161.2660  206.3810  149.9750 C   0  0  1  0  0  3  0  0  0  0  0  0
  160.1870  207.3200  150.4980 C   0  0  0  0  0  2  0  0  0  0  0  0
  161.5580  207.8770  150.1380 C   0  0  1  0  0  0  0  0  0  0  0  0
  161.5710  204.1710  151.1540 C   0  0  0  0  0  0  0  0  0  0  0  0
  160.7640  203.5070  150.1780 N   0  0  0  0  0  2  0  0  0  0  0  0
  161.7940  205.5770  151.0690 N   0  0  0  0  0  2  0  0  0  0  0  0
  162.0980  203.5200  152.0920 O   0  0  0  0  0  0  0  0  0  0  0  0
  160.4830  202.0790  150.2500 C   0  0  0  0  0  2  0  0  0  0  0  0
  159.9640  201.5610  148.9150 C   0  0  0  0  0  2  0  0  0  0  0  0
  162.4700  202.0370  147.9700 O   0  0  0  0  0  1  0  0  0  0  0  0
  160.8130  201.0250  146.2350 O   0  0  0  0  0  0  0  0  0  0  0  0
  161.0250  202.0890  147.5320 P   0  0  1  0  0  0  0  0  0  0  0  0
  160.5900  203.7970  147.0150 C   0  0  1  0  0  3  0  0  0  0  0  0
  159.6030  202.8850  144.8390 C   0  0  0  0  0  1  0  0  0  0  0  0
  161.7790  204.0340  144.9200 N   0  0  0  0  0  0  0  0  0  0  0  0
  164.0150  204.4520  145.7760 C   0  0  0  0  0  1  0  0  0  0  0  0
  161.9290  204.9140  147.4800 S   0  0  0  0  0  0  0  0  0  0  0  0
  160.4500  203.9610  145.5080 C   0  0  2  0  0  3  0  0  0  0  0  0
  162.5720  204.9150  145.7710 C   0  0  2  0  0  3  0  0  0  0  0  0
  161.6520  204.6590  143.7250 O   0  0  0  0  0  1  0  0  0  0  0  0
  161.6740  208.5000  148.7790 C   0  0  0  0  0  0  0  0  0  0  0  0
  162.6120  209.3000  148.5250 O   0  0  0  0  0  1  0  0  0  0  0  0
  160.7680  208.1600  147.7840 O   0  0  0  0  0  0  0  0  0  0  0  0
  159.6360  209.8180  152.5420 S   0  0  0  0  0  0  0  0  0  0  0  0
  159.3910  213.7890  154.9140 C   0  0  0  0  0  3  0  0  0  0  0  0
  159.8840  211.4290  154.7990 C   0  0  0  0  0  0  0  0  0  0  0  0
  159.5440  211.3670  153.4450 C   0  0  0  0  0  0  0  0  0  0  0  0
  160.3780  210.3900  155.7550 C   0  0  1  0  0  3  0  0  0  0  0  0
  159.0230  213.7560  153.5610 C   0  0  0  0  0  3  0  0  0  0  0  0
  159.0930  212.5520  152.8210 C   0  0  0  0  0  0  0  0  0  0  0  0
  160.2420  212.4050  156.8290 N   0  0  0  0  0  0  0  0  0  0  0  0
  160.5550  211.1800  156.9840 N   0  0  0  0  0  0  0  0  0  0  0  0
  159.8230  212.6020  155.4950 C   0  0  0  0  0  0  0  0  0  0  0  0
  159.3130  209.3250  155.9860 C   0  0  0  0  0  3  0  0  0  0  0  0
  159.6400  208.5270  157.2370 C   0  0  0  0  0  2  0  0  0  0  0  0
  159.9460  207.9500  155.8730 C   0  0  0  0  0  2  0  0  0  0  0  0
  158.7240  212.5360  151.4370 N   0  0  0  0  0  2  0  0  0  0  0  0
  158.8970  213.6570  150.6110 N   0  0  0  0  0  2  0  0  0  0  0  0
  160.3000  213.6990  150.2380 C   0  0  0  0  0  2  0  0  0  0  0  0
  162.5640  212.5590  148.5100 Cl  0  0  0  0  0  0  0  0  0  0  0  0
  160.4280  214.2940  148.8450 C   0  0  2  0  0  3  0  0  0  0  0  0
  159.8620  214.2250  146.5210 C   0  0  2  0  0  3  0  0  0  0  0  0
  161.6750  214.4530  146.4510 S   0  0  0  0  0  0  0  0  0  0  0  0
  159.4470  213.6820  147.8710 C   0  0  0  0  0  2  0  0  0  0  0  0
  161.8240  214.1710  148.2420 C   0  0  2  0  0  3  0  0  0  0  0  0
  157.7800  213.9250  144.8960 C   0  0  1  0  0  3  0  0  0  0  0  0
  158.1150  212.5080  145.3660 C   0  0  1  0  0  3  0  0  0  0  0  0
  156.8450  214.0850  146.0820 C   0  0  0  0  0  2  0  0  0  0  0  0
  159.2140  213.5640  145.2760 C   0  0  2  0  0  0  0  0  0  0  0  0
  157.1790  212.6880  146.5470 C   0  0  0  0  0  2  0  0  0  0  0  0
  159.9570  212.1270  143.7080 C   0  0  0  0  0  1  0  0  0  0  0  0
  160.0290  213.4600  144.1370 O   0  0  0  0  0  0  0  0  0  0  0  0
  2  1  1  1  0  0  0
  2  6  1  0  0  0  0
  3  2  1  0  0  0  0
  3  7  1  1  0  0  0
  4  2  1  0  0  0  0
  6 31  1  6  0  0  0
  6  5  1  0  0  0  0
  7  5  1  0  0  0  0
  8 10  1  0  0  0  0
  8  9  1  0  0  0  0
  8 13  1  1  0  0  0
 10 28  1  6  0  0  0
 10  9  1  0  0  0  0
 10  3  1  0  0  0  0
 11 14  2  0  0  0  0
 12 15  1  0  0  0  0
 12 11  1  0  0  0  0
 13 11  1  0  0  0  0
 16 15  1  0  0  0  0
 19 18  2  6  0  0  0
 19 17  1  0  0  0  0
 19 16  1  0  0  0  0
 20 24  1  0  0  0  0
 20 19  1  6  0  0  0
 22 25  1  0  0  0  0
 22 26  1  0  0  0  0
 25 21  1  6  0  0  0
 25 20  1  0  0  0  0
 26 23  1  1  0  0  0
 26 24  1  0  0  0  0
 27 22  1  0  0  0  0
 29 28  1  0  0  0  0
 30 28  2  0  0  0  0
 31 34  1  0  0  0  0
 32 40  1  0  0  0  0
 33 40  2  0  0  0  0
 33 35  1  0  0  0  0
 34 33  1  0  0  0  0
 35 41  1  1  0  0  0
 35 39  1  0  0  0  0
 36 32  2  0  0  0  0
 37 34  2  0  0  0  0
 37 36  1  0  0  0  0
 38 39  2  0  0  0  0
 40 38  1  0  0  0  0
 41 42  1  0  0  0  0
 43 41  1  0  0  0  0
 43 42  1  0  0  0  0
 44 37  1  0  0  0  0
 45 44  1  0  0  0  0
 46 45  1  0  0  0  0
 48 46  1  1  0  0  0
 49 51  1  1  0  0  0
 50 49  1  0  0  0  0
 50 52  1  0  0  0  0
 51 48  1  0  0  0  0
 52 47  1  6  0  0  0
 52 48  1  0  0  0  0
 53 56  1  0  0  0  0
 53 54  1  0  0  0  0
 53 55  1  1  0  0  0
 54 57  1  1  0  0  0
 55 57  1  0  0  0  0
 56 59  1  6  0  0  0
 56 54  1  0  0  0  0
 56 49  1  0  0  0  0
 58 59  1  0  0  0  0
M  END
>  <MODEL>
1

>  <REMARK>
 VINA RESULT:      -2.2      0.000      0.000
  Name = 
  16 active torsions:
  status: ('A' for Active; 'I' for Inactive)
    1  A    between atoms: C_1  and  C_15
    2  A    between atoms: C_1  and  P_32
    3  A    between atoms: S_3  and  C_27
    4  A    between atoms: S_3  and  C_54
    5  A    between atoms: C_4  and  N_39
    6  A    between atoms: C_5  and  C_53
    7  A    between atoms: C_10  and  P_32
    8  A    between atoms: N_11  and  N_23
    9  A    between atoms: N_11  and  C_25
   10  A    between atoms: C_13  and  C_25
   11  A    between atoms: C_15  and  N_36
   12  A    between atoms: O_16  and  C_40
   13  A    between atoms: C_19  and  C_28
   14  A    between atoms: C_20  and  C_40
   15  A    between atoms: N_23  and  C_31
   16  A    between atoms: C_43  and  C_53
                            x       y       z     vdW  Elec       q    Type
                         _______ _______ _______ _____ _____    ______ ____

>  <TORSDO>
F 16

$$$$
=
 OpenBabel11042422043D

 59 67  0  0  1  0  0  0  0  0999 V2000
  164.2250  204.8040  146.3910 C   0  0  0  0  0  1  0  0  0  0  0  0
  162.7480  205.1600  146.3860 C   0  0  2  0  0  0  0  0  0  0  0  0
  162.1200  204.6400  145.0830 C   0  0  1  0  0  3  0  0  0  0  0  0
  162.6440  206.5430  146.5500 O   0  0  0  0  0  1  0  0  0  0  0  0
  161.5710  203.0850  146.9000 C   0  0  0  0  0  2  0  0  0  0  0  0
  162.0570  204.3930  147.5130 C   0  0  2  0  0  3  0  0  0  0  0  0
  161.8410  203.1690  145.4050 C   0  0  0  0  0  2  0  0  0  0  0  0
  160.9470  206.0930  143.2080 C   0  0  1  0  0  3  0  0  0  0  0  0
  160.0920  204.8430  143.3590 C   0  0  0  0  0  2  0  0  0  0  0  0
  160.8400  205.3910  144.5660 C   0  0  1  0  0  0  0  0  0  0  0  0
  162.4650  206.2950  141.2020 C   0  0  0  0  0  0  0  0  0  0  0  0
  161.5160  207.1280  140.5320 N   0  0  0  0  0  2  0  0  0  0  0  0
  162.1760  205.7690  142.4970 N   0  0  0  0  0  2  0  0  0  0  0  0
  163.5670  206.0240  140.6600 O   0  0  0  0  0  0  0  0  0  0  0  0
  161.7580  207.6550  139.1960 C   0  0  0  0  0  2  0  0  0  0  0  0
  160.8540  208.8480  138.9110 C   0  0  0  0  0  2  0  0  0  0  0  0
  162.8560  210.4650  139.7930 O   0  0  0  0  0  1  0  0  0  0  0  0
  162.5970  210.3460  137.2050 O   0  0  0  0  0  0  0  0  0  0  0  0
  161.8130  210.3820  138.7030 P   0  0  1  0  0  0  0  0  0  0  0  0
  160.7020  211.8420  138.7890 C   0  0  1  0  0  3  0  0  0  0  0  0
  162.7290  213.3930  138.6400 C   0  0  0  0  0  1  0  0  0  0  0  0
  161.5150  213.0110  140.7470 N   0  0  0  0  0  0  0  0  0  0  0  0
  160.4900  211.6480  142.4790 C   0  0  0  0  0  1  0  0  0  0  0  0
  159.3880  211.5130  139.9820 S   0  0  0  0  0  0  0  0  0  0  0  0
  161.3880  213.1010  139.3010 C   0  0  2  0  0  3  0  0  0  0  0  0
  160.2430  212.5050  141.2540 C   0  0  2  0  0  3  0  0  0  0  0  0
  161.6450  214.2750  141.2150 O   0  0  0  0  0  1  0  0  0  0  0  0
  160.0390  206.2510  145.4960 C   0  0  0  0  0  0  0  0  0  0  0  0
  160.5700  207.2430  146.0620 O   0  0  0  0  0  1  0  0  0  0  0  0
  158.6930  205.9800  145.7000 O   0  0  0  0  0  0  0  0  0  0  0  0
  160.6240  205.2990  148.1970 S   0  0  0  0  0  0  0  0  0  0  0  0
  162.1450  204.9430  152.5580 C   0  0  0  0  0  3  0  0  0  0  0  0
  161.3550  203.9350  150.5120 C   0  0  0  0  0  0  0  0  0  0  0  0
  161.2230  205.1770  149.8850 C   0  0  0  0  0  0  0  0  0  0  0  0
  161.1020  202.5410  150.0330 C   0  0  1  0  0  3  0  0  0  0  0  0
  162.0040  206.2060  151.9650 C   0  0  0  0  0  3  0  0  0  0  0  0
  161.5420  206.3330  150.6330 C   0  0  0  0  0  0  0  0  0  0  0  0
  161.8820  202.4740  152.1820 N   0  0  0  0  0  0  0  0  0  0  0  0
  161.4910  201.7490  151.2110 N   0  0  0  0  0  0  0  0  0  0  0  0
  161.8150  203.8300  151.7930 C   0  0  0  0  0  0  0  0  0  0  0  0
  159.6190  202.3330  149.7480 C   0  0  0  0  0  3  0  0  0  0  0  0
  159.2500  200.8750  149.9580 C   0  0  0  0  0  2  0  0  0  0  0  0
  159.4620  201.4050  148.5580 C   0  0  0  0  0  2  0  0  0  0  0  0
  161.4140  207.6290  150.0360 N   0  0  0  0  0  2  0  0  0  0  0  0
  162.0120  208.7670  150.6000 N   0  0  0  0  0  2  0  0  0  0  0  0
  160.9390  209.6680  150.9780 C   0  0  0  0  0  2  0  0  0  0  0  0
  159.1130  211.9450  151.9240 Cl  0  0  0  0  0  0  0  0  0  0  0  0
  161.1710  210.1500  152.4020 C   0  0  2  0  0  3  0  0  0  0  0  0
  160.6510  210.0000  154.7320 C   0  0  2  0  0  3  0  0  0  0  0  0
  160.5890  211.8060  154.4570 S   0  0  0  0  0  0  0  0  0  0  0  0
  160.5010  209.2590  153.4210 C   0  0  0  0  0  2  0  0  0  0  0  0
  160.7100  211.5820  152.6560 C   0  0  2  0  0  3  0  0  0  0  0  0
  160.5390  208.8030  157.1030 C   0  0  1  0  0  3  0  0  0  0  0  0
  159.6080  207.9820  156.2070 C   0  0  1  0  0  3  0  0  0  0  0  0
  161.6990  207.9110  156.6950 C   0  0  0  0  0  2  0  0  0  0  0  0
  159.8220  209.4680  155.9300 C   0  0  2  0  0  0  0  0  0  0  0  0
  160.7810  207.1040  155.8090 C   0  0  0  0  0  2  0  0  0  0  0  0
  157.9640  210.5600  155.2710 C   0  0  0  0  0  1  0  0  0  0  0  0
  158.7820  210.2980  156.3790 O   0  0  0  0  0  0  0  0  0  0  0  0
  2  1  1  1  0  0  0
  2  4  1  0  0  0  0
  2  6  1  0  0  0  0
  3  7  1  1  0  0  0
  3  2  1  0  0  0  0
  5  6  1  0  0  0  0
  6 31  1  6  0  0  0
  7  5  1  0  0  0  0
  8 13  1  6  0  0  0
  8  9  1  0  0  0  0
  8 10  1  0  0  0  0
  9 10  1  0  0  0  0
 10  3  1  0  0  0  0
 10 28  1  1  0  0  0
 11 13  1  0  0  0  0
 12 11  1  0  0  0  0
 14 11  2  0  0  0  0
 15 12  1  0  0  0  0
 16 15  1  0  0  0  0
 19 18  2  6  0  0  0
 19 16  1  0  0  0  0
 19 17  1  0  0  0  0
 20 19  1  1  0  0  0
 20 25  1  0  0  0  0
 20 24  1  0  0  0  0
 22 27  1  0  0  0  0
 22 26  1  0  0  0  0
 24 26  1  0  0  0  0
 25 21  1  6  0  0  0
 25 22  1  0  0  0  0
 26 23  1  1  0  0  0
 28 30  2  0  0  0  0
 28 29  1  0  0  0  0
 31 34  1  0  0  0  0
 33 40  1  0  0  0  0
 34 33  2  0  0  0  0
 34 37  1  0  0  0  0
 35 41  1  1  0  0  0
 35 33  1  0  0  0  0
 35 39  1  0  0  0  0
 36 32  1  0  0  0  0
 37 36  2  0  0  0  0
 39 38  2  0  0  0  0
 40 38  1  0  0  0  0
 40 32  2  0  0  0  0
 41 42  1  0  0  0  0
 43 41  1  0  0  0  0
 43 42  1  0  0  0  0
 44 45  1  0  0  0  0
 44 37  1  0  0  0  0
 45 46  1  0  0  0  0
 48 46  1  6  0  0  0
 48 52  1  0  0  0  0
 48 51  1  0  0  0  0
 49 51  1  6  0  0  0
 49 56  1  0  0  0  0
 50 49  1  0  0  0  0
 52 47  1  6  0  0  0
 52 50  1  0  0  0  0
 53 55  1  6  0  0  0
 54 57  1  6  0  0  0
 54 53  1  0  0  0  0
 56 54  1  0  0  0  0
 56 59  1  1  0  0  0
 56 53  1  0  0  0  0
 57 55  1  0  0  0  0
 58 59  1  0  0  0  0
M  END
>  <MODEL>
2

>  <REMARK>
 VINA RESULT:      -2.1      3.885      9.387
  Name = 
  16 active torsions:
  status: ('A' for Active; 'I' for Inactive)
    1  A    between atoms: C_1  and  C_15
    2  A    between atoms: C_1  and  P_32
    3  A    between atoms: S_3  and  C_27
    4  A    between atoms: S_3  and  C_54
    5  A    between atoms: C_4  and  N_39
    6  A    between atoms: C_5  and  C_53
    7  A    between atoms: C_10  and  P_32
    8  A    between atoms: N_11  and  N_23
    9  A    between atoms: N_11  and  C_25
   10  A    between atoms: C_13  and  C_25
   11  A    between atoms: C_15  and  N_36
   12  A    between atoms: O_16  and  C_40
   13  A    between atoms: C_19  and  C_28
   14  A    between atoms: C_20  and  C_40
   15  A    between atoms: N_23  and  C_31
   16  A    between atoms: C_43  and  C_53
                            x       y       z     vdW  Elec       q    Type
                         _______ _______ _______ _____ _____    ______ ____

>  <TORSDO>
F 16

$$$$
=
 OpenBabel11042422043D

 59 67  0  0  1  0  0  0  0  0999 V2000
  164.2060  204.7040  146.3450 C   0  0  0  0  0  1  0  0  0  0  0  0
  162.7410  205.1060  146.3810 C   0  0  2  0  0  0  0  0  0  0  0  0
  162.0610  204.6060  145.0950 C   0  0  1  0  0  3  0  0  0  0  0  0
  162.6850  206.4920  146.5460 O   0  0  0  0  0  1  0  0  0  0  0  0
  161.5140  203.0700  146.9280 C   0  0  0  0  0  2  0  0  0  0  0  0
  162.0570  204.3610  147.5260 C   0  0  2  0  0  3  0  0  0  0  0  0
  161.7450  203.1450  145.4260 C   0  0  0  0  0  2  0  0  0  0  0  0
  160.8870  206.1040  143.2560 C   0  0  1  0  0  3  0  0  0  0  0  0
  159.9990  204.8780  143.4220 C   0  0  0  0  0  2  0  0  0  0  0  0
  160.7920  205.3980  144.6130 C   0  0  1  0  0  0  0  0  0  0  0  0
  162.3820  206.3040  141.2330 C   0  0  0  0  0  0  0  0  0  0  0  0
  161.4630  207.2040  140.6080 N   0  0  0  0  0  2  0  0  0  0  0  0
  162.0880  205.7480  142.5130 N   0  0  0  0  0  2  0  0  0  0  0  0
  163.4610  206.0000  140.6630 O   0  0  0  0  0  0  0  0  0  0  0  0
  161.7090  207.7650  139.2860 C   0  0  0  0  0  2  0  0  0  0  0  0
  162.0370  209.2500  139.3800 C   0  0  0  0  0  2  0  0  0  0  0  0
  160.7800  210.1570  137.1450 O   0  0  0  0  0  0  0  0  0  0  0  0
  159.2180  209.7050  139.1790 O   0  0  0  0  0  1  0  0  0  0  0  0
  160.7200  210.2750  138.6500 P   0  0  1  0  0  0  0  0  0  0  0  0
  160.9320  212.0290  139.1490 C   0  0  1  0  0  3  0  0  0  0  0  0
  160.7420  211.3520  141.6080 C   0  0  0  0  0  1  0  0  0  0  0  0
  158.9080  212.4690  140.4030 N   0  0  0  0  0  0  0  0  0  0  0  0
  157.3560  212.7810  138.5590 C   0  0  0  0  0  1  0  0  0  0  0  0
  160.0140  213.0830  138.0050 S   0  0  0  0  0  0  0  0  0  0  0  0
  160.3530  212.3470  140.5210 C   0  0  2  0  0  3  0  0  0  0  0  0
  158.6450  213.2530  139.2000 C   0  0  2  0  0  3  0  0  0  0  0  0
  158.4850  213.2140  141.4530 O   0  0  0  0  0  1  0  0  0  0  0  0
  160.0390  206.2770  145.5660 C   0  0  0  0  0  0  0  0  0  0  0  0
  158.8420  206.0190  145.8580 O   0  0  0  0  0  0  0  0  0  0  0  0
  160.6780  207.3540  146.1640 O   0  0  0  0  0  1  0  0  0  0  0  0
  160.6740  205.3110  148.2490 S   0  0  0  0  0  0  0  0  0  0  0  0
  162.2330  204.7950  152.5800 C   0  0  0  0  0  3  0  0  0  0  0  0
  161.3730  203.8670  150.5240 C   0  0  0  0  0  0  0  0  0  0  0  0
  161.2880  205.1270  149.9260 C   0  0  0  0  0  0  0  0  0  0  0  0
  161.0530  202.4960  150.0190 C   0  0  1  0  0  3  0  0  0  0  0  0
  162.1390  206.0750  152.0150 C   0  0  0  0  0  3  0  0  0  0  0  0
  161.6670  206.2510  150.6940 C   0  0  0  0  0  0  0  0  0  0  0  0
  161.8570  202.3480  152.1550 N   0  0  0  0  0  0  0  0  0  0  0  0
  161.4220  201.6620  151.1740 N   0  0  0  0  0  0  0  0  0  0  0  0
  161.8440  203.7140  151.7960 C   0  0  0  0  0  0  0  0  0  0  0  0
  159.5590  202.3590  149.7500 C   0  0  0  0  0  3  0  0  0  0  0  0
  159.1050  200.9420  150.0550 C   0  0  0  0  0  2  0  0  0  0  0  0
  159.3410  201.3670  148.6230 C   0  0  0  0  0  2  0  0  0  0  0  0
  161.5880  207.5640  150.1260 N   0  0  0  0  0  2  0  0  0  0  0  0
  160.7470  208.5530  150.6600 N   0  0  0  0  0  2  0  0  0  0  0  0
  161.4830  209.2050  151.7280 C   0  0  0  0  0  2  0  0  0  0  0  0
  162.7670  210.4640  154.2150 Cl  0  0  0  0  0  0  0  0  0  0  0  0
  160.5420  209.4690  152.8930 C   0  0  2  0  0  3  0  0  0  0  0  0
  159.0570  210.9540  154.0400 C   0  0  2  0  0  3  0  0  0  0  0  0
  160.0910  210.3340  155.4140 S   0  0  0  0  0  0  0  0  0  0  0  0
  159.7580  210.7480  152.7150 C   0  0  0  0  0  2  0  0  0  0  0  0
  161.2360  209.5300  154.2510 C   0  0  2  0  0  3  0  0  0  0  0  0
  157.6240  212.5950  155.5620 C   0  0  1  0  0  3  0  0  0  0  0  0
  156.8760  212.5470  154.2280 C   0  0  1  0  0  3  0  0  0  0  0  0
  156.8070  211.4120  156.0510 C   0  0  0  0  0  2  0  0  0  0  0  0
  158.3870  212.3340  154.2650 C   0  0  2  0  0  0  0  0  0  0  0  0
  156.0710  211.3630  154.7330 C   0  0  0  0  0  2  0  0  0  0  0  0
  158.4100  214.1220  152.8930 C   0  0  0  0  0  1  0  0  0  0  0  0
  159.1420  213.4560  153.8870 O   0  0  0  0  0  0  0  0  0  0  0  0
  2  1  1  6  0  0  0
  2  4  1  0  0  0  0
  2  6  1  0  0  0  0
  3  7  1  1  0  0  0
  3  2  1  0  0  0  0
  5  6  1  0  0  0  0
  6 31  1  6  0  0  0
  7  5  1  0  0  0  0
  8 13  1  6  0  0  0
  8  9  1  0  0  0  0
  8 10  1  0  0  0  0
  9 10  1  0  0  0  0
 10  3  1  0  0  0  0
 10 28  1  1  0  0  0
 11 13  1  0  0  0  0
 12 11  1  0  0  0  0
 14 11  2  0  0  0  0
 15 16  1  0  0  0  0
 15 12  1  0  0  0  0
 19 17  2  6  0  0  0
 19 18  1  0  0  0  0
 19 16  1  0  0  0  0
 20 19  1  6  0  0  0
 20 25  1  0  0  0  0
 22 25  1  0  0  0  0
 22 27  1  0  0  0  0
 24 20  1  0  0  0  0
 24 26  1  0  0  0  0
 25 21  1  1  0  0  0
 26 23  1  6  0  0  0
 26 22  1  0  0  0  0
 28 29  2  0  0  0  0
 28 30  1  0  0  0  0
 31 34  1  0  0  0  0
 33 40  1  0  0  0  0
 34 33  2  0  0  0  0
 34 37  1  0  0  0  0
 35 41  1  1  0  0  0
 35 33  1  0  0  0  0
 35 39  1  0  0  0  0
 36 32  1  0  0  0  0
 37 36  2  0  0  0  0
 39 38  2  0  0  0  0
 40 38  1  0  0  0  0
 40 32  2  0  0  0  0
 41 42  1  0  0  0  0
 43 41  1  0  0  0  0
 43 42  1  0  0  0  0
 44 45  1  0  0  0  0
 44 37  1  0  0  0  0
 45 46  1  0  0  0  0
 48 46  1  6  0  0  0
 48 52  1  0  0  0  0
 49 51  1  6  0  0  0
 49 56  1  0  0  0  0
 49 50  1  0  0  0  0
 51 48  1  0  0  0  0
 52 47  1  6  0  0  0
 52 50  1  0  0  0  0
 53 55  1  1  0  0  0
 54 56  1  0  0  0  0
 54 57  1  1  0  0  0
 54 53  1  0  0  0  0
 56 59  1  6  0  0  0
 56 53  1  0  0  0  0
 57 55  1  0  0  0  0
 58 59  1  0  0  0  0
M  END
>  <MODEL>
3

>  <REMARK>
 VINA RESULT:      -1.7      4.025      9.135
  Name = 
  16 active torsions:
  status: ('A' for Active; 'I' for Inactive)
    1  A    between atoms: C_1  and  C_15
    2  A    between atoms: C_1  and  P_32
    3  A    between atoms: S_3  and  C_27
    4  A    between atoms: S_3  and  C_54
    5  A    between atoms: C_4  and  N_39
    6  A    between atoms: C_5  and  C_53
    7  A    between atoms: C_10  and  P_32
    8  A    between atoms: N_11  and  N_23
    9  A    between atoms: N_11  and  C_25
   10  A    between atoms: C_13  and  C_25
   11  A    between atoms: C_15  and  N_36
   12  A    between atoms: O_16  and  C_40
   13  A    between atoms: C_19  and  C_28
   14  A    between atoms: C_20  and  C_40
   15  A    between atoms: N_23  and  C_31
   16  A    between atoms: C_43  and  C_53
                            x       y       z     vdW  Elec       q    Type
                         _______ _______ _______ _____ _____    ______ ____

>  <TORSDO>
F 16

$$$$
=
 OpenBabel11042422043D

 59 67  0  0  1  0  0  0  0  0999 V2000
  163.4200  206.9980  147.2870 C   0  0  0  0  0  1  0  0  0  0  0  0
  162.1700  206.2430  146.8660 C   0  0  2  0  0  0  0  0  0  0  0  0
  162.3380  205.7870  145.4070 C   0  0  1  0  0  3  0  0  0  0  0  0
  161.0750  207.0860  147.0710 O   0  0  0  0  0  1  0  0  0  0  0  0
  162.7900  203.8830  146.8870 C   0  0  0  0  0  2  0  0  0  0  0  0
  162.0730  204.9610  147.6910 C   0  0  2  0  0  3  0  0  0  0  0  0
  163.1580  204.5010  145.5460 C   0  0  0  0  0  2  0  0  0  0  0  0
  161.0570  205.9590  143.0970 C   0  0  1  0  0  3  0  0  0  0  0  0
  160.9880  204.4930  143.5020 C   0  0  0  0  0  2  0  0  0  0  0  0
  161.0200  205.5680  144.5790 C   0  0  1  0  0  0  0  0  0  0  0  0
  162.6370  206.8380  141.3370 C   0  0  0  0  0  0  0  0  0  0  0  0
  161.5520  207.0540  140.4310 N   0  0  0  0  0  2  0  0  0  0  0  0
  162.3970  206.2790  142.6280 N   0  0  0  0  0  2  0  0  0  0  0  0
  163.8110  207.1450  141.0080 O   0  0  0  0  0  0  0  0  0  0  0  0
  161.7590  207.5880  139.0920 C   0  0  0  0  0  2  0  0  0  0  0  0
  160.7050  208.6360  138.7570 C   0  0  0  0  0  2  0  0  0  0  0  0
  162.1510  210.1450  137.0160 O   0  0  0  0  0  0  0  0  0  0  0  0
  160.2470  211.4160  138.2550 O   0  0  0  0  0  1  0  0  0  0  0  0
  161.4610  210.2440  138.3560 P   0  0  1  0  0  0  0  0  0  0  0  0
  162.6750  210.7140  139.6510 C   0  0  1  0  0  3  0  0  0  0  0  0
  160.7650  211.0540  141.3170 C   0  0  0  0  0  1  0  0  0  0  0  0
  161.9510  212.9400  140.2700 N   0  0  0  0  0  0  0  0  0  0  0  0
  162.8760  214.1940  138.4050 C   0  0  0  0  0  1  0  0  0  0  0  0
  163.9640  211.7380  138.9080 S   0  0  0  0  0  0  0  0  0  0  0  0
  162.0820  211.5760  140.7580 C   0  0  2  0  0  3  0  0  0  0  0  0
  163.1830  213.2560  139.5550 C   0  0  2  0  0  3  0  0  0  0  0  0
  161.9130  213.7490  141.3560 O   0  0  0  0  0  1  0  0  0  0  0  0
  159.6910  205.9600  145.1520 C   0  0  0  0  0  0  0  0  0  0  0  0
  159.5820  207.0000  145.8530 O   0  0  0  0  0  1  0  0  0  0  0  0
  158.5660  205.1960  144.8720 O   0  0  0  0  0  0  0  0  0  0  0  0
  160.3430  204.4420  147.9720 S   0  0  0  0  0  0  0  0  0  0  0  0
  161.5660  200.5690  150.1990 C   0  0  0  0  0  3  0  0  0  0  0  0
  161.0850  201.7650  148.1590 C   0  0  0  0  0  0  0  0  0  0  0  0
  160.8240  202.9520  148.8500 C   0  0  0  0  0  0  0  0  0  0  0  0
  161.0710  201.4330  146.7000 C   0  0  1  0  0  3  0  0  0  0  0  0
  161.2910  201.7380  150.9230 C   0  0  0  0  0  3  0  0  0  0  0  0
  160.9170  202.9300  150.2600 C   0  0  0  0  0  0  0  0  0  0  0  0
  161.6890  199.5820  147.8940 N   0  0  0  0  0  0  0  0  0  0  0  0
  161.4800  200.0190  146.7150 N   0  0  0  0  0  0  0  0  0  0  0  0
  161.4580  200.6270  148.8140 C   0  0  0  0  0  0  0  0  0  0  0  0
  159.6590  201.5470  146.1380 C   0  0  0  0  0  3  0  0  0  0  0  0
  159.5410  200.7310  144.8630 C   0  0  0  0  0  2  0  0  0  0  0  0
  159.7120  202.2310  144.7850 C   0  0  0  0  0  2  0  0  0  0  0  0
  160.6500  204.1200  151.0120 N   0  0  0  0  0  2  0  0  0  0  0  0
  161.6800  204.8840  151.5800 N   0  0  0  0  0  2  0  0  0  0  0  0
  161.1380  205.5080  152.7740 C   0  0  0  0  0  2  0  0  0  0  0  0
  160.7300  207.2460  150.2790 Cl  0  0  0  0  0  0  0  0  0  0  0  0
  161.6580  206.9330  152.8720 C   0  0  2  0  0  3  0  0  0  0  0  0
  161.2660  209.2320  153.4090 C   0  0  2  0  0  3  0  0  0  0  0  0
  162.0880  209.3700  151.7830 S   0  0  0  0  0  0  0  0  0  0  0  0
  160.6950  207.8430  153.5990 C   0  0  0  0  0  2  0  0  0  0  0  0
  161.9790  207.5720  151.5240 C   0  0  2  0  0  3  0  0  0  0  0  0
  160.8630  211.4550  154.8100 C   0  0  1  0  0  3  0  0  0  0  0  0
  159.6910  210.5420  155.1810 C   0  0  1  0  0  3  0  0  0  0  0  0
  161.6690  210.8670  155.9550 C   0  0  0  0  0  2  0  0  0  0  0  0
  160.3520  210.4190  153.8100 C   0  0  2  0  0  0  0  0  0  0  0  0
  160.5140  209.9640  156.3180 C   0  0  0  0  0  2  0  0  0  0  0  0
  158.4140  211.4490  153.2990 C   0  0  0  0  0  1  0  0  0  0  0  0
  159.6420  211.0330  152.7660 O   0  0  0  0  0  0  0  0  0  0  0  0
  2  4  1  0  0  0  0
  2  1  1  1  0  0  0
  2  6  1  0  0  0  0
  3  7  1  1  0  0  0
  3  2  1  0  0  0  0
  5  6  1  0  0  0  0
  6 31  1  6  0  0  0
  7  5  1  0  0  0  0
  8 13  1  1  0  0  0
  8  9  1  0  0  0  0
  8 10  1  0  0  0  0
  9 10  1  0  0  0  0
 10 28  1  1  0  0  0
 10  3  1  0  0  0  0
 11 13  1  0  0  0  0
 12 11  1  0  0  0  0
 14 11  2  0  0  0  0
 15 12  1  0  0  0  0
 16 15  1  0  0  0  0
 18 19  1  0  0  0  0
 19 17  2  6  0  0  0
 19 16  1  0  0  0  0
 20 19  1  6  0  0  0
 20 25  1  0  0  0  0
 22 25  1  0  0  0  0
 22 27  1  0  0  0  0
 24 26  1  0  0  0  0
 24 20  1  0  0  0  0
 25 21  1  6  0  0  0
 26 23  1  6  0  0  0
 26 22  1  0  0  0  0
 28 29  1  0  0  0  0
 30 28  2  0  0  0  0
 31 34  1  0  0  0  0
 32 36  1  0  0  0  0
 33 40  1  0  0  0  0
 33 34  2  0  0  0  0
 34 37  1  0  0  0  0
 35 41  1  1  0  0  0
 35 39  1  0  0  0  0
 35 33  1  0  0  0  0
 37 36  2  0  0  0  0
 37 44  1  0  0  0  0
 38 40  1  0  0  0  0
 39 38  2  0  0  0  0
 40 32  2  0  0  0  0
 42 41  1  0  0  0  0
 43 42  1  0  0  0  0
 43 41  1  0  0  0  0
 44 45  1  0  0  0  0
 45 46  1  0  0  0  0
 48 46  1  6  0  0  0
 48 51  1  0  0  0  0
 49 51  1  6  0  0  0
 49 56  1  0  0  0  0
 50 49  1  0  0  0  0
 52 47  1  6  0  0  0
 52 50  1  0  0  0  0
 52 48  1  0  0  0  0
 53 54  1  0  0  0  0
 53 55  1  1  0  0  0
 54 57  1  1  0  0  0
 55 57  1  0  0  0  0
 56 59  1  6  0  0  0
 56 53  1  0  0  0  0
 56 54  1  0  0  0  0
 59 58  1  0  0  0  0
M  END
>  <MODEL>
4

>  <REMARK>
 VINA RESULT:      -1.5      4.375     10.104
  Name = 
  16 active torsions:
  status: ('A' for Active; 'I' for Inactive)
    1  A    between atoms: C_1  and  C_15
    2  A    between atoms: C_1  and  P_32
    3  A    between atoms: S_3  and  C_27
    4  A    between atoms: S_3  and  C_54
    5  A    between atoms: C_4  and  N_39
    6  A    between atoms: C_5  and  C_53
    7  A    between atoms: C_10  and  P_32
    8  A    between atoms: N_11  and  N_23
    9  A    between atoms: N_11  and  C_25
   10  A    between atoms: C_13  and  C_25
   11  A    between atoms: C_15  and  N_36
   12  A    between atoms: O_16  and  C_40
   13  A    between atoms: C_19  and  C_28
   14  A    between atoms: C_20  and  C_40
   15  A    between atoms: N_23  and  C_31
   16  A    between atoms: C_43  and  C_53
                            x       y       z     vdW  Elec       q    Type
                         _______ _______ _______ _____ _____    ______ ____

>  <TORSDO>
F 16

$$$$
=
 OpenBabel11042422043D

 59 67  0  0  1  0  0  0  0  0999 V2000
  162.1700  210.2010  151.2940 C   0  0  0  0  0  1  0  0  0  0  0  0
  161.9200  208.8530  151.9490 C   0  0  2  0  0  0  0  0  0  0  0  0
  160.8430  209.0230  153.0320 C   0  0  1  0  0  3  0  0  0  0  0  0
  163.1430  208.3860  152.4370 O   0  0  0  0  0  1  0  0  0  0  0  0
  159.8050  208.0570  151.0300 C   0  0  0  0  0  2  0  0  0  0  0  0
  161.3170  207.9090  150.9100 C   0  0  2  0  0  3  0  0  0  0  0  0
  159.5410  208.9560  152.2280 C   0  0  0  0  0  2  0  0  0  0  0  0
  161.4200  208.4880  155.5600 C   0  0  1  0  0  3  0  0  0  0  0  0
  159.9320  208.2030  155.4040 C   0  0  0  0  0  2  0  0  0  0  0  0
  160.8650  207.9930  154.2190 C   0  0  1  0  0  0  0  0  0  0  0  0
  160.7060  210.8350  156.1510 C   0  0  0  0  0  0  0  0  0  0  0  0
  159.4650  210.3550  156.6770 N   0  0  0  0  0  2  0  0  0  0  0  0
  161.6470  209.9260  155.5830 N   0  0  0  0  0  2  0  0  0  0  0  0
  160.9810  212.0610  156.1920 O   0  0  0  0  0  0  0  0  0  0  0  0
  158.4620  211.2530  157.2320 C   0  0  0  0  0  2  0  0  0  0  0  0
  158.4640  212.5880  156.4990 C   0  0  0  0  0  2  0  0  0  0  0  0
  157.1110  211.5110  154.3990 O   0  0  0  0  0  0  0  0  0  0  0  0
  155.6220  212.6950  156.1770 O   0  0  0  0  0  1  0  0  0  0  0  0
  157.0800  212.7070  155.3210 P   0  0  1  0  0  0  0  0  0  0  0  0
  157.2130  214.2550  154.3410 C   0  0  1  0  0  3  0  0  0  0  0  0
  154.9260  213.7900  153.2970 C   0  0  0  0  0  1  0  0  0  0  0  0
  157.0300  213.4570  152.0630 N   0  0  0  0  0  0  0  0  0  0  0  0
  159.2880  212.6130  151.7530 C   0  0  0  0  0  1  0  0  0  0  0  0
  158.9100  214.4370  153.7520 S   0  0  0  0  0  0  0  0  0  0  0  0
  156.3600  214.2540  153.0790 C   0  0  2  0  0  3  0  0  0  0  0  0
  158.4420  213.8220  152.0990 C   0  0  2  0  0  3  0  0  0  0  0  0
  156.5530  213.8620  150.8610 O   0  0  0  0  0  1  0  0  0  0  0  0
  161.3280  206.5850  153.9930 C   0  0  0  0  0  0  0  0  0  0  0  0
  162.5560  206.3070  154.0190 O   0  0  0  0  0  1  0  0  0  0  0  0
  160.3960  205.5750  153.7960 O   0  0  0  0  0  0  0  0  0  0  0  0
  161.7700  206.1630  151.2070 S   0  0  0  0  0  0  0  0  0  0  0  0
  161.4790  204.9990  146.7330 C   0  0  0  0  0  3  0  0  0  0  0  0
  161.2460  204.4540  149.0730 C   0  0  0  0  0  0  0  0  0  0  0  0
  161.6540  205.7300  149.4680 C   0  0  0  0  0  0  0  0  0  0  0  0
  160.8210  203.2520  149.8550 C   0  0  1  0  0  3  0  0  0  0  0  0
  161.9120  206.2820  147.0980 C   0  0  0  0  0  3  0  0  0  0  0  0
  162.0060  206.6550  148.4590 C   0  0  0  0  0  0  0  0  0  0  0  0
  160.6900  202.7860  147.6200 N   0  0  0  0  0  0  0  0  0  0  0  0
  160.5020  202.2970  148.7810 N   0  0  0  0  0  0  0  0  0  0  0  0
  161.1480  204.1150  147.7540 C   0  0  0  0  0  0  0  0  0  0  0  0
  161.9800  202.7150  150.6850 C   0  0  0  0  0  3  0  0  0  0  0  0
  161.5780  201.4130  151.3560 C   0  0  0  0  0  2  0  0  0  0  0  0
  161.5860  202.7010  152.1500 C   0  0  0  0  0  2  0  0  0  0  0  0
  162.4390  207.9730  148.8160 N   0  0  0  0  0  2  0  0  0  0  0  0
  161.8010  209.1220  148.3240 N   0  0  0  0  0  2  0  0  0  0  0  0
  162.7970  210.1780  148.2870 C   0  0  0  0  0  2  0  0  0  0  0  0
  163.8480  212.4120  146.4640 Cl  0  0  0  0  0  0  0  0  0  0  0  0
  162.1020  211.5230  148.4260 C   0  0  2  0  0  3  0  0  0  0  0  0
  160.3760  213.0270  147.7300 C   0  0  2  0  0  3  0  0  0  0  0  0
  161.8370  214.1250  147.7430 S   0  0  0  0  0  0  0  0  0  0  0  0
  160.8040  211.5770  147.6560 C   0  0  0  0  0  2  0  0  0  0  0  0
  162.9550  212.7120  147.9910 C   0  0  2  0  0  3  0  0  0  0  0  0
  159.1060  212.8480  145.4020 C   0  0  1  0  0  3  0  0  0  0  0  0
  159.4070  214.3400  145.5680 C   0  0  1  0  0  3  0  0  0  0  0  0
  160.4400  212.6680  144.6990 C   0  0  0  0  0  2  0  0  0  0  0  0
  159.2130  213.4570  146.7980 C   0  0  2  0  0  0  0  0  0  0  0  0
  160.7390  214.1390  144.8670 C   0  0  0  0  0  2  0  0  0  0  0  0
  157.1180  212.6260  146.7760 C   0  0  0  0  0  1  0  0  0  0  0  0
  157.9480  213.5680  147.4000 O   0  0  0  0  0  0  0  0  0  0  0  0
  2  1  1  6  0  0  0
  2  4  1  0  0  0  0
  2  3  1  0  0  0  0
  3  7  1  6  0  0  0
  3 10  1  0  0  0  0
  5  7  1  0  0  0  0
  6  5  1  0  0  0  0
  6 31  1  1  0  0  0
  6  2  1  0  0  0  0
  8 13  1  6  0  0  0
  9  8  1  0  0  0  0
 10 28  1  6  0  0  0
 10  9  1  0  0  0  0
 10  8  1  0  0  0  0
 11 14  2  0  0  0  0
 11 12  1  0  0  0  0
 12 15  1  0  0  0  0
 13 11  1  0  0  0  0
 16 15  1  0  0  0  0
 19 17  2  6  0  0  0
 19 18  1  0  0  0  0
 19 16  1  0  0  0  0
 20 19  1  6  0  0  0
 22 26  1  0  0  0  0
 22 25  1  0  0  0  0
 24 20  1  0  0  0  0
 25 21  1  1  0  0  0
 25 20  1  0  0  0  0
 26 23  1  1  0  0  0
 26 24  1  0  0  0  0
 27 22  1  0  0  0  0
 28 29  1  0  0  0  0
 30 28  2  0  0  0  0
 32 36  2  0  0  0  0
 32 40  1  0  0  0  0
 33 34  1  0  0  0  0
 33 35  1  0  0  0  0
 34 31  1  0  0  0  0
 35 41  1  1  0  0  0
 36 37  1  0  0  0  0
 37 44  1  0  0  0  0
 37 34  2  0  0  0  0
 38 40  1  0  0  0  0
 38 39  2  0  0  0  0
 39 35  1  0  0  0  0
 40 33  2  0  0  0  0
 41 42  1  0  0  0  0
 41 43  1  0  0  0  0
 42 43  1  0  0  0  0
 45 44  1  0  0  0  0
 46 45  1  0  0  0  0
 48 46  1  6  0  0  0
 49 51  1  6  0  0  0
 49 50  1  0  0  0  0
 50 52  1  0  0  0  0
 51 48  1  0  0  0  0
 52 47  1  6  0  0  0
 52 48  1  0  0  0  0
 53 55  1  1  0  0  0
 53 54  1  0  0  0  0
 53 56  1  0  0  0  0
 54 57  1  1  0  0  0
 54 56  1  0  0  0  0
 55 57  1  0  0  0  0
 56 59  1  1  0  0  0
 56 49  1  0  0  0  0
 58 59  1  0  0  0  0
M  END
>  <MODEL>
5

>  <REMARK>
 VINA RESULT:      -0.4      3.367      8.420
  Name = 
  16 active torsions:
  status: ('A' for Active; 'I' for Inactive)
    1  A    between atoms: C_1  and  C_15
    2  A    between atoms: C_1  and  P_32
    3  A    between atoms: S_3  and  C_27
    4  A    between atoms: S_3  and  C_54
    5  A    between atoms: C_4  and  N_39
    6  A    between atoms: C_5  and  C_53
    7  A    between atoms: C_10  and  P_32
    8  A    between atoms: N_11  and  N_23
    9  A    between atoms: N_11  and  C_25
   10  A    between atoms: C_13  and  C_25
   11  A    between atoms: C_15  and  N_36
   12  A    between atoms: O_16  and  C_40
   13  A    between atoms: C_19  and  C_28
   14  A    between atoms: C_20  and  C_40
   15  A    between atoms: N_23  and  C_31
   16  A    between atoms: C_43  and  C_53
                            x       y       z     vdW  Elec       q    Type
                         _______ _______ _______ _____ _____    ______ ____

>  <TORSDO>
F 16

$$$$
=
 OpenBabel11042422043D

 59 67  0  0  1  0  0  0  0  0999 V2000
  164.1660  204.7030  146.3690 C   0  0  0  0  0  1  0  0  0  0  0  0
  162.7070  205.1260  146.3230 C   0  0  2  0  0  0  0  0  0  0  0  0
  162.0990  204.6560  144.9920 C   0  0  1  0  0  3  0  0  0  0  0  0
  162.6610  206.5100  146.5070 O   0  0  0  0  0  1  0  0  0  0  0  0
  161.4210  203.1010  146.7640 C   0  0  0  0  0  2  0  0  0  0  0  0
  161.9450  204.3740  147.4140 C   0  0  2  0  0  3  0  0  0  0  0  0
  161.7430  203.1950  145.2800 C   0  0  0  0  0  2  0  0  0  0  0  0
  161.0460  206.1670  143.0910 C   0  0  1  0  0  3  0  0  0  0  0  0
  160.1220  204.9630  143.2240 C   0  0  0  0  0  2  0  0  0  0  0  0
  160.8720  205.4730  144.4470 C   0  0  1  0  0  0  0  0  0  0  0  0
  162.5800  206.2280  141.0890 C   0  0  0  0  0  0  0  0  0  0  0  0
  161.6560  207.0490  140.3700 N   0  0  0  0  0  2  0  0  0  0  0  0
  162.2700  205.7770  142.4060 N   0  0  0  0  0  2  0  0  0  0  0  0
  163.6780  205.9030  140.5700 O   0  0  0  0  0  0  0  0  0  0  0  0
  161.9200  207.5010  139.0110 C   0  0  0  0  0  2  0  0  0  0  0  0
  160.7070  208.2190  138.4330 C   0  0  0  0  0  2  0  0  0  0  0  0
  162.2630  210.2070  137.4180 O   0  0  0  0  0  0  0  0  0  0  0  0
  159.7070  210.7060  137.4280 O   0  0  0  0  0  1  0  0  0  0  0  0
  161.0130  210.0050  138.2420 P   0  0  1  0  0  0  0  0  0  0  0  0
  161.2160  210.7930  139.8880 C   0  0  1  0  0  3  0  0  0  0  0  0
  158.8790  211.8120  139.6870 C   0  0  0  0  0  1  0  0  0  0  0  0
  160.9270  213.1440  139.3880 N   0  0  0  0  0  0  0  0  0  0  0  0
  163.1210  213.6270  138.4610 C   0  0  0  0  0  1  0  0  0  0  0  0
  162.9050  211.4100  140.0440 S   0  0  0  0  0  0  0  0  0  0  0  0
  160.3330  212.0180  140.0910 C   0  0  2  0  0  3  0  0  0  0  0  0
  162.3590  213.1100  139.6650 C   0  0  2  0  0  3  0  0  0  0  0  0
  160.4460  214.2720  139.9650 O   0  0  0  0  0  1  0  0  0  0  0  0
  160.0980  206.3770  145.3590 C   0  0  0  0  0  0  0  0  0  0  0  0
  160.6870  207.2800  146.0100 O   0  0  0  0  0  1  0  0  0  0  0  0
  158.7190  206.2450  145.4540 O   0  0  0  0  0  0  0  0  0  0  0  0
  160.5340  205.3350  148.0670 S   0  0  0  0  0  0  0  0  0  0  0  0
  162.4540  205.8120  152.2550 C   0  0  0  0  0  3  0  0  0  0  0  0
  161.5100  204.4330  150.5130 C   0  0  0  0  0  0  0  0  0  0  0  0
  161.2870  205.5360  149.6840 C   0  0  0  0  0  0  0  0  0  0  0  0
  161.2550  202.9710  150.3250 C   0  0  1  0  0  3  0  0  0  0  0  0
  162.2230  206.9410  151.4560 C   0  0  0  0  0  3  0  0  0  0  0  0
  161.6390  206.8140  150.1740 C   0  0  0  0  0  0  0  0  0  0  0  0
  162.2290  203.3130  152.3660 N   0  0  0  0  0  0  0  0  0  0  0  0
  161.7720  202.4160  151.5860 N   0  0  0  0  0  0  0  0  0  0  0  0
  162.0880  204.5720  151.7430 C   0  0  0  0  0  0  0  0  0  0  0  0
  159.7600  202.6970  150.2240 C   0  0  0  0  0  3  0  0  0  0  0  0
  159.4900  201.2140  150.4120 C   0  0  0  0  0  2  0  0  0  0  0  0
  159.4910  201.8110  149.0220 C   0  0  0  0  0  2  0  0  0  0  0  0
  161.4200  207.9750  149.3640 N   0  0  0  0  0  2  0  0  0  0  0  0
  161.3390  209.2610  149.9190 N   0  0  0  0  0  2  0  0  0  0  0  0
  162.1780  210.1270  149.1110 C   0  0  0  0  0  2  0  0  0  0  0  0
  160.8820  211.4960  146.6900 Cl  0  0  0  0  0  0  0  0  0  0  0  0
  161.7540  211.5710  149.3210 C   0  0  2  0  0  3  0  0  0  0  0  0
  160.0670  213.1460  149.9530 C   0  0  2  0  0  3  0  0  0  0  0  0
  160.6870  213.8770  148.3960 S   0  0  0  0  0  0  0  0  0  0  0  0
  160.4230  211.6770  150.0280 C   0  0  0  0  0  2  0  0  0  0  0  0
  161.6670  212.3880  148.0350 C   0  0  2  0  0  3  0  0  0  0  0  0
  158.3780  214.2950  151.6550 C   0  0  1  0  0  3  0  0  0  0  0  0
  157.8600  212.8630  151.4960 C   0  0  1  0  0  3  0  0  0  0  0  0
  159.2510  213.8390  152.8110 C   0  0  0  0  0  2  0  0  0  0  0  0
  158.6190  213.5320  150.3530 C   0  0  2  0  0  0  0  0  0  0  0  0
  158.7410  212.4260  152.6520 C   0  0  0  0  0  2  0  0  0  0  0  0
  156.4760  213.7630  149.6950 C   0  0  0  0  0  1  0  0  0  0  0  0
  157.8020  214.0220  149.3210 O   0  0  0  0  0  0  0  0  0  0  0  0
  2  1  1  1  0  0  0
  2  4  1  0  0  0  0
  2  6  1  0  0  0  0
  3  7  1  1  0  0  0
  3  2  1  0  0  0  0
  5  6  1  0  0  0  0
  6 31  1  6  0  0  0
  7  5  1  0  0  0  0
  8 13  1  6  0  0  0
  8  9  1  0  0  0  0
  8 10  1  0  0  0  0
  9 10  1  0  0  0  0
 10  3  1  0  0  0  0
 10 28  1  1  0  0  0
 11 13  1  0  0  0  0
 12 11  1  0  0  0  0
 14 11  2  0  0  0  0
 15 12  1  0  0  0  0
 16 15  1  0  0  0  0
 18 19  1  0  0  0  0
 19 17  2  6  0  0  0
 19 16  1  0  0  0  0
 20 19  1  6  0  0  0
 20 24  1  0  0  0  0
 20 25  1  0  0  0  0
 22 26  1  0  0  0  0
 22 27  1  0  0  0  0
 22 25  1  0  0  0  0
 25 21  1  6  0  0  0
 26 23  1  6  0  0  0
 26 24  1  0  0  0  0
 28 30  2  0  0  0  0
 28 29  1  0  0  0  0
 31 34  1  0  0  0  0
 33 40  2  0  0  0  0
 34 37  2  0  0  0  0
 34 33  1  0  0  0  0
 35 41  1  1  0  0  0
 35 33  1  0  0  0  0
 35 39  1  0  0  0  0
 36 32  2  0  0  0  0
 37 36  1  0  0  0  0
 39 38  2  0  0  0  0
 40 32  1  0  0  0  0
 40 38  1  0  0  0  0
 41 42  1  0  0  0  0
 43 41  1  0  0  0  0
 43 42  1  0  0  0  0
 44 45  1  0  0  0  0
 44 37  1  0  0  0  0
 46 45  1  0  0  0  0
 48 46  1  6  0  0  0
 48 51  1  0  0  0  0
 49 51  1  6  0  0  0
 49 56  1  0  0  0  0
 50 49  1  0  0  0  0
 52 47  1  6  0  0  0
 52 50  1  0  0  0  0
 52 48  1  0  0  0  0
 53 55  1  1  0  0  0
 54 53  1  0  0  0  0
 54 57  1  1  0  0  0
 56 59  1  6  0  0  0
 56 54  1  0  0  0  0
 56 53  1  0  0  0  0
 57 55  1  0  0  0  0
 59 58  1  0  0  0  0
M  END
>  <MODEL>
6

>  <REMARK>
 VINA RESULT:      -0.3      3.950      8.347
  Name = 
  16 active torsions:
  status: ('A' for Active; 'I' for Inactive)
    1  A    between atoms: C_1  and  C_15
    2  A    between atoms: C_1  and  P_32
    3  A    between atoms: S_3  and  C_27
    4  A    between atoms: S_3  and  C_54
    5  A    between atoms: C_4  and  N_39
    6  A    between atoms: C_5  and  C_53
    7  A    between atoms: C_10  and  P_32
    8  A    between atoms: N_11  and  N_23
    9  A    between atoms: N_11  and  C_25
   10  A    between atoms: C_13  and  C_25
   11  A    between atoms: C_15  and  N_36
   12  A    between atoms: O_16  and  C_40
   13  A    between atoms: C_19  and  C_28
   14  A    between atoms: C_20  and  C_40
   15  A    between atoms: N_23  and  C_31
   16  A    between atoms: C_43  and  C_53
                            x       y       z     vdW  Elec       q    Type
                         _______ _______ _______ _____ _____    ______ ____

>  <TORSDO>
F 16

$$$$
=
 OpenBabel11042422043D

 59 67  0  0  1  0  0  0  0  0999 V2000
  163.4740  211.4430  148.5700 C   0  0  0  0  0  1  0  0  0  0  0  0
  162.1400  212.1580  148.7070 C   0  0  2  0  0  0  0  0  0  0  0  0
  161.2490  211.7720  147.5160 C   0  0  1  0  0  3  0  0  0  0  0  0
  162.4010  213.5280  148.7970 O   0  0  0  0  0  1  0  0  0  0  0  0
  160.5610  210.4640  149.4740 C   0  0  0  0  0  2  0  0  0  0  0  0
  161.4250  211.6250  149.9480 C   0  0  2  0  0  3  0  0  0  0  0  0
  160.6580  210.4290  147.9560 C   0  0  0  0  0  2  0  0  0  0  0  0
  160.5000  213.8030  145.9920 C   0  0  1  0  0  3  0  0  0  0  0  0
  159.4960  212.6900  145.7240 C   0  0  0  0  0  2  0  0  0  0  0  0
  160.1400  212.8050  147.0990 C   0  0  1  0  0  0  0  0  0  0  0  0
  161.9780  213.7300  143.9490 C   0  0  0  0  0  0  0  0  0  0  0  0
  160.9200  214.2340  143.1300 N   0  0  0  0  0  2  0  0  0  0  0  0
  161.7650  213.4950  145.3400 N   0  0  0  0  0  2  0  0  0  0  0  0
  163.1090  213.4960  143.4520 O   0  0  0  0  0  0  0  0  0  0  0  0
  161.0870  214.4530  141.7000 C   0  0  0  0  0  2  0  0  0  0  0  0
  161.6890  213.2250  141.0290 C   0  0  0  0  0  2  0  0  0  0  0  0
  160.7420  210.7020  140.6610 O   0  0  0  0  0  0  0  0  0  0  0  0
  158.9170  212.5170  141.0550 O   0  0  0  0  0  1  0  0  0  0  0  0
  160.4010  212.1380  140.3390 P   0  0  1  0  0  0  0  0  0  0  0  0
  160.2900  212.3620  138.5200 C   0  0  1  0  0  3  0  0  0  0  0  0
  157.8710  213.1540  138.7650 C   0  0  0  0  0  1  0  0  0  0  0  0
  158.4450  210.9140  137.9210 N   0  0  0  0  0  0  0  0  0  0  0  0
  159.5880  208.7700  137.9730 C   0  0  0  0  0  1  0  0  0  0  0  0
  161.1460  210.9980  137.7040 S   0  0  0  0  0  0  0  0  0  0  0  0
  158.8660  212.3050  137.9840 C   0  0  2  0  0  3  0  0  0  0  0  0
  159.5620  210.1570  137.3640 C   0  0  2  0  0  3  0  0  0  0  0  0
  157.4390  210.8430  137.0160 O   0  0  0  0  0  1  0  0  0  0  0  0
  159.3290  213.5090  148.1440 C   0  0  0  0  0  0  0  0  0  0  0  0
  159.8310  214.4530  148.8090 O   0  0  0  0  0  1  0  0  0  0  0  0
  158.0040  213.1500  148.3490 O   0  0  0  0  0  0  0  0  0  0  0  0
  160.3540  212.8830  150.7300 S   0  0  0  0  0  0  0  0  0  0  0  0
  159.2760  210.1800  154.3340 C   0  0  0  0  0  3  0  0  0  0  0  0
  158.6870  211.8740  152.7180 C   0  0  0  0  0  0  0  0  0  0  0  0
  159.9490  211.8230  152.1210 C   0  0  0  0  0  0  0  0  0  0  0  0
  157.4670  212.6830  152.4110 C   0  0  1  0  0  3  0  0  0  0  0  0
  160.5590  210.1200  153.7700 C   0  0  0  0  0  3  0  0  0  0  0  0
  160.9050  210.9380  152.6690 C   0  0  0  0  0  0  0  0  0  0  0  0
  157.0290  211.2900  154.1720 N   0  0  0  0  0  0  0  0  0  0  0  0
  156.5190  212.1830  153.4210 N   0  0  0  0  0  0  0  0  0  0  0  0
  158.3650  211.0680  153.7720 C   0  0  0  0  0  0  0  0  0  0  0  0
  157.7310  214.1640  152.6510 C   0  0  0  0  0  3  0  0  0  0  0  0
  159.0130  214.3390  153.4470 C   0  0  0  0  0  2  0  0  0  0  0  0
  157.6730  214.4490  154.1410 C   0  0  0  0  0  2  0  0  0  0  0  0
  162.2160  210.8580  152.0960 N   0  0  0  0  0  2  0  0  0  0  0  0
  162.7750  209.6350  151.6940 N   0  0  0  0  0  2  0  0  0  0  0  0
  161.6930  208.6690  151.6440 C   0  0  0  0  0  2  0  0  0  0  0  0
  161.1510  206.4930  153.7380 Cl  0  0  0  0  0  0  0  0  0  0  0  0
  162.2650  207.2950  151.3300 C   0  0  2  0  0  3  0  0  0  0  0  0
  161.9890  205.1290  150.3520 C   0  0  2  0  0  3  0  0  0  0  0  0
  162.6880  204.7080  151.9870 S   0  0  0  0  0  0  0  0  0  0  0  0
  161.3900  206.5190  150.3730 C   0  0  0  0  0  2  0  0  0  0  0  0
  162.5020  206.4240  152.5600 C   0  0  2  0  0  3  0  0  0  0  0  0
  161.6830  203.3410  148.4090 C   0  0  1  0  0  3  0  0  0  0  0  0
  160.4290  204.2160  148.3360 C   0  0  1  0  0  3  0  0  0  0  0  0
  162.3830  204.2830  147.4450 C   0  0  0  0  0  2  0  0  0  0  0  0
  161.1480  204.0200  149.6680 C   0  0  2  0  0  0  0  0  0  0  0  0
  161.1460  205.1480  147.3770 C   0  0  0  0  0  2  0  0  0  0  0  0
  160.3070  201.9310  149.7680 C   0  0  0  0  0  1  0  0  0  0  0  0
  160.5400  203.0880  150.5250 O   0  0  0  0  0  0  0  0  0  0  0  0
  2  1  1  6  0  0  0
  2  4  1  0  0  0  0
  2  6  1  0  0  0  0
  3  7  1  1  0  0  0
  3  2  1  0  0  0  0
  5  6  1  0  0  0  0
  6 31  1  6  0  0  0
  7  5  1  0  0  0  0
  8 13  1  6  0  0  0
  8 10  1  0  0  0  0
  9  8  1  0  0  0  0
  9 10  1  0  0  0  0
 10  3  1  0  0  0  0
 10 28  1  1  0  0  0
 11 13  1  0  0  0  0
 12 11  1  0  0  0  0
 14 11  2  0  0  0  0
 15 12  1  0  0  0  0
 16 15  1  0  0  0  0
 19 17  2  1  0  0  0
 19 16  1  0  0  0  0
 19 18  1  0  0  0  0
 20 19  1  1  0  0  0
 22 25  1  0  0  0  0
 24 20  1  0  0  0  0
 25 20  1  0  0  0  0
 25 21  1  1  0  0  0
 26 24  1  0  0  0  0
 26 22  1  0  0  0  0
 26 23  1  1  0  0  0
 27 22  1  0  0  0  0
 28 30  2  0  0  0  0
 28 29  1  0  0  0  0
 31 34  1  0  0  0  0
 33 40  2  0  0  0  0
 34 37  2  0  0  0  0
 34 33  1  0  0  0  0
 35 41  1  1  0  0  0
 35 33  1  0  0  0  0
 35 39  1  0  0  0  0
 36 32  2  0  0  0  0
 37 36  1  0  0  0  0
 39 38  2  0  0  0  0
 40 38  1  0  0  0  0
 40 32  1  0  0  0  0
 41 42  1  0  0  0  0
 41 43  1  0  0  0  0
 42 43  1  0  0  0  0
 44 37  1  0  0  0  0
 45 44  1  0  0  0  0
 46 45  1  0  0  0  0
 48 46  1  1  0  0  0
 48 52  1  0  0  0  0
 49 51  1  1  0  0  0
 49 50  1  0  0  0  0
 50 52  1  0  0  0  0
 51 48  1  0  0  0  0
 52 47  1  1  0  0  0
 53 55  1  6  0  0  0
 53 56  1  0  0  0  0
 54 57  1  6  0  0  0
 54 53  1  0  0  0  0
 54 56  1  0  0  0  0
 56 49  1  0  0  0  0
 56 59  1  1  0  0  0
 57 55  1  0  0  0  0
 58 59  1  0  0  0  0
M  END
>  <MODEL>
7

>  <REMARK>
 VINA RESULT:       0.7      4.231      8.729
  Name = 
  16 active torsions:
  status: ('A' for Active; 'I' for Inactive)
    1  A    between atoms: C_1  and  C_15
    2  A    between atoms: C_1  and  P_32
    3  A    between atoms: S_3  and  C_27
    4  A    between atoms: S_3  and  C_54
    5  A    between atoms: C_4  and  N_39
    6  A    between atoms: C_5  and  C_53
    7  A    between atoms: C_10  and  P_32
    8  A    between atoms: N_11  and  N_23
    9  A    between atoms: N_11  and  C_25
   10  A    between atoms: C_13  and  C_25
   11  A    between atoms: C_15  and  N_36
   12  A    between atoms: O_16  and  C_40
   13  A    between atoms: C_19  and  C_28
   14  A    between atoms: C_20  and  C_40
   15  A    between atoms: N_23  and  C_31
   16  A    between atoms: C_43  and  C_53
                            x       y       z     vdW  Elec       q    Type
                         _______ _______ _______ _____ _____    ______ ____

>  <TORSDO>
F 16

$$$$
=
 OpenBabel11042422043D

 59 67  0  0  1  0  0  0  0  0999 V2000
  163.7180  206.9760  147.0650 C   0  0  0  0  0  1  0  0  0  0  0  0
  162.3810  206.3370  146.7290 C   0  0  2  0  0  0  0  0  0  0  0  0
  162.4410  205.7970  145.2910 C   0  0  1  0  0  3  0  0  0  0  0  0
  161.3880  207.2990  146.9300 O   0  0  0  0  0  1  0  0  0  0  0  0
  162.7540  203.9290  146.8500 C   0  0  0  0  0  2  0  0  0  0  0  0
  162.1860  205.1130  147.6220 C   0  0  2  0  0  3  0  0  0  0  0  0
  163.1290  204.4400  145.4670 C   0  0  0  0  0  2  0  0  0  0  0  0
  161.0800  206.0410  143.0330 C   0  0  1  0  0  3  0  0  0  0  0  0
  160.9050  204.5920  143.4700 C   0  0  0  0  0  2  0  0  0  0  0  0
  161.0740  205.6790  144.5230 C   0  0  1  0  0  0  0  0  0  0  0  0
  162.6540  206.8460  141.2330 C   0  0  0  0  0  0  0  0  0  0  0  0
  161.5540  207.2390  140.4080 N   0  0  0  0  0  2  0  0  0  0  0  0
  162.4220  206.2370  142.5020 N   0  0  0  0  0  2  0  0  0  0  0  0
  163.8360  207.0390  140.8500 O   0  0  0  0  0  0  0  0  0  0  0  0
  161.7490  207.8300  139.0910 C   0  0  0  0  0  2  0  0  0  0  0  0
  160.9760  209.1360  138.9630 C   0  0  0  0  0  2  0  0  0  0  0  0
  163.2330  210.5210  139.5850 O   0  0  0  0  0  1  0  0  0  0  0  0
  162.6990  210.3720  137.0410 O   0  0  0  0  0  0  0  0  0  0  0  0
  162.0820  210.5380  138.6070 P   0  0  1  0  0  0  0  0  0  0  0  0
  161.1650  212.1230  138.7490 C   0  0  1  0  0  3  0  0  0  0  0  0
  163.3720  213.3710  139.0780 C   0  0  0  0  0  1  0  0  0  0  0  0
  161.8240  212.9200  140.9380 N   0  0  0  0  0  0  0  0  0  0  0  0
  160.3920  211.5240  142.3190 C   0  0  0  0  0  1  0  0  0  0  0  0
  159.6590  211.8480  139.7070 S   0  0  0  0  0  0  0  0  0  0  0  0
  161.9220  213.2000  139.5140 C   0  0  2  0  0  3  0  0  0  0  0  0
  160.4380  212.5470  141.2020 C   0  0  2  0  0  3  0  0  0  0  0  0
  162.0430  214.0880  141.5890 O   0  0  0  0  0  1  0  0  0  0  0  0
  159.8100  206.1920  145.1420 C   0  0  0  0  0  0  0  0  0  0  0  0
  159.7550  207.3650  145.5970 O   0  0  0  0  0  1  0  0  0  0  0  0
  158.6800  205.3850  145.1770 O   0  0  0  0  0  0  0  0  0  0  0  0
  160.4250  204.7920  147.9920 S   0  0  0  0  0  0  0  0  0  0  0  0
  161.3900  201.9070  151.4840 C   0  0  0  0  0  3  0  0  0  0  0  0
  161.0930  202.3400  149.1280 C   0  0  0  0  0  0  0  0  0  0  0  0
  160.8050  203.6890  149.3550 C   0  0  0  0  0  0  0  0  0  0  0  0
  161.1830  201.5350  147.8710 C   0  0  1  0  0  3  0  0  0  0  0  0
  161.0850  203.2500  151.7470 C   0  0  0  0  0  3  0  0  0  0  0  0
  160.7890  204.1460  150.6930 C   0  0  0  0  0  0  0  0  0  0  0  0
  161.6680  200.2000  149.6630 N   0  0  0  0  0  0  0  0  0  0  0  0
  161.5600  200.2120  148.3940 N   0  0  0  0  0  0  0  0  0  0  0  0
  161.3900  201.4930  150.1570 C   0  0  0  0  0  0  0  0  0  0  0  0
  159.8220  201.4450  147.1930 C   0  0  0  0  0  3  0  0  0  0  0  0
  159.9440  200.6840  145.8840 C   0  0  0  0  0  2  0  0  0  0  0  0
  159.8670  202.1940  145.8740 C   0  0  0  0  0  2  0  0  0  0  0  0
  160.4910  205.5180  150.9760 N   0  0  0  0  0  2  0  0  0  0  0  0
  161.4660  206.5220  150.8860 N   0  0  0  0  0  2  0  0  0  0  0  0
  160.8200  207.7750  151.2360 C   0  0  0  0  0  2  0  0  0  0  0  0
  161.5760  210.7490  151.2080 Cl  0  0  0  0  0  0  0  0  0  0  0  0
  161.4340  208.3110  152.5200 C   0  0  2  0  0  3  0  0  0  0  0  0
  161.1480  209.3490  154.6570 C   0  0  2  0  0  3  0  0  0  0  0  0
  162.5240  210.3260  153.9540 S   0  0  0  0  0  0  0  0  0  0  0  0
  160.3860  208.6400  153.5580 C   0  0  0  0  0  2  0  0  0  0  0  0
  162.3050  209.5480  152.3240 C   0  0  2  0  0  3  0  0  0  0  0  0
  158.8830  210.5190  155.4100 C   0  0  1  0  0  3  0  0  0  0  0  0
  159.9740  211.5490  155.7140 C   0  0  1  0  0  3  0  0  0  0  0  0
  158.7340  211.1040  154.0170 C   0  0  0  0  0  2  0  0  0  0  0  0
  160.3000  210.0580  155.7450 C   0  0  2  0  0  0  0  0  0  0  0  0
  159.8130  212.1180  154.3160 C   0  0  0  0  0  2  0  0  0  0  0  0
  160.2290  208.1140  156.8840 C   0  0  0  0  0  1  0  0  0  0  0  0
  160.3600  209.5020  157.0340 O   0  0  0  0  0  0  0  0  0  0  0  0
  2  4  1  0  0  0  0
  2  1  1  1  0  0  0
  2  6  1  0  0  0  0
  3  7  1  1  0  0  0
  3  2  1  0  0  0  0
  5  6  1  0  0  0  0
  6 31  1  6  0  0  0
  7  5  1  0  0  0  0
  8 13  1  6  0  0  0
  8  9  1  0  0  0  0
  8 10  1  0  0  0  0
  9 10  1  0  0  0  0
 10 28  1  1  0  0  0
 10  3  1  0  0  0  0
 11 13  1  0  0  0  0
 12 11  1  0  0  0  0
 14 11  2  0  0  0  0
 15 12  1  0  0  0  0
 16 15  1  0  0  0  0
 19 18  2  6  0  0  0
 19 16  1  0  0  0  0
 19 17  1  0  0  0  0
 20 19  1  1  0  0  0
 20 25  1  0  0  0  0
 20 24  1  0  0  0  0
 22 26  1  0  0  0  0
 22 27  1  0  0  0  0
 24 26  1  0  0  0  0
 25 21  1  6  0  0  0
 25 22  1  0  0  0  0
 26 23  1  1  0  0  0
 28 30  2  0  0  0  0
 28 29  1  0  0  0  0
 31 34  1  0  0  0  0
 32 36  1  0  0  0  0
 33 34  2  0  0  0  0
 33 40  1  0  0  0  0
 34 37  1  0  0  0  0
 35 41  1  1  0  0  0
 35 39  1  0  0  0  0
 35 33  1  0  0  0  0
 37 44  1  0  0  0  0
 37 36  2  0  0  0  0
 38 40  1  0  0  0  0
 39 38  2  0  0  0  0
 40 32  2  0  0  0  0
 42 41  1  0  0  0  0
 43 42  1  0  0  0  0
 43 41  1  0  0  0  0
 45 44  1  0  0  0  0
 45 46  1  0  0  0  0
 48 46  1  6  0  0  0
 48 51  1  0  0  0  0
 49 51  1  6  0  0  0
 49 56  1  0  0  0  0
 50 49  1  0  0  0  0
 52 47  1  6  0  0  0
 52 48  1  0  0  0  0
 52 50  1  0  0  0  0
 53 55  1  6  0  0  0
 53 54  1  0  0  0  0
 53 56  1  0  0  0  0
 54 57  1  6  0  0  0
 54 56  1  0  0  0  0
 55 57  1  0  0  0  0
 56 59  1  1  0  0  0
 58 59  1  0  0  0  0
M  END
>  <MODEL>
8

>  <REMARK>
 VINA RESULT:       0.7      4.039      9.841
  Name = 
  16 active torsions:
  status: ('A' for Active; 'I' for Inactive)
    1  A    between atoms: C_1  and  C_15
    2  A    between atoms: C_1  and  P_32
    3  A    between atoms: S_3  and  C_27
    4  A    between atoms: S_3  and  C_54
    5  A    between atoms: C_4  and  N_39
    6  A    between atoms: C_5  and  C_53
    7  A    between atoms: C_10  and  P_32
    8  A    between atoms: N_11  and  N_23
    9  A    between atoms: N_11  and  C_25
   10  A    between atoms: C_13  and  C_25
   11  A    between atoms: C_15  and  N_36
   12  A    between atoms: O_16  and  C_40
   13  A    between atoms: C_19  and  C_28
   14  A    between atoms: C_20  and  C_40
   15  A    between atoms: N_23  and  C_31
   16  A    between atoms: C_43  and  C_53
                            x       y       z     vdW  Elec       q    Type
                         _______ _______ _______ _____ _____    ______ ____

>  <TORSDO>
F 16

$$$$
