=
 OpenBabel11042421313D

 27 29  0  0  1  0  0  0  0  0999 V2000
  162.0150  204.4690  151.7400 S   0  0  0  0  0  0  0  0  0  0  0  0
  160.9750  206.3770  150.1470 C   0  0  1  0  0  3  0  0  0  0  0  0
  160.9230  204.0260  150.4000 C   0  0  2  0  0  3  0  0  0  0  0  0
  160.4720  205.0530  149.6800 C   0  0  0  0  0  2  0  0  0  0  0  0
  161.4950  206.1380  151.4870 N   0  0  0  0  0  0  0  0  0  0  0  0
  161.1680  206.9940  152.5880 C   0  0  0  0  0  0  0  0  0  0  0  0
  161.0150  206.5840  153.9020 C   0  0  0  0  0  3  0  0  0  0  0  0
  160.9740  208.3550  152.5140 C   0  0  0  0  0  3  0  0  0  0  0  0
  160.7280  207.7410  154.6050 C   0  0  0  0  0  3  0  0  0  0  0  0
  160.7170  208.7880  153.7580 N   0  0  0  0  0  0  0  0  0  0  0  0
  160.4180  210.1630  154.1180 C   0  0  0  0  0  2  0  0  0  0  0  0
  160.1600  210.9820  152.8680 C   0  0  0  0  0  2  0  0  0  0  0  0
  158.7410  211.2570  152.7570 N   0  0  0  0  0  2  0  0  0  0  0  0
  158.6140  212.4530  152.0390 N   0  0  0  0  0  2  0  0  0  0  0  0
  159.7130  213.6520  150.4880 N   0  0  0  0  0  1  0  0  0  0  0  0
  159.8910  212.7770  151.5680 N   0  0  0  0  0  2  0  0  0  0  0  0
  162.0550  206.8190  149.2750 N   0  0  0  0  0  2  0  0  0  0  0  0
  161.4620  207.3660  148.0620 C   0  0  0  0  0  2  0  0  0  0  0  0
  161.5440  206.3880  146.9330 C   0  0  0  0  0  0  0  0  0  0  0  0
  160.5700  205.4350  144.9270 C   0  0  0  0  0  3  0  0  0  0  0  0
  160.5190  206.3510  145.9820 C   0  0  0  0  0  3  0  0  0  0  0  0
  162.6600  204.5630  145.7860 C   0  0  0  0  0  3  0  0  0  0  0  0
  162.6070  205.4770  146.8420 C   0  0  0  0  0  3  0  0  0  0  0  0
  161.6420  204.5440  144.8270 C   0  0  0  0  0  3  0  0  0  0  0  0
  160.4650  202.6230  150.1770 C   0  0  0  0  0  2  0  0  0  0  0  0
  160.9150  201.8910  147.6970 N   0  0  0  0  0  0  0  0  0  0  0  0
  160.7130  202.2120  148.7910 C   0  0  0  0  0  0  0  0  0  0  0  0
  2 17  1  6  0  0  0
  2  5  1  0  0  0  0
  3 25  1  1  0  0  0
  3  1  1  0  0  0  0
  4  2  1  0  0  0  0
  4  3  1  0  0  0  0
  5  1  1  0  0  0  0
  5  6  1  0  0  0  0
  6  7  1  0  0  0  0
  7  9  2  0  0  0  0
  8  6  2  0  0  0  0
  8 10  1  0  0  0  0
 10 11  1  0  0  0  0
 10  9  1  0  0  0  0
 12 11  1  0  0  0  0
 13 12  1  0  0  0  0
 14 13  1  0  0  0  0
 15 16  1  0  0  0  0
 16 14  1  0  0  0  0
 18 17  1  0  0  0  0
 19 18  1  0  0  0  0
 20 21  1  0  0  0  0
 21 19  2  0  0  0  0
 22 23  2  0  0  0  0
 23 19  1  0  0  0  0
 24 20  2  0  0  0  0
 24 22  1  0  0  0  0
 26 27  3  0  0  0  0
 27 25  1  0  0  0  0
M  END
>  <MODEL>
1

>  <REMARK>
 VINA RESULT:      -7.0      0.000      0.000
  Name = 
  11 active torsions:
  status: ('A' for Active; 'I' for Inactive)
    1  A    between atoms: C_1  and  C_5
    2  A    between atoms: C_1  and  N_18
    3  A    between atoms: C_2  and  N_23
    4  A    between atoms: C_3  and  N_7
    5  A    between atoms: C_3  and  C_17
    6  A    between atoms: N_7  and  N_11
    7  A    between atoms: C_10  and  N_18
    8  A    between atoms: N_11  and  N_21
    9  A    between atoms: N_13  and  C_17
   10  A    between atoms: C_14  and  C_19
   11  A    between atoms: C_19  and  C_26
                            x       y       z     vdW  Elec       q    Type
                         _______ _______ _______ _____ _____    ______ ____

>  <TORSDO>
F 11

$$$$
=
 OpenBabel11042421313D

 27 29  0  0  1  0  0  0  0  0999 V2000
  162.0180  204.5210  151.7150 S   0  0  0  0  0  0  0  0  0  0  0  0
  160.9850  206.4140  150.1010 C   0  0  1  0  0  3  0  0  0  0  0  0
  160.9300  204.0650  150.3760 C   0  0  2  0  0  3  0  0  0  0  0  0
  160.4820  205.0870  149.6450 C   0  0  0  0  0  2  0  0  0  0  0  0
  161.5010  206.1880  151.4440 N   0  0  0  0  0  0  0  0  0  0  0  0
  161.1720  207.0540  152.5360 C   0  0  0  0  0  0  0  0  0  0  0  0
  161.0620  206.6650  153.8610 C   0  0  0  0  0  3  0  0  0  0  0  0
  160.9320  208.4070  152.4420 C   0  0  0  0  0  3  0  0  0  0  0  0
  160.7540  207.8270  154.5490 C   0  0  0  0  0  3  0  0  0  0  0  0
  160.6900  208.8560  153.6830 N   0  0  0  0  0  0  0  0  0  0  0  0
  160.3550  210.2270  154.0230 C   0  0  0  0  0  2  0  0  0  0  0  0
  159.9000  210.9730  152.7840 C   0  0  0  0  0  2  0  0  0  0  0  0
  158.5490  211.4600  152.9850 N   0  0  0  0  0  2  0  0  0  0  0  0
  158.3210  211.4630  154.3670 N   0  0  0  0  0  2  0  0  0  0  0  0
  156.6940  211.3240  155.9110 N   0  0  0  0  0  1  0  0  0  0  0  0
  156.9340  211.5220  154.5460 N   0  0  0  0  0  2  0  0  0  0  0  0
  162.0680  206.8470  149.2280 N   0  0  0  0  0  2  0  0  0  0  0  0
  161.4790  207.3740  148.0040 C   0  0  0  0  0  2  0  0  0  0  0  0
  161.5580  206.3760  146.8940 C   0  0  0  0  0  0  0  0  0  0  0  0
  160.5740  205.3790  144.9140 C   0  0  0  0  0  3  0  0  0  0  0  0
  160.5260  206.3150  145.9510 C   0  0  0  0  0  3  0  0  0  0  0  0
  162.6740  204.5350  145.7730 C   0  0  0  0  0  3  0  0  0  0  0  0
  162.6250  205.4690  146.8120 C   0  0  0  0  0  3  0  0  0  0  0  0
  161.6500  204.4930  144.8220 C   0  0  0  0  0  3  0  0  0  0  0  0
  160.4710  202.6610  150.1650 C   0  0  0  0  0  2  0  0  0  0  0  0
  160.9320  201.8970  147.6970 N   0  0  0  0  0  0  0  0  0  0  0  0
  160.7260  202.2360  148.7840 C   0  0  0  0  0  0  0  0  0  0  0  0
  2 17  1  6  0  0  0
  2  5  1  0  0  0  0
  3 25  1  1  0  0  0
  3  1  1  0  0  0  0
  4  2  1  0  0  0  0
  4  3  1  0  0  0  0
  5  1  1  0  0  0  0
  5  6  1  0  0  0  0
  6  7  1  0  0  0  0
  7  9  2  0  0  0  0
  8  6  2  0  0  0  0
  8 10  1  0  0  0  0
 10 11  1  0  0  0  0
 10  9  1  0  0  0  0
 12 13  1  0  0  0  0
 12 11  1  0  0  0  0
 13 14  1  0  0  0  0
 14 16  1  0  0  0  0
 16 15  1  0  0  0  0
 18 17  1  0  0  0  0
 19 18  1  0  0  0  0
 20 21  1  0  0  0  0
 21 19  2  0  0  0  0
 22 23  2  0  0  0  0
 23 19  1  0  0  0  0
 24 20  2  0  0  0  0
 24 22  1  0  0  0  0
 26 27  3  0  0  0  0
 27 25  1  0  0  0  0
M  END
>  <MODEL>
2

>  <REMARK>
 VINA RESULT:      -7.0      0.939      1.609
  Name = 
  11 active torsions:
  status: ('A' for Active; 'I' for Inactive)
    1  A    between atoms: C_1  and  C_5
    2  A    between atoms: C_1  and  N_18
    3  A    between atoms: C_2  and  N_23
    4  A    between atoms: C_3  and  N_7
    5  A    between atoms: C_3  and  C_17
    6  A    between atoms: N_7  and  N_11
    7  A    between atoms: C_10  and  N_18
    8  A    between atoms: N_11  and  N_21
    9  A    between atoms: N_13  and  C_17
   10  A    between atoms: C_14  and  C_19
   11  A    between atoms: C_19  and  C_26
                            x       y       z     vdW  Elec       q    Type
                         _______ _______ _______ _____ _____    ______ ____

>  <TORSDO>
F 11

$$$$
=
 OpenBabel11042421313D

 27 29  0  0  1  0  0  0  0  0999 V2000
  162.0270  204.5230  151.6510 S   0  0  0  0  0  0  0  0  0  0  0  0
  160.9880  206.4290  150.0550 C   0  0  1  0  0  3  0  0  0  0  0  0
  160.9320  204.0780  150.3140 C   0  0  2  0  0  3  0  0  0  0  0  0
  160.4820  205.1040  149.5920 C   0  0  0  0  0  2  0  0  0  0  0  0
  161.5100  206.1920  151.3950 N   0  0  0  0  0  0  0  0  0  0  0  0
  161.1860  207.0510  152.4940 C   0  0  0  0  0  0  0  0  0  0  0  0
  160.9730  206.6350  153.7980 C   0  0  0  0  0  3  0  0  0  0  0  0
  161.0540  208.4200  152.4300 C   0  0  0  0  0  3  0  0  0  0  0  0
  160.7150  207.7980  154.5050 C   0  0  0  0  0  3  0  0  0  0  0  0
  160.7770  208.8520  153.6690 N   0  0  0  0  0  0  0  0  0  0  0  0
  160.5280  210.2360  154.0340 C   0  0  0  0  0  2  0  0  0  0  0  0
  159.9950  210.3100  155.4520 C   0  0  0  0  0  2  0  0  0  0  0  0
  160.9650  210.9820  156.2950 N   0  0  0  0  0  2  0  0  0  0  0  0
  161.3750  210.0540  157.2610 N   0  0  0  0  0  2  0  0  0  0  0  0
  163.4240  210.8930  156.8770 N   0  0  0  0  0  1  0  0  0  0  0  0
  162.6930  209.7010  156.9460 N   0  0  0  0  0  2  0  0  0  0  0  0
  162.0670  206.8670  149.1800 N   0  0  0  0  0  2  0  0  0  0  0  0
  161.4730  207.4030  147.9630 C   0  0  0  0  0  2  0  0  0  0  0  0
  161.5490  206.4150  146.8440 C   0  0  0  0  0  0  0  0  0  0  0  0
  160.5610  205.4350  144.8580 C   0  0  0  0  0  3  0  0  0  0  0  0
  160.5150  206.3610  145.9040 C   0  0  0  0  0  3  0  0  0  0  0  0
  162.6640  204.5840  145.7050 C   0  0  0  0  0  3  0  0  0  0  0  0
  162.6160  205.5080  146.7520 C   0  0  0  0  0  3  0  0  0  0  0  0
  161.6370  204.5490  144.7570 C   0  0  0  0  0  3  0  0  0  0  0  0
  160.4720  202.6750  150.0950 C   0  0  0  0  0  2  0  0  0  0  0  0
  160.9350  201.9280  147.6230 N   0  0  0  0  0  0  0  0  0  0  0  0
  160.7280  202.2570  148.7120 C   0  0  0  0  0  0  0  0  0  0  0  0
  2 17  1  6  0  0  0
  2  5  1  0  0  0  0
  3 25  1  1  0  0  0
  3  1  1  0  0  0  0
  4  2  1  0  0  0  0
  4  3  1  0  0  0  0
  5  1  1  0  0  0  0
  5  6  1  0  0  0  0
  6  7  1  0  0  0  0
  7  9  2  0  0  0  0
  8  6  2  0  0  0  0
  8 10  1  0  0  0  0
 10 11  1  0  0  0  0
 10  9  1  0  0  0  0
 11 12  1  0  0  0  0
 12 13  1  0  0  0  0
 13 14  1  0  0  0  0
 15 16  1  0  0  0  0
 16 14  1  0  0  0  0
 18 17  1  0  0  0  0
 19 18  1  0  0  0  0
 20 21  1  0  0  0  0
 21 19  2  0  0  0  0
 22 23  2  0  0  0  0
 23 19  1  0  0  0  0
 24 20  2  0  0  0  0
 24 22  1  0  0  0  0
 26 27  3  0  0  0  0
 27 25  1  0  0  0  0
M  END
>  <MODEL>
3

>  <REMARK>
 VINA RESULT:      -7.0      1.808      2.539
  Name = 
  11 active torsions:
  status: ('A' for Active; 'I' for Inactive)
    1  A    between atoms: C_1  and  C_5
    2  A    between atoms: C_1  and  N_18
    3  A    between atoms: C_2  and  N_23
    4  A    between atoms: C_3  and  N_7
    5  A    between atoms: C_3  and  C_17
    6  A    between atoms: N_7  and  N_11
    7  A    between atoms: C_10  and  N_18
    8  A    between atoms: N_11  and  N_21
    9  A    between atoms: N_13  and  C_17
   10  A    between atoms: C_14  and  C_19
   11  A    between atoms: C_19  and  C_26
                            x       y       z     vdW  Elec       q    Type
                         _______ _______ _______ _____ _____    ______ ____

>  <TORSDO>
F 11

$$$$
=
 OpenBabel11042421313D

 27 29  0  0  1  0  0  0  0  0999 V2000
  162.4100  206.0310  152.1680 S   0  0  0  0  0  0  0  0  0  0  0  0
  161.1070  206.8020  149.9400 C   0  0  1  0  0  3  0  0  0  0  0  0
  161.2390  204.9350  151.3860 C   0  0  2  0  0  3  0  0  0  0  0  0
  160.6570  205.4240  150.2910 C   0  0  0  0  0  2  0  0  0  0  0  0
  161.7570  207.3100  151.1400 N   0  0  0  0  0  0  0  0  0  0  0  0
  161.4680  208.6130  151.6610 C   0  0  0  0  0  0  0  0  0  0  0  0
  161.8110  209.8110  151.0560 C   0  0  0  0  0  3  0  0  0  0  0  0
  160.7910  208.8760  152.8320 C   0  0  0  0  0  3  0  0  0  0  0  0
  161.3150  210.7900  151.8990 C   0  0  0  0  0  3  0  0  0  0  0  0
  160.7020  210.2100  152.9490 N   0  0  0  0  0  0  0  0  0  0  0  0
  160.0910  210.9100  154.0640 C   0  0  0  0  0  2  0  0  0  0  0  0
  160.7820  210.5290  155.3590 C   0  0  0  0  0  2  0  0  0  0  0  0
  159.7880  210.1100  156.3280 N   0  0  0  0  0  2  0  0  0  0  0  0
  160.2250  208.8880  156.8550 N   0  0  0  0  0  2  0  0  0  0  0  0
  160.5650  206.9450  155.7790 N   0  0  0  0  0  1  0  0  0  0  0  0
  159.5830  207.8810  156.1250 N   0  0  0  0  0  2  0  0  0  0  0  0
  162.0730  206.7330  148.8520 N   0  0  0  0  0  2  0  0  0  0  0  0
  161.3830  207.0610  147.6120 C   0  0  0  0  0  2  0  0  0  0  0  0
  161.2880  205.8690  146.7150 C   0  0  0  0  0  0  0  0  0  0  0  0
  160.5380  204.8840  144.6290 C   0  0  0  0  0  3  0  0  0  0  0  0
  160.6490  205.9910  145.4760 C   0  0  0  0  0  3  0  0  0  0  0  0
  161.6760  203.5150  146.2700 C   0  0  0  0  0  3  0  0  0  0  0  0
  161.7850  204.6200  147.1170 C   0  0  0  0  0  3  0  0  0  0  0  0
  161.0550  203.6480  145.0250 C   0  0  0  0  0  3  0  0  0  0  0  0
  160.8610  203.6190  151.9800 C   0  0  0  0  0  2  0  0  0  0  0  0
  160.9420  201.7240  150.1670 N   0  0  0  0  0  0  0  0  0  0  0  0
  160.9090  202.5610  150.9650 C   0  0  0  0  0  0  0  0  0  0  0  0
  2 17  1  6  0  0  0
  2  4  1  0  0  0  0
  2  5  1  0  0  0  0
  3 25  1  1  0  0  0
  3  1  1  0  0  0  0
  4  3  1  0  0  0  0
  5  6  1  0  0  0  0
  5  1  1  0  0  0  0
  6  8  2  0  0  0  0
  7  6  1  0  0  0  0
  7  9  2  0  0  0  0
  8 10  1  0  0  0  0
  9 10  1  0  0  0  0
 10 11  1  0  0  0  0
 11 12  1  0  0  0  0
 12 13  1  0  0  0  0
 13 14  1  0  0  0  0
 15 16  1  0  0  0  0
 16 14  1  0  0  0  0
 18 17  1  0  0  0  0
 19 23  1  0  0  0  0
 19 18  1  0  0  0  0
 20 24  2  0  0  0  0
 20 21  1  0  0  0  0
 21 19  2  0  0  0  0
 22 23  2  0  0  0  0
 24 22  1  0  0  0  0
 26 27  3  0  0  0  0
 27 25  1  0  0  0  0
M  END
>  <MODEL>
4

>  <REMARK>
 VINA RESULT:      -6.7      1.809      3.052
  Name = 
  11 active torsions:
  status: ('A' for Active; 'I' for Inactive)
    1  A    between atoms: C_1  and  C_5
    2  A    between atoms: C_1  and  N_18
    3  A    between atoms: C_2  and  N_23
    4  A    between atoms: C_3  and  N_7
    5  A    between atoms: C_3  and  C_17
    6  A    between atoms: N_7  and  N_11
    7  A    between atoms: C_10  and  N_18
    8  A    between atoms: N_11  and  N_21
    9  A    between atoms: N_13  and  C_17
   10  A    between atoms: C_14  and  C_19
   11  A    between atoms: C_19  and  C_26
                            x       y       z     vdW  Elec       q    Type
                         _______ _______ _______ _____ _____    ______ ____

>  <TORSDO>
F 11

$$$$
=
 OpenBabel11042421313D

 27 29  0  0  1  0  0  0  0  0999 V2000
  160.5590  207.8980  151.9680 S   0  0  0  0  0  0  0  0  0  0  0  0
  161.9800  207.2000  149.7870 C   0  0  1  0  0  3  0  0  0  0  0  0
  161.9960  208.8430  151.4890 C   0  0  2  0  0  3  0  0  0  0  0  0
  162.6170  208.4040  150.3940 C   0  0  0  0  0  2  0  0  0  0  0  0
  161.1020  206.6690  150.8220 N   0  0  0  0  0  0  0  0  0  0  0  0
  161.0870  205.2760  151.1570 C   0  0  0  0  0  0  0  0  0  0  0  0
  161.2350  204.7590  152.4340 C   0  0  0  0  0  3  0  0  0  0  0  0
  160.9060  204.2400  150.2690 C   0  0  0  0  0  3  0  0  0  0  0  0
  161.1320  203.3880  152.2770 C   0  0  0  0  0  3  0  0  0  0  0  0
  160.9270  203.1000  150.9770 N   0  0  0  0  0  0  0  0  0  0  0  0
  160.8060  201.7670  150.4150 C   0  0  0  0  0  2  0  0  0  0  0  0
  160.8530  201.8350  148.9010 C   0  0  0  0  0  2  0  0  0  0  0  0
  161.4230  200.6070  148.3830 N   0  0  0  0  0  2  0  0  0  0  0  0
  161.1700  200.5910  147.0050 N   0  0  0  0  0  2  0  0  0  0  0  0
  160.3950  201.8410  145.3050 N   0  0  0  0  0  1  0  0  0  0  0  0
  160.7620  201.8840  146.6560 N   0  0  0  0  0  2  0  0  0  0  0  0
  161.1880  207.6020  148.6330 N   0  0  0  0  0  2  0  0  0  0  0  0
  160.4380  206.4410  148.1720 C   0  0  0  0  0  2  0  0  0  0  0  0
  160.9990  205.9090  146.8920 C   0  0  0  0  0  0  0  0  0  0  0  0
  162.7600  204.7210  145.7230 C   0  0  0  0  0  3  0  0  0  0  0  0
  162.2130  205.2150  146.9110 C   0  0  0  0  0  3  0  0  0  0  0  0
  160.8960  205.6430  144.4820 C   0  0  0  0  0  3  0  0  0  0  0  0
  160.3510  206.1380  145.6690 C   0  0  0  0  0  3  0  0  0  0  0  0
  162.1000  204.9320  144.5100 C   0  0  0  0  0  3  0  0  0  0  0  0
  162.5210  209.9680  152.3180 C   0  0  0  0  0  2  0  0  0  0  0  0
  160.8030  210.6140  154.1940 N   0  0  0  0  0  0  0  0  0  0  0  0
  161.5620  210.3270  153.3690 C   0  0  0  0  0  0  0  0  0  0  0  0
  2 17  1  6  0  0  0
  2  4  1  0  0  0  0
  2  5  1  0  0  0  0
  3  1  1  0  0  0  0
  3 25  1  1  0  0  0
  4  3  1  0  0  0  0
  5  6  1  0  0  0  0
  5  1  1  0  0  0  0
  6  7  1  0  0  0  0
  8 10  1  0  0  0  0
  8  6  2  0  0  0  0
  9  7  2  0  0  0  0
 10  9  1  0  0  0  0
 11 10  1  0  0  0  0
 12 11  1  0  0  0  0
 13 12  1  0  0  0  0
 14 13  1  0  0  0  0
 15 16  1  0  0  0  0
 16 14  1  0  0  0  0
 18 17  1  0  0  0  0
 19 21  1  0  0  0  0
 19 18  1  0  0  0  0
 20 21  2  0  0  0  0
 22 24  2  0  0  0  0
 22 23  1  0  0  0  0
 23 19  2  0  0  0  0
 24 20  1  0  0  0  0
 25 27  1  0  0  0  0
 27 26  3  0  0  0  0
M  END
>  <MODEL>
5

>  <REMARK>
 VINA RESULT:      -6.6      2.032      6.831
  Name = 
  11 active torsions:
  status: ('A' for Active; 'I' for Inactive)
    1  A    between atoms: C_1  and  C_5
    2  A    between atoms: C_1  and  N_18
    3  A    between atoms: C_2  and  N_23
    4  A    between atoms: C_3  and  N_7
    5  A    between atoms: C_3  and  C_17
    6  A    between atoms: N_7  and  N_11
    7  A    between atoms: C_10  and  N_18
    8  A    between atoms: N_11  and  N_21
    9  A    between atoms: N_13  and  C_17
   10  A    between atoms: C_14  and  C_19
   11  A    between atoms: C_19  and  C_26
                            x       y       z     vdW  Elec       q    Type
                         _______ _______ _______ _____ _____    ______ ____

>  <TORSDO>
F 11

$$$$
=
 OpenBabel11042421313D

 27 29  0  0  1  0  0  0  0  0999 V2000
  162.4330  205.8280  152.2730 S   0  0  0  0  0  0  0  0  0  0  0  0
  161.0110  206.7820  150.1920 C   0  0  1  0  0  3  0  0  0  0  0  0
  161.2920  204.7680  151.4010 C   0  0  2  0  0  3  0  0  0  0  0  0
  160.6460  205.3490  150.3900 C   0  0  0  0  0  2  0  0  0  0  0  0
  161.6770  207.1810  151.4250 N   0  0  0  0  0  0  0  0  0  0  0  0
  161.3410  208.3950  152.1060 C   0  0  0  0  0  0  0  0  0  0  0  0
  161.5370  209.6730  151.6070 C   0  0  0  0  0  3  0  0  0  0  0  0
  160.7560  208.4810  153.3500 C   0  0  0  0  0  3  0  0  0  0  0  0
  161.0480  210.5170  152.5900 C   0  0  0  0  0  3  0  0  0  0  0  0
  160.5790  209.7830  153.6170 N   0  0  0  0  0  0  0  0  0  0  0  0
  160.0210  210.3140  154.8490 C   0  0  0  0  0  2  0  0  0  0  0  0
  160.8660  211.4700  155.3460 C   0  0  0  0  0  2  0  0  0  0  0  0
  160.0120  212.6110  155.6120 N   0  0  0  0  0  2  0  0  0  0  0  0
  158.8330  212.4130  154.8820 N   0  0  0  0  0  2  0  0  0  0  0  0
  158.2360  212.9360  152.7800 N   0  0  0  0  0  1  0  0  0  0  0  0
  158.7400  213.4720  153.9710 N   0  0  0  0  0  2  0  0  0  0  0  0
  161.9390  206.8950  149.0750 N   0  0  0  0  0  2  0  0  0  0  0  0
  161.1760  207.2510  147.8870 C   0  0  0  0  0  2  0  0  0  0  0  0
  161.1820  206.1380  146.8880 C   0  0  0  0  0  0  0  0  0  0  0  0
  161.9460  203.9330  146.2280 C   0  0  0  0  0  3  0  0  0  0  0  0
  161.9170  204.9790  147.1560 C   0  0  0  0  0  3  0  0  0  0  0  0
  160.5290  205.2150  144.7410 C   0  0  0  0  0  3  0  0  0  0  0  0
  160.5020  206.2600  145.6670 C   0  0  0  0  0  3  0  0  0  0  0  0
  161.2490  204.0500  145.0230 C   0  0  0  0  0  3  0  0  0  0  0  0
  161.0040  203.3720  151.8450 C   0  0  0  0  0  2  0  0  0  0  0  0
  160.6720  201.7930  149.7760 N   0  0  0  0  0  0  0  0  0  0  0  0
  160.8220  202.4890  150.6880 C   0  0  0  0  0  0  0  0  0  0  0  0
  2 17  1  6  0  0  0
  2  4  1  0  0  0  0
  2  5  1  0  0  0  0
  3 25  1  1  0  0  0
  3  1  1  0  0  0  0
  4  3  1  0  0  0  0
  5  6  1  0  0  0  0
  5  1  1  0  0  0  0
  6  8  2  0  0  0  0
  7  6  1  0  0  0  0
  7  9  2  0  0  0  0
  8 10  1  0  0  0  0
  9 10  1  0  0  0  0
 10 11  1  0  0  0  0
 11 12  1  0  0  0  0
 12 13  1  0  0  0  0
 14 13  1  0  0  0  0
 15 16  1  0  0  0  0
 16 14  1  0  0  0  0
 18 17  1  0  0  0  0
 19 21  1  0  0  0  0
 19 18  1  0  0  0  0
 20 21  2  0  0  0  0
 22 24  2  0  0  0  0
 22 23  1  0  0  0  0
 23 19  2  0  0  0  0
 24 20  1  0  0  0  0
 26 27  3  0  0  0  0
 27 25  1  0  0  0  0
M  END
>  <MODEL>
6

>  <REMARK>
 VINA RESULT:      -6.6      1.354      2.071
  Name = 
  11 active torsions:
  status: ('A' for Active; 'I' for Inactive)
    1  A    between atoms: C_1  and  C_5
    2  A    between atoms: C_1  and  N_18
    3  A    between atoms: C_2  and  N_23
    4  A    between atoms: C_3  and  N_7
    5  A    between atoms: C_3  and  C_17
    6  A    between atoms: N_7  and  N_11
    7  A    between atoms: C_10  and  N_18
    8  A    between atoms: N_11  and  N_21
    9  A    between atoms: N_13  and  C_17
   10  A    between atoms: C_14  and  C_19
   11  A    between atoms: C_19  and  C_26
                            x       y       z     vdW  Elec       q    Type
                         _______ _______ _______ _____ _____    ______ ____

>  <TORSDO>
F 11

$$$$
=
 OpenBabel11042421313D

 27 29  0  0  1  0  0  0  0  0999 V2000
  162.3030  209.6670  153.2690 S   0  0  0  0  0  0  0  0  0  0  0  0
  161.2490  207.4870  152.0870 C   0  0  1  0  0  3  0  0  0  0  0  0
  160.9330  208.8070  154.0250 C   0  0  2  0  0  3  0  0  0  0  0  0
  160.4980  207.7440  153.3490 C   0  0  0  0  0  2  0  0  0  0  0  0
  161.9720  208.7220  151.8140 N   0  0  0  0  0  0  0  0  0  0  0  0
  161.9700  209.3270  150.5150 C   0  0  0  0  0  0  0  0  0  0  0  0
  161.9680  208.6400  149.3130 C   0  0  0  0  0  3  0  0  0  0  0  0
  161.9510  210.6810  150.2620 C   0  0  0  0  0  3  0  0  0  0  0  0
  161.9440  209.6250  148.3400 C   0  0  0  0  0  3  0  0  0  0  0  0
  161.9250  210.8360  148.9300 N   0  0  0  0  0  0  0  0  0  0  0  0
  161.9340  212.1130  148.2380 C   0  0  0  0  0  2  0  0  0  0  0  0
  160.7770  212.1820  147.2610 C   0  0  0  0  0  2  0  0  0  0  0  0
  161.1470  213.0200  146.1370 N   0  0  0  0  0  2  0  0  0  0  0  0
  162.5470  213.0360  146.0870 N   0  0  0  0  0  2  0  0  0  0  0  0
  163.3810  213.3360  144.0220 N   0  0  0  0  0  1  0  0  0  0  0  0
  162.9050  214.0140  145.1510 N   0  0  0  0  0  2  0  0  0  0  0  0
  162.1980  206.4020  152.3010 N   0  0  0  0  0  2  0  0  0  0  0  0
  161.4460  205.2080  152.6610 C   0  0  0  0  0  2  0  0  0  0  0  0
  161.2500  204.3160  151.4770 C   0  0  0  0  0  0  0  0  0  0  0  0
  160.8630  204.0670  149.0960 C   0  0  0  0  0  3  0  0  0  0  0  0
  161.0620  204.8840  150.2120 C   0  0  0  0  0  3  0  0  0  0  0  0
  161.0060  202.1040  150.5070 C   0  0  0  0  0  3  0  0  0  0  0  0
  161.2030  202.9220  151.6230 C   0  0  0  0  0  3  0  0  0  0  0  0
  160.8390  202.6780  149.2420 C   0  0  0  0  0  3  0  0  0  0  0  0
  160.2600  209.3110  155.2580 C   0  0  0  0  0  2  0  0  0  0  0  0
  160.0710  207.3990  157.0460 N   0  0  0  0  0  0  0  0  0  0  0  0
  160.1530  208.2440  156.2600 C   0  0  0  0  0  0  0  0  0  0  0  0
  1  3  1  0  0  0  0
  2 17  1  1  0  0  0
  2  4  1  0  0  0  0
  3 25  1  6  0  0  0
  4  3  1  0  0  0  0
  5  2  1  0  0  0  0
  5  1  1  0  0  0  0
  6  5  1  0  0  0  0
  7  6  1  0  0  0  0
  8  6  2  0  0  0  0
  9 10  1  0  0  0  0
  9  7  2  0  0  0  0
 10  8  1  0  0  0  0
 11 10  1  0  0  0  0
 12 11  1  0  0  0  0
 13 12  1  0  0  0  0
 14 13  1  0  0  0  0
 15 16  1  0  0  0  0
 16 14  1  0  0  0  0
 17 18  1  0  0  0  0
 19 23  1  0  0  0  0
 19 18  1  0  0  0  0
 20 24  2  0  0  0  0
 20 21  1  0  0  0  0
 21 19  2  0  0  0  0
 22 23  2  0  0  0  0
 24 22  1  0  0  0  0
 25 27  1  0  0  0  0
 27 26  3  0  0  0  0
M  END
>  <MODEL>
7

>  <REMARK>
 VINA RESULT:      -6.3      3.326      6.000
  Name = 
  11 active torsions:
  status: ('A' for Active; 'I' for Inactive)
    1  A    between atoms: C_1  and  C_5
    2  A    between atoms: C_1  and  N_18
    3  A    between atoms: C_2  and  N_23
    4  A    between atoms: C_3  and  N_7
    5  A    between atoms: C_3  and  C_17
    6  A    between atoms: N_7  and  N_11
    7  A    between atoms: C_10  and  N_18
    8  A    between atoms: N_11  and  N_21
    9  A    between atoms: N_13  and  C_17
   10  A    between atoms: C_14  and  C_19
   11  A    between atoms: C_19  and  C_26
                            x       y       z     vdW  Elec       q    Type
                         _______ _______ _______ _____ _____    ______ ____

>  <TORSDO>
F 11

$$$$
=
 OpenBabel11042421313D

 27 29  0  0  1  0  0  0  0  0999 V2000
  162.5130  208.7780  150.4510 S   0  0  0  0  0  0  0  0  0  0  0  0
  161.0740  206.6560  151.2770 C   0  0  1  0  0  3  0  0  0  0  0  0
  161.3310  208.9540  151.7760 C   0  0  2  0  0  3  0  0  0  0  0  0
  160.6800  207.8360  152.0980 C   0  0  0  0  0  2  0  0  0  0  0  0
  161.7740  207.2080  150.1240 N   0  0  0  0  0  0  0  0  0  0  0  0
  161.4800  206.7850  148.7880 C   0  0  0  0  0  0  0  0  0  0  0  0
  160.2310  206.8330  148.1900 C   0  0  0  0  0  3  0  0  0  0  0  0
  162.3930  206.2840  147.8870 C   0  0  0  0  0  3  0  0  0  0  0  0
  160.4320  206.3490  146.9080 C   0  0  0  0  0  3  0  0  0  0  0  0
  161.7320  206.0350  146.7460 N   0  0  0  0  0  0  0  0  0  0  0  0
  162.3200  205.4640  145.5480 C   0  0  0  0  0  2  0  0  0  0  0  0
  161.2610  205.3010  144.4760 C   0  0  0  0  0  2  0  0  0  0  0  0
  160.6720  203.9800  144.5800 N   0  0  0  0  0  2  0  0  0  0  0  0
  161.5270  203.2160  145.3850 N   0  0  0  0  0  2  0  0  0  0  0  0
  159.7110  201.9930  144.8800 N   0  0  0  0  0  1  0  0  0  0  0  0
  160.8310  202.0490  145.7190 N   0  0  0  0  0  2  0  0  0  0  0  0
  161.9830  205.8140  152.0430 N   0  0  0  0  0  2  0  0  0  0  0  0
  161.2330  204.6640  152.5290 C   0  0  0  0  0  2  0  0  0  0  0  0
  161.1160  203.6110  151.4730 C   0  0  0  0  0  0  0  0  0  0  0  0
  160.4630  202.9770  149.2250 C   0  0  0  0  0  3  0  0  0  0  0  0
  160.5940  203.9500  150.2200 C   0  0  0  0  0  3  0  0  0  0  0  0
  161.3450  201.3080  150.7410 C   0  0  0  0  0  3  0  0  0  0  0  0
  161.4730  202.2810  151.7370 C   0  0  0  0  0  3  0  0  0  0  0  0
  160.8420  201.6580  149.4840 C   0  0  0  0  0  3  0  0  0  0  0  0
  161.0190  210.2750  152.3960 C   0  0  0  0  0  2  0  0  0  0  0  0
  161.9020  210.3710  154.8650 N   0  0  0  0  0  0  0  0  0  0  0  0
  161.5160  210.3290  153.7750 C   0  0  0  0  0  0  0  0  0  0  0  0
  1  3  1  0  0  0  0
  2 17  1  1  0  0  0
  2  4  1  0  0  0  0
  3  4  1  0  0  0  0
  3 25  1  6  0  0  0
  5  1  1  0  0  0  0
  5  2  1  0  0  0  0
  6  5  1  0  0  0  0
  7  6  1  0  0  0  0
  8  6  2  0  0  0  0
  9  7  2  0  0  0  0
 10  9  1  0  0  0  0
 10  8  1  0  0  0  0
 11 10  1  0  0  0  0
 12 13  1  0  0  0  0
 12 11  1  0  0  0  0
 13 14  1  0  0  0  0
 14 16  1  0  0  0  0
 15 16  1  0  0  0  0
 17 18  1  0  0  0  0
 19 23  1  0  0  0  0
 19 18  1  0  0  0  0
 20 24  2  0  0  0  0
 20 21  1  0  0  0  0
 21 19  2  0  0  0  0
 22 23  2  0  0  0  0
 24 22  1  0  0  0  0
 25 27  1  0  0  0  0
 27 26  3  0  0  0  0
M  END
>  <MODEL>
8

>  <REMARK>
 VINA RESULT:      -6.3      2.379      7.545
  Name = 
  11 active torsions:
  status: ('A' for Active; 'I' for Inactive)
    1  A    between atoms: C_1  and  C_5
    2  A    between atoms: C_1  and  N_18
    3  A    between atoms: C_2  and  N_23
    4  A    between atoms: C_3  and  N_7
    5  A    between atoms: C_3  and  C_17
    6  A    between atoms: N_7  and  N_11
    7  A    between atoms: C_10  and  N_18
    8  A    between atoms: N_11  and  N_21
    9  A    between atoms: N_13  and  C_17
   10  A    between atoms: C_14  and  C_19
   11  A    between atoms: C_19  and  C_26
                            x       y       z     vdW  Elec       q    Type
                         _______ _______ _______ _____ _____    ______ ____

>  <TORSDO>
F 11

$$$$
=
 OpenBabel11042421313D

 27 29  0  0  1  0  0  0  0  0999 V2000
  162.3310  209.6110  153.3360 S   0  0  0  0  0  0  0  0  0  0  0  0
  161.1900  207.4400  152.2210 C   0  0  1  0  0  3  0  0  0  0  0  0
  160.9340  208.8240  154.1220 C   0  0  2  0  0  3  0  0  0  0  0  0
  160.4550  207.7590  153.4790 C   0  0  0  0  0  2  0  0  0  0  0  0
  161.9560  208.6390  151.9100 N   0  0  0  0  0  0  0  0  0  0  0  0
  161.9700  209.2060  150.5950 C   0  0  0  0  0  0  0  0  0  0  0  0
  161.9590  208.4860  149.4120 C   0  0  0  0  0  3  0  0  0  0  0  0
  161.9760  210.5530  150.3030 C   0  0  0  0  0  3  0  0  0  0  0  0
  161.9560  209.4430  148.4120 C   0  0  0  0  0  3  0  0  0  0  0  0
  161.9570  210.6700  148.9670 N   0  0  0  0  0  0  0  0  0  0  0  0
  161.9920  211.9270  148.2400 C   0  0  0  0  0  2  0  0  0  0  0  0
  160.6420  212.1960  147.6040 C   0  0  0  0  0  2  0  0  0  0  0  0
  160.8310  212.5780  146.2180 N   0  0  0  0  0  2  0  0  0  0  0  0
  159.5750  212.5040  145.6020 N   0  0  0  0  0  2  0  0  0  0  0  0
  157.3900  212.3190  146.0910 N   0  0  0  0  0  1  0  0  0  0  0  0
  158.6230  212.7460  146.5990 N   0  0  0  0  0  2  0  0  0  0  0  0
  162.0990  206.3270  152.4610 N   0  0  0  0  0  2  0  0  0  0  0  0
  161.2990  205.1420  152.7410 C   0  0  0  0  0  2  0  0  0  0  0  0
  161.1490  204.2910  151.5210 C   0  0  0  0  0  0  0  0  0  0  0  0
  160.9410  204.1210  149.1110 C   0  0  0  0  0  3  0  0  0  0  0  0
  161.0940  204.8990  150.2630 C   0  0  0  0  0  3  0  0  0  0  0  0
  160.8620  202.1200  150.4730 C   0  0  0  0  0  3  0  0  0  0  0  0
  161.0130  202.8980  151.6240 C   0  0  0  0  0  3  0  0  0  0  0  0
  160.8280  202.7320  149.2160 C   0  0  0  0  0  3  0  0  0  0  0  0
  160.2870  209.3870  155.3440 C   0  0  0  0  0  2  0  0  0  0  0  0
  158.8980  211.5330  154.7510 N   0  0  0  0  0  0  0  0  0  0  0  0
  159.5130  210.5880  155.0120 C   0  0  0  0  0  0  0  0  0  0  0  0
  1  3  1  0  0  0  0
  2 17  1  1  0  0  0
  2  4  1  0  0  0  0
  3 25  1  6  0  0  0
  4  3  1  0  0  0  0
  5  2  1  0  0  0  0
  5  1  1  0  0  0  0
  6  5  1  0  0  0  0
  7  6  1  0  0  0  0
  8  6  2  0  0  0  0
  9 10  1  0  0  0  0
  9  7  2  0  0  0  0
 10  8  1  0  0  0  0
 11 10  1  0  0  0  0
 12 11  1  0  0  0  0
 13 12  1  0  0  0  0
 14 13  1  0  0  0  0
 14 16  1  0  0  0  0
 15 16  1  0  0  0  0
 17 18  1  0  0  0  0
 19 23  1  0  0  0  0
 19 18  1  0  0  0  0
 20 24  2  0  0  0  0
 20 21  1  0  0  0  0
 21 19  2  0  0  0  0
 22 23  2  0  0  0  0
 24 22  1  0  0  0  0
 26 27  3  0  0  0  0
 27 25  1  0  0  0  0
M  END
>  <MODEL>
9

>  <REMARK>
 VINA RESULT:      -6.1      2.968      5.926
  Name = 
  11 active torsions:
  status: ('A' for Active; 'I' for Inactive)
    1  A    between atoms: C_1  and  C_5
    2  A    between atoms: C_1  and  N_18
    3  A    between atoms: C_2  and  N_23
    4  A    between atoms: C_3  and  N_7
    5  A    between atoms: C_3  and  C_17
    6  A    between atoms: N_7  and  N_11
    7  A    between atoms: C_10  and  N_18
    8  A    between atoms: N_11  and  N_21
    9  A    between atoms: N_13  and  C_17
   10  A    between atoms: C_14  and  C_19
   11  A    between atoms: C_19  and  C_26
                            x       y       z     vdW  Elec       q    Type
                         _______ _______ _______ _____ _____    ______ ____

>  <TORSDO>
F 11

$$$$
