=
 OpenBabel11042420553D

 46 49  0  0  1  0  0  0  0  0999 V2000
  160.4850  211.4260  152.4870 C   0  0  0  0  0  2  0  0  0  0  0  0
  160.5340  210.6030  155.3410 N   0  0  0  0  0  0  0  0  0  0  0  0
  162.2480  210.0800  153.6540 C   0  0  0  0  0  2  0  0  0  0  0  0
  161.8950  210.9080  154.8920 C   0  0  0  0  0  2  0  0  0  0  0  0
  161.1070  210.0460  152.6380 C   0  0  2  0  0  3  0  0  0  0  0  0
  159.4020  211.3070  154.7760 C   0  0  0  0  0  0  0  0  0  0  0  0
  159.3640  211.6700  153.4620 C   0  0  0  0  0  0  0  0  0  0  0  0
  158.2600  212.4140  152.9550 N   0  0  0  0  0  1  0  0  0  0  0  0
  157.0330  212.5970  157.0850 C   0  0  0  0  0  3  0  0  0  0  0  0
  157.1510  210.8790  155.7990 N   0  0  0  0  0  0  0  0  0  0  0  0
  156.3790  211.4930  156.6810 N   0  0  0  0  0  0  0  0  0  0  0  0
  158.2290  212.7120  156.4730 N   0  0  0  0  0  2  0  0  0  0  0  0
  158.2630  211.6240  155.6790 C   0  0  0  0  0  0  0  0  0  0  0  0
  160.2980  209.6040  156.3910 C   0  0  0  0  0  2  0  0  0  0  0  0
  159.4880  208.4040  155.9200 C   0  0  0  0  0  2  0  0  0  0  0  0
  160.4050  207.1710  154.0360 C   0  0  0  0  0  3  0  0  0  0  0  0
  160.4020  207.3910  155.3420 C   0  0  0  0  0  3  0  0  0  0  0  0
  161.0450  205.6430  152.3230 N   0  0  0  0  0  0  0  0  0  0  0  0
  161.3090  206.1740  153.4720 C   0  0  0  0  0  3  0  0  0  0  0  0
  161.9420  204.6500  151.7500 C   0  0  1  0  0  3  0  0  0  0  0  0
  161.2570  202.9820  151.9690 S   0  0  0  0  0  1  0  0  0  0  0  0
  162.1180  204.9080  150.3300 N   0  0  0  0  0  2  0  0  0  0  0  0
  161.2060  205.3790  146.8420 N   0  0  0  0  0  0  0  0  0  0  0  0
  161.3770  206.4400  147.8430 C   0  0  0  0  0  2  0  0  0  0  0  0
  160.7750  203.7410  148.6450 C   0  0  0  0  0  2  0  0  0  0  0  0
  162.1270  205.7230  145.7670 C   0  0  0  0  0  1  0  0  0  0  0  0
  161.6370  204.0920  147.4240 C   0  0  1  0  0  3  0  0  0  0  0  0
  160.4630  206.1980  149.0380 C   0  0  0  0  0  2  0  0  0  0  0  0
  161.4820  202.9590  146.4170 C   0  0  0  0  0  1  0  0  0  0  0  0
  160.8050  204.8540  149.6940 C   0  0  2  0  0  3  0  0  0  0  0  0
  161.6280  209.5740  151.2920 C   0  0  0  0  0  2  0  0  0  0  0  0
  162.0790  209.4940  148.4580 O   0  0  0  0  0  0  0  0  0  0  0  0
  161.9570  210.7160  150.4490 N   0  0  0  0  0  2  0  0  0  0  0  0
  162.1320  210.6130  149.0350 C   0  0  0  0  0  0  0  0  0  0  0  0
  162.3630  211.8450  148.2380 C   0  0  0  0  0  2  0  0  0  0  0  0
  161.1490  212.6420  148.2080 N   0  0  0  0  0  2  0  0  0  0  0  0
  160.7710  212.7710  146.8070 C   0  0  1  0  0  3  0  0  0  0  0  0
  158.3690  212.6640  146.1760 C   0  0  0  0  0  2  0  0  0  0  0  0
  158.4510  212.9970  147.6490 C   0  0  0  0  0  2  0  0  0  0  0  0
  159.4780  213.5640  146.6910 C   0  0  0  0  0  3  0  0  0  0  0  0
  161.8820  213.4710  146.0500 C   0  0  0  0  0  2  0  0  0  0  0  0
  161.4270  213.7790  144.7120 N   0  0  0  0  0  2  0  0  0  0  0  0
  162.2980  213.0730  143.7870 C   0  0  0  0  0  2  0  0  0  0  0  0
  160.1230  212.3280  142.8720 C   0  0  0  0  0  1  0  0  0  0  0  0
  161.5380  212.7370  142.5190 C   0  0  2  0  0  3  0  0  0  0  0  0
  162.1700  211.6870  141.8570 O   0  0  0  0  0  1  0  0  0  0  0  0
  1  5  1  0  0  0  0
  1  7  1  0  0  0  0
  2 14  1  0  0  0  0
  3  4  1  0  0  0  0
  4  2  1  0  0  0  0
  5 31  1  6  0  0  0
  5  3  1  0  0  0  0
  6  2  1  0  0  0  0
  6 13  1  0  0  0  0
  7  6  2  0  0  0  0
  8  7  1  0  0  0  0
 10 11  1  0  0  0  0
 11  9  2  0  0  0  0
 12  9  1  0  0  0  0
 13 10  2  0  0  0  0
 13 12  1  0  0  0  0
 15 14  1  0  0  0  0
 16 17  2  0  0  0  0
 17 15  1  0  0  0  0
 18 19  2  0  0  0  0
 19 16  1  0  0  0  0
 20 21  1  6  0  0  0
 20 18  1  0  0  0  0
 22 20  1  0  0  0  0
 23 27  1  0  0  0  0
 23 24  1  0  0  0  0
 24 28  1  0  0  0  0
 25 30  1  0  0  0  0
 26 23  1  0  0  0  0
 27 29  1  6  0  0  0
 27 25  1  0  0  0  0
 28 30  1  0  0  0  0
 30 22  1  6  0  0  0
 32 34  2  0  0  0  0
 33 31  1  0  0  0  0
 34 33  1  0  0  0  0
 35 34  1  0  0  0  0
 36 35  1  0  0  0  0
 37 41  1  6  0  0  0
 37 36  1  0  0  0  0
 38 40  1  0  0  0  0
 38 39  1  0  0  0  0
 40 37  1  0  0  0  0
 40 39  1  0  0  0  0
 42 41  1  0  0  0  0
 43 42  1  0  0  0  0
 45 44  1  1  0  0  0
 45 43  1  0  0  0  0
 46 45  1  0  0  0  0
M  END
>  <MODEL>
1

>  <REMARK>
 VINA RESULT:      -6.6      0.000      0.000
  Name = 
  18 active torsions:
  status: ('A' for Active; 'I' for Inactive)
    1  A    between atoms: N_3  and  C_20
    2  A    between atoms: N_5  and  C_21
    3  A    between atoms: N_5  and  C_25
    4  A    between atoms: C_6  and  C_21
    5  A    between atoms: C_7  and  C_41
    6  A    between atoms: N_10  and  C_23
    7  A    between atoms: N_10  and  C_37
    8  A    between atoms: N_12  and  C_17
    9  A    between atoms: C_15  and  C_27
   10  A    between atoms: C_15  and  N_33
   11  A    between atoms: C_17  and  C_18
   12  A    between atoms: C_18  and  C_22
   13  A    between atoms: C_20  and  N_24
   14  A    between atoms: C_23  and  C_36
   15  A    between atoms: N_24  and  C_44
   16  A    between atoms: C_25  and  C_37
   17  A    between atoms: C_30  and  C_37
   18  A    between atoms: C_38  and  C_40
                            x       y       z     vdW  Elec       q    Type
                         _______ _______ _______ _____ _____    ______ ____

>  <TORSDO>
F 18

$$$$
=
 OpenBabel11042420553D

 46 49  0  0  1  0  0  0  0  0999 V2000
  160.3890  212.2010  152.1160 C   0  0  0  0  0  2  0  0  0  0  0  0
  160.0030  210.6430  154.6150 N   0  0  0  0  0  0  0  0  0  0  0  0
  161.9140  210.4580  153.0760 C   0  0  0  0  0  2  0  0  0  0  0  0
  161.4250  210.9500  154.4400 C   0  0  0  0  0  2  0  0  0  0  0  0
  160.9260  210.7860  151.9560 C   0  0  2  0  0  3  0  0  0  0  0  0
  158.9910  211.5590  154.1310 C   0  0  0  0  0  0  0  0  0  0  0  0
  159.1530  212.2630  152.9740 C   0  0  0  0  0  0  0  0  0  0  0  0
  158.1640  213.1990  152.5590 N   0  0  0  0  0  1  0  0  0  0  0  0
  156.4000  212.3080  156.4400 C   0  0  0  0  0  3  0  0  0  0  0  0
  156.5670  211.1530  154.6350 N   0  0  0  0  0  0  0  0  0  0  0  0
  155.7200  211.5300  155.5780 N   0  0  0  0  0  2  0  0  0  0  0  0
  157.6880  212.4440  156.0680 N   0  0  0  0  0  0  0  0  0  0  0  0
  157.7510  211.7120  154.9380 C   0  0  0  0  0  0  0  0  0  0  0  0
  159.5800  209.4210  155.3120 C   0  0  0  0  0  2  0  0  0  0  0  0
  160.6630  208.8170  156.1950 C   0  0  0  0  0  2  0  0  0  0  0  0
  160.7390  207.2160  154.3670 C   0  0  0  0  0  3  0  0  0  0  0  0
  161.1990  207.5960  155.5490 C   0  0  0  0  0  3  0  0  0  0  0  0
  161.3560  205.9470  152.4460 N   0  0  0  0  0  0  0  0  0  0  0  0
  161.2730  206.0140  153.7350 C   0  0  0  0  0  3  0  0  0  0  0  0
  161.8900  204.7530  151.8060 C   0  0  1  0  0  3  0  0  0  0  0  0
  160.7330  203.3660  151.9960 S   0  0  0  0  0  1  0  0  0  0  0  0
  162.0980  205.0060  150.3900 N   0  0  0  0  0  2  0  0  0  0  0  0
  161.2650  205.4730  146.8810 N   0  0  0  0  0  0  0  0  0  0  0  0
  161.3910  206.5330  147.8890 C   0  0  0  0  0  2  0  0  0  0  0  0
  160.8190  203.8210  148.6680 C   0  0  0  0  0  2  0  0  0  0  0  0
  162.2050  205.8370  145.8300 C   0  0  0  0  0  1  0  0  0  0  0  0
  161.7040  204.1920  147.4710 C   0  0  1  0  0  3  0  0  0  0  0  0
  160.4530  206.2710  149.0610 C   0  0  0  0  0  2  0  0  0  0  0  0
  161.5950  203.0600  146.4560 C   0  0  0  0  0  1  0  0  0  0  0  0
  160.8030  204.9310  149.7210 C   0  0  2  0  0  3  0  0  0  0  0  0
  161.6110  210.6520  150.6080 C   0  0  0  0  0  2  0  0  0  0  0  0
  162.8930  211.5500  148.2010 O   0  0  0  0  0  0  0  0  0  0  0  0
  161.0730  211.6270  149.6690 N   0  0  0  0  0  2  0  0  0  0  0  0
  161.7470  212.0020  148.4660 C   0  0  0  0  0  0  0  0  0  0  0  0
  161.0790  212.9250  147.5140 C   0  0  0  0  0  2  0  0  0  0  0  0
  162.0730  213.7680  146.8720 N   0  0  0  0  0  2  0  0  0  0  0  0
  161.6020  214.0050  145.5140 C   0  0  1  0  0  3  0  0  0  0  0  0
  162.8060  213.8990  143.3420 C   0  0  0  0  0  2  0  0  0  0  0  0
  163.7860  213.5430  144.4370 C   0  0  0  0  0  2  0  0  0  0  0  0
  162.3430  213.0970  144.5440 C   0  0  0  0  0  3  0  0  0  0  0  0
  160.1120  213.7370  145.4450 C   0  0  0  0  0  2  0  0  0  0  0  0
  159.5500  214.4530  144.3210 N   0  0  0  0  0  2  0  0  0  0  0  0
  158.7460  213.5060  143.5650 C   0  0  0  0  0  2  0  0  0  0  0  0
  158.5380  213.2950  141.1090 C   0  0  0  0  0  1  0  0  0  0  0  0
  159.4690  213.1200  142.2900 C   0  0  2  0  0  3  0  0  0  0  0  0
  159.8740  211.7890  142.3650 O   0  0  0  0  0  1  0  0  0  0  0  0
  1  7  1  0  0  0  0
  2 14  1  0  0  0  0
  3  4  1  0  0  0  0
  4  2  1  0  0  0  0
  5 31  1  6  0  0  0
  5  1  1  0  0  0  0
  5  3  1  0  0  0  0
  6  2  1  0  0  0  0
  6 13  1  0  0  0  0
  7  6  2  0  0  0  0
  8  7  1  0  0  0  0
 10 13  2  0  0  0  0
 10 11  1  0  0  0  0
 11  9  1  0  0  0  0
 12  9  2  0  0  0  0
 13 12  1  0  0  0  0
 14 15  1  0  0  0  0
 16 17  2  0  0  0  0
 17 15  1  0  0  0  0
 18 19  2  0  0  0  0
 19 16  1  0  0  0  0
 20 21  1  6  0  0  0
 20 18  1  0  0  0  0
 22 20  1  0  0  0  0
 23 27  1  0  0  0  0
 23 24  1  0  0  0  0
 24 28  1  0  0  0  0
 25 30  1  0  0  0  0
 26 23  1  0  0  0  0
 27 29  1  6  0  0  0
 27 25  1  0  0  0  0
 28 30  1  0  0  0  0
 30 22  1  6  0  0  0
 32 34  2  0  0  0  0
 33 31  1  0  0  0  0
 34 33  1  0  0  0  0
 35 34  1  0  0  0  0
 36 35  1  0  0  0  0
 37 41  1  1  0  0  0
 37 36  1  0  0  0  0
 38 39  1  0  0  0  0
 38 40  1  0  0  0  0
 39 40  1  0  0  0  0
 40 37  1  0  0  0  0
 42 41  1  0  0  0  0
 43 42  1  0  0  0  0
 45 44  1  6  0  0  0
 45 46  1  0  0  0  0
 45 43  1  0  0  0  0
M  END
>  <MODEL>
2

>  <REMARK>
 VINA RESULT:      -5.9      1.145      1.849
  Name = 
  18 active torsions:
  status: ('A' for Active; 'I' for Inactive)
    1  A    between atoms: N_3  and  C_20
    2  A    between atoms: N_5  and  C_21
    3  A    between atoms: N_5  and  C_25
    4  A    between atoms: C_6  and  C_21
    5  A    between atoms: C_7  and  C_41
    6  A    between atoms: N_10  and  C_23
    7  A    between atoms: N_10  and  C_37
    8  A    between atoms: N_12  and  C_17
    9  A    between atoms: C_15  and  C_27
   10  A    between atoms: C_15  and  N_33
   11  A    between atoms: C_17  and  C_18
   12  A    between atoms: C_18  and  C_22
   13  A    between atoms: C_20  and  N_24
   14  A    between atoms: C_23  and  C_36
   15  A    between atoms: N_24  and  C_44
   16  A    between atoms: C_25  and  C_37
   17  A    between atoms: C_30  and  C_37
   18  A    between atoms: C_38  and  C_40
                            x       y       z     vdW  Elec       q    Type
                         _______ _______ _______ _____ _____    ______ ____

>  <TORSDO>
F 18

$$$$
=
 OpenBabel11042420553D

 46 49  0  0  1  0  0  0  0  0999 V2000
  160.8930  214.1030  143.4130 C   0  0  0  0  0  2  0  0  0  0  0  0
  161.2730  213.2670  146.2370 N   0  0  0  0  0  0  0  0  0  0  0  0
  163.0080  213.3030  144.4930 C   0  0  0  0  0  2  0  0  0  0  0  0
  162.4710  213.9650  145.7640 C   0  0  0  0  0  2  0  0  0  0  0  0
  161.8930  212.9600  143.5050 C   0  0  2  0  0  3  0  0  0  0  0  0
  159.9670  213.6240  145.7230 C   0  0  0  0  0  0  0  0  0  0  0  0
  159.7820  213.9890  144.4220 C   0  0  0  0  0  0  0  0  0  0  0  0
  158.4940  214.3910  143.9670 N   0  0  0  0  0  1  0  0  0  0  0  0
  157.0480  212.9720  147.6380 C   0  0  0  0  0  3  0  0  0  0  0  0
  158.6050  214.4530  147.6610 N   0  0  0  0  0  0  0  0  0  0  0  0
  157.4970  214.0700  148.2730 N   0  0  0  0  0  0  0  0  0  0  0  0
  157.8570  212.6320  146.6130 N   0  0  0  0  0  2  0  0  0  0  0  0
  158.8150  213.5770  146.6640 C   0  0  0  0  0  0  0  0  0  0  0  0
  161.3720  212.2200  147.2620 C   0  0  0  0  0  2  0  0  0  0  0  0
  162.7160  212.1900  147.9760 C   0  0  0  0  0  2  0  0  0  0  0  0
  161.9550  211.0790  150.0010 C   0  0  0  0  0  3  0  0  0  0  0  0
  162.7380  211.0590  148.9340 C   0  0  0  0  0  3  0  0  0  0  0  0
  162.2860  208.7770  150.5200 N   0  0  0  0  0  0  0  0  0  0  0  0
  161.9790  209.9620  150.9380 C   0  0  0  0  0  3  0  0  0  0  0  0
  162.3170  207.6560  151.4490 C   0  0  1  0  0  3  0  0  0  0  0  0
  160.9070  207.7460  152.5900 S   0  0  0  0  0  1  0  0  0  0  0  0
  162.2510  206.4050  150.7120 N   0  0  0  0  0  2  0  0  0  0  0  0
  160.8480  204.2030  148.1810 N   0  0  0  0  0  0  0  0  0  0  0  0
  161.3200  205.5770  147.9670 C   0  0  0  0  0  2  0  0  0  0  0  0
  160.5060  204.6890  150.5830 C   0  0  0  0  0  2  0  0  0  0  0  0
  161.6170  203.3900  147.2480 C   0  0  0  0  0  1  0  0  0  0  0  0
  161.1940  203.7820  149.5530 C   0  0  1  0  0  3  0  0  0  0  0  0
  160.5920  206.5420  148.8940 C   0  0  0  0  0  2  0  0  0  0  0  0
  160.7270  202.3560  149.8200 C   0  0  0  0  0  1  0  0  0  0  0  0
  160.8560  206.1610  150.3570 C   0  0  2  0  0  3  0  0  0  0  0  0
  162.4840  212.6900  142.1330 C   0  0  0  0  0  2  0  0  0  0  0  0
  162.5520  213.5400  139.3910 O   0  0  0  0  0  0  0  0  0  0  0  0
  161.4220  212.4970  141.1550 N   0  0  0  0  0  2  0  0  0  0  0  0
  161.5360  212.9120  139.7920 C   0  0  0  0  0  0  0  0  0  0  0  0
  160.4470  212.5840  138.8370 C   0  0  0  0  0  2  0  0  0  0  0  0
  159.4750  211.7190  139.4830 N   0  0  0  0  0  2  0  0  0  0  0  0
  159.1940  210.6370  138.5490 C   0  0  1  0  0  3  0  0  0  0  0  0
  156.9650  209.5860  138.2260 C   0  0  0  0  0  2  0  0  0  0  0  0
  156.7770  210.8330  139.0600 C   0  0  0  0  0  2  0  0  0  0  0  0
  157.8080  210.8180  137.9500 C   0  0  0  0  0  3  0  0  0  0  0  0
  160.2400  210.6370  137.4530 C   0  0  0  0  0  2  0  0  0  0  0  0
  161.3590  209.8150  137.8610 N   0  0  0  0  0  2  0  0  0  0  0  0
  160.8120  208.6200  138.4810 C   0  0  0  0  0  2  0  0  0  0  0  0
  162.2970  206.6460  138.3370 C   0  0  0  0  0  1  0  0  0  0  0  0
  161.9170  207.8490  139.1740 C   0  0  2  0  0  3  0  0  0  0  0  0
  161.4780  207.4190  140.4250 O   0  0  0  0  0  1  0  0  0  0  0  0
  1  5  1  0  0  0  0
  1  7  1  0  0  0  0
  2 14  1  0  0  0  0
  3  4  1  0  0  0  0
  4  2  1  0  0  0  0
  5 31  1  6  0  0  0
  5  3  1  0  0  0  0
  6  2  1  0  0  0  0
  6 13  1  0  0  0  0
  7  6  2  0  0  0  0
  8  7  1  0  0  0  0
  9 11  2  0  0  0  0
 10 11  1  0  0  0  0
 12 13  1  0  0  0  0
 12  9  1  0  0  0  0
 13 10  2  0  0  0  0
 14 15  1  0  0  0  0
 15 17  1  0  0  0  0
 16 19  1  0  0  0  0
 17 16  2  0  0  0  0
 18 19  2  0  0  0  0
 18 20  1  0  0  0  0
 20 21  1  1  0  0  0
 22 20  1  0  0  0  0
 23 27  1  0  0  0  0
 24 23  1  0  0  0  0
 24 28  1  0  0  0  0
 26 23  1  0  0  0  0
 27 29  1  1  0  0  0
 27 25  1  0  0  0  0
 28 30  1  0  0  0  0
 30 25  1  0  0  0  0
 30 22  1  6  0  0  0
 32 34  2  0  0  0  0
 33 31  1  0  0  0  0
 34 33  1  0  0  0  0
 35 36  1  0  0  0  0
 35 34  1  0  0  0  0
 37 41  1  6  0  0  0
 37 36  1  0  0  0  0
 38 39  1  0  0  0  0
 40 38  1  0  0  0  0
 40 37  1  0  0  0  0
 40 39  1  0  0  0  0
 41 42  1  0  0  0  0
 42 43  1  0  0  0  0
 43 45  1  0  0  0  0
 45 44  1  6  0  0  0
 45 46  1  0  0  0  0
M  END
>  <MODEL>
3

>  <REMARK>
 VINA RESULT:      -5.9      3.864      7.672
  Name = 
  18 active torsions:
  status: ('A' for Active; 'I' for Inactive)
    1  A    between atoms: N_3  and  C_20
    2  A    between atoms: N_5  and  C_21
    3  A    between atoms: N_5  and  C_25
    4  A    between atoms: C_6  and  C_21
    5  A    between atoms: C_7  and  C_41
    6  A    between atoms: N_10  and  C_23
    7  A    between atoms: N_10  and  C_37
    8  A    between atoms: N_12  and  C_17
    9  A    between atoms: C_15  and  C_27
   10  A    between atoms: C_15  and  N_33
   11  A    between atoms: C_17  and  C_18
   12  A    between atoms: C_18  and  C_22
   13  A    between atoms: C_20  and  N_24
   14  A    between atoms: C_23  and  C_36
   15  A    between atoms: N_24  and  C_44
   16  A    between atoms: C_25  and  C_37
   17  A    between atoms: C_30  and  C_37
   18  A    between atoms: C_38  and  C_40
                            x       y       z     vdW  Elec       q    Type
                         _______ _______ _______ _____ _____    ______ ____

>  <TORSDO>
F 18

$$$$
=
 OpenBabel11042420553D

 46 49  0  0  1  0  0  0  0  0999 V2000
  160.2640  214.0150  143.6640 C   0  0  0  0  0  2  0  0  0  0  0  0
  161.0230  213.1910  146.4150 N   0  0  0  0  0  0  0  0  0  0  0  0
  162.4890  213.1600  144.4380 C   0  0  0  0  0  2  0  0  0  0  0  0
  162.1600  213.8490  145.7650 C   0  0  0  0  0  2  0  0  0  0  0  0
  161.2340  212.8440  143.6260 C   0  0  2  0  0  3  0  0  0  0  0  0
  159.6670  213.5830  146.0890 C   0  0  0  0  0  0  0  0  0  0  0  0
  159.3070  213.9430  144.8240 C   0  0  0  0  0  0  0  0  0  0  0  0
  157.9790  214.3800  144.5540 N   0  0  0  0  0  1  0  0  0  0  0  0
  157.0290  213.0420  148.4040 C   0  0  0  0  0  3  0  0  0  0  0  0
  158.6380  214.4530  148.2060 N   0  0  0  0  0  0  0  0  0  0  0  0
  157.6130  214.1140  148.9700 N   0  0  0  0  0  0  0  0  0  0  0  0
  157.6650  212.6760  147.2730 N   0  0  0  0  0  2  0  0  0  0  0  0
  158.6620  213.5780  147.1860 C   0  0  0  0  0  0  0  0  0  0  0  0
  161.2390  212.1500  147.4270 C   0  0  0  0  0  2  0  0  0  0  0  0
  161.9690  212.6460  148.6670 C   0  0  0  0  0  2  0  0  0  0  0  0
  161.7720  210.4260  149.6390 C   0  0  0  0  0  3  0  0  0  0  0  0
  162.5270  211.4880  149.4050 C   0  0  0  0  0  3  0  0  0  0  0  0
  161.5480  208.3360  150.7630 N   0  0  0  0  0  0  0  0  0  0  0  0
  162.3270  209.2890  150.3640 C   0  0  0  0  0  3  0  0  0  0  0  0
  162.0940  207.1950  151.4840 C   0  0  1  0  0  3  0  0  0  0  0  0
  161.0780  206.8300  152.9450 S   0  0  0  0  0  1  0  0  0  0  0  0
  162.1120  206.0290  150.6160 N   0  0  0  0  0  2  0  0  0  0  0  0
  160.8820  204.3000  147.6630 N   0  0  0  0  0  0  0  0  0  0  0  0
  161.2360  205.7230  147.7490 C   0  0  0  0  0  2  0  0  0  0  0  0
  160.5160  204.2400  150.1100 C   0  0  0  0  0  2  0  0  0  0  0  0
  161.7090  203.7690  146.5890 C   0  0  0  0  0  1  0  0  0  0  0  0
  161.2700  203.6300  148.9210 C   0  0  1  0  0  3  0  0  0  0  0  0
  160.4360  206.4080  148.8500 C   0  0  0  0  0  2  0  0  0  0  0  0
  160.9250  202.1460  148.8760 C   0  0  0  0  0  1  0  0  0  0  0  0
  160.7400  205.7510  150.2020 C   0  0  2  0  0  3  0  0  0  0  0  0
  161.6130  212.5450  142.1860 C   0  0  0  0  0  2  0  0  0  0  0  0
  161.3380  212.9110  139.3520 O   0  0  0  0  0  0  0  0  0  0  0  0
  160.4220  212.2510  141.4010 N   0  0  0  0  0  2  0  0  0  0  0  0
  160.3640  212.4210  139.9830 C   0  0  0  0  0  0  0  0  0  0  0  0
  159.1450  211.9990  139.2480 C   0  0  0  0  0  2  0  0  0  0  0  0
  158.9770  210.5610  139.3640 N   0  0  0  0  0  2  0  0  0  0  0  0
  159.4610  209.9840  138.1170 C   0  0  1  0  0  3  0  0  0  0  0  0
  161.5940  208.7700  137.7230 C   0  0  0  0  0  2  0  0  0  0  0  0
  161.4800  209.0450  139.2060 C   0  0  0  0  0  2  0  0  0  0  0  0
  160.2390  208.7090  138.4050 C   0  0  0  0  0  3  0  0  0  0  0  0
  158.2830  209.6830  137.2130 C   0  0  0  0  0  2  0  0  0  0  0  0
  157.1770  209.2060  138.0130 N   0  0  0  0  0  2  0  0  0  0  0  0
  155.9530  209.5820  137.3240 C   0  0  0  0  0  2  0  0  0  0  0  0
  154.3870  209.6060  139.2400 C   0  0  0  0  0  1  0  0  0  0  0  0
  154.7680  208.8860  137.9640 C   0  0  2  0  0  3  0  0  0  0  0  0
  155.1040  207.5660  138.2620 O   0  0  0  0  0  1  0  0  0  0  0  0
  1  7  1  0  0  0  0
  2 14  1  0  0  0  0
  3  4  1  0  0  0  0
  4  2  1  0  0  0  0
  5 31  1  6  0  0  0
  5  1  1  0  0  0  0
  5  3  1  0  0  0  0
  6  2  1  0  0  0  0
  6 13  1  0  0  0  0
  7  6  2  0  0  0  0
  8  7  1  0  0  0  0
  9 11  2  0  0  0  0
 10 11  1  0  0  0  0
 12  9  1  0  0  0  0
 13 12  1  0  0  0  0
 13 10  2  0  0  0  0
 14 15  1  0  0  0  0
 15 17  1  0  0  0  0
 16 19  1  0  0  0  0
 17 16  2  0  0  0  0
 18 20  1  0  0  0  0
 19 18  2  0  0  0  0
 20 21  1  1  0  0  0
 22 20  1  0  0  0  0
 23 24  1  0  0  0  0
 23 27  1  0  0  0  0
 24 28  1  0  0  0  0
 25 30  1  0  0  0  0
 26 23  1  0  0  0  0
 27 29  1  6  0  0  0
 27 25  1  0  0  0  0
 28 30  1  0  0  0  0
 30 22  1  6  0  0  0
 32 34  2  0  0  0  0
 33 31  1  0  0  0  0
 34 33  1  0  0  0  0
 35 36  1  0  0  0  0
 35 34  1  0  0  0  0
 37 41  1  6  0  0  0
 37 40  1  0  0  0  0
 37 36  1  0  0  0  0
 38 40  1  0  0  0  0
 38 39  1  0  0  0  0
 40 39  1  0  0  0  0
 41 42  1  0  0  0  0
 43 45  1  0  0  0  0
 43 42  1  0  0  0  0
 45 46  1  0  0  0  0
 45 44  1  1  0  0  0
M  END
>  <MODEL>
4

>  <REMARK>
 VINA RESULT:      -5.6      3.936      7.796
  Name = 
  18 active torsions:
  status: ('A' for Active; 'I' for Inactive)
    1  A    between atoms: N_3  and  C_20
    2  A    between atoms: N_5  and  C_21
    3  A    between atoms: N_5  and  C_25
    4  A    between atoms: C_6  and  C_21
    5  A    between atoms: C_7  and  C_41
    6  A    between atoms: N_10  and  C_23
    7  A    between atoms: N_10  and  C_37
    8  A    between atoms: N_12  and  C_17
    9  A    between atoms: C_15  and  C_27
   10  A    between atoms: C_15  and  N_33
   11  A    between atoms: C_17  and  C_18
   12  A    between atoms: C_18  and  C_22
   13  A    between atoms: C_20  and  N_24
   14  A    between atoms: C_23  and  C_36
   15  A    between atoms: N_24  and  C_44
   16  A    between atoms: C_25  and  C_37
   17  A    between atoms: C_30  and  C_37
   18  A    between atoms: C_38  and  C_40
                            x       y       z     vdW  Elec       q    Type
                         _______ _______ _______ _____ _____    ______ ____

>  <TORSDO>
F 18

$$$$
=
 OpenBabel11042420553D

 46 49  0  0  1  0  0  0  0  0999 V2000
  161.4290  204.4130  149.0670 C   0  0  0  0  0  2  0  0  0  0  0  0
  161.9690  204.0390  146.1700 N   0  0  0  0  0  0  0  0  0  0  0  0
  162.4170  206.0780  147.4740 C   0  0  0  0  0  2  0  0  0  0  0  0
  163.0240  204.8640  146.7660 C   0  0  0  0  0  2  0  0  0  0  0  0
  161.1880  205.7070  148.3030 C   0  0  2  0  0  3  0  0  0  0  0  0
  161.3080  203.0170  146.9550 C   0  0  0  0  0  0  0  0  0  0  0  0
  161.0390  203.1900  148.2800 C   0  0  0  0  0  0  0  0  0  0  0  0
  160.4410  202.1410  149.0340 N   0  0  0  0  0  1  0  0  0  0  0  0
  160.7710  199.7200  145.7520 C   0  0  0  0  0  3  0  0  0  0  0  0
  160.0700  201.6820  145.2280 N   0  0  0  0  0  0  0  0  0  0  0  0
  159.9750  200.4030  144.9080 N   0  0  0  0  0  2  0  0  0  0  0  0
  161.3860  200.5440  146.6230 N   0  0  0  0  0  0  0  0  0  0  0  0
  160.9210  201.7570  146.2660 C   0  0  0  0  0  0  0  0  0  0  0  0
  161.5890  204.2120  144.7620 C   0  0  0  0  0  2  0  0  0  0  0  0
  160.7800  205.4750  144.4990 C   0  0  0  0  0  2  0  0  0  0  0  0
  161.5520  205.7950  142.2160 C   0  0  0  0  0  3  0  0  0  0  0  0
  161.4480  206.2750  143.4460 C   0  0  0  0  0  3  0  0  0  0  0  0
  161.4980  207.2710  140.3460 N   0  0  0  0  0  0  0  0  0  0  0  0
  162.2090  206.5880  141.1830 C   0  0  0  0  0  3  0  0  0  0  0  0
  162.1440  208.0690  139.3130 C   0  0  1  0  0  3  0  0  0  0  0  0
  162.1380  207.1750  137.7320 S   0  0  0  0  0  1  0  0  0  0  0  0
  161.4360  209.3270  139.1490 N   0  0  0  0  0  2  0  0  0  0  0  0
  161.0510  212.9370  139.3650 N   0  0  0  0  0  0  0  0  0  0  0  0
  162.0910  212.2200  138.6160 C   0  0  0  0  0  2  0  0  0  0  0  0
  160.7470  210.9680  140.8330 C   0  0  0  0  0  2  0  0  0  0  0  0
  160.3850  213.7760  138.3780 C   0  0  0  0  0  1  0  0  0  0  0  0
  160.0690  211.9610  139.8790 C   0  0  1  0  0  3  0  0  0  0  0  0
  162.8710  211.2920  139.5390 C   0  0  0  0  0  2  0  0  0  0  0  0
  158.9640  212.6610  140.6620 C   0  0  0  0  0  1  0  0  0  0  0  0
  161.9240  210.2580  140.1610 C   0  0  2  0  0  3  0  0  0  0  0  0
  160.8710  206.8240  149.2820 C   0  0  0  0  0  2  0  0  0  0  0  0
  162.2850  208.9490  150.5950 O   0  0  0  0  0  0  0  0  0  0  0  0
  161.2000  208.1170  148.6980 N   0  0  0  0  0  2  0  0  0  0  0  0
  161.9420  209.1190  149.3950 C   0  0  0  0  0  0  0  0  0  0  0  0
  162.3230  210.3680  148.6880 C   0  0  0  0  0  2  0  0  0  0  0  0
  161.9080  211.5190  149.4710 N   0  0  0  0  0  2  0  0  0  0  0  0
  161.5320  212.5560  148.5190 C   0  0  1  0  0  3  0  0  0  0  0  0
  159.4700  213.9100  148.8210 C   0  0  0  0  0  2  0  0  0  0  0  0
  159.7870  213.2420  150.1400 C   0  0  0  0  0  2  0  0  0  0  0  0
  160.9140  213.7340  149.2560 C   0  0  0  0  0  3  0  0  0  0  0  0
  162.7610  213.0050  147.7540 C   0  0  0  0  0  2  0  0  0  0  0  0
  162.3580  213.8800  146.6750 N   0  0  0  0  0  2  0  0  0  0  0  0
  162.7300  213.2280  145.4300 C   0  0  0  0  0  2  0  0  0  0  0  0
  160.3540  212.6630  145.0330 C   0  0  0  0  0  1  0  0  0  0  0  0
  161.5840  213.3170  144.4420 C   0  0  2  0  0  3  0  0  0  0  0  0
  161.9310  212.6640  143.2610 O   0  0  0  0  0  1  0  0  0  0  0  0
  2  4  1  0  0  0  0
  2  6  1  0  0  0  0
  3  5  1  0  0  0  0
  4  3  1  0  0  0  0
  5  1  1  0  0  0  0
  5 31  1  1  0  0  0
  6  7  2  0  0  0  0
  7  8  1  0  0  0  0
  7  1  1  0  0  0  0
  9 12  2  0  0  0  0
 10 13  2  0  0  0  0
 11 10  1  0  0  0  0
 11  9  1  0  0  0  0
 13 12  1  0  0  0  0
 13  6  1  0  0  0  0
 14  2  1  0  0  0  0
 15 14  1  0  0  0  0
 16 17  2  0  0  0  0
 17 15  1  0  0  0  0
 18 19  2  0  0  0  0
 19 16  1  0  0  0  0
 20 21  1  6  0  0  0
 20 18  1  0  0  0  0
 22 20  1  0  0  0  0
 23 27  1  0  0  0  0
 24 23  1  0  0  0  0
 24 28  1  0  0  0  0
 26 23  1  0  0  0  0
 27 29  1  1  0  0  0
 27 25  1  0  0  0  0
 28 30  1  0  0  0  0
 30 22  1  6  0  0  0
 30 25  1  0  0  0  0
 33 31  1  0  0  0  0
 33 34  1  0  0  0  0
 34 32  2  0  0  0  0
 35 34  1  0  0  0  0
 35 36  1  0  0  0  0
 37 41  1  1  0  0  0
 37 40  1  0  0  0  0
 37 36  1  0  0  0  0
 38 40  1  0  0  0  0
 38 39  1  0  0  0  0
 40 39  1  0  0  0  0
 42 41  1  0  0  0  0
 43 42  1  0  0  0  0
 45 44  1  1  0  0  0
 45 43  1  0  0  0  0
 46 45  1  0  0  0  0
M  END
>  <MODEL>
5

>  <REMARK>
 VINA RESULT:      -5.4      4.606      9.849
  Name = 
  18 active torsions:
  status: ('A' for Active; 'I' for Inactive)
    1  A    between atoms: N_3  and  C_20
    2  A    between atoms: N_5  and  C_21
    3  A    between atoms: N_5  and  C_25
    4  A    between atoms: C_6  and  C_21
    5  A    between atoms: C_7  and  C_41
    6  A    between atoms: N_10  and  C_23
    7  A    between atoms: N_10  and  C_37
    8  A    between atoms: N_12  and  C_17
    9  A    between atoms: C_15  and  C_27
   10  A    between atoms: C_15  and  N_33
   11  A    between atoms: C_17  and  C_18
   12  A    between atoms: C_18  and  C_22
   13  A    between atoms: C_20  and  N_24
   14  A    between atoms: C_23  and  C_36
   15  A    between atoms: N_24  and  C_44
   16  A    between atoms: C_25  and  C_37
   17  A    between atoms: C_30  and  C_37
   18  A    between atoms: C_38  and  C_40
                            x       y       z     vdW  Elec       q    Type
                         _______ _______ _______ _____ _____    ______ ____

>  <TORSDO>
F 18

$$$$
=
 OpenBabel11042420553D

 46 49  0  0  1  0  0  0  0  0999 V2000
  161.2630  204.9240  149.1760 C   0  0  0  0  0  2  0  0  0  0  0  0
  162.1410  204.0710  146.4700 N   0  0  0  0  0  0  0  0  0  0  0  0
  162.3290  206.3400  147.4040 C   0  0  0  0  0  2  0  0  0  0  0  0
  163.0760  205.0660  147.0010 C   0  0  0  0  0  2  0  0  0  0  0  0
  161.0370  206.0360  148.1620 C   0  0  2  0  0  3  0  0  0  0  0  0
  161.4540  203.1620  147.3640 C   0  0  0  0  0  0  0  0  0  0  0  0
  161.0300  203.5530  148.5990 C   0  0  0  0  0  0  0  0  0  0  0  0
  160.4100  202.6160  149.4740 N   0  0  0  0  0  1  0  0  0  0  0  0
  161.2500  199.6710  146.7470 C   0  0  0  0  0  3  0  0  0  0  0  0
  160.4660  201.4460  145.8220 N   0  0  0  0  0  0  0  0  0  0  0  0
  160.4870  200.1270  145.7360 N   0  0  0  0  0  2  0  0  0  0  0  0
  161.7280  200.6850  147.4970 N   0  0  0  0  0  0  0  0  0  0  0  0
  161.2150  201.7730  146.8890 C   0  0  0  0  0  0  0  0  0  0  0  0
  161.9110  203.9570  145.0240 C   0  0  0  0  0  2  0  0  0  0  0  0
  160.7200  204.7660  144.5300 C   0  0  0  0  0  2  0  0  0  0  0  0
  161.5710  205.5780  142.4020 C   0  0  0  0  0  3  0  0  0  0  0  0
  161.1990  205.8520  143.6430 C   0  0  0  0  0  3  0  0  0  0  0  0
  161.8110  206.5970  140.2610 N   0  0  0  0  0  0  0  0  0  0  0  0
  162.0400  206.6520  141.5330 C   0  0  0  0  0  3  0  0  0  0  0  0
  162.2710  207.6660  139.3860 C   0  0  1  0  0  3  0  0  0  0  0  0
  162.3150  207.0930  137.6630 S   0  0  0  0  0  1  0  0  0  0  0  0
  161.3710  208.8030  139.4840 N   0  0  0  0  0  2  0  0  0  0  0  0
  160.7170  212.3090  140.1930 N   0  0  0  0  0  0  0  0  0  0  0  0
  160.1080  211.5150  139.1180 C   0  0  0  0  0  2  0  0  0  0  0  0
  162.6380  210.7510  140.2620 C   0  0  0  0  0  2  0  0  0  0  0  0
  159.5940  212.8200  140.9680 C   0  0  0  0  0  1  0  0  0  0  0  0
  161.5100  211.4170  141.0620 C   0  0  1  0  0  3  0  0  0  0  0  0
  161.1840  210.9120  138.2240 C   0  0  0  0  0  2  0  0  0  0  0  0
  162.1590  212.1980  142.1990 C   0  0  0  0  0  1  0  0  0  0  0  0
  162.0950  209.9940  139.0490 C   0  0  2  0  0  3  0  0  0  0  0  0
  160.5530  207.2850  148.8770 C   0  0  0  0  0  2  0  0  0  0  0  0
  162.3180  209.1290  150.1910 O   0  0  0  0  0  0  0  0  0  0  0  0
  160.9360  207.2440  150.2820 N   0  0  0  0  0  2  0  0  0  0  0  0
  161.7910  208.2180  150.8830 C   0  0  0  0  0  0  0  0  0  0  0  0
  162.0470  208.1590  152.3450 C   0  0  0  0  0  2  0  0  0  0  0  0
  160.8040  207.8960  153.0480 N   0  0  0  0  0  2  0  0  0  0  0  0
  160.7450  208.8390  154.1570 C   0  0  1  0  0  3  0  0  0  0  0  0
  159.9110  208.2310  156.4180 C   0  0  0  0  0  2  0  0  0  0  0  0
  160.1470  206.9520  155.6480 C   0  0  0  0  0  2  0  0  0  0  0  0
  161.0820  208.1280  155.4580 C   0  0  0  0  0  3  0  0  0  0  0  0
  161.7260  209.9670  153.9090 C   0  0  0  0  0  2  0  0  0  0  0  0
  161.0870  211.2290  154.2080 N   0  0  0  0  0  2  0  0  0  0  0  0
  159.9320  211.3460  153.3340 C   0  0  0  0  0  2  0  0  0  0  0  0
  157.6760  212.1480  153.9580 C   0  0  0  0  0  1  0  0  0  0  0  0
  159.1140  212.5610  153.7220 C   0  0  2  0  0  3  0  0  0  0  0  0
  159.1600  213.5050  152.6990 O   0  0  0  0  0  1  0  0  0  0  0  0
  2  4  1  0  0  0  0
  2  6  1  0  0  0  0
  3  5  1  0  0  0  0
  4  3  1  0  0  0  0
  5 31  1  1  0  0  0
  5  1  1  0  0  0  0
  6  7  2  0  0  0  0
  7  1  1  0  0  0  0
  7  8  1  0  0  0  0
  9 12  2  0  0  0  0
 10 13  2  0  0  0  0
 11 10  1  0  0  0  0
 11  9  1  0  0  0  0
 13  6  1  0  0  0  0
 13 12  1  0  0  0  0
 14  2  1  0  0  0  0
 15 14  1  0  0  0  0
 16 17  2  0  0  0  0
 17 15  1  0  0  0  0
 18 19  2  0  0  0  0
 19 16  1  0  0  0  0
 20 21  1  6  0  0  0
 20 22  1  0  0  0  0
 20 18  1  0  0  0  0
 23 26  1  0  0  0  0
 23 27  1  0  0  0  0
 24 23  1  0  0  0  0
 25 27  1  0  0  0  0
 27 29  1  1  0  0  0
 28 30  1  0  0  0  0
 28 24  1  0  0  0  0
 30 22  1  1  0  0  0
 30 25  1  0  0  0  0
 31 33  1  0  0  0  0
 32 34  2  0  0  0  0
 33 34  1  0  0  0  0
 34 35  1  0  0  0  0
 35 36  1  0  0  0  0
 36 37  1  0  0  0  0
 37 41  1  6  0  0  0
 37 40  1  0  0  0  0
 39 38  1  0  0  0  0
 40 39  1  0  0  0  0
 40 38  1  0  0  0  0
 41 42  1  0  0  0  0
 43 45  1  0  0  0  0
 43 42  1  0  0  0  0
 45 44  1  6  0  0  0
 46 45  1  0  0  0  0
M  END
>  <MODEL>
6

>  <REMARK>
 VINA RESULT:      -5.3      3.857     10.764
  Name = 
  18 active torsions:
  status: ('A' for Active; 'I' for Inactive)
    1  A    between atoms: N_3  and  C_20
    2  A    between atoms: N_5  and  C_21
    3  A    between atoms: N_5  and  C_25
    4  A    between atoms: C_6  and  C_21
    5  A    between atoms: C_7  and  C_41
    6  A    between atoms: N_10  and  C_23
    7  A    between atoms: N_10  and  C_37
    8  A    between atoms: N_12  and  C_17
    9  A    between atoms: C_15  and  C_27
   10  A    between atoms: C_15  and  N_33
   11  A    between atoms: C_17  and  C_18
   12  A    between atoms: C_18  and  C_22
   13  A    between atoms: C_20  and  N_24
   14  A    between atoms: C_23  and  C_36
   15  A    between atoms: N_24  and  C_44
   16  A    between atoms: C_25  and  C_37
   17  A    between atoms: C_30  and  C_37
   18  A    between atoms: C_38  and  C_40
                            x       y       z     vdW  Elec       q    Type
                         _______ _______ _______ _____ _____    ______ ____

>  <TORSDO>
F 18

$$$$
=
 OpenBabel11042420553D

 46 49  0  0  1  0  0  0  0  0999 V2000
  160.2350  211.1650  152.1680 C   0  0  0  0  0  2  0  0  0  0  0  0
  160.6450  210.3760  155.0020 N   0  0  0  0  0  0  0  0  0  0  0  0
  162.2010  209.9540  153.1430 C   0  0  0  0  0  2  0  0  0  0  0  0
  161.9260  210.7690  154.4090 C   0  0  0  0  0  2  0  0  0  0  0  0
  160.9630  209.8320  152.2550 C   0  0  2  0  0  3  0  0  0  0  0  0
  159.4130  210.9960  154.5600 C   0  0  0  0  0  0  0  0  0  0  0  0
  159.2100  211.3430  153.2570 C   0  0  0  0  0  0  0  0  0  0  0  0
  158.0110  212.0050  152.8690 N   0  0  0  0  0  1  0  0  0  0  0  0
  156.5730  211.1050  156.6880 C   0  0  0  0  0  3  0  0  0  0  0  0
  158.4440  212.1560  156.5630 N   0  0  0  0  0  0  0  0  0  0  0  0
  157.3240  212.0650  157.2600 N   0  0  0  0  0  0  0  0  0  0  0  0
  157.1950  210.5650  155.6210 N   0  0  0  0  0  2  0  0  0  0  0  0
  158.3580  211.2450  155.5780 C   0  0  0  0  0  0  0  0  0  0  0  0
  160.5910  209.3740  156.0740 C   0  0  0  0  0  2  0  0  0  0  0  0
  159.5730  208.2700  155.8270 C   0  0  0  0  0  2  0  0  0  0  0  0
  161.1740  207.3830  154.2270 C   0  0  0  0  0  3  0  0  0  0  0  0
  160.2320  207.1430  155.1250 C   0  0  0  0  0  3  0  0  0  0  0  0
  161.1330  205.5200  152.7410 N   0  0  0  0  0  0  0  0  0  0  0  0
  161.8200  206.2690  153.5410 C   0  0  0  0  0  3  0  0  0  0  0  0
  161.7700  204.4090  152.0490 C   0  0  1  0  0  3  0  0  0  0  0  0
  160.6760  202.9580  152.0480 S   0  0  0  0  0  1  0  0  0  0  0  0
  162.0570  204.7860  150.6740 N   0  0  0  0  0  2  0  0  0  0  0  0
  161.4590  204.9650  147.0920 N   0  0  0  0  0  0  0  0  0  0  0  0
  161.6920  206.1040  147.9890 C   0  0  0  0  0  2  0  0  0  0  0  0
  160.6980  203.6040  149.0130 C   0  0  0  0  0  2  0  0  0  0  0  0
  162.4880  205.0730  146.0680 C   0  0  0  0  0  1  0  0  0  0  0  0
  161.6800  203.7100  147.8390 C   0  0  1  0  0  3  0  0  0  0  0  0
  160.6740  206.1100  149.1230 C   0  0  0  0  0  2  0  0  0  0  0  0
  161.4530  202.4970  146.9450 C   0  0  0  0  0  1  0  0  0  0  0  0
  160.7960  204.8170  149.9400 C   0  0  2  0  0  3  0  0  0  0  0  0
  161.3690  209.3830  150.8630 C   0  0  0  0  0  2  0  0  0  0  0  0
  162.3470  209.2770  148.1650 O   0  0  0  0  0  0  0  0  0  0  0  0
  161.8790  210.5120  150.0960 N   0  0  0  0  0  2  0  0  0  0  0  0
  162.3160  210.3980  148.7410 C   0  0  0  0  0  0  0  0  0  0  0  0
  162.7230  211.6190  148.0010 C   0  0  0  0  0  2  0  0  0  0  0  0
  161.5850  212.1510  147.2730 N   0  0  0  0  0  2  0  0  0  0  0  0
  161.7500  213.5990  147.2420 C   0  0  1  0  0  3  0  0  0  0  0  0
  162.7340  214.4520  145.1250 C   0  0  0  0  0  2  0  0  0  0  0  0
  161.9960  213.1690  144.8130 C   0  0  0  0  0  2  0  0  0  0  0  0
  161.4410  214.1250  145.8490 C   0  0  0  0  0  3  0  0  0  0  0  0
  160.8210  214.2320  148.2570 C   0  0  0  0  0  2  0  0  0  0  0  0
  159.5500  213.5440  148.2360 N   0  0  0  0  0  2  0  0  0  0  0  0
  158.7320  214.1140  149.2940 C   0  0  0  0  0  2  0  0  0  0  0  0
  156.4300  214.0640  150.1990 C   0  0  0  0  0  1  0  0  0  0  0  0
  157.2650  213.9810  148.9390 C   0  0  2  0  0  3  0  0  0  0  0  0
  157.0410  212.7540  148.3180 O   0  0  0  0  0  1  0  0  0  0  0  0
  1  5  1  0  0  0  0
  1  7  1  0  0  0  0
  2 14  1  0  0  0  0
  3  4  1  0  0  0  0
  4  2  1  0  0  0  0
  5 31  1  6  0  0  0
  5  3  1  0  0  0  0
  6  2  1  0  0  0  0
  6 13  1  0  0  0  0
  7  6  2  0  0  0  0
  8  7  1  0  0  0  0
  9 11  2  0  0  0  0
 10 11  1  0  0  0  0
 12  9  1  0  0  0  0
 13 12  1  0  0  0  0
 13 10  2  0  0  0  0
 15 14  1  0  0  0  0
 16 17  2  0  0  0  0
 17 15  1  0  0  0  0
 18 19  2  0  0  0  0
 19 16  1  0  0  0  0
 20 21  1  6  0  0  0
 20 18  1  0  0  0  0
 22 20  1  0  0  0  0
 23 27  1  0  0  0  0
 23 24  1  0  0  0  0
 24 28  1  0  0  0  0
 25 30  1  0  0  0  0
 26 23  1  0  0  0  0
 27 29  1  6  0  0  0
 27 25  1  0  0  0  0
 28 30  1  0  0  0  0
 30 22  1  6  0  0  0
 32 34  2  0  0  0  0
 33 31  1  0  0  0  0
 34 33  1  0  0  0  0
 35 34  1  0  0  0  0
 36 35  1  0  0  0  0
 37 36  1  0  0  0  0
 37 41  1  1  0  0  0
 38 40  1  0  0  0  0
 39 38  1  0  0  0  0
 39 40  1  0  0  0  0
 40 37  1  0  0  0  0
 42 41  1  0  0  0  0
 42 43  1  0  0  0  0
 45 43  1  0  0  0  0
 45 44  1  1  0  0  0
 46 45  1  0  0  0  0
M  END
>  <MODEL>
7

>  <REMARK>
 VINA RESULT:      -5.1      1.510      2.723
  Name = 
  18 active torsions:
  status: ('A' for Active; 'I' for Inactive)
    1  A    between atoms: N_3  and  C_20
    2  A    between atoms: N_5  and  C_21
    3  A    between atoms: N_5  and  C_25
    4  A    between atoms: C_6  and  C_21
    5  A    between atoms: C_7  and  C_41
    6  A    between atoms: N_10  and  C_23
    7  A    between atoms: N_10  and  C_37
    8  A    between atoms: N_12  and  C_17
    9  A    between atoms: C_15  and  C_27
   10  A    between atoms: C_15  and  N_33
   11  A    between atoms: C_17  and  C_18
   12  A    between atoms: C_18  and  C_22
   13  A    between atoms: C_20  and  N_24
   14  A    between atoms: C_23  and  C_36
   15  A    between atoms: N_24  and  C_44
   16  A    between atoms: C_25  and  C_37
   17  A    between atoms: C_30  and  C_37
   18  A    between atoms: C_38  and  C_40
                            x       y       z     vdW  Elec       q    Type
                         _______ _______ _______ _____ _____    ______ ____

>  <TORSDO>
F 18

$$$$
=
 OpenBabel11042420553D

 46 49  0  0  1  0  0  0  0  0999 V2000
  160.5150  214.0520  143.3230 C   0  0  0  0  0  2  0  0  0  0  0  0
  161.1200  212.9550  146.0160 N   0  0  0  0  0  0  0  0  0  0  0  0
  162.6630  213.0220  144.1000 C   0  0  0  0  0  2  0  0  0  0  0  0
  162.3130  213.6090  145.4700 C   0  0  0  0  0  2  0  0  0  0  0  0
  161.4290  212.8410  143.2170 C   0  0  2  0  0  3  0  0  0  0  0  0
  159.7990  213.4420  145.6760 C   0  0  0  0  0  0  0  0  0  0  0  0
  159.5080  213.9280  144.4360 C   0  0  0  0  0  0  0  0  0  0  0  0
  158.2150  214.4530  144.1560 N   0  0  0  0  0  1  0  0  0  0  0  0
  157.0810  212.7960  147.8680 C   0  0  0  0  0  3  0  0  0  0  0  0
  158.6640  214.2460  147.7650 N   0  0  0  0  0  0  0  0  0  0  0  0
  157.6170  213.8690  148.4790 N   0  0  0  0  0  0  0  0  0  0  0  0
  157.7710  212.4670  146.7580 N   0  0  0  0  0  2  0  0  0  0  0  0
  158.7500  213.3920  146.7300 C   0  0  0  0  0  0  0  0  0  0  0  0
  161.2440  211.8200  146.9390 C   0  0  0  0  0  2  0  0  0  0  0  0
  161.7450  212.2110  148.3220 C   0  0  0  0  0  2  0  0  0  0  0  0
  162.0100  211.0980  150.4680 C   0  0  0  0  0  3  0  0  0  0  0  0
  161.8910  210.9930  149.1540 C   0  0  0  0  0  3  0  0  0  0  0  0
  162.1810  208.7330  150.7130 N   0  0  0  0  0  0  0  0  0  0  0  0
  162.1510  209.8950  151.2810 C   0  0  0  0  0  3  0  0  0  0  0  0
  162.3260  207.5270  151.5150 C   0  0  1  0  0  3  0  0  0  0  0  0
  160.9900  207.4240  152.7420 S   0  0  0  0  0  1  0  0  0  0  0  0
  162.2710  206.3560  150.6560 N   0  0  0  0  0  2  0  0  0  0  0  0
  160.8280  204.0420  148.2510 N   0  0  0  0  0  0  0  0  0  0  0  0
  161.2770  205.4120  147.9720 C   0  0  0  0  0  2  0  0  0  0  0  0
  160.5450  204.6170  150.6410 C   0  0  0  0  0  2  0  0  0  0  0  0
  161.5810  203.2030  147.3290 C   0  0  0  0  0  1  0  0  0  0  0  0
  161.2160  203.6790  149.6290 C   0  0  1  0  0  3  0  0  0  0  0  0
  160.5630  206.4050  148.8810 C   0  0  0  0  0  2  0  0  0  0  0  0
  160.7730  202.2590  149.9620 C   0  0  0  0  0  1  0  0  0  0  0  0
  160.8710  206.0830  150.3490 C   0  0  2  0  0  3  0  0  0  0  0  0
  161.8530  212.6500  141.7710 C   0  0  0  0  0  2  0  0  0  0  0  0
  160.8300  213.9450  139.4230 O   0  0  0  0  0  0  0  0  0  0  0  0
  160.7250  212.1950  140.9700 N   0  0  0  0  0  2  0  0  0  0  0  0
  160.2900  212.8670  139.7870 C   0  0  0  0  0  0  0  0  0  0  0  0
  159.1970  212.2770  138.9730 C   0  0  0  0  0  2  0  0  0  0  0  0
  157.9680  212.2560  139.7470 N   0  0  0  0  0  2  0  0  0  0  0  0
  156.9110  211.8330  138.8380 C   0  0  1  0  0  3  0  0  0  0  0  0
  156.8900  209.6530  137.6450 C   0  0  0  0  0  2  0  0  0  0  0  0
  157.9630  209.5930  138.7090 C   0  0  0  0  0  2  0  0  0  0  0  0
  156.6730  210.3380  138.9820 C   0  0  0  0  0  3  0  0  0  0  0  0
  155.6410  212.5970  139.1540 C   0  0  0  0  0  2  0  0  0  0  0  0
  154.5570  211.6600  139.3480 N   0  0  0  0  0  2  0  0  0  0  0  0
  153.6970  212.2040  140.3870 C   0  0  0  0  0  2  0  0  0  0  0  0
  153.4890  214.1860  141.8540 C   0  0  0  0  0  1  0  0  0  0  0  0
  153.8820  213.7060  140.4730 C   0  0  2  0  0  3  0  0  0  0  0  0
  153.0810  214.3330  139.5220 O   0  0  0  0  0  1  0  0  0  0  0  0
  1  7  1  0  0  0  0
  2 14  1  0  0  0  0
  3  4  1  0  0  0  0
  4  2  1  0  0  0  0
  5 31  1  6  0  0  0
  5  1  1  0  0  0  0
  5  3  1  0  0  0  0
  6  2  1  0  0  0  0
  6 13  1  0  0  0  0
  7  6  2  0  0  0  0
  8  7  1  0  0  0  0
  9 11  2  0  0  0  0
 10 11  1  0  0  0  0
 12  9  1  0  0  0  0
 13 12  1  0  0  0  0
 13 10  2  0  0  0  0
 14 15  1  0  0  0  0
 15 17  1  0  0  0  0
 16 19  1  0  0  0  0
 17 16  2  0  0  0  0
 18 19  2  0  0  0  0
 18 20  1  0  0  0  0
 20 21  1  1  0  0  0
 22 20  1  0  0  0  0
 23 27  1  0  0  0  0
 24 23  1  0  0  0  0
 24 28  1  0  0  0  0
 26 23  1  0  0  0  0
 27 29  1  1  0  0  0
 27 25  1  0  0  0  0
 28 30  1  0  0  0  0
 30 25  1  0  0  0  0
 30 22  1  6  0  0  0
 32 34  2  0  0  0  0
 33 31  1  0  0  0  0
 34 33  1  0  0  0  0
 35 36  1  0  0  0  0
 35 34  1  0  0  0  0
 37 40  1  0  0  0  0
 37 41  1  1  0  0  0
 37 36  1  0  0  0  0
 38 39  1  0  0  0  0
 38 40  1  0  0  0  0
 39 40  1  0  0  0  0
 41 42  1  0  0  0  0
 42 43  1  0  0  0  0
 43 45  1  0  0  0  0
 45 44  1  1  0  0  0
 46 45  1  0  0  0  0
M  END
>  <MODEL>
8

>  <REMARK>
 VINA RESULT:      -5.0      3.874      7.900
  Name = 
  18 active torsions:
  status: ('A' for Active; 'I' for Inactive)
    1  A    between atoms: N_3  and  C_20
    2  A    between atoms: N_5  and  C_21
    3  A    between atoms: N_5  and  C_25
    4  A    between atoms: C_6  and  C_21
    5  A    between atoms: C_7  and  C_41
    6  A    between atoms: N_10  and  C_23
    7  A    between atoms: N_10  and  C_37
    8  A    between atoms: N_12  and  C_17
    9  A    between atoms: C_15  and  C_27
   10  A    between atoms: C_15  and  N_33
   11  A    between atoms: C_17  and  C_18
   12  A    between atoms: C_18  and  C_22
   13  A    between atoms: C_20  and  N_24
   14  A    between atoms: C_23  and  C_36
   15  A    between atoms: N_24  and  C_44
   16  A    between atoms: C_25  and  C_37
   17  A    between atoms: C_30  and  C_37
   18  A    between atoms: C_38  and  C_40
                            x       y       z     vdW  Elec       q    Type
                         _______ _______ _______ _____ _____    ______ ____

>  <TORSDO>
F 18

$$$$
=
 OpenBabel11042420553D

 46 49  0  0  1  0  0  0  0  0999 V2000
  161.1280  214.1450  143.7980 C   0  0  0  0  0  2  0  0  0  0  0  0
  161.1020  213.0500  146.5590 N   0  0  0  0  0  0  0  0  0  0  0  0
  163.0610  213.1890  145.0760 C   0  0  0  0  0  2  0  0  0  0  0  0
  162.3660  213.7520  146.3180 C   0  0  0  0  0  2  0  0  0  0  0  0
  162.0860  212.9700  143.9190 C   0  0  2  0  0  3  0  0  0  0  0  0
  159.8850  213.4900  145.9070 C   0  0  0  0  0  0  0  0  0  0  0  0
  159.8870  213.9750  144.6330 C   0  0  0  0  0  0  0  0  0  0  0  0
  158.6810  214.4530  144.0460 N   0  0  0  0  0  1  0  0  0  0  0  0
  157.1060  213.7420  148.1030 C   0  0  0  0  0  3  0  0  0  0  0  0
  157.6070  212.5520  146.3850 N   0  0  0  0  0  0  0  0  0  0  0  0
  156.6600  212.7740  147.2810 N   0  0  0  0  0  2  0  0  0  0  0  0
  158.3400  214.1560  147.7510 N   0  0  0  0  0  0  0  0  0  0  0  0
  158.6150  213.3930  146.6750 C   0  0  0  0  0  0  0  0  0  0  0  0
  161.0410  211.9140  147.4860 C   0  0  0  0  0  2  0  0  0  0  0  0
  162.3430  211.6660  148.2350 C   0  0  0  0  0  2  0  0  0  0  0  0
  162.3520  209.9870  149.9930 C   0  0  0  0  0  3  0  0  0  0  0  0
  162.0390  211.2160  149.6140 C   0  0  0  0  0  3  0  0  0  0  0  0
  160.9630  208.8940  151.5930 N   0  0  0  0  0  0  0  0  0  0  0  0
  162.0510  209.5500  151.3520 C   0  0  0  0  0  3  0  0  0  0  0  0
  160.6570  208.4500  152.9450 C   0  0  1  0  0  3  0  0  0  0  0  0
  161.1980  206.7330  153.1810 S   0  0  0  0  0  1  0  0  0  0  0  0
  161.3410  209.2990  153.9070 N   0  0  0  0  0  2  0  0  0  0  0  0
  160.1510  211.3710  156.6480 N   0  0  0  0  0  0  0  0  0  0  0  0
  161.5540  211.0710  156.3350 C   0  0  0  0  0  2  0  0  0  0  0  0
  159.4430  209.3210  155.4560 C   0  0  0  0  0  2  0  0  0  0  0  0
  160.0630  212.8250  156.6320 C   0  0  0  0  0  1  0  0  0  0  0  0
  159.2930  210.8450  155.5660 C   0  0  1  0  0  3  0  0  0  0  0  0
  161.7870  209.5650  156.3160 C   0  0  0  0  0  2  0  0  0  0  0  0
  157.8240  211.1380  155.8450 C   0  0  0  0  0  1  0  0  0  0  0  0
  160.9020  208.9140  155.2440 C   0  0  2  0  0  3  0  0  0  0  0  0
  162.8560  212.8050  142.6200 C   0  0  0  0  0  2  0  0  0  0  0  0
  162.9390  213.3560  139.8040 O   0  0  0  0  0  0  0  0  0  0  0  0
  162.0100  212.1900  141.6070 N   0  0  0  0  0  2  0  0  0  0  0  0
  162.1290  212.4820  140.2130 C   0  0  0  0  0  0  0  0  0  0  0  0
  161.2970  211.7330  139.2380 C   0  0  0  0  0  2  0  0  0  0  0  0
  160.9750  210.4230  139.7760 N   0  0  0  0  0  2  0  0  0  0  0  0
  160.9330  209.5070  138.6430 C   0  0  1  0  0  3  0  0  0  0  0  0
  161.9410  207.2380  138.5300 C   0  0  0  0  0  2  0  0  0  0  0  0
  162.0630  207.7320  139.9530 C   0  0  0  0  0  2  0  0  0  0  0  0
  160.8310  208.0740  139.1410 C   0  0  0  0  0  3  0  0  0  0  0  0
  159.7410  209.8420  137.7700 C   0  0  0  0  0  2  0  0  0  0  0  0
  158.5790  209.1290  138.2540 N   0  0  0  0  0  2  0  0  0  0  0  0
  157.5350  209.2750  137.2530 C   0  0  0  0  0  2  0  0  0  0  0  0
  155.1220  208.7380  137.1630 C   0  0  0  0  0  1  0  0  0  0  0  0
  156.1960  209.4780  137.9320 C   0  0  2  0  0  3  0  0  0  0  0  0
  155.8870  210.8360  137.9660 O   0  0  0  0  0  1  0  0  0  0  0  0
  1  5  1  0  0  0  0
  1  7  1  0  0  0  0
  2 14  1  0  0  0  0
  3  4  1  0  0  0  0
  4  2  1  0  0  0  0
  5 31  1  6  0  0  0
  5  3  1  0  0  0  0
  6  2  1  0  0  0  0
  6 13  1  0  0  0  0
  7  6  2  0  0  0  0
  8  7  1  0  0  0  0
 10 13  2  0  0  0  0
 10 11  1  0  0  0  0
 11  9  1  0  0  0  0
 12  9  2  0  0  0  0
 13 12  1  0  0  0  0
 14 15  1  0  0  0  0
 15 17  1  0  0  0  0
 16 19  1  0  0  0  0
 17 16  2  0  0  0  0
 18 20  1  0  0  0  0
 19 18  2  0  0  0  0
 20 21  1  6  0  0  0
 20 22  1  0  0  0  0
 24 23  1  0  0  0  0
 25 27  1  0  0  0  0
 26 23  1  0  0  0  0
 27 29  1  1  0  0  0
 27 23  1  0  0  0  0
 28 24  1  0  0  0  0
 30 22  1  6  0  0  0
 30 25  1  0  0  0  0
 30 28  1  0  0  0  0
 32 34  2  0  0  0  0
 33 31  1  0  0  0  0
 34 33  1  0  0  0  0
 35 36  1  0  0  0  0
 35 34  1  0  0  0  0
 37 41  1  6  0  0  0
 37 40  1  0  0  0  0
 37 36  1  0  0  0  0
 38 40  1  0  0  0  0
 38 39  1  0  0  0  0
 40 39  1  0  0  0  0
 41 42  1  0  0  0  0
 43 45  1  0  0  0  0
 43 42  1  0  0  0  0
 45 44  1  6  0  0  0
 45 46  1  0  0  0  0
M  END
>  <MODEL>
9

>  <REMARK>
 VINA RESULT:      -4.7      3.784      8.842
  Name = 
  18 active torsions:
  status: ('A' for Active; 'I' for Inactive)
    1  A    between atoms: N_3  and  C_20
    2  A    between atoms: N_5  and  C_21
    3  A    between atoms: N_5  and  C_25
    4  A    between atoms: C_6  and  C_21
    5  A    between atoms: C_7  and  C_41
    6  A    between atoms: N_10  and  C_23
    7  A    between atoms: N_10  and  C_37
    8  A    between atoms: N_12  and  C_17
    9  A    between atoms: C_15  and  C_27
   10  A    between atoms: C_15  and  N_33
   11  A    between atoms: C_17  and  C_18
   12  A    between atoms: C_18  and  C_22
   13  A    between atoms: C_20  and  N_24
   14  A    between atoms: C_23  and  C_36
   15  A    between atoms: N_24  and  C_44
   16  A    between atoms: C_25  and  C_37
   17  A    between atoms: C_30  and  C_37
   18  A    between atoms: C_38  and  C_40
                            x       y       z     vdW  Elec       q    Type
                         _______ _______ _______ _____ _____    ______ ____

>  <TORSDO>
F 18

$$$$
