=
 OpenBabel11042422553D

 62 65  0  0  1  0  0  0  0  0999 V2000
  161.1350  207.1280  151.2790 C   0  0  0  0  0  0  0  0  0  0  0  0
  160.5330  207.1760  150.1700 O   0  0  0  0  0  0  0  0  0  0  0  0
  162.0470  208.1740  151.6300 N   0  0  0  0  0  2  0  0  0  0  0  0
  161.3250  212.4920  149.3290 N   0  0  0  0  0  2  0  0  0  0  0  0
  161.7770  210.2400  148.6980 N   0  0  0  0  0  0  0  0  0  0  0  0
  162.0770  208.9450  149.2700 C   0  0  0  0  0  2  0  0  0  0  0  0
  161.5620  211.1100  149.6250 C   0  0  0  0  0  0  0  0  0  0  0  0
  162.4240  209.2560  150.7110 C   0  0  1  0  0  3  0  0  0  0  0  0
  161.7490  210.6080  151.0090 C   0  0  2  0  0  3  0  0  0  0  0  0
  158.4640  211.3010  152.9220 C   0  0  0  0  0  1  0  0  0  0  0  0
  159.8360  211.5030  152.3790 C   0  0  0  0  0  0  0  0  0  0  0  0
  160.4220  212.6120  152.5450 O   0  0  0  0  0  0  0  0  0  0  0  0
  160.4490  210.4390  151.6430 N   0  0  0  0  0  2  0  0  0  0  0  0
  161.6980  213.0420  148.0310 C   0  0  0  0  0  2  0  0  0  0  0  0
  160.5490  213.8020  147.3620 C   0  0  1  0  0  3  0  0  0  0  0  0
  160.0200  212.9790  146.2940 N   0  0  0  0  0  0  0  0  0  0  0  0
  160.3020  213.1460  145.0460 C   0  0  0  0  0  3  0  0  0  0  0  0
  161.2490  214.2010  144.5360 C   0  0  0  0  0  2  0  0  0  0  0  0
  160.3850  211.7070  138.9490 C   0  0  0  0  0  3  0  0  0  0  0  0
  162.7220  212.3970  139.3620 C   0  0  0  0  0  2  0  0  0  0  0  0
  161.5270  214.0320  143.1130 N   0  0  0  0  0  0  0  0  0  0  0  0
  160.4900  213.3730  142.2950 C   0  0  0  0  0  2  0  0  0  0  0  0
  163.1780  213.8780  141.3460 C   0  0  0  0  0  3  0  0  0  0  0  0
  161.5930  212.0220  138.4500 C   0  0  0  0  0  3  0  0  0  0  0  0
  162.1350  213.2940  140.4420 C   0  0  2  0  0  3  0  0  0  0  0  0
  161.1460  212.4600  141.2670 C   0  0  2  0  0  3  0  0  0  0  0  0
  160.1260  211.6670  140.4390 C   0  0  0  0  0  2  0  0  0  0  0  0
  162.8580  214.2330  142.5990 C   0  0  0  0  0  3  0  0  0  0  0  0
  159.4810  214.0900  148.3220 N   0  0  0  0  0  2  0  0  0  0  0  0
  158.2610  213.4850  147.7800 C   0  0  0  0  0  2  0  0  0  0  0  0
  157.3840  213.0210  148.9210 C   0  0  0  0  0  2  0  0  0  0  0  0
  157.6050  213.9040  150.1520 C   0  0  0  0  0  1  0  0  0  0  0  0
  160.7830  206.0290  152.2590 C   0  0  2  0  0  3  0  0  0  0  0  0
  160.7930  206.8480  154.6230 C   0  0  0  0  0  1  0  0  0  0  0  0
  161.5890  206.1050  153.5490 C   0  0  0  0  0  2  0  0  0  0  0  0
  161.0000  204.6640  151.6310 C   0  0  0  0  0  2  0  0  0  0  0  0
  161.4670  203.7230  149.3360 C   0  0  0  0  0  0  0  0  0  0  0  0
  161.4390  204.8110  150.2550 N   0  0  0  0  0  2  0  0  0  0  0  0
  162.0910  203.8560  148.2480 O   0  0  0  0  0  0  0  0  0  0  0  0
  161.1300  201.6370  150.9860 S   0  0  0  0  0  0  0  0  0  0  0  0
  160.7660  202.4660  149.6240 C   0  0  0  0  0  0  0  0  0  0  0  0
  159.8130  201.8750  148.6690 C   0  0  0  0  0  3  0  0  0  0  0  0
  160.1980  201.2990  147.5540 C   0  0  0  0  0  0  0  0  0  0  0  0
  160.6120  200.7660  146.4450 C   0  0  0  0  0  0  0  0  0  0  0  0
  160.3370  201.3710  145.2150 O   0  0  0  0  0  0  0  0  0  0  0  0
  159.9390  202.6780  145.1570 O   0  0  0  0  0  0  0  0  0  0  0  0
  162.9560  204.7620  145.2950 C   0  0  0  0  0  0  0  0  0  0  0  0
  161.9600  203.7790  145.5860 N   0  0  0  0  0  0  0  0  0  0  0  0
  164.0980  204.6790  145.8410 O   0  0  0  0  0  0  0  0  0  0  0  0
  162.6790  205.8720  144.3220 C   0  0  0  0  0  2  0  0  0  0  0  0
  160.6430  204.5640  143.7340 C   0  0  0  0  0  3  0  0  0  0  0  0
  160.8740  203.6720  144.8720 C   0  0  0  0  0  0  0  0  0  0  0  0
  161.4850  205.5520  143.4310 C   0  0  0  0  0  0  0  0  0  0  0  0
  161.2170  206.3100  142.2880 O   0  0  0  0  0  0  0  0  0  0  0  0
  162.6600  205.4980  140.5970 C   0  0  0  0  0  1  0  0  0  0  0  0
  162.2030  206.7330  141.3530 C   0  0  1  0  0  3  0  0  0  0  0  0
  161.5630  207.7310  140.3710 C   0  0  0  0  0  3  0  0  0  0  0  0
  162.1760  208.9900  140.4960 O   0  0  0  0  0  1  0  0  0  0  0  0
  161.7070  207.2520  139.0660 O   0  0  0  0  0  1  0  0  0  0  0  0
  161.4260  199.5050  146.4650 C   0  0  0  0  0  2  0  0  0  0  0  0
  161.4850  198.9780  145.1680 O   0  0  0  0  0  0  0  0  0  0  0  0
  161.0400  197.7310  145.2850 O   0  0  0  0  0  1  0  0  0  0  0  0
  1  3  1  0  0  0  0
  1 33  1  0  0  0  0
  2  1  2  0  0  0  0
  4  7  1  0  0  0  0
  5  6  1  0  0  0  0
  5  7  2  0  0  0  0
  6  8  1  0  0  0  0
  7  9  1  0  0  0  0
  8  9  1  0  0  0  0
  8  3  1  1  0  0  0
  9 13  1  6  0  0  0
 11 12  2  0  0  0  0
 11 10  1  0  0  0  0
 13 11  1  0  0  0  0
 14  4  1  0  0  0  0
 15 14  1  1  0  0  0
 15 29  1  0  0  0  0
 16 15  1  0  0  0  0
 17 16  2  0  0  0  0
 18 17  1  0  0  0  0
 19 27  1  0  0  0  0
 21 18  1  0  0  0  0
 22 21  1  0  0  0  0
 23 28  2  0  0  0  0
 24 19  2  0  0  0  0
 24 20  1  0  0  0  0
 25 20  1  6  0  0  0
 25 26  1  0  0  0  0
 25 23  1  0  0  0  0
 26 27  1  6  0  0  0
 26 22  1  0  0  0  0
 28 21  1  0  0  0  0
 30 29  1  0  0  0  0
 30 31  1  0  0  0  0
 31 32  1  0  0  0  0
 33 36  1  6  0  0  0
 33 35  1  0  0  0  0
 35 34  1  0  0  0  0
 37 41  1  0  0  0  0
 37 38  1  0  0  0  0
 38 36  1  0  0  0  0
 39 37  2  0  0  0  0
 41 40  2  0  0  0  0
 42 41  1  0  0  0  0
 43 42  2  0  0  0  0
 44 60  1  0  0  0  0
 44 43  2  0  0  0  0
 45 44  1  0  0  0  0
 46 45  1  0  0  0  0
 47 48  1  0  0  0  0
 47 49  2  0  0  0  0
 50 47  1  0  0  0  0
 51 52  1  0  0  0  0
 52 46  1  0  0  0  0
 52 48  2  0  0  0  0
 53 51  2  0  0  0  0
 53 50  1  0  0  0  0
 54 53  1  0  0  0  0
 56 55  1  6  0  0  0
 56 54  1  0  0  0  0
 57 58  1  0  0  0  0
 57 56  1  0  0  0  0
 59 57  1  0  0  0  0
 61 62  1  0  0  0  0
 61 60  1  0  0  0  0
M  END
>  <MODEL>
1

>  <REMARK>
 VINA RESULT:      -4.4      0.000      0.000
  Name = 
  24 active torsions:
  status: ('A' for Active; 'I' for Inactive)
    1  A    between atoms: C_1  and  C_9
    2  A    between atoms: C_1  and  N_35
    3  A    between atoms: C_1  and  N_61
    4  A    between atoms: C_4  and  O_34
    5  A    between atoms: C_4  and  C_58
    6  A    between atoms: N_5  and  C_9
    7  A    between atoms: C_6  and  C_10
    8  A    between atoms: C_6  and  C_27
    9  A    between atoms: C_6  and  C_59
   10  A    between atoms: C_8  and  C_24
   11  A    between atoms: C_10  and  N_45
   12  A    between atoms: C_14  and  C_39
   13  A    between atoms: O_15  and  O_46
   14  A    between atoms: O_15  and  C_58
   15  A    between atoms: C_18  and  C_52
   16  A    between atoms: O_21  and  C_52
   17  A    between atoms: O_21  and  C_56
   18  A    between atoms: C_24  and  N_35
   19  A    between atoms: C_25  and  N_40
   20  A    between atoms: N_26  and  C_33
   21  A    between atoms: C_30  and  C_39
   22  A    between atoms: C_33  and  C_62
   23  A    between atoms: N_41  and  C_48
   24  A    between atoms: O_46  and  C_55
                            x       y       z     vdW  Elec       q    Type
                         _______ _______ _______ _____ _____    ______ ____

>  <TORSDO>
F 24

$$$$
=
 OpenBabel11042422553D

 62 65  0  0  1  0  0  0  0  0999 V2000
  161.4900  204.4690  148.6170 C   0  0  0  0  0  0  0  0  0  0  0  0
  162.4800  205.0320  148.0690 O   0  0  0  0  0  0  0  0  0  0  0  0
  160.4560  205.2730  149.1940 N   0  0  0  0  0  2  0  0  0  0  0  0
  161.7790  209.7670  147.6090 N   0  0  0  0  0  2  0  0  0  0  0  0
  162.0860  208.4560  149.5750 N   0  0  0  0  0  0  0  0  0  0  0  0
  161.6900  207.1960  150.1650 C   0  0  0  0  0  2  0  0  0  0  0  0
  161.6050  208.5740  148.3840 C   0  0  0  0  0  0  0  0  0  0  0  0
  160.5360  206.7350  149.2990 C   0  0  1  0  0  3  0  0  0  0  0  0
  160.7240  207.4600  147.9530 C   0  0  2  0  0  3  0  0  0  0  0  0
  161.5800  205.4060  144.7940 C   0  0  0  0  0  1  0  0  0  0  0  0
  160.7800  206.1670  145.7940 C   0  0  0  0  0  0  0  0  0  0  0  0
  159.5610  206.4170  145.5660 O   0  0  0  0  0  0  0  0  0  0  0  0
  161.4270  206.6330  146.9830 N   0  0  0  0  0  2  0  0  0  0  0  0
  162.1540  211.0190  148.2580 C   0  0  0  0  0  2  0  0  0  0  0  0
  161.8740  212.2420  147.3800 C   0  0  1  0  0  3  0  0  0  0  0  0
  160.5440  212.1080  146.8240 N   0  0  0  0  0  0  0  0  0  0  0  0
  160.1850  212.5910  145.6830 C   0  0  0  0  0  3  0  0  0  0  0  0
  161.1160  213.3310  144.7580 C   0  0  0  0  0  2  0  0  0  0  0  0
  162.7220  212.9090  138.8060 C   0  0  0  0  0  3  0  0  0  0  0  0
  160.2790  213.0380  139.1540 C   0  0  0  0  0  2  0  0  0  0  0  0
  160.9190  212.9350  143.3670 N   0  0  0  0  0  0  0  0  0  0  0  0
  162.1100  212.9140  142.4950 C   0  0  0  0  0  2  0  0  0  0  0  0
  159.4030  212.7040  141.4910 C   0  0  0  0  0  3  0  0  0  0  0  0
  161.4840  212.7070  138.3250 C   0  0  0  0  0  3  0  0  0  0  0  0
  160.5820  212.5790  140.5720 C   0  0  2  0  0  3  0  0  0  0  0  0
  161.7450  213.4250  141.1070 C   0  0  2  0  0  3  0  0  0  0  0  0
  162.9550  213.5210  140.1700 C   0  0  0  0  0  2  0  0  0  0  0  0
  159.5930  212.8550  142.8090 C   0  0  0  0  0  3  0  0  0  0  0  0
  161.9470  213.4780  148.1630 N   0  0  0  0  0  2  0  0  0  0  0  0
  161.2410  213.2150  149.4200 C   0  0  0  0  0  2  0  0  0  0  0  0
  159.8450  213.7910  149.3380 C   0  0  0  0  0  2  0  0  0  0  0  0
  159.2090  213.8370  150.7300 C   0  0  0  0  0  1  0  0  0  0  0  0
  161.3660  202.9630  148.5380 C   0  0  2  0  0  3  0  0  0  0  0  0
  161.2370  201.0100  146.9790 C   0  0  0  0  0  1  0  0  0  0  0  0
  160.8670  202.4800  147.1820 C   0  0  0  0  0  2  0  0  0  0  0  0
  160.4240  202.4490  149.6120 C   0  0  0  0  0  2  0  0  0  0  0  0
  161.9640  202.1960  151.5950 C   0  0  0  0  0  0  0  0  0  0  0  0
  161.1520  201.6340  150.5680 N   0  0  0  0  0  2  0  0  0  0  0  0
  162.7620  201.4470  152.2230 O   0  0  0  0  0  0  0  0  0  0  0  0
  163.1200  204.6140  151.6060 S   0  0  0  0  0  0  0  0  0  0  0  0
  161.8700  203.6170  151.9480 C   0  0  0  0  0  0  0  0  0  0  0  0
  160.7200  204.1550  152.6950 C   0  0  0  0  0  3  0  0  0  0  0  0
  160.7180  205.3610  153.2140 C   0  0  0  0  0  0  0  0  0  0  0  0
  160.7630  206.5470  153.7420 C   0  0  0  0  0  0  0  0  0  0  0  0
  160.8030  206.7090  155.1300 O   0  0  0  0  0  0  0  0  0  0  0  0
  159.8140  207.3940  155.7790 O   0  0  0  0  0  0  0  0  0  0  0  0
  161.3660  210.5010  156.9660 C   0  0  0  0  0  0  0  0  0  0  0  0
  161.1240  209.1270  156.6520 N   0  0  0  0  0  0  0  0  0  0  0  0
  162.5410  210.8800  157.2560 O   0  0  0  0  0  0  0  0  0  0  0  0
  160.2510  211.5060  156.9220 C   0  0  0  0  0  2  0  0  0  0  0  0
  158.9530  209.7040  155.7980 C   0  0  0  0  0  3  0  0  0  0  0  0
  160.0050  208.7350  156.1100 C   0  0  0  0  0  0  0  0  0  0  0  0
  159.0640  210.9930  156.1160 C   0  0  0  0  0  0  0  0  0  0  0  0
  158.0380  211.8550  155.7200 O   0  0  0  0  0  0  0  0  0  0  0  0
  157.9030  211.9040  153.3580 C   0  0  0  0  0  1  0  0  0  0  0  0
  158.1150  212.7390  154.6080 C   0  0  1  0  0  3  0  0  0  0  0  0
  156.9920  213.7860  154.7250 C   0  0  0  0  0  3  0  0  0  0  0  0
  156.1370  213.7020  153.6130 O   0  0  0  0  0  1  0  0  0  0  0  0
  156.2740  213.5640  155.9040 O   0  0  0  0  0  1  0  0  0  0  0  0
  160.8090  207.7660  152.8680 C   0  0  0  0  0  2  0  0  0  0  0  0
  161.8490  208.5990  153.3010 O   0  0  0  0  0  0  0  0  0  0  0  0
  161.3630  209.8330  153.2020 O   0  0  0  0  0  1  0  0  0  0  0  0
  1  3  1  0  0  0  0
  2  1  2  0  0  0  0
  4 14  1  0  0  0  0
  4  7  1  0  0  0  0
  5  6  1  0  0  0  0
  7  5  2  0  0  0  0
  8  3  1  6  0  0  0
  8  6  1  0  0  0  0
  9 13  1  6  0  0  0
  9  7  1  0  0  0  0
  9  8  1  0  0  0  0
 10 11  1  0  0  0  0
 11 13  1  0  0  0  0
 12 11  2  0  0  0  0
 15 29  1  0  0  0  0
 15 14  1  1  0  0  0
 16 15  1  0  0  0  0
 17 16  2  0  0  0  0
 18 17  1  0  0  0  0
 19 27  1  0  0  0  0
 21 18  1  0  0  0  0
 22 21  1  0  0  0  0
 23 28  2  0  0  0  0
 24 19  2  0  0  0  0
 24 20  1  0  0  0  0
 25 20  1  6  0  0  0
 25 26  1  0  0  0  0
 25 23  1  0  0  0  0
 26 27  1  6  0  0  0
 26 22  1  0  0  0  0
 28 21  1  0  0  0  0
 29 30  1  0  0  0  0
 31 30  1  0  0  0  0
 31 32  1  0  0  0  0
 33 35  1  6  0  0  0
 33  1  1  0  0  0  0
 33 36  1  0  0  0  0
 34 35  1  0  0  0  0
 36 38  1  0  0  0  0
 37 41  1  0  0  0  0
 37 39  2  0  0  0  0
 38 37  1  0  0  0  0
 40 41  2  0  0  0  0
 41 42  1  0  0  0  0
 42 43  2  0  0  0  0
 43 44  2  0  0  0  0
 44 45  1  0  0  0  0
 45 46  1  0  0  0  0
 46 52  1  0  0  0  0
 47 49  2  0  0  0  0
 48 47  1  0  0  0  0
 50 47  1  0  0  0  0
 51 52  1  0  0  0  0
 51 53  2  0  0  0  0
 52 48  2  0  0  0  0
 53 50  1  0  0  0  0
 54 53  1  0  0  0  0
 56 55  1  6  0  0  0
 56 57  1  0  0  0  0
 56 54  1  0  0  0  0
 57 59  1  0  0  0  0
 58 57  1  0  0  0  0
 60 61  1  0  0  0  0
 60 44  1  0  0  0  0
 62 61  1  0  0  0  0
M  END
>  <MODEL>
2

>  <REMARK>
 VINA RESULT:      -4.3      2.763      8.414
  Name = 
  24 active torsions:
  status: ('A' for Active; 'I' for Inactive)
    1  A    between atoms: C_1  and  C_9
    2  A    between atoms: C_1  and  N_35
    3  A    between atoms: C_1  and  N_61
    4  A    between atoms: C_4  and  O_34
    5  A    between atoms: C_4  and  C_58
    6  A    between atoms: N_5  and  C_9
    7  A    between atoms: C_6  and  C_10
    8  A    between atoms: C_6  and  C_27
    9  A    between atoms: C_6  and  C_59
   10  A    between atoms: C_8  and  C_24
   11  A    between atoms: C_10  and  N_45
   12  A    between atoms: C_14  and  C_39
   13  A    between atoms: O_15  and  O_46
   14  A    between atoms: O_15  and  C_58
   15  A    between atoms: C_18  and  C_52
   16  A    between atoms: O_21  and  C_52
   17  A    between atoms: O_21  and  C_56
   18  A    between atoms: C_24  and  N_35
   19  A    between atoms: C_25  and  N_40
   20  A    between atoms: N_26  and  C_33
   21  A    between atoms: C_30  and  C_39
   22  A    between atoms: C_33  and  C_62
   23  A    between atoms: N_41  and  C_48
   24  A    between atoms: O_46  and  C_55
                            x       y       z     vdW  Elec       q    Type
                         _______ _______ _______ _____ _____    ______ ____

>  <TORSDO>
F 24

$$$$
=
 OpenBabel11042422553D

 62 65  0  0  1  0  0  0  0  0999 V2000
  161.3860  205.5960  148.7610 C   0  0  0  0  0  0  0  0  0  0  0  0
  161.0190  206.4610  147.9170 O   0  0  0  0  0  0  0  0  0  0  0  0
  161.8860  206.0230  150.0330 N   0  0  0  0  0  2  0  0  0  0  0  0
  161.4160  210.0220  152.9050 N   0  0  0  0  0  2  0  0  0  0  0  0
  160.9780  209.4510  150.6330 N   0  0  0  0  0  0  0  0  0  0  0  0
  161.1440  208.3680  149.6890 C   0  0  0  0  0  2  0  0  0  0  0  0
  161.3920  209.1040  151.8050 C   0  0  0  0  0  0  0  0  0  0  0  0
  162.1170  207.4320  150.3760 C   0  0  1  0  0  3  0  0  0  0  0  0
  161.9930  207.7490  151.8790 C   0  0  2  0  0  3  0  0  0  0  0  0
  160.0500  205.8270  154.6110 C   0  0  0  0  0  1  0  0  0  0  0  0
  161.0820  206.6930  153.9750 C   0  0  0  0  0  0  0  0  0  0  0  0
  161.9250  207.3020  154.6950 O   0  0  0  0  0  0  0  0  0  0  0  0
  161.0700  206.8450  152.5510 N   0  0  0  0  0  2  0  0  0  0  0  0
  161.3520  211.4600  152.6660 C   0  0  0  0  0  2  0  0  0  0  0  0
  160.1270  212.1100  153.3160 C   0  0  1  0  0  3  0  0  0  0  0  0
  159.0020  211.9610  152.4150 N   0  0  0  0  0  0  0  0  0  0  0  0
  158.8340  212.6630  151.3450 C   0  0  0  0  0  3  0  0  0  0  0  0
  159.8090  213.7100  150.8710 C   0  0  0  0  0  2  0  0  0  0  0  0
  157.6700  213.0950  145.1070 C   0  0  0  0  0  3  0  0  0  0  0  0
  160.0560  212.4920  145.3350 C   0  0  0  0  0  2  0  0  0  0  0  0
  159.9270  213.7150  149.4170 N   0  0  0  0  0  0  0  0  0  0  0  0
  158.6760  213.8060  148.6370 C   0  0  0  0  0  2  0  0  0  0  0  0
  161.2380  213.1500  147.4590 C   0  0  0  0  0  3  0  0  0  0  0  0
  158.8620  212.8890  144.5200 C   0  0  0  0  0  3  0  0  0  0  0  0
  160.0160  213.3250  146.6080 C   0  0  2  0  0  3  0  0  0  0  0  0
  158.7700  212.9170  147.4040 C   0  0  2  0  0  3  0  0  0  0  0  0
  157.4690  212.8860  146.5920 C   0  0  0  0  0  2  0  0  0  0  0  0
  161.1700  213.3570  148.7820 C   0  0  0  0  0  3  0  0  0  0  0  0
  159.8090  211.4700  154.5940 N   0  0  0  0  0  2  0  0  0  0  0  0
  159.2010  212.5030  155.4360 C   0  0  0  0  0  2  0  0  0  0  0  0
  157.7020  212.3040  155.4690 C   0  0  0  0  0  2  0  0  0  0  0  0
  157.3010  211.5150  156.7180 C   0  0  0  0  0  1  0  0  0  0  0  0
  161.1710  204.1300  148.4520 C   0  0  2  0  0  3  0  0  0  0  0  0
  160.2990  202.9110  150.4550 C   0  0  0  0  0  1  0  0  0  0  0  0
  161.5390  203.2190  149.6150 C   0  0  0  0  0  2  0  0  0  0  0  0
  161.9820  203.7170  147.2360 C   0  0  0  0  0  2  0  0  0  0  0  0
  160.8530  203.8010  144.9810 C   0  0  0  0  0  0  0  0  0  0  0  0
  161.1110  203.1510  146.2220 N   0  0  0  0  0  2  0  0  0  0  0  0
  159.9020  203.3910  144.2610 O   0  0  0  0  0  0  0  0  0  0  0  0
  163.2250  205.0470  145.0550 S   0  0  0  0  0  0  0  0  0  0  0  0
  161.6860  204.9180  144.5190 C   0  0  0  0  0  0  0  0  0  0  0  0
  161.1430  205.9870  143.6630 C   0  0  0  0  0  3  0  0  0  0  0  0
  161.6180  206.2410  142.4670 C   0  0  0  0  0  0  0  0  0  0  0  0
  162.1330  206.4860  141.3000 C   0  0  0  0  0  0  0  0  0  0  0  0
  162.8420  207.6690  141.0660 O   0  0  0  0  0  0  0  0  0  0  0  0
  162.1860  208.8610  140.9480 O   0  0  0  0  0  0  0  0  0  0  0  0
  160.4040  209.0730  137.7460 C   0  0  0  0  0  0  0  0  0  0  0  0
  160.8780  208.6290  139.0200 N   0  0  0  0  0  0  0  0  0  0  0  0
  159.3690  208.5420  137.2420 O   0  0  0  0  0  0  0  0  0  0  0  0
  161.0970  210.1870  137.0150 C   0  0  0  0  0  2  0  0  0  0  0  0
  162.3190  210.5470  139.1550 C   0  0  0  0  0  3  0  0  0  0  0  0
  161.7720  209.3000  139.6910 C   0  0  0  0  0  0  0  0  0  0  0  0
  161.9850  211.0020  137.9470 C   0  0  0  0  0  0  0  0  0  0  0  0
  162.5070  212.2350  137.5460 O   0  0  0  0  0  0  0  0  0  0  0  0
  160.8670  213.2880  138.8890 C   0  0  0  0  0  1  0  0  0  0  0  0
  162.1800  213.4820  138.1500 C   0  0  1  0  0  3  0  0  0  0  0  0
  163.2860  213.8540  139.1540 C   0  0  0  0  0  3  0  0  0  0  0  0
  162.8970  213.4950  140.4560 O   0  0  0  0  0  1  0  0  0  0  0  0
  164.4690  213.1960  138.8040 O   0  0  0  0  0  1  0  0  0  0  0  0
  162.0080  205.4850  140.1880 C   0  0  0  0  0  2  0  0  0  0  0  0
  163.0190  205.7200  139.2460 O   0  0  0  0  0  0  0  0  0  0  0  0
  162.4060  206.3210  138.2300 O   0  0  0  0  0  1  0  0  0  0  0  0
  1  3  1  0  0  0  0
  2  1  2  0  0  0  0
  5  7  2  0  0  0  0
  6  8  1  0  0  0  0
  6  5  1  0  0  0  0
  7  9  1  0  0  0  0
  7  4  1  0  0  0  0
  8  3  1  1  0  0  0
  8  9  1  0  0  0  0
  9 13  1  1  0  0  0
 11 10  1  0  0  0  0
 11 12  2  0  0  0  0
 13 11  1  0  0  0  0
 14  4  1  0  0  0  0
 15 14  1  6  0  0  0
 15 29  1  0  0  0  0
 16 15  1  0  0  0  0
 17 16  2  0  0  0  0
 18 17  1  0  0  0  0
 19 27  1  0  0  0  0
 21 18  1  0  0  0  0
 22 21  1  0  0  0  0
 23 28  2  0  0  0  0
 24 19  2  0  0  0  0
 24 20  1  0  0  0  0
 25 20  1  6  0  0  0
 25 26  1  0  0  0  0
 25 23  1  0  0  0  0
 26 27  1  6  0  0  0
 26 22  1  0  0  0  0
 28 21  1  0  0  0  0
 29 30  1  0  0  0  0
 30 31  1  0  0  0  0
 31 32  1  0  0  0  0
 33 36  1  6  0  0  0
 33  1  1  0  0  0  0
 33 35  1  0  0  0  0
 35 34  1  0  0  0  0
 37 38  1  0  0  0  0
 38 36  1  0  0  0  0
 39 37  2  0  0  0  0
 41 37  1  0  0  0  0
 41 40  2  0  0  0  0
 42 41  1  0  0  0  0
 43 42  2  0  0  0  0
 44 43  2  0  0  0  0
 45 44  1  0  0  0  0
 46 45  1  0  0  0  0
 47 48  1  0  0  0  0
 48 52  2  0  0  0  0
 49 47  2  0  0  0  0
 50 47  1  0  0  0  0
 50 53  1  0  0  0  0
 51 52  1  0  0  0  0
 52 46  1  0  0  0  0
 53 51  2  0  0  0  0
 54 53  1  0  0  0  0
 54 56  1  0  0  0  0
 56 55  1  1  0  0  0
 56 57  1  0  0  0  0
 57 58  1  0  0  0  0
 59 57  1  0  0  0  0
 60 44  1  0  0  0  0
 61 60  1  0  0  0  0
 62 61  1  0  0  0  0
M  END
>  <MODEL>
3

>  <REMARK>
 VINA RESULT:      -3.2      2.555      6.489
  Name = 
  24 active torsions:
  status: ('A' for Active; 'I' for Inactive)
    1  A    between atoms: C_1  and  C_9
    2  A    between atoms: C_1  and  N_35
    3  A    between atoms: C_1  and  N_61
    4  A    between atoms: C_4  and  O_34
    5  A    between atoms: C_4  and  C_58
    6  A    between atoms: N_5  and  C_9
    7  A    between atoms: C_6  and  C_10
    8  A    between atoms: C_6  and  C_27
    9  A    between atoms: C_6  and  C_59
   10  A    between atoms: C_8  and  C_24
   11  A    between atoms: C_10  and  N_45
   12  A    between atoms: C_14  and  C_39
   13  A    between atoms: O_15  and  O_46
   14  A    between atoms: O_15  and  C_58
   15  A    between atoms: C_18  and  C_52
   16  A    between atoms: O_21  and  C_52
   17  A    between atoms: O_21  and  C_56
   18  A    between atoms: C_24  and  N_35
   19  A    between atoms: C_25  and  N_40
   20  A    between atoms: N_26  and  C_33
   21  A    between atoms: C_30  and  C_39
   22  A    between atoms: C_33  and  C_62
   23  A    between atoms: N_41  and  C_48
   24  A    between atoms: O_46  and  C_55
                            x       y       z     vdW  Elec       q    Type
                         _______ _______ _______ _____ _____    ______ ____

>  <TORSDO>
F 24

$$$$
=
 OpenBabel11042422553D

 62 65  0  0  1  0  0  0  0  0999 V2000
  161.4370  205.5580  148.1900 C   0  0  0  0  0  0  0  0  0  0  0  0
  161.0190  206.4380  147.3860 O   0  0  0  0  0  0  0  0  0  0  0  0
  162.0180  205.9630  149.4340 N   0  0  0  0  0  2  0  0  0  0  0  0
  161.5480  209.9780  152.2850 N   0  0  0  0  0  2  0  0  0  0  0  0
  161.1810  209.4150  149.9980 N   0  0  0  0  0  0  0  0  0  0  0  0
  161.3530  208.3260  149.0620 C   0  0  0  0  0  2  0  0  0  0  0  0
  161.5410  209.0590  151.1850 C   0  0  0  0  0  0  0  0  0  0  0  0
  162.2750  207.3660  149.7850 C   0  0  1  0  0  3  0  0  0  0  0  0
  162.1020  207.6880  151.2820 C   0  0  2  0  0  3  0  0  0  0  0  0
  160.4120  205.2240  153.7310 C   0  0  0  0  0  1  0  0  0  0  0  0
  161.4760  206.0270  153.0670 C   0  0  0  0  0  0  0  0  0  0  0  0
  162.6490  206.0330  153.5400 O   0  0  0  0  0  0  0  0  0  0  0  0
  161.1310  206.8110  151.9190 N   0  0  0  0  0  2  0  0  0  0  0  0
  161.5320  211.4160  152.0430 C   0  0  0  0  0  2  0  0  0  0  0  0
  160.3690  212.1180  152.7500 C   0  0  1  0  0  3  0  0  0  0  0  0
  159.2310  212.1270  151.8540 N   0  0  0  0  0  0  0  0  0  0  0  0
  159.0450  213.0090  150.9300 C   0  0  0  0  0  3  0  0  0  0  0  0
  160.0090  214.1290  150.6370 C   0  0  0  0  0  2  0  0  0  0  0  0
  159.5170  212.4670  144.7070 C   0  0  0  0  0  3  0  0  0  0  0  0
  161.8140  213.1050  145.3570 C   0  0  0  0  0  2  0  0  0  0  0  0
  160.3740  214.1700  149.2250 N   0  0  0  0  0  0  0  0  0  0  0  0
  159.3980  213.6300  148.2580 C   0  0  0  0  0  2  0  0  0  0  0  0
  162.1290  214.2850  147.5580 C   0  0  0  0  0  3  0  0  0  0  0  0
  160.7470  212.8590  144.3330 C   0  0  0  0  0  3  0  0  0  0  0  0
  161.1500  213.8310  146.5170 C   0  0  2  0  0  3  0  0  0  0  0  0
  160.1270  212.8800  147.1510 C   0  0  2  0  0  3  0  0  0  0  0  0
  159.1710  212.2090  146.1570 C   0  0  0  0  0  2  0  0  0  0  0  0
  161.7300  214.4530  148.8270 C   0  0  0  0  0  3  0  0  0  0  0  0
  160.0050  211.4180  153.9830 N   0  0  0  0  0  2  0  0  0  0  0  0
  159.2490  212.3740  154.7960 C   0  0  0  0  0  2  0  0  0  0  0  0
  159.9310  212.5410  156.1350 C   0  0  0  0  0  2  0  0  0  0  0  0
  161.0310  211.4910  156.3030 C   0  0  0  0  0  1  0  0  0  0  0  0
  161.2000  204.0980  147.8710 C   0  0  2  0  0  3  0  0  0  0  0  0
  160.4190  202.2440  149.3580 C   0  0  0  0  0  1  0  0  0  0  0  0
  161.5860  203.1700  149.0160 C   0  0  0  0  0  2  0  0  0  0  0  0
  161.9780  203.6900  146.6330 C   0  0  0  0  0  2  0  0  0  0  0  0
  160.7290  203.9520  144.4550 C   0  0  0  0  0  0  0  0  0  0  0  0
  161.0700  203.1950  145.6120 N   0  0  0  0  0  2  0  0  0  0  0  0
  159.7540  203.5820  143.7460 O   0  0  0  0  0  0  0  0  0  0  0  0
  162.9340  205.4380  144.7990 S   0  0  0  0  0  0  0  0  0  0  0  0
  161.5050  205.1350  144.0640 C   0  0  0  0  0  0  0  0  0  0  0  0
  160.9850  206.1170  143.0960 C   0  0  0  0  0  3  0  0  0  0  0  0
  161.5970  206.3840  141.9660 C   0  0  0  0  0  0  0  0  0  0  0  0
  162.2440  206.6480  140.8710 C   0  0  0  0  0  0  0  0  0  0  0  0
  162.8590  207.8900  140.6870 O   0  0  0  0  0  0  0  0  0  0  0  0
  162.1770  209.0480  140.9360 O   0  0  0  0  0  0  0  0  0  0  0  0
  159.8820  209.1900  138.0750 C   0  0  0  0  0  0  0  0  0  0  0  0
  160.8620  208.7540  139.0210 N   0  0  0  0  0  0  0  0  0  0  0  0
  159.3520  208.3480  137.2890 O   0  0  0  0  0  0  0  0  0  0  0  0
  159.4470  210.6270  138.0270 C   0  0  0  0  0  2  0  0  0  0  0  0
  160.6780  210.8520  140.1790 C   0  0  0  0  0  3  0  0  0  0  0  0
  161.2480  209.5150  140.0070 C   0  0  0  0  0  0  0  0  0  0  0  0
  159.8080  211.3660  139.3090 C   0  0  0  0  0  0  0  0  0  0  0  0
  159.2670  212.6240  139.5910 O   0  0  0  0  0  0  0  0  0  0  0  0
  158.4470  213.8530  141.4390 C   0  0  0  0  0  1  0  0  0  0  0  0
  158.0930  212.8380  140.3660 C   0  0  1  0  0  3  0  0  0  0  0  0
  156.9930  213.4120  139.4550 C   0  0  0  0  0  3  0  0  0  0  0  0
  157.3960  213.3420  138.1100 O   0  0  0  0  0  1  0  0  0  0  0  0
  155.8120  212.6890  139.6440 O   0  0  0  0  0  1  0  0  0  0  0  0
  162.3760  205.6080  139.7970 C   0  0  0  0  0  2  0  0  0  0  0  0
  162.0930  206.1940  138.5560 O   0  0  0  0  0  0  0  0  0  0  0  0
  163.2440  206.7310  138.1630 O   0  0  0  0  0  1  0  0  0  0  0  0
  1  3  1  0  0  0  0
  2  1  2  0  0  0  0
  5  7  2  0  0  0  0
  6  8  1  0  0  0  0
  6  5  1  0  0  0  0
  7  9  1  0  0  0  0
  7  4  1  0  0  0  0
  8  3  1  1  0  0  0
  8  9  1  0  0  0  0
  9 13  1  6  0  0  0
 11 12  2  0  0  0  0
 11 10  1  0  0  0  0
 13 11  1  0  0  0  0
 14  4  1  0  0  0  0
 15 14  1  6  0  0  0
 15 29  1  0  0  0  0
 16 15  1  0  0  0  0
 17 16  2  0  0  0  0
 18 17  1  0  0  0  0
 19 27  1  0  0  0  0
 21 18  1  0  0  0  0
 22 21  1  0  0  0  0
 23 28  2  0  0  0  0
 24 19  2  0  0  0  0
 24 20  1  0  0  0  0
 25 20  1  6  0  0  0
 25 26  1  0  0  0  0
 25 23  1  0  0  0  0
 26 27  1  6  0  0  0
 26 22  1  0  0  0  0
 28 21  1  0  0  0  0
 29 30  1  0  0  0  0
 30 31  1  0  0  0  0
 31 32  1  0  0  0  0
 33 36  1  6  0  0  0
 33  1  1  0  0  0  0
 33 35  1  0  0  0  0
 35 34  1  0  0  0  0
 37 38  1  0  0  0  0
 38 36  1  0  0  0  0
 39 37  2  0  0  0  0
 41 37  1  0  0  0  0
 41 40  2  0  0  0  0
 42 41  1  0  0  0  0
 43 42  2  0  0  0  0
 44 43  2  0  0  0  0
 45 44  1  0  0  0  0
 45 46  1  0  0  0  0
 47 48  1  0  0  0  0
 48 52  2  0  0  0  0
 49 47  2  0  0  0  0
 50 47  1  0  0  0  0
 50 53  1  0  0  0  0
 52 51  1  0  0  0  0
 52 46  1  0  0  0  0
 53 54  1  0  0  0  0
 53 51  2  0  0  0  0
 54 56  1  0  0  0  0
 56 55  1  1  0  0  0
 57 59  1  0  0  0  0
 57 56  1  0  0  0  0
 58 57  1  0  0  0  0
 60 44  1  0  0  0  0
 61 60  1  0  0  0  0
 62 61  1  0  0  0  0
M  END
>  <MODEL>
4

>  <REMARK>
 VINA RESULT:      -3.0      2.621      6.624
  Name = 
  24 active torsions:
  status: ('A' for Active; 'I' for Inactive)
    1  A    between atoms: C_1  and  C_9
    2  A    between atoms: C_1  and  N_35
    3  A    between atoms: C_1  and  N_61
    4  A    between atoms: C_4  and  O_34
    5  A    between atoms: C_4  and  C_58
    6  A    between atoms: N_5  and  C_9
    7  A    between atoms: C_6  and  C_10
    8  A    between atoms: C_6  and  C_27
    9  A    between atoms: C_6  and  C_59
   10  A    between atoms: C_8  and  C_24
   11  A    between atoms: C_10  and  N_45
   12  A    between atoms: C_14  and  C_39
   13  A    between atoms: O_15  and  O_46
   14  A    between atoms: O_15  and  C_58
   15  A    between atoms: C_18  and  C_52
   16  A    between atoms: O_21  and  C_52
   17  A    between atoms: O_21  and  C_56
   18  A    between atoms: C_24  and  N_35
   19  A    between atoms: C_25  and  N_40
   20  A    between atoms: N_26  and  C_33
   21  A    between atoms: C_30  and  C_39
   22  A    between atoms: C_33  and  C_62
   23  A    between atoms: N_41  and  C_48
   24  A    between atoms: O_46  and  C_55
                            x       y       z     vdW  Elec       q    Type
                         _______ _______ _______ _____ _____    ______ ____

>  <TORSDO>
F 24

$$$$
=
 OpenBabel11042422553D

 62 65  0  0  1  0  0  0  0  0999 V2000
  161.2480  202.6470  147.0040 C   0  0  0  0  0  0  0  0  0  0  0  0
  160.7610  201.7670  146.2390 O   0  0  0  0  0  0  0  0  0  0  0  0
  161.7660  203.8570  146.4430 N   0  0  0  0  0  2  0  0  0  0  0  0
  161.9980  206.7260  142.4200 N   0  0  0  0  0  2  0  0  0  0  0  0
  160.6580  204.9100  143.1870 N   0  0  0  0  0  0  0  0  0  0  0  0
  160.5510  203.9680  144.2800 C   0  0  0  0  0  2  0  0  0  0  0  0
  161.6250  205.7400  143.3910 C   0  0  0  0  0  0  0  0  0  0  0  0
  161.8800  204.0920  144.9980 C   0  0  1  0  0  3  0  0  0  0  0  0
  162.4180  205.4850  144.6200 C   0  0  2  0  0  3  0  0  0  0  0  0
  162.3800  207.5600  147.8790 C   0  0  0  0  0  1  0  0  0  0  0  0
  162.6820  206.4540  146.9280 C   0  0  0  0  0  0  0  0  0  0  0  0
  163.4740  205.5290  147.2690 O   0  0  0  0  0  0  0  0  0  0  0  0
  162.0900  206.4860  145.6250 N   0  0  0  0  0  2  0  0  0  0  0  0
  161.5790  206.5850  141.0300 C   0  0  0  0  0  2  0  0  0  0  0  0
  162.2590  207.6000  140.1060 C   0  0  1  0  0  3  0  0  0  0  0  0
  162.0930  207.1520  138.7390 N   0  0  0  0  0  0  0  0  0  0  0  0
  161.6490  207.8980  137.7830 C   0  0  0  0  0  3  0  0  0  0  0  0
  161.2790  209.3470  137.9560 C   0  0  0  0  0  2  0  0  0  0  0  0
  155.7270  211.7840  139.1480 C   0  0  0  0  0  3  0  0  0  0  0  0
  155.6100  209.5770  138.0410 C   0  0  0  0  0  2  0  0  0  0  0  0
  159.8590  209.5740  137.7030 N   0  0  0  0  0  0  0  0  0  0  0  0
  159.2290  210.7290  138.3710 C   0  0  0  0  0  2  0  0  0  0  0  0
  157.7210  208.6590  137.0220 C   0  0  0  0  0  3  0  0  0  0  0  0
  155.0110  210.8920  138.4410 C   0  0  0  0  0  3  0  0  0  0  0  0
  157.0380  209.8620  137.6010 C   0  0  2  0  0  3  0  0  0  0  0  0
  157.8210  210.3610  138.8220 C   0  0  2  0  0  3  0  0  0  0  0  0
  157.1360  211.4850  139.6100 C   0  0  0  0  0  2  0  0  0  0  0  0
  159.0580  208.5580  137.0700 C   0  0  0  0  0  3  0  0  0  0  0  0
  161.6620  208.9290  140.2540 N   0  0  0  0  0  2  0  0  0  0  0  0
  162.7740  209.8710  140.3990 C   0  0  0  0  0  2  0  0  0  0  0  0
  162.3270  211.0470  141.2370 C   0  0  0  0  0  2  0  0  0  0  0  0
  161.3680  211.9320  140.4370 C   0  0  0  0  0  1  0  0  0  0  0  0
  161.1580  202.4490  148.5020 C   0  0  2  0  0  3  0  0  0  0  0  0
  160.2680  200.5710  149.8950 C   0  0  0  0  0  1  0  0  0  0  0  0
  159.9030  201.6950  148.9250 C   0  0  0  0  0  2  0  0  0  0  0  0
  161.1850  203.7870  149.2190 C   0  0  0  0  0  2  0  0  0  0  0  0
  161.7690  204.6950  151.5000 C   0  0  0  0  0  0  0  0  0  0  0  0
  161.7020  203.6220  150.5660 N   0  0  0  0  0  2  0  0  0  0  0  0
  162.4540  204.5510  152.5490 O   0  0  0  0  0  0  0  0  0  0  0  0
  160.5540  206.3320  149.7600 S   0  0  0  0  0  0  0  0  0  0  0  0
  161.0390  205.9480  151.2740 C   0  0  0  0  0  0  0  0  0  0  0  0
  160.8170  206.9210  152.3560 C   0  0  0  0  0  3  0  0  0  0  0  0
  161.2070  208.1720  152.2700 C   0  0  0  0  0  0  0  0  0  0  0  0
  161.6340  209.3940  152.1640 C   0  0  0  0  0  0  0  0  0  0  0  0
  162.6870  209.8540  152.9620 O   0  0  0  0  0  0  0  0  0  0  0  0
  162.4550  210.7390  153.9770 O   0  0  0  0  0  0  0  0  0  0  0  0
  160.1150  209.0790  156.2660 C   0  0  0  0  0  0  0  0  0  0  0  0
  161.1700  209.3280  155.3330 N   0  0  0  0  0  0  0  0  0  0  0  0
  160.0810  207.9790  156.8950 O   0  0  0  0  0  0  0  0  0  0  0  0
  159.0670  210.1210  156.5360 C   0  0  0  0  0  2  0  0  0  0  0  0
  160.5650  211.6540  155.2690 C   0  0  0  0  0  3  0  0  0  0  0  0
  161.3940  210.5200  154.8550 C   0  0  0  0  0  0  0  0  0  0  0  0
  159.5190  211.5030  156.0820 C   0  0  0  0  0  0  0  0  0  0  0  0
  158.8270  212.6520  156.4750 O   0  0  0  0  0  0  0  0  0  0  0  0
  157.2130  214.3790  156.3720 C   0  0  0  0  0  1  0  0  0  0  0  0
  157.4480  212.8870  156.2150 C   0  0  1  0  0  3  0  0  0  0  0  0
  157.1350  212.4650  154.7680 C   0  0  0  0  0  3  0  0  0  0  0  0
  156.2520  211.3720  154.7660 O   0  0  0  0  0  1  0  0  0  0  0  0
  156.5680  213.5450  154.0840 O   0  0  0  0  0  1  0  0  0  0  0  0
  161.0290  210.3260  151.1560 C   0  0  0  0  0  2  0  0  0  0  0  0
  160.8350  211.5800  151.7510 O   0  0  0  0  0  0  0  0  0  0  0  0
  159.5520  211.5960  152.1010 O   0  0  0  0  0  1  0  0  0  0  0  0
  1 33  1  0  0  0  0
  2  1  2  0  0  0  0
  3  1  1  0  0  0  0
  4  7  1  0  0  0  0
  5  7  2  0  0  0  0
  5  6  1  0  0  0  0
  6  8  1  0  0  0  0
  7  9  1  0  0  0  0
  8  3  1  1  0  0  0
  9  8  1  0  0  0  0
  9 13  1  1  0  0  0
 11 12  2  0  0  0  0
 11 10  1  0  0  0  0
 13 11  1  0  0  0  0
 14  4  1  0  0  0  0
 15 29  1  0  0  0  0
 15 14  1  1  0  0  0
 16 15  1  0  0  0  0
 17 18  1  0  0  0  0
 17 16  2  0  0  0  0
 19 27  1  0  0  0  0
 20 24  1  0  0  0  0
 21 18  1  0  0  0  0
 21 22  1  0  0  0  0
 23 28  2  0  0  0  0
 24 19  2  0  0  0  0
 25 23  1  1  0  0  0
 25 20  1  0  0  0  0
 25 26  1  0  0  0  0
 26 22  1  6  0  0  0
 26 27  1  0  0  0  0
 28 21  1  0  0  0  0
 29 30  1  0  0  0  0
 30 31  1  0  0  0  0
 32 31  1  0  0  0  0
 33 35  1  6  0  0  0
 33 36  1  0  0  0  0
 35 34  1  0  0  0  0
 36 38  1  0  0  0  0
 37 39  2  0  0  0  0
 38 37  1  0  0  0  0
 40 41  2  0  0  0  0
 41 37  1  0  0  0  0
 41 42  1  0  0  0  0
 43 42  2  0  0  0  0
 44 43  2  0  0  0  0
 44 45  1  0  0  0  0
 45 46  1  0  0  0  0
 46 52  1  0  0  0  0
 47 50  1  0  0  0  0
 47 49  2  0  0  0  0
 48 47  1  0  0  0  0
 51 53  2  0  0  0  0
 52 51  1  0  0  0  0
 52 48  2  0  0  0  0
 53 54  1  0  0  0  0
 53 50  1  0  0  0  0
 56 55  1  6  0  0  0
 56 54  1  0  0  0  0
 57 56  1  0  0  0  0
 58 57  1  0  0  0  0
 59 57  1  0  0  0  0
 60 61  1  0  0  0  0
 60 44  1  0  0  0  0
 61 62  1  0  0  0  0
M  END
>  <MODEL>
5

>  <REMARK>
 VINA RESULT:      -2.0      3.517      9.934
  Name = 
  24 active torsions:
  status: ('A' for Active; 'I' for Inactive)
    1  A    between atoms: C_1  and  C_9
    2  A    between atoms: C_1  and  N_35
    3  A    between atoms: C_1  and  N_61
    4  A    between atoms: C_4  and  O_34
    5  A    between atoms: C_4  and  C_58
    6  A    between atoms: N_5  and  C_9
    7  A    between atoms: C_6  and  C_10
    8  A    between atoms: C_6  and  C_27
    9  A    between atoms: C_6  and  C_59
   10  A    between atoms: C_8  and  C_24
   11  A    between atoms: C_10  and  N_45
   12  A    between atoms: C_14  and  C_39
   13  A    between atoms: O_15  and  O_46
   14  A    between atoms: O_15  and  C_58
   15  A    between atoms: C_18  and  C_52
   16  A    between atoms: O_21  and  C_52
   17  A    between atoms: O_21  and  C_56
   18  A    between atoms: C_24  and  N_35
   19  A    between atoms: C_25  and  N_40
   20  A    between atoms: N_26  and  C_33
   21  A    between atoms: C_30  and  C_39
   22  A    between atoms: C_33  and  C_62
   23  A    between atoms: N_41  and  C_48
   24  A    between atoms: O_46  and  C_55
                            x       y       z     vdW  Elec       q    Type
                         _______ _______ _______ _____ _____    ______ ____

>  <TORSDO>
F 24

$$$$
=
 OpenBabel11042422553D

 62 65  0  0  1  0  0  0  0  0999 V2000
  160.8710  204.6990  148.7820 C   0  0  0  0  0  0  0  0  0  0  0  0
  159.8460  205.0980  148.1600 O   0  0  0  0  0  0  0  0  0  0  0  0
  161.6210  205.6300  149.5700 N   0  0  0  0  0  2  0  0  0  0  0  0
  161.8350  210.2290  147.7630 N   0  0  0  0  0  2  0  0  0  0  0  0
  162.4180  209.1300  149.7950 N   0  0  0  0  0  0  0  0  0  0  0  0
  162.3320  207.8410  150.4470 C   0  0  0  0  0  2  0  0  0  0  0  0
  161.9430  209.0690  148.5970 C   0  0  0  0  0  0  0  0  0  0  0  0
  161.3390  207.0710  149.6000 C   0  0  1  0  0  3  0  0  0  0  0  0
  161.3680  207.7540  148.2200 C   0  0  2  0  0  3  0  0  0  0  0  0
  162.7660  205.8770  145.1450 C   0  0  0  0  0  1  0  0  0  0  0  0
  161.7830  206.4680  146.0950 C   0  0  0  0  0  0  0  0  0  0  0  0
  160.5500  206.4540  145.8160 O   0  0  0  0  0  0  0  0  0  0  0  0
  162.2680  207.0780  147.2970 N   0  0  0  0  0  2  0  0  0  0  0  0
  161.8810  211.5640  148.3490 C   0  0  0  0  0  2  0  0  0  0  0  0
  161.2840  212.6320  147.4270 C   0  0  1  0  0  3  0  0  0  0  0  0
  160.2910  211.9990  146.5840 N   0  0  0  0  0  0  0  0  0  0  0  0
  160.0410  212.3570  145.3690 C   0  0  0  0  0  3  0  0  0  0  0  0
  160.7760  213.4600  144.6540 C   0  0  0  0  0  2  0  0  0  0  0  0
  164.2980  213.2990  139.5800 C   0  0  0  0  0  3  0  0  0  0  0  0
  161.8750  213.3030  139.0900 C   0  0  0  0  0  2  0  0  0  0  0  0
  161.0770  213.0990  143.2720 N   0  0  0  0  0  0  0  0  0  0  0  0
  162.4900  213.1610  142.8490 C   0  0  0  0  0  2  0  0  0  0  0  0
  160.2890  212.8560  140.9930 C   0  0  0  0  0  3  0  0  0  0  0  0
  163.3040  213.0540  138.7080 C   0  0  0  0  0  3  0  0  0  0  0  0
  161.7120  212.8150  140.5210 C   0  0  2  0  0  3  0  0  0  0  0  0
  162.5810  213.6970  141.4270 C   0  0  2  0  0  3  0  0  0  0  0  0
  164.0280  213.8780  140.9510 C   0  0  0  0  0  2  0  0  0  0  0  0
  160.0190  212.9750  142.3020 C   0  0  0  0  0  3  0  0  0  0  0  0
  160.6480  213.6990  148.2030 N   0  0  0  0  0  2  0  0  0  0  0  0
  159.3820  214.0030  147.5310 C   0  0  0  0  0  2  0  0  0  0  0  0
  158.2630  214.0010  148.5480 C   0  0  0  0  0  2  0  0  0  0  0  0
  156.9450  213.5980  147.8830 C   0  0  0  0  0  1  0  0  0  0  0  0
  161.2050  203.2230  148.7780 C   0  0  2  0  0  3  0  0  0  0  0  0
  161.1930  201.1320  147.4040 C   0  0  0  0  0  1  0  0  0  0  0  0
  160.4780  202.4550  147.6820 C   0  0  0  0  0  2  0  0  0  0  0  0
  160.8640  202.5950  150.1180 C   0  0  0  0  0  2  0  0  0  0  0  0
  160.4690  204.1670  152.0520 C   0  0  0  0  0  0  0  0  0  0  0  0
  160.0140  203.4870  150.8860 N   0  0  0  0  0  2  0  0  0  0  0  0
  159.6230  204.7170  152.8090 O   0  0  0  0  0  0  0  0  0  0  0  0
  162.8080  202.8980  152.3770 S   0  0  0  0  0  0  0  0  0  0  0  0
  161.8990  204.2570  152.3710 C   0  0  0  0  0  0  0  0  0  0  0  0
  162.5210  205.5260  152.7880 C   0  0  0  0  0  3  0  0  0  0  0  0
  161.8720  206.4360  153.4760 C   0  0  0  0  0  0  0  0  0  0  0  0
  161.1910  207.3290  154.1290 C   0  0  0  0  0  0  0  0  0  0  0  0
  160.8460  208.5440  153.5290 O   0  0  0  0  0  0  0  0  0  0  0  0
  159.6930  209.1900  153.8780 O   0  0  0  0  0  0  0  0  0  0  0  0
  159.9670  212.4190  152.1550 C   0  0  0  0  0  0  0  0  0  0  0  0
  160.1390  211.0490  152.5260 N   0  0  0  0  0  0  0  0  0  0  0  0
  160.3610  212.8150  151.0160 O   0  0  0  0  0  0  0  0  0  0  0  0
  159.2920  213.3870  153.0840 C   0  0  0  0  0  2  0  0  0  0  0  0
  158.6490  211.3640  154.3850 C   0  0  0  0  0  3  0  0  0  0  0  0
  159.5360  210.5390  153.5630 C   0  0  0  0  0  0  0  0  0  0  0  0
  158.4810  212.6660  154.1530 C   0  0  0  0  0  0  0  0  0  0  0  0
  157.5630  213.3580  154.9490 O   0  0  0  0  0  0  0  0  0  0  0  0
  158.1910  213.8100  157.1850 C   0  0  0  0  0  1  0  0  0  0  0  0
  157.2490  213.0190  156.2950 C   0  0  1  0  0  3  0  0  0  0  0  0
  155.7950  213.4320  156.5860 C   0  0  0  0  0  3  0  0  0  0  0  0
  155.1270  213.7230  155.3850 O   0  0  0  0  0  1  0  0  0  0  0  0
  155.1460  212.3930  157.2610 O   0  0  0  0  0  1  0  0  0  0  0  0
  160.7280  207.0560  155.5300 C   0  0  0  0  0  2  0  0  0  0  0  0
  161.7740  207.3340  156.4190 O   0  0  0  0  0  0  0  0  0  0  0  0
  161.7720  208.6580  156.5470 O   0  0  0  0  0  1  0  0  0  0  0  0
  1  3  1  0  0  0  0
  2  1  2  0  0  0  0
  4 14  1  0  0  0  0
  4  7  1  0  0  0  0
  5  6  1  0  0  0  0
  7  5  2  0  0  0  0
  8  3  1  6  0  0  0
  8  6  1  0  0  0  0
  9 13  1  6  0  0  0
  9  7  1  0  0  0  0
  9  8  1  0  0  0  0
 10 11  1  0  0  0  0
 11 13  1  0  0  0  0
 12 11  2  0  0  0  0
 15 29  1  0  0  0  0
 15 14  1  1  0  0  0
 16 15  1  0  0  0  0
 17 16  2  0  0  0  0
 18 17  1  0  0  0  0
 19 27  1  0  0  0  0
 21 18  1  0  0  0  0
 22 21  1  0  0  0  0
 23 28  2  0  0  0  0
 24 20  1  0  0  0  0
 24 19  2  0  0  0  0
 25 20  1  6  0  0  0
 25 23  1  0  0  0  0
 25 26  1  0  0  0  0
 26 27  1  6  0  0  0
 26 22  1  0  0  0  0
 28 21  1  0  0  0  0
 30 29  1  0  0  0  0
 30 31  1  0  0  0  0
 32 31  1  0  0  0  0
 33 35  1  6  0  0  0
 33  1  1  0  0  0  0
 33 36  1  0  0  0  0
 34 35  1  0  0  0  0
 36 38  1  0  0  0  0
 37 41  1  0  0  0  0
 37 39  2  0  0  0  0
 38 37  1  0  0  0  0
 41 40  2  0  0  0  0
 41 42  1  0  0  0  0
 42 43  2  0  0  0  0
 43 44  2  0  0  0  0
 44 60  1  0  0  0  0
 45 46  1  0  0  0  0
 45 44  1  0  0  0  0
 47 48  1  0  0  0  0
 47 50  1  0  0  0  0
 48 52  2  0  0  0  0
 49 47  2  0  0  0  0
 50 53  1  0  0  0  0
 52 46  1  0  0  0  0
 52 51  1  0  0  0  0
 53 51  2  0  0  0  0
 53 54  1  0  0  0  0
 54 56  1  0  0  0  0
 56 57  1  0  0  0  0
 56 55  1  1  0  0  0
 57 59  1  0  0  0  0
 58 57  1  0  0  0  0
 60 61  1  0  0  0  0
 61 62  1  0  0  0  0
M  END
>  <MODEL>
6

>  <REMARK>
 VINA RESULT:      -1.9      2.711      8.553
  Name = 
  24 active torsions:
  status: ('A' for Active; 'I' for Inactive)
    1  A    between atoms: C_1  and  C_9
    2  A    between atoms: C_1  and  N_35
    3  A    between atoms: C_1  and  N_61
    4  A    between atoms: C_4  and  O_34
    5  A    between atoms: C_4  and  C_58
    6  A    between atoms: N_5  and  C_9
    7  A    between atoms: C_6  and  C_10
    8  A    between atoms: C_6  and  C_27
    9  A    between atoms: C_6  and  C_59
   10  A    between atoms: C_8  and  C_24
   11  A    between atoms: C_10  and  N_45
   12  A    between atoms: C_14  and  C_39
   13  A    between atoms: O_15  and  O_46
   14  A    between atoms: O_15  and  C_58
   15  A    between atoms: C_18  and  C_52
   16  A    between atoms: O_21  and  C_52
   17  A    between atoms: O_21  and  C_56
   18  A    between atoms: C_24  and  N_35
   19  A    between atoms: C_25  and  N_40
   20  A    between atoms: N_26  and  C_33
   21  A    between atoms: C_30  and  C_39
   22  A    between atoms: C_33  and  C_62
   23  A    between atoms: N_41  and  C_48
   24  A    between atoms: O_46  and  C_55
                            x       y       z     vdW  Elec       q    Type
                         _______ _______ _______ _____ _____    ______ ____

>  <TORSDO>
F 24

$$$$
=
 OpenBabel11042422553D

 62 65  0  0  1  0  0  0  0  0999 V2000
  160.3540  204.4610  150.7680 C   0  0  0  0  0  0  0  0  0  0  0  0
  159.7010  205.3530  150.1570 O   0  0  0  0  0  0  0  0  0  0  0  0
  160.8240  204.7170  152.0950 N   0  0  0  0  0  2  0  0  0  0  0  0
  161.8810  209.5140  152.6800 N   0  0  0  0  0  2  0  0  0  0  0  0
  161.9290  207.5460  154.0230 N   0  0  0  0  0  0  0  0  0  0  0  0
  161.5780  206.1430  153.9830 C   0  0  0  0  0  2  0  0  0  0  0  0
  161.6970  208.1070  152.8850 C   0  0  0  0  0  0  0  0  0  0  0  0
  160.6970  206.0220  152.7560 C   0  0  1  0  0  3  0  0  0  0  0  0
  161.0710  207.2240  151.8690 C   0  0  2  0  0  3  0  0  0  0  0  0
  163.3590  207.3210  148.7560 C   0  0  0  0  0  1  0  0  0  0  0  0
  162.2680  207.6850  149.7020 C   0  0  0  0  0  0  0  0  0  0  0  0
  161.5680  208.7170  149.4890 O   0  0  0  0  0  0  0  0  0  0  0  0
  162.0600  206.8690  150.8600 N   0  0  0  0  0  2  0  0  0  0  0  0
  161.9520  210.4200  153.8200 C   0  0  0  0  0  2  0  0  0  0  0  0
  160.8280  211.4600  153.8160 C   0  0  1  0  0  3  0  0  0  0  0  0
  159.8440  211.0620  152.8310 N   0  0  0  0  0  0  0  0  0  0  0  0
  159.5230  211.7720  151.8020 C   0  0  0  0  0  3  0  0  0  0  0  0
  160.1560  213.0980  151.4710 C   0  0  0  0  0  2  0  0  0  0  0  0
  156.5510  214.2780  146.5940 C   0  0  0  0  0  3  0  0  0  0  0  0
  158.7800  213.4090  145.9760 C   0  0  0  0  0  2  0  0  0  0  0  0
  159.8990  213.4870  150.0880 N   0  0  0  0  0  0  0  0  0  0  0  0
  158.5250  213.9060  149.7470 C   0  0  0  0  0  2  0  0  0  0  0  0
  160.5560  213.3490  147.7600 C   0  0  0  0  0  3  0  0  0  0  0  0
  157.5020  214.1260  145.6570 C   0  0  0  0  0  3  0  0  0  0  0  0
  159.2050  213.8660  147.3630 C   0  0  2  0  0  3  0  0  0  0  0  0
  158.1520  213.3790  148.3670 C   0  0  2  0  0  3  0  0  0  0  0  0
  156.7010  213.6960  147.9820 C   0  0  0  0  0  2  0  0  0  0  0  0
  160.8620  213.1960  149.0560 C   0  0  0  0  0  3  0  0  0  0  0  0
  160.1860  211.5440  155.1300 N   0  0  0  0  0  2  0  0  0  0  0  0
  158.7660  211.2490  154.9190 C   0  0  0  0  0  2  0  0  0  0  0  0
  158.0730  211.1400  156.2580 C   0  0  0  0  0  2  0  0  0  0  0  0
  156.8430  212.0490  156.2930 C   0  0  0  0  0  1  0  0  0  0  0  0
  160.5150  203.0990  150.1250 C   0  0  2  0  0  3  0  0  0  0  0  0
  161.7560  200.9290  150.0410 C   0  0  0  0  0  1  0  0  0  0  0  0
  161.6280  202.2740  150.7580 C   0  0  0  0  0  2  0  0  0  0  0  0
  160.8000  203.2410  148.6400 C   0  0  0  0  0  2  0  0  0  0  0  0
  159.7890  202.2850  146.5340 C   0  0  0  0  0  0  0  0  0  0  0  0
  159.6630  202.7740  147.8670 N   0  0  0  0  0  2  0  0  0  0  0  0
  158.7500  202.1380  145.8360 O   0  0  0  0  0  0  0  0  0  0  0  0
  161.5540  200.3620  145.9270 S   0  0  0  0  0  0  0  0  0  0  0  0
  161.0990  201.9320  145.9740 C   0  0  0  0  0  0  0  0  0  0  0  0
  162.0610  202.9610  145.5450 C   0  0  0  0  0  3  0  0  0  0  0  0
  161.6870  204.0760  144.9620 C   0  0  0  0  0  0  0  0  0  0  0  0
  161.2840  205.1540  144.3600 C   0  0  0  0  0  0  0  0  0  0  0  0
  161.5730  205.3680  143.0090 O   0  0  0  0  0  0  0  0  0  0  0  0
  161.8440  206.6250  142.5460 O   0  0  0  0  0  0  0  0  0  0  0  0
  162.4180  206.2100  138.9450 C   0  0  0  0  0  0  0  0  0  0  0  0
  162.4180  206.0110  140.3610 N   0  0  0  0  0  0  0  0  0  0  0  0
  162.7410  205.2530  138.1770 O   0  0  0  0  0  0  0  0  0  0  0  0
  162.0060  207.5270  138.3550 C   0  0  0  0  0  2  0  0  0  0  0  0
  161.2070  208.0660  140.6510 C   0  0  0  0  0  3  0  0  0  0  0  0
  161.8620  206.8650  141.1730 C   0  0  0  0  0  0  0  0  0  0  0  0
  161.2160  208.3660  139.3520 C   0  0  0  0  0  0  0  0  0  0  0  0
  160.5080  209.4980  138.9380 O   0  0  0  0  0  0  0  0  0  0  0  0
  161.9130  210.7320  140.3890 C   0  0  0  0  0  1  0  0  0  0  0  0
  160.7570  210.8180  139.4080 C   0  0  1  0  0  3  0  0  0  0  0  0
  161.1580  211.7050  138.2150 C   0  0  0  0  0  3  0  0  0  0  0  0
  160.7210  211.1210  137.0130 O   0  0  0  0  0  1  0  0  0  0  0  0
  160.5910  212.9730  138.3710 O   0  0  0  0  0  1  0  0  0  0  0  0
  160.4670  206.1760  145.0960 C   0  0  0  0  0  2  0  0  0  0  0  0
  160.3930  205.8140  146.4480 O   0  0  0  0  0  0  0  0  0  0  0  0
  160.0690  206.9360  147.0840 O   0  0  0  0  0  1  0  0  0  0  0  0
  1  3  1  0  0  0  0
  2  1  2  0  0  0  0
  4  7  1  0  0  0  0
  4 14  1  0  0  0  0
  6  5  1  0  0  0  0
  7  5  2  0  0  0  0
  8  3  1  6  0  0  0
  8  6  1  0  0  0  0
  9 13  1  6  0  0  0
  9  8  1  0  0  0  0
  9  7  1  0  0  0  0
 10 11  1  0  0  0  0
 11 13  1  0  0  0  0
 12 11  2  0  0  0  0
 15 14  1  1  0  0  0
 15 29  1  0  0  0  0
 16 15  1  0  0  0  0
 17 16  2  0  0  0  0
 18 17  1  0  0  0  0
 19 27  1  0  0  0  0
 21 18  1  0  0  0  0
 22 21  1  0  0  0  0
 23 28  2  0  0  0  0
 24 20  1  0  0  0  0
 24 19  2  0  0  0  0
 25 20  1  6  0  0  0
 25 23  1  0  0  0  0
 25 26  1  0  0  0  0
 26 27  1  6  0  0  0
 26 22  1  0  0  0  0
 28 21  1  0  0  0  0
 30 29  1  0  0  0  0
 30 31  1  0  0  0  0
 31 32  1  0  0  0  0
 33 36  1  6  0  0  0
 33 35  1  0  0  0  0
 33  1  1  0  0  0  0
 34 35  1  0  0  0  0
 37 38  1  0  0  0  0
 38 36  1  0  0  0  0
 39 37  2  0  0  0  0
 40 41  2  0  0  0  0
 41 37  1  0  0  0  0
 42 41  1  0  0  0  0
 43 42  2  0  0  0  0
 44 43  2  0  0  0  0
 44 60  1  0  0  0  0
 45 44  1  0  0  0  0
 46 45  1  0  0  0  0
 47 48  1  0  0  0  0
 48 52  2  0  0  0  0
 49 47  2  0  0  0  0
 50 47  1  0  0  0  0
 50 53  1  0  0  0  0
 51 52  1  0  0  0  0
 52 46  1  0  0  0  0
 53 51  2  0  0  0  0
 54 53  1  0  0  0  0
 54 56  1  0  0  0  0
 56 55  1  1  0  0  0
 57 59  1  0  0  0  0
 57 56  1  0  0  0  0
 58 57  1  0  0  0  0
 60 61  1  0  0  0  0
 61 62  1  0  0  0  0
M  END
>  <MODEL>
7

>  <REMARK>
 VINA RESULT:      -1.7      2.475      5.975
  Name = 
  24 active torsions:
  status: ('A' for Active; 'I' for Inactive)
    1  A    between atoms: C_1  and  C_9
    2  A    between atoms: C_1  and  N_35
    3  A    between atoms: C_1  and  N_61
    4  A    between atoms: C_4  and  O_34
    5  A    between atoms: C_4  and  C_58
    6  A    between atoms: N_5  and  C_9
    7  A    between atoms: C_6  and  C_10
    8  A    between atoms: C_6  and  C_27
    9  A    between atoms: C_6  and  C_59
   10  A    between atoms: C_8  and  C_24
   11  A    between atoms: C_10  and  N_45
   12  A    between atoms: C_14  and  C_39
   13  A    between atoms: O_15  and  O_46
   14  A    between atoms: O_15  and  C_58
   15  A    between atoms: C_18  and  C_52
   16  A    between atoms: O_21  and  C_52
   17  A    between atoms: O_21  and  C_56
   18  A    between atoms: C_24  and  N_35
   19  A    between atoms: C_25  and  N_40
   20  A    between atoms: N_26  and  C_33
   21  A    between atoms: C_30  and  C_39
   22  A    between atoms: C_33  and  C_62
   23  A    between atoms: N_41  and  C_48
   24  A    between atoms: O_46  and  C_55
                            x       y       z     vdW  Elec       q    Type
                         _______ _______ _______ _____ _____    ______ ____

>  <TORSDO>
F 24

$$$$
