=
 OpenBabel11042421493D

 42 44  0  0  1  0  0  0  0  0999 V2000
  161.8700  208.6480  152.4160 C   0  0  1  0  0  3  0  0  0  0  0  0
  162.1900  208.7950  150.9200 C   0  0  1  0  0  3  0  0  0  0  0  0
  161.2440  208.1080  150.1570 O   0  0  0  0  0  1  0  0  0  0  0  0
  161.7210  209.7760  148.2900 O   0  0  0  0  0  0  0  0  0  0  0  0
  162.1870  210.2000  150.5350 N   0  0  0  0  0  2  0  0  0  0  0  0
  161.9100  212.0320  148.9100 N   0  0  0  0  0  2  0  0  0  0  0  0
  161.9290  210.6280  149.1980 C   0  0  0  0  0  0  0  0  0  0  0  0
  162.5480  213.7090  145.5300 C   0  0  0  0  0  2  0  0  0  0  0  0
  159.6020  213.9250  148.1160 C   0  0  0  0  0  1  0  0  0  0  0  0
  160.2510  212.8890  147.2130 C   0  0  1  0  0  3  0  0  0  0  0  0
  160.0890  213.3060  145.7450 C   0  0  1  0  0  3  0  0  0  0  0  0
  161.1630  214.3210  145.3510 C   0  0  0  0  0  2  0  0  0  0  0  0
  162.7130  213.0950  146.8910 C   0  0  0  0  0  3  0  0  0  0  0  0
  161.6850  212.6560  147.6350 C   0  0  0  0  0  0  0  0  0  0  0  0
  159.4490  212.5430  143.7690 C   0  0  0  0  0  1  0  0  0  0  0  0
  160.1560  212.1840  144.9160 O   0  0  0  0  0  0  0  0  0  0  0  0
  159.5820  209.5490  153.0870 C   0  0  0  0  0  1  0  0  0  0  0  0
  161.0680  209.8440  152.9490 C   0  0  1  0  0  3  0  0  0  0  0  0
  161.7410  210.4330  154.5310 S   0  0  0  0  0  0  0  0  0  0  0  0
  160.1360  211.1150  155.0370 C   0  0  1  0  0  3  0  0  0  0  0  0
  159.2130  211.3880  157.2140 O   0  0  0  0  0  1  0  0  0  0  0  0
  160.0540  209.3040  156.7580 O   0  0  0  0  0  0  0  0  0  0  0  0
  159.7770  210.6180  156.3950 C   0  0  0  0  0  0  0  0  0  0  0  0
  160.1990  212.5110  155.0440 O   0  0  0  0  0  0  0  0  0  0  0  0
  158.9800  213.0270  153.9830 P   0  0  0  0  0  0  0  0  0  0  0  0
  157.6140  212.0440  154.1470 O   0  0  0  0  0  1  0  0  0  0  0  0
  159.5350  212.9610  152.3860 O   0  0  0  0  0  0  0  0  0  0  0  0
  158.6060  214.4530  154.3160 O   0  0  0  0  0  1  0  0  0  0  0  0
  161.2190  207.3050  152.7960 C   0  0  2  0  0  3  0  0  0  0  0  0
  160.8390  207.2730  154.2640 C   0  0  0  0  0  1  0  0  0  0  0  0
  162.0770  206.1720  152.4680 N   0  0  0  0  0  2  0  0  0  0  0  0
  161.3010  203.5440  148.3770 N   0  0  0  0  0  0  0  0  0  0  0  0
  160.5790  201.5980  147.0870 N   0  0  0  0  0  1  0  0  0  0  0  0
  160.5980  202.8030  151.7470 C   0  0  0  0  0  3  0  0  0  0  0  0
  160.3830  201.8040  149.5130 N   0  0  0  0  0  0  0  0  0  0  0  0
  160.7520  202.3100  148.3070 C   0  0  0  0  0  0  0  0  0  0  0  0
  161.2800  203.8410  149.6820 C   0  0  0  0  0  0  0  0  0  0  0  0
  161.8120  204.3560  147.2830 C   0  0  0  0  0  1  0  0  0  0  0  0
  161.6150  205.0380  151.7310 C   0  0  0  0  0  0  0  0  0  0  0  0
  160.7320  202.7920  150.3610 C   0  0  0  0  0  0  0  0  0  0  0  0
  161.7370  204.9880  150.3250 C   0  0  0  0  0  3  0  0  0  0  0  0
  161.0520  203.9470  152.4320 C   0  0  0  0  0  3  0  0  0  0  0  0
  1  2  1  6  0  0  0
  1 29  1  0  0  0  0
  1 18  1  0  0  0  0
  2  3  1  6  0  0  0
  4  7  2  0  0  0  0
  5  2  1  0  0  0  0
  6  7  1  0  0  0  0
  7  5  1  0  0  0  0
  8 13  1  0  0  0  0
 10 14  1  0  0  0  0
 10  9  1  1  0  0  0
 11 16  1  6  0  0  0
 11 10  1  0  0  0  0
 12  8  1  0  0  0  0
 12 11  1  0  0  0  0
 13 14  2  0  0  0  0
 14  6  1  0  0  0  0
 15 16  1  0  0  0  0
 18 17  1  1  0  0  0
 18 19  1  0  0  0  0
 20 19  1  1  0  0  0
 20 24  1  0  0  0  0
 20 23  1  0  0  0  0
 23 22  2  0  0  0  0
 23 21  1  0  0  0  0
 25 26  1  0  0  0  0
 25 28  1  0  0  0  0
 25 24  1  0  0  0  0
 27 25  2  0  0  0  0
 29 30  1  1  0  0  0
 31 29  1  0  0  0  0
 32 37  1  0  0  0  0
 33 36  1  0  0  0  0
 34 42  1  0  0  0  0
 35 40  1  0  0  0  0
 36 32  1  0  0  0  0
 36 35  2  0  0  0  0
 37 41  2  0  0  0  0
 37 40  1  0  0  0  0
 38 32  1  0  0  0  0
 39 42  2  0  0  0  0
 39 31  1  0  0  0  0
 40 34  2  0  0  0  0
 41 39  1  0  0  0  0
M  END
>  <MODEL>
1

>  <REMARK>
 VINA RESULT:      -7.4      0.000      0.000
  Name = 
  13 active torsions:
  status: ('A' for Active; 'I' for Inactive)
    1  A    between atoms: N_3  and  C_19
    2  A    between atoms: N_3  and  C_29
    3  A    between atoms: P_7  and  O_42
    4  A    between atoms: C_12  and  N_15
    5  A    between atoms: C_12  and  C_36
    6  A    between atoms: C_16  and  S_27
    7  A    between atoms: C_16  and  C_41
    8  A    between atoms: C_16  and  O_42
    9  A    between atoms: N_22  and  C_33
   10  A    between atoms: C_25  and  O_30
   11  A    between atoms: S_27  and  C_38
   12  A    between atoms: C_29  and  C_36
   13  A    between atoms: C_36  and  C_38
                            x       y       z     vdW  Elec       q    Type
                         _______ _______ _______ _____ _____    ______ ____

>  <TORSDO>
F 13

$$$$
=
 OpenBabel11042421493D

 42 44  0  0  1  0  0  0  0  0999 V2000
  161.9270  208.0910  152.4800 C   0  0  1  0  0  3  0  0  0  0  0  0
  162.0230  208.3530  150.9690 C   0  0  1  0  0  3  0  0  0  0  0  0
  160.9650  207.7300  150.3050 O   0  0  0  0  0  1  0  0  0  0  0  0
  161.8350  209.5290  148.3850 O   0  0  0  0  0  0  0  0  0  0  0  0
  161.9830  209.7840  150.6970 N   0  0  0  0  0  2  0  0  0  0  0  0
  161.8030  211.7310  149.1970 N   0  0  0  0  0  2  0  0  0  0  0  0
  161.8720  210.3100  149.3750 C   0  0  0  0  0  0  0  0  0  0  0  0
  162.7680  213.4800  145.9330 C   0  0  0  0  0  2  0  0  0  0  0  0
  159.8100  213.9740  148.4670 C   0  0  0  0  0  1  0  0  0  0  0  0
  160.3310  212.9070  147.5190 C   0  0  1  0  0  3  0  0  0  0  0  0
  160.2710  213.4230  146.0750 C   0  0  1  0  0  3  0  0  0  0  0  0
  161.4890  214.2930  145.7620 C   0  0  0  0  0  2  0  0  0  0  0  0
  162.8060  212.7760  147.2600 C   0  0  0  0  0  3  0  0  0  0  0  0
  161.7050  212.4490  147.9560 C   0  0  0  0  0  0  0  0  0  0  0  0
  159.1650  212.6740  144.3110 C   0  0  0  0  0  1  0  0  0  0  0  0
  160.2020  212.3490  145.1840 O   0  0  0  0  0  0  0  0  0  0  0  0
  162.4490  210.4110  153.3950 C   0  0  0  0  0  1  0  0  0  0  0  0
  161.4040  209.3180  153.2410 C   0  0  1  0  0  3  0  0  0  0  0  0
  159.9070  209.9870  152.4560 S   0  0  0  0  0  0  0  0  0  0  0  0
  159.7970  211.3380  153.6640 C   0  0  1  0  0  3  0  0  0  0  0  0
  159.9310  212.7900  151.7820 O   0  0  0  0  0  0  0  0  0  0  0  0
  158.8260  213.6410  153.6020 O   0  0  0  0  0  1  0  0  0  0  0  0
  159.5280  212.6250  152.9620 C   0  0  0  0  0  0  0  0  0  0  0  0
  158.7720  211.0710  154.5760 O   0  0  0  0  0  0  0  0  0  0  0  0
  159.5080  211.0860  156.1040 P   0  0  0  0  0  0  0  0  0  0  0  0
  159.9860  209.5210  156.5340 O   0  0  0  0  0  1  0  0  0  0  0  0
  158.4280  211.6850  157.2610 O   0  0  0  0  0  1  0  0  0  0  0  0
  160.7260  211.9800  156.0570 O   0  0  0  0  0  0  0  0  0  0  0  0
  161.1540  206.8120  152.8530 C   0  0  2  0  0  3  0  0  0  0  0  0
  160.6750  206.8590  154.2920 C   0  0  0  0  0  1  0  0  0  0  0  0
  161.9470  205.6090  152.6200 N   0  0  0  0  0  2  0  0  0  0  0  0
  161.3220  203.5210  148.2040 N   0  0  0  0  0  0  0  0  0  0  0  0
  160.6820  201.7410  146.6560 N   0  0  0  0  0  1  0  0  0  0  0  0
  160.5850  202.3240  151.4330 C   0  0  0  0  0  3  0  0  0  0  0  0
  160.4390  201.6210  149.0840 N   0  0  0  0  0  0  0  0  0  0  0  0
  160.8130  202.2920  147.9620 C   0  0  0  0  0  0  0  0  0  0  0  0
  161.2690  203.6430  149.5360 C   0  0  0  0  0  0  0  0  0  0  0  0
  161.8260  204.4840  147.2370 C   0  0  0  0  0  1  0  0  0  0  0  0
  161.5330  204.5690  151.7310 C   0  0  0  0  0  0  0  0  0  0  0  0
  160.7420  202.4980  150.0610 C   0  0  0  0  0  0  0  0  0  0  0  0
  161.6790  204.7090  150.3340 C   0  0  0  0  0  3  0  0  0  0  0  0
  160.9910  203.3800  152.2710 C   0  0  0  0  0  3  0  0  0  0  0  0
  1  2  1  6  0  0  0
  1 29  1  0  0  0  0
  1 18  1  0  0  0  0
  2  3  1  6  0  0  0
  4  7  2  0  0  0  0
  5  2  1  0  0  0  0
  6  7  1  0  0  0  0
  7  5  1  0  0  0  0
  8 13  1  0  0  0  0
 10 14  1  0  0  0  0
 10  9  1  1  0  0  0
 11 16  1  6  0  0  0
 11 10  1  0  0  0  0
 12  8  1  0  0  0  0
 12 11  1  0  0  0  0
 13 14  2  0  0  0  0
 14  6  1  0  0  0  0
 15 16  1  0  0  0  0
 18 17  1  6  0  0  0
 19 18  1  0  0  0  0
 20 19  1  6  0  0  0
 20 24  1  0  0  0  0
 21 23  2  0  0  0  0
 23 22  1  0  0  0  0
 23 20  1  0  0  0  0
 24 25  1  0  0  0  0
 25 26  1  0  0  0  0
 25 27  1  0  0  0  0
 28 25  2  0  0  0  0
 29 30  1  1  0  0  0
 31 29  1  0  0  0  0
 32 37  1  0  0  0  0
 33 36  1  0  0  0  0
 34 42  1  0  0  0  0
 35 40  1  0  0  0  0
 36 32  1  0  0  0  0
 36 35  2  0  0  0  0
 37 40  1  0  0  0  0
 37 41  2  0  0  0  0
 38 32  1  0  0  0  0
 39 42  2  0  0  0  0
 39 31  1  0  0  0  0
 40 34  2  0  0  0  0
 41 39  1  0  0  0  0
M  END
>  <MODEL>
2

>  <REMARK>
 VINA RESULT:      -7.1      1.010      2.037
  Name = 
  13 active torsions:
  status: ('A' for Active; 'I' for Inactive)
    1  A    between atoms: N_3  and  C_19
    2  A    between atoms: N_3  and  C_29
    3  A    between atoms: P_7  and  O_42
    4  A    between atoms: C_12  and  N_15
    5  A    between atoms: C_12  and  C_36
    6  A    between atoms: C_16  and  S_27
    7  A    between atoms: C_16  and  C_41
    8  A    between atoms: C_16  and  O_42
    9  A    between atoms: N_22  and  C_33
   10  A    between atoms: C_25  and  O_30
   11  A    between atoms: S_27  and  C_38
   12  A    between atoms: C_29  and  C_36
   13  A    between atoms: C_36  and  C_38
                            x       y       z     vdW  Elec       q    Type
                         _______ _______ _______ _____ _____    ______ ____

>  <TORSDO>
F 13

$$$$
=
 OpenBabel11042421493D

 42 44  0  0  1  0  0  0  0  0999 V2000
  161.8810  208.0370  152.2620 C   0  0  1  0  0  3  0  0  0  0  0  0
  161.3480  208.6620  150.9630 C   0  0  1  0  0  3  0  0  0  0  0  0
  161.5410  210.0450  150.9810 O   0  0  0  0  0  1  0  0  0  0  0  0
  160.0800  207.3580  148.7750 O   0  0  0  0  0  0  0  0  0  0  0  0
  162.0350  208.0970  149.8090 N   0  0  0  0  0  2  0  0  0  0  0  0
  162.0850  206.9700  147.6170 N   0  0  0  0  0  2  0  0  0  0  0  0
  161.3370  207.4690  148.7340 C   0  0  0  0  0  0  0  0  0  0  0  0
  159.6560  205.3780  145.1260 C   0  0  0  0  0  2  0  0  0  0  0  0
  163.4210  204.7000  146.0050 C   0  0  0  0  0  1  0  0  0  0  0  0
  162.5700  205.8180  145.4260 C   0  0  1  0  0  3  0  0  0  0  0  0
  161.9390  205.3580  144.1050 C   0  0  1  0  0  3  0  0  0  0  0  0
  160.6760  204.5360  144.3680 C   0  0  0  0  0  2  0  0  0  0  0  0
  160.2610  206.0300  146.3360 C   0  0  0  0  0  3  0  0  0  0  0  0
  161.5710  206.2980  146.4560 C   0  0  0  0  0  0  0  0  0  0  0  0
  161.8840  206.0380  142.0010 C   0  0  0  0  0  1  0  0  0  0  0  0
  161.6380  206.4630  143.3050 O   0  0  0  0  0  0  0  0  0  0  0  0
  160.8530  207.3810  154.5010 C   0  0  0  0  0  1  0  0  0  0  0  0
  161.0750  208.4930  153.4870 C   0  0  1  0  0  3  0  0  0  0  0  0
  161.8540  209.9260  154.2890 S   0  0  0  0  0  0  0  0  0  0  0  0
  160.2500  210.7350  154.5540 C   0  0  1  0  0  3  0  0  0  0  0  0
  160.4900  209.8190  156.7380 O   0  0  0  0  0  1  0  0  0  0  0  0
  158.6790  211.1930  156.4440 O   0  0  0  0  0  0  0  0  0  0  0  0
  159.8170  210.5510  155.9680 C   0  0  0  0  0  0  0  0  0  0  0  0
  160.3560  212.0970  154.2630 O   0  0  0  0  0  0  0  0  0  0  0  0
  159.2190  212.3900  153.0380 P   0  0  0  0  0  0  0  0  0  0  0  0
  159.9920  212.9990  151.6620 O   0  0  0  0  0  0  0  0  0  0  0  0
  158.0630  213.5020  153.5750 O   0  0  0  0  0  1  0  0  0  0  0  0
  158.5280  211.0930  152.6840 O   0  0  0  0  0  1  0  0  0  0  0  0
  162.0330  206.5060  152.2130 C   0  0  2  0  0  3  0  0  0  0  0  0
  163.3810  206.1040  151.6450 C   0  0  0  0  0  1  0  0  0  0  0  0
  160.9550  205.8750  151.4580 N   0  0  0  0  0  2  0  0  0  0  0  0
  161.1690  202.1570  148.2370 N   0  0  0  0  0  0  0  0  0  0  0  0
  161.2720  199.8140  147.5480 N   0  0  0  0  0  1  0  0  0  0  0  0
  160.9930  202.1380  151.7540 C   0  0  0  0  0  3  0  0  0  0  0  0
  161.1160  200.5730  149.8650 N   0  0  0  0  0  0  0  0  0  0  0  0
  161.1850  200.8380  148.5330 C   0  0  0  0  0  0  0  0  0  0  0  0
  161.0840  202.7620  149.4280 C   0  0  0  0  0  0  0  0  0  0  0  0
  161.2440  202.7770  146.9220 C   0  0  0  0  0  1  0  0  0  0  0  0
  160.9780  204.4980  151.0770 C   0  0  0  0  0  0  0  0  0  0  0  0
  161.0570  201.8070  150.4030 C   0  0  0  0  0  0  0  0  0  0  0  0
  161.0460  204.1230  149.7170 C   0  0  0  0  0  3  0  0  0  0  0  0
  160.9550  203.5070  152.0840 C   0  0  0  0  0  3  0  0  0  0  0  0
  1  2  1  6  0  0  0
  1 18  1  0  0  0  0
  2  3  1  1  0  0  0
  5  2  1  0  0  0  0
  6  7  1  0  0  0  0
  7  4  2  0  0  0  0
  7  5  1  0  0  0  0
  8 13  1  0  0  0  0
 10  9  1  1  0  0  0
 10 14  1  0  0  0  0
 11 16  1  6  0  0  0
 11 12  1  0  0  0  0
 11 10  1  0  0  0  0
 12  8  1  0  0  0  0
 13 14  2  0  0  0  0
 14  6  1  0  0  0  0
 15 16  1  0  0  0  0
 18 19  1  0  0  0  0
 18 17  1  1  0  0  0
 19 20  1  0  0  0  0
 20 24  1  1  0  0  0
 20 23  1  0  0  0  0
 23 22  2  0  0  0  0
 23 21  1  0  0  0  0
 25 27  1  0  0  0  0
 25 24  1  0  0  0  0
 26 25  2  0  0  0  0
 28 25  1  0  0  0  0
 29 30  1  6  0  0  0
 29  1  1  0  0  0  0
 31 29  1  0  0  0  0
 32 36  1  0  0  0  0
 32 37  1  0  0  0  0
 33 36  1  0  0  0  0
 34 42  1  0  0  0  0
 35 40  1  0  0  0  0
 36 35  2  0  0  0  0
 37 41  2  0  0  0  0
 37 40  1  0  0  0  0
 38 32  1  0  0  0  0
 39 31  1  0  0  0  0
 39 42  2  0  0  0  0
 40 34  2  0  0  0  0
 41 39  1  0  0  0  0
M  END
>  <MODEL>
3

>  <REMARK>
 VINA RESULT:      -5.8      3.279      4.206
  Name = 
  13 active torsions:
  status: ('A' for Active; 'I' for Inactive)
    1  A    between atoms: N_3  and  C_19
    2  A    between atoms: N_3  and  C_29
    3  A    between atoms: P_7  and  O_42
    4  A    between atoms: C_12  and  N_15
    5  A    between atoms: C_12  and  C_36
    6  A    between atoms: C_16  and  S_27
    7  A    between atoms: C_16  and  C_41
    8  A    between atoms: C_16  and  O_42
    9  A    between atoms: N_22  and  C_33
   10  A    between atoms: C_25  and  O_30
   11  A    between atoms: S_27  and  C_38
   12  A    between atoms: C_29  and  C_36
   13  A    between atoms: C_36  and  C_38
                            x       y       z     vdW  Elec       q    Type
                         _______ _______ _______ _____ _____    ______ ____

>  <TORSDO>
F 13

$$$$
=
 OpenBabel11042421493D

 42 44  0  0  1  0  0  0  0  0999 V2000
  161.6290  206.8830  151.3070 C   0  0  1  0  0  3  0  0  0  0  0  0
  162.6490  207.7470  150.5490 C   0  0  1  0  0  3  0  0  0  0  0  0
  162.7600  207.3120  149.2270 O   0  0  0  0  0  1  0  0  0  0  0  0
  162.4330  209.4150  148.2540 O   0  0  0  0  0  0  0  0  0  0  0  0
  162.2400  209.1450  150.5620 N   0  0  0  0  0  2  0  0  0  0  0  0
  161.6930  211.2840  149.4660 N   0  0  0  0  0  2  0  0  0  0  0  0
  162.1370  209.9240  149.3700 C   0  0  0  0  0  0  0  0  0  0  0  0
  162.5160  213.7100  146.6240 C   0  0  0  0  0  2  0  0  0  0  0  0
  159.5490  213.4900  149.1850 C   0  0  0  0  0  1  0  0  0  0  0  0
  160.1340  212.6700  148.0470 C   0  0  1  0  0  3  0  0  0  0  0  0
  160.0300  213.4590  146.7340 C   0  0  1  0  0  3  0  0  0  0  0  0
  161.1840  214.4530  146.6090 C   0  0  0  0  0  2  0  0  0  0  0  0
  162.6100  212.7600  147.7830 C   0  0  0  0  0  3  0  0  0  0  0  0
  161.5390  212.2270  148.3930 C   0  0  0  0  0  0  0  0  0  0  0  0
  158.7330  212.6540  145.1330 C   0  0  0  0  0  1  0  0  0  0  0  0
  160.0270  212.5820  145.6470 O   0  0  0  0  0  0  0  0  0  0  0  0
  161.9490  204.4500  151.9980 C   0  0  0  0  0  1  0  0  0  0  0  0
  161.6770  205.4160  150.8550 C   0  0  1  0  0  3  0  0  0  0  0  0
  160.1500  204.9470  149.9880 S   0  0  0  0  0  0  0  0  0  0  0  0
  161.0690  203.9930  148.7450 C   0  0  1  0  0  3  0  0  0  0  0  0
  161.1710  201.6860  148.1680 O   0  0  0  0  0  0  0  0  0  0  0  0
  160.8040  202.1280  150.3880 O   0  0  0  0  0  1  0  0  0  0  0  0
  161.0150  202.5420  149.0780 C   0  0  0  0  0  0  0  0  0  0  0  0
  160.5160  204.2120  147.4810 O   0  0  0  0  0  0  0  0  0  0  0  0
  161.7620  204.8910  146.5510 P   0  0  0  0  0  0  0  0  0  0  0  0
  161.6170  206.5760  146.5260 O   0  0  0  0  0  1  0  0  0  0  0  0
  161.6920  204.2960  144.9680 O   0  0  0  0  0  0  0  0  0  0  0  0
  163.0930  204.5170  147.1600 O   0  0  0  0  0  1  0  0  0  0  0  0
  161.7010  207.0140  152.8390 C   0  0  2  0  0  3  0  0  0  0  0  0
  160.4400  206.4860  153.4970 C   0  0  0  0  0  1  0  0  0  0  0  0
  161.9550  208.3880  153.2570 N   0  0  0  0  0  2  0  0  0  0  0  0
  158.4960  211.8350  153.8900 N   0  0  0  0  0  0  0  0  0  0  0  0
  156.8420  213.1210  155.1480 N   0  0  0  0  0  1  0  0  0  0  0  0
  159.9320  209.5780  156.1800 C   0  0  0  0  0  3  0  0  0  0  0  0
  158.2510  211.3670  156.1000 N   0  0  0  0  0  0  0  0  0  0  0  0
  157.8510  212.1230  155.0430 C   0  0  0  0  0  0  0  0  0  0  0  0
  159.3450  210.8550  154.2230 C   0  0  0  0  0  0  0  0  0  0  0  0
  158.2980  212.4410  152.5820 C   0  0  0  0  0  1  0  0  0  0  0  0
  161.0190  209.1520  154.0210 C   0  0  0  0  0  0  0  0  0  0  0  0
  159.1920  210.5750  155.5500 C   0  0  0  0  0  0  0  0  0  0  0  0
  160.2490  210.1690  153.4160 C   0  0  0  0  0  3  0  0  0  0  0  0
  160.8540  208.8610  155.3940 C   0  0  0  0  0  3  0  0  0  0  0  0
  1  2  1  6  0  0  0
  1 29  1  0  0  0  0
  2  3  1  6  0  0  0
  2  5  1  0  0  0  0
  4  7  2  0  0  0  0
  7  6  1  0  0  0  0
  7  5  1  0  0  0  0
  8 13  1  0  0  0  0
 10 14  1  0  0  0  0
 10  9  1  1  0  0  0
 11 16  1  6  0  0  0
 11 10  1  0  0  0  0
 12  8  1  0  0  0  0
 12 11  1  0  0  0  0
 13 14  2  0  0  0  0
 14  6  1  0  0  0  0
 15 16  1  0  0  0  0
 18  1  1  0  0  0  0
 18 17  1  1  0  0  0
 19 18  1  0  0  0  0
 20 24  1  6  0  0  0
 20 23  1  0  0  0  0
 20 19  1  0  0  0  0
 21 23  2  0  0  0  0
 23 22  1  0  0  0  0
 25 28  1  0  0  0  0
 25 24  1  0  0  0  0
 26 25  1  0  0  0  0
 27 25  2  0  0  0  0
 29 31  1  0  0  0  0
 29 30  1  1  0  0  0
 31 39  1  0  0  0  0
 32 37  1  0  0  0  0
 32 36  1  0  0  0  0
 36 33  1  0  0  0  0
 36 35  2  0  0  0  0
 37 40  2  0  0  0  0
 38 32  1  0  0  0  0
 39 42  1  0  0  0  0
 40 35  1  0  0  0  0
 40 34  1  0  0  0  0
 41 39  2  0  0  0  0
 41 37  1  0  0  0  0
 42 34  2  0  0  0  0
M  END
>  <MODEL>
4

>  <REMARK>
 VINA RESULT:      -5.7      4.357      7.443
  Name = 
  13 active torsions:
  status: ('A' for Active; 'I' for Inactive)
    1  A    between atoms: N_3  and  C_19
    2  A    between atoms: N_3  and  C_29
    3  A    between atoms: P_7  and  O_42
    4  A    between atoms: C_12  and  N_15
    5  A    between atoms: C_12  and  C_36
    6  A    between atoms: C_16  and  S_27
    7  A    between atoms: C_16  and  C_41
    8  A    between atoms: C_16  and  O_42
    9  A    between atoms: N_22  and  C_33
   10  A    between atoms: C_25  and  O_30
   11  A    between atoms: S_27  and  C_38
   12  A    between atoms: C_29  and  C_36
   13  A    between atoms: C_36  and  C_38
                            x       y       z     vdW  Elec       q    Type
                         _______ _______ _______ _____ _____    ______ ____

>  <TORSDO>
F 13

$$$$
=
 OpenBabel11042421493D

 42 44  0  0  1  0  0  0  0  0999 V2000
  160.7080  210.1220  152.5160 C   0  0  1  0  0  3  0  0  0  0  0  0
  161.2690  208.7100  152.2870 C   0  0  1  0  0  3  0  0  0  0  0  0
  161.0470  207.9160  153.4140 O   0  0  0  0  0  1  0  0  0  0  0  0
  162.3540  206.5600  150.7710 O   0  0  0  0  0  0  0  0  0  0  0  0
  160.6330  208.0920  151.1310 N   0  0  0  0  0  2  0  0  0  0  0  0
  160.5160  206.4270  149.3170 N   0  0  0  0  0  2  0  0  0  0  0  0
  161.2240  207.0030  150.4220 C   0  0  0  0  0  0  0  0  0  0  0  0
  161.2870  202.8970  148.0580 C   0  0  0  0  0  2  0  0  0  0  0  0
  162.8740  206.4110  147.3220 C   0  0  0  0  0  1  0  0  0  0  0  0
  161.5450  205.6990  147.1310 C   0  0  1  0  0  3  0  0  0  0  0  0
  161.7300  204.5000  146.1910 C   0  0  1  0  0  3  0  0  0  0  0  0
  162.2660  203.2910  146.9580 C   0  0  0  0  0  2  0  0  0  0  0  0
  160.9000  204.0750  148.9070 C   0  0  0  0  0  3  0  0  0  0  0  0
  160.9470  205.3460  148.4750 C   0  0  0  0  0  0  0  0  0  0  0  0
  160.5330  204.8900  144.3720 C   0  0  0  0  0  1  0  0  0  0  0  0
  160.5180  204.1830  145.5730 O   0  0  0  0  0  0  0  0  0  0  0  0
  162.2730  210.7480  154.4280 C   0  0  0  0  0  1  0  0  0  0  0  0
  160.8320  210.5540  153.9850 C   0  0  1  0  0  3  0  0  0  0  0  0
  159.8680  212.0610  154.3090 S   0  0  0  0  0  0  0  0  0  0  0  0
  158.7020  211.1660  155.3750 C   0  0  1  0  0  3  0  0  0  0  0  0
  160.0940  210.7490  157.2610 O   0  0  0  0  0  1  0  0  0  0  0  0
  159.4240  208.8860  156.1040 O   0  0  0  0  0  0  0  0  0  0  0  0
  159.4470  210.2630  156.2970 C   0  0  0  0  0  0  0  0  0  0  0  0
  157.9440  212.0790  156.1140 O   0  0  0  0  0  0  0  0  0  0  0  0
  156.3860  212.0230  155.4450 P   0  0  0  0  0  0  0  0  0  0  0  0
  155.8870  210.4160  155.2680 O   0  0  0  0  0  1  0  0  0  0  0  0
  156.3770  212.7850  153.9340 O   0  0  0  0  0  0  0  0  0  0  0  0
  155.4270  212.7410  156.3650 O   0  0  0  0  0  1  0  0  0  0  0  0
  161.2640  211.1890  151.5560 C   0  0  2  0  0  3  0  0  0  0  0  0
  160.2420  212.2780  151.2900 C   0  0  0  0  0  1  0  0  0  0  0  0
  161.7230  210.6050  150.2990 N   0  0  0  0  0  2  0  0  0  0  0  0
  160.2280  212.8520  146.1810 N   0  0  0  0  0  0  0  0  0  0  0  0
  160.4930  214.2140  144.1690 N   0  0  0  0  0  1  0  0  0  0  0  0
  163.4210  212.6440  147.6510 C   0  0  0  0  0  3  0  0  0  0  0  0
  162.3080  213.6290  145.6960 N   0  0  0  0  0  0  0  0  0  0  0  0
  160.9990  213.5710  145.3330 C   0  0  0  0  0  0  0  0  0  0  0  0
  161.0790  212.4310  147.1240 C   0  0  0  0  0  0  0  0  0  0  0  0
  158.7960  212.6070  146.0940 C   0  0  0  0  0  1  0  0  0  0  0  0
  161.9080  211.3740  149.1090 C   0  0  0  0  0  0  0  0  0  0  0  0
  162.3270  212.9030  146.8310 C   0  0  0  0  0  0  0  0  0  0  0  0
  160.8210  211.6600  148.2540 C   0  0  0  0  0  3  0  0  0  0  0  0
  163.1970  211.8690  148.8050 C   0  0  0  0  0  3  0  0  0  0  0  0
  1 29  1  6  0  0  0
  1 18  1  0  0  0  0
  2  1  1  0  0  0  0
  2  3  1  1  0  0  0
  5  2  1  0  0  0  0
  6  7  1  0  0  0  0
  7  4  2  0  0  0  0
  7  5  1  0  0  0  0
  8 13  1  0  0  0  0
 10  9  1  1  0  0  0
 10 14  1  0  0  0  0
 11 16  1  1  0  0  0
 11 12  1  0  0  0  0
 11 10  1  0  0  0  0
 12  8  1  0  0  0  0
 14 13  2  0  0  0  0
 14  6  1  0  0  0  0
 15 16  1  0  0  0  0
 18 19  1  0  0  0  0
 18 17  1  6  0  0  0
 20 19  1  1  0  0  0
 20 24  1  0  0  0  0
 20 23  1  0  0  0  0
 22 23  2  0  0  0  0
 23 21  1  0  0  0  0
 25 24  1  0  0  0  0
 25 28  1  0  0  0  0
 26 25  1  0  0  0  0
 27 25  2  0  0  0  0
 29 30  1  6  0  0  0
 31 29  1  0  0  0  0
 32 37  1  0  0  0  0
 33 36  1  0  0  0  0
 34 42  1  0  0  0  0
 35 40  1  0  0  0  0
 36 35  2  0  0  0  0
 36 32  1  0  0  0  0
 37 41  2  0  0  0  0
 38 32  1  0  0  0  0
 39 31  1  0  0  0  0
 40 37  1  0  0  0  0
 40 34  2  0  0  0  0
 41 39  1  0  0  0  0
 42 39  2  0  0  0  0
M  END
>  <MODEL>
5

>  <REMARK>
 VINA RESULT:      -5.4      2.562      7.054
  Name = 
  13 active torsions:
  status: ('A' for Active; 'I' for Inactive)
    1  A    between atoms: N_3  and  C_19
    2  A    between atoms: N_3  and  C_29
    3  A    between atoms: P_7  and  O_42
    4  A    between atoms: C_12  and  N_15
    5  A    between atoms: C_12  and  C_36
    6  A    between atoms: C_16  and  S_27
    7  A    between atoms: C_16  and  C_41
    8  A    between atoms: C_16  and  O_42
    9  A    between atoms: N_22  and  C_33
   10  A    between atoms: C_25  and  O_30
   11  A    between atoms: S_27  and  C_38
   12  A    between atoms: C_29  and  C_36
   13  A    between atoms: C_36  and  C_38
                            x       y       z     vdW  Elec       q    Type
                         _______ _______ _______ _____ _____    ______ ____

>  <TORSDO>
F 13

$$$$
=
 OpenBabel11042421493D

 42 44  0  0  1  0  0  0  0  0999 V2000
  160.8420  209.5760  151.4110 C   0  0  1  0  0  3  0  0  0  0  0  0
  161.1350  208.0790  151.6020 C   0  0  1  0  0  3  0  0  0  0  0  0
  160.4580  207.5970  152.7240 O   0  0  0  0  0  1  0  0  0  0  0  0
  161.7350  205.3410  151.1100 O   0  0  0  0  0  0  0  0  0  0  0  0
  160.7170  207.3250  150.4290 N   0  0  0  0  0  2  0  0  0  0  0  0
  160.5570  205.2670  149.0810 N   0  0  0  0  0  2  0  0  0  0  0  0
  161.0380  205.9450  150.2490 C   0  0  0  0  0  0  0  0  0  0  0  0
  160.8120  201.4540  149.2830 C   0  0  0  0  0  2  0  0  0  0  0  0
  162.7000  204.1580  147.1530 C   0  0  0  0  0  1  0  0  0  0  0  0
  161.2880  203.6180  147.3170 C   0  0  1  0  0  3  0  0  0  0  0  0
  161.2500  202.1370  146.9180 C   0  0  1  0  0  3  0  0  0  0  0  0
  161.7200  201.2540  148.0750 C   0  0  0  0  0  2  0  0  0  0  0  0
  160.6390  202.9090  149.6150 C   0  0  0  0  0  3  0  0  0  0  0  0
  160.7850  203.8960  148.7160 C   0  0  0  0  0  0  0  0  0  0  0  0
  160.1180  201.1450  145.2970 C   0  0  0  0  0  1  0  0  0  0  0  0
  159.9580  201.7780  146.5290 O   0  0  0  0  0  0  0  0  0  0  0  0
  161.6330  210.2810  153.7290 C   0  0  0  0  0  1  0  0  0  0  0  0
  160.4800  210.2600  152.7370 C   0  0  1  0  0  3  0  0  0  0  0  0
  159.8630  211.9470  152.4580 S   0  0  0  0  0  0  0  0  0  0  0  0
  158.9100  211.9270  154.0030 C   0  0  1  0  0  3  0  0  0  0  0  0
  160.0840  212.8130  155.8750 O   0  0  0  0  0  1  0  0  0  0  0  0
  158.9520  214.3520  154.6070 O   0  0  0  0  0  0  0  0  0  0  0  0
  159.3470  213.0480  154.8830 C   0  0  0  0  0  0  0  0  0  0  0  0
  157.5480  212.0490  153.7180 O   0  0  0  0  0  0  0  0  0  0  0  0
  156.7420  211.4590  155.0890 P   0  0  0  0  0  0  0  0  0  0  0  0
  155.4890  210.4220  154.6240 O   0  0  0  0  0  0  0  0  0  0  0  0
  156.1060  212.7460  155.9850 O   0  0  0  0  0  1  0  0  0  0  0  0
  157.7220  210.6960  155.9490 O   0  0  0  0  0  1  0  0  0  0  0  0
  161.9370  210.3430  150.6490 C   0  0  2  0  0  3  0  0  0  0  0  0
  163.1930  210.4880  151.4880 C   0  0  0  0  0  1  0  0  0  0  0  0
  161.4730  211.6510  150.1990 N   0  0  0  0  0  2  0  0  0  0  0  0
  159.7410  212.8170  145.7400 N   0  0  0  0  0  0  0  0  0  0  0  0
  159.8900  213.6210  143.4360 N   0  0  0  0  0  1  0  0  0  0  0  0
  163.0180  212.9170  147.0260 C   0  0  0  0  0  3  0  0  0  0  0  0
  161.7920  213.4010  144.9530 N   0  0  0  0  0  0  0  0  0  0  0  0
  160.4620  213.2810  144.6940 C   0  0  0  0  0  0  0  0  0  0  0  0
  160.6460  212.6300  146.7070 C   0  0  0  0  0  0  0  0  0  0  0  0
  158.3050  212.5900  145.8020 C   0  0  0  0  0  1  0  0  0  0  0  0
  161.5900  212.0910  148.8440 C   0  0  0  0  0  0  0  0  0  0  0  0
  161.8760  212.9850  146.2320 C   0  0  0  0  0  0  0  0  0  0  0  0
  160.4540  212.1750  148.0090 C   0  0  0  0  0  3  0  0  0  0  0  0
  162.8610  212.4640  148.3500 C   0  0  0  0  0  3  0  0  0  0  0  0
  1 29  1  1  0  0  0
  1  2  1  0  0  0  0
  1 18  1  0  0  0  0
  2  3  1  1  0  0  0
  5  2  1  0  0  0  0
  6  7  1  0  0  0  0
  7  5  1  0  0  0  0
  7  4  2  0  0  0  0
  8 13  1  0  0  0  0
 10  9  1  1  0  0  0
 10 14  1  0  0  0  0
 11 16  1  1  0  0  0
 11 10  1  0  0  0  0
 11 12  1  0  0  0  0
 12  8  1  0  0  0  0
 14  6  1  0  0  0  0
 14 13  2  0  0  0  0
 15 16  1  0  0  0  0
 18 17  1  1  0  0  0
 19 18  1  0  0  0  0
 20 19  1  6  0  0  0
 20 23  1  0  0  0  0
 22 23  2  0  0  0  0
 23 21  1  0  0  0  0
 24 20  1  0  0  0  0
 24 25  1  0  0  0  0
 25 28  1  0  0  0  0
 25 27  1  0  0  0  0
 26 25  2  0  0  0  0
 29 30  1  1  0  0  0
 31 29  1  0  0  0  0
 32 38  1  0  0  0  0
 32 37  1  0  0  0  0
 33 36  1  0  0  0  0
 34 42  1  0  0  0  0
 35 40  1  0  0  0  0
 36 35  2  0  0  0  0
 36 32  1  0  0  0  0
 37 41  2  0  0  0  0
 39 31  1  0  0  0  0
 40 37  1  0  0  0  0
 40 34  2  0  0  0  0
 41 39  1  0  0  0  0
 42 39  2  0  0  0  0
M  END
>  <MODEL>
6

>  <REMARK>
 VINA RESULT:      -5.1      2.512      7.876
  Name = 
  13 active torsions:
  status: ('A' for Active; 'I' for Inactive)
    1  A    between atoms: N_3  and  C_19
    2  A    between atoms: N_3  and  C_29
    3  A    between atoms: P_7  and  O_42
    4  A    between atoms: C_12  and  N_15
    5  A    between atoms: C_12  and  C_36
    6  A    between atoms: C_16  and  S_27
    7  A    between atoms: C_16  and  C_41
    8  A    between atoms: C_16  and  O_42
    9  A    between atoms: N_22  and  C_33
   10  A    between atoms: C_25  and  O_30
   11  A    between atoms: S_27  and  C_38
   12  A    between atoms: C_29  and  C_36
   13  A    between atoms: C_36  and  C_38
                            x       y       z     vdW  Elec       q    Type
                         _______ _______ _______ _____ _____    ______ ____

>  <TORSDO>
F 13

$$$$
=
 OpenBabel11042421493D

 42 44  0  0  1  0  0  0  0  0999 V2000
  161.4120  209.2290  153.2480 C   0  0  1  0  0  3  0  0  0  0  0  0
  162.3060  209.9920  152.2570 C   0  0  1  0  0  3  0  0  0  0  0  0
  162.7140  209.1420  151.2270 O   0  0  0  0  0  1  0  0  0  0  0  0
  162.3690  210.7720  149.5210 O   0  0  0  0  0  0  0  0  0  0  0  0
  161.5850  211.1230  151.6890 N   0  0  0  0  0  2  0  0  0  0  0  0
  160.8790  212.5620  149.8160 N   0  0  0  0  0  2  0  0  0  0  0  0
  161.6470  211.4520  150.3010 C   0  0  0  0  0  0  0  0  0  0  0  0
  161.8860  214.1930  146.5040 C   0  0  0  0  0  2  0  0  0  0  0  0
  158.4520  213.8030  148.3650 C   0  0  0  0  0  1  0  0  0  0  0  0
  159.5090  212.9160  147.7280 C   0  0  1  0  0  3  0  0  0  0  0  0
  159.6000  213.2180  146.2260 C   0  0  1  0  0  3  0  0  0  0  0  0
  160.4780  214.4440  145.9740 C   0  0  0  0  0  2  0  0  0  0  0  0
  161.8660  213.6980  147.9220 C   0  0  0  0  0  3  0  0  0  0  0  0
  160.8210  213.0560  148.4680 C   0  0  0  0  0  0  0  0  0  0  0  0
  159.5750  212.2030  144.2590 C   0  0  0  0  0  1  0  0  0  0  0  0
  160.1090  212.1100  145.5440 O   0  0  0  0  0  0  0  0  0  0  0  0
  159.1530  210.3420  152.8570 C   0  0  0  0  0  1  0  0  0  0  0  0
  160.3060  210.1240  153.8240 C   0  0  1  0  0  3  0  0  0  0  0  0
  159.6860  209.4670  155.4020 S   0  0  0  0  0  0  0  0  0  0  0  0
  160.7690  210.5640  156.3610 C   0  0  1  0  0  3  0  0  0  0  0  0
  163.1340  210.6160  156.6250 O   0  0  0  0  0  0  0  0  0  0  0  0
  162.1820  208.5330  156.7190 O   0  0  0  0  0  1  0  0  0  0  0  0
  162.0930  209.9120  156.5720 C   0  0  0  0  0  0  0  0  0  0  0  0
  160.9370  211.7720  155.6800 O   0  0  0  0  0  0  0  0  0  0  0  0
  159.6890  212.7810  156.2310 P   0  0  0  0  0  0  0  0  0  0  0  0
  158.7150  213.2600  154.9340 O   0  0  0  0  0  0  0  0  0  0  0  0
  160.3410  214.1500  156.9820 O   0  0  0  0  0  1  0  0  0  0  0  0
  158.8460  212.0240  157.2300 O   0  0  0  0  0  1  0  0  0  0  0  0
  160.8520  207.9020  152.7030 C   0  0  2  0  0  3  0  0  0  0  0  0
  161.5770  206.7120  153.3020 C   0  0  0  0  0  1  0  0  0  0  0  0
  160.9000  207.8470  151.2460 N   0  0  0  0  0  2  0  0  0  0  0  0
  160.8450  202.9440  150.7960 N   0  0  0  0  0  0  0  0  0  0  0  0
  160.7660  200.8230  149.5840 N   0  0  0  0  0  1  0  0  0  0  0  0
  160.8210  205.4740  148.3450 C   0  0  0  0  0  3  0  0  0  0  0  0
  160.7940  203.0240  148.5250 N   0  0  0  0  0  0  0  0  0  0  0  0
  160.8030  202.2450  149.6390 C   0  0  0  0  0  0  0  0  0  0  0  0
  160.8660  204.2250  150.4060 C   0  0  0  0  0  0  0  0  0  0  0  0
  160.8490  202.4230  152.1540 C   0  0  0  0  0  1  0  0  0  0  0  0
  160.8890  206.6190  150.5160 C   0  0  0  0  0  0  0  0  0  0  0  0
  160.8310  204.2680  149.0420 C   0  0  0  0  0  0  0  0  0  0  0  0
  160.8970  205.3770  151.1880 C   0  0  0  0  0  3  0  0  0  0  0  0
  160.8480  206.6600  149.1030 C   0  0  0  0  0  3  0  0  0  0  0  0
  1  2  1  6  0  0  0
  1 18  1  0  0  0  0
  2  3  1  6  0  0  0
  4  7  2  0  0  0  0
  5  2  1  0  0  0  0
  6  7  1  0  0  0  0
  7  5  1  0  0  0  0
  8 13  1  0  0  0  0
 10  9  1  1  0  0  0
 10 14  1  0  0  0  0
 11 16  1  6  0  0  0
 11 10  1  0  0  0  0
 12 11  1  0  0  0  0
 12  8  1  0  0  0  0
 13 14  2  0  0  0  0
 14  6  1  0  0  0  0
 15 16  1  0  0  0  0
 18 17  1  6  0  0  0
 18 19  1  0  0  0  0
 20 19  1  6  0  0  0
 20 23  1  0  0  0  0
 23 21  2  0  0  0  0
 23 22  1  0  0  0  0
 24 25  1  0  0  0  0
 24 20  1  0  0  0  0
 25 27  1  0  0  0  0
 25 28  1  0  0  0  0
 26 25  2  0  0  0  0
 29  1  1  0  0  0  0
 29 30  1  1  0  0  0
 31 29  1  0  0  0  0
 32 38  1  0  0  0  0
 33 36  1  0  0  0  0
 34 40  2  0  0  0  0
 34 42  1  0  0  0  0
 35 40  1  0  0  0  0
 35 36  2  0  0  0  0
 36 32  1  0  0  0  0
 37 32  1  0  0  0  0
 37 41  2  0  0  0  0
 39 41  1  0  0  0  0
 39 31  1  0  0  0  0
 40 37  1  0  0  0  0
 42 39  2  0  0  0  0
M  END
>  <MODEL>
7

>  <REMARK>
 VINA RESULT:      -4.9      1.544      2.270
  Name = 
  13 active torsions:
  status: ('A' for Active; 'I' for Inactive)
    1  A    between atoms: N_3  and  C_19
    2  A    between atoms: N_3  and  C_29
    3  A    between atoms: P_7  and  O_42
    4  A    between atoms: C_12  and  N_15
    5  A    between atoms: C_12  and  C_36
    6  A    between atoms: C_16  and  S_27
    7  A    between atoms: C_16  and  C_41
    8  A    between atoms: C_16  and  O_42
    9  A    between atoms: N_22  and  C_33
   10  A    between atoms: C_25  and  O_30
   11  A    between atoms: S_27  and  C_38
   12  A    between atoms: C_29  and  C_36
   13  A    between atoms: C_36  and  C_38
                            x       y       z     vdW  Elec       q    Type
                         _______ _______ _______ _____ _____    ______ ____

>  <TORSDO>
F 13

$$$$
=
 OpenBabel11042421493D

 42 44  0  0  1  0  0  0  0  0999 V2000
  160.5080  208.9390  153.5390 C   0  0  1  0  0  3  0  0  0  0  0  0
  161.4930  207.7670  153.6700 C   0  0  1  0  0  3  0  0  0  0  0  0
  161.5370  207.3220  154.9930 O   0  0  0  0  0  1  0  0  0  0  0  0
  161.8000  207.7000  150.8420 O   0  0  0  0  0  0  0  0  0  0  0  0
  161.0900  206.6650  152.8070 N   0  0  0  0  0  2  0  0  0  0  0  0
  160.8930  205.5460  150.6190 N   0  0  0  0  0  2  0  0  0  0  0  0
  161.2870  206.6870  151.3940 C   0  0  0  0  0  0  0  0  0  0  0  0
  160.6120  206.2190  146.8630 C   0  0  0  0  0  2  0  0  0  0  0  0
  160.6750  202.9260  148.9990 C   0  0  0  0  0  1  0  0  0  0  0  0
  161.5940  204.0940  148.6790 C   0  0  1  0  0  3  0  0  0  0  0  0
  161.9120  204.1060  147.1780 C   0  0  1  0  0  3  0  0  0  0  0  0
  160.7850  204.7790  146.3930 C   0  0  0  0  0  2  0  0  0  0  0  0
  160.4930  206.3060  148.3580 C   0  0  0  0  0  3  0  0  0  0  0  0
  160.9950  205.3830  149.1960 C   0  0  0  0  0  0  0  0  0  0  0  0
  163.4700  204.4310  145.6410 C   0  0  0  0  0  1  0  0  0  0  0  0
  163.1220  204.7650  146.9490 O   0  0  0  0  0  0  0  0  0  0  0  0
  159.4250  207.8400  155.5680 C   0  0  0  0  0  1  0  0  0  0  0  0
  159.6840  209.1380  154.8200 C   0  0  1  0  0  3  0  0  0  0  0  0
  160.4670  210.3520  155.9220 S   0  0  0  0  0  0  0  0  0  0  0  0
  158.9270  211.3000  156.0830 C   0  0  1  0  0  3  0  0  0  0  0  0
  159.4160  213.3110  157.2590 O   0  0  0  0  0  1  0  0  0  0  0  0
  159.3240  213.5060  154.9760 O   0  0  0  0  0  0  0  0  0  0  0  0
  159.2320  212.7580  156.1440 C   0  0  0  0  0  0  0  0  0  0  0  0
  158.0950  211.0340  154.9920 O   0  0  0  0  0  0  0  0  0  0  0  0
  156.5280  211.4270  155.5100 P   0  0  0  0  0  0  0  0  0  0  0  0
  155.4440  210.2100  155.0550 O   0  0  0  0  0  1  0  0  0  0  0  0
  156.0440  212.8970  154.8260 O   0  0  0  0  0  0  0  0  0  0  0  0
  156.5220  211.5570  157.0150 O   0  0  0  0  0  1  0  0  0  0  0  0
  161.1490  210.2540  153.0600 C   0  0  2  0  0  3  0  0  0  0  0  0
  162.2480  210.7070  154.0030 C   0  0  0  0  0  1  0  0  0  0  0  0
  160.1590  211.3120  152.8870 N   0  0  0  0  0  2  0  0  0  0  0  0
  161.5470  212.7500  148.3870 N   0  0  0  0  0  0  0  0  0  0  0  0
  161.4320  214.0910  146.3460 N   0  0  0  0  0  1  0  0  0  0  0  0
  159.0040  213.9630  150.5010 C   0  0  0  0  0  3  0  0  0  0  0  0
  159.9680  214.3820  148.2810 N   0  0  0  0  0  0  0  0  0  0  0  0
  160.9930  213.7430  147.6550 C   0  0  0  0  0  0  0  0  0  0  0  0
  160.8500  212.7550  149.5300 C   0  0  0  0  0  0  0  0  0  0  0  0
  162.6400  211.8680  148.0100 C   0  0  0  0  0  1  0  0  0  0  0  0
  160.0960  212.1310  151.7180 C   0  0  0  0  0  0  0  0  0  0  0  0
  159.9000  213.7340  149.4600 C   0  0  0  0  0  0  0  0  0  0  0  0
  160.9870  211.9270  150.6410 C   0  0  0  0  0  3  0  0  0  0  0  0
  159.1110  213.1430  151.6400 C   0  0  0  0  0  3  0  0  0  0  0  0
  1 29  1  1  0  0  0
  1  2  1  0  0  0  0
  1 18  1  0  0  0  0
  2  3  1  1  0  0  0
  4  7  2  0  0  0  0
  5  2  1  0  0  0  0
  6  7  1  0  0  0  0
  7  5  1  0  0  0  0
  8 13  1  0  0  0  0
 10  9  1  6  0  0  0
 10 14  1  0  0  0  0
 11 16  1  1  0  0  0
 11 10  1  0  0  0  0
 12  8  1  0  0  0  0
 12 11  1  0  0  0  0
 13 14  2  0  0  0  0
 14  6  1  0  0  0  0
 15 16  1  0  0  0  0
 18 17  1  1  0  0  0
 18 19  1  0  0  0  0
 19 20  1  0  0  0  0
 20 24  1  6  0  0  0
 20 23  1  0  0  0  0
 22 23  2  0  0  0  0
 23 21  1  0  0  0  0
 24 25  1  0  0  0  0
 25 28  1  0  0  0  0
 26 25  1  0  0  0  0
 27 25  2  0  0  0  0
 29 30  1  1  0  0  0
 31 29  1  0  0  0  0
 32 37  1  0  0  0  0
 33 36  1  0  0  0  0
 34 42  1  0  0  0  0
 35 40  1  0  0  0  0
 36 35  2  0  0  0  0
 36 32  1  0  0  0  0
 37 41  2  0  0  0  0
 38 32  1  0  0  0  0
 39 31  1  0  0  0  0
 40 37  1  0  0  0  0
 40 34  2  0  0  0  0
 41 39  1  0  0  0  0
 42 39  2  0  0  0  0
M  END
>  <MODEL>
8

>  <REMARK>
 VINA RESULT:      -4.7      2.507      7.110
  Name = 
  13 active torsions:
  status: ('A' for Active; 'I' for Inactive)
    1  A    between atoms: N_3  and  C_19
    2  A    between atoms: N_3  and  C_29
    3  A    between atoms: P_7  and  O_42
    4  A    between atoms: C_12  and  N_15
    5  A    between atoms: C_12  and  C_36
    6  A    between atoms: C_16  and  S_27
    7  A    between atoms: C_16  and  C_41
    8  A    between atoms: C_16  and  O_42
    9  A    between atoms: N_22  and  C_33
   10  A    between atoms: C_25  and  O_30
   11  A    between atoms: S_27  and  C_38
   12  A    between atoms: C_29  and  C_36
   13  A    between atoms: C_36  and  C_38
                            x       y       z     vdW  Elec       q    Type
                         _______ _______ _______ _____ _____    ______ ____

>  <TORSDO>
F 13

$$$$
=
 OpenBabel11042421493D

 42 44  0  0  1  0  0  0  0  0999 V2000
  160.6950  209.7460  152.5990 C   0  0  1  0  0  3  0  0  0  0  0  0
  161.1220  208.2720  152.6790 C   0  0  1  0  0  3  0  0  0  0  0  0
  160.7770  207.7390  153.9220 O   0  0  0  0  0  1  0  0  0  0  0  0
  162.4350  207.1690  150.4070 O   0  0  0  0  0  0  0  0  0  0  0  0
  160.4750  207.4970  151.6280 N   0  0  0  0  0  2  0  0  0  0  0  0
  160.4900  206.1760  149.5470 N   0  0  0  0  0  2  0  0  0  0  0  0
  161.1960  206.9570  150.5200 C   0  0  0  0  0  0  0  0  0  0  0  0
  161.7400  203.5340  147.0780 C   0  0  0  0  0  2  0  0  0  0  0  0
  162.6570  207.3070  147.6600 C   0  0  0  0  0  1  0  0  0  0  0  0
  161.4540  206.4790  147.2360 C   0  0  1  0  0  3  0  0  0  0  0  0
  161.7640  205.7510  145.9210 C   0  0  1  0  0  3  0  0  0  0  0  0
  162.5520  204.4680  146.1870 C   0  0  0  0  0  2  0  0  0  0  0  0
  161.2280  204.2380  148.3020 C   0  0  0  0  0  3  0  0  0  0  0  0
  161.0290  205.5650  148.3640 C   0  0  0  0  0  0  0  0  0  0  0  0
  160.9350  205.4210  143.8960 C   0  0  0  0  0  1  0  0  0  0  0  0
  160.5780  205.4590  145.2430 O   0  0  0  0  0  0  0  0  0  0  0  0
  162.3310  210.6020  154.3560 C   0  0  0  0  0  1  0  0  0  0  0  0
  160.8740  210.4660  153.9440 C   0  0  1  0  0  3  0  0  0  0  0  0
  160.0710  212.0970  153.9260 S   0  0  0  0  0  0  0  0  0  0  0  0
  159.0680  211.6930  155.3840 C   0  0  1  0  0  3  0  0  0  0  0  0
  160.5190  212.6190  157.0280 O   0  0  0  0  0  0  0  0  0  0  0  0
  160.1080  210.3730  157.2350 O   0  0  0  0  0  1  0  0  0  0  0  0
  159.9400  211.5930  156.5890 C   0  0  0  0  0  0  0  0  0  0  0  0
  158.1010  212.6830  155.5790 O   0  0  0  0  0  0  0  0  0  0  0  0
  156.7840  212.2290  154.6110 P   0  0  0  0  0  0  0  0  0  0  0  0
  156.2440  213.5530  153.7060 O   0  0  0  0  0  1  0  0  0  0  0  0
  155.5220  211.6570  155.5820 O   0  0  0  0  0  1  0  0  0  0  0  0
  157.2180  211.1300  153.6690 O   0  0  0  0  0  0  0  0  0  0  0  0
  161.3370  210.5290  151.4390 C   0  0  2  0  0  3  0  0  0  0  0  0
  162.8500  210.4120  151.4670 C   0  0  0  0  0  1  0  0  0  0  0  0
  160.9360  211.9320  151.4400 N   0  0  0  0  0  2  0  0  0  0  0  0
  160.4660  213.4700  146.7870 N   0  0  0  0  0  0  0  0  0  0  0  0
  159.3010  214.4530  144.8760 N   0  0  0  0  0  1  0  0  0  0  0  0
  158.2050  213.5960  149.4840 C   0  0  0  0  0  3  0  0  0  0  0  0
  158.3450  214.2190  147.1120 N   0  0  0  0  0  0  0  0  0  0  0  0
  159.3750  214.0520  146.2400 C   0  0  0  0  0  0  0  0  0  0  0  0
  160.1210  213.2570  148.0620 C   0  0  0  0  0  0  0  0  0  0  0  0
  161.7210  213.1360  146.1310 C   0  0  0  0  0  1  0  0  0  0  0  0
  160.2480  212.5420  150.3470 C   0  0  0  0  0  0  0  0  0  0  0  0
  158.8460  213.7050  148.2530 C   0  0  0  0  0  0  0  0  0  0  0  0
  160.8640  212.6680  149.0820 C   0  0  0  0  0  3  0  0  0  0  0  0
  158.9250  213.0030  150.5380 C   0  0  0  0  0  3  0  0  0  0  0  0
  1 29  1  6  0  0  0
  1  2  1  0  0  0  0
  1 18  1  0  0  0  0
  2  3  1  1  0  0  0
  4  7  2  0  0  0  0
  5  2  1  0  0  0  0
  6  7  1  0  0  0  0
  7  5  1  0  0  0  0
  8 13  1  0  0  0  0
 10  9  1  1  0  0  0
 10 14  1  0  0  0  0
 11 16  1  1  0  0  0
 11 12  1  0  0  0  0
 11 10  1  0  0  0  0
 12  8  1  0  0  0  0
 13 14  2  0  0  0  0
 14  6  1  0  0  0  0
 15 16  1  0  0  0  0
 18 17  1  6  0  0  0
 19 18  1  0  0  0  0
 20 19  1  6  0  0  0
 20 24  1  0  0  0  0
 20 23  1  0  0  0  0
 23 21  2  0  0  0  0
 23 22  1  0  0  0  0
 25 24  1  0  0  0  0
 25 27  1  0  0  0  0
 26 25  1  0  0  0  0
 28 25  2  0  0  0  0
 29 31  1  0  0  0  0
 29 30  1  1  0  0  0
 32 37  1  0  0  0  0
 33 36  1  0  0  0  0
 34 42  1  0  0  0  0
 35 40  1  0  0  0  0
 36 32  1  0  0  0  0
 36 35  2  0  0  0  0
 37 40  1  0  0  0  0
 37 41  2  0  0  0  0
 38 32  1  0  0  0  0
 39 42  2  0  0  0  0
 39 31  1  0  0  0  0
 40 34  2  0  0  0  0
 41 39  1  0  0  0  0
M  END
>  <MODEL>
9

>  <REMARK>
 VINA RESULT:      -4.7      2.466      7.005
  Name = 
  13 active torsions:
  status: ('A' for Active; 'I' for Inactive)
    1  A    between atoms: N_3  and  C_19
    2  A    between atoms: N_3  and  C_29
    3  A    between atoms: P_7  and  O_42
    4  A    between atoms: C_12  and  N_15
    5  A    between atoms: C_12  and  C_36
    6  A    between atoms: C_16  and  S_27
    7  A    between atoms: C_16  and  C_41
    8  A    between atoms: C_16  and  O_42
    9  A    between atoms: N_22  and  C_33
   10  A    between atoms: C_25  and  O_30
   11  A    between atoms: S_27  and  C_38
   12  A    between atoms: C_29  and  C_36
   13  A    between atoms: C_36  and  C_38
                            x       y       z     vdW  Elec       q    Type
                         _______ _______ _______ _____ _____    ______ ____

>  <TORSDO>
F 13

$$$$
