=
 OpenBabel11042422303D

 34 37  0  0  1  0  0  0  0  0999 V2000
  160.1150  208.9930  155.3930 C   0  0  0  0  0  3  0  0  0  0  0  0
  161.9180  209.9140  153.1780 C   0  0  0  0  0  0  0  0  0  0  0  0
  163.1760  210.9330  156.4940 C   0  0  0  0  0  1  0  0  0  0  0  0
  161.2120  209.6200  156.0810 N   0  0  0  0  0  0  0  0  0  0  0  0
  162.2530  210.6700  154.1770 N   0  0  0  0  0  0  0  0  0  0  0  0
  161.4780  208.4930  153.3960 C   0  0  2  0  0  3  0  0  0  0  0  0
  161.3440  207.6900  152.1150 C   0  0  0  0  0  0  0  0  0  0  0  0
  161.6090  209.7600  150.8200 C   0  0  0  0  0  3  0  0  0  0  0  0
  160.1970  208.4970  154.1600 C   0  0  0  0  0  3  0  0  0  0  0  0
  161.9000  210.4710  151.8630 N   0  0  0  0  0  0  0  0  0  0  0  0
  162.1950  210.3080  155.5680 C   0  0  0  0  0  0  0  0  0  0  0  0
  161.3170  208.3140  150.9120 C   0  0  0  0  0  0  0  0  0  0  0  0
  160.7650  205.4090  151.1380 C   0  0  0  0  0  2  0  0  0  0  0  0
  161.2980  205.5100  153.4550 C   0  0  0  0  0  2  0  0  0  0  0  0
  160.9820  204.0850  153.0650 C   0  0  0  0  0  2  0  0  0  0  0  0
  161.2410  206.2510  152.2160 N   0  0  0  0  0  0  0  0  0  0  0  0
  160.4770  204.0890  151.6920 N   0  0  0  0  0  0  0  0  0  0  0  0
  161.2700  203.1310  150.9350 C   0  0  0  0  0  2  0  0  0  0  0  0
  161.1140  200.8810  148.6900 C   0  0  0  0  0  2  0  0  0  0  0  0
  160.4980  202.6710  149.7060 C   0  0  0  0  0  3  0  0  0  0  0  0
  161.4570  202.3540  148.5720 C   0  0  0  0  0  2  0  0  0  0  0  0
  160.1650  201.1970  149.8300 C   0  0  0  0  0  2  0  0  0  0  0  0
  161.0260  207.5670  149.7200 N   0  0  0  0  0  2  0  0  0  0  0  0
  161.7320  207.6110  148.4730 C   0  0  0  0  0  0  0  0  0  0  0  0
  162.7120  208.3820  148.2990 O   0  0  0  0  0  0  0  0  0  0  0  0
  161.2690  206.7540  147.3490 C   0  0  0  0  0  2  0  0  0  0  0  0
  162.2920  205.6650  147.0850 C   0  0  0  0  0  2  0  0  0  0  0  0
  162.2880  205.2760  145.6120 C   0  0  2  0  0  3  0  0  0  0  0  0
  161.1270  206.1960  143.7560 O   0  0  0  0  0  0  0  0  0  0  0  0
  161.0770  205.8250  144.9190 C   0  0  0  0  0  3  0  0  0  0  0  0
  162.3330  203.7600  145.4580 C   0  0  0  0  0  2  0  0  0  0  0  0
  160.9530  203.1930  145.1580 C   0  0  0  0  0  2  0  0  0  0  0  0
  159.8040  201.3370  144.8310 C   0  0  0  0  0  1  0  0  0  0  0  0
  160.8960  201.8480  145.5320 O   0  0  0  0  0  0  0  0  0  0  0  0
  1  4  1  0  0  0  0
  2  6  1  0  0  0  0
  2  5  2  0  0  0  0
  5 11  1  0  0  0  0
  6  9  1  6  0  0  0
  7 16  1  0  0  0  0
  7  6  1  0  0  0  0
  8 12  1  0  0  0  0
  8 10  2  0  0  0  0
  9  1  2  0  0  0  0
 10  2  1  0  0  0  0
 11  4  2  0  0  0  0
 11  3  1  0  0  0  0
 12  7  2  0  0  0  0
 13 17  1  0  0  0  0
 13 16  1  0  0  0  0
 15 14  1  0  0  0  0
 16 14  1  0  0  0  0
 17 15  1  0  0  0  0
 18 17  1  0  0  0  0
 19 22  1  0  0  0  0
 20 22  1  0  0  0  0
 20 18  1  0  0  0  0
 21 19  1  0  0  0  0
 21 20  1  0  0  0  0
 23 12  1  0  0  0  0
 24 23  1  0  0  0  0
 25 24  2  0  0  0  0
 26 24  1  0  0  0  0
 27 26  1  0  0  0  0
 28 30  1  1  0  0  0
 28 27  1  0  0  0  0
 29 30  2  0  0  0  0
 31 28  1  0  0  0  0
 32 31  1  0  0  0  0
 32 34  1  0  0  0  0
 33 34  1  0  0  0  0
M  END
>  <MODEL>
1

>  <REMARK>
 VINA RESULT:      -7.5      0.000      0.000
  Name = 
  11 active torsions:
  status: ('A' for Active; 'I' for Inactive)
    1  A    between atoms: N_2  and  C_34
    2  A    between atoms: C_6  and  C_33
    3  A    between atoms: C_9  and  C_23
    4  A    between atoms: C_13  and  C_27
    5  A    between atoms: C_13  and  C_29
    6  A    between atoms: O_15  and  C_29
    7  A    between atoms: N_18  and  C_21
    8  A    between atoms: C_19  and  C_27
    9  A    between atoms: C_19  and  C_33
   10  A    between atoms: C_23  and  N_32
   11  A    between atoms: C_27  and  C_28
                            x       y       z     vdW  Elec       q    Type
                         _______ _______ _______ _____ _____    ______ ____

>  <TORSDO>
F 11

$$$$
=
 OpenBabel11042422303D

 34 37  0  0  1  0  0  0  0  0999 V2000
  162.1070  210.6600  153.4760 C   0  0  0  0  0  3  0  0  0  0  0  0
  160.5040  208.2370  154.2250 C   0  0  0  0  0  0  0  0  0  0  0  0
  158.9070  211.3580  155.3770 C   0  0  0  0  0  1  0  0  0  0  0  0
  160.9340  211.2060  154.1040 N   0  0  0  0  0  0  0  0  0  0  0  0
  160.0540  209.1570  155.0220 N   0  0  0  0  0  0  0  0  0  0  0  0
  160.9560  208.5730  152.8320 C   0  0  2  0  0  3  0  0  0  0  0  0
  161.2320  207.3570  151.9680 C   0  0  0  0  0  0  0  0  0  0  0  0
  161.0420  205.9310  153.9580 C   0  0  0  0  0  3  0  0  0  0  0  0
  162.1570  209.4540  152.9140 C   0  0  0  0  0  3  0  0  0  0  0  0
  160.6340  206.9010  154.7140 N   0  0  0  0  0  0  0  0  0  0  0  0
  159.9870  210.5650  154.7350 C   0  0  0  0  0  0  0  0  0  0  0  0
  161.3600  206.1300  152.5290 C   0  0  0  0  0  0  0  0  0  0  0  0
  161.2460  206.4670  149.5790 C   0  0  0  0  0  2  0  0  0  0  0  0
  161.9100  208.7280  149.9160 C   0  0  0  0  0  2  0  0  0  0  0  0
  161.9860  208.3860  148.4460 C   0  0  0  0  0  2  0  0  0  0  0  0
  161.3620  207.5460  150.5400 N   0  0  0  0  0  0  0  0  0  0  0  0
  161.7580  206.9480  148.2990 N   0  0  0  0  0  0  0  0  0  0  0  0
  160.6900  206.7750  147.3260 C   0  0  0  0  0  2  0  0  0  0  0  0
  162.1300  205.3970  144.8440 C   0  0  0  0  0  2  0  0  0  0  0  0
  160.8700  205.4580  146.5830 C   0  0  0  0  0  3  0  0  0  0  0  0
  160.6570  205.6610  145.0940 C   0  0  0  0  0  2  0  0  0  0  0  0
  162.3440  205.2050  146.3330 C   0  0  0  0  0  2  0  0  0  0  0  0
  161.7830  205.0130  151.7290 N   0  0  0  0  0  2  0  0  0  0  0  0
  161.1610  203.7250  151.6370 C   0  0  0  0  0  0  0  0  0  0  0  0
  160.1410  203.4370  152.3170 O   0  0  0  0  0  0  0  0  0  0  0  0
  161.7580  202.6950  150.7470 C   0  0  0  0  0  2  0  0  0  0  0  0
  161.4190  203.0120  149.3010 C   0  0  0  0  0  2  0  0  0  0  0  0
  160.6000  201.8850  148.6860 C   0  0  2  0  0  3  0  0  0  0  0  0
  158.5100  201.1590  149.5490 O   0  0  0  0  0  0  0  0  0  0  0  0
  159.7170  201.2440  149.7150 C   0  0  0  0  0  3  0  0  0  0  0  0
  161.5150  200.8380  148.0610 C   0  0  0  0  0  2  0  0  0  0  0  0
  161.1790  200.6150  146.5940 C   0  0  0  0  0  2  0  0  0  0  0  0
  159.9080  201.4930  145.0170 C   0  0  0  0  0  1  0  0  0  0  0  0
  160.8530  201.8290  145.9860 O   0  0  0  0  0  0  0  0  0  0  0  0
  1  4  1  0  0  0  0
  2 10  1  0  0  0  0
  2  5  2  0  0  0  0
  4 11  2  0  0  0  0
  6  9  1  1  0  0  0
  6  2  1  0  0  0  0
  7 12  2  0  0  0  0
  7  6  1  0  0  0  0
  8 10  2  0  0  0  0
  9  1  2  0  0  0  0
 11  5  1  0  0  0  0
 11  3  1  0  0  0  0
 12  8  1  0  0  0  0
 13 16  1  0  0  0  0
 14 16  1  0  0  0  0
 15 14  1  0  0  0  0
 16  7  1  0  0  0  0
 17 15  1  0  0  0  0
 17 13  1  0  0  0  0
 18 17  1  0  0  0  0
 19 21  1  0  0  0  0
 19 22  1  0  0  0  0
 20 18  1  0  0  0  0
 21 20  1  0  0  0  0
 22 20  1  0  0  0  0
 23 12  1  0  0  0  0
 24 23  1  0  0  0  0
 24 25  2  0  0  0  0
 26 24  1  0  0  0  0
 27 26  1  0  0  0  0
 28 31  1  1  0  0  0
 28 27  1  0  0  0  0
 28 30  1  0  0  0  0
 29 30  2  0  0  0  0
 32 31  1  0  0  0  0
 33 34  1  0  0  0  0
 34 32  1  0  0  0  0
M  END
>  <MODEL>
2

>  <REMARK>
 VINA RESULT:      -7.2      1.941      4.318
  Name = 
  11 active torsions:
  status: ('A' for Active; 'I' for Inactive)
    1  A    between atoms: N_2  and  C_34
    2  A    between atoms: C_6  and  C_33
    3  A    between atoms: C_9  and  C_23
    4  A    between atoms: C_13  and  C_27
    5  A    between atoms: C_13  and  C_29
    6  A    between atoms: O_15  and  C_29
    7  A    between atoms: N_18  and  C_21
    8  A    between atoms: C_19  and  C_27
    9  A    between atoms: C_19  and  C_33
   10  A    between atoms: C_23  and  N_32
   11  A    between atoms: C_27  and  C_28
                            x       y       z     vdW  Elec       q    Type
                         _______ _______ _______ _____ _____    ______ ____

>  <TORSDO>
F 11

$$$$
=
 OpenBabel11042422303D

 34 37  0  0  1  0  0  0  0  0999 V2000
  160.4550  206.4010  146.2400 C   0  0  0  0  0  3  0  0  0  0  0  0
  161.6480  204.8270  148.5000 C   0  0  0  0  0  0  0  0  0  0  0  0
  163.1420  203.9220  145.2500 C   0  0  0  0  0  1  0  0  0  0  0  0
  161.4780  205.6120  145.6070 N   0  0  0  0  0  0  0  0  0  0  0  0
  161.9570  204.1320  147.4490 N   0  0  0  0  0  0  0  0  0  0  0  0
  161.5730  206.3270  148.4410 C   0  0  2  0  0  3  0  0  0  0  0  0
  161.4260  206.9870  149.8000 C   0  0  0  0  0  0  0  0  0  0  0  0
  161.0230  204.7800  150.8000 C   0  0  0  0  0  3  0  0  0  0  0  0
  160.4550  206.7180  147.5340 C   0  0  0  0  0  3  0  0  0  0  0  0
  161.3060  204.1440  149.7070 N   0  0  0  0  0  0  0  0  0  0  0  0
  162.1940  204.6540  146.1300 C   0  0  0  0  0  0  0  0  0  0  0  0
  161.0760  206.2550  150.8850 C   0  0  0  0  0  0  0  0  0  0  0  0
  161.9900  209.2460  148.7630 C   0  0  0  0  0  2  0  0  0  0  0  0
  161.8970  209.1170  151.1370 C   0  0  0  0  0  2  0  0  0  0  0  0
  162.2460  210.5260  150.7150 C   0  0  0  0  0  2  0  0  0  0  0  0
  161.6600  208.4110  149.8990 N   0  0  0  0  0  0  0  0  0  0  0  0
  162.4810  210.5230  149.2700 N   0  0  0  0  0  0  0  0  0  0  0  0
  161.6380  211.5600  148.6920 C   0  0  0  0  0  2  0  0  0  0  0  0
  161.5620  214.2670  147.0190 C   0  0  0  0  0  2  0  0  0  0  0  0
  162.5020  212.6640  148.0980 C   0  0  0  0  0  3  0  0  0  0  0  0
  162.1210  212.9060  146.6480 C   0  0  0  0  0  2  0  0  0  0  0  0
  161.9330  214.0190  148.4690 C   0  0  0  0  0  2  0  0  0  0  0  0
  160.7800  206.9080  152.1300 N   0  0  0  0  0  2  0  0  0  0  0  0
  161.0210  206.4110  153.4520 C   0  0  0  0  0  0  0  0  0  0  0  0
  161.5200  205.2720  153.6450 O   0  0  0  0  0  0  0  0  0  0  0  0
  160.6370  207.2470  154.6200 C   0  0  0  0  0  2  0  0  0  0  0  0
  160.5350  208.7010  154.1960 C   0  0  0  0  0  2  0  0  0  0  0  0
  161.5540  209.5480  154.9470 C   0  0  2  0  0  3  0  0  0  0  0  0
  162.5860  209.1950  157.0560 O   0  0  0  0  0  0  0  0  0  0  0  0
  161.5490  209.2160  156.4090 C   0  0  0  0  0  3  0  0  0  0  0  0
  161.2650  211.0320  154.7490 C   0  0  0  0  0  2  0  0  0  0  0  0
  159.8090  211.2680  154.3740 C   0  0  0  0  0  2  0  0  0  0  0  0
  159.3930  212.2000  152.4170 C   0  0  0  0  0  1  0  0  0  0  0  0
  159.6700  212.5080  153.7490 O   0  0  0  0  0  0  0  0  0  0  0  0
  1  9  2  0  0  0  0
  2 10  1  0  0  0  0
  3 11  1  0  0  0  0
  4 11  2  0  0  0  0
  4  1  1  0  0  0  0
  5  2  2  0  0  0  0
  6  9  1  6  0  0  0
  6  2  1  0  0  0  0
  6  7  1  0  0  0  0
  7 16  1  0  0  0  0
  7 12  2  0  0  0  0
  8 12  1  0  0  0  0
 10  8  2  0  0  0  0
 11  5  1  0  0  0  0
 12 23  1  0  0  0  0
 13 17  1  0  0  0  0
 13 16  1  0  0  0  0
 15 14  1  0  0  0  0
 16 14  1  0  0  0  0
 17 15  1  0  0  0  0
 18 17  1  0  0  0  0
 19 22  1  0  0  0  0
 20 22  1  0  0  0  0
 20 18  1  0  0  0  0
 21 19  1  0  0  0  0
 21 20  1  0  0  0  0
 23 24  1  0  0  0  0
 24 25  2  0  0  0  0
 24 26  1  0  0  0  0
 27 26  1  0  0  0  0
 28 27  1  6  0  0  0
 28 30  1  0  0  0  0
 30 29  2  0  0  0  0
 31 28  1  0  0  0  0
 32 31  1  0  0  0  0
 33 34  1  0  0  0  0
 34 32  1  0  0  0  0
M  END
>  <MODEL>
3

>  <REMARK>
 VINA RESULT:      -6.8      3.342      9.208
  Name = 
  11 active torsions:
  status: ('A' for Active; 'I' for Inactive)
    1  A    between atoms: N_2  and  C_34
    2  A    between atoms: C_6  and  C_33
    3  A    between atoms: C_9  and  C_23
    4  A    between atoms: C_13  and  C_27
    5  A    between atoms: C_13  and  C_29
    6  A    between atoms: O_15  and  C_29
    7  A    between atoms: N_18  and  C_21
    8  A    between atoms: C_19  and  C_27
    9  A    between atoms: C_19  and  C_33
   10  A    between atoms: C_23  and  N_32
   11  A    between atoms: C_27  and  C_28
                            x       y       z     vdW  Elec       q    Type
                         _______ _______ _______ _____ _____    ______ ____

>  <TORSDO>
F 11

$$$$
=
 OpenBabel11042422303D

 34 37  0  0  1  0  0  0  0  0999 V2000
  161.9380  211.0360  155.2590 C   0  0  0  0  0  3  0  0  0  0  0  0
  160.1360  208.6360  155.2370 C   0  0  0  0  0  0  0  0  0  0  0  0
  158.4580  211.6090  156.6390 C   0  0  0  0  0  1  0  0  0  0  0  0
  160.6860  211.5430  155.7530 N   0  0  0  0  0  0  0  0  0  0  0  0
  159.5740  209.4310  156.0950 N   0  0  0  0  0  0  0  0  0  0  0  0
  160.8600  209.1810  154.0380 C   0  0  2  0  0  3  0  0  0  0  0  0
  161.2540  208.1200  153.0270 C   0  0  0  0  0  0  0  0  0  0  0  0
  160.6340  206.3810  154.6480 C   0  0  0  0  0  3  0  0  0  0  0  0
  162.0520  209.9470  154.5010 C   0  0  0  0  0  3  0  0  0  0  0  0
  160.1220  207.2290  155.4830 N   0  0  0  0  0  0  0  0  0  0  0  0
  159.6130  210.8680  156.0690 C   0  0  0  0  0  0  0  0  0  0  0  0
  161.2290  206.8070  153.3630 C   0  0  0  0  0  0  0  0  0  0  0  0
  161.2860  209.8220  151.1300 C   0  0  0  0  0  2  0  0  0  0  0  0
  162.2200  207.6770  150.6990 C   0  0  0  0  0  2  0  0  0  0  0  0
  162.3270  208.5390  149.4630 C   0  0  0  0  0  2  0  0  0  0  0  0
  161.6630  208.5480  151.7070 N   0  0  0  0  0  0  0  0  0  0  0  0
  161.5780  209.7730  149.7010 N   0  0  0  0  0  0  0  0  0  0  0  0
  162.4730  210.8850  149.4150 C   0  0  0  0  0  2  0  0  0  0  0  0
  162.3290  213.8380  148.2350 C   0  0  0  0  0  2  0  0  0  0  0  0
  161.9070  211.7320  148.2830 C   0  0  0  0  0  3  0  0  0  0  0  0
  161.2380  212.9760  148.8410 C   0  0  0  0  0  2  0  0  0  0  0  0
  163.0020  212.5940  147.6870 C   0  0  0  0  0  2  0  0  0  0  0  0
  161.7580  205.8220  152.4600 N   0  0  0  0  0  2  0  0  0  0  0  0
  161.2080  204.5330  152.1610 C   0  0  0  0  0  0  0  0  0  0  0  0
  160.1610  204.1180  152.7230 O   0  0  0  0  0  0  0  0  0  0  0  0
  161.9130  203.6540  151.1910 C   0  0  0  0  0  2  0  0  0  0  0  0
  160.9470  202.6150  150.6490 C   0  0  0  0  0  2  0  0  0  0  0  0
  160.6390  202.8870  149.1830 C   0  0  2  0  0  3  0  0  0  0  0  0
  161.5760  200.7730  148.6440 O   0  0  0  0  0  0  0  0  0  0  0  0
  160.7480  201.6300  148.3730 C   0  0  0  0  0  3  0  0  0  0  0  0
  161.5790  203.9490  148.6260 C   0  0  0  0  0  2  0  0  0  0  0  0
  161.5850  203.9400  147.1040 C   0  0  0  0  0  2  0  0  0  0  0  0
  162.3310  205.5520  145.7940 C   0  0  0  0  0  1  0  0  0  0  0  0
  161.2590  205.2070  146.6160 O   0  0  0  0  0  0  0  0  0  0  0  0
  1  4  1  0  0  0  0
  2 10  1  0  0  0  0
  2  5  2  0  0  0  0
  4 11  2  0  0  0  0
  6  9  1  1  0  0  0
  6  2  1  0  0  0  0
  7 12  2  0  0  0  0
  7  6  1  0  0  0  0
  8 10  2  0  0  0  0
  9  1  2  0  0  0  0
 11  5  1  0  0  0  0
 11  3  1  0  0  0  0
 12  8  1  0  0  0  0
 13 16  1  0  0  0  0
 14 16  1  0  0  0  0
 15 17  1  0  0  0  0
 15 14  1  0  0  0  0
 16  7  1  0  0  0  0
 17 13  1  0  0  0  0
 18 17  1  0  0  0  0
 19 21  1  0  0  0  0
 20 21  1  0  0  0  0
 20 18  1  0  0  0  0
 22 19  1  0  0  0  0
 22 20  1  0  0  0  0
 23 12  1  0  0  0  0
 24 23  1  0  0  0  0
 24 25  2  0  0  0  0
 26 24  1  0  0  0  0
 27 26  1  0  0  0  0
 28 30  1  6  0  0  0
 28 27  1  0  0  0  0
 30 29  2  0  0  0  0
 31 28  1  0  0  0  0
 32 31  1  0  0  0  0
 33 34  1  0  0  0  0
 34 32  1  0  0  0  0
M  END
>  <MODEL>
4

>  <REMARK>
 VINA RESULT:      -6.7      2.406      5.697
  Name = 
  11 active torsions:
  status: ('A' for Active; 'I' for Inactive)
    1  A    between atoms: N_2  and  C_34
    2  A    between atoms: C_6  and  C_33
    3  A    between atoms: C_9  and  C_23
    4  A    between atoms: C_13  and  C_27
    5  A    between atoms: C_13  and  C_29
    6  A    between atoms: O_15  and  C_29
    7  A    between atoms: N_18  and  C_21
    8  A    between atoms: C_19  and  C_27
    9  A    between atoms: C_19  and  C_33
   10  A    between atoms: C_23  and  N_32
   11  A    between atoms: C_27  and  C_28
                            x       y       z     vdW  Elec       q    Type
                         _______ _______ _______ _____ _____    ______ ____

>  <TORSDO>
F 11

$$$$
=
 OpenBabel11042422303D

 34 37  0  0  1  0  0  0  0  0999 V2000
  159.9010  201.4840  145.3120 C   0  0  0  0  0  3  0  0  0  0  0  0
  160.9710  200.8530  148.0440 C   0  0  0  0  0  0  0  0  0  0  0  0
  162.0330  198.3620  145.5370 C   0  0  0  0  0  1  0  0  0  0  0  0
  160.7200  200.3210  145.1000 N   0  0  0  0  0  0  0  0  0  0  0  0
  161.0740  199.7260  147.4090 N   0  0  0  0  0  0  0  0  0  0  0  0
  161.1530  202.1630  147.3300 C   0  0  2  0  0  3  0  0  0  0  0  0
  161.2260  203.3610  148.2570 C   0  0  0  0  0  0  0  0  0  0  0  0
  160.5240  201.9270  150.1240 C   0  0  0  0  0  3  0  0  0  0  0  0
  160.0550  202.3250  146.3340 C   0  0  0  0  0  3  0  0  0  0  0  0
  160.6080  200.8390  149.4260 N   0  0  0  0  0  0  0  0  0  0  0  0
  161.2970  199.5690  145.9980 C   0  0  0  0  0  0  0  0  0  0  0  0
  160.8390  203.2540  149.5520 C   0  0  0  0  0  0  0  0  0  0  0  0
  161.2400  205.9080  148.1700 C   0  0  0  0  0  2  0  0  0  0  0  0
  162.4730  204.7430  146.5010 C   0  0  0  0  0  2  0  0  0  0  0  0
  162.5980  206.2330  146.2820 C   0  0  0  0  0  2  0  0  0  0  0  0
  161.7110  204.6140  147.7220 N   0  0  0  0  0  0  0  0  0  0  0  0
  161.6810  206.9080  147.2010 N   0  0  0  0  0  0  0  0  0  0  0  0
  162.4540  207.8970  147.9380 C   0  0  0  0  0  2  0  0  0  0  0  0
  162.3820  210.1830  150.1510 C   0  0  0  0  0  2  0  0  0  0  0  0
  161.5310  208.7430  148.8020 C   0  0  0  0  0  3  0  0  0  0  0  0
  161.9960  208.7190  150.2470 C   0  0  0  0  0  2  0  0  0  0  0  0
  161.9270  210.2030  148.7040 C   0  0  0  0  0  2  0  0  0  0  0  0
  160.7550  204.4250  150.3790 N   0  0  0  0  0  2  0  0  0  0  0  0
  161.5270  204.7200  151.5500 C   0  0  0  0  0  0  0  0  0  0  0  0
  162.3790  203.9080  151.9970 O   0  0  0  0  0  0  0  0  0  0  0  0
  161.2880  205.9970  152.2720 C   0  0  0  0  0  2  0  0  0  0  0  0
  161.0520  205.7140  153.7450 C   0  0  0  0  0  2  0  0  0  0  0  0
  161.1650  206.9970  154.5590 C   0  0  2  0  0  3  0  0  0  0  0  0
  160.2540  206.9270  156.7510 O   0  0  0  0  0  0  0  0  0  0  0  0
  160.0510  207.0930  155.5570 C   0  0  0  0  0  3  0  0  0  0  0  0
  161.1510  208.2150  153.6430 C   0  0  0  0  0  2  0  0  0  0  0  0
  160.5290  209.4200  154.3350 C   0  0  0  0  0  2  0  0  0  0  0  0
  159.6860  210.7590  152.7960 C   0  0  0  0  0  1  0  0  0  0  0  0
  160.8040  210.5820  153.6120 O   0  0  0  0  0  0  0  0  0  0  0  0
  1  9  2  0  0  0  0
  2 10  1  0  0  0  0
  3 11  1  0  0  0  0
  4  1  1  0  0  0  0
  4 11  2  0  0  0  0
  5  2  2  0  0  0  0
  6  9  1  6  0  0  0
  6  2  1  0  0  0  0
  6  7  1  0  0  0  0
  7 12  2  0  0  0  0
 10  8  2  0  0  0  0
 11  5  1  0  0  0  0
 12  8  1  0  0  0  0
 12 23  1  0  0  0  0
 14 16  1  0  0  0  0
 15 14  1  0  0  0  0
 15 17  1  0  0  0  0
 16 13  1  0  0  0  0
 16  7  1  0  0  0  0
 17 18  1  0  0  0  0
 17 13  1  0  0  0  0
 18 20  1  0  0  0  0
 19 21  1  0  0  0  0
 20 21  1  0  0  0  0
 22 20  1  0  0  0  0
 22 19  1  0  0  0  0
 23 24  1  0  0  0  0
 24 25  2  0  0  0  0
 24 26  1  0  0  0  0
 26 27  1  0  0  0  0
 27 28  1  0  0  0  0
 28 31  1  6  0  0  0
 28 30  1  0  0  0  0
 30 29  2  0  0  0  0
 31 32  1  0  0  0  0
 33 34  1  0  0  0  0
 34 32  1  0  0  0  0
M  END
>  <MODEL>
5

>  <REMARK>
 VINA RESULT:      -6.4      3.327      9.385
  Name = 
  11 active torsions:
  status: ('A' for Active; 'I' for Inactive)
    1  A    between atoms: N_2  and  C_34
    2  A    between atoms: C_6  and  C_33
    3  A    between atoms: C_9  and  C_23
    4  A    between atoms: C_13  and  C_27
    5  A    between atoms: C_13  and  C_29
    6  A    between atoms: O_15  and  C_29
    7  A    between atoms: N_18  and  C_21
    8  A    between atoms: C_19  and  C_27
    9  A    between atoms: C_19  and  C_33
   10  A    between atoms: C_23  and  N_32
   11  A    between atoms: C_27  and  C_28
                            x       y       z     vdW  Elec       q    Type
                         _______ _______ _______ _____ _____    ______ ____

>  <TORSDO>
F 11

$$$$
=
 OpenBabel11042422303D

 34 37  0  0  1  0  0  0  0  0999 V2000
  162.0680  203.2550  151.6350 C   0  0  0  0  0  3  0  0  0  0  0  0
  161.1290  204.8620  149.2810 C   0  0  0  0  0  0  0  0  0  0  0  0
  159.4900  201.5590  149.4400 C   0  0  0  0  0  1  0  0  0  0  0  0
  161.0600  202.4240  151.0330 N   0  0  0  0  0  0  0  0  0  0  0  0
  160.7980  203.6460  148.9710 N   0  0  0  0  0  0  0  0  0  0  0  0
  161.1020  205.3300  150.7090 C   0  0  2  0  0  3  0  0  0  0  0  0
  161.2930  206.8270  150.8660 C   0  0  0  0  0  0  0  0  0  0  0  0
  161.9020  206.9730  148.4910 C   0  0  0  0  0  3  0  0  0  0  0  0
  162.1310  204.5760  151.4820 C   0  0  0  0  0  3  0  0  0  0  0  0
  161.5910  205.7380  148.2530 N   0  0  0  0  0  0  0  0  0  0  0  0
  160.4430  202.6040  149.8970 C   0  0  0  0  0  0  0  0  0  0  0  0
  161.7590  207.5720  149.8340 C   0  0  0  0  0  0  0  0  0  0  0  0
  160.9940  208.8580  152.3760 C   0  0  0  0  0  2  0  0  0  0  0  0
  160.8970  206.7080  153.3910 C   0  0  0  0  0  2  0  0  0  0  0  0
  160.7020  207.7780  154.4400 C   0  0  0  0  0  2  0  0  0  0  0  0
  160.9740  207.4290  152.1420 N   0  0  0  0  0  0  0  0  0  0  0  0
  160.9570  209.0780  153.8190 N   0  0  0  0  0  0  0  0  0  0  0  0
  159.8010  209.9210  154.0870 C   0  0  0  0  0  2  0  0  0  0  0  0
  158.4570  212.7740  153.6560 C   0  0  0  0  0  2  0  0  0  0  0  0
  159.9560  211.2600  153.3790 C   0  0  0  0  0  3  0  0  0  0  0  0
  158.6640  211.6350  152.6760 C   0  0  0  0  0  2  0  0  0  0  0  0
  159.7430  212.3920  154.3640 C   0  0  0  0  0  2  0  0  0  0  0  0
  162.0920  208.9550  150.0370 N   0  0  0  0  0  2  0  0  0  0  0  0
  161.9340  210.0340  149.1060 C   0  0  0  0  0  0  0  0  0  0  0  0
  161.4880  209.8400  147.9460 O   0  0  0  0  0  0  0  0  0  0  0  0
  162.3440  211.4040  149.5110 C   0  0  0  0  0  2  0  0  0  0  0  0
  162.7000  212.2150  148.2780 C   0  0  0  0  0  2  0  0  0  0  0  0
  161.7930  213.4330  148.1610 C   0  0  2  0  0  3  0  0  0  0  0  0
  159.9620  214.3500  149.3650 O   0  0  0  0  0  0  0  0  0  0  0  0
  160.7350  213.4140  149.2240 C   0  0  0  0  0  3  0  0  0  0  0  0
  161.1450  213.4890  146.7830 C   0  0  0  0  0  2  0  0  0  0  0  0
  162.1930  213.5490  145.6810 C   0  0  0  0  0  2  0  0  0  0  0  0
  162.7660  213.0120  143.6180 C   0  0  0  0  0  1  0  0  0  0  0  0
  161.7500  212.8460  144.5580 O   0  0  0  0  0  0  0  0  0  0  0  0
  2  6  1  0  0  0  0
  3 11  1  0  0  0  0
  4  1  1  0  0  0  0
  5  2  2  0  0  0  0
  5 11  1  0  0  0  0
  6  7  1  0  0  0  0
  6  9  1  1  0  0  0
  7 16  1  0  0  0  0
  8 12  1  0  0  0  0
  9  1  2  0  0  0  0
 10  8  2  0  0  0  0
 10  2  1  0  0  0  0
 11  4  2  0  0  0  0
 12 23  1  0  0  0  0
 12  7  2  0  0  0  0
 13 17  1  0  0  0  0
 14 15  1  0  0  0  0
 16 13  1  0  0  0  0
 16 14  1  0  0  0  0
 17 18  1  0  0  0  0
 17 15  1  0  0  0  0
 19 22  1  0  0  0  0
 20 18  1  0  0  0  0
 20 22  1  0  0  0  0
 21 20  1  0  0  0  0
 21 19  1  0  0  0  0
 24 26  1  0  0  0  0
 24 23  1  0  0  0  0
 25 24  2  0  0  0  0
 27 26  1  0  0  0  0
 28 31  1  6  0  0  0
 28 27  1  0  0  0  0
 28 30  1  0  0  0  0
 30 29  2  0  0  0  0
 32 31  1  0  0  0  0
 33 34  1  0  0  0  0
 34 32  1  0  0  0  0
M  END
>  <MODEL>
6

>  <REMARK>
 VINA RESULT:      -6.4      3.272      7.742
  Name = 
  11 active torsions:
  status: ('A' for Active; 'I' for Inactive)
    1  A    between atoms: N_2  and  C_34
    2  A    between atoms: C_6  and  C_33
    3  A    between atoms: C_9  and  C_23
    4  A    between atoms: C_13  and  C_27
    5  A    between atoms: C_13  and  C_29
    6  A    between atoms: O_15  and  C_29
    7  A    between atoms: N_18  and  C_21
    8  A    between atoms: C_19  and  C_27
    9  A    between atoms: C_19  and  C_33
   10  A    between atoms: C_23  and  N_32
   11  A    between atoms: C_27  and  C_28
                            x       y       z     vdW  Elec       q    Type
                         _______ _______ _______ _____ _____    ______ ____

>  <TORSDO>
F 11

$$$$
=
 OpenBabel11042422303D

 34 37  0  0  1  0  0  0  0  0999 V2000
  162.2790  210.7620  154.7780 C   0  0  0  0  0  3  0  0  0  0  0  0
  160.4960  208.3600  154.5450 C   0  0  0  0  0  0  0  0  0  0  0  0
  158.9270  211.0570  156.5160 C   0  0  0  0  0  1  0  0  0  0  0  0
  161.0710  211.1660  155.4460 N   0  0  0  0  0  0  0  0  0  0  0  0
  160.0050  209.0060  155.5580 N   0  0  0  0  0  0  0  0  0  0  0  0
  161.1110  209.0910  153.3860 C   0  0  2  0  0  3  0  0  0  0  0  0
  161.4240  208.2010  152.1970 C   0  0  0  0  0  0  0  0  0  0  0  0
  160.9540  206.2280  153.5830 C   0  0  0  0  0  3  0  0  0  0  0  0
  162.3350  209.8010  153.8570 C   0  0  0  0  0  3  0  0  0  0  0  0
  160.5110  206.9320  154.5770 N   0  0  0  0  0  0  0  0  0  0  0  0
  160.0340  210.4320  155.7450 C   0  0  0  0  0  0  0  0  0  0  0  0
  161.4340  206.8520  152.3320 C   0  0  0  0  0  0  0  0  0  0  0  0
  161.5480  210.2480  150.6830 C   0  0  0  0  0  2  0  0  0  0  0  0
  161.9090  208.1170  149.6860 C   0  0  0  0  0  2  0  0  0  0  0  0
  162.0190  209.1980  148.6360 C   0  0  0  0  0  2  0  0  0  0  0  0
  161.7150  208.8300  150.9270 N   0  0  0  0  0  0  0  0  0  0  0  0
  161.6050  210.4650  149.2400 N   0  0  0  0  0  0  0  0  0  0  0  0
  162.6700  211.4280  149.0010 C   0  0  0  0  0  2  0  0  0  0  0  0
  161.2320  214.0070  147.8140 C   0  0  0  0  0  2  0  0  0  0  0  0
  162.3950  212.2030  147.7200 C   0  0  0  0  0  3  0  0  0  0  0  0
  160.9180  212.5370  147.6150 C   0  0  0  0  0  2  0  0  0  0  0  0
  162.7070  213.6720  147.9300 C   0  0  0  0  0  2  0  0  0  0  0  0
  161.8890  206.0240  151.2500 N   0  0  0  0  0  2  0  0  0  0  0  0
  161.2030  204.9140  150.6560 C   0  0  0  0  0  0  0  0  0  0  0  0
  160.0820  204.5310  151.0810 O   0  0  0  0  0  0  0  0  0  0  0  0
  161.8490  204.1790  149.5380 C   0  0  0  0  0  2  0  0  0  0  0  0
  161.0290  204.3520  148.2720 C   0  0  0  0  0  2  0  0  0  0  0  0
  161.9420  204.5360  147.0670 C   0  0  2  0  0  3  0  0  0  0  0  0
  160.7730  206.5820  146.7700 O   0  0  0  0  0  0  0  0  0  0  0  0
  161.6450  205.8270  146.3650 C   0  0  0  0  0  3  0  0  0  0  0  0
  161.7910  203.3690  146.0970 C   0  0  0  0  0  2  0  0  0  0  0  0
  160.7260  203.6570  145.0480 C   0  0  0  0  0  2  0  0  0  0  0  0
  160.4560  201.5510  145.6490 C   0  0  0  0  0  1  0  0  0  0  0  0
  160.1010  202.4690  144.6620 O   0  0  0  0  0  0  0  0  0  0  0  0
  1  4  1  0  0  0  0
  2 10  1  0  0  0  0
  2  5  2  0  0  0  0
  4 11  2  0  0  0  0
  5 11  1  0  0  0  0
  6  9  1  1  0  0  0
  6  2  1  0  0  0  0
  7 12  2  0  0  0  0
  7  6  1  0  0  0  0
  8 10  2  0  0  0  0
  9  1  2  0  0  0  0
 11  3  1  0  0  0  0
 12  8  1  0  0  0  0
 13 16  1  0  0  0  0
 14 16  1  0  0  0  0
 15 17  1  0  0  0  0
 15 14  1  0  0  0  0
 16  7  1  0  0  0  0
 17 13  1  0  0  0  0
 18 17  1  0  0  0  0
 19 22  1  0  0  0  0
 20 22  1  0  0  0  0
 20 18  1  0  0  0  0
 21 20  1  0  0  0  0
 21 19  1  0  0  0  0
 23 12  1  0  0  0  0
 24 25  2  0  0  0  0
 24 23  1  0  0  0  0
 26 24  1  0  0  0  0
 27 26  1  0  0  0  0
 28 31  1  6  0  0  0
 28 27  1  0  0  0  0
 30 29  2  0  0  0  0
 30 28  1  0  0  0  0
 32 31  1  0  0  0  0
 34 32  1  0  0  0  0
 34 33  1  0  0  0  0
M  END
>  <MODEL>
7

>  <REMARK>
 VINA RESULT:      -6.3      2.355      5.290
  Name = 
  11 active torsions:
  status: ('A' for Active; 'I' for Inactive)
    1  A    between atoms: N_2  and  C_34
    2  A    between atoms: C_6  and  C_33
    3  A    between atoms: C_9  and  C_23
    4  A    between atoms: C_13  and  C_27
    5  A    between atoms: C_13  and  C_29
    6  A    between atoms: O_15  and  C_29
    7  A    between atoms: N_18  and  C_21
    8  A    between atoms: C_19  and  C_27
    9  A    between atoms: C_19  and  C_33
   10  A    between atoms: C_23  and  N_32
   11  A    between atoms: C_27  and  C_28
                            x       y       z     vdW  Elec       q    Type
                         _______ _______ _______ _____ _____    ______ ____

>  <TORSDO>
F 11

$$$$
=
 OpenBabel11042422303D

 34 37  0  0  1  0  0  0  0  0999 V2000
  163.0960  213.0360  146.8130 C   0  0  0  0  0  3  0  0  0  0  0  0
  160.5410  213.4380  148.3360 C   0  0  0  0  0  0  0  0  0  0  0  0
  160.1300  214.1480  144.7380 C   0  0  0  0  0  1  0  0  0  0  0  0
  162.1380  213.3720  145.7940 N   0  0  0  0  0  0  0  0  0  0  0  0
  160.3470  214.0970  147.2350 N   0  0  0  0  0  0  0  0  0  0  0  0
  161.3620  212.1790  148.3480 C   0  0  2  0  0  3  0  0  0  0  0  0
  161.2970  211.4190  149.6600 C   0  0  0  0  0  0  0  0  0  0  0  0
  160.1530  213.3370  150.6850 C   0  0  0  0  0  3  0  0  0  0  0  0
  162.7710  212.5190  147.9970 C   0  0  0  0  0  3  0  0  0  0  0  0
  160.0240  213.9640  149.5580 N   0  0  0  0  0  0  0  0  0  0  0  0
  160.9080  213.7810  145.9500 C   0  0  0  0  0  0  0  0  0  0  0  0
  160.8060  212.0140  150.7750 C   0  0  0  0  0  0  0  0  0  0  0  0
  161.4300  209.0680  148.6860 C   0  0  0  0  0  2  0  0  0  0  0  0
  162.3900  209.4250  150.8330 C   0  0  0  0  0  2  0  0  0  0  0  0
  162.5640  207.9800  150.4300 C   0  0  0  0  0  2  0  0  0  0  0  0
  161.7770  210.0550  149.6870 N   0  0  0  0  0  0  0  0  0  0  0  0
  161.8010  207.7540  149.2020 N   0  0  0  0  0  0  0  0  0  0  0  0
  162.7070  207.1600  148.2300 C   0  0  0  0  0  2  0  0  0  0  0  0
  161.7170  204.2370  147.4510 C   0  0  0  0  0  2  0  0  0  0  0  0
  161.9190  206.3610  147.2010 C   0  0  0  0  0  3  0  0  0  0  0  0
  162.7140  205.1460  146.7580 C   0  0  0  0  0  2  0  0  0  0  0  0
  160.9290  205.4520  147.9030 C   0  0  0  0  0  2  0  0  0  0  0  0
  160.8980  211.3490  152.0460 N   0  0  0  0  0  2  0  0  0  0  0  0
  159.8170  210.8920  152.8680 C   0  0  0  0  0  0  0  0  0  0  0  0
  158.6170  211.0730  152.5370 O   0  0  0  0  0  0  0  0  0  0  0  0
  160.1240  210.2230  154.1600 C   0  0  0  0  0  2  0  0  0  0  0  0
  161.0640  209.0550  153.9180 C   0  0  0  0  0  2  0  0  0  0  0  0
  160.5310  207.7950  154.5870 C   0  0  2  0  0  3  0  0  0  0  0  0
  161.5320  208.1860  156.7050 O   0  0  0  0  0  0  0  0  0  0  0  0
  160.5100  207.9510  156.0780 C   0  0  0  0  0  3  0  0  0  0  0  0
  161.3770  206.5860  154.2030 C   0  0  0  0  0  2  0  0  0  0  0  0
  160.9940  206.0580  152.8270 C   0  0  0  0  0  2  0  0  0  0  0  0
  161.4660  204.4150  151.4310 C   0  0  0  0  0  1  0  0  0  0  0  0
  161.1900  204.6760  152.7730 O   0  0  0  0  0  0  0  0  0  0  0  0
  1  9  2  0  0  0  0
  2  6  1  0  0  0  0
  2 10  1  0  0  0  0
  3 11  1  0  0  0  0
  4 11  2  0  0  0  0
  4  1  1  0  0  0  0
  5  2  2  0  0  0  0
  6  9  1  1  0  0  0
  6  7  1  0  0  0  0
  7 16  1  0  0  0  0
  7 12  2  0  0  0  0
  8 12  1  0  0  0  0
 10  8  2  0  0  0  0
 11  5  1  0  0  0  0
 12 23  1  0  0  0  0
 13 17  1  0  0  0  0
 13 16  1  0  0  0  0
 15 14  1  0  0  0  0
 16 14  1  0  0  0  0
 17 15  1  0  0  0  0
 18 17  1  0  0  0  0
 19 22  1  0  0  0  0
 20 22  1  0  0  0  0
 20 18  1  0  0  0  0
 21 20  1  0  0  0  0
 21 19  1  0  0  0  0
 23 24  1  0  0  0  0
 24 26  1  0  0  0  0
 25 24  2  0  0  0  0
 27 26  1  0  0  0  0
 28 27  1  6  0  0  0
 28 30  1  0  0  0  0
 30 29  2  0  0  0  0
 31 28  1  0  0  0  0
 32 31  1  0  0  0  0
 33 34  1  0  0  0  0
 34 32  1  0  0  0  0
M  END
>  <MODEL>
8

>  <REMARK>
 VINA RESULT:      -6.2      3.801      7.348
  Name = 
  11 active torsions:
  status: ('A' for Active; 'I' for Inactive)
    1  A    between atoms: N_2  and  C_34
    2  A    between atoms: C_6  and  C_33
    3  A    between atoms: C_9  and  C_23
    4  A    between atoms: C_13  and  C_27
    5  A    between atoms: C_13  and  C_29
    6  A    between atoms: O_15  and  C_29
    7  A    between atoms: N_18  and  C_21
    8  A    between atoms: C_19  and  C_27
    9  A    between atoms: C_19  and  C_33
   10  A    between atoms: C_23  and  N_32
   11  A    between atoms: C_27  and  C_28
                            x       y       z     vdW  Elec       q    Type
                         _______ _______ _______ _____ _____    ______ ____

>  <TORSDO>
F 11

$$$$
=
 OpenBabel11042422303D

 34 37  0  0  1  0  0  0  0  0999 V2000
  161.9610  203.0060  151.6040 C   0  0  0  0  0  3  0  0  0  0  0  0
  161.0480  204.6260  149.2490 C   0  0  0  0  0  0  0  0  0  0  0  0
  159.3820  201.3360  149.3900 C   0  0  0  0  0  1  0  0  0  0  0  0
  160.9500  202.1850  150.9950 N   0  0  0  0  0  0  0  0  0  0  0  0
  160.7100  203.4140  148.9340 N   0  0  0  0  0  0  0  0  0  0  0  0
  161.0180  205.0910  150.6780 C   0  0  2  0  0  3  0  0  0  0  0  0
  161.2200  206.5860  150.8390 C   0  0  0  0  0  0  0  0  0  0  0  0
  161.8440  206.7320  148.4680 C   0  0  0  0  0  3  0  0  0  0  0  0
  162.0360  204.3270  151.4550 C   0  0  0  0  0  3  0  0  0  0  0  0
  161.5240  205.5010  148.2250 N   0  0  0  0  0  0  0  0  0  0  0  0
  160.3410  202.3730  149.8550 C   0  0  0  0  0  0  0  0  0  0  0  0
  161.6970  207.3300  149.8120 C   0  0  0  0  0  0  0  0  0  0  0  0
  160.9040  208.6180  152.3460 C   0  0  0  0  0  2  0  0  0  0  0  0
  160.8320  206.4690  153.3660 C   0  0  0  0  0  2  0  0  0  0  0  0
  160.6290  207.5390  154.4130 C   0  0  0  0  0  2  0  0  0  0  0  0
  160.8980  207.1880  152.1150 N   0  0  0  0  0  0  0  0  0  0  0  0
  160.8690  208.8400  153.7880 N   0  0  0  0  0  0  0  0  0  0  0  0
  159.7060  209.6730  154.0580 C   0  0  0  0  0  2  0  0  0  0  0  0
  160.4450  211.6810  156.4140 C   0  0  0  0  0  2  0  0  0  0  0  0
  160.1440  211.0970  154.3680 C   0  0  0  0  0  3  0  0  0  0  0  0
  159.2690  211.6920  155.4570 C   0  0  0  0  0  2  0  0  0  0  0  0
  161.3170  211.0780  155.3290 C   0  0  0  0  0  2  0  0  0  0  0  0
  162.0410  208.7100  150.0200 N   0  0  0  0  0  2  0  0  0  0  0  0
  161.9580  209.7800  149.0700 C   0  0  0  0  0  0  0  0  0  0  0  0
  161.5800  209.5790  147.8860 O   0  0  0  0  0  0  0  0  0  0  0  0
  162.3650  211.1480  149.4840 C   0  0  0  0  0  2  0  0  0  0  0  0
  162.7050  211.9730  148.2560 C   0  0  0  0  0  2  0  0  0  0  0  0
  161.5310  212.8640  147.8710 C   0  0  2  0  0  3  0  0  0  0  0  0
  162.5750  213.3140  145.7850 O   0  0  0  0  0  0  0  0  0  0  0  0
  161.5320  213.1370  146.3960 C   0  0  0  0  0  3  0  0  0  0  0  0
  161.5790  214.1770  148.6440 C   0  0  0  0  0  2  0  0  0  0  0  0
  160.3400  214.3540  149.5100 C   0  0  0  0  0  2  0  0  0  0  0  0
  158.2830  213.7060  149.9780 C   0  0  0  0  0  1  0  0  0  0  0  0
  159.3850  213.3890  149.1840 O   0  0  0  0  0  0  0  0  0  0  0  0
  2  6  1  0  0  0  0
  3 11  1  0  0  0  0
  4  1  1  0  0  0  0
  5  2  2  0  0  0  0
  5 11  1  0  0  0  0
  6  7  1  0  0  0  0
  6  9  1  1  0  0  0
  7 16  1  0  0  0  0
  8 12  1  0  0  0  0
  9  1  2  0  0  0  0
 10  8  2  0  0  0  0
 10  2  1  0  0  0  0
 11  4  2  0  0  0  0
 12 23  1  0  0  0  0
 12  7  2  0  0  0  0
 13 17  1  0  0  0  0
 14 15  1  0  0  0  0
 16 13  1  0  0  0  0
 16 14  1  0  0  0  0
 17 18  1  0  0  0  0
 17 15  1  0  0  0  0
 18 20  1  0  0  0  0
 20 22  1  0  0  0  0
 20 21  1  0  0  0  0
 21 19  1  0  0  0  0
 22 19  1  0  0  0  0
 24 26  1  0  0  0  0
 24 23  1  0  0  0  0
 25 24  2  0  0  0  0
 27 26  1  0  0  0  0
 28 30  1  6  0  0  0
 28 27  1  0  0  0  0
 28 31  1  0  0  0  0
 29 30  2  0  0  0  0
 31 32  1  0  0  0  0
 34 32  1  0  0  0  0
 34 33  1  0  0  0  0
M  END
>  <MODEL>
9

>  <REMARK>
 VINA RESULT:      -6.1      2.884      7.891
  Name = 
  11 active torsions:
  status: ('A' for Active; 'I' for Inactive)
    1  A    between atoms: N_2  and  C_34
    2  A    between atoms: C_6  and  C_33
    3  A    between atoms: C_9  and  C_23
    4  A    between atoms: C_13  and  C_27
    5  A    between atoms: C_13  and  C_29
    6  A    between atoms: O_15  and  C_29
    7  A    between atoms: N_18  and  C_21
    8  A    between atoms: C_19  and  C_27
    9  A    between atoms: C_19  and  C_33
   10  A    between atoms: C_23  and  N_32
   11  A    between atoms: C_27  and  C_28
                            x       y       z     vdW  Elec       q    Type
                         _______ _______ _______ _____ _____    ______ ____

>  <TORSDO>
F 11

$$$$
