=
 OpenBabel11052409593D

 39 42  0  0  1  0  0  0  0  0999 V2000
  162.0340  209.1340  150.7250 C   0  0  2  0  0  3  0  0  0  0  0  0
  160.6400  211.4890  154.1540 O   0  0  0  0  0  0  0  0  0  0  0  0
  161.7150  210.0140  151.8920 C   0  0  0  0  0  0  0  0  0  0  0  0
  162.6120  210.3060  152.7310 O   0  0  0  0  0  0  0  0  0  0  0  0
  160.3770  210.4990  152.0460 N   0  0  0  0  0  2  0  0  0  0  0  0
  159.8950  211.2460  153.1680 C   0  0  0  0  0  0  0  0  0  0  0  0
  158.4930  211.7500  153.1630 C   0  0  0  0  0  2  0  0  0  0  0  0
  158.4600  213.2460  152.8920 C   0  0  0  0  0  2  0  0  0  0  0  0
  157.1490  213.7200  152.9850 O   0  0  0  0  0  0  0  0  0  0  0  0
  157.1820  213.9160  149.2760 C   0  0  0  0  0  3  0  0  0  0  0  0
  155.4000  214.2230  151.4610 C   0  0  0  0  0  3  0  0  0  0  0  0
  155.8900  214.1910  149.0700 C   0  0  0  0  0  3  0  0  0  0  0  0
  157.6700  213.5410  150.6510 C   0  0  0  0  0  2  0  0  0  0  0  0
  156.8800  214.2840  151.7370 C   0  0  2  0  0  3  0  0  0  0  0  0
  154.9450  214.2180  150.2040 C   0  0  0  0  0  3  0  0  0  0  0  0
  162.3380  209.3550  148.3770 O   0  0  0  0  0  0  0  0  0  0  0  0
  161.9280  211.3600  149.5130 N   0  0  0  0  0  2  0  0  0  0  0  0
  162.1010  209.9380  149.4690 C   0  0  0  0  0  0  0  0  0  0  0  0
  161.3040  213.4140  148.5810 O   0  0  0  0  0  1  0  0  0  0  0  0
  163.4500  212.5420  148.0000 C   0  0  0  0  0  1  0  0  0  0  0  0
  162.0060  212.2320  148.3470 C   0  0  1  0  0  3  0  0  0  0  0  0
  161.0490  208.0660  150.5900 N   0  0  0  0  0  2  0  0  0  0  0  0
  161.2160  204.4130  151.3980 C   0  0  0  0  0  3  0  0  0  0  0  0
  161.2360  204.4510  152.7920 C   0  0  0  0  0  3  0  0  0  0  0  0
  161.0890  206.8350  151.3220 C   0  0  0  0  0  0  0  0  0  0  0  0
  161.1860  205.6740  153.4560 C   0  0  0  0  0  3  0  0  0  0  0  0
  161.1160  206.8590  152.7240 C   0  0  0  0  0  3  0  0  0  0  0  0
  161.1430  205.5940  150.6420 C   0  0  0  0  0  0  0  0  0  0  0  0
  161.2190  203.1210  148.8720 N   0  0  0  0  0  0  0  0  0  0  0  0
  160.9570  205.9860  146.8730 C   0  0  0  0  0  3  0  0  0  0  0  0
  161.1220  204.4000  148.4250 C   0  0  0  0  0  0  0  0  0  0  0  0
  161.0510  203.6430  146.1650 C   0  0  0  0  0  0  0  0  0  0  0  0
  161.1010  205.5070  149.1560 C   0  0  0  0  0  0  0  0  0  0  0  0
  161.1430  202.3640  146.6280 N   0  0  0  0  0  0  0  0  0  0  0  0
  161.2260  202.0990  147.9670 C   0  0  0  0  0  0  0  0  0  0  0  0
  161.3370  200.6950  148.4370 C   0  0  0  0  0  1  0  0  0  0  0  0
  160.9610  203.8940  144.7670 N   0  0  0  0  0  1  0  0  0  0  0  0
  160.9890  206.6710  148.2100 C   0  0  0  0  0  2  0  0  0  0  0  0
  161.0410  204.6840  147.0910 C   0  0  0  0  0  0  0  0  0  0  0  0
  1 18  1  6  0  0  0
  1  3  1  0  0  0  0
  3  5  1  0  0  0  0
  3  4  2  0  0  0  0
  5  6  1  0  0  0  0
  6  2  2  0  0  0  0
  7  6  1  0  0  0  0
  8  9  1  0  0  0  0
  8  7  1  0  0  0  0
 10 13  1  0  0  0  0
 11 14  1  0  0  0  0
 12 10  2  0  0  0  0
 12 15  1  0  0  0  0
 13 14  1  0  0  0  0
 14  9  1  1  0  0  0
 15 11  2  0  0  0  0
 16 18  2  0  0  0  0
 18 17  1  0  0  0  0
 21 20  1  1  0  0  0
 21 19  1  0  0  0  0
 21 17  1  0  0  0  0
 22  1  1  0  0  0  0
 22 25  1  0  0  0  0
 23 24  1  0  0  0  0
 24 26  2  0  0  0  0
 25 27  2  0  0  0  0
 27 26  1  0  0  0  0
 28 25  1  0  0  0  0
 28 23  2  0  0  0  0
 30 39  2  0  0  0  0
 30 38  1  0  0  0  0
 31 29  1  0  0  0  0
 31 33  2  0  0  0  0
 32 34  2  0  0  0  0
 32 39  1  0  0  0  0
 33 28  1  0  0  0  0
 34 35  1  0  0  0  0
 35 36  1  0  0  0  0
 35 29  2  0  0  0  0
 37 32  1  0  0  0  0
 38 33  1  0  0  0  0
 39 31  1  0  0  0  0
M  END
>  <MODEL>
1

>  <REMARK>
 VINA RESULT:      -9.5      0.000      0.000
  Name = 
  10 active torsions:
  status: ('A' for Active; 'I' for Inactive)
    1  A    between atoms: C_1  and  C_9
    2  A    between atoms: C_1  and  C_22
    3  A    between atoms: C_1  and  N_31
    4  A    between atoms: C_2  and  C_34
    5  A    between atoms: C_2  and  C_35
    6  A    between atoms: C_13  and  N_31
    7  A    between atoms: C_15  and  C_33
    8  A    between atoms: N_18  and  C_37
    9  A    between atoms: C_25  and  O_32
   10  A    between atoms: O_32  and  C_34
                            x       y       z     vdW  Elec       q    Type
                         _______ _______ _______ _____ _____    ______ ____

>  <TORSDO>
F 10

$$$$
=
 OpenBabel11052409593D

 39 42  0  0  1  0  0  0  0  0999 V2000
  161.4060  208.8530  149.9870 C   0  0  2  0  0  3  0  0  0  0  0  0
  162.3380  205.9710  153.1620 O   0  0  0  0  0  0  0  0  0  0  0  0
  161.7110  208.0040  151.1810 C   0  0  0  0  0  0  0  0  0  0  0  0
  162.3840  208.4740  152.1390 O   0  0  0  0  0  0  0  0  0  0  0  0
  161.2420  206.6510  151.2040 N   0  0  0  0  0  2  0  0  0  0  0  0
  161.5560  205.6880  152.2150 C   0  0  0  0  0  0  0  0  0  0  0  0
  160.9390  204.3330  152.1510 C   0  0  0  0  0  2  0  0  0  0  0  0
  161.1030  203.7320  150.7650 C   0  0  0  0  0  2  0  0  0  0  0  0
  160.8730  202.3540  150.8110 O   0  0  0  0  0  0  0  0  0  0  0  0
  160.8810  202.6350  147.1070 C   0  0  0  0  0  3  0  0  0  0  0  0
  161.1630  200.6860  149.1480 C   0  0  0  0  0  3  0  0  0  0  0  0
  161.1340  201.3590  146.8020 C   0  0  0  0  0  3  0  0  0  0  0  0
  160.9640  203.1060  148.5360 C   0  0  0  0  0  2  0  0  0  0  0  0
  160.5240  202.0020  149.5060 C   0  0  2  0  0  3  0  0  0  0  0  0
  161.4100  200.3790  147.8700 C   0  0  0  0  0  3  0  0  0  0  0  0
  163.1210  208.5930  148.3610 O   0  0  0  0  0  0  0  0  0  0  0  0
  161.2170  207.2800  148.0060 N   0  0  0  0  0  2  0  0  0  0  0  0
  161.9770  208.2390  148.7520 C   0  0  0  0  0  0  0  0  0  0  0  0
  162.5440  205.5960  147.0660 O   0  0  0  0  0  1  0  0  0  0  0  0
  160.5020  206.1460  145.9560 C   0  0  0  0  0  1  0  0  0  0  0  0
  161.6770  206.6480  146.7750 C   0  0  1  0  0  3  0  0  0  0  0  0
  161.9210  210.2070  150.1630 N   0  0  0  0  0  2  0  0  0  0  0  0
  160.0990  213.4620  150.5040 C   0  0  0  0  0  3  0  0  0  0  0  0
  159.6220  213.3620  151.8100 C   0  0  0  0  0  3  0  0  0  0  0  0
  161.1640  211.2920  150.7150 C   0  0  0  0  0  0  0  0  0  0  0  0
  159.9080  212.2320  152.5720 C   0  0  0  0  0  3  0  0  0  0  0  0
  160.6720  211.2020  152.0250 C   0  0  0  0  0  3  0  0  0  0  0  0
  160.8740  212.4380  149.9350 C   0  0  0  0  0  0  0  0  0  0  0  0
  159.3040  212.5650  147.3320 N   0  0  0  0  0  0  0  0  0  0  0  0
  162.7250  212.8980  146.6560 C   0  0  0  0  0  3  0  0  0  0  0  0
  160.6550  212.6590  147.4370 C   0  0  0  0  0  0  0  0  0  0  0  0
  160.8550  212.9240  145.0750 C   0  0  0  0  0  0  0  0  0  0  0  0
  161.3820  212.5940  148.5450 C   0  0  0  0  0  0  0  0  0  0  0  0
  159.4980  212.8320  144.9860 N   0  0  0  0  0  0  0  0  0  0  0  0
  158.7240  212.6550  146.1000 C   0  0  0  0  0  0  0  0  0  0  0  0
  157.2490  212.5480  145.9670 C   0  0  0  0  0  1  0  0  0  0  0  0
  161.6390  213.1120  143.9030 N   0  0  0  0  0  1  0  0  0  0  0  0
  162.8250  212.7450  148.1480 C   0  0  0  0  0  2  0  0  0  0  0  0
  161.4440  212.8340  146.3350 C   0  0  0  0  0  0  0  0  0  0  0  0
  1 18  1  6  0  0  0
  1 22  1  0  0  0  0
  1  3  1  0  0  0  0
  3  5  1  0  0  0  0
  3  4  2  0  0  0  0
  5  6  1  0  0  0  0
  6  2  2  0  0  0  0
  7  6  1  0  0  0  0
  8  9  1  0  0  0  0
  8  7  1  0  0  0  0
 10 13  1  0  0  0  0
 11 14  1  0  0  0  0
 12 10  2  0  0  0  0
 12 15  1  0  0  0  0
 13 14  1  0  0  0  0
 14  9  1  1  0  0  0
 15 11  2  0  0  0  0
 16 18  2  0  0  0  0
 17 18  1  0  0  0  0
 21 20  1  1  0  0  0
 21 19  1  0  0  0  0
 21 17  1  0  0  0  0
 22 25  1  0  0  0  0
 23 24  1  0  0  0  0
 24 26  2  0  0  0  0
 25 27  2  0  0  0  0
 27 26  1  0  0  0  0
 28 23  2  0  0  0  0
 28 25  1  0  0  0  0
 29 31  1  0  0  0  0
 30 38  1  0  0  0  0
 31 33  2  0  0  0  0
 32 39  1  0  0  0  0
 33 28  1  0  0  0  0
 34 32  2  0  0  0  0
 34 35  1  0  0  0  0
 35 29  2  0  0  0  0
 36 35  1  0  0  0  0
 37 32  1  0  0  0  0
 38 33  1  0  0  0  0
 39 30  2  0  0  0  0
 39 31  1  0  0  0  0
M  END
>  <MODEL>
2

>  <REMARK>
 VINA RESULT:      -9.0      2.781      8.670
  Name = 
  10 active torsions:
  status: ('A' for Active; 'I' for Inactive)
    1  A    between atoms: C_1  and  C_9
    2  A    between atoms: C_1  and  C_22
    3  A    between atoms: C_1  and  N_31
    4  A    between atoms: C_2  and  C_34
    5  A    between atoms: C_2  and  C_35
    6  A    between atoms: C_13  and  N_31
    7  A    between atoms: C_15  and  C_33
    8  A    between atoms: N_18  and  C_37
    9  A    between atoms: C_25  and  O_32
   10  A    between atoms: O_32  and  C_34
                            x       y       z     vdW  Elec       q    Type
                         _______ _______ _______ _____ _____    ______ ____

>  <TORSDO>
F 10

$$$$
=
 OpenBabel11052409593D

 39 42  0  0  1  0  0  0  0  0999 V2000
  162.1790  208.9510  150.6220 C   0  0  2  0  0  3  0  0  0  0  0  0
  161.6640  211.0910  154.4180 O   0  0  0  0  0  0  0  0  0  0  0  0
  162.1260  209.7900  151.8590 C   0  0  0  0  0  0  0  0  0  0  0  0
  163.1790  210.3140  152.3160 O   0  0  0  0  0  0  0  0  0  0  0  0
  160.8680  209.9700  152.5190 N   0  0  0  0  0  2  0  0  0  0  0  0
  160.6820  210.6410  153.7690 C   0  0  0  0  0  0  0  0  0  0  0  0
  159.3030  210.8190  154.3060 C   0  0  0  0  0  2  0  0  0  0  0  0
  158.3930  211.4380  153.2580 C   0  0  0  0  0  2  0  0  0  0  0  0
  157.6640  212.4900  153.8200 O   0  0  0  0  0  0  0  0  0  0  0  0
  156.3020  212.8010  157.2610 C   0  0  0  0  0  3  0  0  0  0  0  0
  156.1390  211.1020  154.9950 C   0  0  0  0  0  3  0  0  0  0  0  0
  155.4900  211.7390  157.2610 C   0  0  0  0  0  3  0  0  0  0  0  0
  156.9730  213.2460  155.9870 C   0  0  0  0  0  2  0  0  0  0  0  0
  157.3100  212.0450  155.0940 C   0  0  2  0  0  3  0  0  0  0  0  0
  155.3130  210.9380  156.0330 C   0  0  0  0  0  3  0  0  0  0  0  0
  162.2680  209.2860  148.2700 O   0  0  0  0  0  0  0  0  0  0  0  0
  161.9320  211.2280  149.5310 N   0  0  0  0  0  2  0  0  0  0  0  0
  162.1220  209.8140  149.4040 C   0  0  0  0  0  0  0  0  0  0  0  0
  161.0510  213.2290  148.6940 O   0  0  0  0  0  1  0  0  0  0  0  0
  163.2850  212.6570  148.0710 C   0  0  0  0  0  1  0  0  0  0  0  0
  161.8920  212.1550  148.4060 C   0  0  1  0  0  3  0  0  0  0  0  0
  161.0920  207.9770  150.6030 N   0  0  0  0  0  2  0  0  0  0  0  0
  161.2610  204.2960  151.2690 C   0  0  0  0  0  3  0  0  0  0  0  0
  161.2620  204.2790  152.6640 C   0  0  0  0  0  3  0  0  0  0  0  0
  161.1260  206.7190  151.2860 C   0  0  0  0  0  0  0  0  0  0  0  0
  161.1980  205.4750  153.3740 C   0  0  0  0  0  3  0  0  0  0  0  0
  161.1340  206.6870  152.6890 C   0  0  0  0  0  3  0  0  0  0  0  0
  161.1940  205.5050  150.5590 C   0  0  0  0  0  0  0  0  0  0  0  0
  161.1890  203.1000  148.6960 N   0  0  0  0  0  0  0  0  0  0  0  0
  161.0900  206.0480  146.8050 C   0  0  0  0  0  3  0  0  0  0  0  0
  161.1580  204.3980  148.2980 C   0  0  0  0  0  0  0  0  0  0  0  0
  161.0900  203.7320  146.0090 C   0  0  0  0  0  0  0  0  0  0  0  0
  161.1740  205.4770  149.0710 C   0  0  0  0  0  0  0  0  0  0  0  0
  161.1180  202.4340  146.4240 N   0  0  0  0  0  0  0  0  0  0  0  0
  161.1660  202.1140  147.7530 C   0  0  0  0  0  0  0  0  0  0  0  0
  161.2050  200.6890  148.1700 C   0  0  0  0  0  1  0  0  0  0  0  0
  161.0350  204.0400  144.6210 N   0  0  0  0  0  1  0  0  0  0  0  0
  161.1310  206.6800  148.1690 C   0  0  0  0  0  2  0  0  0  0  0  0
  161.1120  204.7360  146.9750 C   0  0  0  0  0  0  0  0  0  0  0  0
  1 18  1  6  0  0  0
  1  3  1  0  0  0  0
  3  4  2  0  0  0  0
  3  5  1  0  0  0  0
  5  6  1  0  0  0  0
  6  7  1  0  0  0  0
  6  2  2  0  0  0  0
  8  9  1  0  0  0  0
  8  7  1  0  0  0  0
 11 14  1  0  0  0  0
 11 15  2  0  0  0  0
 12 10  2  0  0  0  0
 13 10  1  0  0  0  0
 14  9  1  6  0  0  0
 14 13  1  0  0  0  0
 15 12  1  0  0  0  0
 16 18  2  0  0  0  0
 18 17  1  0  0  0  0
 21 20  1  1  0  0  0
 21 19  1  0  0  0  0
 21 17  1  0  0  0  0
 22  1  1  0  0  0  0
 22 25  1  0  0  0  0
 23 24  1  0  0  0  0
 24 26  2  0  0  0  0
 25 27  2  0  0  0  0
 27 26  1  0  0  0  0
 28 23  2  0  0  0  0
 28 25  1  0  0  0  0
 30 39  2  0  0  0  0
 30 38  1  0  0  0  0
 31 29  1  0  0  0  0
 31 33  2  0  0  0  0
 32 34  2  0  0  0  0
 32 39  1  0  0  0  0
 33 28  1  0  0  0  0
 34 35  1  0  0  0  0
 35 36  1  0  0  0  0
 35 29  2  0  0  0  0
 37 32  1  0  0  0  0
 38 33  1  0  0  0  0
 39 31  1  0  0  0  0
M  END
>  <MODEL>
3

>  <REMARK>
 VINA RESULT:      -9.0      1.889      2.611
  Name = 
  10 active torsions:
  status: ('A' for Active; 'I' for Inactive)
    1  A    between atoms: C_1  and  C_9
    2  A    between atoms: C_1  and  C_22
    3  A    between atoms: C_1  and  N_31
    4  A    between atoms: C_2  and  C_34
    5  A    between atoms: C_2  and  C_35
    6  A    between atoms: C_13  and  N_31
    7  A    between atoms: C_15  and  C_33
    8  A    between atoms: N_18  and  C_37
    9  A    between atoms: C_25  and  O_32
   10  A    between atoms: O_32  and  C_34
                            x       y       z     vdW  Elec       q    Type
                         _______ _______ _______ _____ _____    ______ ____

>  <TORSDO>
F 10

$$$$
=
 OpenBabel11052409593D

 39 42  0  0  1  0  0  0  0  0999 V2000
  162.1420  209.2890  150.4620 C   0  0  2  0  0  3  0  0  0  0  0  0
  161.6680  211.2950  154.3350 O   0  0  0  0  0  0  0  0  0  0  0  0
  162.1310  210.0530  151.7480 C   0  0  0  0  0  0  0  0  0  0  0  0
  163.2120  210.2830  152.3590 O   0  0  0  0  0  0  0  0  0  0  0  0
  160.8780  210.4980  152.2770 N   0  0  0  0  0  2  0  0  0  0  0  0
  160.6980  211.1300  153.5490 C   0  0  0  0  0  0  0  0  0  0  0  0
  159.3420  211.6080  153.9430 C   0  0  0  0  0  2  0  0  0  0  0  0
  158.7450  210.7100  155.0140 C   0  0  0  0  0  2  0  0  0  0  0  0
  159.1500  211.1420  156.2800 O   0  0  0  0  0  0  0  0  0  0  0  0
  160.1490  207.5730  156.5310 C   0  0  0  0  0  3  0  0  0  0  0  0
  161.1290  210.1620  157.1510 C   0  0  0  0  0  3  0  0  0  0  0  0
  161.3640  207.7330  157.0640 C   0  0  0  0  0  3  0  0  0  0  0  0
  159.3690  208.7660  156.0420 C   0  0  0  0  0  2  0  0  0  0  0  0
  159.6500  210.0010  156.9080 C   0  0  2  0  0  3  0  0  0  0  0  0
  161.9170  209.0880  157.2600 C   0  0  0  0  0  3  0  0  0  0  0  0
  161.7340  209.7400  148.1640 O   0  0  0  0  0  0  0  0  0  0  0  0
  162.1280  211.6300  149.4860 N   0  0  0  0  0  2  0  0  0  0  0  0
  161.9780  210.2170  149.3040 C   0  0  0  0  0  0  0  0  0  0  0  0
  163.0000  212.3890  147.4500 O   0  0  0  0  0  1  0  0  0  0  0  0
  160.6410  212.5590  147.7750 C   0  0  0  0  0  1  0  0  0  0  0  0
  162.0170  212.6120  148.4130 C   0  0  1  0  0  3  0  0  0  0  0  0
  161.0950  208.2730  150.4480 N   0  0  0  0  0  2  0  0  0  0  0  0
  161.2880  204.6540  151.3910 C   0  0  0  0  0  3  0  0  0  0  0  0
  161.2630  204.7410  152.7820 C   0  0  0  0  0  3  0  0  0  0  0  0
  161.1290  207.0690  151.2240 C   0  0  0  0  0  0  0  0  0  0  0  0
  161.1750  205.9860  153.4000 C   0  0  0  0  0  3  0  0  0  0  0  0
  161.1120  207.1430  152.6250 C   0  0  0  0  0  3  0  0  0  0  0  0
  161.2210  205.8060  150.5910 C   0  0  0  0  0  0  0  0  0  0  0  0
  161.1950  203.2690  148.9130 N   0  0  0  0  0  0  0  0  0  0  0  0
  161.1990  206.0670  146.8060 C   0  0  0  0  0  3  0  0  0  0  0  0
  161.2010  204.5330  148.4180 C   0  0  0  0  0  0  0  0  0  0  0  0
  161.1610  203.6980  146.1850 C   0  0  0  0  0  0  0  0  0  0  0  0
  161.2280  205.6660  149.1090 C   0  0  0  0  0  0  0  0  0  0  0  0
  161.1510  202.4350  146.6960 N   0  0  0  0  0  0  0  0  0  0  0  0
  161.1670  202.2150  148.0460 C   0  0  0  0  0  0  0  0  0  0  0  0
  161.1660  200.8250  148.5690 C   0  0  0  0  0  1  0  0  0  0  0  0
  161.1380  203.9020  144.7770 N   0  0  0  0  0  1  0  0  0  0  0  0
  161.2290  206.7990  148.1180 C   0  0  0  0  0  2  0  0  0  0  0  0
  161.1880  204.7720  147.0730 C   0  0  0  0  0  0  0  0  0  0  0  0
  1 18  1  6  0  0  0
  1  3  1  0  0  0  0
  3  5  1  0  0  0  0
  3  4  2  0  0  0  0
  5  6  1  0  0  0  0
  6  7  1  0  0  0  0
  6  2  2  0  0  0  0
  7  8  1  0  0  0  0
  8  9  1  0  0  0  0
 10 12  2  0  0  0  0
 11 15  2  0  0  0  0
 12 15  1  0  0  0  0
 13 10  1  0  0  0  0
 13 14  1  0  0  0  0
 14  9  1  6  0  0  0
 14 11  1  0  0  0  0
 16 18  2  0  0  0  0
 18 17  1  0  0  0  0
 19 21  1  0  0  0  0
 21 20  1  6  0  0  0
 21 17  1  0  0  0  0
 22  1  1  0  0  0  0
 22 25  1  0  0  0  0
 23 24  1  0  0  0  0
 24 26  2  0  0  0  0
 25 27  2  0  0  0  0
 27 26  1  0  0  0  0
 28 25  1  0  0  0  0
 28 23  2  0  0  0  0
 30 39  2  0  0  0  0
 30 38  1  0  0  0  0
 31 29  1  0  0  0  0
 31 33  2  0  0  0  0
 32 34  2  0  0  0  0
 32 39  1  0  0  0  0
 33 28  1  0  0  0  0
 34 35  1  0  0  0  0
 35 36  1  0  0  0  0
 35 29  2  0  0  0  0
 37 32  1  0  0  0  0
 38 33  1  0  0  0  0
 39 31  1  0  0  0  0
M  END
>  <MODEL>
4

>  <REMARK>
 VINA RESULT:      -9.0      2.189      3.932
  Name = 
  10 active torsions:
  status: ('A' for Active; 'I' for Inactive)
    1  A    between atoms: C_1  and  C_9
    2  A    between atoms: C_1  and  C_22
    3  A    between atoms: C_1  and  N_31
    4  A    between atoms: C_2  and  C_34
    5  A    between atoms: C_2  and  C_35
    6  A    between atoms: C_13  and  N_31
    7  A    between atoms: C_15  and  C_33
    8  A    between atoms: N_18  and  C_37
    9  A    between atoms: C_25  and  O_32
   10  A    between atoms: O_32  and  C_34
                            x       y       z     vdW  Elec       q    Type
                         _______ _______ _______ _____ _____    ______ ____

>  <TORSDO>
F 10

$$$$
=
 OpenBabel11052409593D

 39 42  0  0  1  0  0  0  0  0999 V2000
  162.0340  207.6490  152.4000 C   0  0  2  0  0  3  0  0  0  0  0  0
  161.8560  209.4900  148.4210 O   0  0  0  0  0  0  0  0  0  0  0  0
  162.1180  208.3630  151.0880 C   0  0  0  0  0  0  0  0  0  0  0  0
  162.5330  209.5540  151.0390 O   0  0  0  0  0  0  0  0  0  0  0  0
  161.7040  207.6780  149.9010 N   0  0  0  0  0  2  0  0  0  0  0  0
  161.6140  208.2670  148.5990 C   0  0  0  0  0  0  0  0  0  0  0  0
  161.2360  207.4150  147.4360 C   0  0  0  0  0  2  0  0  0  0  0  0
  162.1370  206.1940  147.3480 C   0  0  0  0  0  2  0  0  0  0  0  0
  162.4000  205.8900  146.0090 O   0  0  0  0  0  0  0  0  0  0  0  0
  161.4000  202.5050  147.1680 C   0  0  0  0  0  3  0  0  0  0  0  0
  161.1940  204.1800  144.8880 C   0  0  0  0  0  3  0  0  0  0  0  0
  160.7290  202.1040  146.0840 C   0  0  0  0  0  3  0  0  0  0  0  0
  161.8660  203.9330  147.2880 C   0  0  0  0  0  2  0  0  0  0  0  0
  162.2460  204.5060  145.9160 C   0  0  2  0  0  3  0  0  0  0  0  0
  160.5150  203.0310  144.9560 C   0  0  0  0  0  3  0  0  0  0  0  0
  163.3630  205.6960  152.1280 O   0  0  0  0  0  0  0  0  0  0  0  0
  161.0510  205.3330  152.0730 N   0  0  0  0  0  2  0  0  0  0  0  0
  162.2010  206.1780  152.2040 C   0  0  0  0  0  0  0  0  0  0  0  0
  160.4400  203.2180  152.8660 O   0  0  0  0  0  1  0  0  0  0  0  0
  160.5210  203.5320  150.5000 C   0  0  0  0  0  1  0  0  0  0  0  0
  161.1130  203.8930  151.8490 C   0  0  1  0  0  3  0  0  0  0  0  0
  160.7680  207.9300  153.0690 N   0  0  0  0  0  2  0  0  0  0  0  0
  160.0270  209.4470  156.4120 C   0  0  0  0  0  3  0  0  0  0  0  0
  160.2910  208.3690  157.2560 C   0  0  0  0  0  3  0  0  0  0  0  0
  160.6250  208.0990  154.4850 C   0  0  0  0  0  0  0  0  0  0  0  0
  160.7180  207.1550  156.7230 C   0  0  0  0  0  3  0  0  0  0  0  0
  160.8810  207.0210  155.3450 C   0  0  0  0  0  3  0  0  0  0  0  0
  160.1870  209.3350  155.0210 C   0  0  0  0  0  0  0  0  0  0  0  0
  157.7450  211.1470  154.9810 N   0  0  0  0  0  0  0  0  0  0  0  0
  160.0680  212.2580  152.6070 C   0  0  0  0  0  3  0  0  0  0  0  0
  158.8370  211.2890  154.1870 C   0  0  0  0  0  0  0  0  0  0  0  0
  157.8850  213.2190  153.1610 C   0  0  0  0  0  0  0  0  0  0  0  0
  159.9160  210.5170  154.1580 C   0  0  0  0  0  0  0  0  0  0  0  0
  156.7970  213.0670  153.9680 N   0  0  0  0  0  2  0  0  0  0  0  0
  156.7210  212.0440  154.8720 C   0  0  0  0  0  0  0  0  0  0  0  0
  155.5170  211.9010  155.7280 C   0  0  0  0  0  1  0  0  0  0  0  0
  157.9430  214.2950  152.2310 N   0  0  0  0  0  1  0  0  0  0  0  0
  160.8430  211.0740  153.1130 C   0  0  0  0  0  3  0  0  0  0  0  0
  158.9280  212.3040  153.2770 C   0  0  0  0  0  0  0  0  0  0  0  0
  1  3  1  6  0  0  0
  1 22  1  0  0  0  0
  2  6  2  0  0  0  0
  4  3  2  0  0  0  0
  5  3  1  0  0  0  0
  6  5  1  0  0  0  0
  7  6  1  0  0  0  0
  8  7  1  0  0  0  0
  9  8  1  0  0  0  0
 10 13  1  0  0  0  0
 11 15  2  0  0  0  0
 11 14  1  0  0  0  0
 12 10  2  0  0  0  0
 14  9  1  1  0  0  0
 14 13  1  0  0  0  0
 15 12  1  0  0  0  0
 16 18  2  0  0  0  0
 17 18  1  0  0  0  0
 18  1  1  0  0  0  0
 21 20  1  6  0  0  0
 21 17  1  0  0  0  0
 21 19  1  0  0  0  0
 22 25  1  0  0  0  0
 23 24  1  0  0  0  0
 25 28  1  0  0  0  0
 25 27  2  0  0  0  0
 26 24  2  0  0  0  0
 27 26  1  0  0  0  0
 28 23  2  0  0  0  0
 30 38  2  0  0  0  0
 30 39  1  0  0  0  0
 31 29  1  0  0  0  0
 32 39  2  0  0  0  0
 32 34  1  0  0  0  0
 33 31  2  0  0  0  0
 33 28  1  0  0  0  0
 34 35  1  0  0  0  0
 35 29  2  0  0  0  0
 35 36  1  0  0  0  0
 37 32  1  0  0  0  0
 38 33  1  0  0  0  0
 39 31  1  0  0  0  0
M  END
>  <MODEL>
5

>  <REMARK>
 VINA RESULT:      -8.9      3.037      9.163
  Name = 
  10 active torsions:
  status: ('A' for Active; 'I' for Inactive)
    1  A    between atoms: C_1  and  C_9
    2  A    between atoms: C_1  and  C_22
    3  A    between atoms: C_1  and  N_31
    4  A    between atoms: C_2  and  C_34
    5  A    between atoms: C_2  and  C_35
    6  A    between atoms: C_13  and  N_31
    7  A    between atoms: C_15  and  C_33
    8  A    between atoms: N_18  and  C_37
    9  A    between atoms: C_25  and  O_32
   10  A    between atoms: O_32  and  C_34
                            x       y       z     vdW  Elec       q    Type
                         _______ _______ _______ _____ _____    ______ ____

>  <TORSDO>
F 10

$$$$
=
 OpenBabel11052409593D

 39 42  0  0  1  0  0  0  0  0999 V2000
  160.3350  210.4120  152.4410 C   0  0  2  0  0  3  0  0  0  0  0  0
  162.3520  209.4650  148.6610 O   0  0  0  0  0  0  0  0  0  0  0  0
  161.1250  210.2260  151.1840 C   0  0  0  0  0  0  0  0  0  0  0  0
  161.5470  211.2300  150.5460 O   0  0  0  0  0  0  0  0  0  0  0  0
  161.3750  208.8970  150.7150 N   0  0  0  0  0  2  0  0  0  0  0  0
  162.0070  208.5660  149.4740 C   0  0  0  0  0  0  0  0  0  0  0  0
  162.2680  207.1360  149.1440 C   0  0  0  0  0  2  0  0  0  0  0  0
  161.3640  206.6710  148.0150 C   0  0  0  0  0  2  0  0  0  0  0  0
  160.4120  205.7720  148.5040 O   0  0  0  0  0  0  0  0  0  0  0  0
  161.0800  204.3540  151.8710 C   0  0  0  0  0  3  0  0  0  0  0  0
  160.8840  203.5410  149.1610 C   0  0  0  0  0  3  0  0  0  0  0  0
  161.2180  203.0680  151.5330 C   0  0  0  0  0  3  0  0  0  0  0  0
  160.5980  205.3600  150.8590 C   0  0  0  0  0  2  0  0  0  0  0  0
  161.0920  205.0040  149.4500 C   0  0  2  0  0  3  0  0  0  0  0  0
  160.9830  202.6360  150.1410 C   0  0  0  0  0  3  0  0  0  0  0  0
  160.2520  212.5970  153.3730 O   0  0  0  0  0  0  0  0  0  0  0  0
  158.7360  212.2070  151.6340 N   0  0  0  0  0  2  0  0  0  0  0  0
  159.7900  211.8000  152.5130 C   0  0  0  0  0  0  0  0  0  0  0  0
  157.4550  213.7660  150.4460 O   0  0  0  0  0  1  0  0  0  0  0  0
  157.1570  213.6630  152.8140 C   0  0  0  0  0  1  0  0  0  0  0  0
  158.1200  213.5300  151.6490 C   0  0  1  0  0  3  0  0  0  0  0  0
  161.1490  210.1260  153.6180 N   0  0  0  0  0  2  0  0  0  0  0  0
  160.0480  208.1360  156.5940 C   0  0  0  0  0  3  0  0  0  0  0  0
  160.4160  206.8490  156.2030 C   0  0  0  0  0  3  0  0  0  0  0  0
  160.9160  209.0300  154.5120 C   0  0  0  0  0  0  0  0  0  0  0  0
  161.0290  206.6450  154.9690 C   0  0  0  0  0  3  0  0  0  0  0  0
  161.2750  207.7300  154.1280 C   0  0  0  0  0  3  0  0  0  0  0  0
  160.2890  209.2430  155.7640 C   0  0  0  0  0  0  0  0  0  0  0  0
  157.5870  210.6270  155.5700 N   0  0  0  0  0  0  0  0  0  0  0  0
  159.8720  212.7360  157.1830 C   0  0  0  0  0  3  0  0  0  0  0  0
  158.7000  211.1600  156.1360 C   0  0  0  0  0  0  0  0  0  0  0  0
  157.5100  213.1520  156.6850 C   0  0  0  0  0  0  0  0  0  0  0  0
  159.9010  210.6020  156.2300 C   0  0  0  0  0  0  0  0  0  0  0  0
  156.4000  212.6020  156.1170 N   0  0  0  0  0  0  0  0  0  0  0  0
  156.4310  211.3520  155.5630 C   0  0  0  0  0  0  0  0  0  0  0  0
  155.2060  210.7870  154.9430 C   0  0  0  0  0  1  0  0  0  0  0  0
  157.4520  214.4530  157.2590 N   0  0  0  0  0  1  0  0  0  0  0  0
  160.8010  211.5820  156.9310 C   0  0  0  0  0  2  0  0  0  0  0  0
  158.6880  212.4080  156.6910 C   0  0  0  0  0  0  0  0  0  0  0  0
  1  3  1  6  0  0  0
  1 18  1  0  0  0  0
  1 22  1  0  0  0  0
  2  6  2  0  0  0  0
  4  3  2  0  0  0  0
  5  3  1  0  0  0  0
  6  5  1  0  0  0  0
  7  6  1  0  0  0  0
  8  9  1  0  0  0  0
  8  7  1  0  0  0  0
 11 14  1  0  0  0  0
 11 15  2  0  0  0  0
 12 10  2  0  0  0  0
 13 10  1  0  0  0  0
 14  9  1  6  0  0  0
 14 13  1  0  0  0  0
 15 12  1  0  0  0  0
 17 21  1  0  0  0  0
 17 18  1  0  0  0  0
 18 16  2  0  0  0  0
 19 21  1  0  0  0  0
 21 20  1  1  0  0  0
 22 25  1  0  0  0  0
 24 23  1  0  0  0  0
 25 28  1  0  0  0  0
 26 24  2  0  0  0  0
 27 25  2  0  0  0  0
 27 26  1  0  0  0  0
 28 33  1  0  0  0  0
 28 23  2  0  0  0  0
 29 31  1  0  0  0  0
 31 33  2  0  0  0  0
 31 39  1  0  0  0  0
 32 39  1  0  0  0  0
 32 37  1  0  0  0  0
 33 38  1  0  0  0  0
 34 32  2  0  0  0  0
 35 29  2  0  0  0  0
 35 34  1  0  0  0  0
 36 35  1  0  0  0  0
 38 30  1  0  0  0  0
 39 30  2  0  0  0  0
M  END
>  <MODEL>
6

>  <REMARK>
 VINA RESULT:      -8.8      2.895      9.017
  Name = 
  10 active torsions:
  status: ('A' for Active; 'I' for Inactive)
    1  A    between atoms: C_1  and  C_9
    2  A    between atoms: C_1  and  C_22
    3  A    between atoms: C_1  and  N_31
    4  A    between atoms: C_2  and  C_34
    5  A    between atoms: C_2  and  C_35
    6  A    between atoms: C_13  and  N_31
    7  A    between atoms: C_15  and  C_33
    8  A    between atoms: N_18  and  C_37
    9  A    between atoms: C_25  and  O_32
   10  A    between atoms: O_32  and  C_34
                            x       y       z     vdW  Elec       q    Type
                         _______ _______ _______ _____ _____    ______ ____

>  <TORSDO>
F 10

$$$$
=
 OpenBabel11052409593D

 39 42  0  0  1  0  0  0  0  0999 V2000
  161.0180  210.6880  153.1490 C   0  0  2  0  0  3  0  0  0  0  0  0
  162.3260  207.7560  150.1580 O   0  0  0  0  0  0  0  0  0  0  0  0
  161.5950  209.7980  152.0930 C   0  0  0  0  0  0  0  0  0  0  0  0
  162.1240  210.2970  151.0620 O   0  0  0  0  0  0  0  0  0  0  0  0
  161.5170  208.3790  152.2680 N   0  0  0  0  0  2  0  0  0  0  0  0
  161.9130  207.4070  151.2960 C   0  0  0  0  0  0  0  0  0  0  0  0
  161.8440  205.9580  151.6400 C   0  0  0  0  0  2  0  0  0  0  0  0
  161.2050  205.1660  150.5110 C   0  0  0  0  0  2  0  0  0  0  0  0
  161.0410  203.8330  150.8950 O   0  0  0  0  0  0  0  0  0  0  0  0
  161.1820  202.8470  147.3170 C   0  0  0  0  0  3  0  0  0  0  0  0
  160.8610  201.6910  149.8880 C   0  0  0  0  0  3  0  0  0  0  0  0
  161.0600  201.5240  147.4600 C   0  0  0  0  0  3  0  0  0  0  0  0
  161.3770  203.7280  148.5240 C   0  0  0  0  0  2  0  0  0  0  0  0
  160.6240  203.1720  149.7400 C   0  0  2  0  0  3  0  0  0  0  0  0
  161.0260  200.9210  148.8080 C   0  0  0  0  0  3  0  0  0  0  0  0
  162.0380  210.8060  155.2930 O   0  0  0  0  0  0  0  0  0  0  0  0
  160.7940  208.8640  154.8970 N   0  0  0  0  0  2  0  0  0  0  0  0
  161.3110  210.1420  154.5070 C   0  0  0  0  0  0  0  0  0  0  0  0
  160.8610  209.1540  157.2180 O   0  0  0  0  0  1  0  0  0  0  0  0
  160.1470  207.0320  156.3890 C   0  0  0  0  0  1  0  0  0  0  0  0
  161.0490  208.2350  156.1880 C   0  0  1  0  0  3  0  0  0  0  0  0
  159.5800  210.8510  152.9680 N   0  0  0  0  0  2  0  0  0  0  0  0
  157.5620  213.9380  153.6240 C   0  0  0  0  0  3  0  0  0  0  0  0
  157.1920  213.7340  154.9530 C   0  0  0  0  0  3  0  0  0  0  0  0
  158.7920  211.8460  153.6340 C   0  0  0  0  0  0  0  0  0  0  0  0
  157.6140  212.5910  155.6260 C   0  0  0  0  0  3  0  0  0  0  0  0
  158.4070  211.6510  154.9690 C   0  0  0  0  0  3  0  0  0  0  0  0
  158.3620  213.0050  152.9430 C   0  0  0  0  0  0  0  0  0  0  0  0
  156.6070  213.8470  150.6050 N   0  0  0  0  0  0  0  0  0  0  0  0
  159.9350  213.5910  149.5410 C   0  0  0  0  0  3  0  0  0  0  0  0
  157.9500  213.6520  150.5450 C   0  0  0  0  0  0  0  0  0  0  0  0
  157.9680  214.2360  148.2330 C   0  0  0  0  0  0  0  0  0  0  0  0
  158.7520  213.2720  151.5320 C   0  0  0  0  0  0  0  0  0  0  0  0
  156.6210  214.4310  148.3100 N   0  0  0  0  0  0  0  0  0  0  0  0
  155.9410  214.2410  149.4810 C   0  0  0  0  0  0  0  0  0  0  0  0
  154.4720  214.4530  149.5270 C   0  0  0  0  0  1  0  0  0  0  0  0
  158.6540  214.4440  147.0040 N   0  0  0  0  0  1  0  0  0  0  0  0
  160.1470  213.1910  150.9750 C   0  0  0  0  0  2  0  0  0  0  0  0
  158.6450  213.8350  149.3830 C   0  0  0  0  0  0  0  0  0  0  0  0
  1  3  1  6  0  0  0
  1 18  1  0  0  0  0
  2  6  2  0  0  0  0
  3  5  1  0  0  0  0
  4  3  2  0  0  0  0
  6  7  1  0  0  0  0
  6  5  1  0  0  0  0
  8  9  1  0  0  0  0
  8  7  1  0  0  0  0
 10 12  2  0  0  0  0
 10 13  1  0  0  0  0
 12 15  1  0  0  0  0
 13 14  1  0  0  0  0
 14 11  1  0  0  0  0
 14  9  1  1  0  0  0
 15 11  2  0  0  0  0
 17 21  1  0  0  0  0
 18 17  1  0  0  0  0
 18 16  2  0  0  0  0
 21 20  1  1  0  0  0
 21 19  1  0  0  0  0
 22  1  1  0  0  0  0
 22 25  1  0  0  0  0
 23 24  1  0  0  0  0
 24 26  2  0  0  0  0
 25 27  2  0  0  0  0
 27 26  1  0  0  0  0
 28 23  2  0  0  0  0
 28 25  1  0  0  0  0
 30 38  1  0  0  0  0
 31 29  1  0  0  0  0
 31 33  2  0  0  0  0
 32 34  2  0  0  0  0
 32 39  1  0  0  0  0
 33 28  1  0  0  0  0
 34 35  1  0  0  0  0
 35 36  1  0  0  0  0
 35 29  2  0  0  0  0
 37 32  1  0  0  0  0
 38 33  1  0  0  0  0
 39 30  2  0  0  0  0
 39 31  1  0  0  0  0
M  END
>  <MODEL>
7

>  <REMARK>
 VINA RESULT:      -8.4      3.013      9.467
  Name = 
  10 active torsions:
  status: ('A' for Active; 'I' for Inactive)
    1  A    between atoms: C_1  and  C_9
    2  A    between atoms: C_1  and  C_22
    3  A    between atoms: C_1  and  N_31
    4  A    between atoms: C_2  and  C_34
    5  A    between atoms: C_2  and  C_35
    6  A    between atoms: C_13  and  N_31
    7  A    between atoms: C_15  and  C_33
    8  A    between atoms: N_18  and  C_37
    9  A    between atoms: C_25  and  O_32
   10  A    between atoms: O_32  and  C_34
                            x       y       z     vdW  Elec       q    Type
                         _______ _______ _______ _____ _____    ______ ____

>  <TORSDO>
F 10

$$$$
=
 OpenBabel11052409593D

 39 42  0  0  1  0  0  0  0  0999 V2000
  159.9310  210.2440  153.1820 C   0  0  2  0  0  3  0  0  0  0  0  0
  158.5550  214.3360  152.3980 O   0  0  0  0  0  0  0  0  0  0  0  0
  159.6200  211.6920  152.9650 C   0  0  0  0  0  0  0  0  0  0  0  0
  160.1020  212.5670  153.7360 O   0  0  0  0  0  0  0  0  0  0  0  0
  158.7570  212.0580  151.8830 N   0  0  0  0  0  2  0  0  0  0  0  0
  158.2760  213.3810  151.6250 C   0  0  0  0  0  0  0  0  0  0  0  0
  157.4390  213.6330  150.4180 C   0  0  0  0  0  2  0  0  0  0  0  0
  158.2830  213.5680  149.1550 C   0  0  0  0  0  2  0  0  0  0  0  0
  159.3940  214.4070  149.2790 O   0  0  0  0  0  0  0  0  0  0  0  0
  162.2620  214.0830  146.9400 C   0  0  0  0  0  3  0  0  0  0  0  0
  159.6280  213.0970  147.3130 C   0  0  0  0  0  3  0  0  0  0  0  0
  161.7480  213.1760  146.1040 C   0  0  0  0  0  3  0  0  0  0  0  0
  161.5450  214.4320  148.2180 C   0  0  0  0  0  2  0  0  0  0  0  0
  160.0230  214.3600  148.0340 C   0  0  2  0  0  3  0  0  0  0  0  0
  160.4300  212.5710  146.3810 C   0  0  0  0  0  3  0  0  0  0  0  0
  158.8390  210.3080  155.2930 O   0  0  0  0  0  0  0  0  0  0  0  0
  160.8720  209.1490  155.2680 N   0  0  0  0  0  2  0  0  0  0  0  0
  159.8330  209.9030  154.6320 C   0  0  0  0  0  0  0  0  0  0  0  0
  160.3970  207.4970  156.8560 O   0  0  0  0  0  1  0  0  0  0  0  0
  162.2770  208.9130  157.2610 C   0  0  0  0  0  1  0  0  0  0  0  0
  160.8790  208.7930  156.6820 C   0  0  1  0  0  3  0  0  0  0  0  0
  161.2570  209.9110  152.6730 N   0  0  0  0  0  2  0  0  0  0  0  0
  161.9970  208.6650  149.2190 C   0  0  0  0  0  3  0  0  0  0  0  0
  162.2120  209.8670  148.5450 C   0  0  0  0  0  3  0  0  0  0  0  0
  161.6020  209.8800  151.2820 C   0  0  0  0  0  0  0  0  0  0  0  0
  162.1200  211.0760  149.2300 C   0  0  0  0  0  3  0  0  0  0  0  0
  161.8140  211.0820  150.5900 C   0  0  0  0  0  3  0  0  0  0  0  0
  161.6910  208.6480  150.5890 C   0  0  0  0  0  0  0  0  0  0  0  0
  161.4060  205.8760  149.3700 N   0  0  0  0  0  0  0  0  0  0  0  0
  161.2420  205.6430  152.8620 C   0  0  0  0  0  3  0  0  0  0  0  0
  161.3860  206.1510  150.7000 C   0  0  0  0  0  0  0  0  0  0  0  0
  161.1100  203.8390  151.2120 C   0  0  0  0  0  0  0  0  0  0  0  0
  161.4910  207.3420  151.2760 C   0  0  0  0  0  0  0  0  0  0  0  0
  161.1360  203.5770  149.8740 N   0  0  0  0  0  0  0  0  0  0  0  0
  161.2830  204.5800  148.9570 C   0  0  0  0  0  0  0  0  0  0  0  0
  161.2970  204.2620  147.5070 C   0  0  0  0  0  1  0  0  0  0  0  0
  160.9620  202.7770  152.1470 N   0  0  0  0  0  1  0  0  0  0  0  0
  161.4080  207.1340  152.7630 C   0  0  0  0  0  2  0  0  0  0  0  0
  161.2380  205.1620  151.6300 C   0  0  0  0  0  0  0  0  0  0  0  0
  1 22  1  1  0  0  0
  1 18  1  0  0  0  0
  3  1  1  0  0  0  0
  3  4  2  0  0  0  0
  5  3  1  0  0  0  0
  6  5  1  0  0  0  0
  6  2  2  0  0  0  0
  7  6  1  0  0  0  0
  8  9  1  0  0  0  0
  8  7  1  0  0  0  0
 10 13  1  0  0  0  0
 11 14  1  0  0  0  0
 12 15  1  0  0  0  0
 12 10  2  0  0  0  0
 14 13  1  0  0  0  0
 14  9  1  1  0  0  0
 15 11  2  0  0  0  0
 17 21  1  0  0  0  0
 18 17  1  0  0  0  0
 18 16  2  0  0  0  0
 21 19  1  0  0  0  0
 21 20  1  6  0  0  0
 23 28  1  0  0  0  0
 24 23  2  0  0  0  0
 24 26  1  0  0  0  0
 25 22  1  0  0  0  0
 26 27  2  0  0  0  0
 27 25  1  0  0  0  0
 28 33  1  0  0  0  0
 28 25  2  0  0  0  0
 29 31  1  0  0  0  0
 31 33  2  0  0  0  0
 31 39  1  0  0  0  0
 32 39  1  0  0  0  0
 32 37  1  0  0  0  0
 33 38  1  0  0  0  0
 34 32  2  0  0  0  0
 35 29  2  0  0  0  0
 35 34  1  0  0  0  0
 36 35  1  0  0  0  0
 38 30  1  0  0  0  0
 39 30  2  0  0  0  0
M  END
>  <MODEL>
8

>  <REMARK>
 VINA RESULT:      -8.4      2.164      5.353
  Name = 
  10 active torsions:
  status: ('A' for Active; 'I' for Inactive)
    1  A    between atoms: C_1  and  C_9
    2  A    between atoms: C_1  and  C_22
    3  A    between atoms: C_1  and  N_31
    4  A    between atoms: C_2  and  C_34
    5  A    between atoms: C_2  and  C_35
    6  A    between atoms: C_13  and  N_31
    7  A    between atoms: C_15  and  C_33
    8  A    between atoms: N_18  and  C_37
    9  A    between atoms: C_25  and  O_32
   10  A    between atoms: O_32  and  C_34
                            x       y       z     vdW  Elec       q    Type
                         _______ _______ _______ _____ _____    ______ ____

>  <TORSDO>
F 10

$$$$
=
 OpenBabel11052409593D

 39 42  0  0  1  0  0  0  0  0999 V2000
  161.0280  206.7300  151.9630 C   0  0  2  0  0  3  0  0  0  0  0  0
  161.3310  202.3600  151.7050 O   0  0  0  0  0  0  0  0  0  0  0  0
  161.0990  205.2380  152.0460 C   0  0  0  0  0  0  0  0  0  0  0  0
  161.5830  204.6810  153.0700 O   0  0  0  0  0  0  0  0  0  0  0  0
  160.6260  204.4610  150.9400 N   0  0  0  0  0  2  0  0  0  0  0  0
  160.7390  203.0390  150.8240 C   0  0  0  0  0  0  0  0  0  0  0  0
  160.1360  202.3510  149.6470 C   0  0  0  0  0  2  0  0  0  0  0  0
  160.8150  201.0140  149.4000 C   0  0  0  0  0  2  0  0  0  0  0  0
  161.5920  201.0790  148.2390 O   0  0  0  0  0  0  0  0  0  0  0  0
  161.2090  203.8480  145.7940 C   0  0  0  0  0  3  0  0  0  0  0  0
  160.3780  201.1670  146.2020 C   0  0  0  0  0  3  0  0  0  0  0  0
  160.4540  203.2210  144.8860 C   0  0  0  0  0  3  0  0  0  0  0  0
  161.8190  203.0800  146.9370 C   0  0  0  0  0  2  0  0  0  0  0  0
  160.8970  201.9380  147.3870 C   0  0  2  0  0  3  0  0  0  0  0  0
  160.1370  201.7880  145.0430 C   0  0  0  0  0  3  0  0  0  0  0  0
  162.8480  207.5400  150.6660 O   0  0  0  0  0  0  0  0  0  0  0  0
  160.8290  207.3180  149.5030 N   0  0  0  0  0  2  0  0  0  0  0  0
  161.6320  207.2090  150.6840 C   0  0  0  0  0  0  0  0  0  0  0  0
  161.9780  209.0210  148.3810 O   0  0  0  0  0  1  0  0  0  0  0  0
  162.2540  206.7880  147.5810 C   0  0  0  0  0  1  0  0  0  0  0  0
  161.3220  207.8020  148.2180 C   0  0  1  0  0  3  0  0  0  0  0  0
  161.6960  207.3500  153.1020 N   0  0  0  0  0  2  0  0  0  0  0  0
  159.7860  209.2940  155.6720 C   0  0  0  0  0  3  0  0  0  0  0  0
  159.7010  208.3580  156.7020 C   0  0  0  0  0  3  0  0  0  0  0  0
  161.0390  207.7120  154.3230 C   0  0  0  0  0  0  0  0  0  0  0  0
  160.2780  207.0990  156.5490 C   0  0  0  0  0  3  0  0  0  0  0  0
  160.9400  206.7780  155.3650 C   0  0  0  0  0  3  0  0  0  0  0  0
  160.4510  208.9920  154.4720 C   0  0  0  0  0  0  0  0  0  0  0  0
  158.5470  211.2910  153.8860 N   0  0  0  0  0  0  0  0  0  0  0  0
  161.2180  211.3740  151.6190 C   0  0  0  0  0  3  0  0  0  0  0  0
  159.6870  211.0250  153.1980 C   0  0  0  0  0  0  0  0  0  0  0  0
  159.3140  212.9060  151.7810 C   0  0  0  0  0  0  0  0  0  0  0  0
  160.5380  210.0280  153.4060 C   0  0  0  0  0  0  0  0  0  0  0  0
  158.1750  213.1640  152.4830 N   0  0  0  0  0  0  0  0  0  0  0  0
  157.7890  212.3680  153.5270 C   0  0  0  0  0  0  0  0  0  0  0  0
  156.5370  212.6710  154.2650 C   0  0  0  0  0  1  0  0  0  0  0  0
  159.6970  213.7510  150.7010 N   0  0  0  0  0  1  0  0  0  0  0  0
  161.6380  210.1520  152.3880 C   0  0  0  0  0  2  0  0  0  0  0  0
  160.0860  211.8070  152.1510 C   0  0  0  0  0  0  0  0  0  0  0  0
  1 18  1  6  0  0  0
  1  3  1  0  0  0  0
  1 22  1  0  0  0  0
  3  4  2  0  0  0  0
  5  3  1  0  0  0  0
  6  5  1  0  0  0  0
  6  2  2  0  0  0  0
  7  6  1  0  0  0  0
  8  7  1  0  0  0  0
  9  8  1  0  0  0  0
 10 13  1  0  0  0  0
 11 14  1  0  0  0  0
 12 15  1  0  0  0  0
 12 10  2  0  0  0  0
 13 14  1  0  0  0  0
 14  9  1  1  0  0  0
 15 11  2  0  0  0  0
 16 18  2  0  0  0  0
 17 18  1  0  0  0  0
 21 20  1  1  0  0  0
 21 19  1  0  0  0  0
 21 17  1  0  0  0  0
 22 25  1  0  0  0  0
 23 24  1  0  0  0  0
 25 28  1  0  0  0  0
 25 27  2  0  0  0  0
 26 24  2  0  0  0  0
 27 26  1  0  0  0  0
 28 23  2  0  0  0  0
 30 39  2  0  0  0  0
 30 38  1  0  0  0  0
 31 33  2  0  0  0  0
 31 29  1  0  0  0  0
 32 39  1  0  0  0  0
 32 34  2  0  0  0  0
 33 28  1  0  0  0  0
 34 35  1  0  0  0  0
 35 29  2  0  0  0  0
 35 36  1  0  0  0  0
 37 32  1  0  0  0  0
 38 33  1  0  0  0  0
 39 31  1  0  0  0  0
M  END
>  <MODEL>
9

>  <REMARK>
 VINA RESULT:      -8.3      3.060      9.007
  Name = 
  10 active torsions:
  status: ('A' for Active; 'I' for Inactive)
    1  A    between atoms: C_1  and  C_9
    2  A    between atoms: C_1  and  C_22
    3  A    between atoms: C_1  and  N_31
    4  A    between atoms: C_2  and  C_34
    5  A    between atoms: C_2  and  C_35
    6  A    between atoms: C_13  and  N_31
    7  A    between atoms: C_15  and  C_33
    8  A    between atoms: N_18  and  C_37
    9  A    between atoms: C_25  and  O_32
   10  A    between atoms: O_32  and  C_34
                            x       y       z     vdW  Elec       q    Type
                         _______ _______ _______ _____ _____    ______ ____

>  <TORSDO>
F 10

$$$$
