=
 OpenBabel11052410203D

 55 63  0  0  1  0  0  0  0  0999 V2000
  161.8370  210.0290  150.5740 C   0  0  2  0  0  0  0  0  0  0  0  0
  161.5190  211.1760  155.6770 C   0  0  0  0  0  3  0  0  0  0  0  0
  161.4470  207.7310  156.9210 N   0  0  0  0  0  0  0  0  0  0  0  0
  160.2570  207.2850  156.4550 C   0  0  0  0  0  3  0  0  0  0  0  0
  161.0640  209.8770  155.9360 C   0  0  0  0  0  0  0  0  0  0  0  0
  159.8420  209.3920  155.4450 C   0  0  0  0  0  0  0  0  0  0  0  0
  161.8470  209.0170  156.7340 C   0  0  0  0  0  0  0  0  0  0  0  0
  160.8390  209.0020  151.1720 C   0  0  2  0  0  3  0  0  0  0  0  0
  161.4780  211.5240  150.7880 C   0  0  0  0  0  2  0  0  0  0  0  0
  161.3510  207.5270  149.1430 C   0  0  2  0  0  3  0  0  0  0  0  0
  162.2830  208.4770  148.6660 O   0  0  0  0  0  0  0  0  0  0  0  0
  162.7360  211.6210  156.1980 C   0  0  0  0  0  3  0  0  0  0  0  0
  158.8540  212.3020  153.4970 C   0  0  0  0  0  2  0  0  0  0  0  0
  162.9290  210.6350  148.5190 F   0  0  0  0  0  0  0  0  0  0  0  0
  158.5680  211.4330  154.7160 C   0  0  0  0  0  2  0  0  0  0  0  0
  160.7110  209.1190  152.6990 C   0  0  0  0  0  2  0  0  0  0  0  0
  159.9780  211.5740  152.7820 C   0  0  1  0  0  3  0  0  0  0  0  0
  161.9550  209.8020  149.0430 C   0  0  2  0  0  3  0  0  0  0  0  0
  159.4670  208.1140  155.7120 N   0  0  0  0  0  0  0  0  0  0  0  0
  163.0610  209.4690  157.2610 C   0  0  0  0  0  3  0  0  0  0  0  0
  161.1860  206.5410  151.4440 C   0  0  0  0  0  2  0  0  0  0  0  0
  159.6000  210.1210  153.0400 C   0  0  2  0  0  3  0  0  0  0  0  0
  161.2020  207.6280  150.6540 C   0  0  0  0  0  0  0  0  0  0  0  0
  159.1330  210.1180  154.4140 N   0  0  0  0  0  0  0  0  0  0  0  0
  163.5010  210.7730  157.0050 C   0  0  0  0  0  3  0  0  0  0  0  0
  160.0590  211.8490  151.2740 C   0  0  1  0  0  3  0  0  0  0  0  0
  163.0800  209.7960  151.1600 O   0  0  0  0  0  1  0  0  0  0  0  0
  161.8770  206.1660  148.6700 C   0  0  0  0  0  2  0  0  0  0  0  0
  162.4710  206.2140  146.3290 O   0  0  0  0  0  1  0  0  0  0  0  0
  161.5060  205.7730  147.2310 C   0  0  1  0  0  3  0  0  0  0  0  0
  160.4000  203.9940  145.8890 C   0  0  0  0  0  3  0  0  0  0  0  0
  161.1200  204.3330  146.9620 C   0  0  0  0  0  0  0  0  0  0  0  0
  161.3520  203.2400  148.0100 C   0  0  1  0  0  0  0  0  0  0  0  0
  160.7330  203.5460  149.8170 C   0  0  1  0  0  3  0  0  0  0  0  0
  159.9950  202.5650  145.7040 C   0  0  0  0  0  2  0  0  0  0  0  0
  160.1660  201.4060  148.8030 C   0  0  0  0  0  2  0  0  0  0  0  0
  161.9290  201.9770  147.3380 C   0  0  2  0  0  3  0  0  0  0  0  0
  161.2230  201.6700  145.9850 C   0  0  0  0  0  2  0  0  0  0  0  0
  161.5100  200.9020  148.2970 C   0  0  0  0  0  2  0  0  0  0  0  0
  161.9880  203.7140  149.1820 O   0  0  0  0  0  0  0  0  0  0  0  0
  160.1000  202.8740  148.6730 N   0  0  2  0  0  0  0  0  0  0  0  0
  160.7940  203.6720  152.3060 C   0  0  0  0  0  1  0  0  0  0  0  0
  160.7870  202.7060  151.1230 C   0  0  0  0  0  2  0  0  0  0  0  0
  159.6610  213.2230  150.9050 N   0  0  0  0  0  2  0  0  0  0  0  0
  160.4730  213.7150  149.7960 C   0  0  0  0  0  2  0  0  0  0  0  0
  159.5960  214.3210  148.7030 C   0  0  2  0  0  3  0  0  0  0  0  0
  158.3840  213.6340  148.6460 O   0  0  0  0  0  1  0  0  0  0  0  0
  159.3360  213.7260  146.2280 C   0  0  0  0  0  2  0  0  0  0  0  0
  161.3610  212.9340  144.9420 C   0  0  0  0  0  2  0  0  0  0  0  0
  160.0500  213.7390  144.8720 C   0  0  1  0  0  3  0  0  0  0  0  0
  160.2840  214.2810  147.3250 C   0  0  2  0  0  3  0  0  0  0  0  0
  162.3060  213.5650  145.9790 C   0  0  0  0  0  2  0  0  0  0  0  0
  161.6320  213.5190  147.3630 C   0  0  0  0  0  2  0  0  0  0  0  0
  159.9890  212.0960  143.3930 C   0  0  0  0  0  1  0  0  0  0  0  0
  159.2440  213.1650  143.8970 O   0  0  0  0  0  0  0  0  0  0  0  0
  1  9  1  0  0  0  0
  1 27  1  1  0  0  0
  1  8  1  0  0  0  0
  2  5  2  0  0  0  0
  2 12  1  0  0  0  0
  4  3  2  0  0  0  0
  5  7  1  0  0  0  0
  6 19  2  0  0  0  0
  6  5  1  0  0  0  0
  7  3  1  0  0  0  0
  7 20  2  0  0  0  0
  8 16  1  1  0  0  0
  9 26  1  0  0  0  0
 10 28  1  1  0  0  0
 10 23  1  0  0  0  0
 11 18  1  0  0  0  0
 11 10  1  0  0  0  0
 12 25  2  0  0  0  0
 13 15  1  0  0  0  0
 17 22  1  0  0  0  0
 17 13  1  6  0  0  0
 18 14  1  1  0  0  0
 18  1  1  0  0  0  0
 19  4  1  0  0  0  0
 22 16  1  1  0  0  0
 22 24  1  0  0  0  0
 23  8  1  0  0  0  0
 23 21  2  0  0  0  0
 24 15  1  0  0  0  0
 24  6  1  0  0  0  0
 25 20  1  0  0  0  0
 26 44  1  1  0  0  0
 26 17  1  0  0  0  0
 30 29  1  6  0  0  0
 30 28  1  0  0  0  0
 31 32  2  0  0  0  0
 32 30  1  0  0  0  0
 33 32  1  6  0  0  0
 33 41  1  0  0  0  0
 33 40  1  0  0  0  0
 34 43  1  1  0  0  0
 35 31  1  0  0  0  0
 35 38  1  0  0  0  0
 37 38  1  6  0  0  0
 37 33  1  0  0  0  0
 37 39  1  0  0  0  0
 39 36  1  0  0  0  0
 40 34  1  0  0  0  0
 41 36  1  1  0  0  0
 41 34  1  0  0  0  0
 43 42  1  0  0  0  0
 45 44  1  0  0  0  0
 46 47  1  6  0  0  0
 46 45  1  0  0  0  0
 48 51  1  0  0  0  0
 49 52  1  0  0  0  0
 50 55  1  6  0  0  0
 50 49  1  0  0  0  0
 50 48  1  0  0  0  0
 51 53  1  0  0  0  0
 51 46  1  1  0  0  0
 52 53  1  0  0  0  0
 54 55  1  0  0  0  0
M  END
>  <MODEL>
1

>  <REMARK>
 VINA RESULT:      -6.4      0.000      0.000
  Name = 
  9 active torsions:
  status: ('A' for Active; 'I' for Inactive)
    1  A    between atoms: C_5  and  C_36
    2  A    between atoms: C_7  and  C_44
    3  A    between atoms: O_18  and  C_24
    4  A    between atoms: C_19  and  C_32
    5  A    between atoms: C_22  and  C_28
    6  A    between atoms: C_22  and  C_31
    7  A    between atoms: C_28  and  N_42
    8  A    between atoms: C_32  and  C_36
    9  A    between atoms: N_42  and  C_54
                            x       y       z     vdW  Elec       q    Type
                         _______ _______ _______ _____ _____    ______ ____

>  <TORSDO>
F 9

$$$$
=
 OpenBabel11052410203D

 55 63  0  0  1  0  0  0  0  0999 V2000
  161.7730  210.4620  150.6280 C   0  0  2  0  0  0  0  0  0  0  0  0
  161.4400  211.2940  155.7910 C   0  0  0  0  0  3  0  0  0  0  0  0
  161.6380  207.7890  156.8370 N   0  0  0  0  0  0  0  0  0  0  0  0
  160.4770  207.2830  156.3570 C   0  0  0  0  0  3  0  0  0  0  0  0
  161.0850  209.9520  155.9790 C   0  0  0  0  0  0  0  0  0  0  0  0
  159.8960  209.4070  155.4720 C   0  0  0  0  0  0  0  0  0  0  0  0
  161.9400  209.1100  156.7200 C   0  0  0  0  0  0  0  0  0  0  0  0
  160.8620  209.3320  151.1750 C   0  0  2  0  0  3  0  0  0  0  0  0
  161.3070  211.9120  150.9300 C   0  0  0  0  0  2  0  0  0  0  0  0
  161.4530  208.0150  149.0610 C   0  0  2  0  0  3  0  0  0  0  0  0
  162.3060  209.0570  148.6300 O   0  0  0  0  0  0  0  0  0  0  0  0
  162.6280  211.7980  156.3250 C   0  0  0  0  0  3  0  0  0  0  0  0
  158.6700  212.3400  153.7020 C   0  0  0  0  0  2  0  0  0  0  0  0
  162.7890  211.2620  148.6010 F   0  0  0  0  0  0  0  0  0  0  0  0
  158.4660  211.3850  154.8730 C   0  0  0  0  0  2  0  0  0  0  0  0
  160.7460  209.3530  152.7070 C   0  0  0  0  0  2  0  0  0  0  0  0
  159.8350  211.7390  152.9370 C   0  0  1  0  0  3  0  0  0  0  0  0
  161.8870  210.3310  149.0850 C   0  0  2  0  0  3  0  0  0  0  0  0
  159.6190  208.0910  155.6700 N   0  0  0  0  0  0  0  0  0  0  0  0
  163.1240  209.6200  157.2600 C   0  0  0  0  0  3  0  0  0  0  0  0
  161.3920  206.8920  151.3030 C   0  0  0  0  0  2  0  0  0  0  0  0
  159.5680  210.2490  153.1160 C   0  0  2  0  0  3  0  0  0  0  0  0
  161.3180  208.0200  150.5770 C   0  0  0  0  0  0  0  0  0  0  0  0
  159.1210  210.1340  154.4910 N   0  0  0  0  0  0  0  0  0  0  0  0
  163.4640  210.9660  157.0750 C   0  0  0  0  0  3  0  0  0  0  0  0
  159.8750  212.1030  151.4470 C   0  0  1  0  0  3  0  0  0  0  0  0
  163.0380  210.2890  151.1880 O   0  0  0  0  0  1  0  0  0  0  0  0
  162.0710  206.7250  148.5070 C   0  0  0  0  0  2  0  0  0  0  0  0
  161.1110  205.1820  146.9150 O   0  0  0  0  0  1  0  0  0  0  0  0
  161.0860  205.5720  148.2520 C   0  0  1  0  0  3  0  0  0  0  0  0
  161.7910  204.4200  150.3400 C   0  0  0  0  0  3  0  0  0  0  0  0
  161.1390  204.3720  149.1760 C   0  0  0  0  0  0  0  0  0  0  0  0
  160.6340  202.9990  148.7230 C   0  0  1  0  0  0  0  0  0  0  0  0
  161.2580  202.2970  147.0310 C   0  0  1  0  0  3  0  0  0  0  0  0
  161.8640  203.1870  151.1870 C   0  0  0  0  0  2  0  0  0  0  0  0
  161.3480  200.7990  148.9480 C   0  0  0  0  0  2  0  0  0  0  0  0
  159.8030  202.3440  149.8450 C   0  0  2  0  0  3  0  0  0  0  0  0
  160.4560  202.5510  151.2430 C   0  0  0  0  0  2  0  0  0  0  0  0
  159.9380  200.8880  149.5160 C   0  0  0  0  0  2  0  0  0  0  0  0
  160.0920  203.0040  147.4150 O   0  0  0  0  0  0  0  0  0  0  0  0
  161.7520  202.1090  148.4030 N   0  0  2  0  0  0  0  0  0  0  0  0
  160.0760  201.3220  145.0640 C   0  0  0  0  0  1  0  0  0  0  0  0
  160.9780  200.9840  146.2490 C   0  0  0  0  0  2  0  0  0  0  0  0
  159.3730  213.4620  151.1600 N   0  0  0  0  0  2  0  0  0  0  0  0
  160.0900  214.0510  150.0330 C   0  0  0  0  0  2  0  0  0  0  0  0
  159.1690  214.2200  148.8270 C   0  0  2  0  0  3  0  0  0  0  0  0
  158.2320  213.1880  148.8100 O   0  0  0  0  0  1  0  0  0  0  0  0
  159.4450  213.1440  146.5220 C   0  0  0  0  0  2  0  0  0  0  0  0
  161.7400  213.0830  145.4680 C   0  0  0  0  0  2  0  0  0  0  0  0
  160.2290  213.2220  145.2080 C   0  0  1  0  0  3  0  0  0  0  0  0
  159.9530  214.2360  147.5010 C   0  0  2  0  0  3  0  0  0  0  0  0
  162.2210  214.2310  146.3730 C   0  0  0  0  0  2  0  0  0  0  0  0
  161.4840  214.1460  147.7230 C   0  0  0  0  0  2  0  0  0  0  0  0
  159.6870  212.7990  143.1050 C   0  0  0  0  0  1  0  0  0  0  0  0
  159.8440  212.1940  144.3550 O   0  0  0  0  0  0  0  0  0  0  0  0
  1  9  1  0  0  0  0
  1  8  1  0  0  0  0
  1 27  1  1  0  0  0
  2  5  2  0  0  0  0
  2 12  1  0  0  0  0
  4  3  2  0  0  0  0
  5  7  1  0  0  0  0
  6 19  2  0  0  0  0
  6  5  1  0  0  0  0
  7  3  1  0  0  0  0
  7 20  2  0  0  0  0
  8 16  1  1  0  0  0
  9 26  1  0  0  0  0
 10 28  1  1  0  0  0
 10 23  1  0  0  0  0
 11 10  1  0  0  0  0
 11 18  1  0  0  0  0
 12 25  2  0  0  0  0
 13 15  1  0  0  0  0
 17 22  1  0  0  0  0
 17 13  1  1  0  0  0
 18 14  1  1  0  0  0
 18  1  1  0  0  0  0
 19  4  1  0  0  0  0
 22 16  1  1  0  0  0
 22 24  1  0  0  0  0
 23  8  1  0  0  0  0
 23 21  2  0  0  0  0
 24 15  1  0  0  0  0
 24  6  1  0  0  0  0
 25 20  1  0  0  0  0
 26 44  1  1  0  0  0
 26 17  1  0  0  0  0
 30 29  1  6  0  0  0
 30 28  1  0  0  0  0
 30 32  1  0  0  0  0
 31 35  1  0  0  0  0
 32 31  2  0  0  0  0
 33 40  1  6  0  0  0
 33 32  1  0  0  0  0
 33 37  1  0  0  0  0
 34 43  1  1  0  0  0
 34 40  1  0  0  0  0
 34 41  1  0  0  0  0
 35 38  1  0  0  0  0
 36 39  1  0  0  0  0
 37 39  1  6  0  0  0
 37 38  1  0  0  0  0
 41 33  1  0  0  0  0
 41 36  1  1  0  0  0
 42 43  1  0  0  0  0
 45 44  1  0  0  0  0
 46 47  1  6  0  0  0
 46 45  1  0  0  0  0
 48 51  1  0  0  0  0
 49 52  1  0  0  0  0
 50 55  1  6  0  0  0
 50 49  1  0  0  0  0
 50 48  1  0  0  0  0
 51 53  1  0  0  0  0
 51 46  1  1  0  0  0
 52 53  1  0  0  0  0
 54 55  1  0  0  0  0
M  END
>  <MODEL>
2

>  <REMARK>
 VINA RESULT:      -6.2      0.874      2.031
  Name = 
  9 active torsions:
  status: ('A' for Active; 'I' for Inactive)
    1  A    between atoms: C_5  and  C_36
    2  A    between atoms: C_7  and  C_44
    3  A    between atoms: O_18  and  C_24
    4  A    between atoms: C_19  and  C_32
    5  A    between atoms: C_22  and  C_28
    6  A    between atoms: C_22  and  C_31
    7  A    between atoms: C_28  and  N_42
    8  A    between atoms: C_32  and  C_36
    9  A    between atoms: N_42  and  C_54
                            x       y       z     vdW  Elec       q    Type
                         _______ _______ _______ _____ _____    ______ ____

>  <TORSDO>
F 9

$$$$
=
 OpenBabel11052410203D

 55 63  0  0  1  0  0  0  0  0999 V2000
  161.7280  210.9310  150.7040 C   0  0  2  0  0  0  0  0  0  0  0  0
  161.3790  211.3900  155.9120 C   0  0  0  0  0  3  0  0  0  0  0  0
  161.8480  207.8480  156.7200 N   0  0  0  0  0  0  0  0  0  0  0  0
  160.7240  207.2880  156.2120 C   0  0  0  0  0  3  0  0  0  0  0  0
  161.1260  210.0150  156.0120 C   0  0  0  0  0  0  0  0  0  0  0  0
  159.9770  209.4170  155.4730 C   0  0  0  0  0  0  0  0  0  0  0  0
  162.0490  209.1920  156.6910 C   0  0  0  0  0  0  0  0  0  0  0  0
  160.9080  209.7020  151.1780 C   0  0  2  0  0  3  0  0  0  0  0  0
  161.1580  212.3180  151.1040 C   0  0  0  0  0  2  0  0  0  0  0  0
  161.5780  208.5770  148.9770 C   0  0  2  0  0  3  0  0  0  0  0  0
  162.3470  209.7070  148.6140 O   0  0  0  0  0  0  0  0  0  0  0  0
  162.5300  211.9450  156.4750 C   0  0  0  0  0  3  0  0  0  0  0  0
  158.5210  212.3610  153.9090 C   0  0  0  0  0  2  0  0  0  0  0  0
  162.6640  211.9380  148.7310 F   0  0  0  0  0  0  0  0  0  0  0  0
  158.3980  211.3170  155.0130 C   0  0  0  0  0  2  0  0  0  0  0  0
  160.8050  209.6120  152.7080 C   0  0  0  0  0  2  0  0  0  0  0  0
  159.7210  211.9020  153.1000 C   0  0  1  0  0  3  0  0  0  0  0  0
  161.8380  210.9120  149.1560 C   0  0  2  0  0  3  0  0  0  0  0  0
  159.8020  208.0740  155.5830 N   0  0  0  0  0  0  0  0  0  0  0  0
  163.1960  209.7530  157.2600 C   0  0  0  0  0  3  0  0  0  0  0  0
  161.6210  207.3050  151.1400 C   0  0  0  0  0  2  0  0  0  0  0  0
  159.5670  210.3880  153.1800 C   0  0  2  0  0  3  0  0  0  0  0  0
  161.4560  208.4700  150.4910 C   0  0  0  0  0  0  0  0  0  0  0  0
  159.1420  210.1480  154.5460 N   0  0  0  0  0  0  0  0  0  0  0  0
  163.4330  211.1300  157.1650 C   0  0  0  0  0  3  0  0  0  0  0  0
  159.7200  212.3670  151.6380 C   0  0  1  0  0  3  0  0  0  0  0  0
  163.0070  210.8170  151.2470 O   0  0  0  0  0  1  0  0  0  0  0  0
  162.2860  207.3770  148.3360 C   0  0  0  0  0  2  0  0  0  0  0  0
  160.3880  206.1520  149.1920 O   0  0  0  0  0  1  0  0  0  0  0  0
  161.5130  206.0490  148.3770 C   0  0  1  0  0  3  0  0  0  0  0  0
  160.5010  206.0190  146.1050 C   0  0  0  0  0  3  0  0  0  0  0  0
  161.1790  205.3770  147.0610 C   0  0  0  0  0  0  0  0  0  0  0  0
  161.4130  203.8780  146.8520 C   0  0  1  0  0  0  0  0  0  0  0  0
  160.7320  202.6430  148.1770 C   0  0  1  0  0  3  0  0  0  0  0  0
  160.1440  205.2890  144.8480 C   0  0  0  0  0  2  0  0  0  0  0  0
  160.2590  202.1310  145.8440 C   0  0  0  0  0  2  0  0  0  0  0  0
  162.0460  203.6290  145.4680 C   0  0  2  0  0  3  0  0  0  0  0  0
  161.3900  204.5110  144.3660 C   0  0  0  0  0  2  0  0  0  0  0  0
  161.6320  202.2140  145.1920 C   0  0  0  0  0  2  0  0  0  0  0  0
  162.0000  203.2410  147.9720 O   0  0  0  0  0  0  0  0  0  0  0  0
  160.1530  203.1360  146.9190 N   0  0  2  0  0  0  0  0  0  0  0  0
  161.1670  200.7640  149.7570 C   0  0  0  0  0  1  0  0  0  0  0  0
  160.7730  201.0960  148.3190 C   0  0  0  0  0  2  0  0  0  0  0  0
  159.1150  213.7000  151.4450 N   0  0  0  0  0  2  0  0  0  0  0  0
  159.5560  214.2900  150.1850 C   0  0  0  0  0  2  0  0  0  0  0  0
  158.4180  214.3230  149.1680 C   0  0  2  0  0  3  0  0  0  0  0  0
  157.3130  213.6500  149.6860 O   0  0  0  0  0  1  0  0  0  0  0  0
  160.3070  214.0100  147.4710 C   0  0  0  0  0  2  0  0  0  0  0  0
  159.7260  213.7820  145.0230 C   0  0  0  0  0  2  0  0  0  0  0  0
  160.6790  213.3340  146.1460 C   0  0  1  0  0  3  0  0  0  0  0  0
  158.8290  213.6930  147.8230 C   0  0  2  0  0  3  0  0  0  0  0  0
  158.2830  213.3750  145.3710 C   0  0  0  0  0  2  0  0  0  0  0  0
  157.8650  214.0810  146.6740 C   0  0  0  0  0  2  0  0  0  0  0  0
  162.1300  213.1700  144.4840 C   0  0  0  0  0  1  0  0  0  0  0  0
  161.9730  213.6800  145.7750 O   0  0  0  0  0  0  0  0  0  0  0  0
  1  9  1  0  0  0  0
  1  8  1  0  0  0  0
  1 27  1  1  0  0  0
  2  5  2  0  0  0  0
  2 12  1  0  0  0  0
  4  3  2  0  0  0  0
  5  7  1  0  0  0  0
  6 19  2  0  0  0  0
  6  5  1  0  0  0  0
  7  3  1  0  0  0  0
  7 20  2  0  0  0  0
  8 16  1  1  0  0  0
  9 26  1  0  0  0  0
 10 28  1  1  0  0  0
 10 23  1  0  0  0  0
 11 10  1  0  0  0  0
 11 18  1  0  0  0  0
 12 25  2  0  0  0  0
 13 15  1  0  0  0  0
 17 22  1  0  0  0  0
 17 13  1  1  0  0  0
 18 14  1  1  0  0  0
 18  1  1  0  0  0  0
 19  4  1  0  0  0  0
 22 16  1  1  0  0  0
 22 24  1  0  0  0  0
 23 21  2  0  0  0  0
 23  8  1  0  0  0  0
 24 15  1  0  0  0  0
 24  6  1  0  0  0  0
 25 20  1  0  0  0  0
 26 44  1  1  0  0  0
 26 17  1  0  0  0  0
 28 30  1  0  0  0  0
 30 29  1  6  0  0  0
 31 32  2  0  0  0  0
 32 30  1  0  0  0  0
 33 41  1  0  0  0  0
 33 32  1  1  0  0  0
 33 40  1  0  0  0  0
 34 43  1  6  0  0  0
 35 31  1  0  0  0  0
 37 38  1  6  0  0  0
 37 33  1  0  0  0  0
 38 35  1  0  0  0  0
 39 37  1  0  0  0  0
 39 36  1  0  0  0  0
 40 34  1  0  0  0  0
 41 36  1  6  0  0  0
 41 34  1  0  0  0  0
 43 42  1  0  0  0  0
 45 44  1  0  0  0  0
 46 47  1  1  0  0  0
 46 45  1  0  0  0  0
 48 51  1  0  0  0  0
 49 52  1  0  0  0  0
 49 50  1  0  0  0  0
 50 55  1  6  0  0  0
 50 48  1  0  0  0  0
 51 46  1  1  0  0  0
 52 53  1  0  0  0  0
 53 51  1  0  0  0  0
 54 55  1  0  0  0  0
M  END
>  <MODEL>
3

>  <REMARK>
 VINA RESULT:      -5.0      1.297      1.822
  Name = 
  9 active torsions:
  status: ('A' for Active; 'I' for Inactive)
    1  A    between atoms: C_5  and  C_36
    2  A    between atoms: C_7  and  C_44
    3  A    between atoms: O_18  and  C_24
    4  A    between atoms: C_19  and  C_32
    5  A    between atoms: C_22  and  C_28
    6  A    between atoms: C_22  and  C_31
    7  A    between atoms: C_28  and  N_42
    8  A    between atoms: C_32  and  C_36
    9  A    between atoms: N_42  and  C_54
                            x       y       z     vdW  Elec       q    Type
                         _______ _______ _______ _____ _____    ______ ____

>  <TORSDO>
F 9

$$$$
