=
 OpenBabel11042420423D

 65 72  0  0  1  0  0  0  0  0999 V2000
  161.5990  210.0100  149.9420 C   0  0  2  0  0  3  0  0  0  0  0  0
  162.2920  207.5340  149.8250 C   0  0  0  0  0  0  0  0  0  0  0  0
  161.5280  206.1740  147.9950 N   0  0  0  0  0  0  0  0  0  0  0  0
  162.9440  207.6600  151.0470 O   0  0  0  0  0  1  0  0  0  0  0  0
  161.2840  207.3470  147.1450 C   0  0  0  0  0  2  0  0  0  0  0  0
  162.1880  206.3310  149.2570 C   0  0  0  0  0  3  0  0  0  0  0  0
  161.1480  208.6050  147.9580 C   0  0  0  0  0  3  0  0  0  0  0  0
  161.6860  208.7150  149.1800 C   0  0  0  0  0  0  0  0  0  0  0  0
  161.3170  204.8050  147.5190 C   0  0  0  0  0  2  0  0  0  0  0  0
  161.5650  203.7410  148.5840 C   0  0  0  0  0  2  0  0  0  0  0  0
  160.6510  202.6960  148.4510 O   0  0  0  0  0  0  0  0  0  0  0  0
  160.4100  202.2780  149.7600 C   0  0  0  0  0  2  0  0  0  0  0  0
  162.6910  205.3210  153.0490 C   0  0  0  0  0  2  0  0  0  0  0  0
  159.9730  206.3310  153.5610 C   0  0  0  0  0  2  0  0  0  0  0  0
  162.5090  206.6800  153.7240 C   0  0  0  0  0  2  0  0  0  0  0  0
  161.5260  204.9750  152.2290 N   0  0  0  0  0  0  0  0  0  0  0  0
  161.1640  206.7350  154.4480 C   0  0  0  0  0  2  0  0  0  0  0  0
  162.5740  203.0550  151.4060 O   0  0  0  0  0  0  0  0  0  0  0  0
  161.5470  203.7890  151.4220 C   0  0  0  0  0  0  0  0  0  0  0  0
  160.3820  205.8840  152.1590 C   0  0  0  0  0  2  0  0  0  0  0  0
  160.4020  203.4300  150.6450 N   0  0  0  0  0  2  0  0  0  0  0  0
  162.2170  211.1460  149.1440 C   0  0  0  0  0  2  0  0  0  0  0  0
  161.1140  213.3200  149.0820 O   0  0  0  0  0  0  0  0  0  0  0  0
  163.2230  214.1450  146.2500 C   0  0  0  0  0  1  0  0  0  0  0  0
  161.8850  214.2760  146.9780 C   0  0  2  0  0  3  0  0  0  0  0  0
  162.1400  214.0810  148.4800 C   0  0  0  0  0  2  0  0  0  0  0  0
  161.1660  211.9850  147.0050 C   0  0  0  0  0  2  0  0  0  0  0  0
  160.8630  213.3200  146.5010 N   0  0  0  0  0  0  0  0  0  0  0  0
  161.1150  212.0050  148.5400 C   0  0  1  0  0  3  0  0  0  0  0  0
  160.8030  213.2720  145.0440 C   0  0  0  0  0  2  0  0  0  0  0  0
  158.4170  214.1970  145.5720 O   0  0  0  0  0  0  0  0  0  0  0  0
  159.4510  214.3090  144.4590 S   0  0  2  0  0  0  0  0  0  0  0  0
  158.7440  213.3350  143.1140 C   0  0  0  0  0  2  0  0  0  0  0  0
  159.4010  212.2520  140.9060 C   0  0  2  0  0  3  0  0  0  0  0  0
  159.8380  212.6290  142.3250 C   0  0  1  0  0  3  0  0  0  0  0  0
  161.1780  213.3760  142.4610 C   0  0  1  0  0  3  0  0  0  0  0  0
  161.7180  212.5450  140.0310 C   0  0  2  0  0  3  0  0  0  0  0  0
  162.8070  211.8790  139.4720 O   0  0  0  0  0  1  0  0  0  0  0  0
  162.1530  213.2420  141.3270 C   0  0  1  0  0  3  0  0  0  0  0  0
  161.3360  214.3840  141.4920 O   0  0  0  0  0  0  0  0  0  0  0  0
  160.5630  211.5690  140.2060 C   0  0  0  0  0  2  0  0  0  0  0  0
  158.9750  213.3780  140.1890 O   0  0  0  0  0  0  0  0  0  0  0  0
  157.3810  211.7660  139.4830 C   0  0  0  0  0  1  0  0  0  0  0  0
  158.3270  212.8680  139.0620 C   0  0  0  0  0  2  0  0  0  0  0  0
  162.2460  209.9260  151.3150 C   0  0  0  0  0  2  0  0  0  0  0  0
  161.6810  210.9960  152.2350 C   0  0  0  0  0  2  0  0  0  0  0  0
  162.7670  210.6000  155.9540 C   0  0  0  0  0  0  0  0  0  0  0  0
  161.6000  210.2640  156.5170 C   0  0  0  0  0  3  0  0  0  0  0  0
  160.4650  209.7250  155.6850 C   0  0  2  0  0  3  0  0  0  0  0  0
  160.5440  210.1540  154.2680 C   0  0  0  0  0  0  0  0  0  0  0  0
  164.0220  210.8150  153.9380 O   0  0  0  0  0  0  0  0  0  0  0  0
  158.7930  210.5060  152.6680 O   0  0  0  0  0  0  0  0  0  0  0  0
  158.3340  210.2290  155.0560 C   0  0  1  0  0  3  0  0  0  0  0  0
  162.9000  210.6190  154.4760 C   0  0  0  0  0  0  0  0  0  0  0  0
  159.1930  210.3210  153.8490 C   0  0  0  0  0  0  0  0  0  0  0  0
  161.6800  210.5020  153.6470 C   0  0  0  0  0  0  0  0  0  0  0  0
  163.8890  211.0490  156.8220 C   0  0  0  0  0  1  0  0  0  0  0  0
  159.1960  210.1140  156.1820 O   0  0  0  0  0  0  0  0  0  0  0  0
  156.3900  213.3290  154.6420 C   0  0  0  0  0  0  0  0  0  0  0  0
  157.4620  211.4370  155.2130 C   0  0  0  0  0  0  0  0  0  0  0  0
  155.9100  214.3890  153.7080 C   0  0  0  0  0  1  0  0  0  0  0  0
  156.0960  213.3090  156.0020 C   0  0  0  0  0  0  0  0  0  0  0  0
  156.8180  211.9500  156.6810 S   0  0  0  0  0  0  0  0  0  0  0  0
  155.2840  214.3090  156.7490 C   0  0  0  0  0  1  0  0  0  0  0  0
  157.1540  212.2930  154.2080 N   0  0  0  0  0  0  0  0  0  0  0  0
  1 22  1  6  0  0  0
  1 45  1  0  0  0  0
  2  4  1  0  0  0  0
  3  6  1  0  0  0  0
  5  7  1  0  0  0  0
  5  3  1  0  0  0  0
  6  2  2  0  0  0  0
  7  8  2  0  0  0  0
  8  2  1  0  0  0  0
  8  1  1  0  0  0  0
  9  3  1  0  0  0  0
  9 10  1  0  0  0  0
 11 10  1  0  0  0  0
 11 12  1  0  0  0  0
 12 21  1  0  0  0  0
 13 15  1  0  0  0  0
 14 17  1  0  0  0  0
 15 17  1  0  0  0  0
 16 13  1  0  0  0  0
 18 19  2  0  0  0  0
 19 16  1  0  0  0  0
 20 16  1  0  0  0  0
 20 14  1  0  0  0  0
 21 19  1  0  0  0  0
 25 24  1  6  0  0  0
 25 26  1  0  0  0  0
 26 23  1  0  0  0  0
 27 29  1  0  0  0  0
 28 25  1  0  0  0  0
 28 27  1  0  0  0  0
 29 23  1  0  0  0  0
 29 22  1  1  0  0  0
 30 28  1  0  0  0  0
 32 30  1  0  0  0  0
 32 31  2  1  0  0  0
 33 32  1  0  0  0  0
 34 42  1  6  0  0  0
 34 35  1  0  0  0  0
 35 36  1  0  0  0  0
 35 33  1  6  0  0  0
 36 40  1  6  0  0  0
 37 38  1  1  0  0  0
 37 41  1  0  0  0  0
 37 39  1  0  0  0  0
 39 40  1  6  0  0  0
 39 36  1  0  0  0  0
 41 34  1  0  0  0  0
 44 43  1  0  0  0  0
 44 42  1  0  0  0  0
 45 46  1  0  0  0  0
 46 56  1  0  0  0  0
 47 48  2  0  0  0  0
 47 57  1  0  0  0  0
 49 58  1  0  0  0  0
 49 48  1  1  0  0  0
 50 49  1  0  0  0  0
 51 54  2  0  0  0  0
 52 55  2  0  0  0  0
 53 60  1  1  0  0  0
 53 58  1  0  0  0  0
 54 47  1  0  0  0  0
 55 50  1  0  0  0  0
 55 53  1  0  0  0  0
 56 50  2  0  0  0  0
 56 54  1  0  0  0  0
 59 62  2  0  0  0  0
 60 63  1  0  0  0  0
 61 59  1  0  0  0  0
 62 63  1  0  0  0  0
 62 64  1  0  0  0  0
 65 59  1  0  0  0  0
 65 60  2  0  0  0  0
M  END
>  <MODEL>
1

>  <REMARK>
 VINA RESULT:      -1.9      0.000      0.000
  Name = 
  18 active torsions:
  status: ('A' for Active; 'I' for Inactive)
    1  A    between atoms: C_1  and  O_34
    2  A    between atoms: C_2  and  S_30
    3  A    between atoms: C_2  and  N_46
    4  A    between atoms: C_3  and  C_41
    5  A    between atoms: C_3  and  O_47
    6  A    between atoms: C_10  and  C_40
    7  A    between atoms: C_13  and  C_28
    8  A    between atoms: C_13  and  C_59
    9  A    between atoms: N_15  and  C_41
   10  A    between atoms: C_20  and  C_52
   11  A    between atoms: C_25  and  O_47
   12  A    between atoms: C_25  and  N_63
   13  A    between atoms: C_28  and  C_32
   14  A    between atoms: C_28  and  C_65
   15  A    between atoms: S_30  and  C_52
   16  A    between atoms: C_32  and  C_62
   17  A    between atoms: O_34  and  C_36
   18  A    between atoms: C_56  and  C_59
                            x       y       z     vdW  Elec       q    Type
                         _______ _______ _______ _____ _____    ______ ____

>  <TORSDO>
F 18

$$$$
=
 OpenBabel11042420423D

 65 72  0  0  1  0  0  0  0  0999 V2000
  162.2280  208.3040  149.0900 C   0  0  2  0  0  3  0  0  0  0  0  0
  160.6570  206.8470  147.6640 C   0  0  0  0  0  0  0  0  0  0  0  0
  161.4360  205.9640  145.5670 N   0  0  0  0  0  0  0  0  0  0  0  0
  159.6320  207.0560  148.5800 O   0  0  0  0  0  1  0  0  0  0  0  0
  162.8440  206.0990  145.9640 C   0  0  0  0  0  2  0  0  0  0  0  0
  160.3980  206.2000  146.5260 C   0  0  0  0  0  3  0  0  0  0  0  0
  163.0150  207.0820  147.0890 C   0  0  0  0  0  3  0  0  0  0  0  0
  162.0110  207.3720  147.9280 C   0  0  0  0  0  0  0  0  0  0  0  0
  161.0380  205.3900  144.2800 C   0  0  0  0  0  2  0  0  0  0  0  0
  161.9850  205.7360  143.1350 C   0  0  0  0  0  2  0  0  0  0  0  0
  161.2720  205.9160  141.9500 O   0  0  0  0  0  0  0  0  0  0  0  0
  162.2430  206.2710  141.0140 C   0  0  0  0  0  2  0  0  0  0  0  0
  161.1660  209.9730  137.7860 C   0  0  0  0  0  2  0  0  0  0  0  0
  162.4380  211.7070  139.7970 C   0  0  0  0  0  2  0  0  0  0  0  0
  160.8960  211.4760  137.7610 C   0  0  0  0  0  2  0  0  0  0  0  0
  161.5380  209.5230  139.1310 N   0  0  0  0  0  0  0  0  0  0  0  0
  162.0580  212.2340  138.4020 C   0  0  0  0  0  2  0  0  0  0  0  0
  161.5490  207.2820  138.4660 O   0  0  0  0  0  0  0  0  0  0  0  0
  161.7230  208.1240  139.3900 C   0  0  0  0  0  0  0  0  0  0  0  0
  161.6280  210.4860  140.2290 C   0  0  0  0  0  2  0  0  0  0  0  0
  162.1170  207.6810  140.6920 N   0  0  0  0  0  2  0  0  0  0  0  0
  161.4560  207.8300  150.3100 C   0  0  0  0  0  2  0  0  0  0  0  0
  163.0160  207.0400  152.0090 O   0  0  0  0  0  0  0  0  0  0  0  0
  160.1450  206.3450  154.1120 C   0  0  0  0  0  1  0  0  0  0  0  0
  161.5600  205.9900  153.6560 C   0  0  2  0  0  3  0  0  0  0  0  0
  162.2370  207.2770  153.1640 C   0  0  0  0  0  2  0  0  0  0  0  0
  161.1790  205.5360  151.3300 C   0  0  0  0  0  2  0  0  0  0  0  0
  161.5940  204.9540  152.6030 N   0  0  0  0  0  0  0  0  0  0  0  0
  162.1700  206.6420  150.9380 C   0  0  1  0  0  3  0  0  0  0  0  0
  160.7170  203.8320  152.9160 C   0  0  0  0  0  2  0  0  0  0  0  0
  162.3680  201.9630  152.1380 O   0  0  0  0  0  0  0  0  0  0  0  0
  160.9980  202.4960  151.7390 S   0  0  2  0  0  0  0  0  0  0  0  0
  161.3090  203.3740  150.1940 C   0  0  0  0  0  2  0  0  0  0  0  0
  160.5500  201.2490  149.0150 C   0  0  2  0  0  3  0  0  0  0  0  0
  161.5670  202.3940  149.0580 C   0  0  1  0  0  3  0  0  0  0  0  0
  161.8200  203.1450  147.7360 C   0  0  1  0  0  3  0  0  0  0  0  0
  160.7130  201.0930  146.5310 C   0  0  2  0  0  3  0  0  0  0  0  0
  161.1160  200.2800  145.4740 O   0  0  0  0  0  1  0  0  0  0  0  0
  161.4670  202.4290  146.4650 C   0  0  1  0  0  3  0  0  0  0  0  0
  160.6310  203.4180  147.0340 O   0  0  0  0  0  0  0  0  0  0  0  0
  160.8890  200.3430  147.8440 C   0  0  0  0  0  2  0  0  0  0  0  0
  159.2410  201.7370  148.9100 O   0  0  0  0  0  0  0  0  0  0  0  0
  157.0900  200.7510  148.6920 C   0  0  0  0  0  1  0  0  0  0  0  0
  158.4300  200.7070  149.3930 C   0  0  0  0  0  2  0  0  0  0  0  0
  161.8570  209.7420  148.7650 C   0  0  0  0  0  2  0  0  0  0  0  0
  161.4850  210.4950  150.0320 C   0  0  0  0  0  2  0  0  0  0  0  0
  160.0230  213.4570  147.9690 C   0  0  0  0  0  0  0  0  0  0  0  0
  159.6230  214.2690  148.9550 C   0  0  0  0  0  3  0  0  0  0  0  0
  160.1720  214.1240  150.3500 C   0  0  2  0  0  3  0  0  0  0  0  0
  160.6600  212.7520  150.6310 C   0  0  0  0  0  0  0  0  0  0  0  0
  161.3600  211.5820  147.3470 O   0  0  0  0  0  0  0  0  0  0  0  0
  160.7690  211.5530  152.7040 O   0  0  0  0  0  0  0  0  0  0  0  0
  159.5070  213.6370  152.4750 C   0  0  1  0  0  3  0  0  0  0  0  0
  160.8780  212.2820  148.2760 C   0  0  0  0  0  0  0  0  0  0  0  0
  160.3670  212.5220  152.0050 C   0  0  0  0  0  0  0  0  0  0  0  0
  161.0740  211.8920  149.6900 C   0  0  0  0  0  0  0  0  0  0  0  0
  159.5190  213.6870  146.5880 C   0  0  0  0  0  1  0  0  0  0  0  0
  159.2180  214.4530  151.3460 O   0  0  0  0  0  0  0  0  0  0  0  0
  156.0520  213.1250  153.6420 C   0  0  0  0  0  0  0  0  0  0  0  0
  158.2280  213.1400  153.0740 C   0  0  0  0  0  0  0  0  0  0  0  0
  154.6450  213.6210  153.6410 C   0  0  0  0  0  1  0  0  0  0  0  0
  156.4670  211.9840  154.3220 C   0  0  0  0  0  0  0  0  0  0  0  0
  158.1140  211.7770  154.0550 S   0  0  0  0  0  0  0  0  0  0  0  0
  155.6150  211.0860  155.1500 C   0  0  0  0  0  1  0  0  0  0  0  0
  157.0330  213.7680  152.9560 N   0  0  0  0  0  0  0  0  0  0  0  0
  1 45  1  6  0  0  0
  1 22  1  0  0  0  0
  2  8  1  0  0  0  0
  2  4  1  0  0  0  0
  3  5  1  0  0  0  0
  3  6  1  0  0  0  0
  5  7  1  0  0  0  0
  6  2  2  0  0  0  0
  7  8  2  0  0  0  0
  8  1  1  0  0  0  0
  9  3  1  0  0  0  0
 10  9  1  0  0  0  0
 11 10  1  0  0  0  0
 12 11  1  0  0  0  0
 13 16  1  0  0  0  0
 14 20  1  0  0  0  0
 15 13  1  0  0  0  0
 15 17  1  0  0  0  0
 16 19  1  0  0  0  0
 16 20  1  0  0  0  0
 17 14  1  0  0  0  0
 18 19  2  0  0  0  0
 19 21  1  0  0  0  0
 21 12  1  0  0  0  0
 23 26  1  0  0  0  0
 25 24  1  6  0  0  0
 26 25  1  0  0  0  0
 27 28  1  0  0  0  0
 28 30  1  0  0  0  0
 28 25  1  0  0  0  0
 29 22  1  1  0  0  0
 29 27  1  0  0  0  0
 29 23  1  0  0  0  0
 32 31  2  1  0  0  0
 32 30  1  0  0  0  0
 33 32  1  0  0  0  0
 34 42  1  6  0  0  0
 34 35  1  0  0  0  0
 35 33  1  1  0  0  0
 36 40  1  1  0  0  0
 36 35  1  0  0  0  0
 37 38  1  6  0  0  0
 37 41  1  0  0  0  0
 39 37  1  0  0  0  0
 39 40  1  6  0  0  0
 39 36  1  0  0  0  0
 41 34  1  0  0  0  0
 42 44  1  0  0  0  0
 43 44  1  0  0  0  0
 45 46  1  0  0  0  0
 47 54  1  0  0  0  0
 47 48  2  0  0  0  0
 49 48  1  6  0  0  0
 49 50  1  0  0  0  0
 49 58  1  0  0  0  0
 50 55  1  0  0  0  0
 51 54  2  0  0  0  0
 53 60  1  6  0  0  0
 54 56  1  0  0  0  0
 55 53  1  0  0  0  0
 55 52  2  0  0  0  0
 56 46  1  0  0  0  0
 56 50  2  0  0  0  0
 57 47  1  0  0  0  0
 58 53  1  0  0  0  0
 59 62  2  0  0  0  0
 60 63  1  0  0  0  0
 61 59  1  0  0  0  0
 62 64  1  0  0  0  0
 63 62  1  0  0  0  0
 65 60  2  0  0  0  0
 65 59  1  0  0  0  0
M  END
>  <MODEL>
2

>  <REMARK>
 VINA RESULT:      -1.2      3.163      9.606
  Name = 
  18 active torsions:
  status: ('A' for Active; 'I' for Inactive)
    1  A    between atoms: C_1  and  O_34
    2  A    between atoms: C_2  and  S_30
    3  A    between atoms: C_2  and  N_46
    4  A    between atoms: C_3  and  C_41
    5  A    between atoms: C_3  and  O_47
    6  A    between atoms: C_10  and  C_40
    7  A    between atoms: C_13  and  C_28
    8  A    between atoms: C_13  and  C_59
    9  A    between atoms: N_15  and  C_41
   10  A    between atoms: C_20  and  C_52
   11  A    between atoms: C_25  and  O_47
   12  A    between atoms: C_25  and  N_63
   13  A    between atoms: C_28  and  C_32
   14  A    between atoms: C_28  and  C_65
   15  A    between atoms: S_30  and  C_52
   16  A    between atoms: C_32  and  C_62
   17  A    between atoms: O_34  and  C_36
   18  A    between atoms: C_56  and  C_59
                            x       y       z     vdW  Elec       q    Type
                         _______ _______ _______ _____ _____    ______ ____

>  <TORSDO>
F 18

$$$$
=
 OpenBabel11042420423D

 65 72  0  0  1  0  0  0  0  0999 V2000
  161.4270  209.7790  149.6700 C   0  0  2  0  0  3  0  0  0  0  0  0
  162.1970  207.3540  149.2800 C   0  0  0  0  0  0  0  0  0  0  0  0
  161.3560  206.1340  147.3850 N   0  0  0  0  0  0  0  0  0  0  0  0
  162.9270  207.3950  150.4620 O   0  0  0  0  0  1  0  0  0  0  0  0
  161.0130  207.3670  146.6650 C   0  0  0  0  0  2  0  0  0  0  0  0
  162.0950  206.2040  148.6110 C   0  0  0  0  0  3  0  0  0  0  0  0
  160.8890  208.5410  147.5980 C   0  0  0  0  0  3  0  0  0  0  0  0
  161.5070  208.5630  148.7870 C   0  0  0  0  0  0  0  0  0  0  0  0
  161.1610  204.8060  146.7990 C   0  0  0  0  0  2  0  0  0  0  0  0
  162.2570  203.8090  147.1600 C   0  0  0  0  0  2  0  0  0  0  0  0
  161.9220  202.5310  146.7120 O   0  0  0  0  0  0  0  0  0  0  0  0
  161.3470  201.9150  147.8240 C   0  0  0  0  0  2  0  0  0  0  0  0
  160.1390  203.4560  152.4550 C   0  0  0  0  0  2  0  0  0  0  0  0
  162.2200  205.4910  152.0100 C   0  0  0  0  0  2  0  0  0  0  0  0
  160.7450  204.1850  153.6530 C   0  0  0  0  0  2  0  0  0  0  0  0
  161.0670  203.4360  151.3200 N   0  0  0  0  0  0  0  0  0  0  0  0
  161.2790  205.5520  153.2250 C   0  0  0  0  0  2  0  0  0  0  0  0
  159.6460  202.0580  150.0770 O   0  0  0  0  0  0  0  0  0  0  0  0
  160.7300  202.7020  150.1350 C   0  0  0  0  0  0  0  0  0  0  0  0
  162.3740  204.0860  151.4280 C   0  0  0  0  0  2  0  0  0  0  0  0
  161.6160  202.7050  149.0120 N   0  0  0  0  0  2  0  0  0  0  0  0
  162.3280  210.8840  149.1450 C   0  0  0  0  0  2  0  0  0  0  0  0
  161.0630  212.9390  148.7950 O   0  0  0  0  0  0  0  0  0  0  0  0
  164.1350  214.4530  147.6030 C   0  0  0  0  0  1  0  0  0  0  0  0
  162.6120  214.3390  147.5400 C   0  0  2  0  0  3  0  0  0  0  0  0
  162.1130  213.8770  148.9160 C   0  0  0  0  0  2  0  0  0  0  0  0
  162.3630  212.0380  146.8980 C   0  0  0  0  0  2  0  0  0  0  0  0
  162.1380  213.4190  146.4840 N   0  0  0  0  0  0  0  0  0  0  0  0
  161.5510  211.7580  148.1710 C   0  0  1  0  0  3  0  0  0  0  0  0
  162.8210  213.6490  145.2160 C   0  0  0  0  0  2  0  0  0  0  0  0
  160.2780  213.8760  144.6580 O   0  0  0  0  0  0  0  0  0  0  0  0
  161.6100  214.0280  143.9360 S   0  0  2  0  0  0  0  0  0  0  0  0
  161.6870  212.5810  142.8610 C   0  0  0  0  0  2  0  0  0  0  0  0
  161.4590  213.5820  140.5320 C   0  0  2  0  0  3  0  0  0  0  0  0
  160.7940  212.7640  141.6430 C   0  0  1  0  0  3  0  0  0  0  0  0
  160.1550  211.4250  141.2280 C   0  0  1  0  0  3  0  0  0  0  0  0
  160.2380  212.3190  138.7620 C   0  0  2  0  0  3  0  0  0  0  0  0
  159.2810  212.4240  137.7550 O   0  0  0  0  0  1  0  0  0  0  0  0
  159.7960  211.2580  139.7800 C   0  0  1  0  0  3  0  0  0  0  0  0
  160.9650  210.6920  140.3400 O   0  0  0  0  0  0  0  0  0  0  0  0
  160.4930  213.6930  139.3650 C   0  0  0  0  0  2  0  0  0  0  0  0
  162.6690  213.0010  140.1290 O   0  0  0  0  0  0  0  0  0  0  0  0
  164.7080  213.5060  139.0200 C   0  0  0  0  0  1  0  0  0  0  0  0
  163.3480  214.0130  139.4460 C   0  0  0  0  0  2  0  0  0  0  0  0
  161.7690  209.4730  151.1200 C   0  0  0  0  0  2  0  0  0  0  0  0
  161.5580  210.7040  151.9870 C   0  0  0  0  0  2  0  0  0  0  0  0
  162.6760  210.5220  155.7120 C   0  0  0  0  0  0  0  0  0  0  0  0
  161.5030  210.2850  156.3110 C   0  0  0  0  0  3  0  0  0  0  0  0
  160.3310  209.7450  155.5330 C   0  0  2  0  0  3  0  0  0  0  0  0
  160.4100  210.0660  154.0870 C   0  0  0  0  0  0  0  0  0  0  0  0
  163.9110  210.5300  153.6720 O   0  0  0  0  0  0  0  0  0  0  0  0
  158.6550  210.3890  152.4860 O   0  0  0  0  0  0  0  0  0  0  0  0
  158.2180  210.3060  154.8920 C   0  0  1  0  0  3  0  0  0  0  0  0
  162.7890  210.4290  154.2350 C   0  0  0  0  0  0  0  0  0  0  0  0
  159.0640  210.2690  153.6730 C   0  0  0  0  0  0  0  0  0  0  0  0
  161.5530  210.3120  153.4300 C   0  0  0  0  0  0  0  0  0  0  0  0
  163.8320  210.9770  156.5330 C   0  0  0  0  0  1  0  0  0  0  0  0
  159.0900  210.2300  156.0140 O   0  0  0  0  0  0  0  0  0  0  0  0
  156.5000  213.4120  155.8740 C   0  0  0  0  0  0  0  0  0  0  0  0
  157.4090  211.5640  154.9710 C   0  0  0  0  0  0  0  0  0  0  0  0
  156.2880  214.4440  156.9310 C   0  0  0  0  0  1  0  0  0  0  0  0
  155.8660  213.4350  154.6360 C   0  0  0  0  0  0  0  0  0  0  0  0
  156.3870  212.1060  153.7470 S   0  0  0  0  0  0  0  0  0  0  0  0
  154.8900  214.4530  154.1580 C   0  0  0  0  0  1  0  0  0  0  0  0
  157.3500  212.3690  156.0600 N   0  0  0  0  0  0  0  0  0  0  0  0
  1 22  1  6  0  0  0
  1 45  1  0  0  0  0
  2  4  1  0  0  0  0
  3  6  1  0  0  0  0
  5  3  1  0  0  0  0
  5  7  1  0  0  0  0
  6  2  2  0  0  0  0
  7  8  2  0  0  0  0
  8  2  1  0  0  0  0
  8  1  1  0  0  0  0
  9 10  1  0  0  0  0
  9  3  1  0  0  0  0
 11 10  1  0  0  0  0
 11 12  1  0  0  0  0
 12 21  1  0  0  0  0
 13 15  1  0  0  0  0
 14 17  1  0  0  0  0
 16 20  1  0  0  0  0
 16 13  1  0  0  0  0
 17 15  1  0  0  0  0
 18 19  2  0  0  0  0
 19 16  1  0  0  0  0
 20 14  1  0  0  0  0
 21 19  1  0  0  0  0
 23 26  1  0  0  0  0
 25 24  1  1  0  0  0
 25 26  1  0  0  0  0
 27 29  1  0  0  0  0
 28 27  1  0  0  0  0
 28 25  1  0  0  0  0
 29 23  1  0  0  0  0
 29 22  1  1  0  0  0
 30 28  1  0  0  0  0
 32 31  2  1  0  0  0
 32 30  1  0  0  0  0
 33 32  1  0  0  0  0
 34 42  1  6  0  0  0
 34 35  1  0  0  0  0
 35 33  1  1  0  0  0
 36 40  1  6  0  0  0
 36 35  1  0  0  0  0
 37 38  1  6  0  0  0
 37 41  1  0  0  0  0
 37 39  1  0  0  0  0
 39 40  1  6  0  0  0
 39 36  1  0  0  0  0
 41 34  1  0  0  0  0
 43 44  1  0  0  0  0
 44 42  1  0  0  0  0
 45 46  1  0  0  0  0
 46 56  1  0  0  0  0
 47 48  2  0  0  0  0
 47 57  1  0  0  0  0
 49 58  1  0  0  0  0
 49 48  1  1  0  0  0
 50 49  1  0  0  0  0
 51 54  2  0  0  0  0
 52 55  2  0  0  0  0
 53 60  1  1  0  0  0
 53 58  1  0  0  0  0
 54 47  1  0  0  0  0
 55 50  1  0  0  0  0
 55 53  1  0  0  0  0
 56 50  2  0  0  0  0
 56 54  1  0  0  0  0
 59 65  1  0  0  0  0
 59 61  1  0  0  0  0
 60 65  2  0  0  0  0
 62 59  2  0  0  0  0
 63 62  1  0  0  0  0
 63 60  1  0  0  0  0
 64 62  1  0  0  0  0
M  END
>  <MODEL>
3

>  <REMARK>
 VINA RESULT:      -1.2      1.320      2.165
  Name = 
  18 active torsions:
  status: ('A' for Active; 'I' for Inactive)
    1  A    between atoms: C_1  and  O_34
    2  A    between atoms: C_2  and  S_30
    3  A    between atoms: C_2  and  N_46
    4  A    between atoms: C_3  and  C_41
    5  A    between atoms: C_3  and  O_47
    6  A    between atoms: C_10  and  C_40
    7  A    between atoms: C_13  and  C_28
    8  A    between atoms: C_13  and  C_59
    9  A    between atoms: N_15  and  C_41
   10  A    between atoms: C_20  and  C_52
   11  A    between atoms: C_25  and  O_47
   12  A    between atoms: C_25  and  N_63
   13  A    between atoms: C_28  and  C_32
   14  A    between atoms: C_28  and  C_65
   15  A    between atoms: S_30  and  C_52
   16  A    between atoms: C_32  and  C_62
   17  A    between atoms: O_34  and  C_36
   18  A    between atoms: C_56  and  C_59
                            x       y       z     vdW  Elec       q    Type
                         _______ _______ _______ _____ _____    ______ ____

>  <TORSDO>
F 18

$$$$
=
 OpenBabel11042420423D

 65 72  0  0  1  0  0  0  0  0999 V2000
  161.5850  208.0340  150.4010 C   0  0  2  0  0  3  0  0  0  0  0  0
  162.6060  207.4590  148.1100 C   0  0  0  0  0  0  0  0  0  0  0  0
  161.4840  205.8930  146.6700 N   0  0  0  0  0  0  0  0  0  0  0  0
  163.7050  208.2600  148.3990 O   0  0  0  0  0  1  0  0  0  0  0  0
  160.1940  206.1100  147.3390 C   0  0  0  0  0  2  0  0  0  0  0  0
  162.6060  206.7220  146.9970 C   0  0  0  0  0  3  0  0  0  0  0  0
  160.3690  206.6980  148.7130 C   0  0  0  0  0  3  0  0  0  0  0  0
  161.4660  207.3930  149.0450 C   0  0  0  0  0  0  0  0  0  0  0  0
  161.6280  204.9980  145.5200 C   0  0  0  0  0  2  0  0  0  0  0  0
  162.2470  205.6670  144.2970 C   0  0  0  0  0  2  0  0  0  0  0  0
  161.2560  206.0270  143.3840 O   0  0  0  0  0  0  0  0  0  0  0  0
  161.8480  205.8300  142.1360 C   0  0  0  0  0  2  0  0  0  0  0  0
  162.0960  208.3140  137.7710 C   0  0  0  0  0  2  0  0  0  0  0  0
  162.1900  210.7150  139.4720 C   0  0  0  0  0  2  0  0  0  0  0  0
  161.7610  209.6760  137.1660 C   0  0  0  0  0  2  0  0  0  0  0  0
  161.8470  208.2970  139.2150 N   0  0  0  0  0  0  0  0  0  0  0  0
  162.4490  210.7890  137.9570 C   0  0  0  0  0  2  0  0  0  0  0  0
  162.3170  206.0120  139.3540 O   0  0  0  0  0  0  0  0  0  0  0  0
  161.9930  207.0760  139.9520 C   0  0  0  0  0  0  0  0  0  0  0  0
  161.3610  209.5020  139.8900 C   0  0  0  0  0  2  0  0  0  0  0  0
  161.7820  207.0600  141.3670 N   0  0  0  0  0  2  0  0  0  0  0  0
  161.0870  207.0940  151.4860 C   0  0  0  0  0  2  0  0  0  0  0  0
  162.2970  205.6610  153.0440 O   0  0  0  0  0  0  0  0  0  0  0  0
  159.6630  203.2080  152.6060 C   0  0  0  0  0  1  0  0  0  0  0  0
  161.1370  203.5280  152.8550 C   0  0  2  0  0  3  0  0  0  0  0  0
  161.2160  204.8990  153.5410 C   0  0  0  0  0  2  0  0  0  0  0  0
  161.6800  204.7230  150.8450 C   0  0  0  0  0  2  0  0  0  0  0  0
  161.9540  203.5200  151.6230 N   0  0  0  0  0  0  0  0  0  0  0  0
  162.0800  205.9560  151.6700 C   0  0  1  0  0  3  0  0  0  0  0  0
  161.6780  202.3510  150.7960 C   0  0  0  0  0  2  0  0  0  0  0  0
  159.4190  201.2620  150.0620 O   0  0  0  0  0  0  0  0  0  0  0  0
  160.1370  202.5950  149.8950 S   0  0  2  0  0  0  0  0  0  0  0  0
  160.6670  202.5890  148.1710 C   0  0  0  0  0  2  0  0  0  0  0  0
  159.8430  201.4370  146.0550 C   0  0  2  0  0  3  0  0  0  0  0  0
  160.3160  201.2670  147.5020 C   0  0  1  0  0  3  0  0  0  0  0  0
  161.4190  200.2200  147.7510 C   0  0  1  0  0  3  0  0  0  0  0  0
  160.8050  199.2320  145.3990 C   0  0  2  0  0  3  0  0  0  0  0  0
  160.4900  197.9470  144.9580 O   0  0  0  0  0  1  0  0  0  0  0  0
  161.5850  199.1440  146.7180 C   0  0  1  0  0  3  0  0  0  0  0  0
  162.4390  200.2690  146.7830 O   0  0  0  0  0  0  0  0  0  0  0  0
  159.5340  200.0650  145.4810 C   0  0  0  0  0  2  0  0  0  0  0  0
  160.8050  202.1000  145.2810 O   0  0  0  0  0  0  0  0  0  0  0  0
  158.9730  203.4320  144.5660 C   0  0  0  0  0  1  0  0  0  0  0  0
  160.1190  202.5380  144.1460 C   0  0  0  0  0  2  0  0  0  0  0  0
  160.8500  209.3630  150.4870 C   0  0  0  0  0  2  0  0  0  0  0  0
  161.8350  210.5030  150.6940 C   0  0  0  0  0  2  0  0  0  0  0  0
  160.1650  212.8930  148.1130 C   0  0  0  0  0  0  0  0  0  0  0  0
  159.6020  213.7870  148.9340 C   0  0  0  0  0  3  0  0  0  0  0  0
  160.0690  213.9320  150.3590 C   0  0  2  0  0  3  0  0  0  0  0  0
  160.7010  212.6970  150.8800 C   0  0  0  0  0  0  0  0  0  0  0  0
  161.7610  211.1370  147.8650 O   0  0  0  0  0  0  0  0  0  0  0  0
  160.8150  211.8560  153.1230 O   0  0  0  0  0  0  0  0  0  0  0  0
  159.3260  213.6960  152.5000 C   0  0  1  0  0  3  0  0  0  0  0  0
  161.1350  211.9020  148.6460 C   0  0  0  0  0  0  0  0  0  0  0  0
  160.3460  212.6440  152.2580 C   0  0  0  0  0  0  0  0  0  0  0  0
  161.2810  211.7640  150.1110 C   0  0  0  0  0  0  0  0  0  0  0  0
  159.7320  212.8390  146.6900 C   0  0  0  0  0  1  0  0  0  0  0  0
  159.0170  214.2820  151.2420 O   0  0  0  0  0  0  0  0  0  0  0  0
  155.9440  213.0580  153.8100 C   0  0  0  0  0  0  0  0  0  0  0  0
  158.0800  213.1320  153.1110 C   0  0  0  0  0  0  0  0  0  0  0  0
  154.5470  213.5600  153.9660 C   0  0  0  0  0  1  0  0  0  0  0  0
  156.3830  211.8340  154.3070 C   0  0  0  0  0  0  0  0  0  0  0  0
  158.0070  211.6520  153.9090 S   0  0  0  0  0  0  0  0  0  0  0  0
  155.5720  210.8410  155.0630 C   0  0  0  0  0  1  0  0  0  0  0  0
  156.8890  213.7790  153.1530 N   0  0  0  0  0  0  0  0  0  0  0  0
  1 45  1  6  0  0  0
  1 22  1  0  0  0  0
  2  4  1  0  0  0  0
  2  8  1  0  0  0  0
  3  6  1  0  0  0  0
  3  5  1  0  0  0  0
  5  7  1  0  0  0  0
  6  2  2  0  0  0  0
  7  8  2  0  0  0  0
  8  1  1  0  0  0  0
  9  3  1  0  0  0  0
 10  9  1  0  0  0  0
 11 10  1  0  0  0  0
 12 11  1  0  0  0  0
 13 16  1  0  0  0  0
 14 20  1  0  0  0  0
 15 13  1  0  0  0  0
 15 17  1  0  0  0  0
 16 20  1  0  0  0  0
 16 19  1  0  0  0  0
 17 14  1  0  0  0  0
 18 19  2  0  0  0  0
 19 21  1  0  0  0  0
 21 12  1  0  0  0  0
 23 26  1  0  0  0  0
 25 24  1  6  0  0  0
 25 26  1  0  0  0  0
 27 28  1  0  0  0  0
 27 29  1  0  0  0  0
 28 25  1  0  0  0  0
 29 22  1  1  0  0  0
 29 23  1  0  0  0  0
 30 28  1  0  0  0  0
 32 31  2  6  0  0  0
 32 30  1  0  0  0  0
 33 32  1  0  0  0  0
 34 42  1  6  0  0  0
 34 35  1  0  0  0  0
 35 36  1  0  0  0  0
 35 33  1  6  0  0  0
 36 40  1  6  0  0  0
 37 38  1  1  0  0  0
 37 41  1  0  0  0  0
 37 39  1  0  0  0  0
 39 40  1  6  0  0  0
 39 36  1  0  0  0  0
 41 34  1  0  0  0  0
 44 43  1  0  0  0  0
 44 42  1  0  0  0  0
 45 46  1  0  0  0  0
 47 54  1  0  0  0  0
 47 48  2  0  0  0  0
 49 48  1  6  0  0  0
 49 50  1  0  0  0  0
 49 58  1  0  0  0  0
 50 55  1  0  0  0  0
 51 54  2  0  0  0  0
 53 60  1  6  0  0  0
 54 56  1  0  0  0  0
 55 53  1  0  0  0  0
 55 52  2  0  0  0  0
 56 46  1  0  0  0  0
 56 50  2  0  0  0  0
 57 47  1  0  0  0  0
 58 53  1  0  0  0  0
 59 61  1  0  0  0  0
 59 62  2  0  0  0  0
 60 65  2  0  0  0  0
 60 63  1  0  0  0  0
 62 64  1  0  0  0  0
 63 62  1  0  0  0  0
 65 59  1  0  0  0  0
M  END
>  <MODEL>
4

>  <REMARK>
 VINA RESULT:       0.1      3.527      9.509
  Name = 
  18 active torsions:
  status: ('A' for Active; 'I' for Inactive)
    1  A    between atoms: C_1  and  O_34
    2  A    between atoms: C_2  and  S_30
    3  A    between atoms: C_2  and  N_46
    4  A    between atoms: C_3  and  C_41
    5  A    between atoms: C_3  and  O_47
    6  A    between atoms: C_10  and  C_40
    7  A    between atoms: C_13  and  C_28
    8  A    between atoms: C_13  and  C_59
    9  A    between atoms: N_15  and  C_41
   10  A    between atoms: C_20  and  C_52
   11  A    between atoms: C_25  and  O_47
   12  A    between atoms: C_25  and  N_63
   13  A    between atoms: C_28  and  C_32
   14  A    between atoms: C_28  and  C_65
   15  A    between atoms: S_30  and  C_52
   16  A    between atoms: C_32  and  C_62
   17  A    between atoms: O_34  and  C_36
   18  A    between atoms: C_56  and  C_59
                            x       y       z     vdW  Elec       q    Type
                         _______ _______ _______ _____ _____    ______ ____

>  <TORSDO>
F 18

$$$$
=
 OpenBabel11042420423D

 65 72  0  0  1  0  0  0  0  0999 V2000
  159.6130  214.0360  150.6060 C   0  0  2  0  0  3  0  0  0  0  0  0
  157.4320  213.4240  149.3840 C   0  0  0  0  0  0  0  0  0  0  0  0
  157.1010  214.1490  147.1140 N   0  0  0  0  0  0  0  0  0  0  0  0
  156.9500  212.8260  150.5430 O   0  0  0  0  0  1  0  0  0  0  0  0
  158.5440  214.3130  146.8920 C   0  0  0  0  0  2  0  0  0  0  0  0
  156.6290  213.5440  148.3240 C   0  0  0  0  0  3  0  0  0  0  0  0
  159.2970  214.4430  148.1880 C   0  0  0  0  0  3  0  0  0  0  0  0
  158.8070  213.9590  149.3370 C   0  0  0  0  0  0  0  0  0  0  0  0
  156.1140  214.3850  146.0580 C   0  0  0  0  0  2  0  0  0  0  0  0
  156.6990  214.3300  144.6500 C   0  0  0  0  0  2  0  0  0  0  0  0
  158.0880  214.4460  144.6940 O   0  0  0  0  0  0  0  0  0  0  0  0
  158.5530  213.2630  144.1200 C   0  0  0  0  0  2  0  0  0  0  0  0
  161.3240  212.1100  140.0860 C   0  0  0  0  0  2  0  0  0  0  0  0
  163.0820  214.2750  141.0320 C   0  0  0  0  0  2  0  0  0  0  0  0
  162.3230  212.7440  139.1190 C   0  0  0  0  0  2  0  0  0  0  0  0
  160.9650  213.0390  141.1620 N   0  0  0  0  0  0  0  0  0  0  0  0
  163.5030  213.3350  139.8900 C   0  0  0  0  0  2  0  0  0  0  0  0
  159.3610  211.5640  142.0100 O   0  0  0  0  0  0  0  0  0  0  0  0
  159.9530  212.6750  142.1120 C   0  0  0  0  0  0  0  0  0  0  0  0
  161.5680  214.3710  141.2150 C   0  0  0  0  0  2  0  0  0  0  0  0
  159.6210  213.5620  143.1830 N   0  0  0  0  0  2  0  0  0  0  0  0
  160.9650  213.3680  150.4260 C   0  0  0  0  0  2  0  0  0  0  0  0
  161.3530  213.2720  148.0200 O   0  0  0  0  0  0  0  0  0  0  0  0
  164.6730  212.0140  148.7540 C   0  0  0  0  0  1  0  0  0  0  0  0
  163.4470  212.0390  147.8430 C   0  0  2  0  0  3  0  0  0  0  0  0
  162.7590  213.4020  148.0090 C   0  0  0  0  0  2  0  0  0  0  0  0
  161.7580  211.2270  149.3450 C   0  0  0  0  0  2  0  0  0  0  0  0
  162.4920  210.9440  148.1150 N   0  0  0  0  0  0  0  0  0  0  0  0
  160.9530  212.5220  149.1610 C   0  0  1  0  0  3  0  0  0  0  0  0
  163.1660  209.6580  148.2540 C   0  0  0  0  0  2  0  0  0  0  0  0
  160.8040  208.5440  148.1840 O   0  0  0  0  0  0  0  0  0  0  0  0
  162.1580  208.3620  147.5110 S   0  0  2  0  0  0  0  0  0  0  0  0
  162.8130  206.8570  148.2580 C   0  0  0  0  0  2  0  0  0  0  0  0
  161.9000  204.4900  148.0520 C   0  0  2  0  0  3  0  0  0  0  0  0
  162.5930  205.6590  147.3450 C   0  0  1  0  0  3  0  0  0  0  0  0
  161.9970  206.1030  145.9960 C   0  0  1  0  0  3  0  0  0  0  0  0
  160.7670  203.7850  145.9440 C   0  0  2  0  0  3  0  0  0  0  0  0
  160.6830  202.7730  144.9900 O   0  0  0  0  0  1  0  0  0  0  0  0
  161.1530  205.1040  145.2590 C   0  0  1  0  0  3  0  0  0  0  0  0
  160.5910  206.1580  146.0170 O   0  0  0  0  0  0  0  0  0  0  0  0
  161.7180  203.3590  147.0540 C   0  0  0  0  0  2  0  0  0  0  0  0
  160.6700  204.8820  148.5960 O   0  0  0  0  0  0  0  0  0  0  0  0
  161.0980  202.8390  149.7280 C   0  0  0  0  0  1  0  0  0  0  0  0
  160.0690  203.6980  149.0270 C   0  0  0  0  0  2  0  0  0  0  0  0
  158.8880  213.4310  151.7980 C   0  0  0  0  0  2  0  0  0  0  0  0
  159.8370  213.2770  152.9750 C   0  0  0  0  0  2  0  0  0  0  0  0
  156.8670  212.0220  155.1590 C   0  0  0  0  0  0  0  0  0  0  0  0
  157.4620  211.0370  155.8410 C   0  0  0  0  0  3  0  0  0  0  0  0
  158.9620  210.9750  155.9640 C   0  0  2  0  0  3  0  0  0  0  0  0
  159.6540  211.6720  154.8530 C   0  0  0  0  0  0  0  0  0  0  0  0
  157.1480  213.9700  153.8110 O   0  0  0  0  0  0  0  0  0  0  0  0
  161.8010  211.2510  153.8740 O   0  0  0  0  0  0  0  0  0  0  0  0
  160.7350  209.6610  155.3980 C   0  0  1  0  0  3  0  0  0  0  0  0
  157.6830  212.9690  154.3580 C   0  0  0  0  0  0  0  0  0  0  0  0
  160.8360  210.9160  154.6120 C   0  0  0  0  0  0  0  0  0  0  0  0
  159.1130  212.6650  154.1330 C   0  0  0  0  0  0  0  0  0  0  0  0
  155.3800  212.0930  155.1320 C   0  0  0  0  0  1  0  0  0  0  0  0
  159.4490  209.6450  156.0070 O   0  0  0  0  0  0  0  0  0  0  0  0
  160.9660  207.2170  152.6520 C   0  0  0  0  0  0  0  0  0  0  0  0
  160.8940  208.4480  154.5320 C   0  0  0  0  0  0  0  0  0  0  0  0
  160.9600  206.9880  151.1780 C   0  0  0  0  0  1  0  0  0  0  0  0
  161.1030  206.1980  153.5900 C   0  0  0  0  0  0  0  0  0  0  0  0
  161.0680  206.8830  155.1260 S   0  0  0  0  0  0  0  0  0  0  0  0
  161.2560  204.7450  153.3060 C   0  0  0  0  0  1  0  0  0  0  0  0
  160.8430  208.4640  153.1780 N   0  0  0  0  0  0  0  0  0  0  0  0
  1 22  1  6  0  0  0
  1 45  1  0  0  0  0
  2  4  1  0  0  0  0
  3  6  1  0  0  0  0
  5  3  1  0  0  0  0
  5  7  1  0  0  0  0
  6  2  2  0  0  0  0
  7  8  2  0  0  0  0
  8  2  1  0  0  0  0
  8  1  1  0  0  0  0
  9  3  1  0  0  0  0
 10 11  1  0  0  0  0
 10  9  1  0  0  0  0
 12 11  1  0  0  0  0
 13 16  1  0  0  0  0
 14 20  1  0  0  0  0
 15 17  1  0  0  0  0
 15 13  1  0  0  0  0
 16 20  1  0  0  0  0
 16 19  1  0  0  0  0
 17 14  1  0  0  0  0
 18 19  2  0  0  0  0
 19 21  1  0  0  0  0
 21 12  1  0  0  0  0
 23 29  1  0  0  0  0
 25 26  1  0  0  0  0
 25 28  1  0  0  0  0
 25 24  1  1  0  0  0
 26 23  1  0  0  0  0
 28 30  1  0  0  0  0
 28 27  1  0  0  0  0
 29 27  1  0  0  0  0
 29 22  1  1  0  0  0
 32 31  2  1  0  0  0
 32 30  1  0  0  0  0
 32 33  1  0  0  0  0
 34 42  1  6  0  0  0
 35 34  1  0  0  0  0
 35 33  1  1  0  0  0
 36 40  1  1  0  0  0
 36 35  1  0  0  0  0
 37 38  1  6  0  0  0
 37 41  1  0  0  0  0
 39 37  1  0  0  0  0
 39 36  1  0  0  0  0
 39 40  1  1  0  0  0
 41 34  1  0  0  0  0
 42 44  1  0  0  0  0
 44 43  1  0  0  0  0
 45 46  1  0  0  0  0
 46 56  1  0  0  0  0
 47 48  2  0  0  0  0
 49 48  1  6  0  0  0
 49 58  1  0  0  0  0
 50 49  1  0  0  0  0
 51 54  2  0  0  0  0
 52 55  2  0  0  0  0
 53 60  1  6  0  0  0
 53 58  1  0  0  0  0
 54 47  1  0  0  0  0
 55 50  1  0  0  0  0
 55 53  1  0  0  0  0
 56 54  1  0  0  0  0
 56 50  2  0  0  0  0
 57 47  1  0  0  0  0
 59 65  1  0  0  0  0
 59 62  2  0  0  0  0
 60 63  1  0  0  0  0
 61 59  1  0  0  0  0
 62 63  1  0  0  0  0
 64 62  1  0  0  0  0
 65 60  2  0  0  0  0
M  END
>  <MODEL>
5

>  <REMARK>
 VINA RESULT:       0.2      2.713      8.941
  Name = 
  18 active torsions:
  status: ('A' for Active; 'I' for Inactive)
    1  A    between atoms: C_1  and  O_34
    2  A    between atoms: C_2  and  S_30
    3  A    between atoms: C_2  and  N_46
    4  A    between atoms: C_3  and  C_41
    5  A    between atoms: C_3  and  O_47
    6  A    between atoms: C_10  and  C_40
    7  A    between atoms: C_13  and  C_28
    8  A    between atoms: C_13  and  C_59
    9  A    between atoms: N_15  and  C_41
   10  A    between atoms: C_20  and  C_52
   11  A    between atoms: C_25  and  O_47
   12  A    between atoms: C_25  and  N_63
   13  A    between atoms: C_28  and  C_32
   14  A    between atoms: C_28  and  C_65
   15  A    between atoms: S_30  and  C_52
   16  A    between atoms: C_32  and  C_62
   17  A    between atoms: O_34  and  C_36
   18  A    between atoms: C_56  and  C_59
                            x       y       z     vdW  Elec       q    Type
                         _______ _______ _______ _____ _____    ______ ____

>  <TORSDO>
F 18

$$$$
=
 OpenBabel11042420423D

 65 72  0  0  1  0  0  0  0  0999 V2000
  162.1300  210.6150  149.0390 C   0  0  2  0  0  3  0  0  0  0  0  0
  160.8870  211.0540  151.2490 C   0  0  0  0  0  0  0  0  0  0  0  0
  161.9200  210.4410  153.3330 N   0  0  0  0  0  0  0  0  0  0  0  0
  159.7880  211.5210  150.5370 O   0  0  0  0  0  1  0  0  0  0  0  0
  163.2640  210.4540  152.7400 C   0  0  0  0  0  2  0  0  0  0  0  0
  160.8000  210.9130  152.5730 C   0  0  0  0  0  3  0  0  0  0  0  0
  163.2140  210.3280  151.2420 C   0  0  0  0  0  3  0  0  0  0  0  0
  162.1280  210.6810  150.5420 C   0  0  0  0  0  0  0  0  0  0  0  0
  161.6930  210.1630  154.7530 C   0  0  0  0  0  2  0  0  0  0  0  0
  160.2290  210.2590  155.1690 C   0  0  0  0  0  2  0  0  0  0  0  0
  160.1050  210.1190  156.5520 O   0  0  0  0  0  0  0  0  0  0  0  0
  159.6450  211.3630  156.9850 C   0  0  0  0  0  2  0  0  0  0  0  0
  157.6130  214.3510  153.4890 C   0  0  0  0  0  2  0  0  0  0  0  0
  155.0600  213.2110  154.4100 C   0  0  0  0  0  2  0  0  0  0  0  0
  156.3790  214.4530  152.5950 C   0  0  0  0  0  2  0  0  0  0  0  0
  157.5150  213.2090  154.4030 N   0  0  0  0  0  0  0  0  0  0  0  0
  155.1070  214.4050  153.4410 C   0  0  0  0  0  2  0  0  0  0  0  0
  159.6870  213.5490  155.1940 O   0  0  0  0  0  0  0  0  0  0  0  0
  158.6230  212.8730  155.2490 C   0  0  0  0  0  0  0  0  0  0  0  0
  156.3250  212.3560  154.3860 C   0  0  0  0  0  2  0  0  0  0  0  0
  158.5210  211.7800  156.1650 N   0  0  0  0  0  2  0  0  0  0  0  0
  160.8200  211.1390  148.4750 C   0  0  0  0  0  2  0  0  0  0  0  0
  162.3010  213.0690  148.3130 O   0  0  0  0  0  0  0  0  0  0  0  0
  162.7340  212.2570  144.8060 C   0  0  0  0  0  1  0  0  0  0  0  0
  162.6450  213.3070  145.9130 C   0  0  2  0  0  3  0  0  0  0  0  0
  163.1010  212.6530  147.2260 C   0  0  0  0  0  2  0  0  0  0  0  0
  160.4190  212.9130  146.7220 C   0  0  0  0  0  2  0  0  0  0  0  0
  161.2920  213.8820  146.0670 N   0  0  0  0  0  0  0  0  0  0  0  0
  160.9680  212.6130  148.1250 C   0  0  1  0  0  3  0  0  0  0  0  0
  160.7080  214.2480  144.7820 C   0  0  0  0  0  2  0  0  0  0  0  0
  158.9420  212.4480  145.4650 O   0  0  0  0  0  0  0  0  0  0  0  0
  158.9630  213.7970  144.7580 S   0  0  2  0  0  0  0  0  0  0  0  0
  158.6740  213.3820  143.0260 C   0  0  0  0  0  2  0  0  0  0  0  0
  160.7950  212.4220  141.9970 C   0  0  2  0  0  3  0  0  0  0  0  0
  159.9140  213.6600  142.1880 C   0  0  1  0  0  3  0  0  0  0  0  0
  159.5490  214.4530  140.9190 C   0  0  1  0  0  3  0  0  0  0  0  0
  161.5320  213.1990  139.7450 C   0  0  2  0  0  3  0  0  0  0  0  0
  162.6280  213.6350  139.0020 O   0  0  0  0  0  1  0  0  0  0  0  0
  160.4380  214.2750  139.7230 C   0  0  1  0  0  3  0  0  0  0  0  0
  159.1920  213.6180  139.8450 O   0  0  0  0  0  0  0  0  0  0  0  0
  161.9910  212.8040  141.1410 C   0  0  0  0  0  2  0  0  0  0  0  0
  160.0750  211.3720  141.4120 O   0  0  0  0  0  0  0  0  0  0  0  0
  160.3640  209.4930  139.9880 C   0  0  0  0  0  1  0  0  0  0  0  0
  161.0420  210.5410  140.8430 C   0  0  0  0  0  2  0  0  0  0  0  0
  162.3980  209.2120  148.5150 C   0  0  0  0  0  2  0  0  0  0  0  0
  161.1510  208.3520  148.6360 C   0  0  0  0  0  2  0  0  0  0  0  0
  160.9180  205.5630  151.3440 C   0  0  0  0  0  0  0  0  0  0  0  0
  161.3920  204.5150  150.6600 C   0  0  0  0  0  3  0  0  0  0  0  0
  162.2190  204.7120  149.4160 C   0  0  2  0  0  3  0  0  0  0  0  0
  161.9480  206.0100  148.7510 C   0  0  0  0  0  0  0  0  0  0  0  0
  160.7110  207.9360  151.4720 O   0  0  0  0  0  0  0  0  0  0  0  0
  162.1020  206.6130  146.4360 O   0  0  0  0  0  0  0  0  0  0  0  0
  162.1840  204.2820  147.1780 C   0  0  1  0  0  3  0  0  0  0  0  0
  161.0440  206.9330  150.7860 C   0  0  0  0  0  0  0  0  0  0  0  0
  162.0760  205.7520  147.3570 C   0  0  0  0  0  0  0  0  0  0  0  0
  161.4730  207.0950  149.3800 C   0  0  0  0  0  0  0  0  0  0  0  0
  160.1770  205.3270  152.6130 C   0  0  0  0  0  1  0  0  0  0  0  0
  162.0120  203.6870  148.4590 O   0  0  0  0  0  0  0  0  0  0  0  0
  159.9430  202.2510  145.0770 C   0  0  0  0  0  0  0  0  0  0  0  0
  161.1420  203.7580  146.2380 C   0  0  0  0  0  0  0  0  0  0  0  0
  159.4980  200.8830  144.6820 C   0  0  0  0  0  1  0  0  0  0  0  0
  159.4160  203.4200  144.5350 C   0  0  0  0  0  0  0  0  0  0  0  0
  160.1820  204.7320  145.2570 S   0  0  0  0  0  0  0  0  0  0  0  0
  158.3550  203.5160  143.4950 C   0  0  0  0  0  1  0  0  0  0  0  0
  160.9060  202.4420  146.0160 N   0  0  0  0  0  0  0  0  0  0  0  0
  1 22  1  1  0  0  0
  1  8  1  0  0  0  0
  2  6  2  0  0  0  0
  3  9  1  0  0  0  0
  4  2  1  0  0  0  0
  5  3  1  0  0  0  0
  6  3  1  0  0  0  0
  7  5  1  0  0  0  0
  8  7  2  0  0  0  0
  8  2  1  0  0  0  0
  9 10  1  0  0  0  0
 10 11  1  0  0  0  0
 11 12  1  0  0  0  0
 13 16  1  0  0  0  0
 15 17  1  0  0  0  0
 15 13  1  0  0  0  0
 16 19  1  0  0  0  0
 17 14  1  0  0  0  0
 18 19  2  0  0  0  0
 19 21  1  0  0  0  0
 20 16  1  0  0  0  0
 20 14  1  0  0  0  0
 21 12  1  0  0  0  0
 25 24  1  6  0  0  0
 25 28  1  0  0  0  0
 25 26  1  0  0  0  0
 26 23  1  0  0  0  0
 27 29  1  0  0  0  0
 28 27  1  0  0  0  0
 29 23  1  0  0  0  0
 29 22  1  6  0  0  0
 30 28  1  0  0  0  0
 32 30  1  0  0  0  0
 32 31  2  1  0  0  0
 33 32  1  0  0  0  0
 34 42  1  6  0  0  0
 34 35  1  0  0  0  0
 35 33  1  6  0  0  0
 36 40  1  6  0  0  0
 36 35  1  0  0  0  0
 37 38  1  6  0  0  0
 37 41  1  0  0  0  0
 39 37  1  0  0  0  0
 39 40  1  6  0  0  0
 39 36  1  0  0  0  0
 41 34  1  0  0  0  0
 43 44  1  0  0  0  0
 44 42  1  0  0  0  0
 45 46  1  0  0  0  0
 45  1  1  0  0  0  0
 46 56  1  0  0  0  0
 47 57  1  0  0  0  0
 48 47  2  0  0  0  0
 49 48  1  1  0  0  0
 50 56  2  0  0  0  0
 50 49  1  0  0  0  0
 52 55  2  0  0  0  0
 53 60  1  6  0  0  0
 53 55  1  0  0  0  0
 53 58  1  0  0  0  0
 54 47  1  0  0  0  0
 54 51  2  0  0  0  0
 55 50  1  0  0  0  0
 56 54  1  0  0  0  0
 58 49  1  0  0  0  0
 59 65  1  0  0  0  0
 61 59  1  0  0  0  0
 62 59  2  0  0  0  0
 62 63  1  0  0  0  0
 63 60  1  0  0  0  0
 64 62  1  0  0  0  0
 65 60  2  0  0  0  0
M  END
>  <MODEL>
6

>  <REMARK>
 VINA RESULT:       1.1      2.524      7.770
  Name = 
  18 active torsions:
  status: ('A' for Active; 'I' for Inactive)
    1  A    between atoms: C_1  and  O_34
    2  A    between atoms: C_2  and  S_30
    3  A    between atoms: C_2  and  N_46
    4  A    between atoms: C_3  and  C_41
    5  A    between atoms: C_3  and  O_47
    6  A    between atoms: C_10  and  C_40
    7  A    between atoms: C_13  and  C_28
    8  A    between atoms: C_13  and  C_59
    9  A    between atoms: N_15  and  C_41
   10  A    between atoms: C_20  and  C_52
   11  A    between atoms: C_25  and  O_47
   12  A    between atoms: C_25  and  N_63
   13  A    between atoms: C_28  and  C_32
   14  A    between atoms: C_28  and  C_65
   15  A    between atoms: S_30  and  C_52
   16  A    between atoms: C_32  and  C_62
   17  A    between atoms: O_34  and  C_36
   18  A    between atoms: C_56  and  C_59
                            x       y       z     vdW  Elec       q    Type
                         _______ _______ _______ _____ _____    ______ ____

>  <TORSDO>
F 18

$$$$
