=
 OpenBabel11042420163D

 25 26  0  0  1  0  0  0  0  0999 V2000
  160.9470  204.7010  149.5190 C   0  0  0  0  0  3  0  0  0  0  0  0
  161.0040  203.2890  151.9360 C   0  0  0  0  0  3  0  0  0  0  0  0
  160.8130  203.3090  149.5180 C   0  0  0  0  0  0  0  0  0  0  0  0
  161.2410  207.5860  149.4590 C   0  0  0  0  0  1  0  0  0  0  0  0
  161.4670  206.7370  153.1650 C   0  0  0  0  0  3  0  0  0  0  0  0
  161.4420  207.4680  151.9730 C   0  0  0  0  0  0  0  0  0  0  0  0
  161.1490  204.6780  151.9410 C   0  0  0  0  0  0  0  0  0  0  0  0
  161.2670  206.8050  150.7400 C   0  0  0  0  0  0  0  0  0  0  0  0
  161.3210  205.3510  153.1500 C   0  0  0  0  0  3  0  0  0  0  0  0
  161.1190  205.4010  150.7230 C   0  0  0  0  0  0  0  0  0  0  0  0
  160.8350  202.6060  150.7290 C   0  0  0  0  0  3  0  0  0  0  0  0
  161.7230  210.0480  152.1030 N   0  0  0  0  0  0  0  0  0  0  0  0
  161.5980  208.8990  152.0450 C   0  0  0  0  0  0  0  0  0  0  0  0
  160.6340  202.5940  148.2170 C   0  0  2  0  0  3  0  0  0  0  0  0
  160.5640  201.1590  148.4500 N   0  0  0  0  0  2  0  0  0  0  0  0
  161.7630  200.5670  147.8820 C   0  0  0  0  0  2  0  0  0  0  0  0
  161.3900  199.6650  146.7230 C   0  0  0  0  0  1  0  0  0  0  0  0
  161.7070  202.8860  147.3250 O   0  0  0  0  0  0  0  0  0  0  0  0
  160.7320  202.7870  145.2540 O   0  0  0  0  0  0  0  0  0  0  0  0
  161.5140  203.3910  146.0360 C   0  0  0  0  0  0  0  0  0  0  0  0
  162.6970  205.3540  146.6660 O   0  0  0  0  0  1  0  0  0  0  0  0
  162.2130  204.6360  145.5720 C   0  0  2  0  0  3  0  0  0  0  0  0
  161.4700  205.5640  143.5050 O   0  0  0  0  0  0  0  0  0  0  0  0
  161.3040  205.4920  144.7500 C   0  0  0  0  0  0  0  0  0  0  0  0
  160.2460  206.2230  145.3640 N   0  0  0  0  0  1  0  0  0  0  0  0
  1 10  1  0  0  0  0
  2  7  1  0  0  0  0
  3  1  2  0  0  0  0
  3 11  1  0  0  0  0
  4  8  1  0  0  0  0
  6 13  1  0  0  0  0
  6  5  2  0  0  0  0
  7  9  2  0  0  0  0
  8  6  1  0  0  0  0
  9  5  1  0  0  0  0
 10  8  2  0  0  0  0
 10  7  1  0  0  0  0
 11  2  2  0  0  0  0
 13 12  3  0  0  0  0
 14 18  1  6  0  0  0
 14 15  1  0  0  0  0
 14  3  1  0  0  0  0
 16 15  1  0  0  0  0
 17 16  1  0  0  0  0
 19 20  2  0  0  0  0
 20 18  1  0  0  0  0
 22 20  1  0  0  0  0
 22 21  1  1  0  0  0
 23 24  2  0  0  0  0
 24 25  1  0  0  0  0
 24 22  1  0  0  0  0
M  END
>  <MODEL>
1

>  <REMARK>
 VINA RESULT:      -8.8      0.000      0.000
  Name = 
  8 active torsions:
  status: ('A' for Active; 'I' for Inactive)
    1  A    between atoms: C_3  and  C_5
    2  A    between atoms: N_4  and  C_5
    3  A    between atoms: N_4  and  C_15
    4  A    between atoms: C_5  and  O_10
    5  A    between atoms: O_10  and  C_19
    6  A    between atoms: C_11  and  C_12
    7  A    between atoms: C_11  and  C_19
    8  A    between atoms: C_16  and  C_22
                            x       y       z     vdW  Elec       q    Type
                         _______ _______ _______ _____ _____    ______ ____

>  <TORSDO>
F 8

$$$$
=
 OpenBabel11042420163D

 25 26  0  0  1  0  0  0  0  0999 V2000
  161.2440  205.2130  150.1740 C   0  0  0  0  0  3  0  0  0  0  0  0
  160.9410  203.1990  152.0950 C   0  0  0  0  0  3  0  0  0  0  0  0
  161.2580  205.5370  151.5340 C   0  0  0  0  0  0  0  0  0  0  0  0
  161.2030  204.6000  147.3390 C   0  0  0  0  0  1  0  0  0  0  0  0
  160.7150  201.2070  148.9970 C   0  0  0  0  0  3  0  0  0  0  0  0
  160.8640  202.1920  148.0160 C   0  0  0  0  0  0  0  0  0  0  0  0
  160.9170  202.8710  150.7380 C   0  0  0  0  0  0  0  0  0  0  0  0
  161.0440  203.5410  148.3890 C   0  0  0  0  0  0  0  0  0  0  0  0
  160.7420  201.5440  150.3500 C   0  0  0  0  0  3  0  0  0  0  0  0
  161.0710  203.8830  149.7580 C   0  0  0  0  0  0  0  0  0  0  0  0
  161.1130  204.5270  152.4930 C   0  0  0  0  0  3  0  0  0  0  0  0
  160.7990  201.4660  145.5220 N   0  0  0  0  0  0  0  0  0  0  0  0
  160.8280  201.7900  146.6330 C   0  0  0  0  0  0  0  0  0  0  0  0
  161.4410  206.9640  151.9420 C   0  0  2  0  0  3  0  0  0  0  0  0
  162.5280  207.5580  151.1790 N   0  0  0  0  0  2  0  0  0  0  0  0
  162.0130  208.7630  150.5520 C   0  0  0  0  0  2  0  0  0  0  0  0
  161.9950  208.5910  149.0460 C   0  0  0  0  0  1  0  0  0  0  0  0
  161.7200  207.0620  153.3370 O   0  0  0  0  0  0  0  0  0  0  0  0
  160.6110  209.0310  153.7130 O   0  0  0  0  0  0  0  0  0  0  0  0
  161.0610  207.9550  154.1880 C   0  0  0  0  0  0  0  0  0  0  0  0
  159.5790  207.2000  155.8860 O   0  0  0  0  0  1  0  0  0  0  0  0
  160.8770  207.6520  155.6460 C   0  0  2  0  0  3  0  0  0  0  0  0
  162.3620  209.2420  156.6220 O   0  0  0  0  0  0  0  0  0  0  0  0
  161.1740  208.8500  156.4900 C   0  0  0  0  0  0  0  0  0  0  0  0
  160.1220  209.5560  157.1400 N   0  0  0  0  0  1  0  0  0  0  0  0
  1  3  1  0  0  0  0
  2 11  1  0  0  0  0
  3 14  1  0  0  0  0
  3 11  2  0  0  0  0
  4  8  1  0  0  0  0
  5  9  2  0  0  0  0
  6  8  2  0  0  0  0
  6  5  1  0  0  0  0
  7  2  2  0  0  0  0
  8 10  1  0  0  0  0
  9  7  1  0  0  0  0
 10  1  2  0  0  0  0
 10  7  1  0  0  0  0
 12 13  3  0  0  0  0
 13  6  1  0  0  0  0
 14 15  1  6  0  0  0
 14 18  1  0  0  0  0
 16 15  1  0  0  0  0
 17 16  1  0  0  0  0
 18 20  1  0  0  0  0
 19 20  2  0  0  0  0
 20 22  1  0  0  0  0
 22 21  1  6  0  0  0
 22 24  1  0  0  0  0
 24 23  2  0  0  0  0
 24 25  1  0  0  0  0
M  END
>  <MODEL>
2

>  <REMARK>
 VINA RESULT:      -8.7      4.074      7.902
  Name = 
  8 active torsions:
  status: ('A' for Active; 'I' for Inactive)
    1  A    between atoms: C_3  and  C_5
    2  A    between atoms: N_4  and  C_5
    3  A    between atoms: N_4  and  C_15
    4  A    between atoms: C_5  and  O_10
    5  A    between atoms: O_10  and  C_19
    6  A    between atoms: C_11  and  C_12
    7  A    between atoms: C_11  and  C_19
    8  A    between atoms: C_16  and  C_22
                            x       y       z     vdW  Elec       q    Type
                         _______ _______ _______ _____ _____    ______ ____

>  <TORSDO>
F 8

$$$$
=
 OpenBabel11042420163D

 25 26  0  0  1  0  0  0  0  0999 V2000
  161.0360  205.2410  150.6390 C   0  0  0  0  0  3  0  0  0  0  0  0
  161.1770  207.6240  149.1760 C   0  0  0  0  0  3  0  0  0  0  0  0
  161.0040  205.2060  149.2420 C   0  0  0  0  0  0  0  0  0  0  0  0
  161.0790  205.2560  153.5400 C   0  0  0  0  0  1  0  0  0  0  0  0
  161.3150  208.9440  152.6200 C   0  0  0  0  0  3  0  0  0  0  0  0
  161.2460  207.7700  153.3750 C   0  0  0  0  0  0  0  0  0  0  0  0
  161.2000  207.6650  150.5720 C   0  0  0  0  0  0  0  0  0  0  0  0
  161.1550  206.5180  152.7320 C   0  0  0  0  0  0  0  0  0  0  0  0
  161.2920  208.8930  151.2260 C   0  0  0  0  0  3  0  0  0  0  0  0
  161.1310  206.4650  151.3210 C   0  0  0  0  0  0  0  0  0  0  0  0
  161.0820  206.4000  148.5120 C   0  0  0  0  0  3  0  0  0  0  0  0
  161.2930  207.9660  155.9660 N   0  0  0  0  0  0  0  0  0  0  0  0
  161.2730  207.8790  154.8120 C   0  0  0  0  0  0  0  0  0  0  0  0
  160.8990  203.8860  148.5470 C   0  0  2  0  0  3  0  0  0  0  0  0
  160.9780  202.8100  149.5230 N   0  0  0  0  0  2  0  0  0  0  0  0
  160.2880  201.6610  148.9600 C   0  0  0  0  0  2  0  0  0  0  0  0
  161.2990  200.6260  148.5090 C   0  0  0  0  0  1  0  0  0  0  0  0
  161.9360  203.7370  147.5800 O   0  0  0  0  0  0  0  0  0  0  0  0
  160.9430  202.7850  145.7480 O   0  0  0  0  0  0  0  0  0  0  0  0
  161.6970  203.6860  146.2030 C   0  0  0  0  0  0  0  0  0  0  0  0
  163.1480  205.5530  145.9670 O   0  0  0  0  0  1  0  0  0  0  0  0
  162.3130  204.6830  145.2660 C   0  0  2  0  0  3  0  0  0  0  0  0
  161.3310  205.5550  143.2760 O   0  0  0  0  0  0  0  0  0  0  0  0
  161.2640  205.4510  144.5280 C   0  0  0  0  0  0  0  0  0  0  0  0
  160.1850  206.0620  145.2300 N   0  0  0  0  0  1  0  0  0  0  0  0
  1 10  1  0  0  0  0
  2  7  1  0  0  0  0
  3  1  2  0  0  0  0
  5  6  1  0  0  0  0
  6 13  1  0  0  0  0
  7  9  1  0  0  0  0
  7 10  2  0  0  0  0
  8  6  2  0  0  0  0
  8  4  1  0  0  0  0
  9  5  2  0  0  0  0
 10  8  1  0  0  0  0
 11  2  2  0  0  0  0
 11  3  1  0  0  0  0
 13 12  3  0  0  0  0
 14 18  1  6  0  0  0
 14  3  1  0  0  0  0
 14 15  1  0  0  0  0
 16 15  1  0  0  0  0
 17 16  1  0  0  0  0
 19 20  2  0  0  0  0
 20 18  1  0  0  0  0
 22 21  1  1  0  0  0
 22 20  1  0  0  0  0
 23 24  2  0  0  0  0
 24 25  1  0  0  0  0
 24 22  1  0  0  0  0
M  END
>  <MODEL>
3

>  <REMARK>
 VINA RESULT:      -8.5      1.394      2.515
  Name = 
  8 active torsions:
  status: ('A' for Active; 'I' for Inactive)
    1  A    between atoms: C_3  and  C_5
    2  A    between atoms: N_4  and  C_5
    3  A    between atoms: N_4  and  C_15
    4  A    between atoms: C_5  and  O_10
    5  A    between atoms: O_10  and  C_19
    6  A    between atoms: C_11  and  C_12
    7  A    between atoms: C_11  and  C_19
    8  A    between atoms: C_16  and  C_22
                            x       y       z     vdW  Elec       q    Type
                         _______ _______ _______ _____ _____    ______ ____

>  <TORSDO>
F 8

$$$$
=
 OpenBabel11042420163D

 25 26  0  0  1  0  0  0  0  0999 V2000
  161.3210  206.2520  150.7820 C   0  0  0  0  0  3  0  0  0  0  0  0
  160.9780  203.6550  151.7720 C   0  0  0  0  0  3  0  0  0  0  0  0
  161.1920  206.0400  152.1580 C   0  0  0  0  0  0  0  0  0  0  0  0
  161.5750  206.7510  147.9360 C   0  0  0  0  0  1  0  0  0  0  0  0
  161.1610  202.9710  148.1500 C   0  0  0  0  0  3  0  0  0  0  0  0
  161.3330  204.2570  147.6280 C   0  0  0  0  0  0  0  0  0  0  0  0
  161.0970  203.8630  150.3960 C   0  0  0  0  0  0  0  0  0  0  0  0
  161.3910  205.3710  148.4930 C   0  0  0  0  0  0  0  0  0  0  0  0
  161.0440  202.7750  149.5260 C   0  0  0  0  0  3  0  0  0  0  0  0
  161.2730  205.1720  149.8850 C   0  0  0  0  0  0  0  0  0  0  0  0
  161.0270  204.7390  152.6510 C   0  0  0  0  0  3  0  0  0  0  0  0
  161.5400  204.5230  145.0510 N   0  0  0  0  0  0  0  0  0  0  0  0
  161.4480  204.4050  146.1990 C   0  0  0  0  0  0  0  0  0  0  0  0
  161.2440  207.2120  153.0850 C   0  0  2  0  0  3  0  0  0  0  0  0
  160.4750  206.9250  154.2850 N   0  0  0  0  0  2  0  0  0  0  0  0
  161.1610  207.5500  155.4030 C   0  0  0  0  0  2  0  0  0  0  0  0
  160.3050  207.4530  156.6500 C   0  0  0  0  0  1  0  0  0  0  0  0
  160.7320  208.3840  152.4530 O   0  0  0  0  0  0  0  0  0  0  0  0
  162.3880  209.6380  151.4860 O   0  0  0  0  0  0  0  0  0  0  0  0
  161.4620  209.5710  152.3370 C   0  0  0  0  0  0  0  0  0  0  0  0
  161.9170  210.7150  154.3710 O   0  0  0  0  0  1  0  0  0  0  0  0
  161.1580  210.7610  153.2000 C   0  0  2  0  0  3  0  0  0  0  0  0
  158.8720  211.1230  152.6280 O   0  0  0  0  0  0  0  0  0  0  0  0
  159.7010  210.8340  153.5280 C   0  0  0  0  0  0  0  0  0  0  0  0
  159.2440  210.5710  154.8520 N   0  0  0  0  0  1  0  0  0  0  0  0
  1  3  1  0  0  0  0
  2 11  1  0  0  0  0
  3 11  2  0  0  0  0
  3 14  1  0  0  0  0
  4  8  1  0  0  0  0
  5  9  2  0  0  0  0
  6  5  1  0  0  0  0
  6  8  2  0  0  0  0
  7  2  2  0  0  0  0
  8 10  1  0  0  0  0
  9  7  1  0  0  0  0
 10  7  1  0  0  0  0
 10  1  2  0  0  0  0
 12 13  3  0  0  0  0
 13  6  1  0  0  0  0
 14 18  1  6  0  0  0
 14 15  1  0  0  0  0
 15 16  1  0  0  0  0
 16 17  1  0  0  0  0
 19 20  2  0  0  0  0
 20 18  1  0  0  0  0
 20 22  1  0  0  0  0
 22 24  1  0  0  0  0
 22 21  1  1  0  0  0
 23 24  2  0  0  0  0
 24 25  1  0  0  0  0
M  END
>  <MODEL>
4

>  <REMARK>
 VINA RESULT:      -8.4      3.711      7.461
  Name = 
  8 active torsions:
  status: ('A' for Active; 'I' for Inactive)
    1  A    between atoms: C_3  and  C_5
    2  A    between atoms: N_4  and  C_5
    3  A    between atoms: N_4  and  C_15
    4  A    between atoms: C_5  and  O_10
    5  A    between atoms: O_10  and  C_19
    6  A    between atoms: C_11  and  C_12
    7  A    between atoms: C_11  and  C_19
    8  A    between atoms: C_16  and  C_22
                            x       y       z     vdW  Elec       q    Type
                         _______ _______ _______ _____ _____    ______ ____

>  <TORSDO>
F 8

$$$$
=
 OpenBabel11042420163D

 25 26  0  0  1  0  0  0  0  0999 V2000
  161.2440  205.4630  150.6070 C   0  0  0  0  0  3  0  0  0  0  0  0
  160.9600  203.0160  151.9370 C   0  0  0  0  0  3  0  0  0  0  0  0
  161.1810  205.4310  152.0030 C   0  0  0  0  0  0  0  0  0  0  0  0
  161.3590  205.5920  147.7110 C   0  0  0  0  0  1  0  0  0  0  0  0
  160.9730  201.8720  148.4290 C   0  0  0  0  0  3  0  0  0  0  0  0
  161.1140  203.0800  147.7380 C   0  0  0  0  0  0  0  0  0  0  0  0
  161.0130  203.0450  150.5420 C   0  0  0  0  0  0  0  0  0  0  0  0
  161.2090  204.2950  148.4490 C   0  0  0  0  0  0  0  0  0  0  0  0
  160.9230  201.8540  149.8220 C   0  0  0  0  0  3  0  0  0  0  0  0
  161.1580  204.2780  149.8600 C   0  0  0  0  0  0  0  0  0  0  0  0
  161.0460  204.2040  152.6660 C   0  0  0  0  0  3  0  0  0  0  0  0
  161.1980  203.0150  145.1420 N   0  0  0  0  0  0  0  0  0  0  0  0
  161.1600  203.0430  146.2980 C   0  0  0  0  0  0  0  0  0  0  0  0
  161.2720  206.7120  152.7680 C   0  0  2  0  0  3  0  0  0  0  0  0
  160.8430  206.4960  154.1410 N   0  0  0  0  0  2  0  0  0  0  0  0
  161.2170  207.6750  154.9050 C   0  0  0  0  0  2  0  0  0  0  0  0
  160.3560  207.7760  156.1480 C   0  0  0  0  0  1  0  0  0  0  0  0
  160.4680  207.7230  152.1650 O   0  0  0  0  0  0  0  0  0  0  0  0
  160.1850  209.9920  152.3060 O   0  0  0  0  0  0  0  0  0  0  0  0
  160.9160  209.0300  151.9510 C   0  0  0  0  0  0  0  0  0  0  0  0
  162.9640  210.2320  152.0720 O   0  0  0  0  0  1  0  0  0  0  0  0
  162.2480  209.3050  151.3140 C   0  0  2  0  0  3  0  0  0  0  0  0
  162.0250  211.0320  149.6850 O   0  0  0  0  0  0  0  0  0  0  0  0
  162.0860  209.7960  149.9120 C   0  0  0  0  0  0  0  0  0  0  0  0
  162.0070  208.8750  148.8270 N   0  0  0  0  0  1  0  0  0  0  0  0
  1  3  1  0  0  0  0
  2 11  1  0  0  0  0
  3 11  2  0  0  0  0
  3 14  1  0  0  0  0
  4  8  1  0  0  0  0
  5  9  2  0  0  0  0
  6  5  1  0  0  0  0
  6  8  2  0  0  0  0
  7  2  2  0  0  0  0
  8 10  1  0  0  0  0
  9  7  1  0  0  0  0
 10  7  1  0  0  0  0
 10  1  2  0  0  0  0
 12 13  3  0  0  0  0
 13  6  1  0  0  0  0
 14 18  1  6  0  0  0
 14 15  1  0  0  0  0
 15 16  1  0  0  0  0
 16 17  1  0  0  0  0
 20 18  1  0  0  0  0
 20 19  2  0  0  0  0
 22 20  1  0  0  0  0
 22 21  1  1  0  0  0
 23 24  2  0  0  0  0
 24 22  1  0  0  0  0
 25 24  1  0  0  0  0
M  END
>  <MODEL>
5

>  <REMARK>
 VINA RESULT:      -8.4      3.496      6.734
  Name = 
  8 active torsions:
  status: ('A' for Active; 'I' for Inactive)
    1  A    between atoms: C_3  and  C_5
    2  A    between atoms: N_4  and  C_5
    3  A    between atoms: N_4  and  C_15
    4  A    between atoms: C_5  and  O_10
    5  A    between atoms: O_10  and  C_19
    6  A    between atoms: C_11  and  C_12
    7  A    between atoms: C_11  and  C_19
    8  A    between atoms: C_16  and  C_22
                            x       y       z     vdW  Elec       q    Type
                         _______ _______ _______ _____ _____    ______ ____

>  <TORSDO>
F 8

$$$$
=
 OpenBabel11042420163D

 25 26  0  0  1  0  0  0  0  0999 V2000
  161.1670  206.3720  150.7550 C   0  0  0  0  0  3  0  0  0  0  0  0
  160.9510  203.9300  152.1080 C   0  0  0  0  0  3  0  0  0  0  0  0
  161.0520  206.3530  152.1480 C   0  0  0  0  0  0  0  0  0  0  0  0
  161.3890  206.4710  147.8640 C   0  0  0  0  0  1  0  0  0  0  0  0
  161.1550  202.7450  148.6190 C   0  0  0  0  0  3  0  0  0  0  0  0
  161.2650  203.9500  147.9180 C   0  0  0  0  0  0  0  0  0  0  0  0
  161.0560  203.9440  150.7150 C   0  0  0  0  0  0  0  0  0  0  0  0
  161.2730  205.1770  148.6140 C   0  0  0  0  0  0  0  0  0  0  0  0
  161.0520  202.7420  150.0100 C   0  0  0  0  0  3  0  0  0  0  0  0
  161.1680  205.1740  150.0220 C   0  0  0  0  0  0  0  0  0  0  0  0
  160.9500  205.1300  152.8230 C   0  0  0  0  0  3  0  0  0  0  0  0
  161.4510  203.8560  145.3270 N   0  0  0  0  0  0  0  0  0  0  0  0
  161.3690  203.8980  146.4810 C   0  0  0  0  0  0  0  0  0  0  0  0
  161.0510  207.6470  152.8980 C   0  0  2  0  0  3  0  0  0  0  0  0
  162.0500  208.5420  152.3340 N   0  0  0  0  0  2  0  0  0  0  0  0
  161.3530  209.7170  151.8410 C   0  0  0  0  0  2  0  0  0  0  0  0
  162.0380  210.2340  150.5910 C   0  0  0  0  0  1  0  0  0  0  0  0
  161.3220  207.4330  154.2820 O   0  0  0  0  0  0  0  0  0  0  0  0
  159.6400  207.0040  155.7780 O   0  0  0  0  0  0  0  0  0  0  0  0
  160.4550  207.8380  155.3020 C   0  0  0  0  0  0  0  0  0  0  0  0
  159.8150  210.1030  154.9710 O   0  0  0  0  0  1  0  0  0  0  0  0
  160.4830  209.2390  155.8390 C   0  0  2  0  0  3  0  0  0  0  0  0
  162.5740  209.2050  156.9850 O   0  0  0  0  0  0  0  0  0  0  0  0
  161.8860  209.7060  156.0590 C   0  0  0  0  0  0  0  0  0  0  0  0
  162.4530  210.7120  155.2240 N   0  0  0  0  0  1  0  0  0  0  0  0
  1  3  1  0  0  0  0
  2 11  1  0  0  0  0
  3 11  2  0  0  0  0
  3 14  1  0  0  0  0
  4  8  1  0  0  0  0
  5  9  2  0  0  0  0
  6  8  2  0  0  0  0
  6  5  1  0  0  0  0
  7  2  2  0  0  0  0
  8 10  1  0  0  0  0
  9  7  1  0  0  0  0
 10  7  1  0  0  0  0
 10  1  2  0  0  0  0
 12 13  3  0  0  0  0
 13  6  1  0  0  0  0
 14 15  1  6  0  0  0
 14 18  1  0  0  0  0
 16 15  1  0  0  0  0
 17 16  1  0  0  0  0
 18 20  1  0  0  0  0
 20 19  2  0  0  0  0
 20 22  1  0  0  0  0
 22 21  1  6  0  0  0
 22 24  1  0  0  0  0
 24 23  2  0  0  0  0
 25 24  1  0  0  0  0
M  END
>  <MODEL>
6

>  <REMARK>
 VINA RESULT:      -8.1      4.269      8.034
  Name = 
  8 active torsions:
  status: ('A' for Active; 'I' for Inactive)
    1  A    between atoms: C_3  and  C_5
    2  A    between atoms: N_4  and  C_5
    3  A    between atoms: N_4  and  C_15
    4  A    between atoms: C_5  and  O_10
    5  A    between atoms: O_10  and  C_19
    6  A    between atoms: C_11  and  C_12
    7  A    between atoms: C_11  and  C_19
    8  A    between atoms: C_16  and  C_22
                            x       y       z     vdW  Elec       q    Type
                         _______ _______ _______ _____ _____    ______ ____

>  <TORSDO>
F 8

$$$$
=
 OpenBabel11042420163D

 25 26  0  0  1  0  0  0  0  0999 V2000
  161.1080  206.1220  150.6180 C   0  0  0  0  0  3  0  0  0  0  0  0
  160.9860  204.3420  152.7750 C   0  0  0  0  0  3  0  0  0  0  0  0
  161.0500  204.7450  150.3840 C   0  0  0  0  0  0  0  0  0  0  0  0
  161.2510  208.9880  151.0440 C   0  0  0  0  0  1  0  0  0  0  0  0
  161.1310  207.5620  154.5730 C   0  0  0  0  0  3  0  0  0  0  0  0
  161.1920  208.4740  153.5150 C   0  0  0  0  0  0  0  0  0  0  0  0
  161.0550  205.7170  153.0130 C   0  0  0  0  0  0  0  0  0  0  0  0
  161.1840  208.0130  152.1810 C   0  0  0  0  0  0  0  0  0  0  0  0
  161.0620  206.1910  154.3240 C   0  0  0  0  0  3  0  0  0  0  0  0
  161.1150  206.6250  151.9290 C   0  0  0  0  0  0  0  0  0  0  0  0
  160.9820  203.8570  151.4660 C   0  0  0  0  0  3  0  0  0  0  0  0
  161.3190  211.0070  154.0770 N   0  0  0  0  0  0  0  0  0  0  0  0
  161.2630  209.8790  153.8260 C   0  0  0  0  0  0  0  0  0  0  0  0
  161.0480  204.2430  148.9760 C   0  0  2  0  0  3  0  0  0  0  0  0
  161.6940  202.9410  148.9180 N   0  0  0  0  0  2  0  0  0  0  0  0
  160.7900  202.0370  148.2260 C   0  0  0  0  0  2  0  0  0  0  0  0
  159.8130  201.4330  149.2130 C   0  0  0  0  0  1  0  0  0  0  0  0
  161.7220  205.1540  148.1100 O   0  0  0  0  0  0  0  0  0  0  0  0
  160.1210  206.6340  147.4060 O   0  0  0  0  0  0  0  0  0  0  0  0
  161.0730  205.8690  147.0990 C   0  0  0  0  0  0  0  0  0  0  0  0
  160.4370  206.0920  144.8190 O   0  0  0  0  0  1  0  0  0  0  0  0
  161.4930  205.7460  145.6630 C   0  0  2  0  0  3  0  0  0  0  0  0
  163.2030  204.1100  145.3660 O   0  0  0  0  0  0  0  0  0  0  0  0
  161.9710  204.3620  145.3560 C   0  0  0  0  0  0  0  0  0  0  0  0
  161.0400  203.3250  145.0600 N   0  0  0  0  0  1  0  0  0  0  0  0
  1 10  1  0  0  0  0
  2  7  1  0  0  0  0
  3  1  2  0  0  0  0
  3 11  1  0  0  0  0
  4  8  1  0  0  0  0
  6 13  1  0  0  0  0
  6  5  2  0  0  0  0
  7  9  2  0  0  0  0
  8  6  1  0  0  0  0
  9  5  1  0  0  0  0
 10  8  2  0  0  0  0
 10  7  1  0  0  0  0
 11  2  2  0  0  0  0
 13 12  3  0  0  0  0
 14 18  1  6  0  0  0
 14  3  1  0  0  0  0
 15 14  1  0  0  0  0
 16 15  1  0  0  0  0
 16 17  1  0  0  0  0
 20 19  2  0  0  0  0
 20 18  1  0  0  0  0
 22 21  1  6  0  0  0
 22 20  1  0  0  0  0
 24 23  2  0  0  0  0
 24 22  1  0  0  0  0
 25 24  1  0  0  0  0
M  END
>  <MODEL>
7

>  <REMARK>
 VINA RESULT:      -7.9      1.621      2.260
  Name = 
  8 active torsions:
  status: ('A' for Active; 'I' for Inactive)
    1  A    between atoms: C_3  and  C_5
    2  A    between atoms: N_4  and  C_5
    3  A    between atoms: N_4  and  C_15
    4  A    between atoms: C_5  and  O_10
    5  A    between atoms: O_10  and  C_19
    6  A    between atoms: C_11  and  C_12
    7  A    between atoms: C_11  and  C_19
    8  A    between atoms: C_16  and  C_22
                            x       y       z     vdW  Elec       q    Type
                         _______ _______ _______ _____ _____    ______ ____

>  <TORSDO>
F 8

$$$$
=
 OpenBabel11042420163D

 25 26  0  0  1  0  0  0  0  0999 V2000
  161.2090  205.7030  151.5260 C   0  0  0  0  0  3  0  0  0  0  0  0
  161.2100  207.3280  149.2460 C   0  0  0  0  0  3  0  0  0  0  0  0
  161.2210  207.0950  151.6600 C   0  0  0  0  0  0  0  0  0  0  0  0
  161.2060  202.8100  151.3070 C   0  0  0  0  0  1  0  0  0  0  0  0
  161.2060  203.9850  147.6840 C   0  0  0  0  0  3  0  0  0  0  0  0
  161.2060  203.1490  148.8050 C   0  0  0  0  0  0  0  0  0  0  0  0
  161.2080  205.9380  149.1070 C   0  0  0  0  0  0  0  0  0  0  0  0
  161.2050  203.7040  150.1020 C   0  0  0  0  0  0  0  0  0  0  0  0
  161.2070  205.3710  147.8330 C   0  0  0  0  0  3  0  0  0  0  0  0
  161.2060  205.1080  150.2540 C   0  0  0  0  0  0  0  0  0  0  0  0
  161.2140  207.9050  150.5180 C   0  0  0  0  0  3  0  0  0  0  0  0
  161.2050  200.5780  148.4260 N   0  0  0  0  0  0  0  0  0  0  0  0
  161.2060  201.7230  148.5950 C   0  0  0  0  0  0  0  0  0  0  0  0
  161.2280  207.6960  153.0290 C   0  0  2  0  0  3  0  0  0  0  0  0
  160.5550  206.8040  153.9610 N   0  0  0  0  0  2  0  0  0  0  0  0
  160.9400  207.2060  155.3040 C   0  0  0  0  0  2  0  0  0  0  0  0
  159.7050  207.3360  156.1740 C   0  0  0  0  0  1  0  0  0  0  0  0
  160.5840  208.9680  153.0290 O   0  0  0  0  0  0  0  0  0  0  0  0
  162.4090  210.3290  152.7770 O   0  0  0  0  0  0  0  0  0  0  0  0
  161.2600  210.1680  153.2680 C   0  0  0  0  0  0  0  0  0  0  0  0
  161.1590  211.2440  155.3850 O   0  0  0  0  0  1  0  0  0  0  0  0
  160.6430  211.2630  154.0880 C   0  0  2  0  0  3  0  0  0  0  0  0
  158.4810  211.4190  153.0940 O   0  0  0  0  0  0  0  0  0  0  0  0
  159.1540  211.1410  154.1200 C   0  0  0  0  0  0  0  0  0  0  0  0
  158.4880  210.7040  155.3030 N   0  0  0  0  0  1  0  0  0  0  0  0
  1  3  1  0  0  0  0
  2 11  1  0  0  0  0
  3 14  1  0  0  0  0
  5  9  2  0  0  0  0
  5  6  1  0  0  0  0
  6  8  2  0  0  0  0
  7  2  2  0  0  0  0
  7 10  1  0  0  0  0
  8 10  1  0  0  0  0
  8  4  1  0  0  0  0
  9  7  1  0  0  0  0
 10  1  2  0  0  0  0
 11  3  2  0  0  0  0
 12 13  3  0  0  0  0
 13  6  1  0  0  0  0
 14 18  1  6  0  0  0
 14 15  1  0  0  0  0
 15 16  1  0  0  0  0
 16 17  1  0  0  0  0
 18 20  1  0  0  0  0
 19 20  2  0  0  0  0
 20 22  1  0  0  0  0
 22 24  1  0  0  0  0
 22 21  1  1  0  0  0
 23 24  2  0  0  0  0
 24 25  1  0  0  0  0
M  END
>  <MODEL>
8

>  <REMARK>
 VINA RESULT:      -7.8      4.148      8.113
  Name = 
  8 active torsions:
  status: ('A' for Active; 'I' for Inactive)
    1  A    between atoms: C_3  and  C_5
    2  A    between atoms: N_4  and  C_5
    3  A    between atoms: N_4  and  C_15
    4  A    between atoms: C_5  and  O_10
    5  A    between atoms: O_10  and  C_19
    6  A    between atoms: C_11  and  C_12
    7  A    between atoms: C_11  and  C_19
    8  A    between atoms: C_16  and  C_22
                            x       y       z     vdW  Elec       q    Type
                         _______ _______ _______ _____ _____    ______ ____

>  <TORSDO>
F 8

$$$$
=
 OpenBabel11042420163D

 25 26  0  0  1  0  0  0  0  0999 V2000
  161.0940  207.0820  151.1130 C   0  0  0  0  0  3  0  0  0  0  0  0
  161.2060  205.0620  153.0480 C   0  0  0  0  0  3  0  0  0  0  0  0
  161.1840  205.7430  150.7200 C   0  0  0  0  0  0  0  0  0  0  0  0
  160.9250  209.8770  151.8710 C   0  0  0  0  0  1  0  0  0  0  0  0
  161.0220  208.0470  155.2090 C   0  0  0  0  0  3  0  0  0  0  0  0
  160.9650  209.0760  154.2650 C   0  0  0  0  0  0  0  0  0  0  0  0
  161.1250  206.3980  153.4450 C   0  0  0  0  0  0  0  0  0  0  0  0
  160.9850  208.7750  152.8860 C   0  0  0  0  0  0  0  0  0  0  0  0
  161.1020  206.7150  154.8020 C   0  0  0  0  0  3  0  0  0  0  0  0
  161.0660  207.4270  152.4740 C   0  0  0  0  0  0  0  0  0  0  0  0
  161.2330  204.7340  151.6910 C   0  0  0  0  0  3  0  0  0  0  0  0
  160.8210  211.5270  155.1170 N   0  0  0  0  0  0  0  0  0  0  0  0
  160.8850  210.4350  154.7380 C   0  0  0  0  0  0  0  0  0  0  0  0
  161.2150  205.4100  149.2630 C   0  0  2  0  0  3  0  0  0  0  0  0
  160.5250  206.4460  148.5080 N   0  0  0  0  0  2  0  0  0  0  0  0
  161.3000  206.6950  147.3040 C   0  0  0  0  0  2  0  0  0  0  0  0
  160.5400  206.1950  146.0920 C   0  0  0  0  0  1  0  0  0  0  0  0
  160.6030  204.1460  149.0170 O   0  0  0  0  0  0  0  0  0  0  0  0
  162.2160  203.4320  147.5550 O   0  0  0  0  0  0  0  0  0  0  0  0
  161.1960  203.1480  148.2370 C   0  0  0  0  0  0  0  0  0  0  0  0
  161.2110  200.9830  149.2180 O   0  0  0  0  0  1  0  0  0  0  0  0
  160.6440  201.7530  148.2020 C   0  0  2  0  0  3  0  0  0  0  0  0
  160.4580  201.6700  145.8260 O   0  0  0  0  0  0  0  0  0  0  0  0
  160.8780  201.1110  146.8720 C   0  0  0  0  0  0  0  0  0  0  0  0
  161.5800  199.8750  146.7790 N   0  0  0  0  0  1  0  0  0  0  0  0
  1 10  1  0  0  0  0
  2  7  1  0  0  0  0
  3  1  2  0  0  0  0
  3 11  1  0  0  0  0
  4  8  1  0  0  0  0
  6 13  1  0  0  0  0
  6  5  2  0  0  0  0
  7  9  2  0  0  0  0
  8  6  1  0  0  0  0
  9  5  1  0  0  0  0
 10  8  2  0  0  0  0
 10  7  1  0  0  0  0
 11  2  2  0  0  0  0
 13 12  3  0  0  0  0
 14 15  1  6  0  0  0
 14  3  1  0  0  0  0
 16 15  1  0  0  0  0
 17 16  1  0  0  0  0
 18 14  1  0  0  0  0
 19 20  2  0  0  0  0
 20 18  1  0  0  0  0
 22 20  1  0  0  0  0
 22 21  1  1  0  0  0
 23 24  2  0  0  0  0
 24 22  1  0  0  0  0
 25 24  1  0  0  0  0
M  END
>  <MODEL>
9

>  <REMARK>
 VINA RESULT:      -7.8      1.899      3.856
  Name = 
  8 active torsions:
  status: ('A' for Active; 'I' for Inactive)
    1  A    between atoms: C_3  and  C_5
    2  A    between atoms: N_4  and  C_5
    3  A    between atoms: N_4  and  C_15
    4  A    between atoms: C_5  and  O_10
    5  A    between atoms: O_10  and  C_19
    6  A    between atoms: C_11  and  C_12
    7  A    between atoms: C_11  and  C_19
    8  A    between atoms: C_16  and  C_22
                            x       y       z     vdW  Elec       q    Type
                         _______ _______ _______ _____ _____    ______ ____

>  <TORSDO>
F 8

$$$$
