=
 OpenBabel11052411163D

 27 29  0  0  1  0  0  0  0  0999 V2000
  162.0950  209.6830  150.2790 C   0  0  0  0  0  3  0  0  0  0  0  0
  162.0900  208.5460  151.0860 C   0  0  0  0  0  3  0  0  0  0  0  0
  161.5140  205.8640  148.4150 C   0  0  1  0  0  3  0  0  0  0  0  0
  160.9790  202.5270  148.0030 C   0  0  0  0  0  0  0  0  0  0  0  0
  161.7120  208.3560  148.3510 C   0  0  0  0  0  3  0  0  0  0  0  0
  161.8910  207.2810  150.5150 C   0  0  0  0  0  0  0  0  0  0  0  0
  161.2270  204.7170  149.3500 C   0  0  0  0  0  0  0  0  0  0  0  0
  162.6320  204.7170  146.4500 C   0  0  0  0  0  3  0  0  0  0  0  0
  161.4770  204.8330  150.7950 C   0  0  0  0  0  0  0  0  0  0  0  0
  161.3670  203.8230  151.5420 O   0  0  0  0  0  0  0  0  0  0  0  0
  161.7070  207.1840  149.1180 C   0  0  0  0  0  0  0  0  0  0  0  0
  162.6850  205.5570  147.5030 C   0  0  0  0  0  3  0  0  0  0  0  0
  161.8380  206.1070  151.3520 N   0  0  0  0  0  0  0  0  0  0  0  0
  161.0390  203.5600  148.7860 C   0  0  0  0  0  0  0  0  0  0  0  0
  161.2720  202.6870  146.6410 O   0  0  0  0  0  0  0  0  0  0  0  0
  161.9040  209.5660  148.9390 N   0  0  0  0  0  0  0  0  0  0  0  0
  160.6580  201.1820  148.5520 C   0  0  0  0  0  1  0  0  0  0  0  0
  161.3950  203.9710  146.0080 C   0  0  0  0  0  2  0  0  0  0  0  0
  162.1390  206.2000  152.7790 C   0  0  0  0  0  2  0  0  0  0  0  0
  160.8630  206.4530  153.5640 C   0  0  0  0  0  2  0  0  0  0  0  0
  161.1680  207.3020  154.7840 C   0  0  0  0  0  2  0  0  0  0  0  0
  160.8470  208.6940  154.5110 N   0  0  0  0  0  2  0  0  0  0  0  0
  161.4520  209.6450  155.8260 S   0  0  0  0  0  0  0  0  0  0  0  0
  162.2050  208.7670  156.7880 O   0  0  0  0  0  0  0  0  0  0  0  0
  162.3680  210.7180  155.3050 O   0  0  0  0  0  0  0  0  0  0  0  0
  160.0860  210.4060  156.6700 C   0  0  0  0  0  2  0  0  0  0  0  0
  158.9210  210.4230  155.8040 N   0  0  0  0  0  1  0  0  0  0  0  0
  1  2  1  0  0  0  0
  3 12  1  1  0  0  0
  3 11  1  0  0  0  0
  3  7  1  0  0  0  0
  4 17  1  0  0  0  0
  4 14  2  0  0  0  0
  5 16  1  0  0  0  0
  5 11  2  0  0  0  0
  6  2  2  0  0  0  0
  6 13  1  0  0  0  0
  7  9  1  0  0  0  0
  8 12  2  0  0  0  0
  9 13  1  0  0  0  0
  9 10  2  0  0  0  0
 11  6  1  0  0  0  0
 13 19  1  0  0  0  0
 14  7  2  0  0  0  0
 15  4  1  0  0  0  0
 16  1  2  0  0  0  0
 18  8  1  0  0  0  0
 18 15  1  0  0  0  0
 19 20  1  0  0  0  0
 20 21  1  0  0  0  0
 22 21  1  0  0  0  0
 22 23  1  0  0  0  0
 23 26  1  0  0  0  0
 23 24  2  0  0  0  0
 25 23  2  0  0  0  0
 27 26  1  0  0  0  0
M  END
>  <MODEL>
1

>  <REMARK>
 VINA RESULT:      -8.5      0.000      0.000
  Name = 
  6 active torsions:
  status: ('A' for Active; 'I' for Inactive)
    1  A    between atoms: S_4  and  C_12
    2  A    between atoms: S_4  and  N_23
    3  A    between atoms: C_7  and  C_16
    4  A    between atoms: C_7  and  C_21
    5  A    between atoms: C_16  and  N_23
    6  A    between atoms: N_20  and  C_21
                            x       y       z     vdW  Elec       q    Type
                         _______ _______ _______ _____ _____    ______ ____

>  <TORSDO>
F 6

$$$$
=
 OpenBabel11052411163D

 27 29  0  0  1  0  0  0  0  0999 V2000
  161.2950  206.3640  153.3940 C   0  0  0  0  0  3  0  0  0  0  0  0
  161.1940  206.9750  152.1460 C   0  0  0  0  0  3  0  0  0  0  0  0
  161.2380  203.8710  149.9050 C   0  0  1  0  0  3  0  0  0  0  0  0
  161.2890  202.8870  146.6450 C   0  0  0  0  0  0  0  0  0  0  0  0
  161.3780  204.2240  152.3760 C   0  0  0  0  0  3  0  0  0  0  0  0
  161.1840  206.1950  150.9800 C   0  0  0  0  0  0  0  0  0  0  0  0
  161.4220  204.5830  148.5890 C   0  0  0  0  0  0  0  0  0  0  0  0
  159.8590  201.8460  149.2560 C   0  0  0  0  0  3  0  0  0  0  0  0
  161.2770  206.0440  148.4880 C   0  0  0  0  0  0  0  0  0  0  0  0
  161.2930  206.6080  147.3610 O   0  0  0  0  0  0  0  0  0  0  0  0
  161.2690  204.7900  151.1000 C   0  0  0  0  0  0  0  0  0  0  0  0
  159.9830  203.0200  149.9050 C   0  0  0  0  0  3  0  0  0  0  0  0
  161.1270  206.8250  149.6840 N   0  0  0  0  0  0  0  0  0  0  0  0
  161.4170  203.8280  147.5300 C   0  0  0  0  0  0  0  0  0  0  0  0
  160.9390  201.5960  147.0700 O   0  0  0  0  0  0  0  0  0  0  0  0
  161.3870  205.0110  153.4840 N   0  0  0  0  0  0  0  0  0  0  0  0
  161.4550  203.1850  145.1980 C   0  0  0  0  0  1  0  0  0  0  0  0
  160.9540  201.1900  148.4480 C   0  0  0  0  0  2  0  0  0  0  0  0
  160.9270  208.2680  149.5710 C   0  0  0  0  0  2  0  0  0  0  0  0
  162.2680  208.9700  149.4330 C   0  0  0  0  0  2  0  0  0  0  0  0
  162.1120  210.2180  148.5850 C   0  0  0  0  0  2  0  0  0  0  0  0
  161.9200  211.3780  149.4420 N   0  0  0  0  0  2  0  0  0  0  0  0
  161.7220  212.7630  148.4210 S   0  0  0  0  0  0  0  0  0  0  0  0
  161.1220  213.8960  149.2060 O   0  0  0  0  0  0  0  0  0  0  0  0
  163.0560  213.1880  147.8690 O   0  0  0  0  0  0  0  0  0  0  0  0
  160.6440  212.3440  147.0720 C   0  0  0  0  0  2  0  0  0  0  0  0
  161.1590  212.9050  145.8370 N   0  0  0  0  0  1  0  0  0  0  0  0
  1 16  1  0  0  0  0
  2  1  2  0  0  0  0
  3 12  1  6  0  0  0
  3 11  1  0  0  0  0
  4 15  1  0  0  0  0
  4 14  2  0  0  0  0
  5 16  2  0  0  0  0
  6 11  2  0  0  0  0
  6  2  1  0  0  0  0
  7  3  1  0  0  0  0
  8 12  2  0  0  0  0
  9  7  1  0  0  0  0
  9 13  1  0  0  0  0
 10  9  2  0  0  0  0
 11  5  1  0  0  0  0
 13  6  1  0  0  0  0
 14  7  2  0  0  0  0
 15 18  1  0  0  0  0
 17  4  1  0  0  0  0
 18  8  1  0  0  0  0
 19 13  1  0  0  0  0
 20 19  1  0  0  0  0
 21 20  1  0  0  0  0
 21 22  1  0  0  0  0
 23 24  2  0  0  0  0
 23 22  1  0  0  0  0
 25 23  2  0  0  0  0
 26 23  1  0  0  0  0
 27 26  1  0  0  0  0
M  END
>  <MODEL>
2

>  <REMARK>
 VINA RESULT:      -7.5      3.563      5.358
  Name = 
  6 active torsions:
  status: ('A' for Active; 'I' for Inactive)
    1  A    between atoms: S_4  and  C_12
    2  A    between atoms: S_4  and  N_23
    3  A    between atoms: C_7  and  C_16
    4  A    between atoms: C_7  and  C_21
    5  A    between atoms: C_16  and  N_23
    6  A    between atoms: N_20  and  C_21
                            x       y       z     vdW  Elec       q    Type
                         _______ _______ _______ _____ _____    ______ ____

>  <TORSDO>
F 6

$$$$
=
 OpenBabel11052411163D

 27 29  0  0  1  0  0  0  0  0999 V2000
  162.3340  208.8220  148.6420 C   0  0  0  0  0  3  0  0  0  0  0  0
  162.1010  207.6570  149.3710 C   0  0  0  0  0  3  0  0  0  0  0  0
  161.2480  209.1910  152.7750 C   0  0  1  0  0  3  0  0  0  0  0  0
  160.5420  208.3820  156.0060 C   0  0  0  0  0  0  0  0  0  0  0  0
  161.8950  210.1480  150.5570 C   0  0  0  0  0  3  0  0  0  0  0  0
  161.7550  207.7360  150.7280 C   0  0  0  0  0  0  0  0  0  0  0  0
  161.2940  207.9170  153.5790 C   0  0  0  0  0  0  0  0  0  0  0  0
  159.4750  210.5460  153.9760 C   0  0  0  0  0  3  0  0  0  0  0  0
  161.3610  206.6030  152.9200 C   0  0  0  0  0  0  0  0  0  0  0  0
  161.2560  205.5450  153.5980 O   0  0  0  0  0  0  0  0  0  0  0  0
  161.6410  209.0090  151.3300 C   0  0  0  0  0  0  0  0  0  0  0  0
  159.8980  209.8710  152.8890 C   0  0  0  0  0  3  0  0  0  0  0  0
  161.5580  206.5320  151.4990 N   0  0  0  0  0  0  0  0  0  0  0  0
  160.9760  208.0280  154.8360 C   0  0  0  0  0  0  0  0  0  0  0  0
  160.0810  209.6940  156.1930 O   0  0  0  0  0  0  0  0  0  0  0  0
  162.2310  210.0350  149.2450 N   0  0  0  0  0  0  0  0  0  0  0  0
  160.4820  207.3970  157.1190 C   0  0  0  0  0  1  0  0  0  0  0  0
  160.2870  210.7450  155.2340 C   0  0  0  0  0  2  0  0  0  0  0  0
  161.5670  205.2250  150.8460 C   0  0  0  0  0  2  0  0  0  0  0  0
  160.4040  205.1210  149.8740 C   0  0  0  0  0  2  0  0  0  0  0  0
  160.7200  204.0990  148.7980 C   0  0  0  0  0  2  0  0  0  0  0  0
  162.0570  204.3310  148.2730 N   0  0  0  0  0  2  0  0  0  0  0  0
  161.9120  204.6330  146.5730 S   0  0  0  0  0  0  0  0  0  0  0  0
  163.2750  204.8540  145.9760 O   0  0  0  0  0  0  0  0  0  0  0  0
  161.2530  203.4610  145.8990 O   0  0  0  0  0  0  0  0  0  0  0  0
  160.9160  206.0830  146.3220 C   0  0  0  0  0  2  0  0  0  0  0  0
  160.2480  206.0040  145.0370 N   0  0  0  0  0  1  0  0  0  0  0  0
  1 16  2  0  0  0  0
  1  2  1  0  0  0  0
  2  6  2  0  0  0  0
  3 12  1  6  0  0  0
  3  7  1  0  0  0  0
  4 15  1  0  0  0  0
  4 17  1  0  0  0  0
  5 11  2  0  0  0  0
  6 11  1  0  0  0  0
  6 13  1  0  0  0  0
  7 14  2  0  0  0  0
  8 18  1  0  0  0  0
  9  7  1  0  0  0  0
  9 10  2  0  0  0  0
 11  3  1  0  0  0  0
 12  8  2  0  0  0  0
 13  9  1  0  0  0  0
 14  4  2  0  0  0  0
 16  5  1  0  0  0  0
 18 15  1  0  0  0  0
 19 13  1  0  0  0  0
 20 19  1  0  0  0  0
 21 20  1  0  0  0  0
 22 21  1  0  0  0  0
 23 22  1  0  0  0  0
 24 23  2  0  0  0  0
 25 23  2  0  0  0  0
 26 23  1  0  0  0  0
 27 26  1  0  0  0  0
M  END
>  <MODEL>
3

>  <REMARK>
 VINA RESULT:      -7.5      2.891      7.629
  Name = 
  6 active torsions:
  status: ('A' for Active; 'I' for Inactive)
    1  A    between atoms: S_4  and  C_12
    2  A    between atoms: S_4  and  N_23
    3  A    between atoms: C_7  and  C_16
    4  A    between atoms: C_7  and  C_21
    5  A    between atoms: C_16  and  N_23
    6  A    between atoms: N_20  and  C_21
                            x       y       z     vdW  Elec       q    Type
                         _______ _______ _______ _____ _____    ______ ____

>  <TORSDO>
F 6

$$$$
=
 OpenBabel11052411163D

 27 29  0  0  1  0  0  0  0  0999 V2000
  161.6270  203.9240  151.1770 C   0  0  0  0  0  3  0  0  0  0  0  0
  161.9170  205.1920  150.6740 C   0  0  0  0  0  3  0  0  0  0  0  0
  160.7170  207.3370  153.6090 C   0  0  1  0  0  3  0  0  0  0  0  0
  160.2530  210.5650  154.5890 C   0  0  0  0  0  0  0  0  0  0  0  0
  160.7610  204.8770  153.1680 C   0  0  0  0  0  3  0  0  0  0  0  0
  161.6230  206.3330  151.4340 C   0  0  0  0  0  0  0  0  0  0  0  0
  160.7760  208.6720  152.9110 C   0  0  0  0  0  0  0  0  0  0  0  0
  161.2630  207.9380  156.0100 C   0  0  0  0  0  3  0  0  0  0  0  0
  161.4340  208.8180  151.6040 C   0  0  0  0  0  0  0  0  0  0  0  0
  161.6000  209.9620  151.1000 O   0  0  0  0  0  0  0  0  0  0  0  0
  161.0410  206.1700  152.7110 C   0  0  0  0  0  0  0  0  0  0  0  0
  161.5810  207.3230  154.8540 C   0  0  0  0  0  3  0  0  0  0  0  0
  161.8780  207.6480  150.8990 N   0  0  0  0  0  0  0  0  0  0  0  0
  160.4880  209.7080  153.6440 C   0  0  0  0  0  0  0  0  0  0  0  0
  160.1230  210.1050  155.9080 O   0  0  0  0  0  0  0  0  0  0  0  0
  161.0560  203.7930  152.4030 N   0  0  0  0  0  0  0  0  0  0  0  0
  160.1760  212.0200  154.2880 C   0  0  0  0  0  1  0  0  0  0  0  0
  159.9890  208.7150  156.2480 C   0  0  0  0  0  2  0  0  0  0  0  0
  162.5810  207.8060  149.6280 C   0  0  0  0  0  2  0  0  0  0  0  0
  161.5810  207.8700  148.4850 C   0  0  0  0  0  2  0  0  0  0  0  0
  161.9940  206.9110  147.3850 C   0  0  0  0  0  2  0  0  0  0  0  0
  161.0010  205.8580  147.2480 N   0  0  0  0  0  2  0  0  0  0  0  0
  161.8100  204.4380  146.6710 S   0  0  0  0  0  0  0  0  0  0  0  0
  163.2850  204.7030  146.5520 O   0  0  0  0  0  0  0  0  0  0  0  0
  161.5810  203.2960  147.6230 O   0  0  0  0  0  0  0  0  0  0  0  0
  161.1570  204.0040  145.0760 C   0  0  0  0  0  2  0  0  0  0  0  0
  161.2060  205.1560  144.1950 N   0  0  0  0  0  1  0  0  0  0  0  0
  1 16  1  0  0  0  0
  2  1  2  0  0  0  0
  2  6  1  0  0  0  0
  3 12  1  1  0  0  0
  4 15  1  0  0  0  0
  6 11  2  0  0  0  0
  7  3  1  0  0  0  0
  7 14  2  0  0  0  0
  8 18  1  0  0  0  0
  9  7  1  0  0  0  0
 10  9  2  0  0  0  0
 11  5  1  0  0  0  0
 11  3  1  0  0  0  0
 12  8  2  0  0  0  0
 13  6  1  0  0  0  0
 13  9  1  0  0  0  0
 14  4  2  0  0  0  0
 15 18  1  0  0  0  0
 16  5  2  0  0  0  0
 17  4  1  0  0  0  0
 19 13  1  0  0  0  0
 20 19  1  0  0  0  0
 21 20  1  0  0  0  0
 22 21  1  0  0  0  0
 23 22  1  0  0  0  0
 23 25  2  0  0  0  0
 24 23  2  0  0  0  0
 26 23  1  0  0  0  0
 27 26  1  0  0  0  0
M  END
>  <MODEL>
4

>  <REMARK>
 VINA RESULT:      -7.4      3.125      8.308
  Name = 
  6 active torsions:
  status: ('A' for Active; 'I' for Inactive)
    1  A    between atoms: S_4  and  C_12
    2  A    between atoms: S_4  and  N_23
    3  A    between atoms: C_7  and  C_16
    4  A    between atoms: C_7  and  C_21
    5  A    between atoms: C_16  and  N_23
    6  A    between atoms: N_20  and  C_21
                            x       y       z     vdW  Elec       q    Type
                         _______ _______ _______ _____ _____    ______ ____

>  <TORSDO>
F 6

$$$$
=
 OpenBabel11052411163D

 27 29  0  0  1  0  0  0  0  0999 V2000
  162.0740  208.9800  148.6360 C   0  0  0  0  0  3  0  0  0  0  0  0
  161.7110  207.8770  149.4070 C   0  0  0  0  0  3  0  0  0  0  0  0
  161.3070  209.5790  152.8130 C   0  0  1  0  0  3  0  0  0  0  0  0
  160.6840  208.9400  156.0990 C   0  0  0  0  0  0  0  0  0  0  0  0
  161.9570  210.3900  150.5390 C   0  0  0  0  0  3  0  0  0  0  0  0
  161.4640  208.0300  150.7790 C   0  0  0  0  0  0  0  0  0  0  0  0
  161.2090  208.3260  153.6460 C   0  0  0  0  0  0  0  0  0  0  0  0
  159.8360  211.2090  154.0790 C   0  0  0  0  0  3  0  0  0  0  0  0
  161.0360  207.0070  153.0170 C   0  0  0  0  0  0  0  0  0  0  0  0
  160.8130  205.9880  153.7280 O   0  0  0  0  0  0  0  0  0  0  0  0
  161.5810  209.3150  151.3540 C   0  0  0  0  0  0  0  0  0  0  0  0
  160.0860  210.4590  152.9880 C   0  0  0  0  0  3  0  0  0  0  0  0
  161.1340  206.8840  151.5900 N   0  0  0  0  0  0  0  0  0  0  0  0
  160.9880  208.5050  154.9150 C   0  0  0  0  0  0  0  0  0  0  0  0
  160.4390  210.3100  156.2790 O   0  0  0  0  0  0  0  0  0  0  0  0
  162.1920  210.2050  149.2130 N   0  0  0  0  0  0  0  0  0  0  0  0
  160.5430  207.9940  157.2380 C   0  0  0  0  0  1  0  0  0  0  0  0
  160.7430  211.3010  155.2840 C   0  0  0  0  0  2  0  0  0  0  0  0
  160.9060  205.5800  150.9710 C   0  0  0  0  0  2  0  0  0  0  0  0
  161.9580  204.5890  151.4400 C   0  0  0  0  0  2  0  0  0  0  0  0
  161.3380  203.2130  151.5950 C   0  0  0  0  0  2  0  0  0  0  0  0
  160.1440  203.1130  150.7690 N   0  0  0  0  0  2  0  0  0  0  0  0
  160.4860  202.0100  149.4770 S   0  0  0  0  0  0  0  0  0  0  0  0
  161.4500  200.9550  149.9470 O   0  0  0  0  0  0  0  0  0  0  0  0
  159.2140  201.3550  149.0130 O   0  0  0  0  0  0  0  0  0  0  0  0
  161.2060  202.9060  148.1220 C   0  0  0  0  0  2  0  0  0  0  0  0
  161.1160  202.1170  146.9080 N   0  0  0  0  0  1  0  0  0  0  0  0
  1 16  2  0  0  0  0
  1  2  1  0  0  0  0
  2  6  2  0  0  0  0
  3 12  1  6  0  0  0
  3  7  1  0  0  0  0
  4 15  1  0  0  0  0
  4 17  1  0  0  0  0
  5 11  2  0  0  0  0
  6 11  1  0  0  0  0
  6 13  1  0  0  0  0
  7 14  2  0  0  0  0
  8 18  1  0  0  0  0
  9  7  1  0  0  0  0
  9 10  2  0  0  0  0
 11  3  1  0  0  0  0
 12  8  2  0  0  0  0
 13  9  1  0  0  0  0
 14  4  2  0  0  0  0
 16  5  1  0  0  0  0
 18 15  1  0  0  0  0
 19 20  1  0  0  0  0
 19 13  1  0  0  0  0
 20 21  1  0  0  0  0
 22 21  1  0  0  0  0
 23 24  2  0  0  0  0
 23 22  1  0  0  0  0
 25 23  2  0  0  0  0
 26 23  1  0  0  0  0
 27 26  1  0  0  0  0
M  END
>  <MODEL>
5

>  <REMARK>
 VINA RESULT:      -7.2      2.952      7.648
  Name = 
  6 active torsions:
  status: ('A' for Active; 'I' for Inactive)
    1  A    between atoms: S_4  and  C_12
    2  A    between atoms: S_4  and  N_23
    3  A    between atoms: C_7  and  C_16
    4  A    between atoms: C_7  and  C_21
    5  A    between atoms: C_16  and  N_23
    6  A    between atoms: N_20  and  C_21
                            x       y       z     vdW  Elec       q    Type
                         _______ _______ _______ _____ _____    ______ ____

>  <TORSDO>
F 6

$$$$
=
 OpenBabel11052411163D

 27 29  0  0  1  0  0  0  0  0999 V2000
  161.2100  206.1730  153.5590 C   0  0  0  0  0  3  0  0  0  0  0  0
  161.2240  206.8760  152.3550 C   0  0  0  0  0  3  0  0  0  0  0  0
  161.2660  203.9380  149.9000 C   0  0  1  0  0  3  0  0  0  0  0  0
  161.4880  203.1840  146.5870 C   0  0  0  0  0  0  0  0  0  0  0  0
  161.2550  204.1090  152.3940 C   0  0  0  0  0  3  0  0  0  0  0  0
  161.2550  206.1800  151.1380 C   0  0  0  0  0  0  0  0  0  0  0  0
  161.5740  204.7290  148.6550 C   0  0  0  0  0  0  0  0  0  0  0  0
  159.8350  202.0410  149.0170 C   0  0  0  0  0  3  0  0  0  0  0  0
  161.5080  206.1990  148.6520 C   0  0  0  0  0  0  0  0  0  0  0  0
  161.6290  206.8400  147.5720 O   0  0  0  0  0  0  0  0  0  0  0  0
  161.2610  204.7680  151.1590 C   0  0  0  0  0  0  0  0  0  0  0  0
  159.9730  203.1590  149.7570 C   0  0  0  0  0  3  0  0  0  0  0  0
  161.3170  206.9020  149.8900 N   0  0  0  0  0  0  0  0  0  0  0  0
  161.6030  204.0520  147.5450 C   0  0  0  0  0  0  0  0  0  0  0  0
  161.0470  201.8870  146.8920 O   0  0  0  0  0  0  0  0  0  0  0  0
  161.2290  204.8150  153.5550 N   0  0  0  0  0  0  0  0  0  0  0  0
  161.7670  203.5730  145.1780 C   0  0  0  0  0  1  0  0  0  0  0  0
  160.9480  201.3850  148.2350 C   0  0  0  0  0  2  0  0  0  0  0  0
  161.1970  208.3580  149.8710 C   0  0  0  0  0  2  0  0  0  0  0  0
  162.3280  208.9840  150.6700 C   0  0  0  0  0  2  0  0  0  0  0  0
  161.8160  210.1960  151.4260 C   0  0  0  0  0  2  0  0  0  0  0  0
  162.2920  210.1590  152.8000 N   0  0  0  0  0  2  0  0  0  0  0  0
  161.0000  210.6970  153.8220 S   0  0  0  0  0  0  0  0  0  0  0  0
  160.1200  209.5340  154.1880 O   0  0  0  0  0  0  0  0  0  0  0  0
  161.5600  211.3150  155.0740 O   0  0  0  0  0  0  0  0  0  0  0  0
  160.0400  211.9140  152.9530 C   0  0  0  0  0  2  0  0  0  0  0  0
  158.6860  211.4280  152.7640 N   0  0  0  0  0  1  0  0  0  0  0  0
  2  1  2  0  0  0  0
  3 12  1  6  0  0  0
  3 11  1  0  0  0  0
  4 15  1  0  0  0  0
  4 14  2  0  0  0  0
  5 16  2  0  0  0  0
  6 11  2  0  0  0  0
  6  2  1  0  0  0  0
  7  3  1  0  0  0  0
  8 12  2  0  0  0  0
  9  7  1  0  0  0  0
  9 13  1  0  0  0  0
 10  9  2  0  0  0  0
 11  5  1  0  0  0  0
 13  6  1  0  0  0  0
 14  7  2  0  0  0  0
 15 18  1  0  0  0  0
 16  1  1  0  0  0  0
 17  4  1  0  0  0  0
 18  8  1  0  0  0  0
 19 13  1  0  0  0  0
 19 20  1  0  0  0  0
 20 21  1  0  0  0  0
 21 22  1  0  0  0  0
 22 23  1  0  0  0  0
 23 24  2  0  0  0  0
 23 25  2  0  0  0  0
 26 23  1  0  0  0  0
 27 26  1  0  0  0  0
M  END
>  <MODEL>
6

>  <REMARK>
 VINA RESULT:      -7.1      2.009      3.545
  Name = 
  6 active torsions:
  status: ('A' for Active; 'I' for Inactive)
    1  A    between atoms: S_4  and  C_12
    2  A    between atoms: S_4  and  N_23
    3  A    between atoms: C_7  and  C_16
    4  A    between atoms: C_7  and  C_21
    5  A    between atoms: C_16  and  N_23
    6  A    between atoms: N_20  and  C_21
                            x       y       z     vdW  Elec       q    Type
                         _______ _______ _______ _____ _____    ______ ____

>  <TORSDO>
F 6

$$$$
=
 OpenBabel11052411163D

 27 29  0  0  1  0  0  0  0  0999 V2000
  161.9490  206.5680  147.6750 C   0  0  0  0  0  3  0  0  0  0  0  0
  161.4150  205.6690  148.5970 C   0  0  0  0  0  3  0  0  0  0  0  0
  161.6100  207.8100  151.7660 C   0  0  1  0  0  3  0  0  0  0  0  0
  161.0890  207.7170  155.1290 C   0  0  0  0  0  0  0  0  0  0  0  0
  162.2600  208.1850  149.3810 C   0  0  0  0  0  3  0  0  0  0  0  0
  161.2990  206.0340  149.9460 C   0  0  0  0  0  0  0  0  0  0  0  0
  161.3050  206.7160  152.7580 C   0  0  0  0  0  0  0  0  0  0  0  0
  160.6040  209.8590  152.8670 C   0  0  0  0  0  3  0  0  0  0  0  0
  160.8170  205.4010  152.3140 C   0  0  0  0  0  0  0  0  0  0  0  0
  160.4330  204.5480  153.1600 O   0  0  0  0  0  0  0  0  0  0  0  0
  161.7220  207.3220  150.3430 C   0  0  0  0  0  0  0  0  0  0  0  0
  160.6160  208.9490  151.8730 C   0  0  0  0  0  3  0  0  0  0  0  0
  160.7900  205.0910  150.9120 N   0  0  0  0  0  0  0  0  0  0  0  0
  161.2130  207.0890  154.0010 C   0  0  0  0  0  0  0  0  0  0  0  0
  161.1510  209.1190  155.1380 O   0  0  0  0  0  0  0  0  0  0  0  0
  162.3610  207.7960  148.0820 N   0  0  0  0  0  0  0  0  0  0  0  0
  160.8290  206.9660  156.3870 C   0  0  0  0  0  1  0  0  0  0  0  0
  161.5900  209.8950  154.0110 C   0  0  0  0  0  2  0  0  0  0  0  0
  160.2510  203.8050  150.4780 C   0  0  0  0  0  2  0  0  0  0  0  0
  161.3630  202.7720  150.4040 C   0  0  0  0  0  2  0  0  0  0  0  0
  160.8360  201.4890  149.7920 C   0  0  0  0  0  2  0  0  0  0  0  0
  159.9440  201.7980  148.6850 N   0  0  0  0  0  2  0  0  0  0  0  0
  160.8060  201.5020  147.2120 S   0  0  0  0  0  0  0  0  0  0  0  0
  161.6030  200.2320  147.3320 O   0  0  0  0  0  0  0  0  0  0  0  0
  159.8380  201.3790  146.0670 O   0  0  0  0  0  0  0  0  0  0  0  0
  161.9070  202.8610  146.8980 C   0  0  0  0  0  2  0  0  0  0  0  0
  161.5770  203.4770  145.6260 N   0  0  0  0  0  1  0  0  0  0  0  0
  1 16  2  0  0  0  0
  1  2  1  0  0  0  0
  2  6  2  0  0  0  0
  3 12  1  6  0  0  0
  3  7  1  0  0  0  0
  4 15  1  0  0  0  0
  4 17  1  0  0  0  0
  5 11  2  0  0  0  0
  6 11  1  0  0  0  0
  6 13  1  0  0  0  0
  7 14  2  0  0  0  0
  8 18  1  0  0  0  0
  9  7  1  0  0  0  0
  9 10  2  0  0  0  0
 11  3  1  0  0  0  0
 12  8  2  0  0  0  0
 13  9  1  0  0  0  0
 14  4  2  0  0  0  0
 16  5  1  0  0  0  0
 18 15  1  0  0  0  0
 19 13  1  0  0  0  0
 20 19  1  0  0  0  0
 21 20  1  0  0  0  0
 22 21  1  0  0  0  0
 23 24  2  0  0  0  0
 23 22  1  0  0  0  0
 25 23  2  0  0  0  0
 26 23  1  0  0  0  0
 27 26  1  0  0  0  0
M  END
>  <MODEL>
7

>  <REMARK>
 VINA RESULT:      -6.8      3.237      7.672
  Name = 
  6 active torsions:
  status: ('A' for Active; 'I' for Inactive)
    1  A    between atoms: S_4  and  C_12
    2  A    between atoms: S_4  and  N_23
    3  A    between atoms: C_7  and  C_16
    4  A    between atoms: C_7  and  C_21
    5  A    between atoms: C_16  and  N_23
    6  A    between atoms: N_20  and  C_21
                            x       y       z     vdW  Elec       q    Type
                         _______ _______ _______ _____ _____    ______ ____

>  <TORSDO>
F 6

$$$$
=
 OpenBabel11052411163D

 27 29  0  0  1  0  0  0  0  0999 V2000
  161.2060  204.7540  153.1510 C   0  0  0  0  0  3  0  0  0  0  0  0
  161.1220  205.7660  152.1960 C   0  0  0  0  0  3  0  0  0  0  0  0
  161.3380  203.6580  149.0070 C   0  0  1  0  0  3  0  0  0  0  0  0
  161.5200  203.8950  145.6150 C   0  0  0  0  0  0  0  0  0  0  0  0
  161.3910  203.1160  151.4470 C   0  0  0  0  0  3  0  0  0  0  0  0
  161.1730  205.4490  150.8310 C   0  0  0  0  0  0  0  0  0  0  0  0
  161.5370  204.7940  148.0360 C   0  0  0  0  0  0  0  0  0  0  0  0
  160.0470  201.9660  147.6300 C   0  0  0  0  0  3  0  0  0  0  0  0
  161.3460  206.1930  148.4530 C   0  0  0  0  0  0  0  0  0  0  0  0
  161.3770  207.1200  147.5980 O   0  0  0  0  0  0  0  0  0  0  0  0
  161.3020  204.0950  150.4500 C   0  0  0  0  0  0  0  0  0  0  0  0
  160.1130  202.8370  148.6560 C   0  0  0  0  0  3  0  0  0  0  0  0
  161.1340  206.4960  149.8400 N   0  0  0  0  0  0  0  0  0  0  0  0
  161.5890  204.4630  146.7790 C   0  0  0  0  0  0  0  0  0  0  0  0
  161.2010  202.5300  145.5420 O   0  0  0  0  0  0  0  0  0  0  0  0
  161.3410  203.4600  152.7610 N   0  0  0  0  0  0  0  0  0  0  0  0
  161.7190  204.6900  144.3740 C   0  0  0  0  0  1  0  0  0  0  0  0
  161.1880  201.6620  146.6870 C   0  0  0  0  0  2  0  0  0  0  0  0
  160.8890  207.8810  150.2360 C   0  0  0  0  0  2  0  0  0  0  0  0
  162.2080  208.5860  150.5040 C   0  0  0  0  0  2  0  0  0  0  0  0
  161.9520  209.9150  151.1910 C   0  0  0  0  0  2  0  0  0  0  0  0
  162.3390  209.8300  152.5910 N   0  0  0  0  0  2  0  0  0  0  0  0
  160.8950  209.9060  153.5450 S   0  0  0  0  0  0  0  0  0  0  0  0
  159.8000  210.5770  152.7630 O   0  0  0  0  0  0  0  0  0  0  0  0
  160.4590  208.5170  153.9270 O   0  0  0  0  0  0  0  0  0  0  0  0
  161.2210  210.8380  155.0220 C   0  0  0  0  0  2  0  0  0  0  0  0
  162.6180  210.7040  155.3900 N   0  0  0  0  0  1  0  0  0  0  0  0
  2  1  2  0  0  0  0
  3 12  1  6  0  0  0
  3 11  1  0  0  0  0
  4 14  2  0  0  0  0
  5 16  2  0  0  0  0
  6  2  1  0  0  0  0
  7  9  1  0  0  0  0
  7  3  1  0  0  0  0
  8 12  2  0  0  0  0
  9 13  1  0  0  0  0
 10  9  2  0  0  0  0
 11  6  2  0  0  0  0
 11  5  1  0  0  0  0
 13 19  1  0  0  0  0
 13  6  1  0  0  0  0
 14  7  2  0  0  0  0
 15  4  1  0  0  0  0
 15 18  1  0  0  0  0
 16  1  1  0  0  0  0
 17  4  1  0  0  0  0
 18  8  1  0  0  0  0
 19 20  1  0  0  0  0
 20 21  1  0  0  0  0
 21 22  1  0  0  0  0
 22 23  1  0  0  0  0
 23 25  2  0  0  0  0
 23 26  1  0  0  0  0
 24 23  2  0  0  0  0
 26 27  1  0  0  0  0
M  END
>  <MODEL>
8

>  <REMARK>
 VINA RESULT:      -6.7      2.147      3.787
  Name = 
  6 active torsions:
  status: ('A' for Active; 'I' for Inactive)
    1  A    between atoms: S_4  and  C_12
    2  A    between atoms: S_4  and  N_23
    3  A    between atoms: C_7  and  C_16
    4  A    between atoms: C_7  and  C_21
    5  A    between atoms: C_16  and  N_23
    6  A    between atoms: N_20  and  C_21
                            x       y       z     vdW  Elec       q    Type
                         _______ _______ _______ _____ _____    ______ ____

>  <TORSDO>
F 6

$$$$
=
 OpenBabel11052411163D

 27 29  0  0  1  0  0  0  0  0999 V2000
  161.9360  211.0320  149.9140 C   0  0  0  0  0  3  0  0  0  0  0  0
  161.9390  210.0090  150.8600 C   0  0  0  0  0  3  0  0  0  0  0  0
  161.4470  206.9960  148.5500 C   0  0  1  0  0  3  0  0  0  0  0  0
  160.9740  203.6240  148.5640 C   0  0  0  0  0  0  0  0  0  0  0  0
  161.6020  209.4620  148.1690 C   0  0  0  0  0  3  0  0  0  0  0  0
  161.7700  208.6770  150.4550 C   0  0  0  0  0  0  0  0  0  0  0  0
  161.1660  205.9730  149.6210 C   0  0  0  0  0  0  0  0  0  0  0  0
  162.6110  205.6280  146.7620 C   0  0  0  0  0  3  0  0  0  0  0  0
  161.3940  206.2780  151.0420 C   0  0  0  0  0  0  0  0  0  0  0  0
  161.2910  205.3710  151.9120 O   0  0  0  0  0  0  0  0  0  0  0  0
  161.6070  208.3990  149.0790 C   0  0  0  0  0  0  0  0  0  0  0  0
  162.6350  206.5970  147.6980 C   0  0  0  0  0  3  0  0  0  0  0  0
  161.7250  207.6200  151.4350 N   0  0  0  0  0  0  0  0  0  0  0  0
  161.0060  204.7500  149.2080 C   0  0  0  0  0  0  0  0  0  0  0  0
  161.2830  203.6140  147.1960 O   0  0  0  0  0  0  0  0  0  0  0  0
  161.7660  210.7420  148.5980 N   0  0  0  0  0  0  0  0  0  0  0  0
  160.6700  202.3550  149.2770 C   0  0  0  0  0  1  0  0  0  0  0  0
  161.3930  204.8080  146.4040 C   0  0  0  0  0  2  0  0  0  0  0  0
  162.0050  207.9010  152.8410 C   0  0  0  0  0  2  0  0  0  0  0  0
  160.7040  208.0800  153.6050 C   0  0  0  0  0  2  0  0  0  0  0  0
  160.6780  209.4450  154.2670 C   0  0  0  0  0  2  0  0  0  0  0  0
  159.6130  210.2530  153.6930 N   0  0  0  0  0  2  0  0  0  0  0  0
  159.6170  211.7850  154.5030 S   0  0  0  0  0  0  0  0  0  0  0  0
  160.7090  211.8150  155.5360 O   0  0  0  0  0  0  0  0  0  0  0  0
  159.8370  212.8910  153.5070 O   0  0  0  0  0  0  0  0  0  0  0  0
  158.0460  212.0250  155.2990 C   0  0  0  0  0  2  0  0  0  0  0  0
  157.0410  212.3680  154.3100 N   0  0  0  0  0  1  0  0  0  0  0  0
  1  2  1  0  0  0  0
  3 12  1  1  0  0  0
  3 11  1  0  0  0  0
  3  7  1  0  0  0  0
  4 14  2  0  0  0  0
  4 17  1  0  0  0  0
  5 16  1  0  0  0  0
  5 11  2  0  0  0  0
  6  2  2  0  0  0  0
  6 13  1  0  0  0  0
  7  9  1  0  0  0  0
  8 12  2  0  0  0  0
  9 13  1  0  0  0  0
  9 10  2  0  0  0  0
 11  6  1  0  0  0  0
 13 19  1  0  0  0  0
 14  7  2  0  0  0  0
 15  4  1  0  0  0  0
 16  1  2  0  0  0  0
 18  8  1  0  0  0  0
 18 15  1  0  0  0  0
 19 20  1  0  0  0  0
 20 21  1  0  0  0  0
 22 21  1  0  0  0  0
 22 23  1  0  0  0  0
 23 26  1  0  0  0  0
 23 24  2  0  0  0  0
 25 23  2  0  0  0  0
 27 26  1  0  0  0  0
M  END
>  <MODEL>
9

>  <REMARK>
 VINA RESULT:      -6.4      1.736      1.926
  Name = 
  6 active torsions:
  status: ('A' for Active; 'I' for Inactive)
    1  A    between atoms: S_4  and  C_12
    2  A    between atoms: S_4  and  N_23
    3  A    between atoms: C_7  and  C_16
    4  A    between atoms: C_7  and  C_21
    5  A    between atoms: C_16  and  N_23
    6  A    between atoms: N_20  and  C_21
                            x       y       z     vdW  Elec       q    Type
                         _______ _______ _______ _____ _____    ______ ____

>  <TORSDO>
F 6

$$$$
