=
 OpenBabel11042422373D

 33 34  0  0  1  0  0  0  0  0999 V2000
  161.1880  209.5700  154.2260 C   0  0  0  0  0  0  0  0  0  0  0  0
  159.4980  207.2190  156.1720 N   0  0  0  0  0  2  0  0  0  0  0  0
  159.7440  209.5910  156.1280 N   0  0  0  0  0  2  0  0  0  0  0  0
  160.4390  211.6490  155.1980 O   0  0  0  0  0  0  0  0  0  0  0  0
  160.9460  208.3030  154.5260 C   0  0  0  0  0  0  0  0  0  0  0  0
  160.0840  208.2730  155.7090 C   0  0  0  0  0  0  0  0  0  0  0  0
  160.4580  210.3890  155.1900 C   0  0  0  0  0  0  0  0  0  0  0  0
  161.9680  210.0650  153.0540 C   0  0  0  0  0  2  0  0  0  0  0  0
  161.1030  210.0300  151.8050 C   0  0  0  0  0  2  0  0  0  0  0  0
  162.0700  209.5430  149.5100 C   0  0  0  0  0  0  0  0  0  0  0  0
  161.8440  210.7510  149.1080 N   0  0  0  0  0  2  0  0  0  0  0  0
  161.6820  209.1250  150.8220 N   0  0  0  0  0  2  0  0  0  0  0  0
  162.6020  208.5390  148.5510 C   0  0  0  0  0  2  0  0  0  0  0  0
  161.5220  207.6820  148.0950 N   0  0  0  0  0  2  0  0  0  0  0  0
  162.1270  206.5880  147.3480 C   0  0  0  0  0  2  0  0  0  0  0  0
  161.0690  205.7440  146.6410 C   0  0  1  0  0  3  0  0  0  0  0  0
  160.0900  206.5560  146.0650 O   0  0  0  0  0  1  0  0  0  0  0  0
  161.8050  204.6550  145.3790 P   0  0  0  0  0  0  0  0  0  0  0  0
  161.0580  203.1390  145.4360 O   0  0  0  0  0  1  0  0  0  0  0  0
  161.5690  205.3360  143.8490 O   0  0  0  0  0  0  0  0  0  0  0  0
  163.2860  204.4970  145.6310 O   0  0  0  0  0  1  0  0  0  0  0  0
  161.4280  207.1840  153.7800 N   0  0  0  0  0  0  0  0  0  0  0  0
  160.7440  206.7020  152.6570 N   0  0  0  0  0  0  0  0  0  0  0  0
  161.4730  203.0220  152.2120 C   0  0  0  0  0  2  0  0  0  0  0  0
  161.0890  205.4530  152.0610 C   0  0  0  0  0  0  0  0  0  0  0  0
  160.6610  201.7130  150.3620 N   0  0  0  0  0  0  0  0  0  0  0  0
  161.0830  204.3460  152.8060 C   0  0  0  0  0  3  0  0  0  0  0  0
  161.4800  205.3710  150.6110 C   0  0  0  0  0  2  0  0  0  0  0  0
  160.8630  204.1380  149.9390 C   0  0  0  0  0  2  0  0  0  0  0  0
  160.9650  202.8980  150.8030 C   0  0  0  0  0  0  0  0  0  0  0  0
  158.9300  201.3200  148.8620 O   0  0  0  0  0  1  0  0  0  0  0  0
  161.0340  201.0770  148.0060 O   0  0  0  0  0  0  0  0  0  0  0  0
  160.1710  201.3640  149.0580 C   0  0  0  0  0  0  0  0  0  0  0  0
  1  5  2  0  0  0  0
  1  7  1  0  0  0  0
  5  6  1  0  0  0  0
  6  3  1  0  0  0  0
  6  2  2  0  0  0  0
  7  4  2  0  0  0  0
  7  3  1  0  0  0  0
  8  1  1  0  0  0  0
  9  8  1  0  0  0  0
 10 12  1  0  0  0  0
 11 10  2  0  0  0  0
 12  9  1  0  0  0  0
 13 10  1  0  0  0  0
 14 13  1  0  0  0  0
 15 14  1  0  0  0  0
 16 17  1  6  0  0  0
 16 15  1  0  0  0  0
 18 19  1  0  0  0  0
 18 21  1  0  0  0  0
 18 16  1  0  0  0  0
 20 18  2  0  0  0  0
 22  5  1  0  0  0  0
 23 22  2  0  0  0  0
 24 27  1  0  0  0  0
 25 23  1  0  0  0  0
 25 27  2  0  0  0  0
 26 30  2  0  0  0  0
 28 25  1  0  0  0  0
 29 28  1  0  0  0  0
 29 30  1  0  0  0  0
 30 24  1  0  0  0  0
 31 33  1  0  0  0  0
 32 33  2  0  0  0  0
 33 26  1  0  0  0  0
M  END
>  <MODEL>
1

>  <REMARK>
 VINA RESULT:      -7.2      0.000      0.000
  Name = 
  12 active torsions:
  status: ('A' for Active; 'I' for Inactive)
    1  A    between atoms: C_2  and  N_3
    2  A    between atoms: C_2  and  C_12
    3  A    between atoms: N_3  and  C_18
    4  A    between atoms: C_5  and  N_25
    5  A    between atoms: C_6  and  C_8
    6  A    between atoms: C_7  and  P_9
    7  A    between atoms: C_7  and  C_18
    8  A    between atoms: C_8  and  C_17
    9  A    between atoms: N_11  and  C_31
   10  A    between atoms: C_17  and  N_28
   11  A    between atoms: C_24  and  N_26
   12  A    between atoms: N_25  and  N_26
                            x       y       z     vdW  Elec       q    Type
                         _______ _______ _______ _____ _____    ______ ____

>  <TORSDO>
F 12

$$$$
=
 OpenBabel11042422373D

 33 34  0  0  1  0  0  0  0  0999 V2000
  161.0550  205.9980  148.3370 C   0  0  0  0  0  0  0  0  0  0  0  0
  161.3660  202.6090  149.1060 N   0  0  0  0  0  2  0  0  0  0  0  0
  161.6000  203.9850  147.1710 N   0  0  0  0  0  2  0  0  0  0  0  0
  161.7240  206.0430  146.0180 O   0  0  0  0  0  0  0  0  0  0  0  0
  160.9200  205.0110  149.2100 C   0  0  0  0  0  0  0  0  0  0  0  0
  161.2190  203.7520  148.5240 C   0  0  0  0  0  0  0  0  0  0  0  0
  161.4780  205.4000  147.0730 C   0  0  0  0  0  0  0  0  0  0  0  0
  160.9130  207.4550  148.6230 C   0  0  0  0  0  2  0  0  0  0  0  0
  162.2810  208.0720  148.8590 C   0  0  0  0  0  2  0  0  0  0  0  0
  162.2300  210.5940  149.1360 C   0  0  0  0  0  0  0  0  0  0  0  0
  162.0260  210.4960  150.4090 N   0  0  0  0  0  2  0  0  0  0  0  0
  162.3200  209.4230  148.3180 N   0  0  0  0  0  2  0  0  0  0  0  0
  162.2210  211.9350  148.4930 C   0  0  0  0  0  2  0  0  0  0  0  0
  161.3590  211.9100  147.3250 N   0  0  0  0  0  2  0  0  0  0  0  0
  160.1470  212.6390  147.6700 C   0  0  0  0  0  2  0  0  0  0  0  0
  159.8090  213.6880  146.6120 C   0  0  1  0  0  3  0  0  0  0  0  0
  160.9700  214.1910  146.0230 O   0  0  0  0  0  1  0  0  0  0  0  0
  158.6920  213.0250  145.3350 P   0  0  0  0  0  0  0  0  0  0  0  0
  157.3390  212.3290  146.0730 O   0  0  0  0  0  1  0  0  0  0  0  0
  158.1910  214.2840  144.3240 O   0  0  0  0  0  0  0  0  0  0  0  0
  159.4090  211.9800  144.5120 O   0  0  0  0  0  1  0  0  0  0  0  0
  160.5770  205.1840  150.5860 N   0  0  0  0  0  2  0  0  0  0  0  0
  161.5070  205.6620  151.5190 N   0  0  0  0  0  2  0  0  0  0  0  0
  160.6370  207.0200  154.9350 C   0  0  0  0  0  2  0  0  0  0  0  0
  161.1150  206.5520  152.5620 C   0  0  0  0  0  0  0  0  0  0  0  0
  161.4040  209.1470  155.7630 N   0  0  0  0  0  0  0  0  0  0  0  0
  161.0770  206.1130  153.8210 C   0  0  0  0  0  3  0  0  0  0  0  0
  160.7260  207.9730  152.2580 C   0  0  0  0  0  2  0  0  0  0  0  0
  161.2980  208.9400  153.3030 C   0  0  0  0  0  2  0  0  0  0  0  0
  161.1440  208.4180  154.7160 C   0  0  0  0  0  0  0  0  0  0  0  0
  161.0570  211.4420  155.8890 O   0  0  0  0  0  1  0  0  0  0  0  0
  163.2400  210.7950  155.7030 O   0  0  0  0  0  0  0  0  0  0  0  0
  161.8840  210.5000  155.7870 C   0  0  0  0  0  0  0  0  0  0  0  0
  1  8  1  0  0  0  0
  1  5  2  0  0  0  0
  3  6  1  0  0  0  0
  4  7  2  0  0  0  0
  5 22  1  0  0  0  0
  6  2  2  0  0  0  0
  6  5  1  0  0  0  0
  7  3  1  0  0  0  0
  7  1  1  0  0  0  0
  8  9  1  0  0  0  0
 10 11  2  0  0  0  0
 12  9  1  0  0  0  0
 12 10  1  0  0  0  0
 13 10  1  0  0  0  0
 14 15  1  0  0  0  0
 14 13  1  0  0  0  0
 16 17  1  6  0  0  0
 16 15  1  0  0  0  0
 18 19  1  0  0  0  0
 18 16  1  0  0  0  0
 20 18  2  0  0  0  0
 21 18  1  0  0  0  0
 22 23  1  0  0  0  0
 23 25  1  0  0  0  0
 25 27  2  0  0  0  0
 26 33  1  0  0  0  0
 27 24  1  0  0  0  0
 28 25  1  0  0  0  0
 28 29  1  0  0  0  0
 29 30  1  0  0  0  0
 30 24  1  0  0  0  0
 30 26  2  0  0  0  0
 32 33  2  0  0  0  0
 33 31  1  0  0  0  0
M  END
>  <MODEL>
2

>  <REMARK>
 VINA RESULT:      -6.9      3.532      7.420
  Name = 
  12 active torsions:
  status: ('A' for Active; 'I' for Inactive)
    1  A    between atoms: C_2  and  N_3
    2  A    between atoms: C_2  and  C_12
    3  A    between atoms: N_3  and  C_18
    4  A    between atoms: C_5  and  N_25
    5  A    between atoms: C_6  and  C_8
    6  A    between atoms: C_7  and  P_9
    7  A    between atoms: C_7  and  C_18
    8  A    between atoms: C_8  and  C_17
    9  A    between atoms: N_11  and  C_31
   10  A    between atoms: C_17  and  N_28
   11  A    between atoms: C_24  and  N_26
   12  A    between atoms: N_25  and  N_26
                            x       y       z     vdW  Elec       q    Type
                         _______ _______ _______ _____ _____    ______ ____

>  <TORSDO>
F 12

$$$$
=
 OpenBabel11042422373D

 33 34  0  0  1  0  0  0  0  0999 V2000
  161.8790  207.0910  151.9490 C   0  0  0  0  0  0  0  0  0  0  0  0
  160.1630  210.0600  152.5880 N   0  0  0  0  0  2  0  0  0  0  0  0
  161.4960  209.1640  150.8250 N   0  0  0  0  0  2  0  0  0  0  0  0
  162.6850  207.4570  149.7030 O   0  0  0  0  0  0  0  0  0  0  0  0
  161.1870  207.8480  152.7860 C   0  0  0  0  0  0  0  0  0  0  0  0
  160.9560  209.1430  152.1430 C   0  0  0  0  0  0  0  0  0  0  0  0
  162.0810  207.8690  150.7290 C   0  0  0  0  0  0  0  0  0  0  0  0
  162.2770  205.6700  152.1680 C   0  0  0  0  0  2  0  0  0  0  0  0
  161.1080  204.7510  151.8560 C   0  0  0  0  0  2  0  0  0  0  0  0
  160.8810  203.2050  149.8580 C   0  0  0  0  0  0  0  0  0  0  0  0
  160.8900  202.1540  150.6110 N   0  0  0  0  0  2  0  0  0  0  0  0
  161.0300  204.5100  150.4220 N   0  0  0  0  0  2  0  0  0  0  0  0
  160.8660  203.0450  148.3790 C   0  0  0  0  0  2  0  0  0  0  0  0
  162.0670  203.6350  147.8140 N   0  0  0  0  0  2  0  0  0  0  0  0
  161.7280  204.9910  147.4040 C   0  0  0  0  0  2  0  0  0  0  0  0
  162.2870  205.3100  146.0190 C   0  0  1  0  0  3  0  0  0  0  0  0
  163.3510  204.4620  145.7060 O   0  0  0  0  0  1  0  0  0  0  0  0
  161.0030  205.2090  144.7320 P   0  0  0  0  0  0  0  0  0  0  0  0
  159.7090  206.2170  145.1420 O   0  0  0  0  0  1  0  0  0  0  0  0
  161.6550  205.7100  143.2540 O   0  0  0  0  0  0  0  0  0  0  0  0
  160.5100  203.7870  144.6020 O   0  0  0  0  0  1  0  0  0  0  0  0
  160.7290  207.4300  154.0730 N   0  0  0  0  0  2  0  0  0  0  0  0
  161.3700  207.8430  155.2490 N   0  0  0  0  0  2  0  0  0  0  0  0
  161.7110  211.2970  156.7390 C   0  0  0  0  0  2  0  0  0  0  0  0
  161.0500  209.0880  155.8650 C   0  0  0  0  0  0  0  0  0  0  0  0
  160.1910  213.1070  156.2800 N   0  0  0  0  0  0  0  0  0  0  0  0
  162.0130  209.9900  156.0620 C   0  0  0  0  0  3  0  0  0  0  0  0
  159.6470  209.3890  156.3150 C   0  0  0  0  0  2  0  0  0  0  0  0
  159.2600  210.8370  155.9900 C   0  0  0  0  0  2  0  0  0  0  0  0
  160.3660  211.8180  156.3170 C   0  0  0  0  0  0  0  0  0  0  0  0
  158.8820  214.2680  154.7500 O   0  0  0  0  0  0  0  0  0  0  0  0
  157.9610  214.0150  156.8260 O   0  0  0  0  0  1  0  0  0  0  0  0
  158.9960  213.8160  155.9190 C   0  0  0  0  0  0  0  0  0  0  0  0
  1  8  1  0  0  0  0
  1  5  2  0  0  0  0
  3  6  1  0  0  0  0
  4  7  2  0  0  0  0
  5 22  1  0  0  0  0
  6  2  2  0  0  0  0
  6  5  1  0  0  0  0
  7  3  1  0  0  0  0
  7  1  1  0  0  0  0
  9  8  1  0  0  0  0
 10 12  1  0  0  0  0
 10 11  2  0  0  0  0
 12  9  1  0  0  0  0
 13 10  1  0  0  0  0
 14 13  1  0  0  0  0
 15 14  1  0  0  0  0
 16 17  1  6  0  0  0
 16 15  1  0  0  0  0
 18 19  1  0  0  0  0
 18 16  1  0  0  0  0
 20 18  2  0  0  0  0
 21 18  1  0  0  0  0
 22 23  1  0  0  0  0
 23 25  1  0  0  0  0
 25 27  2  0  0  0  0
 25 28  1  0  0  0  0
 26 30  2  0  0  0  0
 27 24  1  0  0  0  0
 29 28  1  0  0  0  0
 29 30  1  0  0  0  0
 30 24  1  0  0  0  0
 31 33  2  0  0  0  0
 33 26  1  0  0  0  0
 33 32  1  0  0  0  0
M  END
>  <MODEL>
3

>  <REMARK>
 VINA RESULT:      -6.7      2.098      7.148
  Name = 
  12 active torsions:
  status: ('A' for Active; 'I' for Inactive)
    1  A    between atoms: C_2  and  N_3
    2  A    between atoms: C_2  and  C_12
    3  A    between atoms: N_3  and  C_18
    4  A    between atoms: C_5  and  N_25
    5  A    between atoms: C_6  and  C_8
    6  A    between atoms: C_7  and  P_9
    7  A    between atoms: C_7  and  C_18
    8  A    between atoms: C_8  and  C_17
    9  A    between atoms: N_11  and  C_31
   10  A    between atoms: C_17  and  N_28
   11  A    between atoms: C_24  and  N_26
   12  A    between atoms: N_25  and  N_26
                            x       y       z     vdW  Elec       q    Type
                         _______ _______ _______ _____ _____    ______ ____

>  <TORSDO>
F 12

$$$$
=
 OpenBabel11042422373D

 33 34  0  0  1  0  0  0  0  0999 V2000
  160.9900  208.7950  151.9240 C   0  0  0  0  0  0  0  0  0  0  0  0
  162.4870  211.0100  149.6830 N   0  0  0  0  0  2  0  0  0  0  0  0
  160.8770  211.1320  151.4390 N   0  0  0  0  0  2  0  0  0  0  0  0
  159.6440  210.2830  153.2670 O   0  0  0  0  0  0  0  0  0  0  0  0
  161.7760  208.9990  150.8780 C   0  0  0  0  0  0  0  0  0  0  0  0
  161.7120  210.4200  150.5310 C   0  0  0  0  0  0  0  0  0  0  0  0
  160.4250  210.0890  152.2980 C   0  0  0  0  0  0  0  0  0  0  0  0
  160.8070  207.5060  152.6520 C   0  0  0  0  0  2  0  0  0  0  0  0
  161.6530  207.4990  153.9140 C   0  0  0  0  0  2  0  0  0  0  0  0
  161.0740  208.9880  155.8860 C   0  0  0  0  0  0  0  0  0  0  0  0
  162.1020  209.7440  155.6760 N   0  0  0  0  0  2  0  0  0  0  0  0
  160.8330  207.8390  155.0680 N   0  0  0  0  0  2  0  0  0  0  0  0
  160.2200  209.2280  157.0790 C   0  0  0  0  0  2  0  0  0  0  0  0
  160.0270  210.6560  157.2610 N   0  0  0  0  0  2  0  0  0  0  0  0
  158.8190  211.0210  156.5350 C   0  0  0  0  0  2  0  0  0  0  0  0
  158.8500  212.4870  156.1050 C   0  0  1  0  0  3  0  0  0  0  0  0
  160.0970  212.8230  155.5760 O   0  0  0  0  0  1  0  0  0  0  0  0
  157.5340  212.8670  154.9040 P   0  0  0  0  0  0  0  0  0  0  0  0
  158.2280  213.2670  153.4140 O   0  0  0  0  0  0  0  0  0  0  0  0
  156.5440  211.5090  154.7120 O   0  0  0  0  0  1  0  0  0  0  0  0
  156.7010  214.0260  155.3980 O   0  0  0  0  0  1  0  0  0  0  0  0
  162.5660  207.9900  150.2450 N   0  0  0  0  0  2  0  0  0  0  0  0
  162.4360  207.7070  148.8790 N   0  0  0  0  0  2  0  0  0  0  0  0
  161.5260  204.6980  146.7850 C   0  0  0  0  0  2  0  0  0  0  0  0
  161.7960  206.5150  148.4300 C   0  0  0  0  0  0  0  0  0  0  0  0
  161.1370  202.5040  147.6960 N   0  0  0  0  0  0  0  0  0  0  0  0
  162.2030  205.9370  147.2980 C   0  0  0  0  0  3  0  0  0  0  0  0
  160.6570  205.9110  149.2040 C   0  0  0  0  0  2  0  0  0  0  0  0
  160.7700  204.3820  149.2570 C   0  0  0  0  0  2  0  0  0  0  0  0
  161.1520  203.7850  147.9190 C   0  0  0  0  0  0  0  0  0  0  0  0
  161.6730  200.5970  148.9140 O   0  0  0  0  0  0  0  0  0  0  0  0
  159.5460  201.3770  149.2100 O   0  0  0  0  0  1  0  0  0  0  0  0
  160.8040  201.4590  148.6230 C   0  0  0  0  0  0  0  0  0  0  0  0
  1  7  1  0  0  0  0
  1  8  1  0  0  0  0
  2  6  2  0  0  0  0
  3  7  1  0  0  0  0
  5  1  2  0  0  0  0
  6  5  1  0  0  0  0
  6  3  1  0  0  0  0
  7  4  2  0  0  0  0
  8  9  1  0  0  0  0
  9 12  1  0  0  0  0
 10 13  1  0  0  0  0
 11 10  2  0  0  0  0
 12 10  1  0  0  0  0
 13 14  1  0  0  0  0
 15 14  1  0  0  0  0
 16 17  1  6  0  0  0
 16 15  1  0  0  0  0
 18 21  1  0  0  0  0
 18 16  1  0  0  0  0
 19 18  2  0  0  0  0
 20 18  1  0  0  0  0
 22  5  1  0  0  0  0
 23 22  1  0  0  0  0
 24 27  1  0  0  0  0
 24 30  1  0  0  0  0
 25 23  1  0  0  0  0
 25 28  1  0  0  0  0
 26 30  2  0  0  0  0
 26 33  1  0  0  0  0
 27 25  2  0  0  0  0
 28 29  1  0  0  0  0
 30 29  1  0  0  0  0
 33 31  2  0  0  0  0
 33 32  1  0  0  0  0
M  END
>  <MODEL>
4

>  <REMARK>
 VINA RESULT:      -6.4      3.465      7.288
  Name = 
  12 active torsions:
  status: ('A' for Active; 'I' for Inactive)
    1  A    between atoms: C_2  and  N_3
    2  A    between atoms: C_2  and  C_12
    3  A    between atoms: N_3  and  C_18
    4  A    between atoms: C_5  and  N_25
    5  A    between atoms: C_6  and  C_8
    6  A    between atoms: C_7  and  P_9
    7  A    between atoms: C_7  and  C_18
    8  A    between atoms: C_8  and  C_17
    9  A    between atoms: N_11  and  C_31
   10  A    between atoms: C_17  and  N_28
   11  A    between atoms: C_24  and  N_26
   12  A    between atoms: N_25  and  N_26
                            x       y       z     vdW  Elec       q    Type
                         _______ _______ _______ _____ _____    ______ ____

>  <TORSDO>
F 12

$$$$
=
 OpenBabel11042422373D

 33 34  0  0  1  0  0  0  0  0999 V2000
  161.0480  205.3100  148.5060 C   0  0  0  0  0  0  0  0  0  0  0  0
  161.2020  202.2760  150.2210 N   0  0  0  0  0  2  0  0  0  0  0  0
  161.5460  203.0330  147.9850 N   0  0  0  0  0  2  0  0  0  0  0  0
  161.7850  204.6700  146.2980 O   0  0  0  0  0  0  0  0  0  0  0  0
  160.8490  204.6200  149.6180 C   0  0  0  0  0  0  0  0  0  0  0  0
  161.1170  203.2090  149.3320 C   0  0  0  0  0  0  0  0  0  0  0  0
  161.4830  204.3640  147.4820 C   0  0  0  0  0  0  0  0  0  0  0  0
  160.9550  206.7920  148.3600 C   0  0  0  0  0  2  0  0  0  0  0  0
  162.3310  207.4160  148.5230 C   0  0  0  0  0  2  0  0  0  0  0  0
  162.0770  209.7700  149.4350 C   0  0  0  0  0  0  0  0  0  0  0  0
  161.9350  210.2640  148.2490 N   0  0  0  0  0  2  0  0  0  0  0  0
  162.3190  208.3720  149.6210 N   0  0  0  0  0  2  0  0  0  0  0  0
  162.1380  210.6840  150.6070 C   0  0  0  0  0  2  0  0  0  0  0  0
  161.1430  211.7320  150.4590 N   0  0  0  0  0  2  0  0  0  0  0  0
  160.4360  211.8360  151.7270 C   0  0  0  0  0  2  0  0  0  0  0  0
  159.5740  213.0950  151.7830 C   0  0  1  0  0  3  0  0  0  0  0  0
  158.9200  213.3030  150.5670 O   0  0  0  0  0  1  0  0  0  0  0  0
  158.3650  213.0270  153.1430 P   0  0  0  0  0  0  0  0  0  0  0  0
  158.0180  211.4130  153.5120 O   0  0  0  0  0  1  0  0  0  0  0  0
  159.0180  213.7830  154.5080 O   0  0  0  0  0  1  0  0  0  0  0  0
  157.0930  213.7360  152.7420 O   0  0  0  0  0  0  0  0  0  0  0  0
  160.4730  205.1890  150.8740 N   0  0  0  0  0  0  0  0  0  0  0  0
  161.4260  205.7260  151.7490 N   0  0  0  0  0  0  0  0  0  0  0  0
  160.4680  206.9680  155.1860 C   0  0  0  0  0  2  0  0  0  0  0  0
  161.0430  206.5880  152.8190 C   0  0  0  0  0  0  0  0  0  0  0  0
  161.3420  208.9830  156.1710 N   0  0  0  0  0  0  0  0  0  0  0  0
  160.9010  206.0890  154.0470 C   0  0  0  0  0  3  0  0  0  0  0  0
  160.7790  208.0490  152.5750 C   0  0  0  0  0  2  0  0  0  0  0  0
  161.3610  208.9130  153.7020 C   0  0  0  0  0  2  0  0  0  0  0  0
  161.0890  208.3320  155.0730 C   0  0  0  0  0  0  0  0  0  0  0  0
  163.1090  210.4010  156.6910 O   0  0  0  0  0  1  0  0  0  0  0  0
  161.1990  211.4410  155.9920 O   0  0  0  0  0  0  0  0  0  0  0  0
  161.9200  210.2920  156.2960 C   0  0  0  0  0  0  0  0  0  0  0  0
  1  5  2  0  0  0  0
  3  6  1  0  0  0  0
  4  7  2  0  0  0  0
  5 22  1  0  0  0  0
  6  5  1  0  0  0  0
  6  2  2  0  0  0  0
  7  3  1  0  0  0  0
  7  1  1  0  0  0  0
  8  1  1  0  0  0  0
  8  9  1  0  0  0  0
  9 12  1  0  0  0  0
 10 12  1  0  0  0  0
 10 13  1  0  0  0  0
 11 10  2  0  0  0  0
 14 13  1  0  0  0  0
 14 15  1  0  0  0  0
 15 16  1  0  0  0  0
 16 17  1  6  0  0  0
 16 18  1  0  0  0  0
 18 19  1  0  0  0  0
 18 20  1  0  0  0  0
 21 18  2  0  0  0  0
 22 23  2  0  0  0  0
 23 25  1  0  0  0  0
 25 27  2  0  0  0  0
 26 33  1  0  0  0  0
 27 24  1  0  0  0  0
 28 25  1  0  0  0  0
 28 29  1  0  0  0  0
 29 30  1  0  0  0  0
 30 24  1  0  0  0  0
 30 26  2  0  0  0  0
 32 33  2  0  0  0  0
 33 31  1  0  0  0  0
M  END
>  <MODEL>
5

>  <REMARK>
 VINA RESULT:      -6.3      2.982      8.154
  Name = 
  12 active torsions:
  status: ('A' for Active; 'I' for Inactive)
    1  A    between atoms: C_2  and  N_3
    2  A    between atoms: C_2  and  C_12
    3  A    between atoms: N_3  and  C_18
    4  A    between atoms: C_5  and  N_25
    5  A    between atoms: C_6  and  C_8
    6  A    between atoms: C_7  and  P_9
    7  A    between atoms: C_7  and  C_18
    8  A    between atoms: C_8  and  C_17
    9  A    between atoms: N_11  and  C_31
   10  A    between atoms: C_17  and  N_28
   11  A    between atoms: C_24  and  N_26
   12  A    between atoms: N_25  and  N_26
                            x       y       z     vdW  Elec       q    Type
                         _______ _______ _______ _____ _____    ______ ____

>  <TORSDO>
F 12

$$$$
=
 OpenBabel11042422373D

 33 34  0  0  1  0  0  0  0  0999 V2000
  160.8750  207.8810  152.8670 C   0  0  0  0  0  0  0  0  0  0  0  0
  162.4580  207.7230  149.7620 N   0  0  0  0  0  2  0  0  0  0  0  0
  161.4550  209.4070  151.1220 N   0  0  0  0  0  2  0  0  0  0  0  0
  160.4800  210.2510  153.1020 O   0  0  0  0  0  0  0  0  0  0  0  0
  161.4100  207.1550  151.8970 C   0  0  0  0  0  0  0  0  0  0  0  0
  161.7540  208.0530  150.7930 C   0  0  0  0  0  0  0  0  0  0  0  0
  160.8930  209.2730  152.4240 C   0  0  0  0  0  0  0  0  0  0  0  0
  160.4410  207.3830  154.2040 C   0  0  0  0  0  2  0  0  0  0  0  0
  161.4370  207.8190  155.2660 C   0  0  0  0  0  2  0  0  0  0  0  0
  161.4850  210.1160  156.3430 C   0  0  0  0  0  0  0  0  0  0  0  0
  162.6670  210.3600  155.8770 N   0  0  0  0  0  2  0  0  0  0  0  0
  160.8520  208.8560  156.1050 N   0  0  0  0  0  2  0  0  0  0  0  0
  160.8420  211.0960  157.2580 C   0  0  0  0  0  2  0  0  0  0  0  0
  160.2680  212.1820  156.4830 N   0  0  0  0  0  2  0  0  0  0  0  0
  158.8230  212.0090  156.5060 C   0  0  0  0  0  2  0  0  0  0  0  0
  158.1070  213.2240  155.9200 C   0  0  1  0  0  3  0  0  0  0  0  0
  158.7770  213.6970  154.7900 O   0  0  0  0  0  1  0  0  0  0  0  0
  156.3710  212.8540  155.5120 P   0  0  0  0  0  0  0  0  0  0  0  0
  156.1220  213.0660  153.8530 O   0  0  0  0  0  0  0  0  0  0  0  0
  156.0300  211.2500  155.9270 O   0  0  0  0  0  1  0  0  0  0  0  0
  155.4510  213.7740  156.2800 O   0  0  0  0  0  1  0  0  0  0  0  0
  161.6320  205.7450  151.9640 N   0  0  0  0  0  2  0  0  0  0  0  0
  160.7100  204.8320  151.4370 N   0  0  0  0  0  2  0  0  0  0  0  0
  161.1710  201.6780  149.4090 C   0  0  0  0  0  2  0  0  0  0  0  0
  161.0710  203.9410  150.3840 C   0  0  0  0  0  0  0  0  0  0  0  0
  160.7250  201.5310  147.0470 N   0  0  0  0  0  0  0  0  0  0  0  0
  160.7730  202.6450  150.4880 C   0  0  0  0  0  3  0  0  0  0  0  0
  161.8020  204.4400  149.1670 C   0  0  0  0  0  2  0  0  0  0  0  0
  161.2570  203.7910  147.8890 C   0  0  0  0  0  2  0  0  0  0  0  0
  161.0220  202.3050  148.0500 C   0  0  0  0  0  0  0  0  0  0  0  0
  159.8120  201.2050  144.9340 O   0  0  0  0  0  0  0  0  0  0  0  0
  161.1590  203.0390  145.1420 O   0  0  0  0  0  1  0  0  0  0  0  0
  160.5450  201.9100  145.6740 C   0  0  0  0  0  0  0  0  0  0  0  0
  1  8  1  0  0  0  0
  2  6  2  0  0  0  0
  3  7  1  0  0  0  0
  5 22  1  0  0  0  0
  5  1  2  0  0  0  0
  6  3  1  0  0  0  0
  6  5  1  0  0  0  0
  7  1  1  0  0  0  0
  7  4  2  0  0  0  0
  8  9  1  0  0  0  0
  9 12  1  0  0  0  0
 10 13  1  0  0  0  0
 11 10  2  0  0  0  0
 12 10  1  0  0  0  0
 14 15  1  0  0  0  0
 14 13  1  0  0  0  0
 16 17  1  6  0  0  0
 16 15  1  0  0  0  0
 18 16  1  0  0  0  0
 18 20  1  0  0  0  0
 18 21  1  0  0  0  0
 19 18  2  0  0  0  0
 23 22  1  0  0  0  0
 24 27  1  0  0  0  0
 25 27  2  0  0  0  0
 25 23  1  0  0  0  0
 26 30  2  0  0  0  0
 28 25  1  0  0  0  0
 29 30  1  0  0  0  0
 29 28  1  0  0  0  0
 30 24  1  0  0  0  0
 31 33  2  0  0  0  0
 32 33  1  0  0  0  0
 33 26  1  0  0  0  0
M  END
>  <MODEL>
6

>  <REMARK>
 VINA RESULT:      -6.3      3.463      7.450
  Name = 
  12 active torsions:
  status: ('A' for Active; 'I' for Inactive)
    1  A    between atoms: C_2  and  N_3
    2  A    between atoms: C_2  and  C_12
    3  A    between atoms: N_3  and  C_18
    4  A    between atoms: C_5  and  N_25
    5  A    between atoms: C_6  and  C_8
    6  A    between atoms: C_7  and  P_9
    7  A    between atoms: C_7  and  C_18
    8  A    between atoms: C_8  and  C_17
    9  A    between atoms: N_11  and  C_31
   10  A    between atoms: C_17  and  N_28
   11  A    between atoms: C_24  and  N_26
   12  A    between atoms: N_25  and  N_26
                            x       y       z     vdW  Elec       q    Type
                         _______ _______ _______ _____ _____    ______ ____

>  <TORSDO>
F 12

$$$$
=
 OpenBabel11042422373D

 33 34  0  0  1  0  0  0  0  0999 V2000
  160.9590  204.7730  148.7670 C   0  0  0  0  0  0  0  0  0  0  0  0
  161.0470  201.5710  150.1510 N   0  0  0  0  0  2  0  0  0  0  0  0
  161.3110  202.5420  147.9870 N   0  0  0  0  0  2  0  0  0  0  0  0
  161.5440  204.3350  146.4660 O   0  0  0  0  0  0  0  0  0  0  0  0
  160.7840  203.9790  149.8120 C   0  0  0  0  0  0  0  0  0  0  0  0
  160.9630  202.5950  149.3680 C   0  0  0  0  0  0  0  0  0  0  0  0
  161.2910  203.9200  147.6280 C   0  0  0  0  0  0  0  0  0  0  0  0
  160.9340  206.2640  148.7780 C   0  0  0  0  0  2  0  0  0  0  0  0
  162.3530  206.8050  148.8340 C   0  0  0  0  0  2  0  0  0  0  0  0
  161.9560  209.2970  149.0930 C   0  0  0  0  0  0  0  0  0  0  0  0
  161.5830  209.4130  147.8600 N   0  0  0  0  0  2  0  0  0  0  0  0
  162.3890  208.0360  149.6110 N   0  0  0  0  0  2  0  0  0  0  0  0
  162.0800  210.5150  149.9370 C   0  0  0  0  0  2  0  0  0  0  0  0
  162.3030  211.6740  149.0910 N   0  0  0  0  0  2  0  0  0  0  0  0
  161.0860  212.4720  149.1250 C   0  0  0  0  0  2  0  0  0  0  0  0
  161.2460  213.7660  148.3300 C   0  0  1  0  0  3  0  0  0  0  0  0
  162.5910  214.1290  148.2370 O   0  0  0  0  0  1  0  0  0  0  0  0
  160.5150  213.6330  146.6670 P   0  0  0  0  0  0  0  0  0  0  0  0
  161.6180  214.2000  145.5170 O   0  0  0  0  0  0  0  0  0  0  0  0
  160.1560  212.0120  146.3440 O   0  0  0  0  0  1  0  0  0  0  0  0
  159.2460  214.4480  146.5910 O   0  0  0  0  0  1  0  0  0  0  0  0
  160.5050  204.4300  151.1390 N   0  0  0  0  0  2  0  0  0  0  0  0
  161.4650  205.1100  151.8990 N   0  0  0  0  0  2  0  0  0  0  0  0
  160.5940  206.9670  155.0710 C   0  0  0  0  0  2  0  0  0  0  0  0
  161.0940  206.1520  152.7980 C   0  0  0  0  0  0  0  0  0  0  0  0
  161.4340  209.1580  155.6110 N   0  0  0  0  0  0  0  0  0  0  0  0
  161.0150  205.8960  154.1050 C   0  0  0  0  0  3  0  0  0  0  0  0
  160.7700  207.5310  152.2900 C   0  0  0  0  0  2  0  0  0  0  0  0
  161.3630  208.6110  153.2030 C   0  0  0  0  0  2  0  0  0  0  0  0
  161.1630  208.3000  154.6710 C   0  0  0  0  0  0  0  0  0  0  0  0
  163.1760  210.6910  155.7490 O   0  0  0  0  0  1  0  0  0  0  0  0
  161.1920  211.5350  154.9940 O   0  0  0  0  0  0  0  0  0  0  0  0
  161.9710  210.4810  155.4580 C   0  0  0  0  0  0  0  0  0  0  0  0
  1  8  1  0  0  0  0
  1  5  2  0  0  0  0
  3  6  1  0  0  0  0
  4  7  2  0  0  0  0
  5 22  1  0  0  0  0
  6  5  1  0  0  0  0
  6  2  2  0  0  0  0
  7  3  1  0  0  0  0
  7  1  1  0  0  0  0
  8  9  1  0  0  0  0
  9 12  1  0  0  0  0
 10 12  1  0  0  0  0
 10 13  1  0  0  0  0
 11 10  2  0  0  0  0
 14 15  1  0  0  0  0
 14 13  1  0  0  0  0
 16 17  1  6  0  0  0
 16 15  1  0  0  0  0
 18 16  1  0  0  0  0
 19 18  2  0  0  0  0
 20 18  1  0  0  0  0
 21 18  1  0  0  0  0
 22 23  1  0  0  0  0
 23 25  1  0  0  0  0
 25 27  2  0  0  0  0
 27 24  1  0  0  0  0
 28 25  1  0  0  0  0
 28 29  1  0  0  0  0
 29 30  1  0  0  0  0
 30 24  1  0  0  0  0
 30 26  2  0  0  0  0
 32 33  2  0  0  0  0
 33 26  1  0  0  0  0
 33 31  1  0  0  0  0
M  END
>  <MODEL>
7

>  <REMARK>
 VINA RESULT:      -6.3      3.479      7.540
  Name = 
  12 active torsions:
  status: ('A' for Active; 'I' for Inactive)
    1  A    between atoms: C_2  and  N_3
    2  A    between atoms: C_2  and  C_12
    3  A    between atoms: N_3  and  C_18
    4  A    between atoms: C_5  and  N_25
    5  A    between atoms: C_6  and  C_8
    6  A    between atoms: C_7  and  P_9
    7  A    between atoms: C_7  and  C_18
    8  A    between atoms: C_8  and  C_17
    9  A    between atoms: N_11  and  C_31
   10  A    between atoms: C_17  and  N_28
   11  A    between atoms: C_24  and  N_26
   12  A    between atoms: N_25  and  N_26
                            x       y       z     vdW  Elec       q    Type
                         _______ _______ _______ _____ _____    ______ ____

>  <TORSDO>
F 12

$$$$
=
 OpenBabel11042422373D

 33 34  0  0  1  0  0  0  0  0999 V2000
  161.0040  204.9150  149.5180 C   0  0  0  0  0  0  0  0  0  0  0  0
  161.7800  206.2060  146.3710 N   0  0  0  0  0  2  0  0  0  0  0  0
  161.5800  204.0480  147.3680 N   0  0  0  0  0  2  0  0  0  0  0  0
  161.0140  202.5390  149.0960 O   0  0  0  0  0  0  0  0  0  0  0  0
  161.2560  205.9620  148.7470 C   0  0  0  0  0  0  0  0  0  0  0  0
  161.6420  205.4700  147.4240 C   0  0  0  0  0  0  0  0  0  0  0  0
  161.1880  203.7210  148.6980 C   0  0  0  0  0  0  0  0  0  0  0  0
  160.5120  204.9550  150.9260 C   0  0  0  0  0  2  0  0  0  0  0  0
  161.6870  205.0870  151.8810 C   0  0  0  0  0  2  0  0  0  0  0  0
  160.9180  206.7220  153.6630 C   0  0  0  0  0  0  0  0  0  0  0  0
  161.1480  207.7370  152.8960 N   0  0  0  0  0  2  0  0  0  0  0  0
  161.2090  205.3930  153.2220 N   0  0  0  0  0  2  0  0  0  0  0  0
  160.4870  206.9480  155.0680 C   0  0  0  0  0  2  0  0  0  0  0  0
  161.4770  207.7590  155.7560 N   0  0  0  0  0  2  0  0  0  0  0  0
  160.7800  208.4890  156.8060 C   0  0  0  0  0  2  0  0  0  0  0  0
  161.2820  209.9270  156.9110 C   0  0  1  0  0  3  0  0  0  0  0  0
  162.6770  209.9700  156.8820 O   0  0  0  0  0  1  0  0  0  0  0  0
  160.5930  210.9810  155.5940 P   0  0  0  0  0  0  0  0  0  0  0  0
  159.0620  210.4130  155.1570 O   0  0  0  0  0  1  0  0  0  0  0  0
  160.4590  212.5680  156.1640 O   0  0  0  0  0  1  0  0  0  0  0  0
  161.5010  210.9610  154.3870 O   0  0  0  0  0  0  0  0  0  0  0  0
  161.1270  207.3250  149.1580 N   0  0  0  0  0  0  0  0  0  0  0  0
  162.2480  208.1480  149.3290 N   0  0  0  0  0  0  0  0  0  0  0  0
  162.0170  211.8530  148.6310 C   0  0  0  0  0  2  0  0  0  0  0  0
  162.1100  209.5540  149.5180 C   0  0  0  0  0  0  0  0  0  0  0  0
  160.3810  213.3030  149.6400 N   0  0  0  0  0  0  0  0  0  0  0  0
  162.1280  210.3640  148.4590 C   0  0  0  0  0  3  0  0  0  0  0  0
  161.9650  210.1370  150.8980 C   0  0  0  0  0  2  0  0  0  0  0  0
  160.9200  211.2590  150.9180 C   0  0  0  0  0  2  0  0  0  0  0  0
  161.0510  212.1920  149.7330 C   0  0  0  0  0  0  0  0  0  0  0  0
  159.8260  214.4530  151.5830 O   0  0  0  0  0  1  0  0  0  0  0  0
  158.0540  213.6540  150.3840 O   0  0  0  0  0  0  0  0  0  0  0  0
  159.4210  213.8250  150.5720 C   0  0  0  0  0  0  0  0  0  0  0  0
  1  8  1  0  0  0  0
  2  6  2  0  0  0  0
  3  6  1  0  0  0  0
  3  7  1  0  0  0  0
  5 22  1  0  0  0  0
  5  1  2  0  0  0  0
  6  5  1  0  0  0  0
  7  4  2  0  0  0  0
  7  1  1  0  0  0  0
  8  9  1  0  0  0  0
  9 12  1  0  0  0  0
 10 13  1  0  0  0  0
 11 10  2  0  0  0  0
 12 10  1  0  0  0  0
 13 14  1  0  0  0  0
 14 15  1  0  0  0  0
 15 16  1  0  0  0  0
 16 17  1  6  0  0  0
 18 20  1  0  0  0  0
 18 16  1  0  0  0  0
 19 18  1  0  0  0  0
 21 18  2  0  0  0  0
 22 23  2  0  0  0  0
 23 25  1  0  0  0  0
 24 30  1  0  0  0  0
 25 28  1  0  0  0  0
 26 30  2  0  0  0  0
 26 33  1  0  0  0  0
 27 24  1  0  0  0  0
 27 25  2  0  0  0  0
 28 29  1  0  0  0  0
 30 29  1  0  0  0  0
 32 33  2  0  0  0  0
 33 31  1  0  0  0  0
M  END
>  <MODEL>
8

>  <REMARK>
 VINA RESULT:      -6.3      3.210      9.233
  Name = 
  12 active torsions:
  status: ('A' for Active; 'I' for Inactive)
    1  A    between atoms: C_2  and  N_3
    2  A    between atoms: C_2  and  C_12
    3  A    between atoms: N_3  and  C_18
    4  A    between atoms: C_5  and  N_25
    5  A    between atoms: C_6  and  C_8
    6  A    between atoms: C_7  and  P_9
    7  A    between atoms: C_7  and  C_18
    8  A    between atoms: C_8  and  C_17
    9  A    between atoms: N_11  and  C_31
   10  A    between atoms: C_17  and  N_28
   11  A    between atoms: C_24  and  N_26
   12  A    between atoms: N_25  and  N_26
                            x       y       z     vdW  Elec       q    Type
                         _______ _______ _______ _____ _____    ______ ____

>  <TORSDO>
F 12

$$$$
=
 OpenBabel11042422373D

 33 34  0  0  1  0  0  0  0  0999 V2000
  162.2680  208.0950  150.4780 C   0  0  0  0  0  0  0  0  0  0  0  0
  161.5800  211.4280  149.7110 N   0  0  0  0  0  2  0  0  0  0  0  0
  162.1390  209.4440  148.5100 N   0  0  0  0  0  2  0  0  0  0  0  0
  162.5260  207.1240  148.2820 O   0  0  0  0  0  0  0  0  0  0  0  0
  162.0310  209.3320  150.8870 C   0  0  0  0  0  0  0  0  0  0  0  0
  161.9730  210.1980  149.7080 C   0  0  0  0  0  0  0  0  0  0  0  0
  162.3340  208.1280  149.0190 C   0  0  0  0  0  0  0  0  0  0  0  0
  162.3400  206.8790  151.3390 C   0  0  0  0  0  2  0  0  0  0  0  0
  160.9400  206.3510  151.6060 C   0  0  0  0  0  2  0  0  0  0  0  0
  160.7650  203.9130  150.9250 C   0  0  0  0  0  0  0  0  0  0  0  0
  161.2940  203.5160  152.0360 N   0  0  0  0  0  2  0  0  0  0  0  0
  160.6090  205.3070  150.6460 N   0  0  0  0  0  2  0  0  0  0  0  0
  160.4540  202.9160  149.8650 C   0  0  0  0  0  2  0  0  0  0  0  0
  161.5240  202.9020  148.8820 N   0  0  0  0  0  2  0  0  0  0  0  0
  161.3180  204.0460  148.0070 C   0  0  0  0  0  2  0  0  0  0  0  0
  161.6480  203.7040  146.5560 C   0  0  1  0  0  3  0  0  0  0  0  0
  160.9700  202.5520  146.1510 O   0  0  0  0  0  1  0  0  0  0  0  0
  161.2680  205.0850  145.4310 P   0  0  0  0  0  0  0  0  0  0  0  0
  162.7060  205.8290  144.9420 O   0  0  0  0  0  1  0  0  0  0  0  0
  160.4570  204.4900  144.0710 O   0  0  0  0  0  0  0  0  0  0  0  0
  160.3910  206.0960  146.1310 O   0  0  0  0  0  1  0  0  0  0  0  0
  161.8350  209.7140  152.2500 N   0  0  0  0  0  2  0  0  0  0  0  0
  160.5740  209.6440  152.8560 N   0  0  0  0  0  2  0  0  0  0  0  0
  159.2860  213.1940  152.9530 C   0  0  0  0  0  2  0  0  0  0  0  0
  159.8860  210.8230  153.2680 C   0  0  0  0  0  0  0  0  0  0  0  0
  157.0000  213.7730  153.4400 N   0  0  0  0  0  0  0  0  0  0  0  0
  159.9740  211.9280  152.5260 C   0  0  0  0  0  3  0  0  0  0  0  0
  159.0790  210.8420  154.5370 C   0  0  0  0  0  2  0  0  0  0  0  0
  157.7620  211.6050  154.3450 C   0  0  0  0  0  2  0  0  0  0  0  0
  157.9480  212.8920  153.5700 C   0  0  0  0  0  0  0  0  0  0  0  0
  154.6960  213.6830  153.1430 O   0  0  0  0  0  0  0  0  0  0  0  0
  155.4020  213.6350  155.3160 O   0  0  0  0  0  1  0  0  0  0  0  0
  155.6600  213.6970  153.9510 C   0  0  0  0  0  0  0  0  0  0  0  0
  1  5  2  0  0  0  0
  1  8  1  0  0  0  0
  3  7  1  0  0  0  0
  3  6  1  0  0  0  0
  4  7  2  0  0  0  0
  5 22  1  0  0  0  0
  6  2  2  0  0  0  0
  6  5  1  0  0  0  0
  7  1  1  0  0  0  0
  8  9  1  0  0  0  0
 10 11  2  0  0  0  0
 12 10  1  0  0  0  0
 12  9  1  0  0  0  0
 13 10  1  0  0  0  0
 14 13  1  0  0  0  0
 15 14  1  0  0  0  0
 16 17  1  6  0  0  0
 16 15  1  0  0  0  0
 18 21  1  0  0  0  0
 18 16  1  0  0  0  0
 19 18  1  0  0  0  0
 20 18  2  0  0  0  0
 22 23  1  0  0  0  0
 23 25  1  0  0  0  0
 24 30  1  0  0  0  0
 25 28  1  0  0  0  0
 26 30  2  0  0  0  0
 26 33  1  0  0  0  0
 27 24  1  0  0  0  0
 27 25  2  0  0  0  0
 29 28  1  0  0  0  0
 30 29  1  0  0  0  0
 31 33  2  0  0  0  0
 33 32  1  0  0  0  0
M  END
>  <MODEL>
9

>  <REMARK>
 VINA RESULT:      -6.2      2.785      7.472
  Name = 
  12 active torsions:
  status: ('A' for Active; 'I' for Inactive)
    1  A    between atoms: C_2  and  N_3
    2  A    between atoms: C_2  and  C_12
    3  A    between atoms: N_3  and  C_18
    4  A    between atoms: C_5  and  N_25
    5  A    between atoms: C_6  and  C_8
    6  A    between atoms: C_7  and  P_9
    7  A    between atoms: C_7  and  C_18
    8  A    between atoms: C_8  and  C_17
    9  A    between atoms: N_11  and  C_31
   10  A    between atoms: C_17  and  N_28
   11  A    between atoms: C_24  and  N_26
   12  A    between atoms: N_25  and  N_26
                            x       y       z     vdW  Elec       q    Type
                         _______ _______ _______ _____ _____    ______ ____

>  <TORSDO>
F 12

$$$$
