=
 OpenBabel11052410503D

 28 30  0  0  1  0  0  0  0  0999 V2000
  161.3040  205.6100  153.1050 C   0  0  0  0  0  0  0  0  0  0  0  0
  161.2540  207.0790  150.7150 C   0  0  0  0  0  0  0  0  0  0  0  0
  160.9270  206.9540  153.1190 C   0  0  0  0  0  3  0  0  0  0  0  0
  160.8740  207.6910  151.9310 C   0  0  0  0  0  0  0  0  0  0  0  0
  161.3340  204.9030  154.2600 F   0  0  0  0  0  0  0  0  0  0  0  0
  161.6460  204.9930  151.9010 C   0  0  0  0  0  3  0  0  0  0  0  0
  161.6280  205.7260  150.7130 C   0  0  0  0  0  3  0  0  0  0  0  0
  162.6620  210.0080  152.0050 O   0  0  0  0  0  0  0  0  0  0  0  0
  161.4360  210.1450  152.2610 C   0  0  0  0  0  0  0  0  0  0  0  0
  160.5160  209.0770  152.0040 N   0  0  0  0  0  2  0  0  0  0  0  0
  158.5900  211.9430  152.4640 C   0  0  0  0  0  3  0  0  0  0  0  0
  161.0870  210.7390  156.6800 C   0  0  0  0  0  2  0  0  0  0  0  0
  161.4720  210.9700  155.2400 C   0  0  0  0  0  3  0  0  0  0  0  0
  159.8300  211.9540  152.0660 N   0  0  0  0  0  0  0  0  0  0  0  0
  160.5560  211.2070  154.2970 C   0  0  0  0  0  0  0  0  0  0  0  0
  159.1290  211.1290  154.6420 C   0  0  0  0  0  0  0  0  0  0  0  0
  158.2310  211.4610  153.7680 N   0  0  0  0  0  0  0  0  0  0  0  0
  160.9480  211.4250  152.8590 C   0  0  1  0  0  3  0  0  0  0  0  0
  158.7430  210.6390  155.9290 N   0  0  0  0  0  0  0  0  0  0  0  0
  159.6220  210.4180  156.8630 C   0  0  0  0  0  3  0  0  0  0  0  0
  161.2990  207.8450  149.5050 N   0  0  0  0  0  2  0  0  0  0  0  0
  162.1320  207.5130  148.3590 C   0  0  0  0  0  2  0  0  0  0  0  0
  161.3550  206.6220  147.4030 C   0  0  0  0  0  2  0  0  0  0  0  0
  162.2830  205.6060  146.7390 C   0  0  2  0  0  3  0  0  0  0  0  0
  161.1940  205.2920  144.6050 C   0  0  0  0  0  1  0  0  0  0  0  0
  162.3810  205.8040  145.2880 N   0  0  0  0  0  2  0  0  0  0  0  0
  161.1690  203.9260  148.0050 O   0  0  0  0  0  0  0  0  0  0  0  0
  161.9530  204.1820  147.1040 C   0  0  0  0  0  3  0  0  0  0  0  0
  1  3  1  0  0  0  0
  1  5  1  0  0  0  0
  2  4  1  0  0  0  0
  4 10  1  0  0  0  0
  4  3  2  0  0  0  0
  6  1  2  0  0  0  0
  7  2  2  0  0  0  0
  7  6  1  0  0  0  0
  8  9  2  0  0  0  0
 10  9  1  0  0  0  0
 11 17  1  0  0  0  0
 12 20  1  0  0  0  0
 13 12  1  0  0  0  0
 14 11  2  0  0  0  0
 14 18  1  0  0  0  0
 15 16  1  0  0  0  0
 15 13  2  0  0  0  0
 16 19  1  0  0  0  0
 17 16  2  0  0  0  0
 18  9  1  6  0  0  0
 18 15  1  0  0  0  0
 19 20  2  0  0  0  0
 21  2  1  0  0  0  0
 22 21  1  0  0  0  0
 23 22  1  0  0  0  0
 24 28  1  6  0  0  0
 24 23  1  0  0  0  0
 25 26  1  0  0  0  0
 26 24  1  0  0  0  0
 28 27  2  0  0  0  0
M  END
>  <MODEL>
1

>  <REMARK>
 VINA RESULT:      -7.0      0.000      0.000
  Name = 
  8 active torsions:
  status: ('A' for Active; 'I' for Inactive)
    1  A    between atoms: C_1  and  C_10
    2  A    between atoms: C_1  and  N_16
    3  A    between atoms: C_6  and  N_16
    4  A    between atoms: C_10  and  CA_25
    5  A    between atoms: C_11  and  N_28
    6  A    between atoms: C_17  and  C_22
    7  A    between atoms: N_21  and  CA_25
    8  A    between atoms: C_24  and  CA_25
                            x       y       z     vdW  Elec       q    Type
                         _______ _______ _______ _____ _____    ______ ____

>  <TORSDO>
F 8

$$$$
=
 OpenBabel11052410503D

 28 30  0  0  1  0  0  0  0  0999 V2000
  160.7510  203.7970  152.1080 C   0  0  0  0  0  0  0  0  0  0  0  0
  161.5180  205.5190  150.0310 C   0  0  0  0  0  0  0  0  0  0  0  0
  160.6770  203.3670  150.7830 C   0  0  0  0  0  3  0  0  0  0  0  0
  161.0790  204.2080  149.7390 C   0  0  0  0  0  0  0  0  0  0  0  0
  160.3750  202.9670  153.1110 F   0  0  0  0  0  0  0  0  0  0  0  0
  161.2170  205.0790  152.4030 C   0  0  0  0  0  3  0  0  0  0  0  0
  161.5920  205.9380  151.3690 C   0  0  0  0  0  3  0  0  0  0  0  0
  161.1860  201.4400  148.7920 O   0  0  0  0  0  0  0  0  0  0  0  0
  161.2340  202.3940  147.9700 C   0  0  0  0  0  0  0  0  0  0  0  0
  160.9500  203.7330  148.3930 N   0  0  0  0  0  2  0  0  0  0  0  0
  159.7800  201.4120  145.0890 C   0  0  0  0  0  3  0  0  0  0  0  0
  162.5390  205.6350  145.1800 C   0  0  0  0  0  2  0  0  0  0  0  0
  162.5390  204.3430  145.9580 C   0  0  0  0  0  3  0  0  0  0  0  0
  160.6960  201.1280  145.9710 N   0  0  0  0  0  0  0  0  0  0  0  0
  161.6100  203.4040  145.7600 C   0  0  0  0  0  0  0  0  0  0  0  0
  160.4920  203.6770  144.8460 C   0  0  0  0  0  0  0  0  0  0  0  0
  159.6430  202.7390  144.5610 N   0  0  0  0  0  0  0  0  0  0  0  0
  161.6110  202.1210  146.5490 C   0  0  1  0  0  3  0  0  0  0  0  0
  160.3230  204.9940  144.3160 N   0  0  0  0  0  0  0  0  0  0  0  0
  161.2260  205.9150  144.4860 C   0  0  0  0  0  3  0  0  0  0  0  0
  161.8420  206.4250  148.9690 N   0  0  0  0  0  2  0  0  0  0  0  0
  161.1820  207.7050  148.7580 C   0  0  0  0  0  2  0  0  0  0  0  0
  162.2240  208.8080  148.6660 C   0  0  0  0  0  2  0  0  0  0  0  0
  161.8300  209.9950  149.5440 C   0  0  2  0  0  3  0  0  0  0  0  0
  161.5320  211.8140  147.9830 C   0  0  0  0  0  1  0  0  0  0  0  0
  162.3730  211.2640  149.0440 N   0  0  0  0  0  2  0  0  0  0  0  0
  161.2610  209.8460  151.8510 O   0  0  0  0  0  0  0  0  0  0  0  0
  162.1370  209.7740  151.0020 C   0  0  0  0  0  3  0  0  0  0  0  0
  1  6  1  0  0  0  0
  1  5  1  0  0  0  0
  2  7  1  0  0  0  0
  3  1  2  0  0  0  0
  4  2  2  0  0  0  0
  4  3  1  0  0  0  0
  7  6  2  0  0  0  0
  9 10  1  0  0  0  0
  9  8  2  0  0  0  0
 10  4  1  0  0  0  0
 11 14  2  0  0  0  0
 12 13  1  0  0  0  0
 14 18  1  0  0  0  0
 15 13  2  0  0  0  0
 15 18  1  0  0  0  0
 16 15  1  0  0  0  0
 17 16  2  0  0  0  0
 17 11  1  0  0  0  0
 18  9  1  1  0  0  0
 19 20  2  0  0  0  0
 19 16  1  0  0  0  0
 20 12  1  0  0  0  0
 21  2  1  0  0  0  0
 22 21  1  0  0  0  0
 23 22  1  0  0  0  0
 24 23  1  6  0  0  0
 24 28  1  0  0  0  0
 25 26  1  0  0  0  0
 26 24  1  0  0  0  0
 28 27  2  0  0  0  0
M  END
>  <MODEL>
2

>  <REMARK>
 VINA RESULT:      -6.7      3.489      8.504
  Name = 
  8 active torsions:
  status: ('A' for Active; 'I' for Inactive)
    1  A    between atoms: C_1  and  C_10
    2  A    between atoms: C_1  and  N_16
    3  A    between atoms: C_6  and  N_16
    4  A    between atoms: C_10  and  CA_25
    5  A    between atoms: C_11  and  N_28
    6  A    between atoms: C_17  and  C_22
    7  A    between atoms: N_21  and  CA_25
    8  A    between atoms: C_24  and  CA_25
                            x       y       z     vdW  Elec       q    Type
                         _______ _______ _______ _____ _____    ______ ____

>  <TORSDO>
F 8

$$$$
=
 OpenBabel11052410503D

 28 30  0  0  1  0  0  0  0  0999 V2000
  160.3980  201.5090  150.0660 C   0  0  0  0  0  0  0  0  0  0  0  0
  161.2820  203.9740  149.0600 C   0  0  0  0  0  0  0  0  0  0  0  0
  160.8350  202.5040  150.9420 C   0  0  0  0  0  3  0  0  0  0  0  0
  161.2550  203.7460  150.4540 C   0  0  0  0  0  0  0  0  0  0  0  0
  159.9760  200.3170  150.5530 F   0  0  0  0  0  0  0  0  0  0  0  0
  160.3890  201.7430  148.6910 C   0  0  0  0  0  3  0  0  0  0  0  0
  160.8360  202.9660  148.1900 C   0  0  0  0  0  3  0  0  0  0  0  0
  160.1680  206.4150  150.9740 O   0  0  0  0  0  0  0  0  0  0  0  0
  161.2920  206.0860  151.4380 C   0  0  0  0  0  0  0  0  0  0  0  0
  161.7290  204.7220  151.3910 N   0  0  0  0  0  2  0  0  0  0  0  0
  162.0930  209.3220  150.9230 C   0  0  0  0  0  3  0  0  0  0  0  0
  160.5970  207.8190  155.5020 C   0  0  0  0  0  2  0  0  0  0  0  0
  161.2930  207.1610  154.3360 C   0  0  0  0  0  3  0  0  0  0  0  0
  162.5580  208.1060  150.9840 N   0  0  0  0  0  0  0  0  0  0  0  0
  161.4960  207.8050  153.1840 C   0  0  0  0  0  0  0  0  0  0  0  0
  160.9310  209.1500  153.0000 C   0  0  0  0  0  0  0  0  0  0  0  0
  161.2080  209.8310  151.9320 N   0  0  0  0  0  0  0  0  0  0  0  0
  162.1820  207.1370  152.0220 C   0  0  1  0  0  3  0  0  0  0  0  0
  160.0350  209.6760  153.9840 N   0  0  0  0  0  0  0  0  0  0  0  0
  159.8390  209.0680  155.1170 C   0  0  0  0  0  3  0  0  0  0  0  0
  161.7990  205.2040  148.5390 N   0  0  0  0  0  2  0  0  0  0  0  0
  161.0540  206.0980  147.6650 C   0  0  0  0  0  2  0  0  0  0  0  0
  161.9710  206.6310  146.5760 C   0  0  0  0  0  2  0  0  0  0  0  0
  161.8930  205.7510  145.3290 C   0  0  2  0  0  3  0  0  0  0  0  0
  160.4620  203.9150  144.6830 C   0  0  0  0  0  1  0  0  0  0  0  0
  160.5190  205.3350  145.0250 N   0  0  0  0  0  2  0  0  0  0  0  0
  163.8230  204.5950  146.1070 O   0  0  0  0  0  0  0  0  0  0  0  0
  162.8500  204.5880  145.3690 C   0  0  0  0  0  3  0  0  0  0  0  0
  1  5  1  0  0  0  0
  1  3  1  0  0  0  0
  2  4  1  0  0  0  0
  4  3  2  0  0  0  0
  4 10  1  0  0  0  0
  6  1  2  0  0  0  0
  7  6  1  0  0  0  0
  7  2  2  0  0  0  0
  8  9  2  0  0  0  0
 10  9  1  0  0  0  0
 11 14  2  0  0  0  0
 11 17  1  0  0  0  0
 13 12  1  0  0  0  0
 14 18  1  0  0  0  0
 15 13  2  0  0  0  0
 16 15  1  0  0  0  0
 16 19  1  0  0  0  0
 17 16  2  0  0  0  0
 18  9  1  6  0  0  0
 18 15  1  0  0  0  0
 19 20  2  0  0  0  0
 20 12  1  0  0  0  0
 21  2  1  0  0  0  0
 22 21  1  0  0  0  0
 23 22  1  0  0  0  0
 24 28  1  1  0  0  0
 24 23  1  0  0  0  0
 25 26  1  0  0  0  0
 26 24  1  0  0  0  0
 28 27  2  0  0  0  0
M  END
>  <MODEL>
3

>  <REMARK>
 VINA RESULT:      -6.6      2.510      3.735
  Name = 
  8 active torsions:
  status: ('A' for Active; 'I' for Inactive)
    1  A    between atoms: C_1  and  C_10
    2  A    between atoms: C_1  and  N_16
    3  A    between atoms: C_6  and  N_16
    4  A    between atoms: C_10  and  CA_25
    5  A    between atoms: C_11  and  N_28
    6  A    between atoms: C_17  and  C_22
    7  A    between atoms: N_21  and  CA_25
    8  A    between atoms: C_24  and  CA_25
                            x       y       z     vdW  Elec       q    Type
                         _______ _______ _______ _____ _____    ______ ____

>  <TORSDO>
F 8

$$$$
=
 OpenBabel11052410503D

 28 30  0  0  1  0  0  0  0  0999 V2000
  161.1910  204.6000  152.2360 C   0  0  0  0  0  0  0  0  0  0  0  0
  161.0460  207.4010  152.2130 C   0  0  0  0  0  0  0  0  0  0  0  0
  161.2980  205.3140  153.4300 C   0  0  0  0  0  3  0  0  0  0  0  0
  161.2030  206.7100  153.4350 C   0  0  0  0  0  0  0  0  0  0  0  0
  161.2670  203.2470  152.2460 F   0  0  0  0  0  0  0  0  0  0  0  0
  161.0010  205.2780  151.0310 C   0  0  0  0  0  3  0  0  0  0  0  0
  160.9360  206.6720  151.0190 C   0  0  0  0  0  3  0  0  0  0  0  0
  159.3150  206.8180  155.6710 O   0  0  0  0  0  0  0  0  0  0  0  0
  160.3060  207.5960  155.6390 C   0  0  0  0  0  0  0  0  0  0  0  0
  161.3550  207.3990  154.6830 N   0  0  0  0  0  2  0  0  0  0  0  0
  162.5680  209.7890  156.8420 C   0  0  0  0  0  3  0  0  0  0  0  0
  158.2620  211.4910  154.8350 C   0  0  0  0  0  2  0  0  0  0  0  0
  158.6860  210.2260  155.5380 C   0  0  0  0  0  3  0  0  0  0  0  0
  161.7220  208.8500  157.1580 N   0  0  0  0  0  0  0  0  0  0  0  0
  159.9530  210.0150  155.9030 C   0  0  0  0  0  0  0  0  0  0  0  0
  160.9870  210.9830  155.5100 C   0  0  0  0  0  0  0  0  0  0  0  0
  162.2010  210.8490  155.9460 N   0  0  0  0  0  0  0  0  0  0  0  0
  160.3690  208.7440  156.5950 C   0  0  1  0  0  3  0  0  0  0  0  0
  160.6530  212.0410  154.6070 N   0  0  0  0  0  0  0  0  0  0  0  0
  159.4210  212.2690  154.2560 C   0  0  0  0  0  3  0  0  0  0  0  0
  161.0430  208.8340  152.1900 N   0  0  0  0  0  2  0  0  0  0  0  0
  162.1490  209.6440  151.7010 C   0  0  0  0  0  2  0  0  0  0  0  0
  161.6290  210.6800  150.7170 C   0  0  0  0  0  2  0  0  0  0  0  0
  162.3680  210.5730  149.3840 C   0  0  2  0  0  3  0  0  0  0  0  0
  161.2300  211.9770  147.7800 C   0  0  0  0  0  1  0  0  0  0  0  0
  162.3930  211.8480  148.6560 N   0  0  0  0  0  2  0  0  0  0  0  0
  162.4800  208.3710  148.4850 O   0  0  0  0  0  0  0  0  0  0  0  0
  161.8780  209.4340  148.5290 C   0  0  0  0  0  3  0  0  0  0  0  0
  1  5  1  0  0  0  0
  1  3  1  0  0  0  0
  2  4  1  0  0  0  0
  3  4  2  0  0  0  0
  4 10  1  0  0  0  0
  6  1  2  0  0  0  0
  7  6  1  0  0  0  0
  7  2  2  0  0  0  0
  9  8  2  0  0  0  0
 10  9  1  0  0  0  0
 11 14  2  0  0  0  0
 12 13  1  0  0  0  0
 13 15  2  0  0  0  0
 15 18  1  0  0  0  0
 16 15  1  0  0  0  0
 16 17  2  0  0  0  0
 17 11  1  0  0  0  0
 18  9  1  6  0  0  0
 18 14  1  0  0  0  0
 19 16  1  0  0  0  0
 20 19  2  0  0  0  0
 20 12  1  0  0  0  0
 21  2  1  0  0  0  0
 22 21  1  0  0  0  0
 23 22  1  0  0  0  0
 24 28  1  6  0  0  0
 24 23  1  0  0  0  0
 25 26  1  0  0  0  0
 26 24  1  0  0  0  0
 27 28  2  0  0  0  0
M  END
>  <MODEL>
4

>  <REMARK>
 VINA RESULT:      -6.4      2.810      4.181
  Name = 
  8 active torsions:
  status: ('A' for Active; 'I' for Inactive)
    1  A    between atoms: C_1  and  C_10
    2  A    between atoms: C_1  and  N_16
    3  A    between atoms: C_6  and  N_16
    4  A    between atoms: C_10  and  CA_25
    5  A    between atoms: C_11  and  N_28
    6  A    between atoms: C_17  and  C_22
    7  A    between atoms: N_21  and  CA_25
    8  A    between atoms: C_24  and  CA_25
                            x       y       z     vdW  Elec       q    Type
                         _______ _______ _______ _____ _____    ______ ____

>  <TORSDO>
F 8

$$$$
=
 OpenBabel11052410503D

 28 30  0  0  1  0  0  0  0  0999 V2000
  162.0980  209.4860  149.2720 C   0  0  0  0  0  0  0  0  0  0  0  0
  161.4280  207.3450  150.9560 C   0  0  0  0  0  0  0  0  0  0  0  0
  161.5430  209.7340  150.5290 C   0  0  0  0  0  3  0  0  0  0  0  0
  161.2270  208.6760  151.3880 C   0  0  0  0  0  0  0  0  0  0  0  0
  162.4160  210.5210  148.4570 F   0  0  0  0  0  0  0  0  0  0  0  0
  162.3310  208.1750  148.8570 C   0  0  0  0  0  3  0  0  0  0  0  0
  161.9910  207.1090  149.6920 C   0  0  0  0  0  3  0  0  0  0  0  0
  162.3180  210.3280  153.5440 O   0  0  0  0  0  0  0  0  0  0  0  0
  161.3040  209.6080  153.7480 C   0  0  0  0  0  0  0  0  0  0  0  0
  160.6260  208.9810  152.6520 N   0  0  0  0  0  2  0  0  0  0  0  0
  162.4680  209.8380  156.9050 C   0  0  0  0  0  3  0  0  0  0  0  0
  158.2020  212.2150  155.6380 C   0  0  0  0  0  2  0  0  0  0  0  0
  158.9190  210.9790  155.1560 C   0  0  0  0  0  3  0  0  0  0  0  0
  161.9560  209.0370  156.0140 N   0  0  0  0  0  0  0  0  0  0  0  0
  160.1100  210.6230  155.6430 C   0  0  0  0  0  0  0  0  0  0  0  0
  160.7990  211.5130  156.5880 C   0  0  0  0  0  0  0  0  0  0  0  0
  161.9040  211.1340  157.1510 N   0  0  0  0  0  0  0  0  0  0  0  0
  160.8250  209.3930  155.1470 C   0  0  1  0  0  3  0  0  0  0  0  0
  160.2650  212.8160  156.8420 N   0  0  0  0  0  0  0  0  0  0  0  0
  159.0990  213.1720  156.3880 C   0  0  0  0  0  3  0  0  0  0  0  0
  161.0210  206.2490  151.7840 N   0  0  0  0  0  2  0  0  0  0  0  0
  161.6220  204.9240  151.7370 C   0  0  0  0  0  2  0  0  0  0  0  0
  160.6310  203.9330  151.1480 C   0  0  0  0  0  2  0  0  0  0  0  0
  161.1810  203.3240  149.8590 C   0  0  2  0  0  3  0  0  0  0  0  0
  161.7540  203.8520  147.5720 C   0  0  0  0  0  1  0  0  0  0  0  0
  160.8310  204.1160  148.6740 N   0  0  0  0  0  2  0  0  0  0  0  0
  159.7040  201.5190  149.3790 O   0  0  0  0  0  0  0  0  0  0  0  0
  160.8310  201.8680  149.7000 C   0  0  0  0  0  3  0  0  0  0  0  0
  1  3  1  0  0  0  0
  2  4  1  0  0  0  0
  2 21  1  0  0  0  0
  3  4  2  0  0  0  0
  4 10  1  0  0  0  0
  5  1  1  0  0  0  0
  6  1  2  0  0  0  0
  6  7  1  0  0  0  0
  7  2  2  0  0  0  0
  8  9  2  0  0  0  0
 10  9  1  0  0  0  0
 11 17  1  0  0  0  0
 12 20  1  0  0  0  0
 13 12  1  0  0  0  0
 13 15  2  0  0  0  0
 14 11  2  0  0  0  0
 15 16  1  0  0  0  0
 16 19  1  0  0  0  0
 16 17  2  0  0  0  0
 18  9  1  6  0  0  0
 18 15  1  0  0  0  0
 18 14  1  0  0  0  0
 20 19  2  0  0  0  0
 22 21  1  0  0  0  0
 23 22  1  0  0  0  0
 24 28  1  6  0  0  0
 24 23  1  0  0  0  0
 25 26  1  0  0  0  0
 26 24  1  0  0  0  0
 27 28  2  0  0  0  0
M  END
>  <MODEL>
5

>  <REMARK>
 VINA RESULT:      -6.1      2.609      3.790
  Name = 
  8 active torsions:
  status: ('A' for Active; 'I' for Inactive)
    1  A    between atoms: C_1  and  C_10
    2  A    between atoms: C_1  and  N_16
    3  A    between atoms: C_6  and  N_16
    4  A    between atoms: C_10  and  CA_25
    5  A    between atoms: C_11  and  N_28
    6  A    between atoms: C_17  and  C_22
    7  A    between atoms: N_21  and  CA_25
    8  A    between atoms: C_24  and  CA_25
                            x       y       z     vdW  Elec       q    Type
                         _______ _______ _______ _____ _____    ______ ____

>  <TORSDO>
F 8

$$$$
=
 OpenBabel11052410503D

 28 30  0  0  1  0  0  0  0  0999 V2000
  161.3560  203.4240  151.4130 C   0  0  0  0  0  0  0  0  0  0  0  0
  160.9900  205.8270  150.0140 C   0  0  0  0  0  0  0  0  0  0  0  0
  161.8900  204.6120  151.9150 C   0  0  0  0  0  3  0  0  0  0  0  0
  161.6930  205.8210  151.2390 C   0  0  0  0  0  0  0  0  0  0  0  0
  161.5390  202.2620  152.0870 F   0  0  0  0  0  0  0  0  0  0  0  0
  160.6310  203.4320  150.2210 C   0  0  0  0  0  3  0  0  0  0  0  0
  160.4550  204.6260  149.5210 C   0  0  0  0  0  3  0  0  0  0  0  0
  160.6940  207.5120  153.4110 O   0  0  0  0  0  0  0  0  0  0  0  0
  161.6430  207.9090  152.6830 C   0  0  0  0  0  0  0  0  0  0  0  0
  162.2910  207.0080  151.7770 N   0  0  0  0  0  2  0  0  0  0  0  0
  161.8070  210.6260  150.6910 C   0  0  0  0  0  3  0  0  0  0  0  0
  159.4750  210.9400  155.1540 C   0  0  0  0  0  2  0  0  0  0  0  0
  160.5960  210.1030  154.5920 C   0  0  0  0  0  3  0  0  0  0  0  0
  162.4970  209.8000  151.4260 N   0  0  0  0  0  0  0  0  0  0  0  0
  160.9620  210.1870  153.3100 C   0  0  0  0  0  0  0  0  0  0  0  0
  160.1830  211.0300  152.3920 C   0  0  0  0  0  0  0  0  0  0  0  0
  160.5860  211.2070  151.1720 N   0  0  0  0  0  0  0  0  0  0  0  0
  162.0750  209.3380  152.7550 C   0  0  1  0  0  3  0  0  0  0  0  0
  158.9540  211.6100  152.8410 N   0  0  0  0  0  0  0  0  0  0  0  0
  158.5930  211.5500  154.0890 C   0  0  0  0  0  3  0  0  0  0  0  0
  160.8620  207.0390  149.2610 N   0  0  0  0  0  2  0  0  0  0  0  0
  161.7890  207.4540  148.2180 C   0  0  0  0  0  2  0  0  0  0  0  0
  162.4980  206.2350  147.6490 C   0  0  0  0  0  2  0  0  0  0  0  0
  161.5930  205.5000  146.6600 C   0  0  2  0  0  3  0  0  0  0  0  0
  161.4330  203.3200  145.6330 C   0  0  0  0  0  1  0  0  0  0  0  0
  162.3090  204.4530  145.9210 N   0  0  0  0  0  2  0  0  0  0  0  0
  159.7440  206.1260  145.2970 O   0  0  0  0  0  0  0  0  0  0  0  0
  160.8380  206.4320  145.7490 C   0  0  0  0  0  3  0  0  0  0  0  0
  1  3  1  0  0  0  0
  1  5  1  0  0  0  0
  2  4  1  0  0  0  0
  4 10  1  0  0  0  0
  4  3  2  0  0  0  0
  6  1  2  0  0  0  0
  7  2  2  0  0  0  0
  7  6  1  0  0  0  0
  9  8  2  0  0  0  0
 10  9  1  0  0  0  0
 11 17  1  0  0  0  0
 11 14  2  0  0  0  0
 13 12  1  0  0  0  0
 14 18  1  0  0  0  0
 15 13  2  0  0  0  0
 16 19  1  0  0  0  0
 16 15  1  0  0  0  0
 17 16  2  0  0  0  0
 18  9  1  6  0  0  0
 18 15  1  0  0  0  0
 19 20  2  0  0  0  0
 20 12  1  0  0  0  0
 21  2  1  0  0  0  0
 22 21  1  0  0  0  0
 23 22  1  0  0  0  0
 24 28  1  6  0  0  0
 24 23  1  0  0  0  0
 25 26  1  0  0  0  0
 26 24  1  0  0  0  0
 27 28  2  0  0  0  0
M  END
>  <MODEL>
6

>  <REMARK>
 VINA RESULT:      -6.0      1.806      2.556
  Name = 
  8 active torsions:
  status: ('A' for Active; 'I' for Inactive)
    1  A    between atoms: C_1  and  C_10
    2  A    between atoms: C_1  and  N_16
    3  A    between atoms: C_6  and  N_16
    4  A    between atoms: C_10  and  CA_25
    5  A    between atoms: C_11  and  N_28
    6  A    between atoms: C_17  and  C_22
    7  A    between atoms: N_21  and  CA_25
    8  A    between atoms: C_24  and  CA_25
                            x       y       z     vdW  Elec       q    Type
                         _______ _______ _______ _____ _____    ______ ____

>  <TORSDO>
F 8

$$$$
=
 OpenBabel11052410503D

 28 30  0  0  1  0  0  0  0  0999 V2000
  162.2330  209.8310  151.6260 C   0  0  0  0  0  0  0  0  0  0  0  0
  161.9310  208.6550  149.0970 C   0  0  0  0  0  0  0  0  0  0  0  0
  161.9770  210.6300  150.5100 C   0  0  0  0  0  3  0  0  0  0  0  0
  161.8000  210.0540  149.2480 C   0  0  0  0  0  0  0  0  0  0  0  0
  162.3850  210.4000  152.8460 F   0  0  0  0  0  0  0  0  0  0  0  0
  162.3280  208.4460  151.4860 C   0  0  0  0  0  3  0  0  0  0  0  0
  162.1850  207.8620  150.2270 C   0  0  0  0  0  3  0  0  0  0  0  0
  163.4050  212.3510  148.4020 O   0  0  0  0  0  0  0  0  0  0  0  0
  162.2660  212.1540  147.9000 C   0  0  0  0  0  0  0  0  0  0  0  0
  161.5750  210.9200  148.1280 N   0  0  0  0  0  2  0  0  0  0  0  0
  161.0000  212.5870  144.8050 C   0  0  0  0  0  3  0  0  0  0  0  0
  158.2070  213.7810  148.8340 C   0  0  0  0  0  2  0  0  0  0  0  0
  159.6850  213.7300  148.5360 C   0  0  0  0  0  3  0  0  0  0  0  0
  161.8980  212.9970  145.6550 N   0  0  0  0  0  0  0  0  0  0  0  0
  160.1510  213.2880  147.3650 C   0  0  0  0  0  0  0  0  0  0  0  0
  159.2140  212.7270  146.3810 C   0  0  0  0  0  0  0  0  0  0  0  0
  159.6340  212.3930  145.2010 N   0  0  0  0  0  0  0  0  0  0  0  0
  161.6290  213.2290  147.0800 C   0  0  1  0  0  3  0  0  0  0  0  0
  157.8500  212.5100  146.7540 N   0  0  0  0  0  0  0  0  0  0  0  0
  157.3770  212.9490  147.8840 C   0  0  0  0  0  3  0  0  0  0  0  0
  161.8490  208.0590  147.7970 N   0  0  0  0  0  2  0  0  0  0  0  0
  162.1880  206.6720  147.5120 C   0  0  0  0  0  2  0  0  0  0  0  0
  160.9160  205.8620  147.3260 C   0  0  0  0  0  2  0  0  0  0  0  0
  161.1990  204.5900  146.5280 C   0  0  2  0  0  3  0  0  0  0  0  0
  161.1780  203.3460  148.5990 C   0  0  0  0  0  1  0  0  0  0  0  0
  161.8750  203.5650  147.3330 N   0  0  0  0  0  2  0  0  0  0  0  0
  161.3020  205.2670  144.2480 O   0  0  0  0  0  0  0  0  0  0  0  0
  161.9090  204.8580  145.2270 C   0  0  0  0  0  3  0  0  0  0  0  0
  1  5  1  0  0  0  0
  2  4  2  0  0  0  0
  2  7  1  0  0  0  0
  3  1  2  0  0  0  0
  4  3  1  0  0  0  0
  6  1  1  0  0  0  0
  7  6  2  0  0  0  0
  9 10  1  0  0  0  0
  9  8  2  0  0  0  0
 10  4  1  0  0  0  0
 11 17  1  0  0  0  0
 11 14  2  0  0  0  0
 13 12  1  0  0  0  0
 14 18  1  0  0  0  0
 15 13  2  0  0  0  0
 16 19  1  0  0  0  0
 16 15  1  0  0  0  0
 17 16  2  0  0  0  0
 18 15  1  0  0  0  0
 18  9  1  1  0  0  0
 19 20  2  0  0  0  0
 20 12  1  0  0  0  0
 21  2  1  0  0  0  0
 22 21  1  0  0  0  0
 23 22  1  0  0  0  0
 24 28  1  6  0  0  0
 24 23  1  0  0  0  0
 24 26  1  0  0  0  0
 26 25  1  0  0  0  0
 27 28  2  0  0  0  0
M  END
>  <MODEL>
7

>  <REMARK>
 VINA RESULT:      -5.9      4.047      5.654
  Name = 
  8 active torsions:
  status: ('A' for Active; 'I' for Inactive)
    1  A    between atoms: C_1  and  C_10
    2  A    between atoms: C_1  and  N_16
    3  A    between atoms: C_6  and  N_16
    4  A    between atoms: C_10  and  CA_25
    5  A    between atoms: C_11  and  N_28
    6  A    between atoms: C_17  and  C_22
    7  A    between atoms: N_21  and  CA_25
    8  A    between atoms: C_24  and  CA_25
                            x       y       z     vdW  Elec       q    Type
                         _______ _______ _______ _____ _____    ______ ____

>  <TORSDO>
F 8

$$$$
=
 OpenBabel11052410503D

 28 30  0  0  1  0  0  0  0  0999 V2000
  160.9580  205.5980  149.6400 C   0  0  0  0  0  0  0  0  0  0  0  0
  161.8350  208.1660  148.9310 C   0  0  0  0  0  0  0  0  0  0  0  0
  161.3300  206.5070  150.6320 C   0  0  0  0  0  3  0  0  0  0  0  0
  161.7460  207.7990  150.2920 C   0  0  0  0  0  0  0  0  0  0  0  0
  160.5400  204.3550  149.9830 F   0  0  0  0  0  0  0  0  0  0  0  0
  161.0120  205.9690  148.2960 C   0  0  0  0  0  3  0  0  0  0  0  0
  161.4540  207.2450  147.9430 C   0  0  0  0  0  3  0  0  0  0  0  0
  160.4500  208.2220  152.8830 O   0  0  0  0  0  0  0  0  0  0  0  0
  161.3540  209.0070  152.4900 C   0  0  0  0  0  0  0  0  0  0  0  0
  162.1520  208.6830  151.3450 N   0  0  0  0  0  2  0  0  0  0  0  0
  159.7520  211.9200  153.0610 C   0  0  0  0  0  3  0  0  0  0  0  0
  161.5150  209.2350  156.9530 C   0  0  0  0  0  2  0  0  0  0  0  0
  161.9060  209.4010  155.5060 C   0  0  0  0  0  3  0  0  0  0  0  0
  160.8250  211.3740  152.5610 N   0  0  0  0  0  0  0  0  0  0  0  0
  161.1840  210.1440  154.6640 C   0  0  0  0  0  0  0  0  0  0  0  0
  159.9140  210.7270  155.1220 C   0  0  0  0  0  0  0  0  0  0  0  0
  159.2570  211.5370  154.3530 N   0  0  0  0  0  0  0  0  0  0  0  0
  161.5750  210.2940  153.2170 C   0  0  1  0  0  3  0  0  0  0  0  0
  159.3900  210.3530  156.3990 N   0  0  0  0  0  0  0  0  0  0  0  0
  160.0870  209.6420  157.2370 C   0  0  0  0  0  3  0  0  0  0  0  0
  162.3500  209.4510  148.5630 N   0  0  0  0  0  2  0  0  0  0  0  0
  161.5820  210.6860  148.6220 C   0  0  0  0  0  2  0  0  0  0  0  0
  162.5060  211.8740  148.4070 C   0  0  0  0  0  2  0  0  0  0  0  0
  161.7010  213.1220  148.0460 C   0  0  2  0  0  3  0  0  0  0  0  0
  159.2970  213.3180  147.9130 C   0  0  0  0  0  1  0  0  0  0  0  0
  160.4500  213.2190  148.8060 N   0  0  0  0  0  2  0  0  0  0  0  0
  162.3670  212.9940  145.7630 O   0  0  0  0  0  0  0  0  0  0  0  0
  161.4850  213.2740  146.5630 C   0  0  0  0  0  3  0  0  0  0  0  0
  1  5  1  0  0  0  0
  1  3  1  0  0  0  0
  2  4  1  0  0  0  0
  4  3  2  0  0  0  0
  4 10  1  0  0  0  0
  6  1  2  0  0  0  0
  7  6  1  0  0  0  0
  7  2  2  0  0  0  0
  9  8  2  0  0  0  0
 10  9  1  0  0  0  0
 11 17  1  0  0  0  0
 12 20  1  0  0  0  0
 13 12  1  0  0  0  0
 14 11  2  0  0  0  0
 14 18  1  0  0  0  0
 15 16  1  0  0  0  0
 15 13  2  0  0  0  0
 16 19  1  0  0  0  0
 17 16  2  0  0  0  0
 18  9  1  6  0  0  0
 18 15  1  0  0  0  0
 19 20  2  0  0  0  0
 21 22  1  0  0  0  0
 21  2  1  0  0  0  0
 23 22  1  0  0  0  0
 24 28  1  6  0  0  0
 24 23  1  0  0  0  0
 24 26  1  0  0  0  0
 25 26  1  0  0  0  0
 27 28  2  0  0  0  0
M  END
>  <MODEL>
8

>  <REMARK>
 VINA RESULT:      -5.6      2.893      4.332
  Name = 
  8 active torsions:
  status: ('A' for Active; 'I' for Inactive)
    1  A    between atoms: C_1  and  C_10
    2  A    between atoms: C_1  and  N_16
    3  A    between atoms: C_6  and  N_16
    4  A    between atoms: C_10  and  CA_25
    5  A    between atoms: C_11  and  N_28
    6  A    between atoms: C_17  and  C_22
    7  A    between atoms: N_21  and  CA_25
    8  A    between atoms: C_24  and  CA_25
                            x       y       z     vdW  Elec       q    Type
                         _______ _______ _______ _____ _____    ______ ____

>  <TORSDO>
F 8

$$$$
=
 OpenBabel11052410503D

 28 30  0  0  1  0  0  0  0  0999 V2000
  161.7860  210.9350  149.0620 C   0  0  0  0  0  0  0  0  0  0  0  0
  161.8630  208.8420  150.9290 C   0  0  0  0  0  0  0  0  0  0  0  0
  162.0420  209.6300  148.6380 C   0  0  0  0  0  3  0  0  0  0  0  0
  162.0580  208.5740  149.5560 C   0  0  0  0  0  0  0  0  0  0  0  0
  161.7550  211.9460  148.1610 F   0  0  0  0  0  0  0  0  0  0  0  0
  161.5590  211.1980  150.4130 C   0  0  0  0  0  3  0  0  0  0  0  0
  161.6040  210.1580  151.3430 C   0  0  0  0  0  3  0  0  0  0  0  0
  160.2490  206.2840  149.3310 O   0  0  0  0  0  0  0  0  0  0  0  0
  161.4920  206.1250  149.1990 C   0  0  0  0  0  0  0  0  0  0  0  0
  162.3600  207.2580  149.0750 N   0  0  0  0  0  2  0  0  0  0  0  0
  160.5590  202.9850  150.0020 C   0  0  0  0  0  3  0  0  0  0  0  0
  162.4360  203.9370  145.4160 C   0  0  0  0  0  2  0  0  0  0  0  0
  162.6020  204.5470  146.7850 C   0  0  0  0  0  3  0  0  0  0  0  0
  161.4160  203.9360  150.2430 N   0  0  0  0  0  0  0  0  0  0  0  0
  161.8950  204.1200  147.8350 C   0  0  0  0  0  0  0  0  0  0  0  0
  160.8460  203.1090  147.6360 C   0  0  0  0  0  0  0  0  0  0  0  0
  160.2260  202.6070  148.6570 N   0  0  0  0  0  0  0  0  0  0  0  0
  162.0600  204.7420  149.1970 C   0  0  1  0  0  3  0  0  0  0  0  0
  160.4840  202.7250  146.3060 N   0  0  0  0  0  0  0  0  0  0  0  0
  161.1730  203.1200  145.2750 C   0  0  0  0  0  3  0  0  0  0  0  0
  161.9730  207.7880  151.8930 N   0  0  0  0  0  2  0  0  0  0  0  0
  160.8630  207.2980  152.6960 C   0  0  0  0  0  2  0  0  0  0  0  0
  161.3110  207.1280  154.1390 C   0  0  0  0  0  2  0  0  0  0  0  0
  160.6800  208.2000  155.0280 C   0  0  2  0  0  3  0  0  0  0  0  0
  160.4350  210.5960  154.8510 C   0  0  0  0  0  1  0  0  0  0  0  0
  161.3810  209.4860  154.9350 N   0  0  0  0  0  2  0  0  0  0  0  0
  159.6850  206.8810  156.7420 O   0  0  0  0  0  0  0  0  0  0  0  0
  160.4960  207.7480  156.4530 C   0  0  0  0  0  3  0  0  0  0  0  0
  1  6  1  0  0  0  0
  2  7  1  0  0  0  0
  2 21  1  0  0  0  0
  3  1  2  0  0  0  0
  3  4  1  0  0  0  0
  4  2  2  0  0  0  0
  5  1  1  0  0  0  0
  6  7  2  0  0  0  0
  9  8  2  0  0  0  0
 10  9  1  0  0  0  0
 10  4  1  0  0  0  0
 11 14  2  0  0  0  0
 12 13  1  0  0  0  0
 13 15  2  0  0  0  0
 15 18  1  0  0  0  0
 16 15  1  0  0  0  0
 16 17  2  0  0  0  0
 17 11  1  0  0  0  0
 18  9  1  6  0  0  0
 18 14  1  0  0  0  0
 19 16  1  0  0  0  0
 20 12  1  0  0  0  0
 20 19  2  0  0  0  0
 21 22  1  0  0  0  0
 22 23  1  0  0  0  0
 24 23  1  6  0  0  0
 24 28  1  0  0  0  0
 25 26  1  0  0  0  0
 26 24  1  0  0  0  0
 28 27  2  0  0  0  0
M  END
>  <MODEL>
9

>  <REMARK>
 VINA RESULT:      -5.5      3.141      8.571
  Name = 
  8 active torsions:
  status: ('A' for Active; 'I' for Inactive)
    1  A    between atoms: C_1  and  C_10
    2  A    between atoms: C_1  and  N_16
    3  A    between atoms: C_6  and  N_16
    4  A    between atoms: C_10  and  CA_25
    5  A    between atoms: C_11  and  N_28
    6  A    between atoms: C_17  and  C_22
    7  A    between atoms: N_21  and  CA_25
    8  A    between atoms: C_24  and  CA_25
                            x       y       z     vdW  Elec       q    Type
                         _______ _______ _______ _____ _____    ______ ____

>  <TORSDO>
F 8

$$$$
