=
 OpenBabel11042420443D

 27 31  0  0  1  0  0  0  0  0999 V2000
  161.9550  208.3180  151.2560 N   0  0  0  0  0  0  0  0  0  0  0  0
  161.5560  205.8190  151.5900 C   0  0  0  0  0  2  0  0  0  0  0  0
  160.7890  205.1240  150.4730 C   0  0  1  0  0  3  0  0  0  0  0  0
  162.3150  209.3810  149.2120 O   0  0  0  0  0  1  0  0  0  0  0  0
  160.7060  206.1600  149.3610 C   0  0  0  0  0  2  0  0  0  0  0  0
  161.9270  207.0490  149.5000 C   0  0  2  0  0  3  0  0  0  0  0  0
  162.3780  206.9380  150.9400 C   0  0  1  0  0  3  0  0  0  0  0  0
  161.5050  208.4570  149.8740 C   0  0  1  0  0  3  0  0  0  0  0  0
  162.4310  204.4960  147.2990 O   0  0  0  0  0  0  0  0  0  0  0  0
  160.6520  201.6620  150.2120 C   0  0  0  0  0  2  0  0  0  0  0  0
  161.6750  203.5370  147.6070 C   0  0  0  0  0  0  0  0  0  0  0  0
  161.5220  202.3170  146.7870 C   0  0  1  0  0  3  0  0  0  0  0  0
  161.2380  202.8470  150.9740 C   0  0  0  0  0  2  0  0  0  0  0  0
  160.9450  203.4920  148.8180 N   0  0  0  0  0  0  0  0  0  0  0  0
  160.2410  202.2380  148.8860 C   0  0  1  0  0  3  0  0  0  0  0  0
  160.7560  201.3780  147.7230 C   0  0  0  0  0  2  0  0  0  0  0  0
  161.5170  203.9290  150.0240 N   0  0  1  0  0  0  0  0  0  0  0  0
  160.8480  203.7070  144.9740 O   0  0  0  0  0  0  0  0  0  0  0  0
  159.8360  201.6190  145.0180 N   0  0  0  0  0  1  0  0  0  0  0  0
  160.7270  202.5960  145.5510 C   0  0  0  0  0  0  0  0  0  0  0  0
  160.7710  208.4030  152.1140 C   0  0  0  0  0  2  0  0  0  0  0  0
  161.0420  209.2950  153.3220 C   0  0  0  0  0  2  0  0  0  0  0  0
  160.7860  208.5940  154.6570 C   0  0  1  0  0  3  0  0  0  0  0  0
  161.1240  207.2420  154.5780 O   0  0  0  0  0  1  0  0  0  0  0  0
  161.5360  209.2600  155.8000 C   0  0  2  0  0  3  0  0  0  0  0  0
  161.6130  208.3650  156.8820 O   0  0  0  0  0  0  0  0  0  0  0  0
  160.6560  209.3910  156.9810 C   0  0  0  0  0  2  0  0  0  0  0  0
  1 21  1  0  0  0  0
  3  5  1  6  0  0  0
  3  2  1  0  0  0  0
  6  5  1  1  0  0  0
  6  8  1  0  0  0  0
  6  7  1  0  0  0  0
  7  1  1  0  0  0  0
  7  2  1  1  0  0  0
  8  4  1  6  0  0  0
  8  1  1  0  0  0  0
  9 11  2  0  0  0  0
 10 13  1  0  0  0  0
 11 14  1  0  0  0  0
 12 20  1  6  0  0  0
 12 11  1  0  0  0  0
 12 16  1  0  0  0  0
 14 15  1  0  0  0  0
 14 17  1  0  0  0  0
 15 16  1  6  0  0  0
 15 10  1  0  0  0  0
 17  3  1  0  0  0  0
 17 13  1  1  0  0  0
 18 20  2  0  0  0  0
 19 20  1  0  0  0  0
 21 22  1  0  0  0  0
 22 23  1  0  0  0  0
 23 24  1  6  0  0  0
 25 23  1  6  0  0  0
 25 26  1  0  0  0  0
 25 27  1  0  0  0  0
 26 27  1  0  0  0  0
M  END
>  <MODEL>
1

>  <REMARK>
 VINA RESULT:      -8.4      0.000      0.000
  Name = 
  6 active torsions:
  status: ('A' for Active; 'I' for Inactive)
    1  A    between atoms: C_1  and  C_12
    2  A    between atoms: C_2  and  C_12
    3  A    between atoms: C_2  and  C_18
    4  A    between atoms: C_7  and  C_27
    5  A    between atoms: N_8  and  C_18
    6  A    between atoms: C_11  and  N_24
                            x       y       z     vdW  Elec       q    Type
                         _______ _______ _______ _____ _____    ______ ____

>  <TORSDO>
F 6

$$$$
=
 OpenBabel11042420443D

 27 31  0  0  1  0  0  0  0  0999 V2000
  161.9170  208.2750  151.4110 N   0  0  0  0  0  0  0  0  0  0  0  0
  161.4970  205.7690  151.6680 C   0  0  0  0  0  2  0  0  0  0  0  0
  160.7670  205.1070  150.5070 C   0  0  1  0  0  3  0  0  0  0  0  0
  162.3520  209.3880  149.4090 O   0  0  0  0  0  1  0  0  0  0  0  0
  160.7270  206.1710  149.4200 C   0  0  0  0  0  2  0  0  0  0  0  0
  161.9460  207.0510  149.6240 C   0  0  2  0  0  3  0  0  0  0  0  0
  162.3460  206.9010  151.0750 C   0  0  1  0  0  3  0  0  0  0  0  0
  161.5160  208.4510  150.0180 C   0  0  1  0  0  3  0  0  0  0  0  0
  162.4190  204.5090  147.3330 O   0  0  0  0  0  0  0  0  0  0  0  0
  160.6600  201.6450  150.2300 C   0  0  0  0  0  2  0  0  0  0  0  0
  161.6700  203.5420  147.6350 C   0  0  0  0  0  0  0  0  0  0  0  0
  161.5290  202.3250  146.8090 C   0  0  1  0  0  3  0  0  0  0  0  0
  161.2350  202.8310  150.9980 C   0  0  0  0  0  2  0  0  0  0  0  0
  160.9390  203.4850  148.8450 N   0  0  0  0  0  0  0  0  0  0  0  0
  160.2460  202.2240  148.9060 C   0  0  1  0  0  3  0  0  0  0  0  0
  160.7700  201.3740  147.7390 C   0  0  0  0  0  2  0  0  0  0  0  0
  161.5060  203.9210  150.0530 N   0  0  1  0  0  0  0  0  0  0  0  0
  160.8800  203.7000  144.9760 O   0  0  0  0  0  0  0  0  0  0  0  0
  159.8140  201.6400  145.0620 N   0  0  0  0  0  1  0  0  0  0  0  0
  160.7330  202.6030  145.5730 C   0  0  0  0  0  0  0  0  0  0  0  0
  160.7040  208.3430  152.2290 C   0  0  0  0  0  2  0  0  0  0  0  0
  161.0290  208.8380  153.6360 C   0  0  0  0  0  2  0  0  0  0  0  0
  160.5430  210.2640  153.8990 C   0  0  1  0  0  3  0  0  0  0  0  0
  161.5080  210.9950  154.5940 O   0  0  0  0  0  1  0  0  0  0  0  0
  160.1630  210.9810  152.6130 C   0  0  2  0  0  3  0  0  0  0  0  0
  159.9390  212.3410  152.8930 O   0  0  0  0  0  0  0  0  0  0  0  0
  158.7980  211.5370  152.7220 C   0  0  0  0  0  2  0  0  0  0  0  0
  1 21  1  0  0  0  0
  3  5  1  6  0  0  0
  3  2  1  0  0  0  0
  6  5  1  1  0  0  0
  6  8  1  0  0  0  0
  6  7  1  0  0  0  0
  7  1  1  0  0  0  0
  7  2  1  1  0  0  0
  8  4  1  6  0  0  0
  8  1  1  0  0  0  0
  9 11  2  0  0  0  0
 10 13  1  0  0  0  0
 11 14  1  0  0  0  0
 12 20  1  6  0  0  0
 12 11  1  0  0  0  0
 12 16  1  0  0  0  0
 14 15  1  0  0  0  0
 14 17  1  0  0  0  0
 15 16  1  6  0  0  0
 15 10  1  0  0  0  0
 17  3  1  0  0  0  0
 17 13  1  1  0  0  0
 18 20  2  0  0  0  0
 19 20  1  0  0  0  0
 21 22  1  0  0  0  0
 22 23  1  0  0  0  0
 23 24  1  6  0  0  0
 25 27  1  0  0  0  0
 25 26  1  0  0  0  0
 25 23  1  1  0  0  0
 27 26  1  0  0  0  0
M  END
>  <MODEL>
2

>  <REMARK>
 VINA RESULT:      -8.4      1.449      1.864
  Name = 
  6 active torsions:
  status: ('A' for Active; 'I' for Inactive)
    1  A    between atoms: C_1  and  C_12
    2  A    between atoms: C_2  and  C_12
    3  A    between atoms: C_2  and  C_18
    4  A    between atoms: C_7  and  C_27
    5  A    between atoms: N_8  and  C_18
    6  A    between atoms: C_11  and  N_24
                            x       y       z     vdW  Elec       q    Type
                         _______ _______ _______ _____ _____    ______ ____

>  <TORSDO>
F 6

$$$$
=
 OpenBabel11042420443D

 27 31  0  0  1  0  0  0  0  0999 V2000
  161.8220  207.3670  152.5840 N   0  0  0  0  0  0  0  0  0  0  0  0
  161.6010  205.0510  151.5330 C   0  0  0  0  0  2  0  0  0  0  0  0
  160.9070  205.0110  150.1780 C   0  0  1  0  0  3  0  0  0  0  0  0
  162.1410  209.3660  151.4260 O   0  0  0  0  0  1  0  0  0  0  0  0
  160.7700  206.4720  149.7740 C   0  0  0  0  0  2  0  0  0  0  0  0
  161.9200  207.2170  150.4250 C   0  0  2  0  0  3  0  0  0  0  0  0
  162.3510  206.3870  151.6130 C   0  0  1  0  0  3  0  0  0  0  0  0
  161.3890  208.1910  151.4590 C   0  0  1  0  0  3  0  0  0  0  0  0
  162.6440  206.2390  147.2390 O   0  0  0  0  0  0  0  0  0  0  0  0
  161.0310  202.2040  148.1340 C   0  0  0  0  0  2  0  0  0  0  0  0
  161.9550  205.2230  146.9570 C   0  0  0  0  0  0  0  0  0  0  0  0
  161.9070  204.6110  145.6130 C   0  0  1  0  0  3  0  0  0  0  0  0
  161.5150  202.8400  149.4340 C   0  0  0  0  0  2  0  0  0  0  0  0
  161.2100  204.5070  147.9240 N   0  0  0  0  0  0  0  0  0  0  0  0
  160.6000  203.3690  147.2870 C   0  0  1  0  0  3  0  0  0  0  0  0
  161.1970  203.2800  145.8750 C   0  0  0  0  0  2  0  0  0  0  0  0
  161.7290  204.2740  149.2090 N   0  0  1  0  0  0  0  0  0  0  0  0
  160.0790  206.0420  145.0770 O   0  0  0  0  0  0  0  0  0  0  0  0
  161.5160  205.6080  143.3070 N   0  0  0  0  0  1  0  0  0  0  0  0
  161.1130  205.4560  144.6670 C   0  0  0  0  0  0  0  0  0  0  0  0
  160.6200  206.9240  153.2930 C   0  0  0  0  0  2  0  0  0  0  0  0
  160.7680  207.1400  154.7960 C   0  0  0  0  0  2  0  0  0  0  0  0
  161.1090  208.5850  155.1650 C   0  0  1  0  0  3  0  0  0  0  0  0
  160.1880  209.4690  154.6000 O   0  0  0  0  0  1  0  0  0  0  0  0
  161.1770  208.7850  156.6710 C   0  0  2  0  0  3  0  0  0  0  0  0
  161.2750  210.1600  156.9490 O   0  0  0  0  0  0  0  0  0  0  0  0
  162.4620  209.4130  157.0450 C   0  0  0  0  0  2  0  0  0  0  0  0
  1 21  1  0  0  0  0
  3  5  1  6  0  0  0
  3  2  1  0  0  0  0
  6  5  1  6  0  0  0
  6  8  1  0  0  0  0
  6  7  1  0  0  0  0
  7  2  1  6  0  0  0
  7  1  1  0  0  0  0
  8  4  1  1  0  0  0
  8  1  1  0  0  0  0
 10 13  1  0  0  0  0
 11  9  2  0  0  0  0
 11 14  1  0  0  0  0
 12 20  1  6  0  0  0
 12 16  1  0  0  0  0
 12 11  1  0  0  0  0
 14 17  1  0  0  0  0
 15 16  1  6  0  0  0
 15 14  1  0  0  0  0
 15 10  1  0  0  0  0
 17 13  1  1  0  0  0
 17  3  1  0  0  0  0
 19 20  1  0  0  0  0
 20 18  2  0  0  0  0
 21 22  1  0  0  0  0
 22 23  1  0  0  0  0
 23 24  1  1  0  0  0
 25 23  1  6  0  0  0
 25 26  1  0  0  0  0
 25 27  1  0  0  0  0
 26 27  1  0  0  0  0
M  END
>  <MODEL>
3

>  <REMARK>
 VINA RESULT:      -7.6      1.781      2.004
  Name = 
  6 active torsions:
  status: ('A' for Active; 'I' for Inactive)
    1  A    between atoms: C_1  and  C_12
    2  A    between atoms: C_2  and  C_12
    3  A    between atoms: C_2  and  C_18
    4  A    between atoms: C_7  and  C_27
    5  A    between atoms: N_8  and  C_18
    6  A    between atoms: C_11  and  N_24
                            x       y       z     vdW  Elec       q    Type
                         _______ _______ _______ _____ _____    ______ ____

>  <TORSDO>
F 6

$$$$
=
 OpenBabel11042420443D

 27 31  0  0  1  0  0  0  0  0999 V2000
  161.7290  203.9030  150.1590 N   0  0  0  0  0  0  0  0  0  0  0  0
  161.7570  206.4570  150.1980 C   0  0  0  0  0  2  0  0  0  0  0  0
  160.9250  207.1030  151.2970 C   0  0  1  0  0  3  0  0  0  0  0  0
  161.5890  202.5120  152.0250 O   0  0  0  0  0  1  0  0  0  0  0  0
  160.5110  205.9470  152.1960 C   0  0  0  0  0  2  0  0  0  0  0  0
  161.5960  204.8930  152.0820 C   0  0  2  0  0  3  0  0  0  0  0  0
  162.2900  205.1320  150.7600 C   0  0  1  0  0  3  0  0  0  0  0  0
  161.0420  203.6450  151.4210 C   0  0  1  0  0  3  0  0  0  0  0  0
  161.0330  207.7570  154.8640 O   0  0  0  0  0  0  0  0  0  0  0  0
  161.9130  210.4310  151.4350 C   0  0  0  0  0  2  0  0  0  0  0  0
  160.8940  208.8300  154.2190 C   0  0  0  0  0  0  0  0  0  0  0  0
  160.8230  210.1640  154.8490 C   0  0  1  0  0  3  0  0  0  0  0  0
  162.3230  209.0080  151.0670 C   0  0  0  0  0  2  0  0  0  0  0  0
  160.8690  208.8780  152.8050 N   0  0  0  0  0  0  0  0  0  0  0  0
  160.7670  210.2540  152.3910 C   0  0  1  0  0  3  0  0  0  0  0  0
  160.9580  211.1090  153.6520 C   0  0  0  0  0  2  0  0  0  0  0  0
  161.7340  208.0800  152.0390 N   0  0  1  0  0  0  0  0  0  0  0  0
  159.3650  209.9730  156.7230 O   0  0  0  0  0  0  0  0  0  0  0  0
  158.4210  210.9960  154.8660 N   0  0  0  0  0  1  0  0  0  0  0  0
  159.5100  210.3640  155.5370 C   0  0  0  0  0  0  0  0  0  0  0  0
  160.7030  204.1450  149.1420 C   0  0  0  0  0  2  0  0  0  0  0  0
  161.1760  203.6620  147.7730 C   0  0  0  0  0  2  0  0  0  0  0  0
  161.6430  204.7990  146.8630 C   0  0  1  0  0  3  0  0  0  0  0  0
  163.0360  204.8230  146.7770 O   0  0  0  0  0  1  0  0  0  0  0  0
  161.0300  204.7030  145.4740 C   0  0  2  0  0  3  0  0  0  0  0  0
  161.6500  205.6430  144.6320 O   0  0  0  0  0  0  0  0  0  0  0  0
  160.3730  205.9770  145.1170 C   0  0  0  0  0  2  0  0  0  0  0  0
  1  7  1  0  0  0  0
  1  8  1  0  0  0  0
  3  2  1  6  0  0  0
  3 17  1  0  0  0  0
  3  5  1  0  0  0  0
  6  5  1  6  0  0  0
  7  2  1  6  0  0  0
  7  6  1  0  0  0  0
  8  4  1  1  0  0  0
  8  6  1  0  0  0  0
 11 12  1  0  0  0  0
 11  9  2  0  0  0  0
 12 20  1  6  0  0  0
 13 10  1  0  0  0  0
 14 11  1  0  0  0  0
 15 10  1  6  0  0  0
 15 14  1  0  0  0  0
 15 16  1  0  0  0  0
 16 12  1  0  0  0  0
 17 13  1  6  0  0  0
 17 14  1  0  0  0  0
 19 20  1  0  0  0  0
 20 18  2  0  0  0  0
 21  1  1  0  0  0  0
 22 21  1  0  0  0  0
 23 24  1  6  0  0  0
 23 22  1  0  0  0  0
 25 23  1  1  0  0  0
 26 27  1  0  0  0  0
 26 25  1  0  0  0  0
 27 25  1  0  0  0  0
M  END
>  <MODEL>
4

>  <REMARK>
 VINA RESULT:      -6.6      2.172      8.595
  Name = 
  6 active torsions:
  status: ('A' for Active; 'I' for Inactive)
    1  A    between atoms: C_1  and  C_12
    2  A    between atoms: C_2  and  C_12
    3  A    between atoms: C_2  and  C_18
    4  A    between atoms: C_7  and  C_27
    5  A    between atoms: N_8  and  C_18
    6  A    between atoms: C_11  and  N_24
                            x       y       z     vdW  Elec       q    Type
                         _______ _______ _______ _____ _____    ______ ____

>  <TORSDO>
F 6

$$$$
=
 OpenBabel11042420443D

 27 31  0  0  1  0  0  0  0  0999 V2000
  161.1020  208.1970  152.7640 N   0  0  0  0  0  0  0  0  0  0  0  0
  161.2090  207.8240  150.2400 C   0  0  0  0  0  2  0  0  0  0  0  0
  161.8260  206.5040  149.7990 C   0  0  1  0  0  3  0  0  0  0  0  0
  160.7690  206.5430  154.3740 O   0  0  0  0  0  1  0  0  0  0  0  0
  161.9780  205.7030  151.0840 C   0  0  0  0  0  2  0  0  0  0  0  0
  160.8830  206.1720  152.0240 C   0  0  2  0  0  3  0  0  0  0  0  0
  160.4970  207.5630  151.5730 C   0  0  1  0  0  3  0  0  0  0  0  0
  161.4930  206.8680  153.2250 C   0  0  1  0  0  3  0  0  0  0  0  0
  159.8480  203.5010  150.2800 O   0  0  0  0  0  0  0  0  0  0  0  0
  161.5620  205.2380  146.5740 C   0  0  0  0  0  2  0  0  0  0  0  0
  160.5200  203.4260  149.2170 C   0  0  0  0  0  0  0  0  0  0  0  0
  160.4660  202.2770  148.2910 C   0  0  1  0  0  3  0  0  0  0  0  0
  161.1790  206.3740  147.5180 C   0  0  0  0  0  2  0  0  0  0  0  0
  161.3470  204.4780  148.7550 N   0  0  0  0  0  0  0  0  0  0  0  0
  161.9130  204.0960  147.4870 C   0  0  1  0  0  3  0  0  0  0  0  0
  161.2050  202.8030  147.0580 C   0  0  0  0  0  2  0  0  0  0  0  0
  160.9350  205.8170  148.8540 N   0  0  1  0  0  0  0  0  0  0  0  0
  161.6210  200.2030  148.0940 O   0  0  0  0  0  0  0  0  0  0  0  0
  161.3480  200.9520  150.2730 N   0  0  0  0  0  1  0  0  0  0  0  0
  161.1730  201.0900  148.8650 C   0  0  0  0  0  0  0  0  0  0  0  0
  162.3300  208.9450  152.4880 C   0  0  0  0  0  2  0  0  0  0  0  0
  162.2350  210.3630  153.0460 C   0  0  0  0  0  2  0  0  0  0  0  0
  161.5750  210.4240  154.4240 C   0  0  1  0  0  3  0  0  0  0  0  0
  162.5210  210.7020  155.4120 O   0  0  0  0  0  1  0  0  0  0  0  0
  160.4480  211.4440  154.4700 C   0  0  2  0  0  3  0  0  0  0  0  0
  160.2100  211.8070  155.8070 O   0  0  0  0  0  0  0  0  0  0  0  0
  159.3010  210.9040  155.2290 C   0  0  0  0  0  2  0  0  0  0  0  0
  1  8  1  0  0  0  0
  3  2  1  1  0  0  0
  3  5  1  0  0  0  0
  6  5  1  6  0  0  0
  6  8  1  0  0  0  0
  7  2  1  6  0  0  0
  7  6  1  0  0  0  0
  7  1  1  0  0  0  0
  8  4  1  1  0  0  0
 10 13  1  0  0  0  0
 11  9  2  0  0  0  0
 12 20  1  1  0  0  0
 12 11  1  0  0  0  0
 14 17  1  0  0  0  0
 14 11  1  0  0  0  0
 15 10  1  6  0  0  0
 15 14  1  0  0  0  0
 16 15  1  0  0  0  0
 16 12  1  0  0  0  0
 17 13  1  6  0  0  0
 17  3  1  0  0  0  0
 18 20  2  0  0  0  0
 20 19  1  0  0  0  0
 21  1  1  0  0  0  0
 21 22  1  0  0  0  0
 22 23  1  0  0  0  0
 23 24  1  1  0  0  0
 25 23  1  1  0  0  0
 25 27  1  0  0  0  0
 25 26  1  0  0  0  0
 27 26  1  0  0  0  0
M  END
>  <MODEL>
5

>  <REMARK>
 VINA RESULT:      -6.5      2.373      3.297
  Name = 
  6 active torsions:
  status: ('A' for Active; 'I' for Inactive)
    1  A    between atoms: C_1  and  C_12
    2  A    between atoms: C_2  and  C_12
    3  A    between atoms: C_2  and  C_18
    4  A    between atoms: C_7  and  C_27
    5  A    between atoms: N_8  and  C_18
    6  A    between atoms: C_11  and  N_24
                            x       y       z     vdW  Elec       q    Type
                         _______ _______ _______ _____ _____    ______ ____

>  <TORSDO>
F 6

$$$$
=
 OpenBabel11042420443D

 27 31  0  0  1  0  0  0  0  0999 V2000
  160.8290  209.3250  155.8180 N   0  0  0  0  0  0  0  0  0  0  0  0
  160.4570  207.2720  154.3450 C   0  0  0  0  0  2  0  0  0  0  0  0
  160.5830  207.5120  152.8460 C   0  0  1  0  0  3  0  0  0  0  0  0
  162.3060  211.0740  155.3730 O   0  0  0  0  0  1  0  0  0  0  0  0
  161.1390  208.9230  152.7270 C   0  0  0  0  0  2  0  0  0  0  0  0
  161.9620  209.1760  153.9770 C   0  0  2  0  0  3  0  0  0  0  0  0
  161.4380  208.2300  155.0340 C   0  0  1  0  0  3  0  0  0  0  0  0
  161.3160  210.2650  154.8120 C   0  0  1  0  0  3  0  0  0  0  0  0
  162.3680  207.6650  149.6920 O   0  0  0  0  0  0  0  0  0  0  0  0
  161.0090  204.1580  152.0450 C   0  0  0  0  0  2  0  0  0  0  0  0
  161.7700  206.5630  149.8120 C   0  0  0  0  0  0  0  0  0  0  0  0
  161.8320  205.4830  148.8060 C   0  0  1  0  0  3  0  0  0  0  0  0
  161.3820  205.2820  153.0070 C   0  0  0  0  0  2  0  0  0  0  0  0
  161.0320  206.2120  150.9670 N   0  0  0  0  0  0  0  0  0  0  0  0
  160.5380  204.8680  150.8070 C   0  0  1  0  0  3  0  0  0  0  0  0
  161.2080  204.2970  149.5490 C   0  0  0  0  0  2  0  0  0  0  0  0
  161.5020  206.5330  152.2510 N   0  0  1  0  0  0  0  0  0  0  0  0
  160.0220  206.5770  147.7100 O   0  0  0  0  0  0  0  0  0  0  0  0
  161.3860  205.3280  146.3090 N   0  0  0  0  0  1  0  0  0  0  0  0
  161.0270  205.8300  147.5940 C   0  0  0  0  0  0  0  0  0  0  0  0
  159.3650  209.3540  155.7730 C   0  0  0  0  0  2  0  0  0  0  0  0
  158.8370  210.7030  156.2560 C   0  0  0  0  0  2  0  0  0  0  0  0
  157.7250  211.2660  155.3700 C   0  0  1  0  0  3  0  0  0  0  0  0
  156.6130  211.6180  156.1370 O   0  0  0  0  0  1  0  0  0  0  0  0
  158.2000  212.4560  154.5510 C   0  0  2  0  0  3  0  0  0  0  0  0
  157.2070  212.7960  153.6150 O   0  0  0  0  0  0  0  0  0  0  0  0
  158.3150  212.0820  153.1250 C   0  0  0  0  0  2  0  0  0  0  0  0
  3  5  1  1  0  0  0
  3  2  1  0  0  0  0
  6  5  1  6  0  0  0
  6  8  1  0  0  0  0
  6  7  1  0  0  0  0
  7  2  1  6  0  0  0
  7  1  1  0  0  0  0
  8  4  1  1  0  0  0
  8  1  1  0  0  0  0
  9 11  2  0  0  0  0
 10 13  1  0  0  0  0
 11 14  1  0  0  0  0
 12 20  1  6  0  0  0
 12 16  1  0  0  0  0
 12 11  1  0  0  0  0
 14 17  1  0  0  0  0
 15 16  1  6  0  0  0
 15 14  1  0  0  0  0
 15 10  1  0  0  0  0
 17  3  1  0  0  0  0
 17 13  1  1  0  0  0
 19 20  1  0  0  0  0
 20 18  2  0  0  0  0
 21  1  1  0  0  0  0
 21 22  1  0  0  0  0
 23 24  1  1  0  0  0
 23 22  1  0  0  0  0
 25 23  1  1  0  0  0
 26 25  1  0  0  0  0
 27 26  1  0  0  0  0
 27 25  1  0  0  0  0
M  END
>  <MODEL>
6

>  <REMARK>
 VINA RESULT:      -6.4      2.909      4.418
  Name = 
  6 active torsions:
  status: ('A' for Active; 'I' for Inactive)
    1  A    between atoms: C_1  and  C_12
    2  A    between atoms: C_2  and  C_12
    3  A    between atoms: C_2  and  C_18
    4  A    between atoms: C_7  and  C_27
    5  A    between atoms: N_8  and  C_18
    6  A    between atoms: C_11  and  N_24
                            x       y       z     vdW  Elec       q    Type
                         _______ _______ _______ _____ _____    ______ ____

>  <TORSDO>
F 6

$$$$
=
 OpenBabel11042420443D

 27 31  0  0  1  0  0  0  0  0999 V2000
  161.6320  207.8540  148.2830 N   0  0  0  0  0  0  0  0  0  0  0  0
  161.1150  206.4560  150.3560 C   0  0  0  0  0  2  0  0  0  0  0  0
  161.7800  206.9250  151.6440 C   0  0  1  0  0  3  0  0  0  0  0  0
  161.9890  210.1580  148.2450 O   0  0  0  0  0  1  0  0  0  0  0  0
  162.3850  208.2760  151.2930 C   0  0  0  0  0  2  0  0  0  0  0  0
  161.5250  208.8700  150.1940 C   0  0  2  0  0  3  0  0  0  0  0  0
  160.8320  207.7080  149.5170 C   0  0  1  0  0  3  0  0  0  0  0  0
  162.3240  208.9770  148.9090 C   0  0  1  0  0  3  0  0  0  0  0  0
  159.9370  209.8630  152.7070 O   0  0  0  0  0  0  0  0  0  0  0  0
  161.1000  206.2350  154.9800 C   0  0  0  0  0  2  0  0  0  0  0  0
  160.4600  209.2830  153.6960 C   0  0  0  0  0  0  0  0  0  0  0  0
  160.2980  209.7360  155.0930 C   0  0  1  0  0  3  0  0  0  0  0  0
  160.8300  205.8420  153.5310 C   0  0  0  0  0  2  0  0  0  0  0  0
  161.1970  208.0810  153.5800 N   0  0  0  0  0  0  0  0  0  0  0  0
  161.5920  207.6520  154.8970 C   0  0  1  0  0  3  0  0  0  0  0  0
  160.8540  208.5560  155.8950 C   0  0  0  0  0  2  0  0  0  0  0  0
  160.7810  207.0580  152.7120 N   0  0  1  0  0  0  0  0  0  0  0  0
  162.3510  210.9310  155.2670 O   0  0  0  0  0  0  0  0  0  0  0  0
  160.4560  212.2030  155.6890 N   0  0  0  0  0  1  0  0  0  0  0  0
  161.0970  210.9750  155.3510 C   0  0  0  0  0  0  0  0  0  0  0  0
  162.6180  206.7910  148.0770 C   0  0  0  0  0  2  0  0  0  0  0  0
  162.3810  206.0870  146.7440 C   0  0  0  0  0  2  0  0  0  0  0  0
  161.3660  204.9460  146.8380 C   0  0  1  0  0  3  0  0  0  0  0  0
  160.8720  204.6190  145.5740 O   0  0  0  0  0  1  0  0  0  0  0  0
  161.9560  203.7150  147.5090 C   0  0  2  0  0  3  0  0  0  0  0  0
  161.0480  202.6480  147.3910 O   0  0  0  0  0  0  0  0  0  0  0  0
  161.1030  203.2920  148.6390 C   0  0  0  0  0  2  0  0  0  0  0  0
  1  8  1  0  0  0  0
  1  7  1  0  0  0  0
  3  2  1  6  0  0  0
  3 17  1  0  0  0  0
  5  3  1  0  0  0  0
  6  5  1  1  0  0  0
  7  6  1  0  0  0  0
  7  2  1  1  0  0  0
  8  4  1  6  0  0  0
  8  6  1  0  0  0  0
  9 11  2  0  0  0  0
 11 12  1  0  0  0  0
 12 20  1  6  0  0  0
 12 16  1  0  0  0  0
 13 10  1  0  0  0  0
 14 11  1  0  0  0  0
 14 15  1  0  0  0  0
 15 10  1  1  0  0  0
 15 16  1  0  0  0  0
 17 13  1  1  0  0  0
 17 14  1  0  0  0  0
 18 20  2  0  0  0  0
 20 19  1  0  0  0  0
 21  1  1  0  0  0  0
 22 23  1  0  0  0  0
 22 21  1  0  0  0  0
 23 24  1  6  0  0  0
 25 23  1  6  0  0  0
 25 27  1  0  0  0  0
 26 25  1  0  0  0  0
 26 27  1  0  0  0  0
M  END
>  <MODEL>
7

>  <REMARK>
 VINA RESULT:      -5.9      2.488      8.008
  Name = 
  6 active torsions:
  status: ('A' for Active; 'I' for Inactive)
    1  A    between atoms: C_1  and  C_12
    2  A    between atoms: C_2  and  C_12
    3  A    between atoms: C_2  and  C_18
    4  A    between atoms: C_7  and  C_27
    5  A    between atoms: N_8  and  C_18
    6  A    between atoms: C_11  and  N_24
                            x       y       z     vdW  Elec       q    Type
                         _______ _______ _______ _____ _____    ______ ____

>  <TORSDO>
F 6

$$$$
=
 OpenBabel11042420443D

 27 31  0  0  1  0  0  0  0  0999 V2000
  161.3980  205.4320  148.0620 N   0  0  0  0  0  0  0  0  0  0  0  0
  161.5440  207.5840  149.4280 C   0  0  0  0  0  2  0  0  0  0  0  0
  160.8560  207.5440  150.7860 C   0  0  1  0  0  3  0  0  0  0  0  0
  161.3830  203.2650  148.9260 O   0  0  0  0  0  1  0  0  0  0  0  0
  160.4830  206.0830  150.9850 C   0  0  0  0  0  2  0  0  0  0  0  0
  161.5030  205.2610  150.2190 C   0  0  2  0  0  3  0  0  0  0  0  0
  162.0700  206.1700  149.1510 C   0  0  1  0  0  3  0  0  0  0  0  0
  160.8290  204.5390  149.0680 C   0  0  1  0  0  3  0  0  0  0  0  0
  161.3050  206.2710  154.1530 O   0  0  0  0  0  0  0  0  0  0  0  0
  162.0360  210.3240  152.5040 C   0  0  0  0  0  2  0  0  0  0  0  0
  161.1710  207.5230  154.1650 C   0  0  0  0  0  0  0  0  0  0  0  0
  161.2290  208.3440  155.3920 C   0  0  1  0  0  3  0  0  0  0  0  0
  162.3340  209.2910  151.4210 C   0  0  0  0  0  2  0  0  0  0  0  0
  161.0280  208.2920  152.9850 N   0  0  0  0  0  0  0  0  0  0  0  0
  160.9680  209.6850  153.3460 C   0  0  1  0  0  3  0  0  0  0  0  0
  161.3130  209.7690  154.8400 C   0  0  0  0  0  2  0  0  0  0  0  0
  161.7790  207.9980  151.8350 N   0  0  1  0  0  0  0  0  0  0  0  0
  159.7070  207.0300  156.6700 O   0  0  0  0  0  0  0  0  0  0  0  0
  159.1340  209.2720  156.4940 N   0  0  0  0  0  1  0  0  0  0  0  0
  159.9920  208.1670  156.2150 C   0  0  0  0  0  0  0  0  0  0  0  0
  160.2870  206.1560  147.4400 C   0  0  0  0  0  2  0  0  0  0  0  0
  160.4550  206.2050  145.9240 C   0  0  0  0  0  2  0  0  0  0  0  0
  161.1140  204.9490  145.3510 C   0  0  1  0  0  3  0  0  0  0  0  0
  160.4020  204.4790  144.2460 O   0  0  0  0  0  1  0  0  0  0  0  0
  162.5680  205.1910  144.9780 C   0  0  2  0  0  3  0  0  0  0  0  0
  163.2300  203.9530  144.8850 O   0  0  0  0  0  0  0  0  0  0  0  0
  163.4580  204.7030  146.0520 C   0  0  0  0  0  2  0  0  0  0  0  0
  1  8  1  0  0  0  0
  1  7  1  0  0  0  0
  3  2  1  6  0  0  0
  3  5  1  0  0  0  0
  3 17  1  0  0  0  0
  6  5  1  1  0  0  0
  7  2  1  1  0  0  0
  7  6  1  0  0  0  0
  8  4  1  6  0  0  0
  8  6  1  0  0  0  0
  9 11  2  0  0  0  0
 11 12  1  0  0  0  0
 12 20  1  1  0  0  0
 13 10  1  0  0  0  0
 14 15  1  0  0  0  0
 14 11  1  0  0  0  0
 15 10  1  6  0  0  0
 15 16  1  0  0  0  0
 16 12  1  0  0  0  0
 17 13  1  6  0  0  0
 17 14  1  0  0  0  0
 20 19  1  0  0  0  0
 20 18  2  0  0  0  0
 21  1  1  0  0  0  0
 22 21  1  0  0  0  0
 23 24  1  6  0  0  0
 23 22  1  0  0  0  0
 25 23  1  1  0  0  0
 25 27  1  0  0  0  0
 26 25  1  0  0  0  0
 26 27  1  0  0  0  0
M  END
>  <MODEL>
8

>  <REMARK>
 VINA RESULT:      -5.9      2.383      8.484
  Name = 
  6 active torsions:
  status: ('A' for Active; 'I' for Inactive)
    1  A    between atoms: C_1  and  C_12
    2  A    between atoms: C_2  and  C_12
    3  A    between atoms: C_2  and  C_18
    4  A    between atoms: C_7  and  C_27
    5  A    between atoms: N_8  and  C_18
    6  A    between atoms: C_11  and  N_24
                            x       y       z     vdW  Elec       q    Type
                         _______ _______ _______ _____ _____    ______ ____

>  <TORSDO>
F 6

$$$$
=
 OpenBabel11042420443D

 27 31  0  0  1  0  0  0  0  0999 V2000
  161.3060  202.5990  149.1010 N   0  0  0  0  0  0  0  0  0  0  0  0
  161.6990  205.1180  149.2470 C   0  0  0  0  0  2  0  0  0  0  0  0
  160.8980  205.8430  150.3210 C   0  0  1  0  0  3  0  0  0  0  0  0
  160.8440  201.1840  150.8960 O   0  0  0  0  0  1  0  0  0  0  0  0
  160.2640  204.7320  151.1440 C   0  0  0  0  0  2  0  0  0  0  0  0
  161.1910  203.5350  151.0520 C   0  0  2  0  0  3  0  0  0  0  0  0
  161.9970  203.7120  149.7850 C   0  0  1  0  0  3  0  0  0  0  0  0
  160.5070  202.4040  150.3080 C   0  0  1  0  0  3  0  0  0  0  0  0
  161.5260  205.6660  153.8900 O   0  0  0  0  0  0  0  0  0  0  0  0
  161.8290  209.1000  151.0960 C   0  0  0  0  0  2  0  0  0  0  0  0
  161.2710  206.8500  153.5410 C   0  0  0  0  0  0  0  0  0  0  0  0
  161.2690  207.9970  154.4710 C   0  0  1  0  0  3  0  0  0  0  0  0
  162.2080  207.8240  150.3500 C   0  0  0  0  0  2  0  0  0  0  0  0
  161.0330  207.2190  152.1950 N   0  0  0  0  0  0  0  0  0  0  0  0
  160.8430  208.6460  152.1360 C   0  0  1  0  0  3  0  0  0  0  0  0
  161.2030  209.1980  153.5220 C   0  0  0  0  0  2  0  0  0  0  0  0
  161.7900  206.6670  151.1490 N   0  0  1  0  0  0  0  0  0  0  0  0
  159.8620  206.9540  156.0850 O   0  0  0  0  0  0  0  0  0  0  0  0
  159.1600  209.0610  155.4110 N   0  0  0  0  0  1  0  0  0  0  0  0
  160.0690  207.9630  155.3640 C   0  0  0  0  0  0  0  0  0  0  0  0
  160.3940  203.0210  148.0350 C   0  0  0  0  0  2  0  0  0  0  0  0
  160.4960  202.0840  146.8350 C   0  0  0  0  0  2  0  0  0  0  0  0
  160.9500  202.7900  145.5570 C   0  0  1  0  0  3  0  0  0  0  0  0
  159.9920  202.6520  144.5500 O   0  0  0  0  0  1  0  0  0  0  0  0
  161.2540  204.2600  145.7980 C   0  0  2  0  0  3  0  0  0  0  0  0
  161.5780  204.8690  144.5720 O   0  0  0  0  0  0  0  0  0  0  0  0
  162.6520  204.5600  145.4250 C   0  0  0  0  0  2  0  0  0  0  0  0
  1  7  1  0  0  0  0
  1  8  1  0  0  0  0
  3  2  1  6  0  0  0
  3  5  1  0  0  0  0
  3 17  1  0  0  0  0
  6  5  1  6  0  0  0
  7  2  1  6  0  0  0
  7  6  1  0  0  0  0
  8  4  1  1  0  0  0
  8  6  1  0  0  0  0
 11  9  2  0  0  0  0
 11 12  1  0  0  0  0
 12 20  1  1  0  0  0
 13 10  1  0  0  0  0
 14 11  1  0  0  0  0
 15 10  1  6  0  0  0
 15 14  1  0  0  0  0
 15 16  1  0  0  0  0
 16 12  1  0  0  0  0
 17 13  1  6  0  0  0
 17 14  1  0  0  0  0
 20 19  1  0  0  0  0
 20 18  2  0  0  0  0
 21  1  1  0  0  0  0
 22 21  1  0  0  0  0
 23 24  1  6  0  0  0
 23 22  1  0  0  0  0
 25 23  1  6  0  0  0
 26 27  1  0  0  0  0
 26 25  1  0  0  0  0
 27 25  1  0  0  0  0
M  END
>  <MODEL>
9

>  <REMARK>
 VINA RESULT:      -5.8      1.975      8.364
  Name = 
  6 active torsions:
  status: ('A' for Active; 'I' for Inactive)
    1  A    between atoms: C_1  and  C_12
    2  A    between atoms: C_2  and  C_12
    3  A    between atoms: C_2  and  C_18
    4  A    between atoms: C_7  and  C_27
    5  A    between atoms: N_8  and  C_18
    6  A    between atoms: C_11  and  N_24
                            x       y       z     vdW  Elec       q    Type
                         _______ _______ _______ _____ _____    ______ ____

>  <TORSDO>
F 6

$$$$
