=
 OpenBabel11052410413D

 53 60  0  0  1  0  0  0  0  0999 V2000
  160.3400  208.5160  155.2730 C   0  0  0  0  0  0  0  0  0  0  0  0
  160.2730  208.0250  156.4350 O   0  0  0  0  0  0  0  0  0  0  0  0
  160.9360  206.2680  154.3150 C   0  0  0  0  0  3  0  0  0  0  0  0
  160.9300  208.2050  152.8660 C   0  0  0  0  0  3  0  0  0  0  0  0
  161.3410  205.4680  153.2430 C   0  0  0  0  0  3  0  0  0  0  0  0
  160.7320  207.6460  154.1380 C   0  0  0  0  0  0  0  0  0  0  0  0
  161.3420  207.4110  151.7870 C   0  0  0  0  0  0  0  0  0  0  0  0
  161.5490  206.0380  151.9850 C   0  0  0  0  0  3  0  0  0  0  0  0
  161.5880  208.0170  150.4670 C   0  0  0  0  0  0  0  0  0  0  0  0
  161.0600  207.4010  149.2900 N   0  0  0  0  0  2  0  0  0  0  0  0
  162.2850  209.0670  150.3740 O   0  0  0  0  0  0  0  0  0  0  0  0
  161.3620  207.9060  147.9600 C   0  0  0  0  0  2  0  0  0  0  0  0
  162.3920  207.0010  147.3060 C   0  0  0  0  0  2  0  0  0  0  0  0
  160.8690  203.7110  145.1150 C   0  0  0  0  0  2  0  0  0  0  0  0
  161.2780  206.1910  145.2090 C   0  0  0  0  0  2  0  0  0  0  0  0
  162.6010  204.7150  146.6090 O   0  0  0  0  0  0  0  0  0  0  0  0
  161.8820  203.5390  146.2650 C   0  0  1  0  0  3  0  0  0  0  0  0
  161.2030  204.9600  144.3030 C   0  0  0  0  0  2  0  0  0  0  0  0
  161.7170  205.8160  146.6350 C   0  0  1  0  0  3  0  0  0  0  0  0
  159.3490  200.8160  150.0500 O   0  0  0  0  0  1  0  0  0  0  0  0
  159.9660  202.1180  147.2110 C   0  0  0  0  0  2  0  0  0  0  0  0
  160.6400  201.3390  149.9790 C   0  0  1  0  0  3  0  0  0  0  0  0
  161.4040  200.6890  148.8120 C   0  0  0  0  0  2  0  0  0  0  0  0
  161.4620  203.4940  148.8740 C   0  0  0  0  0  2  0  0  0  0  0  0
  160.5680  202.8680  149.9420 C   0  0  0  0  0  2  0  0  0  0  0  0
  161.2600  202.8670  147.4860 C   0  0  2  0  0  0  0  0  0  0  0  0
  161.2710  201.3480  147.4210 C   0  0  2  0  0  3  0  0  0  0  0  0
  160.0160  209.9740  155.1030 C   0  0  2  0  0  3  0  0  0  0  0  0
  161.2520  210.8640  155.2980 C   0  0  2  0  0  3  0  0  0  0  0  0
  162.2740  210.1580  156.0520 N   0  0  0  0  0  1  0  0  0  0  0  0
  160.9150  212.0280  155.9710 F   0  0  0  0  0  0  0  0  0  0  0  0
  158.9390  210.3470  156.0160 N   0  0  0  0  0  2  0  0  0  0  0  0
  158.0550  211.2910  155.3400 C   0  0  1  0  0  3  0  0  0  0  0  0
  156.7700  210.5940  154.9340 C   0  0  0  0  0  1  0  0  0  0  0  0
  157.7260  212.3890  156.2380 N   0  0  0  0  0  2  0  0  0  0  0  0
  158.2660  213.7690  151.5660 C   0  0  2  0  0  3  0  0  0  0  0  0
  156.1780  214.4520  155.4980 S   0  0  0  0  0  0  0  0  0  0  0  0
  157.8080  213.6290  155.4810 C   0  0  2  0  0  3  0  0  0  0  0  0
  157.8140  213.3380  153.9900 C   0  0  1  0  0  0  0  0  0  0  0  0
  155.7420  213.8310  152.7410 C   0  0  0  0  0  2  0  0  0  0  0  0
  159.1850  213.1090  153.6180 O   0  0  0  0  0  0  0  0  0  0  0  0
  156.5210  214.1980  151.1220 S   0  0  0  0  0  0  0  0  0  0  0  0
  156.7090  214.3500  153.7760 C   0  0  1  0  0  3  0  0  0  0  0  0
  158.6350  214.1770  153.0110 C   0  0  1  0  0  3  0  0  0  0  0  0
  159.1830  214.3800  150.6160 N   0  0  0  0  0  2  0  0  0  0  0  0
  158.4890  214.4430  149.3400 C   0  0  0  0  0  2  0  0  0  0  0  0
  160.1090  212.9550  148.2460 C   0  0  0  0  0  0  0  0  0  0  0  0
  159.3550  213.5400  144.8770 O   0  0  0  0  0  0  0  0  0  0  0  0
  160.9730  212.6890  149.1230 O   0  0  0  0  0  0  0  0  0  0  0  0
  157.7480  213.2370  147.0010 S   0  0  0  0  0  0  0  0  0  0  0  0
  160.4600  213.0800  146.8820 N   0  0  0  0  0  2  0  0  0  0  0  0
  158.6680  213.1390  148.5850 C   0  0  2  0  0  3  0  0  0  0  0  0
  159.2940  213.3000  146.1130 C   0  0  0  0  0  0  0  0  0  0  0  0
  1  2  2  0  0  0  0
  4  6  2  0  0  0  0
  5  3  2  0  0  0  0
  6  3  1  0  0  0  0
  6  1  1  0  0  0  0
  7  8  2  0  0  0  0
  7  4  1  0  0  0  0
  8  5  1  0  0  0  0
  9  7  1  0  0  0  0
 10  9  1  0  0  0  0
 11  9  2  0  0  0  0
 12 10  1  0  0  0  0
 13 12  1  0  0  0  0
 15 19  1  0  0  0  0
 16 19  1  0  0  0  0
 17 14  1  6  0  0  0
 17 16  1  0  0  0  0
 17 26  1  0  0  0  0
 18 14  1  0  0  0  0
 18 15  1  0  0  0  0
 19 13  1  6  0  0  0
 22 20  1  6  0  0  0
 23 22  1  0  0  0  0
 24 25  1  0  0  0  0
 25 22  1  0  0  0  0
 26 21  1  6  0  0  0
 26 24  1  0  0  0  0
 27 21  1  1  0  0  0
 27 26  1  0  0  0  0
 27 23  1  0  0  0  0
 28  1  1  1  0  0  0
 28 29  1  0  0  0  0
 28 32  1  0  0  0  0
 29 31  1  1  0  0  0
 29 30  1  0  0  0  0
 33 34  1  1  0  0  0
 33 32  1  0  0  0  0
 33 35  1  0  0  0  0
 36 45  1  6  0  0  0
 36 44  1  0  0  0  0
 38 37  1  0  0  0  0
 38 35  1  1  0  0  0
 39 41  1  6  0  0  0
 39 38  1  0  0  0  0
 42 36  1  0  0  0  0
 42 40  1  0  0  0  0
 43 40  1  6  0  0  0
 43 39  1  0  0  0  0
 43 37  1  0  0  0  0
 44 41  1  1  0  0  0
 44 39  1  0  0  0  0
 46 45  1  0  0  0  0
 47 52  1  0  0  0  0
 47 49  2  0  0  0  0
 48 53  2  0  0  0  0
 50 52  1  0  0  0  0
 51 47  1  0  0  0  0
 52 46  1  6  0  0  0
 53 51  1  0  0  0  0
 53 50  1  0  0  0  0
M  END
>  <MODEL>
1

>  <REMARK>
 VINA RESULT:      -8.1      0.000      0.000
  Name = 
  15 active torsions:
  status: ('A' for Active; 'I' for Inactive)
    1  A    between atoms: C_2  and  N_4
    2  A    between atoms: C_2  and  N_9
    3  A    between atoms: C_3  and  N_51
    4  A    between atoms: N_4  and  C_13
    5  A    between atoms: N_9  and  C_18
    6  A    between atoms: C_13  and  C_17
    7  A    between atoms: C_13  and  C_39
    8  A    between atoms: C_20  and  C_39
    9  A    between atoms: C_21  and  C_27
   10  A    between atoms: N_29  and  C_52
   11  A    between atoms: C_34  and  C_35
   12  A    between atoms: C_37  and  C_44
   13  A    between atoms: C_44  and  C_52
   14  A    between atoms: C_48  and  C_53
   15  A    between atoms: N_51  and  C_53
                            x       y       z     vdW  Elec       q    Type
                         _______ _______ _______ _____ _____    ______ ____

>  <TORSDO>
F 15

$$$$
=
 OpenBabel11052410413D

 53 60  0  0  1  0  0  0  0  0999 V2000
  161.3400  203.6510  147.6700 C   0  0  0  0  0  0  0  0  0  0  0  0
  161.1940  202.6600  146.9010 O   0  0  0  0  0  0  0  0  0  0  0  0
  160.5550  202.3260  149.6580 C   0  0  0  0  0  3  0  0  0  0  0  0
  161.6470  204.4550  150.0140 C   0  0  0  0  0  3  0  0  0  0  0  0
  160.3830  202.1830  151.0370 C   0  0  0  0  0  3  0  0  0  0  0  0
  161.1840  203.4660  149.1330 C   0  0  0  0  0  0  0  0  0  0  0  0
  161.4730  204.3220  151.4000 C   0  0  0  0  0  0  0  0  0  0  0  0
  160.8350  203.1800  151.9040 C   0  0  0  0  0  3  0  0  0  0  0  0
  161.9240  205.3870  152.3120 C   0  0  0  0  0  0  0  0  0  0  0  0
  161.1660  205.6890  153.4850 N   0  0  0  0  0  2  0  0  0  0  0  0
  162.9690  206.0470  152.0460 O   0  0  0  0  0  0  0  0  0  0  0  0
  161.5160  206.7970  154.3600 C   0  0  0  0  0  2  0  0  0  0  0  0
  160.2570  207.3200  155.0290 C   0  0  0  0  0  2  0  0  0  0  0  0
  161.4170  211.0510  156.6670 C   0  0  0  0  0  2  0  0  0  0  0  0
  161.7350  208.5560  156.6370 C   0  0  0  0  0  2  0  0  0  0  0  0
  160.7370  209.6490  154.7140 O   0  0  0  0  0  0  0  0  0  0  0  0
  160.6820  210.9350  155.3160 C   0  0  1  0  0  3  0  0  0  0  0  0
  162.4230  209.9110  156.8160 C   0  0  0  0  0  2  0  0  0  0  0  0
  160.5200  208.6590  155.6970 C   0  0  1  0  0  3  0  0  0  0  0  0
  155.8190  212.8350  156.2640 O   0  0  0  0  0  1  0  0  0  0  0  0
  158.6020  211.3700  156.7560 C   0  0  0  0  0  2  0  0  0  0  0  0
  156.7160  213.0400  155.2150 C   0  0  1  0  0  3  0  0  0  0  0  0
  158.0100  213.6750  155.7520 C   0  0  0  0  0  2  0  0  0  0  0  0
  158.3610  211.4060  154.1400 C   0  0  0  0  0  2  0  0  0  0  0  0
  156.9010  211.7330  154.4410 C   0  0  0  0  0  2  0  0  0  0  0  0
  159.2560  211.4770  155.3870 C   0  0  2  0  0  0  0  0  0  0  0  0
  159.1160  212.7200  156.2510 C   0  0  2  0  0  3  0  0  0  0  0  0
  161.6670  204.9830  147.0510 C   0  0  2  0  0  3  0  0  0  0  0  0
  162.5620  204.8360  145.8120 C   0  0  2  0  0  3  0  0  0  0  0  0
  163.9170  204.4840  146.2000 N   0  0  0  0  0  1  0  0  0  0  0  0
  162.5900  206.0170  145.0880 F   0  0  0  0  0  0  0  0  0  0  0  0
  162.2790  205.8510  148.0530 N   0  0  0  0  0  2  0  0  0  0  0  0
  161.6710  207.1750  147.9640 C   0  0  1  0  0  3  0  0  0  0  0  0
  160.3950  207.1020  147.1460 C   0  0  0  0  0  1  0  0  0  0  0  0
  161.3430  207.6580  149.2980 N   0  0  0  0  0  2  0  0  0  0  0  0
  161.2870  212.5030  148.5550 C   0  0  2  0  0  3  0  0  0  0  0  0
  162.1990  209.1160  151.3820 S   0  0  0  0  0  0  0  0  0  0  0  0
  162.1940  208.8040  149.5820 C   0  0  2  0  0  3  0  0  0  0  0  0
  161.4840  210.0940  149.2080 C   0  0  1  0  0  0  0  0  0  0  0  0
  160.6250  211.4820  151.0600 C   0  0  0  0  0  2  0  0  0  0  0  0
  161.7610  210.3300  147.8160 O   0  0  0  0  0  0  0  0  0  0  0  0
  160.7650  213.1080  150.2240 S   0  0  0  0  0  0  0  0  0  0  0  0
  161.8030  210.6780  150.5680 C   0  0  1  0  0  3  0  0  0  0  0  0
  162.2420  211.2890  148.6290 C   0  0  1  0  0  3  0  0  0  0  0  0
  161.9020  213.5870  147.8050 N   0  0  0  0  0  2  0  0  0  0  0  0
  160.9610  213.9670  146.7640 C   0  0  0  0  0  2  0  0  0  0  0  0
  161.7090  213.2700  144.5300 C   0  0  0  0  0  0  0  0  0  0  0  0
  158.7740  213.7570  142.6820 O   0  0  0  0  0  0  0  0  0  0  0  0
  162.9680  213.2880  144.5720 O   0  0  0  0  0  0  0  0  0  0  0  0
  159.1490  212.7320  145.1310 S   0  0  0  0  0  0  0  0  0  0  0  0
  161.0070  213.6090  143.3500 N   0  0  0  0  0  2  0  0  0  0  0  0
  160.8840  212.8790  145.7090 C   0  0  2  0  0  3  0  0  0  0  0  0
  159.6210  213.4290  143.5570 C   0  0  0  0  0  0  0  0  0  0  0  0
  1  6  1  0  0  0  0
  2  1  2  0  0  0  0
  3  5  1  0  0  0  0
  4  7  2  0  0  0  0
  5  8  2  0  0  0  0
  6  3  2  0  0  0  0
  6  4  1  0  0  0  0
  7  8  1  0  0  0  0
  7  9  1  0  0  0  0
  9 10  1  0  0  0  0
 10 12  1  0  0  0  0
 11  9  2  0  0  0  0
 12 13  1  0  0  0  0
 14 18  1  0  0  0  0
 15 18  1  0  0  0  0
 16 17  1  0  0  0  0
 16 19  1  0  0  0  0
 17 26  1  0  0  0  0
 17 14  1  1  0  0  0
 19 13  1  6  0  0  0
 19 15  1  0  0  0  0
 22 23  1  0  0  0  0
 22 20  1  1  0  0  0
 24 25  1  0  0  0  0
 25 22  1  0  0  0  0
 26 24  1  6  0  0  0
 26 27  1  0  0  0  0
 26 21  1  0  0  0  0
 27 23  1  6  0  0  0
 27 21  1  0  0  0  0
 28  1  1  1  0  0  0
 28 32  1  0  0  0  0
 29 31  1  1  0  0  0
 29 30  1  0  0  0  0
 29 28  1  0  0  0  0
 33 34  1  6  0  0  0
 33 32  1  0  0  0  0
 33 35  1  0  0  0  0
 36 45  1  1  0  0  0
 36 44  1  0  0  0  0
 36 42  1  0  0  0  0
 38 35  1  1  0  0  0
 38 37  1  0  0  0  0
 39 41  1  6  0  0  0
 39 38  1  0  0  0  0
 39 43  1  0  0  0  0
 42 40  1  0  0  0  0
 43 40  1  1  0  0  0
 43 37  1  0  0  0  0
 44 41  1  6  0  0  0
 44 39  1  0  0  0  0
 46 45  1  0  0  0  0
 47 49  2  0  0  0  0
 47 52  1  0  0  0  0
 48 53  2  0  0  0  0
 50 52  1  0  0  0  0
 51 53  1  0  0  0  0
 51 47  1  0  0  0  0
 52 46  1  1  0  0  0
 53 50  1  0  0  0  0
M  END
>  <MODEL>
2

>  <REMARK>
 VINA RESULT:      -7.3      3.236      8.749
  Name = 
  15 active torsions:
  status: ('A' for Active; 'I' for Inactive)
    1  A    between atoms: C_2  and  N_4
    2  A    between atoms: C_2  and  N_9
    3  A    between atoms: C_3  and  N_51
    4  A    between atoms: N_4  and  C_13
    5  A    between atoms: N_9  and  C_18
    6  A    between atoms: C_13  and  C_17
    7  A    between atoms: C_13  and  C_39
    8  A    between atoms: C_20  and  C_39
    9  A    between atoms: C_21  and  C_27
   10  A    between atoms: N_29  and  C_52
   11  A    between atoms: C_34  and  C_35
   12  A    between atoms: C_37  and  C_44
   13  A    between atoms: C_44  and  C_52
   14  A    between atoms: C_48  and  C_53
   15  A    between atoms: N_51  and  C_53
                            x       y       z     vdW  Elec       q    Type
                         _______ _______ _______ _____ _____    ______ ____

>  <TORSDO>
F 15

$$$$
=
 OpenBabel11052410413D

 53 60  0  0  1  0  0  0  0  0999 V2000
  162.0130  209.3930  149.0750 C   0  0  0  0  0  0  0  0  0  0  0  0
  162.1400  208.3570  148.3640 O   0  0  0  0  0  0  0  0  0  0  0  0
  163.0870  211.6250  148.6400 C   0  0  0  0  0  3  0  0  0  0  0  0
  160.9620  211.1150  147.6030 C   0  0  0  0  0  3  0  0  0  0  0  0
  163.0700  212.8920  148.0510 C   0  0  0  0  0  3  0  0  0  0  0  0
  162.0300  210.7260  148.4260 C   0  0  0  0  0  0  0  0  0  0  0  0
  160.9340  212.3870  147.0130 C   0  0  0  0  0  0  0  0  0  0  0  0
  161.9950  213.2730  147.2450 C   0  0  0  0  0  3  0  0  0  0  0  0
  159.7870  212.7990  146.1850 C   0  0  0  0  0  0  0  0  0  0  0  0
  159.9370  212.9230  144.7700 N   0  0  0  0  0  2  0  0  0  0  0  0
  158.6780  213.0660  146.7310 O   0  0  0  0  0  0  0  0  0  0  0  0
  158.8630  213.4240  143.9260 C   0  0  0  0  0  2  0  0  0  0  0  0
  159.4650  214.1530  142.7360 C   0  0  0  0  0  2  0  0  0  0  0  0
  157.8990  213.1040  138.9430 C   0  0  0  0  0  2  0  0  0  0  0  0
  157.5190  214.2390  141.1540 C   0  0  0  0  0  2  0  0  0  0  0  0
  159.7890  213.8890  140.3750 O   0  0  0  0  0  0  0  0  0  0  0  0
  159.4140  213.1340  139.2310 C   0  0  1  0  0  3  0  0  0  0  0  0
  157.2060  214.2620  139.6570 C   0  0  0  0  0  2  0  0  0  0  0  0
  158.8970  213.6150  141.4340 C   0  0  1  0  0  3  0  0  0  0  0  0
  160.9020  208.0430  139.0810 O   0  0  0  0  0  1  0  0  0  0  0  0
  159.0220  210.6000  139.3330 C   0  0  0  0  0  2  0  0  0  0  0  0
  161.5690  209.2230  138.7510 C   0  0  1  0  0  3  0  0  0  0  0  0
  160.8280  209.9390  137.6090 C   0  0  0  0  0  2  0  0  0  0  0  0
  161.4250  211.5310  139.8420 C   0  0  0  0  0  2  0  0  0  0  0  0
  161.7830  210.0570  140.0170 C   0  0  0  0  0  2  0  0  0  0  0  0
  160.0280  211.7360  139.2370 C   0  0  2  0  0  0  0  0  0  0  0  0
  159.6990  210.9180  137.9980 C   0  0  2  0  0  3  0  0  0  0  0  0
  161.8490  209.2160  150.5590 C   0  0  2  0  0  3  0  0  0  0  0  0
  162.1070  210.5220  151.3240 C   0  0  2  0  0  3  0  0  0  0  0  0
  162.5530  210.2410  152.6780 N   0  0  0  0  0  1  0  0  0  0  0  0
  160.9560  211.2920  151.3770 F   0  0  0  0  0  0  0  0  0  0  0  0
  162.7230  208.1430  151.0240 N   0  0  0  0  0  2  0  0  0  0  0  0
  162.0270  207.3840  152.0590 C   0  0  1  0  0  3  0  0  0  0  0  0
  160.5290  207.5670  151.9120 C   0  0  0  0  0  1  0  0  0  0  0  0
  162.3390  205.9680  151.9250 N   0  0  0  0  0  2  0  0  0  0  0  0
  161.2350  202.9670  148.2090 C   0  0  2  0  0  3  0  0  0  0  0  0
  160.6370  203.9900  152.5550 S   0  0  0  0  0  0  0  0  0  0  0  0
  161.1630  205.2970  151.3920 C   0  0  2  0  0  3  0  0  0  0  0  0
  161.5570  204.3490  150.2710 C   0  0  1  0  0  0  0  0  0  0  0  0
  161.5260  201.9340  150.7790 C   0  0  0  0  0  2  0  0  0  0  0  0
  161.5710  205.1240  149.0590 O   0  0  0  0  0  0  0  0  0  0  0  0
  161.1500  201.3390  149.0860 S   0  0  0  0  0  0  0  0  0  0  0  0
  160.7720  203.2320  150.9230 C   0  0  1  0  0  3  0  0  0  0  0  0
  160.6630  204.1310  149.0510 C   0  0  1  0  0  3  0  0  0  0  0  0
  160.5450  202.8780  146.9320 N   0  0  0  0  0  2  0  0  0  0  0  0
  161.5320  202.4650  145.9470 C   0  0  0  0  0  2  0  0  0  0  0  0
  162.7600  204.5810  145.7230 C   0  0  0  0  0  0  0  0  0  0  0  0
  160.1250  206.8820  145.8920 O   0  0  0  0  0  0  0  0  0  0  0  0
  163.9630  204.3050  145.9750 O   0  0  0  0  0  0  0  0  0  0  0  0
  160.3100  204.5250  144.6280 S   0  0  0  0  0  0  0  0  0  0  0  0
  162.2020  205.8300  146.0820 N   0  0  0  0  0  2  0  0  0  0  0  0
  161.8580  203.6220  145.0220 C   0  0  2  0  0  3  0  0  0  0  0  0
  160.8700  205.9030  145.6140 C   0  0  0  0  0  0  0  0  0  0  0  0
  2  1  2  0  0  0  0
  4  6  2  0  0  0  0
  5  3  2  0  0  0  0
  6  3  1  0  0  0  0
  6  1  1  0  0  0  0
  7  8  2  0  0  0  0
  7  4  1  0  0  0  0
  8  5  1  0  0  0  0
  9 11  2  0  0  0  0
  9  7  1  0  0  0  0
 10  9  1  0  0  0  0
 12 10  1  0  0  0  0
 13 12  1  0  0  0  0
 14 18  1  0  0  0  0
 15 19  1  0  0  0  0
 16 19  1  0  0  0  0
 17 14  1  1  0  0  0
 17 26  1  0  0  0  0
 17 16  1  0  0  0  0
 18 15  1  0  0  0  0
 19 13  1  1  0  0  0
 22 20  1  1  0  0  0
 22 25  1  0  0  0  0
 23 22  1  0  0  0  0
 24 25  1  0  0  0  0
 26 21  1  1  0  0  0
 26 24  1  0  0  0  0
 27 23  1  1  0  0  0
 27 26  1  0  0  0  0
 27 21  1  0  0  0  0
 28  1  1  6  0  0  0
 28 32  1  0  0  0  0
 28 29  1  0  0  0  0
 29 31  1  1  0  0  0
 29 30  1  0  0  0  0
 32 33  1  0  0  0  0
 33 34  1  6  0  0  0
 35 33  1  0  0  0  0
 36 45  1  6  0  0  0
 36 44  1  0  0  0  0
 36 42  1  0  0  0  0
 38 35  1  1  0  0  0
 38 37  1  0  0  0  0
 39 41  1  6  0  0  0
 39 43  1  0  0  0  0
 39 38  1  0  0  0  0
 42 40  1  0  0  0  0
 43 40  1  1  0  0  0
 43 37  1  0  0  0  0
 44 41  1  6  0  0  0
 44 39  1  0  0  0  0
 46 45  1  0  0  0  0
 47 49  2  0  0  0  0
 47 51  1  0  0  0  0
 50 52  1  0  0  0  0
 50 53  1  0  0  0  0
 52 47  1  0  0  0  0
 52 46  1  1  0  0  0
 53 48  2  0  0  0  0
 53 51  1  0  0  0  0
M  END
>  <MODEL>
3

>  <REMARK>
 VINA RESULT:      -6.2      4.850      9.842
  Name = 
  15 active torsions:
  status: ('A' for Active; 'I' for Inactive)
    1  A    between atoms: C_2  and  N_4
    2  A    between atoms: C_2  and  N_9
    3  A    between atoms: C_3  and  N_51
    4  A    between atoms: N_4  and  C_13
    5  A    between atoms: N_9  and  C_18
    6  A    between atoms: C_13  and  C_17
    7  A    between atoms: C_13  and  C_39
    8  A    between atoms: C_20  and  C_39
    9  A    between atoms: C_21  and  C_27
   10  A    between atoms: N_29  and  C_52
   11  A    between atoms: C_34  and  C_35
   12  A    between atoms: C_37  and  C_44
   13  A    between atoms: C_44  and  C_52
   14  A    between atoms: C_48  and  C_53
   15  A    between atoms: N_51  and  C_53
                            x       y       z     vdW  Elec       q    Type
                         _______ _______ _______ _____ _____    ______ ____

>  <TORSDO>
F 15

$$$$
=
 OpenBabel11052410413D

 53 60  0  0  1  0  0  0  0  0999 V2000
  162.1320  207.6740  148.9370 C   0  0  0  0  0  0  0  0  0  0  0  0
  162.7130  207.3420  147.8660 O   0  0  0  0  0  0  0  0  0  0  0  0
  162.2320  209.5150  150.6470 C   0  0  0  0  0  3  0  0  0  0  0  0
  161.8030  210.0750  148.3330 C   0  0  0  0  0  3  0  0  0  0  0  0
  162.1290  210.8640  150.9920 C   0  0  0  0  0  3  0  0  0  0  0  0
  162.0650  209.1060  149.3140 C   0  0  0  0  0  0  0  0  0  0  0  0
  161.6910  211.4310  148.6720 C   0  0  0  0  0  0  0  0  0  0  0  0
  161.8540  211.8180  150.0100 C   0  0  0  0  0  3  0  0  0  0  0  0
  161.3730  212.4330  147.6410 C   0  0  0  0  0  0  0  0  0  0  0  0
  162.1960  212.5440  146.4780 N   0  0  0  0  0  2  0  0  0  0  0  0
  160.3870  213.2090  147.7960 O   0  0  0  0  0  0  0  0  0  0  0  0
  161.9810  213.5840  145.4830 C   0  0  0  0  0  2  0  0  0  0  0  0
  162.4110  213.0660  144.1210 C   0  0  0  0  0  2  0  0  0  0  0  0
  159.0230  213.1690  141.5810 C   0  0  0  0  0  2  0  0  0  0  0  0
  159.9300  213.3780  143.9170 C   0  0  0  0  0  2  0  0  0  0  0  0
  161.4210  213.7040  142.0320 O   0  0  0  0  0  0  0  0  0  0  0  0
  160.4600  213.3460  141.0490 C   0  0  1  0  0  3  0  0  0  0  0  0
  158.8720  213.8720  142.9280 C   0  0  0  0  0  2  0  0  0  0  0  0
  161.2140  212.9320  143.1960 C   0  0  1  0  0  3  0  0  0  0  0  0
  161.3480  209.0790  138.0210 O   0  0  0  0  0  1  0  0  0  0  0  0
  159.8460  211.1000  139.9700 C   0  0  0  0  0  2  0  0  0  0  0  0
  162.0390  210.2820  138.1690 C   0  0  1  0  0  3  0  0  0  0  0  0
  161.1340  211.4570  137.7600 C   0  0  0  0  0  2  0  0  0  0  0  0
  162.3830  211.7130  140.2590 C   0  0  0  0  0  2  0  0  0  0  0  0
  162.6200  210.3650  139.5830 C   0  0  0  0  0  2  0  0  0  0  0  0
  160.9130  212.1560  140.2060 C   0  0  2  0  0  0  0  0  0  0  0  0
  160.2290  212.0700  138.8510 C   0  0  2  0  0  3  0  0  0  0  0  0
  161.5330  206.5830  149.7820 C   0  0  2  0  0  3  0  0  0  0  0  0
  160.4730  205.7800  149.0160 C   0  0  2  0  0  3  0  0  0  0  0  0
  161.0480  204.5570  148.4820 N   0  0  0  0  0  1  0  0  0  0  0  0
  159.9520  206.5290  147.9720 F   0  0  0  0  0  0  0  0  0  0  0  0
  160.9860  207.1590  151.0070 N   0  0  0  0  0  2  0  0  0  0  0  0
  161.2030  206.2220  152.1050 C   0  0  1  0  0  3  0  0  0  0  0  0
  162.6840  206.1390  152.4260 C   0  0  0  0  0  1  0  0  0  0  0  0
  160.4930  206.6790  153.2910 N   0  0  0  0  0  2  0  0  0  0  0  0
  159.0910  211.2200  154.4920 C   0  0  2  0  0  3  0  0  0  0  0  0
  161.7390  207.7010  155.4380 S   0  0  0  0  0  0  0  0  0  0  0  0
  161.1130  207.9190  153.7360 C   0  0  2  0  0  3  0  0  0  0  0  0
  160.0490  208.9420  154.0980 C   0  0  1  0  0  0  0  0  0  0  0  0
  159.6830  209.3820  156.4990 C   0  0  0  0  0  2  0  0  0  0  0  0
  159.7110  209.6350  152.8830 O   0  0  0  0  0  0  0  0  0  0  0  0
  159.1300  211.1230  156.3400 S   0  0  0  0  0  0  0  0  0  0  0  0
  160.7270  209.1960  155.4260 C   0  0  1  0  0  3  0  0  0  0  0  0
  160.2430  210.4330  153.8260 C   0  0  1  0  0  3  0  0  0  0  0  0
  159.1160  212.6120  154.0690 N   0  0  0  0  0  2  0  0  0  0  0  0
  157.7590  213.1170  154.2000 C   0  0  0  0  0  2  0  0  0  0  0  0
  156.2550  214.3030  152.6600 C   0  0  0  0  0  0  0  0  0  0  0  0
  157.8890  213.7580  149.6110 O   0  0  0  0  0  0  0  0  0  0  0  0
  155.1740  214.4520  153.2880 O   0  0  0  0  0  0  0  0  0  0  0  0
  158.8650  214.3650  152.0330 S   0  0  0  0  0  0  0  0  0  0  0  0
  156.2710  214.0900  151.2620 N   0  0  0  0  0  2  0  0  0  0  0  0
  157.5800  214.3570  153.3430 C   0  0  2  0  0  3  0  0  0  0  0  0
  157.6090  214.0360  150.8080 C   0  0  0  0  0  0  0  0  0  0  0  0
  1  6  1  0  0  0  0
  2  1  2  0  0  0  0
  3  5  1  0  0  0  0
  4  7  2  0  0  0  0
  4  6  1  0  0  0  0
  6  3  2  0  0  0  0
  7  8  1  0  0  0  0
  8  5  2  0  0  0  0
  9 11  2  0  0  0  0
  9  7  1  0  0  0  0
 10  9  1  0  0  0  0
 12 10  1  0  0  0  0
 13 12  1  0  0  0  0
 14 18  1  0  0  0  0
 16 19  1  0  0  0  0
 17 14  1  1  0  0  0
 17 16  1  0  0  0  0
 18 15  1  0  0  0  0
 19 15  1  0  0  0  0
 19 13  1  1  0  0  0
 22 20  1  1  0  0  0
 22 25  1  0  0  0  0
 23 22  1  0  0  0  0
 25 24  1  0  0  0  0
 26 21  1  1  0  0  0
 26 24  1  0  0  0  0
 26 17  1  0  0  0  0
 27 23  1  6  0  0  0
 27 21  1  0  0  0  0
 27 26  1  0  0  0  0
 28  1  1  6  0  0  0
 28 32  1  0  0  0  0
 29 31  1  6  0  0  0
 29 28  1  0  0  0  0
 30 29  1  0  0  0  0
 32 33  1  0  0  0  0
 33 34  1  1  0  0  0
 33 35  1  0  0  0  0
 36 45  1  1  0  0  0
 36 42  1  0  0  0  0
 38 35  1  1  0  0  0
 38 39  1  0  0  0  0
 38 37  1  0  0  0  0
 39 41  1  1  0  0  0
 39 43  1  0  0  0  0
 42 40  1  0  0  0  0
 43 37  1  0  0  0  0
 43 40  1  1  0  0  0
 44 41  1  6  0  0  0
 44 39  1  0  0  0  0
 44 36  1  0  0  0  0
 45 46  1  0  0  0  0
 47 49  2  0  0  0  0
 47 52  1  0  0  0  0
 48 53  2  0  0  0  0
 50 52  1  0  0  0  0
 51 47  1  0  0  0  0
 52 46  1  1  0  0  0
 53 51  1  0  0  0  0
 53 50  1  0  0  0  0
M  END
>  <MODEL>
4

>  <REMARK>
 VINA RESULT:      -6.0      4.153      8.191
  Name = 
  15 active torsions:
  status: ('A' for Active; 'I' for Inactive)
    1  A    between atoms: C_2  and  N_4
    2  A    between atoms: C_2  and  N_9
    3  A    between atoms: C_3  and  N_51
    4  A    between atoms: N_4  and  C_13
    5  A    between atoms: N_9  and  C_18
    6  A    between atoms: C_13  and  C_17
    7  A    between atoms: C_13  and  C_39
    8  A    between atoms: C_20  and  C_39
    9  A    between atoms: C_21  and  C_27
   10  A    between atoms: N_29  and  C_52
   11  A    between atoms: C_34  and  C_35
   12  A    between atoms: C_37  and  C_44
   13  A    between atoms: C_44  and  C_52
   14  A    between atoms: C_48  and  C_53
   15  A    between atoms: N_51  and  C_53
                            x       y       z     vdW  Elec       q    Type
                         _______ _______ _______ _____ _____    ______ ____

>  <TORSDO>
F 15

$$$$
=
 OpenBabel11052410413D

 53 60  0  0  1  0  0  0  0  0999 V2000
  162.2410  210.1550  151.1390 C   0  0  0  0  0  0  0  0  0  0  0  0
  163.1910  210.2180  151.9690 O   0  0  0  0  0  0  0  0  0  0  0  0
  161.3040  207.8650  151.5920 C   0  0  0  0  0  3  0  0  0  0  0  0
  161.7950  208.5110  149.3130 C   0  0  0  0  0  3  0  0  0  0  0  0
  160.8930  206.6070  151.1460 C   0  0  0  0  0  3  0  0  0  0  0  0
  161.7640  208.8280  150.6790 C   0  0  0  0  0  0  0  0  0  0  0  0
  161.3900  207.2480  148.8580 C   0  0  0  0  0  0  0  0  0  0  0  0
  160.9410  206.2970  149.7860 C   0  0  0  0  0  3  0  0  0  0  0  0
  161.4670  206.9110  147.4260 C   0  0  0  0  0  0  0  0  0  0  0  0
  160.2690  206.6960  146.6790 N   0  0  0  0  0  2  0  0  0  0  0  0
  162.5940  206.7910  146.8650 O   0  0  0  0  0  0  0  0  0  0  0  0
  160.2980  206.2630  145.2900 C   0  0  0  0  0  2  0  0  0  0  0  0
  161.3140  205.1440  145.1390 C   0  0  0  0  0  2  0  0  0  0  0  0
  159.8700  201.2530  145.9860 C   0  0  0  0  0  2  0  0  0  0  0  0
  159.7390  203.2910  144.5190 C   0  0  0  0  0  2  0  0  0  0  0  0
  161.7540  202.8830  145.8070 O   0  0  0  0  0  0  0  0  0  0  0  0
  161.2340  201.7580  146.5000 C   0  0  1  0  0  3  0  0  0  0  0  0
  159.6200  201.7670  144.5690 C   0  0  0  0  0  2  0  0  0  0  0  0
  160.7200  203.8170  145.5820 C   0  0  1  0  0  3  0  0  0  0  0  0
  161.5620  203.0830  151.6280 O   0  0  0  0  0  1  0  0  0  0  0  0
  162.1980  203.0320  148.5090 C   0  0  0  0  0  2  0  0  0  0  0  0
  160.6120  202.3590  150.9080 C   0  0  1  0  0  3  0  0  0  0  0  0
  159.9850  203.2530  149.8240 C   0  0  0  0  0  2  0  0  0  0  0  0
  160.9350  200.7670  148.9330 C   0  0  0  0  0  2  0  0  0  0  0  0
  161.2400  201.0580  150.4000 C   0  0  0  0  0  2  0  0  0  0  0  0
  161.2390  201.9600  148.0130 C   0  0  2  0  0  0  0  0  0  0  0  0
  160.6940  203.3100  148.4530 C   0  0  2  0  0  3  0  0  0  0  0  0
  161.6370  211.4450  150.6570 C   0  0  2  0  0  3  0  0  0  0  0  0
  160.6050  212.0020  151.6480 C   0  0  2  0  0  3  0  0  0  0  0  0
  159.9050  210.9190  152.3170 N   0  0  0  0  0  1  0  0  0  0  0  0
  159.6810  212.8020  150.9930 F   0  0  0  0  0  0  0  0  0  0  0  0
  161.0550  211.2490  149.3320 N   0  0  0  0  0  2  0  0  0  0  0  0
  161.5040  212.3260  148.4560 C   0  0  1  0  0  3  0  0  0  0  0  0
  163.0100  212.2600  148.2870 C   0  0  0  0  0  1  0  0  0  0  0  0
  160.8810  212.1890  147.1470 N   0  0  0  0  0  2  0  0  0  0  0  0
  161.4640  213.7200  142.5270 C   0  0  2  0  0  3  0  0  0  0  0  0
  159.4690  214.3820  146.5110 S   0  0  0  0  0  0  0  0  0  0  0  0
  161.0390  213.4510  146.4390 C   0  0  2  0  0  3  0  0  0  0  0  0
  161.0090  213.2220  144.9370 C   0  0  1  0  0  0  0  0  0  0  0  0
  158.9620  213.9040  143.7380 C   0  0  0  0  0  2  0  0  0  0  0  0
  162.3570  212.9160  144.5380 O   0  0  0  0  0  0  0  0  0  0  0  0
  159.7470  214.2840  142.1240 S   0  0  0  0  0  0  0  0  0  0  0  0
  159.9730  214.3140  144.7790 C   0  0  1  0  0  3  0  0  0  0  0  0
  161.8750  214.0430  143.9820 C   0  0  1  0  0  3  0  0  0  0  0  0
  162.4100  214.3060  141.5900 N   0  0  0  0  0  2  0  0  0  0  0  0
  162.0950  213.7640  140.2780 C   0  0  0  0  0  2  0  0  0  0  0  0
  163.4420  212.9440  138.3940 C   0  0  0  0  0  0  0  0  0  0  0  0
  161.9030  209.8560  137.7930 O   0  0  0  0  0  0  0  0  0  0  0  0
  164.0370  213.9550  137.9350 O   0  0  0  0  0  0  0  0  0  0  0  0
  162.5410  211.0730  140.0950 S   0  0  0  0  0  0  0  0  0  0  0  0
  163.0110  211.8970  137.5460 N   0  0  0  0  0  2  0  0  0  0  0  0
  163.1690  212.7800  139.8510 C   0  0  2  0  0  3  0  0  0  0  0  0
  162.4480  210.8600  138.3260 C   0  0  0  0  0  0  0  0  0  0  0  0
  1  2  2  0  0  0  0
  4  6  1  0  0  0  0
  5  3  1  0  0  0  0
  6  1  1  0  0  0  0
  6  3  2  0  0  0  0
  7  4  2  0  0  0  0
  7  8  1  0  0  0  0
  8  5  2  0  0  0  0
  9  7  1  0  0  0  0
 10  9  1  0  0  0  0
 11  9  2  0  0  0  0
 12 10  1  0  0  0  0
 13 12  1  0  0  0  0
 15 18  1  0  0  0  0
 15 19  1  0  0  0  0
 16 17  1  0  0  0  0
 17 14  1  6  0  0  0
 17 26  1  0  0  0  0
 18 14  1  0  0  0  0
 19 13  1  6  0  0  0
 19 16  1  0  0  0  0
 22 20  1  6  0  0  0
 23 22  1  0  0  0  0
 24 25  1  0  0  0  0
 25 22  1  0  0  0  0
 26 27  1  0  0  0  0
 26 21  1  1  0  0  0
 26 24  1  0  0  0  0
 27 21  1  1  0  0  0
 27 23  1  0  0  0  0
 28 32  1  6  0  0  0
 28  1  1  0  0  0  0
 28 29  1  0  0  0  0
 29 31  1  6  0  0  0
 29 30  1  0  0  0  0
 33 34  1  6  0  0  0
 33 32  1  0  0  0  0
 35 33  1  0  0  0  0
 36 45  1  6  0  0  0
 36 44  1  0  0  0  0
 38 37  1  0  0  0  0
 38 35  1  1  0  0  0
 39 41  1  6  0  0  0
 39 38  1  0  0  0  0
 42 36  1  0  0  0  0
 42 40  1  0  0  0  0
 43 40  1  6  0  0  0
 43 39  1  0  0  0  0
 43 37  1  0  0  0  0
 44 41  1  6  0  0  0
 44 39  1  0  0  0  0
 46 45  1  0  0  0  0
 47 52  1  0  0  0  0
 48 53  2  0  0  0  0
 49 47  2  0  0  0  0
 51 53  1  0  0  0  0
 51 47  1  0  0  0  0
 52 50  1  0  0  0  0
 52 46  1  6  0  0  0
 53 50  1  0  0  0  0
M  END
>  <MODEL>
5

>  <REMARK>
 VINA RESULT:      -5.8      3.952      6.608
  Name = 
  15 active torsions:
  status: ('A' for Active; 'I' for Inactive)
    1  A    between atoms: C_2  and  N_4
    2  A    between atoms: C_2  and  N_9
    3  A    between atoms: C_3  and  N_51
    4  A    between atoms: N_4  and  C_13
    5  A    between atoms: N_9  and  C_18
    6  A    between atoms: C_13  and  C_17
    7  A    between atoms: C_13  and  C_39
    8  A    between atoms: C_20  and  C_39
    9  A    between atoms: C_21  and  C_27
   10  A    between atoms: N_29  and  C_52
   11  A    between atoms: C_34  and  C_35
   12  A    between atoms: C_37  and  C_44
   13  A    between atoms: C_44  and  C_52
   14  A    between atoms: C_48  and  C_53
   15  A    between atoms: N_51  and  C_53
                            x       y       z     vdW  Elec       q    Type
                         _______ _______ _______ _____ _____    ______ ____

>  <TORSDO>
F 15

$$$$
=
 OpenBabel11052410413D

 53 60  0  0  1  0  0  0  0  0999 V2000
  162.4100  211.1420  149.5760 C   0  0  0  0  0  0  0  0  0  0  0  0
  163.4160  211.4870  150.2570 O   0  0  0  0  0  0  0  0  0  0  0  0
  161.5840  209.1150  150.8150 C   0  0  0  0  0  3  0  0  0  0  0  0
  161.9300  208.9780  148.4240 C   0  0  0  0  0  3  0  0  0  0  0  0
  161.1970  207.7730  150.8350 C   0  0  0  0  0  3  0  0  0  0  0  0
  161.9590  209.7300  149.6090 C   0  0  0  0  0  0  0  0  0  0  0  0
  161.5490  207.6290  148.4370 C   0  0  0  0  0  0  0  0  0  0  0  0
  161.1850  207.0310  149.6520 C   0  0  0  0  0  3  0  0  0  0  0  0
  161.5630  206.8390  147.1940 C   0  0  0  0  0  0  0  0  0  0  0  0
  160.3700  206.7090  146.4180 N   0  0  0  0  0  2  0  0  0  0  0  0
  162.6250  206.2580  146.8260 O   0  0  0  0  0  0  0  0  0  0  0  0
  160.3110  205.8570  145.2400 C   0  0  0  0  0  2  0  0  0  0  0  0
  161.3900  204.7930  145.3410 C   0  0  0  0  0  2  0  0  0  0  0  0
  160.1210  200.9970  146.7290 C   0  0  0  0  0  2  0  0  0  0  0  0
  160.1010  202.6910  144.8710 C   0  0  0  0  0  2  0  0  0  0  0  0
  161.8750  202.7640  146.5240 O   0  0  0  0  0  0  0  0  0  0  0  0
  161.3250  201.7400  147.3420 C   0  0  1  0  0  3  0  0  0  0  0  0
  160.0930  201.2010  145.2160 C   0  0  0  0  0  2  0  0  0  0  0  0
  160.8300  203.5170  145.9460 C   0  0  1  0  0  3  0  0  0  0  0  0
  159.9220  202.8630  152.3350 O   0  0  0  0  0  1  0  0  0  0  0  0
  159.8030  201.6240  149.4050 C   0  0  0  0  0  2  0  0  0  0  0  0
  161.1100  203.0610  151.6300 C   0  0  1  0  0  3  0  0  0  0  0  0
  161.6790  201.7050  151.1780 C   0  0  0  0  0  2  0  0  0  0  0  0
  161.4590  203.6490  149.1660 C   0  0  0  0  0  2  0  0  0  0  0  0
  160.8740  204.0770  150.5100 C   0  0  0  0  0  2  0  0  0  0  0  0
  161.0410  202.2270  148.7610 C   0  0  2  0  0  0  0  0  0  0  0  0
  161.1960  201.1480  149.8210 C   0  0  2  0  0  3  0  0  0  0  0  0
  161.7160  212.1960  148.7570 C   0  0  2  0  0  3  0  0  0  0  0  0
  160.6330  212.9270  149.5620 C   0  0  2  0  0  3  0  0  0  0  0  0
  161.0000  214.3180  149.7650 N   0  0  0  0  0  1  0  0  0  0  0  0
  160.4500  212.3220  150.7960 F   0  0  0  0  0  0  0  0  0  0  0  0
  161.1670  211.5920  147.5460 N   0  0  0  0  0  2  0  0  0  0  0  0
  161.0490  212.6220  146.5190 C   0  0  1  0  0  3  0  0  0  0  0  0
  162.4010  213.2670  146.2790 C   0  0  0  0  0  1  0  0  0  0  0  0
  160.5890  212.0240  145.2730 N   0  0  0  0  0  2  0  0  0  0  0  0
  159.8800  212.3170  140.4310 C   0  0  2  0  0  3  0  0  0  0  0  0
  159.8540  214.4530  144.3970 S   0  0  0  0  0  0  0  0  0  0  0  0
  160.8810  212.9560  144.1930 C   0  0  2  0  0  3  0  0  0  0  0  0
  160.2190  212.4950  142.9050 C   0  0  1  0  0  0  0  0  0  0  0  0
  158.2240  213.7420  142.1580 C   0  0  0  0  0  2  0  0  0  0  0  0
  161.1380  211.5880  142.2690 O   0  0  0  0  0  0  0  0  0  0  0  0
  158.4290  213.4640  140.3570 S   0  0  0  0  0  0  0  0  0  0  0  0
  159.6240  213.8720  142.7040 C   0  0  1  0  0  3  0  0  0  0  0  0
  160.8860  212.6940  141.5440 C   0  0  1  0  0  3  0  0  0  0  0  0
  160.5460  212.2760  139.1380 N   0  0  0  0  0  2  0  0  0  0  0  0
  159.6300  211.6320  138.2120 C   0  0  0  0  0  2  0  0  0  0  0  0
  159.6240  209.2100  137.7950 C   0  0  0  0  0  0  0  0  0  0  0  0
  162.3430  208.2070  139.7600 O   0  0  0  0  0  0  0  0  0  0  0  0
  158.4860  208.9490  137.3210 O   0  0  0  0  0  0  0  0  0  0  0  0
  162.0350  210.3330  138.1560 S   0  0  0  0  0  0  0  0  0  0  0  0
  160.3020  208.2900  138.6270 N   0  0  0  0  0  2  0  0  0  0  0  0
  160.3290  210.4900  137.4980 C   0  0  2  0  0  3  0  0  0  0  0  0
  161.5810  208.8000  138.9490 C   0  0  0  0  0  0  0  0  0  0  0  0
  1  6  1  0  0  0  0
  1  2  2  0  0  0  0
  3  5  1  0  0  0  0
  4  7  2  0  0  0  0
  4  6  1  0  0  0  0
  6  3  2  0  0  0  0
  7  8  1  0  0  0  0
  8  5  2  0  0  0  0
  9  7  1  0  0  0  0
 10  9  1  0  0  0  0
 11  9  2  0  0  0  0
 12 13  1  0  0  0  0
 12 10  1  0  0  0  0
 15 18  1  0  0  0  0
 15 19  1  0  0  0  0
 16 17  1  0  0  0  0
 17 14  1  6  0  0  0
 17 26  1  0  0  0  0
 18 14  1  0  0  0  0
 19 13  1  6  0  0  0
 19 16  1  0  0  0  0
 22 20  1  6  0  0  0
 23 22  1  0  0  0  0
 24 25  1  0  0  0  0
 25 22  1  0  0  0  0
 26 24  1  1  0  0  0
 26 21  1  0  0  0  0
 26 27  1  0  0  0  0
 27 21  1  1  0  0  0
 27 23  1  0  0  0  0
 28 32  1  6  0  0  0
 28 29  1  0  0  0  0
 28  1  1  0  0  0  0
 29 30  1  1  0  0  0
 29 31  1  0  0  0  0
 33 34  1  6  0  0  0
 33 32  1  0  0  0  0
 35 33  1  0  0  0  0
 36 45  1  6  0  0  0
 36 44  1  0  0  0  0
 38 37  1  0  0  0  0
 38 35  1  1  0  0  0
 39 41  1  1  0  0  0
 39 38  1  0  0  0  0
 42 36  1  0  0  0  0
 42 40  1  0  0  0  0
 43 40  1  1  0  0  0
 43 39  1  0  0  0  0
 43 37  1  0  0  0  0
 44 41  1  1  0  0  0
 44 39  1  0  0  0  0
 46 45  1  0  0  0  0
 47 51  1  0  0  0  0
 49 47  2  0  0  0  0
 50 53  1  0  0  0  0
 51 53  1  0  0  0  0
 52 47  1  0  0  0  0
 52 50  1  0  0  0  0
 52 46  1  1  0  0  0
 53 48  2  0  0  0  0
M  END
>  <MODEL>
6

>  <REMARK>
 VINA RESULT:      -5.7      4.238      7.694
  Name = 
  15 active torsions:
  status: ('A' for Active; 'I' for Inactive)
    1  A    between atoms: C_2  and  N_4
    2  A    between atoms: C_2  and  N_9
    3  A    between atoms: C_3  and  N_51
    4  A    between atoms: N_4  and  C_13
    5  A    between atoms: N_9  and  C_18
    6  A    between atoms: C_13  and  C_17
    7  A    between atoms: C_13  and  C_39
    8  A    between atoms: C_20  and  C_39
    9  A    between atoms: C_21  and  C_27
   10  A    between atoms: N_29  and  C_52
   11  A    between atoms: C_34  and  C_35
   12  A    between atoms: C_37  and  C_44
   13  A    between atoms: C_44  and  C_52
   14  A    between atoms: C_48  and  C_53
   15  A    between atoms: N_51  and  C_53
                            x       y       z     vdW  Elec       q    Type
                         _______ _______ _______ _____ _____    ______ ____

>  <TORSDO>
F 15

$$$$
=
 OpenBabel11052410413D

 53 60  0  0  1  0  0  0  0  0999 V2000
  161.5490  211.2470  149.6780 C   0  0  0  0  0  0  0  0  0  0  0  0
  162.1560  210.8230  148.6560 O   0  0  0  0  0  0  0  0  0  0  0  0
  161.3870  210.9890  152.1750 C   0  0  0  0  0  3  0  0  0  0  0  0
  161.6280  209.0150  150.7960 C   0  0  0  0  0  3  0  0  0  0  0  0
  161.3910  210.1880  153.3200 C   0  0  0  0  0  3  0  0  0  0  0  0
  161.5110  210.4100  150.9010 C   0  0  0  0  0  0  0  0  0  0  0  0
  161.6380  208.2050  151.9410 C   0  0  0  0  0  0  0  0  0  0  0  0
  161.5210  208.8030  153.2040 C   0  0  0  0  0  3  0  0  0  0  0  0
  161.8040  206.7470  151.8200 C   0  0  0  0  0  0  0  0  0  0  0  0
  161.1310  205.8750  152.7300 N   0  0  0  0  0  2  0  0  0  0  0  0
  162.5610  206.2690  150.9270 O   0  0  0  0  0  0  0  0  0  0  0  0
  161.3440  204.4360  152.7130 C   0  0  0  0  0  2  0  0  0  0  0  0
  160.2640  203.7830  151.8680 C   0  0  0  0  0  2  0  0  0  0  0  0
  161.6420  201.3600  148.6780 C   0  0  0  0  0  2  0  0  0  0  0  0
  161.4320  201.6760  151.1640 C   0  0  0  0  0  2  0  0  0  0  0  0
  159.9120  202.8540  149.6850 O   0  0  0  0  0  0  0  0  0  0  0  0
  160.5510  202.4340  148.4880 C   0  0  1  0  0  3  0  0  0  0  0  0
  161.4600  200.6590  150.0220 C   0  0  0  0  0  2  0  0  0  0  0  0
  160.8790  203.0350  150.6970 C   0  0  1  0  0  3  0  0  0  0  0  0
  162.7100  206.0770  145.2900 O   0  0  0  0  0  1  0  0  0  0  0  0
  162.4040  203.4130  147.0050 C   0  0  0  0  0  2  0  0  0  0  0  0
  161.4110  205.9050  145.7700 C   0  0  1  0  0  3  0  0  0  0  0  0
  160.8510  204.5560  145.2870 C   0  0  0  0  0  2  0  0  0  0  0  0
  160.6190  205.0380  148.0410 C   0  0  0  0  0  2  0  0  0  0  0  0
  161.3970  206.1140  147.2860 C   0  0  0  0  0  2  0  0  0  0  0  0
  161.0430  203.6130  147.6520 C   0  0  2  0  0  0  0  0  0  0  0  0
  161.1300  203.3150  146.1640 C   0  0  2  0  0  3  0  0  0  0  0  0
  160.8880  212.5960  149.5990 C   0  0  2  0  0  3  0  0  0  0  0  0
  159.7620  212.7450  150.6320 C   0  0  2  0  0  3  0  0  0  0  0  0
  158.5340  213.1790  149.9880 N   0  0  0  0  0  1  0  0  0  0  0  0
  160.1130  213.6650  151.6070 F   0  0  0  0  0  0  0  0  0  0  0  0
  160.4020  212.8240  148.2410 N   0  0  0  0  0  2  0  0  0  0  0  0
  160.7620  214.1790  147.8340 C   0  0  1  0  0  3  0  0  0  0  0  0
  162.2680  214.3520  147.8910 C   0  0  0  0  0  1  0  0  0  0  0  0
  160.3160  214.4180  146.4680 N   0  0  0  0  0  2  0  0  0  0  0  0
  159.9180  212.9430  141.8100 C   0  0  2  0  0  3  0  0  0  0  0  0
  162.5000  213.1990  145.4920 S   0  0  0  0  0  0  0  0  0  0  0  0
  160.6820  213.2590  145.6670 C   0  0  2  0  0  3  0  0  0  0  0  0
  160.3990  213.5220  144.1970 C   0  0  1  0  0  0  0  0  0  0  0  0
  162.3430  213.9490  142.7380 C   0  0  0  0  0  2  0  0  0  0  0  0
  159.0280  213.1530  143.9670 O   0  0  0  0  0  0  0  0  0  0  0  0
  161.6250  213.2900  141.1840 S   0  0  0  0  0  0  0  0  0  0  0  0
  161.7980  213.0700  143.8350 C   0  0  1  0  0  3  0  0  0  0  0  0
  159.9070  212.4160  143.2640 C   0  0  1  0  0  3  0  0  0  0  0  0
  159.2470  212.0040  140.9250 N   0  0  0  0  0  2  0  0  0  0  0  0
  160.2600  211.0760  140.4490 C   0  0  0  0  0  2  0  0  0  0  0  0
  159.0160  209.6630  138.8700 C   0  0  0  0  0  0  0  0  0  0  0  0
  161.5460  207.4820  137.8200 O   0  0  0  0  0  0  0  0  0  0  0  0
  157.7990  209.8480  139.1330 O   0  0  0  0  0  0  0  0  0  0  0  0
  161.5880  210.1260  138.2560 S   0  0  0  0  0  0  0  0  0  0  0  0
  159.4910  208.4040  138.4350 N   0  0  0  0  0  2  0  0  0  0  0  0
  160.0260  210.7550  138.9850 C   0  0  2  0  0  3  0  0  0  0  0  0
  160.8700  208.4970  138.1370 C   0  0  0  0  0  0  0  0  0  0  0  0
  1  6  1  0  0  0  0
  2  1  2  0  0  0  0
  3  5  1  0  0  0  0
  4  6  1  0  0  0  0
  4  7  2  0  0  0  0
  6  3  2  0  0  0  0
  7  8  1  0  0  0  0
  8  5  2  0  0  0  0
  9  7  1  0  0  0  0
  9 10  1  0  0  0  0
 11  9  2  0  0  0  0
 12 10  1  0  0  0  0
 13 12  1  0  0  0  0
 14 18  1  0  0  0  0
 16 19  1  0  0  0  0
 17 14  1  1  0  0  0
 17 16  1  0  0  0  0
 18 15  1  0  0  0  0
 19 15  1  0  0  0  0
 19 13  1  1  0  0  0
 22 20  1  1  0  0  0
 22 25  1  0  0  0  0
 23 22  1  0  0  0  0
 25 24  1  0  0  0  0
 26 21  1  1  0  0  0
 26 24  1  0  0  0  0
 26 17  1  0  0  0  0
 27 23  1  6  0  0  0
 27 21  1  0  0  0  0
 27 26  1  0  0  0  0
 28 32  1  6  0  0  0
 28  1  1  0  0  0  0
 28 29  1  0  0  0  0
 29 30  1  6  0  0  0
 29 31  1  0  0  0  0
 33 34  1  6  0  0  0
 33 32  1  0  0  0  0
 35 33  1  0  0  0  0
 36 45  1  6  0  0  0
 36 44  1  0  0  0  0
 37 38  1  0  0  0  0
 38 35  1  1  0  0  0
 39 41  1  6  0  0  0
 39 38  1  0  0  0  0
 42 36  1  0  0  0  0
 42 40  1  0  0  0  0
 43 40  1  6  0  0  0
 43 39  1  0  0  0  0
 43 37  1  0  0  0  0
 44 41  1  1  0  0  0
 44 39  1  0  0  0  0
 46 45  1  0  0  0  0
 47 52  1  0  0  0  0
 47 49  2  0  0  0  0
 48 53  2  0  0  0  0
 50 52  1  0  0  0  0
 51 47  1  0  0  0  0
 52 46  1  1  0  0  0
 53 50  1  0  0  0  0
 53 51  1  0  0  0  0
M  END
>  <MODEL>
7

>  <REMARK>
 VINA RESULT:      -5.6      3.987      7.581
  Name = 
  15 active torsions:
  status: ('A' for Active; 'I' for Inactive)
    1  A    between atoms: C_2  and  N_4
    2  A    between atoms: C_2  and  N_9
    3  A    between atoms: C_3  and  N_51
    4  A    between atoms: N_4  and  C_13
    5  A    between atoms: N_9  and  C_18
    6  A    between atoms: C_13  and  C_17
    7  A    between atoms: C_13  and  C_39
    8  A    between atoms: C_20  and  C_39
    9  A    between atoms: C_21  and  C_27
   10  A    between atoms: N_29  and  C_52
   11  A    between atoms: C_34  and  C_35
   12  A    between atoms: C_37  and  C_44
   13  A    between atoms: C_44  and  C_52
   14  A    between atoms: C_48  and  C_53
   15  A    between atoms: N_51  and  C_53
                            x       y       z     vdW  Elec       q    Type
                         _______ _______ _______ _____ _____    ______ ____

>  <TORSDO>
F 15

$$$$
=
 OpenBabel11052410413D

 53 60  0  0  1  0  0  0  0  0999 V2000
  161.2380  202.8120  147.7460 C   0  0  0  0  0  0  0  0  0  0  0  0
  161.2990  201.6420  147.2740 O   0  0  0  0  0  0  0  0  0  0  0  0
  161.3320  201.9120  150.0920 C   0  0  0  0  0  3  0  0  0  0  0  0
  161.0370  204.2880  149.7500 C   0  0  0  0  0  3  0  0  0  0  0  0
  161.2690  202.1030  151.4740 C   0  0  0  0  0  3  0  0  0  0  0  0
  161.2120  203.0030  149.2160 C   0  0  0  0  0  0  0  0  0  0  0  0
  160.9650  204.4890  151.1360 C   0  0  0  0  0  0  0  0  0  0  0  0
  161.0810  203.3860  151.9950 C   0  0  0  0  0  3  0  0  0  0  0  0
  160.7390  205.8370  151.6840 C   0  0  0  0  0  0  0  0  0  0  0  0
  161.1960  206.1590  152.9990 N   0  0  0  0  0  2  0  0  0  0  0  0
  160.1200  206.7010  150.9990 O   0  0  0  0  0  0  0  0  0  0  0  0
  160.9060  207.4420  153.6190 C   0  0  0  0  0  2  0  0  0  0  0  0
  160.7320  207.2440  155.1150 C   0  0  0  0  0  2  0  0  0  0  0  0
  161.6870  210.9090  157.0120 C   0  0  0  0  0  2  0  0  0  0  0  0
  161.9880  208.4130  156.9460 C   0  0  0  0  0  2  0  0  0  0  0  0
  161.2680  209.5750  154.9420 O   0  0  0  0  0  0  0  0  0  0  0  0
  161.1420  210.8430  155.5710 C   0  0  1  0  0  3  0  0  0  0  0  0
  162.6550  209.7530  157.2610 C   0  0  0  0  0  2  0  0  0  0  0  0
  160.9130  208.5580  155.8550 C   0  0  1  0  0  3  0  0  0  0  0  0
  156.2210  212.8000  155.9110 O   0  0  0  0  0  1  0  0  0  0  0  0
  158.9090  211.3140  156.7470 C   0  0  0  0  0  2  0  0  0  0  0  0
  157.2390  212.9840  154.9750 C   0  0  1  0  0  3  0  0  0  0  0  0
  158.4670  213.6130  155.6560 C   0  0  0  0  0  2  0  0  0  0  0  0
  158.9840  211.3220  154.1220 C   0  0  0  0  0  2  0  0  0  0  0  0
  157.5010  211.6670  154.2410 C   0  0  0  0  0  2  0  0  0  0  0  0
  159.7240  211.3990  155.4660 C   0  0  2  0  0  0  0  0  0  0  0  0
  159.4950  212.6530  156.2940 C   0  0  2  0  0  3  0  0  0  0  0  0
  161.1940  203.9630  146.7780 C   0  0  2  0  0  3  0  0  0  0  0  0
  161.3750  203.4990  145.3260 C   0  0  2  0  0  3  0  0  0  0  0  0
  160.6200  202.2820  145.0810 N   0  0  0  0  0  1  0  0  0  0  0  0
  162.7130  203.2650  145.0510 F   0  0  0  0  0  0  0  0  0  0  0  0
  162.1970  204.9550  147.1510 N   0  0  0  0  0  2  0  0  0  0  0  0
  161.7120  206.2790  146.7750 C   0  0  1  0  0  3  0  0  0  0  0  0
  160.6110  206.1500  145.7400 C   0  0  0  0  0  1  0  0  0  0  0  0
  161.1750  206.9580  147.9460 N   0  0  0  0  0  2  0  0  0  0  0  0
  161.1840  211.6430  149.3880 C   0  0  2  0  0  3  0  0  0  0  0  0
  162.8090  207.4880  150.0090 S   0  0  0  0  0  0  0  0  0  0  0  0
  162.1470  207.9560  148.3720 C   0  0  2  0  0  3  0  0  0  0  0  0
  161.4380  209.2120  148.8500 C   0  0  1  0  0  0  0  0  0  0  0  0
  161.3850  209.6140  151.2850 C   0  0  0  0  0  2  0  0  0  0  0  0
  161.2200  210.0320  147.6880 O   0  0  0  0  0  0  0  0  0  0  0  0
  161.3280  211.4460  151.2230 S   0  0  0  0  0  0  0  0  0  0  0  0
  162.2550  209.2020  150.1240 C   0  0  1  0  0  3  0  0  0  0  0  0
  162.0200  210.6040  148.6060 C   0  0  1  0  0  3  0  0  0  0  0  0
  161.5650  212.9940  149.0040 N   0  0  0  0  0  2  0  0  0  0  0  0
  160.4680  213.8670  149.3890 C   0  0  0  0  0  2  0  0  0  0  0  0
  158.3310  213.9590  148.1800 C   0  0  0  0  0  0  0  0  0  0  0  0
  158.9810  211.7460  145.5450 O   0  0  0  0  0  0  0  0  0  0  0  0
  157.5010  214.4490  148.9910 O   0  0  0  0  0  0  0  0  0  0  0  0
  160.5230  213.6310  146.6650 S   0  0  0  0  0  0  0  0  0  0  0  0
  157.9450  212.9790  147.2360 N   0  0  0  0  0  2  0  0  0  0  0  0
  159.7590  214.3880  148.1530 C   0  0  2  0  0  3  0  0  0  0  0  0
  159.0450  212.6650  146.4060 C   0  0  0  0  0  0  0  0  0  0  0  0
  1  6  1  0  0  0  0
  2  1  2  0  0  0  0
  3  5  1  0  0  0  0
  4  7  2  0  0  0  0
  5  8  2  0  0  0  0
  6  4  1  0  0  0  0
  6  3  2  0  0  0  0
  7  9  1  0  0  0  0
  7  8  1  0  0  0  0
  9 10  1  0  0  0  0
 10 12  1  0  0  0  0
 11  9  2  0  0  0  0
 12 13  1  0  0  0  0
 14 18  1  0  0  0  0
 15 18  1  0  0  0  0
 16 17  1  0  0  0  0
 16 19  1  0  0  0  0
 17 14  1  1  0  0  0
 19 13  1  6  0  0  0
 19 15  1  0  0  0  0
 22 23  1  0  0  0  0
 22 20  1  1  0  0  0
 24 25  1  0  0  0  0
 25 22  1  0  0  0  0
 26 24  1  6  0  0  0
 26 17  1  0  0  0  0
 26 27  1  0  0  0  0
 26 21  1  0  0  0  0
 27 23  1  6  0  0  0
 27 21  1  0  0  0  0
 28 32  1  1  0  0  0
 28  1  1  0  0  0  0
 29 31  1  1  0  0  0
 29 28  1  0  0  0  0
 30 29  1  0  0  0  0
 33 34  1  6  0  0  0
 33 32  1  0  0  0  0
 33 35  1  0  0  0  0
 36 45  1  1  0  0  0
 36 42  1  0  0  0  0
 37 43  1  0  0  0  0
 38 35  1  1  0  0  0
 38 39  1  0  0  0  0
 38 37  1  0  0  0  0
 39 41  1  1  0  0  0
 39 43  1  0  0  0  0
 42 40  1  0  0  0  0
 43 40  1  1  0  0  0
 44 41  1  6  0  0  0
 44 39  1  0  0  0  0
 44 36  1  0  0  0  0
 45 46  1  0  0  0  0
 47 49  2  0  0  0  0
 48 53  2  0  0  0  0
 50 52  1  0  0  0  0
 51 47  1  0  0  0  0
 52 47  1  0  0  0  0
 52 46  1  1  0  0  0
 53 50  1  0  0  0  0
 53 51  1  0  0  0  0
M  END
>  <MODEL>
8

>  <REMARK>
 VINA RESULT:      -5.6      3.270      9.064
  Name = 
  15 active torsions:
  status: ('A' for Active; 'I' for Inactive)
    1  A    between atoms: C_2  and  N_4
    2  A    between atoms: C_2  and  N_9
    3  A    between atoms: C_3  and  N_51
    4  A    between atoms: N_4  and  C_13
    5  A    between atoms: N_9  and  C_18
    6  A    between atoms: C_13  and  C_17
    7  A    between atoms: C_13  and  C_39
    8  A    between atoms: C_20  and  C_39
    9  A    between atoms: C_21  and  C_27
   10  A    between atoms: N_29  and  C_52
   11  A    between atoms: C_34  and  C_35
   12  A    between atoms: C_37  and  C_44
   13  A    between atoms: C_44  and  C_52
   14  A    between atoms: C_48  and  C_53
   15  A    between atoms: N_51  and  C_53
                            x       y       z     vdW  Elec       q    Type
                         _______ _______ _______ _____ _____    ______ ____

>  <TORSDO>
F 15

$$$$
=
 OpenBabel11052410413D

 53 60  0  0  1  0  0  0  0  0999 V2000
  161.3910  207.7540  147.8050 C   0  0  0  0  0  0  0  0  0  0  0  0
  160.2750  207.4900  147.2780 O   0  0  0  0  0  0  0  0  0  0  0  0
  162.1990  209.3630  149.5610 C   0  0  0  0  0  3  0  0  0  0  0  0
  161.3520  210.2280  147.4660 C   0  0  0  0  0  3  0  0  0  0  0  0
  162.4130  210.6680  150.0120 C   0  0  0  0  0  3  0  0  0  0  0  0
  161.6610  209.1310  148.2850 C   0  0  0  0  0  0  0  0  0  0  0  0
  161.5580  211.5410  147.9140 C   0  0  0  0  0  0  0  0  0  0  0  0
  162.0890  211.7530  149.1950 C   0  0  0  0  0  3  0  0  0  0  0  0
  161.1900  212.6850  147.0630 C   0  0  0  0  0  0  0  0  0  0  0  0
  160.4190  212.4730  145.8790 N   0  0  0  0  0  2  0  0  0  0  0  0
  161.5770  213.8500  147.3670 O   0  0  0  0  0  0  0  0  0  0  0  0
  160.1190  213.5570  144.9550 C   0  0  0  0  0  2  0  0  0  0  0  0
  160.9360  213.3710  143.6880 C   0  0  0  0  0  2  0  0  0  0  0  0
  158.4270  213.1820  140.2800 C   0  0  0  0  0  2  0  0  0  0  0  0
  158.6930  213.8760  142.6830 C   0  0  0  0  0  2  0  0  0  0  0  0
  160.6700  213.5620  141.3120 O   0  0  0  0  0  0  0  0  0  0  0  0
  159.9620  213.0710  140.1830 C   0  0  1  0  0  3  0  0  0  0  0  0
  158.0420  214.2120  141.3400 C   0  0  0  0  0  2  0  0  0  0  0  0
  160.0270  213.1330  142.4940 C   0  0  1  0  0  3  0  0  0  0  0  0
  160.8680  208.0900  138.5920 O   0  0  0  0  0  1  0  0  0  0  0  0
  159.2870  210.6660  139.5910 C   0  0  0  0  0  2  0  0  0  0  0  0
  161.6650  209.2350  138.5830 C   0  0  1  0  0  3  0  0  0  0  0  0
  161.0150  210.3170  137.7040 C   0  0  0  0  0  2  0  0  0  0  0  0
  161.7770  211.1510  140.2720 C   0  0  0  0  0  2  0  0  0  0  0  0
  161.9660  209.6560  140.0240 C   0  0  0  0  0  2  0  0  0  0  0  0
  160.4140  211.6680  139.7860 C   0  0  2  0  0  0  0  0  0  0  0  0
  160.0010  211.2670  138.3790 C   0  0  2  0  0  3  0  0  0  0  0  0
  162.3990  206.6430  147.9200 C   0  0  2  0  0  3  0  0  0  0  0  0
  162.2910  205.6490  146.7550 C   0  0  2  0  0  3  0  0  0  0  0  0
  163.3960  204.7060  146.7850 N   0  0  0  0  0  1  0  0  0  0  0  0
  162.2990  206.3170  145.5400 F   0  0  0  0  0  0  0  0  0  0  0  0
  162.2470  205.9750  149.2090 N   0  0  0  0  0  2  0  0  0  0  0  0
  160.8740  205.4940  149.3310 C   0  0  1  0  0  3  0  0  0  0  0  0
  160.8600  203.9770  149.3600 C   0  0  0  0  0  1  0  0  0  0  0  0
  160.2860  205.9900  150.5670 N   0  0  0  0  0  2  0  0  0  0  0  0
  160.8510  209.2290  154.2030 C   0  0  2  0  0  3  0  0  0  0  0  0
  161.9060  205.1750  152.5460 S   0  0  0  0  0  0  0  0  0  0  0  0
  161.3630  206.4950  151.4060 C   0  0  2  0  0  3  0  0  0  0  0  0
  160.8070  207.4070  152.4870 C   0  0  1  0  0  0  0  0  0  0  0  0
  160.7260  206.5080  154.7840 C   0  0  0  0  0  2  0  0  0  0  0  0
  160.7340  208.7270  151.9180 O   0  0  0  0  0  0  0  0  0  0  0  0
  160.9080  208.1020  155.6710 S   0  0  0  0  0  0  0  0  0  0  0  0
  161.5740  206.6420  153.5440 C   0  0  1  0  0  3  0  0  0  0  0  0
  161.5710  208.6410  152.9680 C   0  0  1  0  0  3  0  0  0  0  0  0
  161.4140  210.5240  154.5510 N   0  0  0  0  0  2  0  0  0  0  0  0
  160.3010  211.3850  154.9140 C   0  0  0  0  0  2  0  0  0  0  0  0
  159.1190  212.1560  152.9020 C   0  0  0  0  0  0  0  0  0  0  0  0
  156.2770  213.6130  154.3390 O   0  0  0  0  0  0  0  0  0  0  0  0
  159.9780  212.1580  151.9820 O   0  0  0  0  0  0  0  0  0  0  0  0
  157.5670  211.3400  154.9350 S   0  0  0  0  0  0  0  0  0  0  0  0
  158.0860  213.1210  152.9460 N   0  0  0  0  0  2  0  0  0  0  0  0
  159.1250  211.1330  153.9880 C   0  0  2  0  0  3  0  0  0  0  0  0
  157.2230  212.8390  154.0300 C   0  0  0  0  0  0  0  0  0  0  0  0
  1  6  1  0  0  0  0
  2  1  2  0  0  0  0
  3  5  1  0  0  0  0
  4  7  2  0  0  0  0
  4  6  1  0  0  0  0
  6  3  2  0  0  0  0
  7  8  1  0  0  0  0
  8  5  2  0  0  0  0
  9 11  2  0  0  0  0
  9  7  1  0  0  0  0
 10  9  1  0  0  0  0
 12 10  1  0  0  0  0
 13 12  1  0  0  0  0
 14 18  1  0  0  0  0
 16 19  1  0  0  0  0
 17 14  1  1  0  0  0
 17 16  1  0  0  0  0
 18 15  1  0  0  0  0
 19 15  1  0  0  0  0
 19 13  1  1  0  0  0
 22 20  1  1  0  0  0
 22 25  1  0  0  0  0
 23 22  1  0  0  0  0
 25 24  1  0  0  0  0
 26 21  1  1  0  0  0
 26 17  1  0  0  0  0
 26 24  1  0  0  0  0
 27 23  1  1  0  0  0
 27 21  1  0  0  0  0
 27 26  1  0  0  0  0
 28  1  1  6  0  0  0
 28 32  1  0  0  0  0
 29 31  1  6  0  0  0
 29 30  1  0  0  0  0
 29 28  1  0  0  0  0
 32 33  1  0  0  0  0
 33 34  1  1  0  0  0
 33 35  1  0  0  0  0
 36 45  1  1  0  0  0
 36 42  1  0  0  0  0
 37 43  1  0  0  0  0
 38 35  1  6  0  0  0
 38 39  1  0  0  0  0
 38 37  1  0  0  0  0
 39 41  1  1  0  0  0
 39 44  1  0  0  0  0
 39 43  1  0  0  0  0
 40 42  1  0  0  0  0
 43 40  1  1  0  0  0
 44 41  1  6  0  0  0
 44 36  1  0  0  0  0
 45 46  1  0  0  0  0
 47 51  1  0  0  0  0
 47 52  1  0  0  0  0
 49 47  2  0  0  0  0
 51 53  1  0  0  0  0
 52 46  1  1  0  0  0
 52 50  1  0  0  0  0
 53 48  2  0  0  0  0
 53 50  1  0  0  0  0
M  END
>  <MODEL>
9

>  <REMARK>
 VINA RESULT:      -5.1      4.435      8.972
  Name = 
  15 active torsions:
  status: ('A' for Active; 'I' for Inactive)
    1  A    between atoms: C_2  and  N_4
    2  A    between atoms: C_2  and  N_9
    3  A    between atoms: C_3  and  N_51
    4  A    between atoms: N_4  and  C_13
    5  A    between atoms: N_9  and  C_18
    6  A    between atoms: C_13  and  C_17
    7  A    between atoms: C_13  and  C_39
    8  A    between atoms: C_20  and  C_39
    9  A    between atoms: C_21  and  C_27
   10  A    between atoms: N_29  and  C_52
   11  A    between atoms: C_34  and  C_35
   12  A    between atoms: C_37  and  C_44
   13  A    between atoms: C_44  and  C_52
   14  A    between atoms: C_48  and  C_53
   15  A    between atoms: N_51  and  C_53
                            x       y       z     vdW  Elec       q    Type
                         _______ _______ _______ _____ _____    ______ ____

>  <TORSDO>
F 15

$$$$
