=
 OpenBabel11042421313D

 27 31  0  0  1  0  0  0  0  0999 V2000
  158.0060  211.2520  155.3090 O   0  0  0  0  0  0  0  0  0  0  0  0
  161.4410  208.7420  153.2800 N   0  0  0  0  0  0  0  0  0  0  0  0
  162.0070  208.7640  151.0920 C   0  0  0  0  0  0  0  0  0  0  0  0
  161.0320  205.7190  151.1190 N   0  0  0  0  0  0  0  0  0  0  0  0
  162.0990  206.5760  147.6370 N   0  0  0  0  0  0  0  0  0  0  0  0
  160.5300  204.4800  151.7120 C   0  0  0  0  0  1  0  0  0  0  0  0
  159.3660  209.5930  157.2520 N   0  0  0  0  0  1  0  0  0  0  0  0
  161.4910  207.9890  152.0750 C   0  0  0  0  0  0  0  0  0  0  0  0
  158.4260  211.3670  152.9380 C   0  0  0  0  0  2  0  0  0  0  0  0
  160.5620  209.4540  156.4360 C   0  0  1  0  0  3  0  0  0  0  0  0
  159.7420  211.1510  152.1860 C   0  0  0  0  0  2  0  0  0  0  0  0
  161.1080  206.6890  152.0390 N   0  0  0  0  0  0  0  0  0  0  0  0
  161.3330  204.3420  147.7050 C   0  0  0  0  0  3  0  0  0  0  0  0
  161.9440  210.0840  152.9890 C   0  0  1  0  0  3  0  0  0  0  0  0
  160.4020  208.2920  155.4420 C   0  0  1  0  0  3  0  0  0  0  0  0
  162.3300  210.0570  151.5800 N   0  0  0  0  0  0  0  0  0  0  0  0
  161.6440  208.1240  154.5820 C   0  0  0  0  0  2  0  0  0  0  0  0
  162.2530  208.3110  149.5130 S   0  0  0  0  0  0  0  0  0  0  0  0
  161.8600  206.7710  148.9650 C   0  0  0  0  0  0  0  0  0  0  0  0
  161.8520  205.4080  146.9990 C   0  0  0  0  0  3  0  0  0  0  0  0
  161.0800  204.5030  149.0610 C   0  0  0  0  0  3  0  0  0  0  0  0
  160.1610  206.9920  156.1870 C   0  0  0  0  0  1  0  0  0  0  0  0
  161.3260  205.7110  149.7600 C   0  0  0  0  0  0  0  0  0  0  0  0
  160.8700  211.1600  153.2340 C   0  0  2  0  0  3  0  0  0  0  0  0
  160.9030  210.8030  155.7870 C   0  0  0  0  0  2  0  0  0  0  0  0
  160.2080  210.9960  154.5160 N   0  0  0  0  0  0  0  0  0  0  0  0
  158.8180  211.1950  154.3490 C   0  0  0  0  0  0  0  0  0  0  0  0
  2 17  1  0  0  0  0
  3 16  2  0  0  0  0
  3  8  1  0  0  0  0
  4  6  1  0  0  0  0
  4 12  1  0  0  0  0
  5 19  1  0  0  0  0
  8  2  1  0  0  0  0
  9 27  1  0  0  0  0
 10  7  1  6  0  0  0
 11  9  1  0  0  0  0
 12  8  2  0  0  0  0
 13 21  2  0  0  0  0
 14 16  1  6  0  0  0
 14 24  1  0  0  0  0
 14  2  1  0  0  0  0
 15 22  1  1  0  0  0
 15 10  1  0  0  0  0
 17 15  1  0  0  0  0
 18  3  1  0  0  0  0
 19 18  1  0  0  0  0
 19 23  2  0  0  0  0
 20  5  2  0  0  0  0
 20 13  1  0  0  0  0
 21 23  1  0  0  0  0
 23  4  1  0  0  0  0
 24 11  1  6  0  0  0
 24 26  1  0  0  0  0
 25 10  1  0  0  0  0
 26 25  1  0  0  0  0
 27 26  1  0  0  0  0
 27  1  2  0  0  0  0
M  END
>  <MODEL>
1

>  <REMARK>
 VINA RESULT:      -8.4      0.000      0.000
  Name = 
  0 active torsions:
  status: ('A' for Active; 'I' for Inactive)
                            x       y       z     vdW  Elec       q    Type
                         _______ _______ _______ _____ _____    ______ ____

>  <TORSDO>
F 0

$$$$
