=
 OpenBabel11052410163D

 25 27  0  0  1  0  0  0  0  0999 V2000
  160.8480  203.7650  149.6710 C   0  0  0  0  0  0  0  0  0  0  0  0
  160.5020  203.6750  150.8790 O   0  0  0  0  0  0  0  0  0  0  0  0
  161.5110  206.2110  149.8310 N   0  0  0  0  0  0  0  0  0  0  0  0
  161.7240  205.0390  147.7290 C   0  0  0  0  0  0  0  0  0  0  0  0
  161.3680  205.0470  149.0950 C   0  0  0  0  0  0  0  0  0  0  0  0
  161.8940  203.7830  145.7170 O   0  0  0  0  0  0  0  0  0  0  0  0
  161.0740  202.6160  147.5530 N   0  0  0  0  0  0  0  0  0  0  0  0
  162.1280  208.4240  149.8840 O   0  0  0  0  0  0  0  0  0  0  0  0
  161.5780  203.8050  146.9350 C   0  0  0  0  0  0  0  0  0  0  0  0
  161.9930  207.3540  149.2300 C   0  0  0  0  0  0  0  0  0  0  0  0
  162.2100  206.2000  147.1340 C   0  0  0  0  0  3  0  0  0  0  0  0
  160.2150  201.2870  149.3610 C   0  0  0  0  0  1  0  0  0  0  0  0
  160.7310  202.5690  148.8050 C   0  0  0  0  0  0  0  0  0  0  0  0
  162.3450  207.3580  147.8840 C   0  0  0  0  0  3  0  0  0  0  0  0
  160.6610  207.5920  151.7220 C   0  0  0  0  0  2  0  0  0  0  0  0
  161.3850  207.8800  153.0270 C   0  0  2  0  0  3  0  0  0  0  0  0
  162.2980  205.8240  152.1580 C   0  0  0  0  0  2  0  0  0  0  0  0
  161.1460  206.2280  151.2580 C   0  0  2  0  0  3  0  0  0  0  0  0
  162.0700  206.5910  153.4390 C   0  0  0  0  0  2  0  0  0  0  0  0
  160.4310  208.2780  154.0510 N   0  0  0  0  0  2  0  0  0  0  0  0
  161.0080  209.7420  154.7780 S   0  0  0  0  0  0  0  0  0  0  0  0
  161.9090  210.4680  153.8180 O   0  0  0  0  0  0  0  0  0  0  0  0
  159.8460  210.6260  155.1360 O   0  0  0  0  0  0  0  0  0  0  0  0
  161.4210  208.0380  156.8360 C   0  0  0  0  0  1  0  0  0  0  0  0
  161.9150  209.3480  156.2580 C   0  0  0  0  0  2  0  0  0  0  0  0
  1  2  2  0  0  0  0
  4  5  2  0  0  0  0
  5  1  1  0  0  0  0
  5  3  1  0  0  0  0
  6  9  2  0  0  0  0
  7 13  2  0  0  0  0
  9  7  1  0  0  0  0
  9  4  1  0  0  0  0
 10  3  1  0  0  0  0
 10  8  2  0  0  0  0
 11  4  1  0  0  0  0
 11 14  2  0  0  0  0
 13 12  1  0  0  0  0
 13  1  1  0  0  0  0
 14 10  1  0  0  0  0
 15 16  1  0  0  0  0
 16 19  1  0  0  0  0
 16 20  1  1  0  0  0
 17 19  1  0  0  0  0
 18  3  1  6  0  0  0
 18 15  1  0  0  0  0
 18 17  1  0  0  0  0
 20 21  1  0  0  0  0
 21 23  2  0  0  0  0
 21 25  1  0  0  0  0
 22 21  2  0  0  0  0
 25 24  1  0  0  0  0
M  END
>  <MODEL>
1

>  <REMARK>
 VINA RESULT:      -8.3      0.000      0.000
  Name = 
  4 active torsions:
  status: ('A' for Active; 'I' for Inactive)
    1  A    between atoms: S_1  and  N_7
    2  A    between atoms: S_1  and  C_25
    3  A    between atoms: C_5  and  N_7
    4  A    between atoms: C_8  and  N_11
                            x       y       z     vdW  Elec       q    Type
                         _______ _______ _______ _____ _____    ______ ____

>  <TORSDO>
F 4

$$$$
=
 OpenBabel11052410163D

 25 27  0  0  1  0  0  0  0  0999 V2000
  160.8250  203.7880  149.6830 C   0  0  0  0  0  0  0  0  0  0  0  0
  160.4650  203.7050  150.8870 O   0  0  0  0  0  0  0  0  0  0  0  0
  161.4830  206.2350  149.8340 N   0  0  0  0  0  0  0  0  0  0  0  0
  161.7220  205.0490  147.7430 C   0  0  0  0  0  0  0  0  0  0  0  0
  161.3510  205.0660  149.1040 C   0  0  0  0  0  0  0  0  0  0  0  0
  161.9170  203.7790  145.7410 O   0  0  0  0  0  0  0  0  0  0  0  0
  161.0770  202.6250  147.5760 N   0  0  0  0  0  0  0  0  0  0  0  0
  162.0980  208.4490  149.8790 O   0  0  0  0  0  0  0  0  0  0  0  0
  161.5870  203.8090  146.9560 C   0  0  0  0  0  0  0  0  0  0  0  0
  161.9720  207.3740  149.2310 C   0  0  0  0  0  0  0  0  0  0  0  0
  162.2140  206.2060  147.1450 C   0  0  0  0  0  3  0  0  0  0  0  0
  160.1980  201.3070  149.3830 C   0  0  0  0  0  1  0  0  0  0  0  0
  160.7190  202.5850  148.8240 C   0  0  0  0  0  0  0  0  0  0  0  0
  162.3390  207.3700  147.8890 C   0  0  0  0  0  3  0  0  0  0  0  0
  160.6720  207.6440  151.7220 C   0  0  0  0  0  2  0  0  0  0  0  0
  161.3920  207.8930  153.0370 C   0  0  2  0  0  3  0  0  0  0  0  0
  162.2240  205.8030  152.1690 C   0  0  0  0  0  2  0  0  0  0  0  0
  161.1030  206.2620  151.2570 C   0  0  2  0  0  3  0  0  0  0  0  0
  162.0140  206.5730  153.4500 C   0  0  0  0  0  2  0  0  0  0  0  0
  160.4440  208.3280  154.0510 N   0  0  0  0  0  2  0  0  0  0  0  0
  160.8650  209.9430  154.5190 S   0  0  0  0  0  0  0  0  0  0  0  0
  161.2790  209.9650  155.9640 O   0  0  0  0  0  0  0  0  0  0  0  0
  162.0010  210.4390  153.6680 O   0  0  0  0  0  0  0  0  0  0  0  0
  159.1440  211.1420  152.8130 C   0  0  0  0  0  1  0  0  0  0  0  0
  159.4600  211.0100  154.2890 C   0  0  0  0  0  2  0  0  0  0  0  0
  1  2  2  0  0  0  0
  4  5  2  0  0  0  0
  5  1  1  0  0  0  0
  5  3  1  0  0  0  0
  6  9  2  0  0  0  0
  7 13  2  0  0  0  0
  9  7  1  0  0  0  0
  9  4  1  0  0  0  0
 10  3  1  0  0  0  0
 10  8  2  0  0  0  0
 11  4  1  0  0  0  0
 11 14  2  0  0  0  0
 13 12  1  0  0  0  0
 13  1  1  0  0  0  0
 14 10  1  0  0  0  0
 15 16  1  0  0  0  0
 16 19  1  0  0  0  0
 16 20  1  1  0  0  0
 17 19  1  0  0  0  0
 18  3  1  6  0  0  0
 18 15  1  0  0  0  0
 18 17  1  0  0  0  0
 20 21  1  0  0  0  0
 21 22  2  0  0  0  0
 23 21  2  0  0  0  0
 24 25  1  0  0  0  0
 25 21  1  0  0  0  0
M  END
>  <MODEL>
2

>  <REMARK>
 VINA RESULT:      -8.2      1.127      1.496
  Name = 
  4 active torsions:
  status: ('A' for Active; 'I' for Inactive)
    1  A    between atoms: S_1  and  N_7
    2  A    between atoms: S_1  and  C_25
    3  A    between atoms: C_5  and  N_7
    4  A    between atoms: C_8  and  N_11
                            x       y       z     vdW  Elec       q    Type
                         _______ _______ _______ _____ _____    ______ ____

>  <TORSDO>
F 4

$$$$
=
 OpenBabel11052410163D

 25 27  0  0  1  0  0  0  0  0999 V2000
  160.7900  209.2900  152.4360 C   0  0  0  0  0  0  0  0  0  0  0  0
  160.8070  209.8100  151.2890 O   0  0  0  0  0  0  0  0  0  0  0  0
  161.1640  206.9240  151.5940 N   0  0  0  0  0  0  0  0  0  0  0  0
  160.9290  207.3380  153.9620 C   0  0  0  0  0  0  0  0  0  0  0  0
  160.9680  207.8150  152.6350 C   0  0  0  0  0  0  0  0  0  0  0  0
  160.6880  207.8660  156.2690 O   0  0  0  0  0  0  0  0  0  0  0  0
  160.5600  209.6750  154.8140 N   0  0  0  0  0  0  0  0  0  0  0  0
  161.4930  204.7520  150.9200 O   0  0  0  0  0  0  0  0  0  0  0  0
  160.7220  208.2780  155.0800 C   0  0  0  0  0  0  0  0  0  0  0  0
  161.3160  205.5790  151.8550 C   0  0  0  0  0  0  0  0  0  0  0  0
  161.0830  205.9770  154.2130 C   0  0  0  0  0  3  0  0  0  0  0  0
  160.4070  211.6350  153.4320 C   0  0  0  0  0  1  0  0  0  0  0  0
  160.5860  210.1670  153.6120 C   0  0  0  0  0  0  0  0  0  0  0  0
  161.2770  205.0970  153.1600 C   0  0  0  0  0  3  0  0  0  0  0  0
  160.5370  206.4640  149.2280 C   0  0  0  0  0  2  0  0  0  0  0  0
  161.4900  206.3170  148.0530 C   0  0  2  0  0  3  0  0  0  0  0  0
  162.6280  207.6420  149.7160 C   0  0  0  0  0  2  0  0  0  0  0  0
  161.2110  207.4140  150.2050 C   0  0  2  0  0  3  0  0  0  0  0  0
  162.5690  207.3680  148.2320 C   0  0  0  0  0  2  0  0  0  0  0  0
  160.7820  206.5480  146.8030 N   0  0  0  0  0  2  0  0  0  0  0  0
  161.3360  205.3750  145.6520 S   0  0  0  0  0  0  0  0  0  0  0  0
  160.3090  205.1990  144.5690 O   0  0  0  0  0  0  0  0  0  0  0  0
  162.6310  205.8330  145.0410 O   0  0  0  0  0  0  0  0  0  0  0  0
  161.0050  202.6920  145.6580 C   0  0  0  0  0  1  0  0  0  0  0  0
  161.6010  203.8200  146.4760 C   0  0  0  0  0  2  0  0  0  0  0  0
  1  5  1  0  0  0  0
  1 13  1  0  0  0  0
  2  1  2  0  0  0  0
  3 10  1  0  0  0  0
  3  5  1  0  0  0  0
  4 11  1  0  0  0  0
  4  9  1  0  0  0  0
  5  4  2  0  0  0  0
  7  9  1  0  0  0  0
  8 10  2  0  0  0  0
  9  6  2  0  0  0  0
 10 14  1  0  0  0  0
 12 13  1  0  0  0  0
 13  7  2  0  0  0  0
 14 11  2  0  0  0  0
 16 20  1  6  0  0  0
 16 19  1  0  0  0  0
 16 15  1  0  0  0  0
 17 18  1  0  0  0  0
 18 15  1  6  0  0  0
 18  3  1  0  0  0  0
 19 17  1  0  0  0  0
 21 25  1  0  0  0  0
 21 20  1  0  0  0  0
 22 21  2  0  0  0  0
 23 21  2  0  0  0  0
 24 25  1  0  0  0  0
M  END
>  <MODEL>
3

>  <REMARK>
 VINA RESULT:      -8.1      2.877      7.851
  Name = 
  4 active torsions:
  status: ('A' for Active; 'I' for Inactive)
    1  A    between atoms: S_1  and  N_7
    2  A    between atoms: S_1  and  C_25
    3  A    between atoms: C_5  and  N_7
    4  A    between atoms: C_8  and  N_11
                            x       y       z     vdW  Elec       q    Type
                         _______ _______ _______ _____ _____    ______ ____

>  <TORSDO>
F 4

$$$$
=
 OpenBabel11052410163D

 25 27  0  0  1  0  0  0  0  0999 V2000
  161.7790  204.7930  147.5000 C   0  0  0  0  0  0  0  0  0  0  0  0
  162.0940  205.9580  147.8620 O   0  0  0  0  0  0  0  0  0  0  0  0
  161.2410  203.9890  149.8470 N   0  0  0  0  0  0  0  0  0  0  0  0
  161.0110  202.4810  147.9740 C   0  0  0  0  0  0  0  0  0  0  0  0
  161.3380  203.7550  148.4860 C   0  0  0  0  0  0  0  0  0  0  0  0
  160.8180  201.0900  146.0540 O   0  0  0  0  0  0  0  0  0  0  0  0
  161.5380  203.2620  145.6420 N   0  0  0  0  0  0  0  0  0  0  0  0
  160.7380  203.1750  151.9370 O   0  0  0  0  0  0  0  0  0  0  0  0
  161.1090  202.2210  146.5250 C   0  0  0  0  0  0  0  0  0  0  0  0
  160.8310  202.9810  150.6940 C   0  0  0  0  0  0  0  0  0  0  0  0
  160.5990  201.4720  148.8390 C   0  0  0  0  0  3  0  0  0  0  0  0
  162.2890  205.4710  145.0670 C   0  0  0  0  0  1  0  0  0  0  0  0
  161.8520  204.4510  146.0610 C   0  0  0  0  0  0  0  0  0  0  0  0
  160.5080  201.7210  150.2000 C   0  0  0  0  0  3  0  0  0  0  0  0
  161.9050  205.2740  151.8750 C   0  0  0  0  0  2  0  0  0  0  0  0
  161.1310  206.4160  152.5150 C   0  0  2  0  0  3  0  0  0  0  0  0
  160.4570  206.3230  150.2010 C   0  0  0  0  0  2  0  0  0  0  0  0
  161.5750  205.3170  150.3910 C   0  0  2  0  0  3  0  0  0  0  0  0
  160.5790  207.2580  151.3810 C   0  0  0  0  0  2  0  0  0  0  0  0
  162.0180  207.2220  153.3380 N   0  0  0  0  0  2  0  0  0  0  0  0
  161.0880  207.8730  154.6480 S   0  0  0  0  0  0  0  0  0  0  0  0
  159.9400  206.9550  154.9640 O   0  0  0  0  0  0  0  0  0  0  0  0
  161.9560  208.0230  155.8650 O   0  0  0  0  0  0  0  0  0  0  0  0
  161.5660  210.3170  153.5950 C   0  0  0  0  0  1  0  0  0  0  0  0
  160.4570  209.4710  154.1860 C   0  0  0  0  0  2  0  0  0  0  0  0
  1  2  2  0  0  0  0
  1  5  1  0  0  0  0
  3 10  1  0  0  0  0
  4  5  2  0  0  0  0
  4 11  1  0  0  0  0
  5  3  1  0  0  0  0
  6  9  2  0  0  0  0
  7 13  2  0  0  0  0
  7  9  1  0  0  0  0
  9  4  1  0  0  0  0
 10  8  2  0  0  0  0
 11 14  2  0  0  0  0
 12 13  1  0  0  0  0
 13  1  1  0  0  0  0
 14 10  1  0  0  0  0
 15 16  1  0  0  0  0
 16 20  1  1  0  0  0
 17 18  1  0  0  0  0
 17 19  1  0  0  0  0
 18  3  1  1  0  0  0
 18 15  1  0  0  0  0
 19 16  1  0  0  0  0
 20 21  1  0  0  0  0
 21 22  2  0  0  0  0
 21 23  2  0  0  0  0
 24 25  1  0  0  0  0
 25 21  1  0  0  0  0
M  END
>  <MODEL>
4

>  <REMARK>
 VINA RESULT:      -7.8      2.016      3.551
  Name = 
  4 active torsions:
  status: ('A' for Active; 'I' for Inactive)
    1  A    between atoms: S_1  and  N_7
    2  A    between atoms: S_1  and  C_25
    3  A    between atoms: C_5  and  N_7
    4  A    between atoms: C_8  and  N_11
                            x       y       z     vdW  Elec       q    Type
                         _______ _______ _______ _____ _____    ______ ____

>  <TORSDO>
F 4

$$$$
=
 OpenBabel11052410163D

 25 27  0  0  1  0  0  0  0  0999 V2000
  161.6580  204.7680  147.4810 C   0  0  0  0  0  0  0  0  0  0  0  0
  161.9840  205.9370  147.8170 O   0  0  0  0  0  0  0  0  0  0  0  0
  161.2100  203.9890  149.8550 N   0  0  0  0  0  0  0  0  0  0  0  0
  160.9150  202.4590  148.0090 C   0  0  0  0  0  0  0  0  0  0  0  0
  161.2570  203.7400  148.4940 C   0  0  0  0  0  0  0  0  0  0  0  0
  160.6550  201.0460  146.1130 O   0  0  0  0  0  0  0  0  0  0  0  0
  161.3530  203.2150  145.6500 N   0  0  0  0  0  0  0  0  0  0  0  0
  160.7870  203.1980  151.9710 O   0  0  0  0  0  0  0  0  0  0  0  0
  160.9600  202.1830  146.5600 C   0  0  0  0  0  0  0  0  0  0  0  0
  160.8350  202.9900  150.7280 C   0  0  0  0  0  0  0  0  0  0  0  0
  160.5380  201.4590  148.9000 C   0  0  0  0  0  3  0  0  0  0  0  0
  162.0760  205.4190  145.0230 C   0  0  0  0  0  1  0  0  0  0  0  0
  161.6790  204.4090  146.0440 C   0  0  0  0  0  0  0  0  0  0  0  0
  160.4980  201.7240  150.2600 C   0  0  0  0  0  3  0  0  0  0  0  0
  161.8820  205.3100  151.8570 C   0  0  0  0  0  2  0  0  0  0  0  0
  161.1210  206.4760  152.4670 C   0  0  2  0  0  3  0  0  0  0  0  0
  160.4570  206.3410  150.1530 C   0  0  0  0  0  2  0  0  0  0  0  0
  161.5600  205.3240  150.3710 C   0  0  2  0  0  3  0  0  0  0  0  0
  160.5870  207.3000  151.3120 C   0  0  0  0  0  2  0  0  0  0  0  0
  162.0160  207.2880  153.2770 N   0  0  0  0  0  2  0  0  0  0  0  0
  161.0610  208.1120  154.4650 S   0  0  0  0  0  0  0  0  0  0  0  0
  161.9560  208.7290  155.5030 O   0  0  0  0  0  0  0  0  0  0  0  0
  160.2460  209.1900  153.8060 O   0  0  0  0  0  0  0  0  0  0  0  0
  160.1400  206.9980  156.7510 C   0  0  0  0  0  1  0  0  0  0  0  0
  159.9610  206.9520  155.2470 C   0  0  0  0  0  2  0  0  0  0  0  0
  1  2  2  0  0  0  0
  1  5  1  0  0  0  0
  3 10  1  0  0  0  0
  4  5  2  0  0  0  0
  4 11  1  0  0  0  0
  5  3  1  0  0  0  0
  6  9  2  0  0  0  0
  7 13  2  0  0  0  0
  7  9  1  0  0  0  0
  9  4  1  0  0  0  0
 10  8  2  0  0  0  0
 11 14  2  0  0  0  0
 12 13  1  0  0  0  0
 13  1  1  0  0  0  0
 14 10  1  0  0  0  0
 15 16  1  0  0  0  0
 16 20  1  1  0  0  0
 17 18  1  0  0  0  0
 17 19  1  0  0  0  0
 18  3  1  1  0  0  0
 18 15  1  0  0  0  0
 19 16  1  0  0  0  0
 20 21  1  0  0  0  0
 21 25  1  0  0  0  0
 21 22  2  0  0  0  0
 23 21  2  0  0  0  0
 25 24  1  0  0  0  0
M  END
>  <MODEL>
5

>  <REMARK>
 VINA RESULT:      -7.6      1.824      3.384
  Name = 
  4 active torsions:
  status: ('A' for Active; 'I' for Inactive)
    1  A    between atoms: S_1  and  N_7
    2  A    between atoms: S_1  and  C_25
    3  A    between atoms: C_5  and  N_7
    4  A    between atoms: C_8  and  N_11
                            x       y       z     vdW  Elec       q    Type
                         _______ _______ _______ _____ _____    ______ ____

>  <TORSDO>
F 4

$$$$
=
 OpenBabel11052410163D

 25 27  0  0  1  0  0  0  0  0999 V2000
  161.3730  205.3520  151.2250 C   0  0  0  0  0  0  0  0  0  0  0  0
  161.4090  205.7240  152.4280 O   0  0  0  0  0  0  0  0  0  0  0  0
  161.6940  207.6860  150.2790 N   0  0  0  0  0  0  0  0  0  0  0  0
  161.4560  205.8020  148.7860 C   0  0  0  0  0  0  0  0  0  0  0  0
  161.5140  206.3260  150.0950 C   0  0  0  0  0  0  0  0  0  0  0  0
  161.2150  203.8720  147.4150 O   0  0  0  0  0  0  0  0  0  0  0  0
  161.1390  203.4830  149.7060 N   0  0  0  0  0  0  0  0  0  0  0  0
  161.9740  209.7630  149.3360 O   0  0  0  0  0  0  0  0  0  0  0  0
  161.2660  204.3540  148.5780 C   0  0  0  0  0  0  0  0  0  0  0  0
  161.8110  208.5200  149.1890 C   0  0  0  0  0  0  0  0  0  0  0  0
  161.5750  206.6550  147.6930 C   0  0  0  0  0  3  0  0  0  0  0  0
  161.0420  202.9310  152.0430 C   0  0  0  0  0  1  0  0  0  0  0  0
  161.1840  203.9120  150.9310 C   0  0  0  0  0  0  0  0  0  0  0  0
  161.7530  208.0150  147.8930 C   0  0  0  0  0  3  0  0  0  0  0  0
  160.3930  208.6220  152.1860 C   0  0  0  0  0  2  0  0  0  0  0  0
  160.5470  210.0080  152.7900 C   0  0  2  0  0  3  0  0  0  0  0  0
  162.6430  209.4720  151.7260 C   0  0  0  0  0  2  0  0  0  0  0  0
  161.7610  208.2420  151.6420 C   0  0  2  0  0  3  0  0  0  0  0  0
  162.0330  210.3050  152.8280 C   0  0  0  0  0  2  0  0  0  0  0  0
  160.0070  210.0270  154.1410 N   0  0  0  0  0  2  0  0  0  0  0  0
  159.0350  211.4520  154.3070 S   0  0  0  0  0  0  0  0  0  0  0  0
  159.8950  212.6120  154.7250 O   0  0  0  0  0  0  0  0  0  0  0  0
  158.3700  211.7720  152.9970 O   0  0  0  0  0  0  0  0  0  0  0  0
  156.4080  211.2040  154.9000 C   0  0  0  0  0  1  0  0  0  0  0  0
  157.7810  211.1710  155.5390 C   0  0  0  0  0  2  0  0  0  0  0  0
  1  2  2  0  0  0  0
  4  5  2  0  0  0  0
  5  3  1  0  0  0  0
  5  1  1  0  0  0  0
  6  9  2  0  0  0  0
  7 13  2  0  0  0  0
  9  4  1  0  0  0  0
  9  7  1  0  0  0  0
 10  8  2  0  0  0  0
 10  3  1  0  0  0  0
 11 14  2  0  0  0  0
 11  4  1  0  0  0  0
 13  1  1  0  0  0  0
 13 12  1  0  0  0  0
 14 10  1  0  0  0  0
 15 16  1  0  0  0  0
 16 19  1  0  0  0  0
 16 20  1  1  0  0  0
 17 19  1  0  0  0  0
 18  3  1  6  0  0  0
 18 17  1  0  0  0  0
 18 15  1  0  0  0  0
 20 21  1  0  0  0  0
 21 22  2  0  0  0  0
 21 25  1  0  0  0  0
 23 21  2  0  0  0  0
 24 25  1  0  0  0  0
M  END
>  <MODEL>
6

>  <REMARK>
 VINA RESULT:      -7.1      2.324      2.685
  Name = 
  4 active torsions:
  status: ('A' for Active; 'I' for Inactive)
    1  A    between atoms: S_1  and  N_7
    2  A    between atoms: S_1  and  C_25
    3  A    between atoms: C_5  and  N_7
    4  A    between atoms: C_8  and  N_11
                            x       y       z     vdW  Elec       q    Type
                         _______ _______ _______ _____ _____    ______ ____

>  <TORSDO>
F 4

$$$$
=
 OpenBabel11052410163D

 25 27  0  0  1  0  0  0  0  0999 V2000
  161.7950  205.6670  148.5800 C   0  0  0  0  0  0  0  0  0  0  0  0
  162.0790  206.8860  148.7220 O   0  0  0  0  0  0  0  0  0  0  0  0
  161.4270  205.2530  151.0570 N   0  0  0  0  0  0  0  0  0  0  0  0
  161.1580  203.4430  149.4800 C   0  0  0  0  0  0  0  0  0  0  0  0
  161.4570  204.7950  149.7510 C   0  0  0  0  0  0  0  0  0  0  0  0
  160.9180  201.7420  147.8340 O   0  0  0  0  0  0  0  0  0  0  0  0
  161.5160  203.8360  147.0220 N   0  0  0  0  0  0  0  0  0  0  0  0
  161.0810  204.7860  153.2810 O   0  0  0  0  0  0  0  0  0  0  0  0
  161.1850  202.9450  148.0910 C   0  0  0  0  0  0  0  0  0  0  0  0
  161.1110  204.3890  152.0840 C   0  0  0  0  0  0  0  0  0  0  0  0
  160.8410  202.5810  150.5250 C   0  0  0  0  0  3  0  0  0  0  0  0
  162.1350  205.9410  146.0410 C   0  0  0  0  0  1  0  0  0  0  0  0
  161.8010  205.0890  147.2160 C   0  0  0  0  0  0  0  0  0  0  0  0
  160.8170  203.0530  151.8280 C   0  0  0  0  0  3  0  0  0  0  0  0
  161.9060  206.9270  152.8380 C   0  0  0  0  0  2  0  0  0  0  0  0
  161.0960  208.1770  153.1440 C   0  0  2  0  0  3  0  0  0  0  0  0
  160.6640  207.6090  150.8410 C   0  0  0  0  0  2  0  0  0  0  0  0
  161.7330  206.6630  151.3510 C   0  0  2  0  0  3  0  0  0  0  0  0
  160.6840  208.7670  151.8100 C   0  0  0  0  0  2  0  0  0  0  0  0
  161.9110  209.1350  153.8750 N   0  0  0  0  0  2  0  0  0  0  0  0
  161.3570  209.1650  155.5170 S   0  0  0  0  0  0  0  0  0  0  0  0
  159.9450  209.6770  155.5700 O   0  0  0  0  0  0  0  0  0  0  0  0
  161.4070  207.7790  156.0970 O   0  0  0  0  0  0  0  0  0  0  0  0
  161.6270  211.4370  156.9570 C   0  0  0  0  0  1  0  0  0  0  0  0
  162.4100  210.2330  156.4750 C   0  0  0  0  0  2  0  0  0  0  0  0
  1  2  2  0  0  0  0
  1  5  1  0  0  0  0
  3 18  1  0  0  0  0
  3 10  1  0  0  0  0
  4  5  2  0  0  0  0
  4 11  1  0  0  0  0
  5  3  1  0  0  0  0
  6  9  2  0  0  0  0
  7 13  2  0  0  0  0
  7  9  1  0  0  0  0
  9  4  1  0  0  0  0
 10  8  2  0  0  0  0
 11 14  2  0  0  0  0
 12 13  1  0  0  0  0
 13  1  1  0  0  0  0
 14 10  1  0  0  0  0
 15 16  1  0  0  0  0
 16 20  1  6  0  0  0
 17 19  1  0  0  0  0
 18 17  1  1  0  0  0
 18 15  1  0  0  0  0
 19 16  1  0  0  0  0
 20 21  1  0  0  0  0
 21 22  2  0  0  0  0
 21 23  2  0  0  0  0
 21 25  1  0  0  0  0
 25 24  1  0  0  0  0
M  END
>  <MODEL>
7

>  <REMARK>
 VINA RESULT:      -6.7      1.621      3.195
  Name = 
  4 active torsions:
  status: ('A' for Active; 'I' for Inactive)
    1  A    between atoms: S_1  and  N_7
    2  A    between atoms: S_1  and  C_25
    3  A    between atoms: C_5  and  N_7
    4  A    between atoms: C_8  and  N_11
                            x       y       z     vdW  Elec       q    Type
                         _______ _______ _______ _____ _____    ______ ____

>  <TORSDO>
F 4

$$$$
=
 OpenBabel11052410163D

 25 27  0  0  1  0  0  0  0  0999 V2000
  161.8490  208.7510  150.5710 C   0  0  0  0  0  0  0  0  0  0  0  0
  162.2080  207.9380  149.6780 O   0  0  0  0  0  0  0  0  0  0  0  0
  161.3330  206.9520  152.2870 N   0  0  0  0  0  0  0  0  0  0  0  0
  161.0090  209.2800  152.8460 C   0  0  0  0  0  0  0  0  0  0  0  0
  161.3920  208.2850  151.9200 C   0  0  0  0  0  0  0  0  0  0  0  0
  160.7350  211.6020  153.2840 O   0  0  0  0  0  0  0  0  0  0  0  0
  161.5180  211.0750  151.1600 N   0  0  0  0  0  0  0  0  0  0  0  0
  160.8340  205.3910  153.8980 O   0  0  0  0  0  0  0  0  0  0  0  0
  161.0710  210.7040  152.4670 C   0  0  0  0  0  0  0  0  0  0  0  0
  160.8970  206.6010  153.5470 C   0  0  0  0  0  0  0  0  0  0  0  0
  160.5720  208.9120  154.1150 C   0  0  0  0  0  3  0  0  0  0  0  0
  162.3310  210.6800  148.9330 C   0  0  0  0  0  1  0  0  0  0  0  0
  161.8810  210.2000  150.2690 C   0  0  0  0  0  0  0  0  0  0  0  0
  160.5150  207.5720  154.4660 C   0  0  0  0  0  3  0  0  0  0  0  0
  160.5760  205.4210  150.4730 C   0  0  0  0  0  2  0  0  0  0  0  0
  160.6470  203.9020  150.4850 C   0  0  2  0  0  3  0  0  0  0  0  0
  162.3380  204.6940  152.0110 C   0  0  0  0  0  2  0  0  0  0  0  0
  161.7350  205.9070  151.3290 C   0  0  2  0  0  3  0  0  0  0  0  0
  161.9750  203.5330  151.1160 C   0  0  0  0  0  2  0  0  0  0  0  0
  160.5900  203.3890  149.1250 N   0  0  0  0  0  2  0  0  0  0  0  0
  160.3840  201.6700  149.2120 S   0  0  0  0  0  0  0  0  0  0  0  0
  160.9750  201.1490  150.4920 O   0  0  0  0  0  0  0  0  0  0  0  0
  158.9210  201.3280  149.1620 O   0  0  0  0  0  0  0  0  0  0  0  0
  160.8310  201.6210  146.5450 C   0  0  0  0  0  1  0  0  0  0  0  0
  161.2050  200.9080  147.8280 C   0  0  0  0  0  2  0  0  0  0  0  0
  1  5  1  0  0  0  0
  2  1  2  0  0  0  0
  3 10  1  0  0  0  0
  4 11  1  0  0  0  0
  5  3  1  0  0  0  0
  5  4  2  0  0  0  0
  7  9  1  0  0  0  0
  9  4  1  0  0  0  0
  9  6  2  0  0  0  0
 10  8  2  0  0  0  0
 10 14  1  0  0  0  0
 11 14  2  0  0  0  0
 12 13  1  0  0  0  0
 13  1  1  0  0  0  0
 13  7  2  0  0  0  0
 15 16  1  0  0  0  0
 16 20  1  6  0  0  0
 16 19  1  0  0  0  0
 18 15  1  1  0  0  0
 18 17  1  0  0  0  0
 18  3  1  0  0  0  0
 19 17  1  0  0  0  0
 20 21  1  0  0  0  0
 21 22  2  0  0  0  0
 23 21  2  0  0  0  0
 24 25  1  0  0  0  0
 25 21  1  0  0  0  0
M  END
>  <MODEL>
8

>  <REMARK>
 VINA RESULT:      -6.4      3.003      7.515
  Name = 
  4 active torsions:
  status: ('A' for Active; 'I' for Inactive)
    1  A    between atoms: S_1  and  N_7
    2  A    between atoms: S_1  and  C_25
    3  A    between atoms: C_5  and  N_7
    4  A    between atoms: C_8  and  N_11
                            x       y       z     vdW  Elec       q    Type
                         _______ _______ _______ _____ _____    ______ ____

>  <TORSDO>
F 4

$$$$
=
 OpenBabel11052410163D

 25 27  0  0  1  0  0  0  0  0999 V2000
  161.1630  207.3640  152.9910 C   0  0  0  0  0  0  0  0  0  0  0  0
  161.2030  206.1160  152.8220 O   0  0  0  0  0  0  0  0  0  0  0  0
  161.7220  207.9150  150.5770 N   0  0  0  0  0  0  0  0  0  0  0  0
  161.3590  209.6970  152.1680 C   0  0  0  0  0  0  0  0  0  0  0  0
  161.4260  208.3190  151.8670 C   0  0  0  0  0  0  0  0  0  0  0  0
  160.9770  211.3650  153.8200 O   0  0  0  0  0  0  0  0  0  0  0  0
  160.8020  209.1690  154.5630 N   0  0  0  0  0  0  0  0  0  0  0  0
  162.2300  208.5060  148.4150 O   0  0  0  0  0  0  0  0  0  0  0  0
  161.0420  210.1390  153.5390 C   0  0  0  0  0  0  0  0  0  0  0  0
  161.9560  208.8550  149.5960 C   0  0  0  0  0  0  0  0  0  0  0  0
  161.5970  210.6360  151.1680 C   0  0  0  0  0  3  0  0  0  0  0  0
  160.5900  206.9530  155.4700 C   0  0  0  0  0  1  0  0  0  0  0  0
  160.8520  207.8890  154.3410 C   0  0  0  0  0  0  0  0  0  0  0  0
  161.8960  210.2150  149.8810 C   0  0  0  0  0  3  0  0  0  0  0  0
  162.1920  206.2250  148.8090 C   0  0  0  0  0  2  0  0  0  0  0  0
  161.2230  205.1830  148.2750 C   0  0  2  0  0  3  0  0  0  0  0  0
  160.4720  205.7670  150.4910 C   0  0  0  0  0  2  0  0  0  0  0  0
  161.7890  206.4800  150.2520 C   0  0  2  0  0  3  0  0  0  0  0  0
  160.4470  204.6570  149.4670 C   0  0  0  0  0  2  0  0  0  0  0  0
  161.9550  204.0940  147.6460 N   0  0  0  0  0  2  0  0  0  0  0  0
  161.7430  204.2290  145.9310 S   0  0  0  0  0  0  0  0  0  0  0  0
  160.9320  205.4540  145.6110 O   0  0  0  0  0  0  0  0  0  0  0  0
  163.0830  204.3280  145.2580 O   0  0  0  0  0  0  0  0  0  0  0  0
  160.8310  201.7290  146.4100 C   0  0  0  0  0  1  0  0  0  0  0  0
  160.8960  202.7850  145.3260 C   0  0  0  0  0  2  0  0  0  0  0  0
  1 13  1  0  0  0  0
  2  1  2  0  0  0  0
  3  5  1  0  0  0  0
  4  9  1  0  0  0  0
  5  4  2  0  0  0  0
  5  1  1  0  0  0  0
  8 10  2  0  0  0  0
  9  6  2  0  0  0  0
  9  7  1  0  0  0  0
 10 14  1  0  0  0  0
 10  3  1  0  0  0  0
 11  4  1  0  0  0  0
 13  7  2  0  0  0  0
 13 12  1  0  0  0  0
 14 11  2  0  0  0  0
 16 20  1  1  0  0  0
 16 15  1  0  0  0  0
 16 19  1  0  0  0  0
 18 15  1  6  0  0  0
 18 17  1  0  0  0  0
 18  3  1  0  0  0  0
 19 17  1  0  0  0  0
 21 20  1  0  0  0  0
 22 21  2  0  0  0  0
 23 21  2  0  0  0  0
 25 21  1  0  0  0  0
 25 24  1  0  0  0  0
M  END
>  <MODEL>
9

>  <REMARK>
 VINA RESULT:      -6.1      2.755      7.418
  Name = 
  4 active torsions:
  status: ('A' for Active; 'I' for Inactive)
    1  A    between atoms: S_1  and  N_7
    2  A    between atoms: S_1  and  C_25
    3  A    between atoms: C_5  and  N_7
    4  A    between atoms: C_8  and  N_11
                            x       y       z     vdW  Elec       q    Type
                         _______ _______ _______ _____ _____    ______ ____

>  <TORSDO>
F 4

$$$$
