=
 OpenBabel11052410493D

 28 32  0  0  1  0  0  0  0  0999 V2000
  161.6720  207.0480  152.7020 C   0  0  1  0  0  3  0  0  0  0  0  0
  161.5800  204.6110  149.4060 O   0  0  0  0  0  0  0  0  0  0  0  0
  161.1540  205.6070  150.2800 C   0  0  1  0  0  0  0  0  0  0  0  0
  162.3850  209.3620  151.1270 S   0  0  0  0  0  0  0  0  0  0  0  0
  161.2320  203.7340  151.5530 O   0  0  0  0  0  0  0  0  0  0  0  0
  160.9860  205.7980  152.6600 O   0  0  0  0  0  0  0  0  0  0  0  0
  162.7740  207.3320  147.9000 C   0  0  0  0  0  1  0  0  0  0  0  0
  161.5480  203.4310  150.2040 C   0  0  1  0  0  3  0  0  0  0  0  0
  162.0020  209.1540  149.3840 C   0  0  0  0  0  0  0  0  0  0  0  0
  159.6360  205.7940  150.1520 C   0  0  0  0  0  1  0  0  0  0  0  0
  161.5680  205.0720  151.6060 C   0  0  2  0  0  3  0  0  0  0  0  0
  161.8380  210.1130  148.6490 O   0  0  0  0  0  0  0  0  0  0  0  0
  161.4730  207.8140  151.3600 C   0  0  1  0  0  3  0  0  0  0  0  0
  161.7380  207.7540  148.9250 C   0  0  2  0  0  3  0  0  0  0  0  0
  161.9010  206.9300  150.1870 C   0  0  2  0  0  3  0  0  0  0  0  0
  160.4780  206.9990  154.9340 C   0  0  0  0  0  1  0  0  0  0  0  0
  161.1700  207.8710  153.8990 C   0  0  2  0  0  3  0  0  0  0  0  0
  160.1390  210.2260  154.1340 C   0  0  0  0  0  0  0  0  0  0  0  0
  159.2590  211.1350  153.6340 N   0  0  0  0  0  0  0  0  0  0  0  0
  160.8860  210.5450  155.2780 C   0  0  0  0  0  3  0  0  0  0  0  0
  160.2770  208.9550  153.4830 N   0  0  0  0  0  2  0  0  0  0  0  0
  159.8090  212.7050  155.3480 C   0  0  0  0  0  3  0  0  0  0  0  0
  159.0810  212.3550  154.2100 C   0  0  0  0  0  3  0  0  0  0  0  0
  160.7170  211.7910  155.8830 C   0  0  0  0  0  3  0  0  0  0  0  0
  160.5360  202.4510  149.6330 C   0  0  0  0  0  2  0  0  0  0  0  0
  161.1710  201.6150  148.5400 C   0  0  0  0  0  3  0  0  0  0  0  0
  160.2480  201.3860  147.5440 O   0  0  0  0  0  0  0  0  0  0  0  0
  161.1850  202.3290  147.3640 O   0  0  0  0  0  0  0  0  0  0  0  0
  1 17  1  1  0  0  0
  2  8  1  0  0  0  0
  2  3  1  0  0  0  0
  3 10  1  6  0  0  0
  3 11  1  0  0  0  0
  6  1  1  0  0  0  0
  8 25  1  6  0  0  0
  8  5  1  0  0  0  0
  9  4  1  0  0  0  0
 11  5  1  6  0  0  0
 11  6  1  0  0  0  0
 12  9  2  0  0  0  0
 13  4  1  1  0  0  0
 13  1  1  0  0  0  0
 14  7  1  6  0  0  0
 14  9  1  0  0  0  0
 14 15  1  0  0  0  0
 15  3  1  0  0  0  0
 15 13  1  0  0  0  0
 17 16  1  0  0  0  0
 18 20  1  0  0  0  0
 19 18  2  0  0  0  0
 19 23  1  0  0  0  0
 20 24  2  0  0  0  0
 21 17  1  0  0  0  0
 21 18  1  0  0  0  0
 22 24  1  0  0  0  0
 23 22  2  0  0  0  0
 26 25  1  0  0  0  0
 27 26  1  0  0  0  0
 28 27  1  0  0  0  0
 28 26  1  0  0  0  0
M  END
>  <MODEL>
1

>  <REMARK>
 VINA RESULT:      -6.4      0.000      0.000
  Name = 
  4 active torsions:
  status: ('A' for Active; 'I' for Inactive)
    1  A    between atoms: C_1  and  C_17
    2  A    between atoms: C_9  and  C_19
    3  A    between atoms: N_12  and  C_17
    4  A    between atoms: C_14  and  C_19
                            x       y       z     vdW  Elec       q    Type
                         _______ _______ _______ _____ _____    ______ ____

>  <TORSDO>
F 4

$$$$
=
 OpenBabel11052410493D

 28 32  0  0  1  0  0  0  0  0999 V2000
  161.1340  205.9810  150.8960 C   0  0  1  0  0  3  0  0  0  0  0  0
  160.3420  204.8590  147.0330 O   0  0  0  0  0  0  0  0  0  0  0  0
  161.0770  204.9930  148.2070 C   0  0  1  0  0  0  0  0  0  0  0  0
  160.9390  203.2640  151.8590 S   0  0  0  0  0  0  0  0  0  0  0  0
  160.6040  207.1220  147.5920 O   0  0  0  0  0  0  0  0  0  0  0  0
  161.4640  206.7750  149.7570 O   0  0  0  0  0  0  0  0  0  0  0  0
  159.7960  201.9010  148.4640 C   0  0  0  0  0  1  0  0  0  0  0  0
  160.1210  206.2060  146.6230 C   0  0  1  0  0  3  0  0  0  0  0  0
  161.1250  202.0540  150.5450 C   0  0  0  0  0  0  0  0  0  0  0  0
  162.5770  204.9370  147.8880 C   0  0  0  0  0  1  0  0  0  0  0  0
  160.6350  206.3200  148.7160 C   0  0  2  0  0  3  0  0  0  0  0  0
  161.4810  200.9100  150.7780 O   0  0  0  0  0  0  0  0  0  0  0  0
  161.4280  204.4790  150.6060 C   0  0  1  0  0  3  0  0  0  0  0  0
  160.9790  202.5640  149.1450 C   0  0  2  0  0  3  0  0  0  0  0  0
  160.6980  204.0420  149.3340 C   0  0  2  0  0  3  0  0  0  0  0  0
  163.2790  205.8090  152.2300 C   0  0  0  0  0  1  0  0  0  0  0  0
  161.9210  206.4820  152.1180 C   0  0  2  0  0  3  0  0  0  0  0  0
  160.7880  207.3440  154.2710 C   0  0  0  0  0  0  0  0  0  0  0  0
  160.0960  207.0220  155.3980 N   0  0  0  0  0  0  0  0  0  0  0  0
  161.1160  208.6860  154.0230 C   0  0  0  0  0  3  0  0  0  0  0  0
  161.1720  206.3020  153.3640 N   0  0  0  0  0  2  0  0  0  0  0  0
  160.0180  209.3090  156.0800 C   0  0  0  0  0  3  0  0  0  0  0  0
  159.7070  207.9660  156.2970 C   0  0  0  0  0  3  0  0  0  0  0  0
  160.7260  209.6680  154.9340 C   0  0  0  0  0  3  0  0  0  0  0  0
  160.7960  206.4530  145.2830 C   0  0  0  0  0  2  0  0  0  0  0  0
  160.8070  205.1820  144.4570 C   0  0  0  0  0  3  0  0  0  0  0  0
  161.5800  205.3720  143.3340 O   0  0  0  0  0  0  0  0  0  0  0  0
  162.0930  204.6980  144.3740 O   0  0  0  0  0  0  0  0  0  0  0  0
  1 17  1  1  0  0  0
  2  3  1  0  0  0  0
  3 10  1  6  0  0  0
  3 11  1  0  0  0  0
  3 15  1  0  0  0  0
  6  1  1  0  0  0  0
  8 25  1  6  0  0  0
  8  2  1  0  0  0  0
  8  5  1  0  0  0  0
  9 12  2  0  0  0  0
  9  4  1  0  0  0  0
 11  5  1  6  0  0  0
 11  6  1  0  0  0  0
 13  1  1  0  0  0  0
 13  4  1  1  0  0  0
 14  7  1  1  0  0  0
 14 15  1  0  0  0  0
 14  9  1  0  0  0  0
 15 13  1  0  0  0  0
 17 16  1  0  0  0  0
 17 21  1  0  0  0  0
 18 19  2  0  0  0  0
 19 23  1  0  0  0  0
 20 18  1  0  0  0  0
 20 24  2  0  0  0  0
 21 18  1  0  0  0  0
 22 23  2  0  0  0  0
 24 22  1  0  0  0  0
 26 25  1  0  0  0  0
 27 28  1  0  0  0  0
 27 26  1  0  0  0  0
 28 26  1  0  0  0  0
M  END
>  <MODEL>
2

>  <REMARK>
 VINA RESULT:      -6.0      2.695      4.603
  Name = 
  4 active torsions:
  status: ('A' for Active; 'I' for Inactive)
    1  A    between atoms: C_1  and  C_17
    2  A    between atoms: C_9  and  C_19
    3  A    between atoms: N_12  and  C_17
    4  A    between atoms: C_14  and  C_19
                            x       y       z     vdW  Elec       q    Type
                         _______ _______ _______ _____ _____    ______ ____

>  <TORSDO>
F 4

$$$$
=
 OpenBabel11052410493D

 28 32  0  0  1  0  0  0  0  0999 V2000
  160.6710  206.1840  148.1420 C   0  0  1  0  0  3  0  0  0  0  0  0
  161.2760  204.2630  144.5710 O   0  0  0  0  0  0  0  0  0  0  0  0
  161.5800  204.7320  145.8460 C   0  0  1  0  0  0  0  0  0  0  0  0
  160.4780  203.6930  149.5940 S   0  0  0  0  0  0  0  0  0  0  0  0
  161.0970  206.6000  144.6570 O   0  0  0  0  0  0  0  0  0  0  0  0
  161.2570  206.8040  146.9980 O   0  0  0  0  0  0  0  0  0  0  0  0
  160.6300  201.5620  146.4120 C   0  0  0  0  0  1  0  0  0  0  0  0
  161.0510  205.4550  143.8230 C   0  0  1  0  0  3  0  0  0  0  0  0
  161.2040  202.3170  148.6970 C   0  0  0  0  0  0  0  0  0  0  0  0
  163.1010  204.8800  145.9930 C   0  0  0  0  0  1  0  0  0  0  0  0
  160.8570  206.0320  145.8930 C   0  0  2  0  0  3  0  0  0  0  0  0
  161.5900  201.3130  149.2740 O   0  0  0  0  0  0  0  0  0  0  0  0
  161.2040  204.7280  148.2950 C   0  0  1  0  0  3  0  0  0  0  0  0
  161.4550  202.5320  147.2370 C   0  0  2  0  0  3  0  0  0  0  0  0
  160.9690  203.9490  146.9990 C   0  0  2  0  0  3  0  0  0  0  0  0
  162.1730  207.9300  149.1920 C   0  0  0  0  0  1  0  0  0  0  0  0
  160.9680  207.0260  149.3930 C   0  0  2  0  0  3  0  0  0  0  0  0
  161.1230  206.6450  151.9420 C   0  0  0  0  0  0  0  0  0  0  0  0
  161.3320  205.7500  152.9460 N   0  0  0  0  0  0  0  0  0  0  0  0
  160.8770  207.9900  152.2560 C   0  0  0  0  0  3  0  0  0  0  0  0
  161.1650  206.1920  150.5810 N   0  0  0  0  0  2  0  0  0  0  0  0
  161.0660  207.4500  154.6020 C   0  0  0  0  0  3  0  0  0  0  0  0
  161.3080  206.1200  154.2550 C   0  0  0  0  0  3  0  0  0  0  0  0
  160.8490  208.3890  153.5930 C   0  0  0  0  0  3  0  0  0  0  0  0
  162.0860  205.5690  142.7150 C   0  0  0  0  0  2  0  0  0  0  0  0
  161.5940  206.5070  141.6290 C   0  0  0  0  0  3  0  0  0  0  0  0
  162.6730  207.1060  141.0180 O   0  0  0  0  0  0  0  0  0  0  0  0
  162.0610  206.0810  140.4070 O   0  0  0  0  0  0  0  0  0  0  0  0
  1 13  1  0  0  0  0
  1 17  1  1  0  0  0
  2  3  1  0  0  0  0
  3 11  1  0  0  0  0
  3 10  1  1  0  0  0
  3 15  1  0  0  0  0
  6  1  1  0  0  0  0
  8 25  1  6  0  0  0
  8  2  1  0  0  0  0
  8  5  1  0  0  0  0
  9 12  2  0  0  0  0
  9  4  1  0  0  0  0
 11  5  1  6  0  0  0
 11  6  1  0  0  0  0
 13  4  1  1  0  0  0
 14  7  1  6  0  0  0
 14  9  1  0  0  0  0
 15 14  1  0  0  0  0
 15 13  1  0  0  0  0
 16 17  1  0  0  0  0
 17 21  1  0  0  0  0
 18 20  1  0  0  0  0
 18 19  2  0  0  0  0
 19 23  1  0  0  0  0
 20 24  2  0  0  0  0
 21 18  1  0  0  0  0
 23 22  2  0  0  0  0
 24 22  1  0  0  0  0
 26 25  1  0  0  0  0
 27 26  1  0  0  0  0
 28 27  1  0  0  0  0
 28 26  1  0  0  0  0
M  END
>  <MODEL>
3

>  <REMARK>
 VINA RESULT:      -5.9      3.808      6.116
  Name = 
  4 active torsions:
  status: ('A' for Active; 'I' for Inactive)
    1  A    between atoms: C_1  and  C_17
    2  A    between atoms: C_9  and  C_19
    3  A    between atoms: N_12  and  C_17
    4  A    between atoms: C_14  and  C_19
                            x       y       z     vdW  Elec       q    Type
                         _______ _______ _______ _____ _____    ______ ____

>  <TORSDO>
F 4

$$$$
=
 OpenBabel11052410493D

 28 32  0  0  1  0  0  0  0  0999 V2000
  161.3760  208.8430  151.0270 C   0  0  1  0  0  3  0  0  0  0  0  0
  160.5970  205.0240  152.3000 O   0  0  0  0  0  0  0  0  0  0  0  0
  161.3220  206.2000  152.1330 C   0  0  1  0  0  0  0  0  0  0  0  0
  161.0960  209.9230  153.6910 S   0  0  0  0  0  0  0  0  0  0  0  0
  160.9140  205.4840  150.0220 O   0  0  0  0  0  0  0  0  0  0  0  0
  161.7390  207.6730  150.2940 O   0  0  0  0  0  0  0  0  0  0  0  0
  159.9550  206.5790  155.1760 C   0  0  0  0  0  1  0  0  0  0  0  0
  160.4170  204.5510  150.9670 C   0  0  1  0  0  3  0  0  0  0  0  0
  161.2640  208.6670  154.9640 C   0  0  0  0  0  0  0  0  0  0  0  0
  162.8240  205.9020  152.2440 C   0  0  0  0  0  1  0  0  0  0  0  0
  160.9110  206.6440  150.7740 C   0  0  2  0  0  3  0  0  0  0  0  0
  161.5860  208.9550  156.1050 O   0  0  0  0  0  0  0  0  0  0  0  0
  161.6320  208.6230  152.5480 C   0  0  1  0  0  3  0  0  0  0  0  0
  161.1470  207.2440  154.5140 C   0  0  2  0  0  3  0  0  0  0  0  0
  160.9040  207.3630  153.0220 C   0  0  2  0  0  3  0  0  0  0  0  0
  163.2370  210.5010  151.4690 C   0  0  0  0  0  1  0  0  0  0  0  0
  162.1620  210.0500  150.4930 C   0  0  2  0  0  3  0  0  0  0  0  0
  161.4770  212.1090  149.0950 C   0  0  0  0  0  0  0  0  0  0  0  0
  160.5750  213.1120  148.9170 N   0  0  0  0  0  0  0  0  0  0  0  0
  162.5790  212.0120  148.2310 C   0  0  0  0  0  3  0  0  0  0  0  0
  161.2830  211.1760  150.1660 N   0  0  0  0  0  2  0  0  0  0  0  0
  161.7900  213.9610  147.0450 C   0  0  0  0  0  3  0  0  0  0  0  0
  160.7060  214.0300  147.9210 C   0  0  0  0  0  3  0  0  0  0  0  0
  162.7310  212.9430  147.2040 C   0  0  0  0  0  3  0  0  0  0  0  0
  161.1140  203.2100  150.7990 C   0  0  0  0  0  2  0  0  0  0  0  0
  160.8310  202.6390  149.4230 C   0  0  0  0  0  3  0  0  0  0  0  0
  161.0840  201.2860  149.4290 O   0  0  0  0  0  0  0  0  0  0  0  0
  159.8160  201.7140  149.5090 O   0  0  0  0  0  0  0  0  0  0  0  0
  1 17  1  6  0  0  0
  1 13  1  0  0  0  0
  3 10  1  1  0  0  0
  3  2  1  0  0  0  0
  3 15  1  0  0  0  0
  4  9  1  0  0  0  0
  5  8  1  0  0  0  0
  6 11  1  0  0  0  0
  6  1  1  0  0  0  0
  8 25  1  1  0  0  0
  8  2  1  0  0  0  0
  9 12  2  0  0  0  0
 11  5  1  6  0  0  0
 11  3  1  0  0  0  0
 13 15  1  0  0  0  0
 13  4  1  1  0  0  0
 14  9  1  0  0  0  0
 14  7  1  1  0  0  0
 15 14  1  0  0  0  0
 17 16  1  0  0  0  0
 18 21  1  0  0  0  0
 19 18  2  0  0  0  0
 20 18  1  0  0  0  0
 21 17  1  0  0  0  0
 22 24  1  0  0  0  0
 22 23  2  0  0  0  0
 23 19  1  0  0  0  0
 24 20  2  0  0  0  0
 26 27  1  0  0  0  0
 26 28  1  0  0  0  0
 26 25  1  0  0  0  0
 27 28  1  0  0  0  0
M  END
>  <MODEL>
4

>  <REMARK>
 VINA RESULT:      -5.9      2.764      4.829
  Name = 
  4 active torsions:
  status: ('A' for Active; 'I' for Inactive)
    1  A    between atoms: C_1  and  C_17
    2  A    between atoms: C_9  and  C_19
    3  A    between atoms: N_12  and  C_17
    4  A    between atoms: C_14  and  C_19
                            x       y       z     vdW  Elec       q    Type
                         _______ _______ _______ _____ _____    ______ ____

>  <TORSDO>
F 4

$$$$
=
 OpenBabel11052410493D

 28 32  0  0  1  0  0  0  0  0999 V2000
  160.8320  207.5460  151.8850 C   0  0  1  0  0  3  0  0  0  0  0  0
  160.6040  211.4310  153.1750 O   0  0  0  0  0  0  0  0  0  0  0  0
  161.2090  210.2490  152.7590 C   0  0  1  0  0  0  0  0  0  0  0  0
  161.5860  208.3450  149.2130 S   0  0  0  0  0  0  0  0  0  0  0  0
  160.0290  209.6610  154.6020 O   0  0  0  0  0  0  0  0  0  0  0  0
  160.8920  207.9300  153.2580 O   0  0  0  0  0  0  0  0  0  0  0  0
  161.1020  212.0750  149.9440 C   0  0  0  0  0  1  0  0  0  0  0  0
  159.9320  211.0570  154.3750 C   0  0  1  0  0  3  0  0  0  0  0  0
  162.2280  210.0210  149.1510 C   0  0  0  0  0  0  0  0  0  0  0  0
  162.6400  210.1780  153.3090 C   0  0  0  0  0  1  0  0  0  0  0  0
  160.3100  209.2080  153.3280 C   0  0  2  0  0  3  0  0  0  0  0  0
  162.9600  210.3900  148.2470 O   0  0  0  0  0  0  0  0  0  0  0  0
  161.6490  208.5460  151.0130 C   0  0  1  0  0  3  0  0  0  0  0  0
  161.9510  210.8830  150.3430 C   0  0  2  0  0  3  0  0  0  0  0  0
  161.1590  209.9740  151.2620 C   0  0  2  0  0  3  0  0  0  0  0  0
  162.7130  205.9260  152.3860 C   0  0  0  0  0  1  0  0  0  0  0  0
  161.3540  206.1080  151.7290 C   0  0  2  0  0  3  0  0  0  0  0  0
  161.2050  204.3720  149.8250 C   0  0  0  0  0  0  0  0  0  0  0  0
  161.3080  204.1410  148.4880 N   0  0  0  0  0  0  0  0  0  0  0  0
  160.8980  203.3080  150.6870 C   0  0  0  0  0  3  0  0  0  0  0  0
  161.4210  205.6990  150.3240 N   0  0  0  0  0  2  0  0  0  0  0  0
  160.8110  201.8240  148.7850 C   0  0  0  0  0  3  0  0  0  0  0  0
  161.1180  202.9040  147.9550 C   0  0  0  0  0  3  0  0  0  0  0  0
  160.7000  202.0320  150.1600 C   0  0  0  0  0  3  0  0  0  0  0  0
  160.5150  211.8240  155.5510 C   0  0  0  0  0  2  0  0  0  0  0  0
  159.4610  212.7220  156.1680 C   0  0  0  0  0  3  0  0  0  0  0  0
  160.0390  213.9130  156.5470 O   0  0  0  0  0  0  0  0  0  0  0  0
  159.3280  213.8630  155.4110 O   0  0  0  0  0  0  0  0  0  0  0  0
  1 17  1  1  0  0  0
  1  6  1  0  0  0  0
  2  8  1  0  0  0  0
  3  2  1  0  0  0  0
  3 10  1  1  0  0  0
  3 11  1  0  0  0  0
  8  5  1  0  0  0  0
  8 25  1  1  0  0  0
  9  4  1  0  0  0  0
  9 14  1  0  0  0  0
 11  6  1  1  0  0  0
 11  5  1  0  0  0  0
 12  9  2  0  0  0  0
 13  4  1  6  0  0  0
 13 15  1  0  0  0  0
 13  1  1  0  0  0  0
 14  7  1  6  0  0  0
 14 15  1  0  0  0  0
 15  3  1  0  0  0  0
 17 16  1  0  0  0  0
 18 21  1  0  0  0  0
 18 20  1  0  0  0  0
 19 18  2  0  0  0  0
 21 17  1  0  0  0  0
 22 24  1  0  0  0  0
 23 19  1  0  0  0  0
 23 22  2  0  0  0  0
 24 20  2  0  0  0  0
 25 26  1  0  0  0  0
 26 27  1  0  0  0  0
 28 26  1  0  0  0  0
 28 27  1  0  0  0  0
M  END
>  <MODEL>
5

>  <REMARK>
 VINA RESULT:      -5.6      3.352      7.927
  Name = 
  4 active torsions:
  status: ('A' for Active; 'I' for Inactive)
    1  A    between atoms: C_1  and  C_17
    2  A    between atoms: C_9  and  C_19
    3  A    between atoms: N_12  and  C_17
    4  A    between atoms: C_14  and  C_19
                            x       y       z     vdW  Elec       q    Type
                         _______ _______ _______ _____ _____    ______ ____

>  <TORSDO>
F 4

$$$$
=
 OpenBabel11052410493D

 28 32  0  0  1  0  0  0  0  0999 V2000
  161.5130  208.9880  150.0320 C   0  0  1  0  0  3  0  0  0  0  0  0
  161.2900  205.3570  148.1410 O   0  0  0  0  0  0  0  0  0  0  0  0
  161.8330  206.3570  148.9420 C   0  0  1  0  0  0  0  0  0  0  0  0
  161.0110  207.8120  152.6220 S   0  0  0  0  0  0  0  0  0  0  0  0
  161.5870  207.3300  146.9100 O   0  0  0  0  0  0  0  0  0  0  0  0
  162.0670  208.7310  148.7420 O   0  0  0  0  0  0  0  0  0  0  0  0
  160.3520  204.3280  151.1680 C   0  0  0  0  0  1  0  0  0  0  0  0
  161.2150  205.9630  146.8540 C   0  0  1  0  0  3  0  0  0  0  0  0
  161.3360  206.0460  152.6510 C   0  0  0  0  0  0  0  0  0  0  0  0
  163.3590  206.2050  148.9960 C   0  0  0  0  0  1  0  0  0  0  0  0
  161.3920  207.5990  148.2510 C   0  0  2  0  0  3  0  0  0  0  0  0
  161.5840  205.4600  153.6920 O   0  0  0  0  0  0  0  0  0  0  0  0
  161.7630  207.7730  150.9740 C   0  0  1  0  0  3  0  0  0  0  0  0
  161.4460  205.3680  151.3210 C   0  0  2  0  0  3  0  0  0  0  0  0
  161.2230  206.4940  150.3300 C   0  0  2  0  0  3  0  0  0  0  0  0
  162.3060  210.1940  152.1120 C   0  0  0  0  0  1  0  0  0  0  0  0
  162.1200  210.2780  150.6050 C   0  0  2  0  0  3  0  0  0  0  0  0
  161.5310  212.3200  149.1410 C   0  0  0  0  0  0  0  0  0  0  0  0
  160.7060  213.3870  148.9590 N   0  0  0  0  0  0  0  0  0  0  0  0
  162.5720  212.0900  148.2290 C   0  0  0  0  0  3  0  0  0  0  0  0
  161.3210  211.4580  150.2670 N   0  0  0  0  0  2  0  0  0  0  0  0
  161.8830  214.0420  146.9870 C   0  0  0  0  0  3  0  0  0  0  0  0
  160.8580  214.2430  147.9120 C   0  0  0  0  0  3  0  0  0  0  0  0
  162.7440  212.9570  147.1490 C   0  0  0  0  0  3  0  0  0  0  0  0
  162.1100  205.2140  145.8800 C   0  0  0  0  0  2  0  0  0  0  0  0
  161.4360  205.0990  144.5260 C   0  0  0  0  0  3  0  0  0  0  0  0
  160.6240  203.9870  144.5110 O   0  0  0  0  0  0  0  0  0  0  0  0
  160.0720  205.1980  144.6820 O   0  0  0  0  0  0  0  0  0  0  0  0
  1 17  1  1  0  0  0
  1 13  1  0  0  0  0
  2  3  1  0  0  0  0
  3 10  1  1  0  0  0
  3 15  1  0  0  0  0
  4  9  1  0  0  0  0
  6  1  1  0  0  0  0
  8 25  1  6  0  0  0
  8  5  1  0  0  0  0
  8  2  1  0  0  0  0
  9 12  2  0  0  0  0
 11  5  1  6  0  0  0
 11  6  1  0  0  0  0
 11  3  1  0  0  0  0
 13  4  1  1  0  0  0
 14  7  1  1  0  0  0
 14  9  1  0  0  0  0
 15 13  1  0  0  0  0
 15 14  1  0  0  0  0
 17 16  1  0  0  0  0
 18 21  1  0  0  0  0
 19 18  2  0  0  0  0
 20 18  1  0  0  0  0
 21 17  1  0  0  0  0
 22 24  1  0  0  0  0
 22 23  2  0  0  0  0
 23 19  1  0  0  0  0
 24 20  2  0  0  0  0
 26 28  1  0  0  0  0
 26 25  1  0  0  0  0
 27 26  1  0  0  0  0
 27 28  1  0  0  0  0
M  END
>  <MODEL>
6

>  <REMARK>
 VINA RESULT:      -5.4      2.976      5.001
  Name = 
  4 active torsions:
  status: ('A' for Active; 'I' for Inactive)
    1  A    between atoms: C_1  and  C_17
    2  A    between atoms: C_9  and  C_19
    3  A    between atoms: N_12  and  C_17
    4  A    between atoms: C_14  and  C_19
                            x       y       z     vdW  Elec       q    Type
                         _______ _______ _______ _____ _____    ______ ____

>  <TORSDO>
F 4

$$$$
=
 OpenBabel11052410493D

 28 32  0  0  1  0  0  0  0  0999 V2000
  161.2410  208.3470  152.4380 C   0  0  1  0  0  3  0  0  0  0  0  0
  159.9590  211.8950  154.0440 O   0  0  0  0  0  0  0  0  0  0  0  0
  159.8810  210.5670  153.6350 C   0  0  1  0  0  0  0  0  0  0  0  0
  161.3590  207.0720  155.0280 S   0  0  0  0  0  0  0  0  0  0  0  0
  160.3970  211.7100  151.7480 O   0  0  0  0  0  0  0  0  0  0  0  0
  160.5770  209.3630  151.6870 O   0  0  0  0  0  0  0  0  0  0  0  0
  160.5520  210.3100  156.9140 C   0  0  0  0  0  1  0  0  0  0  0  0
  160.2080  212.6030  152.8330 C   0  0  1  0  0  3  0  0  0  0  0  0
  160.3760  207.9300  156.2630 C   0  0  0  0  0  0  0  0  0  0  0  0
  158.4180  210.1990  153.3470 C   0  0  0  0  0  1  0  0  0  0  0  0
  160.7390  210.5520  152.4190 C   0  0  2  0  0  3  0  0  0  0  0  0
  159.9650  207.3590  157.2600 O   0  0  0  0  0  0  0  0  0  0  0  0
  160.5800  208.1980  153.8410 C   0  0  1  0  0  3  0  0  0  0  0  0
  159.9550  209.3260  155.9250 C   0  0  2  0  0  3  0  0  0  0  0  0
  160.5540  209.5540  154.5510 C   0  0  2  0  0  3  0  0  0  0  0  0
  162.2970  206.0680  152.1170 C   0  0  0  0  0  1  0  0  0  0  0  0
  161.2060  207.0230  151.6580 C   0  0  2  0  0  3  0  0  0  0  0  0
  161.3190  206.2100  149.2110 C   0  0  0  0  0  0  0  0  0  0  0  0
  161.4250  206.5620  147.9010 N   0  0  0  0  0  0  0  0  0  0  0  0
  161.2290  204.8520  149.5560 C   0  0  0  0  0  3  0  0  0  0  0  0
  161.3080  207.2360  150.2120 N   0  0  0  0  0  2  0  0  0  0  0  0
  161.3570  204.2750  147.2150 C   0  0  0  0  0  3  0  0  0  0  0  0
  161.4450  205.6340  146.9060 C   0  0  0  0  0  3  0  0  0  0  0  0
  161.2470  203.8850  148.5500 C   0  0  0  0  0  3  0  0  0  0  0  0
  159.0510  213.5460  152.5420 C   0  0  0  0  0  2  0  0  0  0  0  0
  158.4860  213.2770  151.1610 C   0  0  0  0  0  3  0  0  0  0  0  0
  157.9890  214.4480  150.6330 O   0  0  0  0  0  0  0  0  0  0  0  0
  159.1880  214.0040  150.2270 O   0  0  0  0  0  0  0  0  0  0  0  0
  1 17  1  6  0  0  0
  1 13  1  0  0  0  0
  3 10  1  6  0  0  0
  3  2  1  0  0  0  0
  3 15  1  0  0  0  0
  4  9  1  0  0  0  0
  5 11  1  0  0  0  0
  5  8  1  0  0  0  0
  6  1  1  0  0  0  0
  8 25  1  6  0  0  0
  8  2  1  0  0  0  0
  9 12  2  0  0  0  0
 11  6  1  6  0  0  0
 11  3  1  0  0  0  0
 13 15  1  0  0  0  0
 13  4  1  1  0  0  0
 14  9  1  0  0  0  0
 14  7  1  1  0  0  0
 15 14  1  0  0  0  0
 17 16  1  0  0  0  0
 18 20  1  0  0  0  0
 18 21  1  0  0  0  0
 19 18  2  0  0  0  0
 21 17  1  0  0  0  0
 22 24  1  0  0  0  0
 23 22  2  0  0  0  0
 23 19  1  0  0  0  0
 24 20  2  0  0  0  0
 26 25  1  0  0  0  0
 27 26  1  0  0  0  0
 28 27  1  0  0  0  0
 28 26  1  0  0  0  0
M  END
>  <MODEL>
7

>  <REMARK>
 VINA RESULT:      -5.3      3.586      8.170
  Name = 
  4 active torsions:
  status: ('A' for Active; 'I' for Inactive)
    1  A    between atoms: C_1  and  C_17
    2  A    between atoms: C_9  and  C_19
    3  A    between atoms: N_12  and  C_17
    4  A    between atoms: C_14  and  C_19
                            x       y       z     vdW  Elec       q    Type
                         _______ _______ _______ _____ _____    ______ ____

>  <TORSDO>
F 4

$$$$
=
 OpenBabel11052410493D

 28 32  0  0  1  0  0  0  0  0999 V2000
  161.1050  207.0050  151.0340 C   0  0  1  0  0  3  0  0  0  0  0  0
  160.4560  204.9900  147.5230 O   0  0  0  0  0  0  0  0  0  0  0  0
  161.1670  205.4550  148.6250 C   0  0  1  0  0  0  0  0  0  0  0  0
  161.2060  204.5590  152.5660 S   0  0  0  0  0  0  0  0  0  0  0  0
  160.4650  207.3340  147.5720 O   0  0  0  0  0  0  0  0  0  0  0  0
  161.3490  207.5630  149.7430 O   0  0  0  0  0  0  0  0  0  0  0  0
  160.2340  202.3730  149.5730 C   0  0  0  0  0  1  0  0  0  0  0  0
  160.0900  206.1830  146.8350 C   0  0  1  0  0  3  0  0  0  0  0  0
  161.5290  203.1180  151.5430 C   0  0  0  0  0  0  0  0  0  0  0  0
  162.6660  205.4930  148.2950 C   0  0  0  0  0  1  0  0  0  0  0  0
  160.5800  206.8050  148.8430 C   0  0  2  0  0  3  0  0  0  0  0  0
  162.0080  202.0980  152.0110 O   0  0  0  0  0  0  0  0  0  0  0  0
  161.5630  205.5170  151.0710 C   0  0  1  0  0  3  0  0  0  0  0  0
  161.3330  203.2930  150.0700 C   0  0  2  0  0  3  0  0  0  0  0  0
  160.8900  204.7370  149.9380 C   0  0  2  0  0  3  0  0  0  0  0  0
  161.2000  207.6660  153.4760 C   0  0  0  0  0  1  0  0  0  0  0  0
  161.8260  207.8420  152.1020 C   0  0  2  0  0  3  0  0  0  0  0  0
  160.8710  210.2400  152.0940 C   0  0  0  0  0  0  0  0  0  0  0  0
  161.0410  211.5290  151.6910 N   0  0  0  0  0  0  0  0  0  0  0  0
  159.7280  209.8920  152.8290 C   0  0  0  0  0  3  0  0  0  0  0  0
  161.8640  209.2640  151.7510 N   0  0  0  0  0  2  0  0  0  0  0  0
  158.9840  212.1850  152.7120 C   0  0  0  0  0  3  0  0  0  0  0  0
  160.1320  212.4980  151.9820 C   0  0  0  0  0  3  0  0  0  0  0  0
  158.7840  210.8720  153.1370 C   0  0  0  0  0  3  0  0  0  0  0  0
  160.7390  206.2040  145.4600 C   0  0  0  0  0  2  0  0  0  0  0  0
  160.8330  204.7970  144.9010 C   0  0  0  0  0  3  0  0  0  0  0  0
  161.5820  204.8130  143.7460 O   0  0  0  0  0  0  0  0  0  0  0  0
  162.1480  204.3940  144.8870 O   0  0  0  0  0  0  0  0  0  0  0  0
  1 13  1  0  0  0  0
  1 17  1  1  0  0  0
  2  3  1  0  0  0  0
  3 10  1  6  0  0  0
  3 11  1  0  0  0  0
  3 15  1  0  0  0  0
  6  1  1  0  0  0  0
  8 25  1  6  0  0  0
  8  2  1  0  0  0  0
  8  5  1  0  0  0  0
  9 12  2  0  0  0  0
  9  4  1  0  0  0  0
 11  5  1  6  0  0  0
 11  6  1  0  0  0  0
 13  4  1  1  0  0  0
 14  7  1  1  0  0  0
 14  9  1  0  0  0  0
 15 14  1  0  0  0  0
 15 13  1  0  0  0  0
 17 16  1  0  0  0  0
 18 20  1  0  0  0  0
 19 23  1  0  0  0  0
 19 18  2  0  0  0  0
 20 24  2  0  0  0  0
 21 18  1  0  0  0  0
 21 17  1  0  0  0  0
 22 24  1  0  0  0  0
 23 22  2  0  0  0  0
 26 25  1  0  0  0  0
 27 28  1  0  0  0  0
 27 26  1  0  0  0  0
 28 26  1  0  0  0  0
M  END
>  <MODEL>
8

>  <REMARK>
 VINA RESULT:      -5.1      2.460      4.052
  Name = 
  4 active torsions:
  status: ('A' for Active; 'I' for Inactive)
    1  A    between atoms: C_1  and  C_17
    2  A    between atoms: C_9  and  C_19
    3  A    between atoms: N_12  and  C_17
    4  A    between atoms: C_14  and  C_19
                            x       y       z     vdW  Elec       q    Type
                         _______ _______ _______ _____ _____    ______ ____

>  <TORSDO>
F 4

$$$$
=
 OpenBabel11052410493D

 28 32  0  0  1  0  0  0  0  0999 V2000
  161.2050  208.9820  150.6090 C   0  0  1  0  0  3  0  0  0  0  0  0
  161.3010  205.5840  148.3160 O   0  0  0  0  0  0  0  0  0  0  0  0
  161.7540  206.5300  149.2310 C   0  0  1  0  0  0  0  0  0  0  0  0
  160.8070  207.4800  153.0440 S   0  0  0  0  0  0  0  0  0  0  0  0
  161.4260  207.7030  147.3200 O   0  0  0  0  0  0  0  0  0  0  0  0
  161.7800  208.9220  149.3030 O   0  0  0  0  0  0  0  0  0  0  0  0
  160.4560  204.1400  151.1970 C   0  0  0  0  0  1  0  0  0  0  0  0
  161.1750  206.3240  147.1050 C   0  0  1  0  0  3  0  0  0  0  0  0
  161.2850  205.7570  152.8750 C   0  0  0  0  0  0  0  0  0  0  0  0
  163.2880  206.5070  149.2830 C   0  0  0  0  0  1  0  0  0  0  0  0
  161.2070  207.8000  148.6800 C   0  0  2  0  0  3  0  0  0  0  0  0
  161.5830  205.0800  153.8460 O   0  0  0  0  0  0  0  0  0  0  0  0
  161.5600  207.6940  151.4100 C   0  0  1  0  0  3  0  0  0  0  0  0
  161.4540  205.2470  151.4780 C   0  0  2  0  0  3  0  0  0  0  0  0
  161.1350  206.4550  150.6190 C   0  0  2  0  0  3  0  0  0  0  0  0
  163.0760  210.0490  151.9400 C   0  0  0  0  0  1  0  0  0  0  0  0
  161.6970  210.2470  151.3310 C   0  0  2  0  0  3  0  0  0  0  0  0
  159.9870  211.9010  152.3320 C   0  0  0  0  0  0  0  0  0  0  0  0
  159.1550  212.1840  153.3700 N   0  0  0  0  0  0  0  0  0  0  0  0
  160.0810  212.7990  151.2580 C   0  0  0  0  0  3  0  0  0  0  0  0
  160.7560  210.6900  152.3620 N   0  0  0  0  0  2  0  0  0  0  0  0
  158.4720  214.2320  152.3490 C   0  0  0  0  0  3  0  0  0  0  0  0
  158.4030  213.3170  153.4010 C   0  0  0  0  0  3  0  0  0  0  0  0
  159.3180  213.9680  151.2710 C   0  0  0  0  0  3  0  0  0  0  0  0
  162.1320  205.7710  146.0620 C   0  0  0  0  0  2  0  0  0  0  0  0
  161.4480  205.6850  144.7120 C   0  0  0  0  0  3  0  0  0  0  0  0
  160.9910  204.4020  144.5100 O   0  0  0  0  0  0  0  0  0  0  0  0
  160.1240  205.3540  144.8870 O   0  0  0  0  0  0  0  0  0  0  0  0
  1 17  1  1  0  0  0
  1 13  1  0  0  0  0
  2  3  1  0  0  0  0
  3 10  1  1  0  0  0
  3 15  1  0  0  0  0
  6  1  1  0  0  0  0
  8 25  1  6  0  0  0
  8  5  1  0  0  0  0
  8  2  1  0  0  0  0
  9  4  1  0  0  0  0
  9 12  2  0  0  0  0
 11  5  1  6  0  0  0
 11  3  1  0  0  0  0
 11  6  1  0  0  0  0
 13  4  1  1  0  0  0
 14  7  1  6  0  0  0
 14  9  1  0  0  0  0
 15 13  1  0  0  0  0
 15 14  1  0  0  0  0
 17 16  1  0  0  0  0
 17 21  1  0  0  0  0
 18 21  1  0  0  0  0
 18 19  2  0  0  0  0
 19 23  1  0  0  0  0
 20 24  2  0  0  0  0
 20 18  1  0  0  0  0
 22 23  2  0  0  0  0
 24 22  1  0  0  0  0
 26 28  1  0  0  0  0
 26 25  1  0  0  0  0
 27 26  1  0  0  0  0
 27 28  1  0  0  0  0
M  END
>  <MODEL>
9

>  <REMARK>
 VINA RESULT:      -5.0      2.268      4.013
  Name = 
  4 active torsions:
  status: ('A' for Active; 'I' for Inactive)
    1  A    between atoms: C_1  and  C_17
    2  A    between atoms: C_9  and  C_19
    3  A    between atoms: N_12  and  C_17
    4  A    between atoms: C_14  and  C_19
                            x       y       z     vdW  Elec       q    Type
                         _______ _______ _______ _____ _____    ______ ____

>  <TORSDO>
F 4

$$$$
