=
 OpenBabel11042420543D

 64 72  0  0  1  0  0  0  0  0999 V2000
  160.5210  213.3310  154.2230 C   0  0  0  0  0  2  0  0  0  0  0  0
  161.2110  213.9970  150.7120 C   0  0  0  0  0  2  0  0  0  0  0  0
  162.5940  209.1220  147.9470 N   0  0  0  0  0  0  0  0  0  0  0  0
  161.1350  209.7040  149.8790 C   0  0  0  0  0  0  0  0  0  0  0  0
  159.2180  214.1480  156.1760 C   0  0  0  0  0  2  0  0  0  0  0  0
  160.5480  210.8650  150.3550 C   0  0  0  0  0  0  0  0  0  0  0  0
  154.4310  212.9450  156.4180 C   0  0  0  0  0  2  0  0  0  0  0  0
  156.9330  212.4500  155.4000 C   0  0  2  0  0  3  0  0  0  0  0  0
  156.9540  213.1900  156.7560 C   0  0  2  0  0  3  0  0  0  0  0  0
  158.3550  212.2170  154.8550 C   0  0  1  0  0  3  0  0  0  0  0  0
  163.0600  207.4290  149.6350 N   0  0  0  0  0  0  0  0  0  0  0  0
  160.9710  211.8810  149.4770 C   0  0  0  0  0  0  0  0  0  0  0  0
  156.0140  213.1660  154.4050 C   0  0  0  0  0  2  0  0  0  0  0  0
  155.5500  213.5950  157.2310 C   0  0  0  0  0  2  0  0  0  0  0  0
  162.1830  207.6030  150.5810 C   0  0  0  0  0  0  0  0  0  0  0  0
  162.4100  206.9390  151.8310 N   0  0  0  0  0  2  0  0  0  0  0  0
  157.8190  214.4530  156.7000 C   0  0  0  0  0  2  0  0  0  0  0  0
  158.3900  211.4250  153.5580 C   0  0  0  0  0  0  0  0  0  0  0  0
  160.4120  212.7860  152.8390 C   0  0  1  0  0  3  0  0  0  0  0  0
  163.0930  207.9720  148.2990 C   0  0  0  0  0  3  0  0  0  0  0  0
  154.5710  213.2620  154.9230 C   0  0  1  0  0  3  0  0  0  0  0  0
  159.1250  213.5440  154.7830 C   0  0  2  0  0  3  0  0  0  0  0  0
  161.8910  210.0410  148.7870 C   0  0  0  0  0  0  0  0  0  0  0  0
  157.6170  210.3410  153.4580 C   0  0  0  0  0  2  0  0  0  0  0  0
  159.4630  211.6800  152.5530 C   0  0  0  0  0  0  0  0  0  0  0  0
  160.8870  208.3150  150.3350 C   0  0  0  0  0  2  0  0  0  0  0  0
  161.7830  211.3560  148.5320 N   0  0  0  0  0  0  0  0  0  0  0  0
  160.6060  213.3410  149.5190 C   0  0  0  0  0  2  0  0  0  0  0  0
  160.8710  213.4790  151.8470 C   0  0  0  0  0  2  0  0  0  0  0  0
  153.6830  212.3240  154.1300 C   0  0  0  0  0  1  0  0  0  0  0  0
  159.5560  210.8770  151.4650 C   0  0  0  0  0  3  0  0  0  0  0  0
  160.4380  207.7770  155.4930 C   0  0  0  0  0  0  0  0  0  0  0  0
  161.8930  208.4480  153.6730 C   0  0  0  0  0  3  0  0  0  0  0  0
  159.7570  208.0300  156.7190 N   0  0  0  0  0  1  0  0  0  0  0  0
  160.9300  206.2350  153.6870 C   0  0  0  0  0  3  0  0  0  0  0  0
  160.2810  206.5270  154.8870 C   0  0  0  0  0  3  0  0  0  0  0  0
  161.2500  208.7600  154.8800 C   0  0  0  0  0  0  0  0  0  0  0  0
  161.7520  207.1900  153.0800 C   0  0  0  0  0  0  0  0  0  0  0  0
  161.4570  210.1110  155.4530 C   0  0  0  0  0  0  0  0  0  0  0  0
  160.7030  210.5600  156.3570 O   0  0  0  0  0  1  0  0  0  0  0  0
  162.5080  210.9020  155.0020 O   0  0  0  0  0  0  0  0  0  0  0  0
  162.4560  212.0770  147.4590 C   0  0  0  0  0  2  0  0  0  0  0  0
  161.5330  213.1460  146.8960 C   0  0  0  0  0  2  0  0  0  0  0  0
  160.4450  212.5220  146.0410 C   0  0  0  0  0  2  0  0  0  0  0  0
  160.3110  213.2570  144.7180 C   0  0  0  0  0  2  0  0  0  0  0  0
  159.9410  212.2830  143.6130 C   0  0  0  0  0  2  0  0  0  0  0  0
  160.9710  212.3480  142.4980 C   0  0  0  0  0  2  0  0  0  0  0  0
  160.2990  212.3160  141.1320 C   0  0  1  0  0  3  0  0  0  0  0  0
  160.9790  211.2970  140.2630 C   0  0  0  0  0  3  0  0  0  0  0  0
  162.0800  211.5350  139.5320 C   0  0  0  0  0  0  0  0  0  0  0  0
  161.9520  213.9820  138.7620 C   0  0  0  0  0  2  0  0  0  0  0  0
  163.4620  213.3350  140.5630 O   0  0  0  0  0  1  0  0  0  0  0  0
  163.2060  213.3960  138.1230 C   0  0  0  0  0  2  0  0  0  0  0  0
  162.7270  212.8910  139.4660 C   0  0  0  0  0  0  0  0  0  0  0  0
  161.6960  210.1110  137.6770 O   0  0  0  0  0  1  0  0  0  0  0  0
  162.6180  210.4350  138.6710 C   0  0  0  0  0  2  0  0  0  0  0  0
  158.9550  211.9730  141.2890 O   0  0  0  0  0  0  0  0  0  0  0  0
  158.2840  212.6310  140.2540 C   0  0  0  0  0  2  0  0  0  0  0  0
  158.3480  210.4570  139.0080 C   0  0  0  0  0  3  0  0  0  0  0  0
  156.5010  209.7780  137.5990 C   0  0  0  0  0  3  0  0  0  0  0  0
  155.8160  210.9530  137.9270 C   0  0  0  0  0  3  0  0  0  0  0  0
  156.3980  211.8810  138.7960 C   0  0  0  0  0  3  0  0  0  0  0  0
  157.7670  209.5300  138.1390 C   0  0  0  0  0  3  0  0  0  0  0  0
  157.6650  211.6340  139.3370 C   0  0  0  0  0  0  0  0  0  0  0  0
  2 29  1  0  0  0  0
  3 20  2  0  0  0  0
  3 23  1  0  0  0  0
  4 26  1  0  0  0  0
  4  6  1  0  0  0  0
  5 17  1  0  0  0  0
  6 31  1  0  0  0  0
  7 14  1  0  0  0  0
  8 13  1  6  0  0  0
  8  9  1  0  0  0  0
  9 17  1  6  0  0  0
  9 14  1  0  0  0  0
 10 18  1  6  0  0  0
 10  8  1  0  0  0  0
 11 15  2  0  0  0  0
 12 28  1  0  0  0  0
 12  6  2  0  0  0  0
 13 21  1  0  0  0  0
 15 16  1  0  0  0  0
 16 38  1  0  0  0  0
 19 29  1  6  0  0  0
 19  1  1  0  0  0  0
 20 11  1  0  0  0  0
 21 30  1  6  0  0  0
 21  7  1  0  0  0  0
 22  1  1  1  0  0  0
 22 10  1  0  0  0  0
 22  5  1  0  0  0  0
 23  4  2  0  0  0  0
 24 18  2  0  0  0  0
 25 19  1  0  0  0  0
 25 18  1  0  0  0  0
 26 15  1  0  0  0  0
 27 23  1  0  0  0  0
 27 12  1  0  0  0  0
 28  2  1  0  0  0  0
 31 25  2  0  0  0  0
 32 34  1  0  0  0  0
 33 37  1  0  0  0  0
 35 36  2  0  0  0  0
 36 32  1  0  0  0  0
 37 39  1  0  0  0  0
 37 32  2  0  0  0  0
 38 33  2  0  0  0  0
 38 35  1  0  0  0  0
 39 40  1  0  0  0  0
 41 39  2  0  0  0  0
 42 27  1  0  0  0  0
 43 42  1  0  0  0  0
 44 43  1  0  0  0  0
 45 44  1  0  0  0  0
 46 45  1  0  0  0  0
 47 46  1  0  0  0  0
 48 49  1  6  0  0  0
 48 57  1  0  0  0  0
 48 47  1  0  0  0  0
 50 49  2  0  0  0  0
 51 54  1  0  0  0  0
 53 51  1  0  0  0  0
 53 54  1  0  0  0  0
 54 50  1  0  0  0  0
 54 52  1  0  0  0  0
 55 56  1  0  0  0  0
 56 50  1  0  0  0  0
 58 57  1  0  0  0  0
 59 64  1  0  0  0  0
 60 61  2  0  0  0  0
 60 63  1  0  0  0  0
 61 62  1  0  0  0  0
 62 64  2  0  0  0  0
 63 59  2  0  0  0  0
 64 58  1  0  0  0  0
M  END
>  <MODEL>
1

>  <REMARK>
 VINA RESULT:       7.0      0.000      0.000
  Name = 
  15 active torsions:
  status: ('A' for Active; 'I' for Inactive)
    1  A    between atoms: C_4  and  C_20
    2  A    between atoms: C_4  and  C_25
    3  A    between atoms: C_4  and  O_33
    4  A    between atoms: C_10  and  C_25
    5  A    between atoms: C_10  and  C_50
    6  A    between atoms: C_14  and  C_38
    7  A    between atoms: C_14  and  C_53
    8  A    between atoms: N_32  and  C_60
    9  A    between atoms: O_33  and  C_51
   10  A    between atoms: C_34  and  C_51
   11  A    between atoms: C_36  and  C_43
   12  A    between atoms: C_36  and  C_62
   13  A    between atoms: C_38  and  C_50
   14  A    between atoms: C_39  and  C_57
   15  A    between atoms: C_53  and  N_56
                            x       y       z     vdW  Elec       q    Type
                         _______ _______ _______ _____ _____    ______ ____

>  <TORSDO>
F 15

$$$$
=
 OpenBabel11042420543D

 64 72  0  0  1  0  0  0  0  0999 V2000
  160.6390  213.1880  154.4950 C   0  0  0  0  0  2  0  0  0  0  0  0
  161.5510  213.8330  151.0310 C   0  0  0  0  0  2  0  0  0  0  0  0
  162.7890  208.9020  148.2970 N   0  0  0  0  0  0  0  0  0  0  0  0
  161.2660  209.5580  150.1560 C   0  0  0  0  0  0  0  0  0  0  0  0
  159.2860  214.0690  156.3850 C   0  0  0  0  0  2  0  0  0  0  0  0
  160.7250  210.7490  150.6110 C   0  0  0  0  0  0  0  0  0  0  0  0
  154.4300  213.1500  156.3640 C   0  0  0  0  0  2  0  0  0  0  0  0
  156.9480  212.5140  155.4740 C   0  0  2  0  0  3  0  0  0  0  0  0
  156.9410  213.2430  156.8370 C   0  0  2  0  0  3  0  0  0  0  0  0
  158.3810  212.2010  155.0020 C   0  0  1  0  0  3  0  0  0  0  0  0
  163.0640  207.1740  149.9910 N   0  0  0  0  0  0  0  0  0  0  0  0
  161.2530  211.7430  149.7660 C   0  0  0  0  0  0  0  0  0  0  0  0
  156.1270  213.2900  154.4390 C   0  0  0  0  0  2  0  0  0  0  0  0
  155.5410  213.7280  157.2410 C   0  0  0  0  0  2  0  0  0  0  0  0
  162.1510  207.3940  150.8920 C   0  0  0  0  0  0  0  0  0  0  0  0
  162.2720  206.7100  152.1460 N   0  0  0  0  0  2  0  0  0  0  0  0
  157.8810  214.4530  156.8370 C   0  0  0  0  0  2  0  0  0  0  0  0
  158.4370  211.4160  153.7020 C   0  0  0  0  0  0  0  0  0  0  0  0
  160.5710  212.6580  153.1030 C   0  0  1  0  0  3  0  0  0  0  0  0
  163.1990  207.7230  148.6640 C   0  0  0  0  0  3  0  0  0  0  0  0
  154.6670  213.4680  154.8820 C   0  0  1  0  0  3  0  0  0  0  0  0
  159.2300  213.4800  154.9830 C   0  0  2  0  0  3  0  0  0  0  0  0
  162.0970  209.8570  149.1080 C   0  0  0  0  0  0  0  0  0  0  0  0
  157.6080  210.3800  153.5520 C   0  0  0  0  0  2  0  0  0  0  0  0
  159.5760  211.6130  152.7560 C   0  0  0  0  0  0  0  0  0  0  0  0
  160.9130  208.1830  150.5850 C   0  0  0  0  0  2  0  0  0  0  0  0
  162.0810  211.1770  148.8600 N   0  0  0  0  0  0  0  0  0  0  0  0
  160.9730  213.2220  149.8020 C   0  0  0  0  0  2  0  0  0  0  0  0
  161.1220  213.3290  152.1420 C   0  0  0  0  0  2  0  0  0  0  0  0
  153.7680  212.5890  154.0350 C   0  0  0  0  0  1  0  0  0  0  0  0
  159.6780  210.8130  151.6680 C   0  0  0  0  0  3  0  0  0  0  0  0
  160.1790  207.6450  155.7160 C   0  0  0  0  0  0  0  0  0  0  0  0
  161.9110  208.1320  154.0910 C   0  0  0  0  0  3  0  0  0  0  0  0
  159.4520  207.9360  156.9070 N   0  0  0  0  0  1  0  0  0  0  0  0
  160.5030  206.1930  153.8010 C   0  0  0  0  0  3  0  0  0  0  0  0
  159.8190  206.5170  154.9720 C   0  0  0  0  0  3  0  0  0  0  0  0
  161.2370  208.4730  155.2730 C   0  0  0  0  0  0  0  0  0  0  0  0
  161.5640  206.9920  153.3610 C   0  0  0  0  0  0  0  0  0  0  0  0
  161.6690  209.6910  155.9980 C   0  0  0  0  0  0  0  0  0  0  0  0
  160.9740  210.7420  155.9830 O   0  0  0  0  0  0  0  0  0  0  0  0
  162.8550  209.6810  156.7230 O   0  0  0  0  0  1  0  0  0  0  0  0
  162.8510  211.8630  147.8310 C   0  0  0  0  0  2  0  0  0  0  0  0
  161.9720  212.8790  147.1180 C   0  0  0  0  0  2  0  0  0  0  0  0
  162.7140  213.5100  145.9540 C   0  0  0  0  0  2  0  0  0  0  0  0
  162.0000  213.2250  144.6420 C   0  0  0  0  0  2  0  0  0  0  0  0
  161.2250  214.4510  144.1920 C   0  0  0  0  0  2  0  0  0  0  0  0
  161.0860  214.4480  142.6780 C   0  0  0  0  0  2  0  0  0  0  0  0
  159.7350  213.8870  142.2560 C   0  0  1  0  0  3  0  0  0  0  0  0
  159.8530  212.4050  142.0390 C   0  0  0  0  0  3  0  0  0  0  0  0
  160.1800  211.8320  140.8690 C   0  0  0  0  0  0  0  0  0  0  0  0
  161.5740  212.2100  138.7450 C   0  0  0  0  0  2  0  0  0  0  0  0
  159.3060  213.0910  138.9040 O   0  0  0  0  0  1  0  0  0  0  0  0
  161.6400  213.5110  139.5400 C   0  0  0  0  0  2  0  0  0  0  0  0
  160.4110  212.6310  139.6170 C   0  0  0  0  0  0  0  0  0  0  0  0
  161.1970  209.9250  139.8980 O   0  0  0  0  0  1  0  0  0  0  0  0
  160.2090  210.3380  140.7890 C   0  0  0  0  0  2  0  0  0  0  0  0
  158.7980  214.1370  143.2610 O   0  0  0  0  0  0  0  0  0  0  0  0
  158.8230  213.0040  144.0780 C   0  0  0  0  0  2  0  0  0  0  0  0
  157.0490  214.1730  145.4070 C   0  0  0  0  0  3  0  0  0  0  0  0
  156.8670  213.8420  147.7980 C   0  0  0  0  0  3  0  0  0  0  0  0
  157.9540  212.9610  147.7610 C   0  0  0  0  0  3  0  0  0  0  0  0
  158.5880  212.6860  146.5460 C   0  0  0  0  0  3  0  0  0  0  0  0
  156.4150  214.4480  146.6220 C   0  0  0  0  0  3  0  0  0  0  0  0
  158.1370  213.2930  145.3680 C   0  0  0  0  0  0  0  0  0  0  0  0
  2 29  1  0  0  0  0
  3 20  2  0  0  0  0
  3 23  1  0  0  0  0
  4 26  1  0  0  0  0
  4  6  1  0  0  0  0
  5 17  1  0  0  0  0
  6 31  1  0  0  0  0
  7 14  1  0  0  0  0
  8 13  1  6  0  0  0
  8  9  1  0  0  0  0
  9 17  1  6  0  0  0
  9 14  1  0  0  0  0
 10 18  1  6  0  0  0
 10  8  1  0  0  0  0
 11 15  2  0  0  0  0
 12 28  1  0  0  0  0
 12  6  2  0  0  0  0
 13 21  1  0  0  0  0
 15 16  1  0  0  0  0
 16 38  1  0  0  0  0
 19 29  1  6  0  0  0
 19  1  1  0  0  0  0
 20 11  1  0  0  0  0
 21 30  1  6  0  0  0
 21  7  1  0  0  0  0
 22  1  1  1  0  0  0
 22 10  1  0  0  0  0
 22  5  1  0  0  0  0
 23  4  2  0  0  0  0
 24 18  2  0  0  0  0
 25 19  1  0  0  0  0
 25 18  1  0  0  0  0
 26 15  1  0  0  0  0
 27 23  1  0  0  0  0
 27 12  1  0  0  0  0
 28  2  1  0  0  0  0
 31 25  2  0  0  0  0
 32 34  1  0  0  0  0
 33 37  2  0  0  0  0
 35 36  1  0  0  0  0
 36 32  2  0  0  0  0
 37 32  1  0  0  0  0
 37 39  1  0  0  0  0
 38 35  2  0  0  0  0
 38 33  1  0  0  0  0
 39 41  1  0  0  0  0
 40 39  2  0  0  0  0
 42 27  1  0  0  0  0
 43 42  1  0  0  0  0
 44 43  1  0  0  0  0
 45 44  1  0  0  0  0
 46 45  1  0  0  0  0
 47 46  1  0  0  0  0
 48 49  1  1  0  0  0
 48 47  1  0  0  0  0
 48 57  1  0  0  0  0
 50 49  2  0  0  0  0
 51 53  1  0  0  0  0
 51 54  1  0  0  0  0
 52 54  1  0  0  0  0
 53 54  1  0  0  0  0
 54 50  1  0  0  0  0
 55 56  1  0  0  0  0
 56 50  1  0  0  0  0
 57 58  1  0  0  0  0
 58 64  1  0  0  0  0
 59 63  1  0  0  0  0
 61 60  1  0  0  0  0
 62 61  2  0  0  0  0
 63 60  2  0  0  0  0
 64 59  2  0  0  0  0
 64 62  1  0  0  0  0
M  END
>  <MODEL>
2

>  <REMARK>
 VINA RESULT:       8.0      1.603      3.071
  Name = 
  15 active torsions:
  status: ('A' for Active; 'I' for Inactive)
    1  A    between atoms: C_4  and  C_20
    2  A    between atoms: C_4  and  C_25
    3  A    between atoms: C_4  and  O_33
    4  A    between atoms: C_10  and  C_25
    5  A    between atoms: C_10  and  C_50
    6  A    between atoms: C_14  and  C_38
    7  A    between atoms: C_14  and  C_53
    8  A    between atoms: N_32  and  C_60
    9  A    between atoms: O_33  and  C_51
   10  A    between atoms: C_34  and  C_51
   11  A    between atoms: C_36  and  C_43
   12  A    between atoms: C_36  and  C_62
   13  A    between atoms: C_38  and  C_50
   14  A    between atoms: C_39  and  C_57
   15  A    between atoms: C_53  and  N_56
                            x       y       z     vdW  Elec       q    Type
                         _______ _______ _______ _____ _____    ______ ____

>  <TORSDO>
F 15

$$$$
