=
 OpenBabel11052410563D

 70 74  0  0  1  0  0  0  0  0999 V2000
  159.3330  212.2340  151.5690 C   0  0  0  0  0  2  0  0  0  0  0  0
  161.2910  210.6220  151.4550 C   0  0  2  0  0  3  0  0  0  0  0  0
  162.3200  210.3230  150.5440 O   0  0  0  0  0  0  0  0  0  0  0  0
  160.8170  212.0440  151.2410 C   0  0  1  0  0  3  0  0  0  0  0  0
  162.2630  211.2970  149.5260 C   0  0  0  0  0  2  0  0  0  0  0  0
  161.1020  212.2320  149.7900 C   0  0  2  0  0  3  0  0  0  0  0  0
  161.7330  210.4210  152.8010 O   0  0  0  0  0  0  0  0  0  0  0  0
  163.3560  211.1460  154.8630 S   0  0  0  0  0  0  0  0  0  0  0  0
  164.1780  210.8280  152.5070 C   0  0  0  0  0  3  0  0  0  0  0  0
  164.9980  211.4170  154.6110 C   0  0  0  0  0  0  0  0  0  0  0  0
  165.2950  211.2010  153.2670 C   0  0  0  0  0  3  0  0  0  0  0  0
  163.0120  210.7560  153.2650 C   0  0  0  0  0  0  0  0  0  0  0  0
  167.3120  212.0910  155.2850 N   0  0  0  0  0  1  0  0  0  0  0  0
  165.9670  211.8170  155.6390 C   0  0  0  0  0  0  0  0  0  0  0  0
  165.6130  211.9040  156.8420 O   0  0  0  0  0  0  0  0  0  0  0  0
  161.4310  213.6740  149.4120 C   0  0  0  0  0  2  0  0  0  0  0  0
  162.2010  213.7430  148.2430 O   0  0  0  0  0  0  0  0  0  0  0  0
  161.2640  213.7180  147.2030 C   0  0  2  0  0  3  0  0  0  0  0  0
  163.2510  213.7900  145.8230 O   0  0  0  0  0  1  0  0  0  0  0  0
  159.3490  212.4700  145.3090 O   0  0  0  0  0  0  0  0  0  0  0  0
  160.1740  212.7050  147.5530 C   0  0  0  0  0  2  0  0  0  0  0  0
  159.6720  213.6830  144.6900 C   0  0  1  0  0  3  0  0  0  0  0  0
  161.9320  213.3320  145.8690 C   0  0  2  0  0  3  0  0  0  0  0  0
  161.1910  213.8820  144.6450 C   0  0  0  0  0  2  0  0  0  0  0  0
  158.9770  212.8200  146.6120 C   0  0  0  0  0  2  0  0  0  0  0  0
  159.0870  213.6910  143.2800 C   0  0  0  0  0  2  0  0  0  0  0  0
  160.0610  214.2810  142.2660 C   0  0  0  0  0  2  0  0  0  0  0  0
  161.1670  212.7430  140.4860 C   0  0  1  0  0  3  0  0  0  0  0  0
  159.9910  213.5670  140.9210 C   0  0  2  0  0  0  0  0  0  0  0  0
  158.8880  213.9530  139.9450 C   0  0  0  0  0  1  0  0  0  0  0  0
  160.0180  212.1680  141.1000 O   0  0  0  0  0  0  0  0  0  0  0  0
  161.2020  212.4630  138.9720 C   0  0  0  0  0  2  0  0  0  0  0  0
  162.5180  211.9400  138.4780 C   0  0  0  0  0  0  0  0  0  0  0  0
  162.6030  210.6480  137.8680 N   0  0  0  0  0  1  0  0  0  0  0  0
  163.5420  212.6730  138.5560 O   0  0  0  0  0  0  0  0  0  0  0  0
  158.6480  210.9630  152.0530 C   0  0  0  0  0  2  0  0  0  0  0  0
  159.6020  210.1340  152.8980 C   0  0  0  0  0  2  0  0  0  0  0  0
  159.5200  210.5590  154.2220 O   0  0  0  0  0  0  0  0  0  0  0  0
  159.8730  208.2030  154.2990 C   0  0  0  0  0  2  0  0  0  0  0  0
  160.1460  209.5560  154.9680 C   0  0  2  0  0  3  0  0  0  0  0  0
  160.7730  207.0700  154.7280 C   0  0  0  0  0  0  0  0  0  0  0  0
  159.3040  208.3010  157.1010 C   0  0  0  0  0  2  0  0  0  0  0  0
  161.0040  206.7430  156.0150 C   0  0  0  0  0  3  0  0  0  0  0  0
  160.5820  207.4840  157.2600 C   0  0  0  0  0  2  0  0  0  0  0  0
  159.5370  210.6370  156.9790 O   0  0  0  0  0  0  0  0  0  0  0  0
  159.6350  209.5720  156.3830 C   0  0  0  0  0  0  0  0  0  0  0  0
  161.0960  204.9710  153.6610 O   0  0  0  0  0  0  0  0  0  0  0  0
  161.3350  206.2130  153.6550 C   0  0  0  0  0  0  0  0  0  0  0  0
  162.1240  206.7250  152.6220 O   0  0  0  0  0  0  0  0  0  0  0  0
  161.6990  206.7160  151.2690 C   0  0  0  0  0  2  0  0  0  0  0  0
  160.8940  205.4500  150.9800 C   0  0  0  0  0  2  0  0  0  0  0  0
  160.5290  205.3770  149.5540 N   0  0  0  0  0  0  0  0  0  0  0  0
  161.5820  205.9670  148.7020 C   0  0  2  0  0  3  0  0  0  0  0  0
  161.1220  208.4210  148.5050 O   0  0  0  0  0  0  0  0  0  0  0  0
  162.8730  207.7060  149.7920 O   0  0  0  0  0  1  0  0  0  0  0  0
  161.9070  207.4110  149.0340 C   0  0  0  0  0  0  0  0  0  0  0  0
  161.2320  205.8370  147.2200 C   0  0  0  0  0  2  0  0  0  0  0  0
  162.4360  205.3420  146.4390 C   0  0  0  0  0  2  0  0  0  0  0  0
  163.1930  203.8200  144.3690 O   0  0  0  0  0  0  0  0  0  0  0  0
  161.1970  205.2010  144.0720 O   0  0  0  0  0  0  0  0  0  0  0  0
  161.9510  204.3350  145.0430 S   0  0  0  0  0  0  0  0  0  0  0  0
  160.8880  202.9660  145.4970 C   0  0  0  0  0  2  0  0  0  0  0  0
  161.6650  201.6610  145.5240 C   0  0  0  0  0  2  0  0  0  0  0  0
  161.0600  199.7260  146.9030 C   0  0  0  0  0  2  0  0  0  0  0  0
  160.7760  200.5080  145.8600 C   0  0  0  0  0  0  0  0  0  0  0  0
  159.6640  200.1320  144.9430 C   0  0  0  0  0  1  0  0  0  0  0  0
  160.3080  203.9820  149.1720 C   0  0  0  0  0  2  0  0  0  0  0  0
  161.6350  203.2790  148.9050 C   0  0  0  0  0  2  0  0  0  0  0  0
  161.7500  202.0260  149.7280 C   0  0  0  0  0  3  0  0  0  0  0  0
  160.6670  201.4380  150.2540 C   0  0  0  0  0  2  0  0  0  0  0  0
  1 36  1  0  0  0  0
  2  7  1  1  0  0  0
  3  2  1  0  0  0  0
  4  2  1  0  0  0  0
  4  1  1  6  0  0  0
  5  6  1  0  0  0  0
  5  3  1  0  0  0  0
  6 16  1  1  0  0  0
  6  4  1  0  0  0  0
  7 12  1  0  0  0  0
  9 12  2  0  0  0  0
  9 11  1  0  0  0  0
 10  8  1  0  0  0  0
 10 14  1  0  0  0  0
 11 10  2  0  0  0  0
 12  8  1  0  0  0  0
 13 14  1  0  0  0  0
 14 15  2  0  0  0  0
 17 16  1  0  0  0  0
 18 21  1  0  0  0  0
 18 17  1  1  0  0  0
 20 25  1  0  0  0  0
 22 26  1  6  0  0  0
 22 20  1  0  0  0  0
 23 19  1  1  0  0  0
 23 18  1  0  0  0  0
 24 22  1  0  0  0  0
 24 23  1  0  0  0  0
 25 21  1  0  0  0  0
 27 26  1  0  0  0  0
 28 32  1  6  0  0  0
 28 29  1  0  0  0  0
 28 31  1  0  0  0  0
 29 30  1  6  0  0  0
 29 31  1  0  0  0  0
 29 27  1  0  0  0  0
 33 35  2  0  0  0  0
 33 32  1  0  0  0  0
 34 33  1  0  0  0  0
 36 37  1  0  0  0  0
 37 38  1  0  0  0  0
 39 41  1  0  0  0  0
 39 40  1  0  0  0  0
 40 38  1  6  0  0  0
 40 46  1  0  0  0  0
 41 43  2  0  0  0  0
 42 44  1  0  0  0  0
 43 44  1  0  0  0  0
 46 45  2  0  0  0  0
 46 42  1  0  0  0  0
 48 47  2  0  0  0  0
 48 41  1  0  0  0  0
 49 48  1  0  0  0  0
 50 49  1  0  0  0  0
 51 50  1  0  0  0  0
 52 51  1  0  0  0  0
 53 57  1  6  0  0  0
 53 56  1  0  0  0  0
 53 52  1  0  0  0  0
 54 56  2  0  0  0  0
 56 55  1  0  0  0  0
 58 57  1  0  0  0  0
 59 61  2  0  0  0  0
 60 61  2  0  0  0  0
 61 62  1  0  0  0  0
 61 58  1  0  0  0  0
 62 63  1  0  0  0  0
 63 65  1  0  0  0  0
 65 64  2  0  0  0  0
 66 65  1  0  0  0  0
 67 52  1  0  0  0  0
 68 67  1  0  0  0  0
 68 69  1  0  0  0  0
 69 70  2  0  0  0  0
M  END
>  <MODEL>
1

>  <REMARK>
 VINA RESULT:       1.6      0.000      0.000
  Name = 
  32 active torsions:
  status: ('A' for Active; 'I' for Inactive)
    1  A    between atoms: C_1  and  O_49
    2  A    between atoms: C_3  and  C_51
    3  A    between atoms: C_4  and  N_22
    4  A    between atoms: C_4  and  C_41
    5  A    between atoms: C_7  and  C_51
    6  A    between atoms: C_7  and  S_58
    7  A    between atoms: C_8  and  O_34
    8  A    between atoms: O_9  and  C_63
    9  A    between atoms: O_9  and  C_70
   10  A    between atoms: C_10  and  C_47
   11  A    between atoms: C_11  and  C_26
   12  A    between atoms: C_11  and  C_42
   13  A    between atoms: C_15  and  C_41
   14  A    between atoms: O_19  and  C_24
   15  A    between atoms: O_19  and  C_60
   16  A    between atoms: N_22  and  C_46
   17  A    between atoms: N_22  and  C_69
   18  A    between atoms: C_23  and  C_37
   19  A    between atoms: C_23  and  S_58
   20  A    between atoms: C_26  and  C_60
   21  A    between atoms: C_27  and  C_69
   22  A    between atoms: C_28  and  C_40
   23  A    between atoms: C_29  and  C_47
   24  A    between atoms: C_30  and  O_49
   25  A    between atoms: C_30  and  C_65
   26  A    between atoms: C_31  and  C_63
   27  A    between atoms: C_33  and  C_61
   28  A    between atoms: O_34  and  C_68
   29  A    between atoms: C_37  and  C_69
   30  A    between atoms: C_40  and  C_55
   31  A    between atoms: C_46  and  C_70
   32  A    between atoms: C_50  and  C_55
                            x       y       z     vdW  Elec       q    Type
                         _______ _______ _______ _____ _____    ______ ____

>  <TORSDO>
F 32

$$$$
