=
 OpenBabel11052412053D

 50 55  0  0  1  0  0  0  0  0999 V2000
  158.7460  210.1610  155.5050 C   0  0  0  0  0  2  0  0  0  0  0  0
  156.8700  212.9950  155.1320 C   0  0  0  0  0  1  0  0  0  0  0  0
  161.7790  209.9890  153.6280 C   0  0  2  0  0  3  0  0  0  0  0  0
  159.9740  213.0230  156.6370 C   0  0  0  0  0  2  0  0  0  0  0  0
  158.6180  213.4440  156.7080 O   0  0  0  0  0  0  0  0  0  0  0  0
  160.4880  209.2650  153.9980 C   0  0  2  0  0  3  0  0  0  0  0  0
  160.1120  212.0460  155.4920 C   0  0  2  0  0  3  0  0  0  0  0  0
  158.7780  211.4880  155.4770 C   0  0  2  0  0  3  0  0  0  0  0  0
  157.8290  212.4110  156.1510 C   0  0  0  0  0  0  0  0  0  0  0  0
  160.9970  210.8390  155.7940 C   0  0  2  0  0  3  0  0  0  0  0  0
  157.0350  211.7340  157.2610 C   0  0  0  0  0  1  0  0  0  0  0  0
  162.1810  210.8120  154.8490 C   0  0  0  0  0  2  0  0  0  0  0  0
  160.1380  209.6300  155.4330 C   0  0  1  0  0  3  0  0  0  0  0  0
  160.4130  207.0390  154.8140 O   0  0  0  0  0  0  0  0  0  0  0  0
  160.6400  207.7900  153.8290 C   0  0  0  0  0  0  0  0  0  0  0  0
  161.0340  207.2450  152.5600 N   0  0  0  0  0  2  0  0  0  0  0  0
  161.0110  205.8580  152.2040 C   0  0  0  0  0  0  0  0  0  0  0  0
  160.9600  205.4450  150.8660 C   0  0  0  0  0  3  0  0  0  0  0  0
  160.9440  204.0830  150.5250 C   0  0  0  0  0  0  0  0  0  0  0  0
  161.0720  204.8930  153.2140 C   0  0  0  0  0  3  0  0  0  0  0  0
  160.9960  203.1310  151.5560 C   0  0  0  0  0  3  0  0  0  0  0  0
  161.0610  203.5340  152.8930 C   0  0  0  0  0  3  0  0  0  0  0  0
  161.0510  204.5240  148.0910 C   0  0  0  0  0  3  0  0  0  0  0  0
  160.9000  203.6530  149.1000 C   0  0  0  0  0  0  0  0  0  0  0  0
  160.7050  202.2240  148.7540 C   0  0  0  0  0  0  0  0  0  0  0  0
  159.4310  201.6070  148.9170 N   0  0  0  0  0  1  0  0  0  0  0  0
  161.6590  201.5380  148.2990 O   0  0  0  0  0  0  0  0  0  0  0  0
  161.2100  205.9280  148.2950 N   0  0  0  0  0  2  0  0  0  0  0  0
  162.0690  206.6780  147.4810 N   0  0  0  0  0  2  0  0  0  0  0  0
  161.9830  206.1230  146.1410 C   0  0  0  0  0  2  0  0  0  0  0  0
  160.7100  206.3580  145.6210 O   0  0  0  0  0  1  0  0  0  0  0  0
  161.5700  210.8850  152.3950 C   0  0  1  0  0  3  0  0  0  0  0  0
  162.0210  210.1930  151.1410 C   0  0  0  0  0  0  0  0  0  0  0  0
  162.1890  210.1970  148.6290 C   0  0  0  0  0  1  0  0  0  0  0  0
  162.6070  209.0770  151.2050 O   0  0  0  0  0  0  0  0  0  0  0  0
  161.7760  210.8110  149.8780 N   0  0  0  0  0  2  0  0  0  0  0  0
  159.9890  212.5140  151.3550 C   0  0  2  0  0  3  0  0  0  0  0  0
  160.1050  211.2960  152.2530 C   0  0  2  0  0  3  0  0  0  0  0  0
  159.8940  212.6720  152.8560 C   0  0  0  0  0  2  0  0  0  0  0  0
  158.5990  212.5420  150.7530 C   0  0  0  0  0  2  0  0  0  0  0  0
  158.2880  213.8860  150.3020 N   0  0  0  0  0  2  0  0  0  0  0  0
  159.0630  214.1090  149.0950 C   0  0  0  0  0  2  0  0  0  0  0  0
  158.3700  213.5210  147.9620 N   0  0  0  0  0  2  0  0  0  0  0  0
  159.7550  212.0960  144.7300 C   0  0  0  0  0  2  0  0  0  0  0  0
  160.5560  213.9710  147.0070 C   0  0  0  0  0  2  0  0  0  0  0  0
  161.9790  213.3130  144.9980 C   0  0  0  0  0  2  0  0  0  0  0  0
  161.8010  213.2460  146.5180 C   0  0  0  0  0  2  0  0  0  0  0  0
  158.7730  212.7450  145.6970 C   0  0  0  0  0  2  0  0  0  0  0  0
  160.6960  213.1560  144.1750 C   0  0  0  0  0  2  0  0  0  0  0  0
  159.3890  212.9910  147.0730 C   0  0  0  0  0  3  0  0  0  0  0  0
  2  9  1  0  0  0  0
  3 32  1  6  0  0  0
  3  6  1  0  0  0  0
  3 12  1  0  0  0  0
  4  5  1  0  0  0  0
  6 15  1  1  0  0  0
  6 13  1  0  0  0  0
  7 10  1  0  0  0  0
  7  4  1  1  0  0  0
  8  7  1  0  0  0  0
  8  1  1  1  0  0  0
  8  9  1  0  0  0  0
  9  5  1  0  0  0  0
  9 11  1  0  0  0  0
 10 12  1  6  0  0  0
 13  1  1  6  0  0  0
 13 10  1  0  0  0  0
 15 14  2  0  0  0  0
 16 15  1  0  0  0  0
 17 16  1  0  0  0  0
 17 20  1  0  0  0  0
 18 17  2  0  0  0  0
 19 18  1  0  0  0  0
 19 21  2  0  0  0  0
 21 22  1  0  0  0  0
 22 20  2  0  0  0  0
 23 28  1  0  0  0  0
 23 24  2  0  0  0  0
 24 19  1  0  0  0  0
 25 26  1  0  0  0  0
 25 24  1  0  0  0  0
 27 25  2  0  0  0  0
 29 28  1  0  0  0  0
 30 29  1  0  0  0  0
 31 30  1  0  0  0  0
 32 33  1  6  0  0  0
 33 35  2  0  0  0  0
 34 36  1  0  0  0  0
 36 33  1  0  0  0  0
 37 40  1  6  0  0  0
 37 38  1  0  0  0  0
 37 39  1  0  0  0  0
 38 32  1  1  0  0  0
 38 39  1  0  0  0  0
 41 40  1  0  0  0  0
 42 41  1  0  0  0  0
 43 42  1  0  0  0  0
 44 48  1  0  0  0  0
 45 50  1  0  0  0  0
 46 47  1  0  0  0  0
 47 45  1  0  0  0  0
 48 50  1  0  0  0  0
 49 44  1  0  0  0  0
 49 46  1  0  0  0  0
 50 43  1  0  0  0  0
M  END
>  <MODEL>
1

>  <REMARK>
 VINA RESULT:      -7.3      0.000      0.000
  Name = 
  15 active torsions:
  status: ('A' for Active; 'I' for Inactive)
    1  A    between atoms: C_1  and  N_45
    2  A    between atoms: C_3  and  C_41
    3  A    between atoms: C_6  and  C_36
    4  A    between atoms: C_7  and  C_39
    5  A    between atoms: C_11  and  C_36
    6  A    between atoms: C_12  and  C_39
    7  A    between atoms: C_15  and  N_26
    8  A    between atoms: C_16  and  C_36
    9  A    between atoms: C_17  and  C_42
   10  A    between atoms: N_18  and  C_41
   11  A    between atoms: N_18  and  C_47
   12  A    between atoms: C_19  and  N_23
   13  A    between atoms: N_23  and  N_26
   14  A    between atoms: N_37  and  C_47
   15  A    between atoms: N_37  and  C_48
                            x       y       z     vdW  Elec       q    Type
                         _______ _______ _______ _____ _____    ______ ____

>  <TORSDO>
F 15

$$$$
=
 OpenBabel11052412053D

 50 55  0  0  1  0  0  0  0  0999 V2000
  159.0680  209.7470  155.1470 C   0  0  0  0  0  2  0  0  0  0  0  0
  156.7310  212.2420  155.2260 C   0  0  0  0  0  1  0  0  0  0  0  0
  161.4910  209.9050  152.5300 C   0  0  2  0  0  3  0  0  0  0  0  0
  160.0740  212.8260  155.8420 C   0  0  0  0  0  2  0  0  0  0  0  0
  158.7350  213.0470  156.2640 O   0  0  0  0  0  0  0  0  0  0  0  0
  160.4760  209.0230  153.2490 C   0  0  2  0  0  3  0  0  0  0  0  0
  160.0630  211.8080  154.7250 C   0  0  2  0  0  3  0  0  0  0  0  0
  158.8790  211.0600  155.0810 C   0  0  2  0  0  3  0  0  0  0  0  0
  158.0040  211.8740  155.9640 C   0  0  0  0  0  0  0  0  0  0  0  0
  161.1770  210.7680  154.8060 C   0  0  2  0  0  3  0  0  0  0  0  0
  157.6460  211.1600  157.2610 C   0  0  0  0  0  1  0  0  0  0  0  0
  162.0620  210.8550  153.5790 C   0  0  0  0  0  2  0  0  0  0  0  0
  160.4580  209.4250  154.7170 C   0  0  1  0  0  3  0  0  0  0  0  0
  161.0540  206.8880  154.1040 O   0  0  0  0  0  0  0  0  0  0  0  0
  160.8120  207.5790  153.0800 C   0  0  0  0  0  0  0  0  0  0  0  0
  160.8520  206.9950  151.7680 N   0  0  0  0  0  2  0  0  0  0  0  0
  160.9490  205.5960  151.4790 C   0  0  0  0  0  0  0  0  0  0  0  0
  160.9580  205.1170  150.1620 C   0  0  0  0  0  3  0  0  0  0  0  0
  161.0600  203.7440  149.8880 C   0  0  0  0  0  0  0  0  0  0  0  0
  161.0670  204.6880  152.5360 C   0  0  0  0  0  3  0  0  0  0  0  0
  161.1680  202.8500  150.9650 C   0  0  0  0  0  3  0  0  0  0  0  0
  161.1730  203.3190  152.2820 C   0  0  0  0  0  3  0  0  0  0  0  0
  161.6510  203.9430  147.4930 C   0  0  0  0  0  3  0  0  0  0  0  0
  161.0800  203.2450  148.4850 C   0  0  0  0  0  0  0  0  0  0  0  0
  160.4760  201.9330  148.1480 C   0  0  0  0  0  0  0  0  0  0  0  0
  161.1430  201.0330  147.2670 N   0  0  0  0  0  1  0  0  0  0  0  0
  159.3700  201.5900  148.6450 O   0  0  0  0  0  0  0  0  0  0  0  0
  162.2340  205.2330  147.6850 N   0  0  0  0  0  2  0  0  0  0  0  0
  161.9070  206.3010  146.8390 N   0  0  0  0  0  2  0  0  0  0  0  0
  161.3610  205.7300  145.6200 C   0  0  0  0  0  2  0  0  0  0  0  0
  160.0210  206.0960  145.4940 O   0  0  0  0  0  1  0  0  0  0  0  0
  160.8270  210.6780  151.3780 C   0  0  1  0  0  3  0  0  0  0  0  0
  159.7780  211.6200  151.8930 C   0  0  0  0  0  0  0  0  0  0  0  0
  159.0950  213.9800  152.4420 C   0  0  0  0  0  1  0  0  0  0  0  0
  158.6560  211.1810  152.2690 O   0  0  0  0  0  0  0  0  0  0  0  0
  160.0670  213.0160  151.9570 N   0  0  0  0  0  2  0  0  0  0  0  0
  161.4700  211.4770  149.1020 C   0  0  2  0  0  3  0  0  0  0  0  0
  161.8620  211.4580  150.5680 C   0  0  2  0  0  3  0  0  0  0  0  0
  162.5500  210.5330  149.5820 C   0  0  0  0  0  2  0  0  0  0  0  0
  162.1070  212.6850  148.4450 C   0  0  0  0  0  2  0  0  0  0  0  0
  161.1620  213.2980  147.5290 N   0  0  0  0  0  2  0  0  0  0  0  0
  161.4070  212.7100  146.2250 C   0  0  0  0  0  2  0  0  0  0  0  0
  162.1380  213.6550  145.3990 N   0  0  0  0  0  2  0  0  0  0  0  0
  162.4060  213.1530  141.6480 C   0  0  0  0  0  2  0  0  0  0  0  0
  160.6280  212.3630  144.0050 C   0  0  0  0  0  2  0  0  0  0  0  0
  160.2930  211.7300  141.5600 C   0  0  0  0  0  2  0  0  0  0  0  0
  159.7540  212.5030  142.7670 C   0  0  0  0  0  2  0  0  0  0  0  0
  162.8270  213.2330  143.1100 C   0  0  0  0  0  2  0  0  0  0  0  0
  161.8110  211.7800  141.3660 C   0  0  0  0  0  2  0  0  0  0  0  0
  161.6470  213.4970  144.0420 C   0  0  0  0  0  3  0  0  0  0  0  0
  2  9  1  0  0  0  0
  3 32  1  6  0  0  0
  3  6  1  0  0  0  0
  3 12  1  0  0  0  0
  4  5  1  0  0  0  0
  6 15  1  1  0  0  0
  6 13  1  0  0  0  0
  7 10  1  0  0  0  0
  7  8  1  0  0  0  0
  7  4  1  1  0  0  0
  8  1  1  1  0  0  0
  8  9  1  0  0  0  0
  9  5  1  0  0  0  0
  9 11  1  0  0  0  0
 10 12  1  6  0  0  0
 13 10  1  0  0  0  0
 13  1  1  6  0  0  0
 15 14  2  0  0  0  0
 16 15  1  0  0  0  0
 17 16  1  0  0  0  0
 17 20  1  0  0  0  0
 18 17  2  0  0  0  0
 19 18  1  0  0  0  0
 19 21  2  0  0  0  0
 21 22  1  0  0  0  0
 22 20  2  0  0  0  0
 23 28  1  0  0  0  0
 23 24  2  0  0  0  0
 24 19  1  0  0  0  0
 25 24  1  0  0  0  0
 25 27  2  0  0  0  0
 26 25  1  0  0  0  0
 29 28  1  0  0  0  0
 30 29  1  0  0  0  0
 31 30  1  0  0  0  0
 32 33  1  1  0  0  0
 33 36  1  0  0  0  0
 33 35  2  0  0  0  0
 36 34  1  0  0  0  0
 37 40  1  6  0  0  0
 37 39  1  0  0  0  0
 37 38  1  0  0  0  0
 38 32  1  1  0  0  0
 39 38  1  0  0  0  0
 41 40  1  0  0  0  0
 42 41  1  0  0  0  0
 43 42  1  0  0  0  0
 44 48  1  0  0  0  0
 45 50  1  0  0  0  0
 46 47  1  0  0  0  0
 47 45  1  0  0  0  0
 48 50  1  0  0  0  0
 49 46  1  0  0  0  0
 49 44  1  0  0  0  0
 50 43  1  0  0  0  0
M  END
>  <MODEL>
2

>  <REMARK>
 VINA RESULT:      -6.5      1.677      2.586
  Name = 
  15 active torsions:
  status: ('A' for Active; 'I' for Inactive)
    1  A    between atoms: C_1  and  N_45
    2  A    between atoms: C_3  and  C_41
    3  A    between atoms: C_6  and  C_36
    4  A    between atoms: C_7  and  C_39
    5  A    between atoms: C_11  and  C_36
    6  A    between atoms: C_12  and  C_39
    7  A    between atoms: C_15  and  N_26
    8  A    between atoms: C_16  and  C_36
    9  A    between atoms: C_17  and  C_42
   10  A    between atoms: N_18  and  C_41
   11  A    between atoms: N_18  and  C_47
   12  A    between atoms: C_19  and  N_23
   13  A    between atoms: N_23  and  N_26
   14  A    between atoms: N_37  and  C_47
   15  A    between atoms: N_37  and  C_48
                            x       y       z     vdW  Elec       q    Type
                         _______ _______ _______ _____ _____    ______ ____

>  <TORSDO>
F 15

$$$$
=
 OpenBabel11052412053D

 50 55  0  0  1  0  0  0  0  0999 V2000
  161.3610  203.4020  151.0670 C   0  0  0  0  0  2  0  0  0  0  0  0
  162.7590  201.0130  149.0580 C   0  0  0  0  0  1  0  0  0  0  0  0
  161.1850  206.7100  149.7360 C   0  0  2  0  0  3  0  0  0  0  0  0
  159.7580  202.5370  148.2990 C   0  0  0  0  0  2  0  0  0  0  0  0
  160.4730  201.3130  148.4030 O   0  0  0  0  0  0  0  0  0  0  0  0
  161.6060  205.8570  150.9280 C   0  0  2  0  0  3  0  0  0  0  0  0
  160.6140  203.6420  148.8750 C   0  0  2  0  0  3  0  0  0  0  0  0
  161.3780  202.8860  149.8420 C   0  0  2  0  0  3  0  0  0  0  0  0
  161.3700  201.4440  149.4890 C   0  0  0  0  0  0  0  0  0  0  0  0
  159.8530  204.6490  149.7330 C   0  0  2  0  0  3  0  0  0  0  0  0
  160.9010  200.5580  150.6360 C   0  0  0  0  0  1  0  0  0  0  0  0
  159.9590  206.0340  149.1290 C   0  0  0  0  0  2  0  0  0  0  0  0
  160.6270  204.6990  151.0480 C   0  0  1  0  0  3  0  0  0  0  0  0
  162.3580  207.7110  152.2020 O   0  0  0  0  0  0  0  0  0  0  0  0
  161.6460  206.6730  152.1770 C   0  0  0  0  0  0  0  0  0  0  0  0
  160.8790  206.2760  153.3240 N   0  0  0  0  0  2  0  0  0  0  0  0
  160.6600  207.0680  154.4980 C   0  0  0  0  0  0  0  0  0  0  0  0
  160.8720  208.4530  154.4980 C   0  0  0  0  0  3  0  0  0  0  0  0
  160.6480  209.2210  155.6510 C   0  0  0  0  0  0  0  0  0  0  0  0
  160.1940  206.4470  155.6610 C   0  0  0  0  0  3  0  0  0  0  0  0
  160.1900  208.5770  156.8110 C   0  0  0  0  0  3  0  0  0  0  0  0
  159.9620  207.1980  156.8160 C   0  0  0  0  0  3  0  0  0  0  0  0
  160.0560  211.5260  154.9670 C   0  0  0  0  0  3  0  0  0  0  0  0
  160.8650  210.6950  155.6410 C   0  0  0  0  0  0  0  0  0  0  0  0
  161.9890  211.2930  156.4020 C   0  0  0  0  0  0  0  0  0  0  0  0
  163.3300  210.8700  156.1670 N   0  0  0  0  0  1  0  0  0  0  0  0
  161.7760  212.1930  157.2580 O   0  0  0  0  0  0  0  0  0  0  0  0
  158.9630  211.0690  154.1700 N   0  0  0  0  0  2  0  0  0  0  0  0
  158.7670  211.5590  152.8720 N   0  0  0  0  0  2  0  0  0  0  0  0
  159.2430  212.9320  152.8570 C   0  0  0  0  0  2  0  0  0  0  0  0
  159.8850  213.1880  151.6460 O   0  0  0  0  0  1  0  0  0  0  0  0
  162.3270  206.8200  148.7110 C   0  0  1  0  0  3  0  0  0  0  0  0
  161.9400  206.1960  147.4020 C   0  0  0  0  0  0  0  0  0  0  0  0
  162.4510  204.5300  145.5830 C   0  0  0  0  0  1  0  0  0  0  0  0
  160.8950  206.5700  146.8010 O   0  0  0  0  0  0  0  0  0  0  0  0
  162.7700  205.1770  146.8440 N   0  0  0  0  0  2  0  0  0  0  0  0
  161.9090  209.1890  149.3800 C   0  0  2  0  0  3  0  0  0  0  0  0
  162.7270  208.2780  148.4840 C   0  0  2  0  0  3  0  0  0  0  0  0
  161.5530  209.0530  147.9170 C   0  0  0  0  0  2  0  0  0  0  0  0
  162.6800  210.4750  149.5980 C   0  0  0  0  0  2  0  0  0  0  0  0
  161.8120  211.6130  149.3540 N   0  0  0  0  0  2  0  0  0  0  0  0
  162.4460  212.4030  148.3150 C   0  0  0  0  0  2  0  0  0  0  0  0
  161.8620  213.7320  148.2950 N   0  0  0  0  0  2  0  0  0  0  0  0
  161.0200  213.1460  144.6430 C   0  0  0  0  0  2  0  0  0  0  0  0
  159.6540  213.3310  147.3700 C   0  0  0  0  0  2  0  0  0  0  0  0
  158.5260  212.9300  145.1210 C   0  0  0  0  0  2  0  0  0  0  0  0
  158.7010  213.8730  146.3150 C   0  0  0  0  0  2  0  0  0  0  0  0
  161.7420  213.0180  145.9780 C   0  0  0  0  0  2  0  0  0  0  0  0
  159.8010  212.2340  144.6360 C   0  0  0  0  0  2  0  0  0  0  0  0
  161.0680  213.8270  147.0830 C   0  0  0  0  0  3  0  0  0  0  0  0
  2  9  1  0  0  0  0
  3 32  1  6  0  0  0
  3  6  1  0  0  0  0
  4  5  1  0  0  0  0
  5  9  1  0  0  0  0
  6 13  1  0  0  0  0
  6 15  1  1  0  0  0
  7  4  1  1  0  0  0
  7 10  1  0  0  0  0
  7  8  1  0  0  0  0
  8  1  1  1  0  0  0
  9  8  1  0  0  0  0
  9 11  1  0  0  0  0
 10 12  1  6  0  0  0
 10 13  1  0  0  0  0
 12  3  1  0  0  0  0
 13  1  1  6  0  0  0
 15 14  2  0  0  0  0
 15 16  1  0  0  0  0
 16 17  1  0  0  0  0
 17 18  2  0  0  0  0
 17 20  1  0  0  0  0
 18 19  1  0  0  0  0
 19 21  2  0  0  0  0
 20 22  2  0  0  0  0
 21 22  1  0  0  0  0
 23 24  2  0  0  0  0
 24 19  1  0  0  0  0
 24 25  1  0  0  0  0
 25 27  2  0  0  0  0
 26 25  1  0  0  0  0
 28 23  1  0  0  0  0
 29 28  1  0  0  0  0
 30 29  1  0  0  0  0
 31 30  1  0  0  0  0
 32 33  1  6  0  0  0
 34 36  1  0  0  0  0
 35 33  2  0  0  0  0
 36 33  1  0  0  0  0
 37 40  1  6  0  0  0
 38 32  1  1  0  0  0
 38 37  1  0  0  0  0
 39 38  1  0  0  0  0
 39 37  1  0  0  0  0
 41 40  1  0  0  0  0
 42 41  1  0  0  0  0
 43 42  1  0  0  0  0
 44 48  1  0  0  0  0
 46 47  1  0  0  0  0
 47 45  1  0  0  0  0
 48 50  1  0  0  0  0
 49 44  1  0  0  0  0
 49 46  1  0  0  0  0
 50 45  1  0  0  0  0
 50 43  1  0  0  0  0
M  END
>  <MODEL>
3

>  <REMARK>
 VINA RESULT:      -4.6      2.013      7.826
  Name = 
  15 active torsions:
  status: ('A' for Active; 'I' for Inactive)
    1  A    between atoms: C_1  and  N_45
    2  A    between atoms: C_3  and  C_41
    3  A    between atoms: C_6  and  C_36
    4  A    between atoms: C_7  and  C_39
    5  A    between atoms: C_11  and  C_36
    6  A    between atoms: C_12  and  C_39
    7  A    between atoms: C_15  and  N_26
    8  A    between atoms: C_16  and  C_36
    9  A    between atoms: C_17  and  C_42
   10  A    between atoms: N_18  and  C_41
   11  A    between atoms: N_18  and  C_47
   12  A    between atoms: C_19  and  N_23
   13  A    between atoms: N_23  and  N_26
   14  A    between atoms: N_37  and  C_47
   15  A    between atoms: N_37  and  C_48
                            x       y       z     vdW  Elec       q    Type
                         _______ _______ _______ _____ _____    ______ ____

>  <TORSDO>
F 15

$$$$
=
 OpenBabel11052412053D

 50 55  0  0  1  0  0  0  0  0999 V2000
  157.2960  211.7360  140.2570 C   0  0  0  0  0  2  0  0  0  0  0  0
  156.1020  209.3150  138.1580 C   0  0  0  0  0  1  0  0  0  0  0  0
  160.7070  212.6980  139.8180 C   0  0  2  0  0  3  0  0  0  0  0  0
  157.0030  212.4510  137.0350 C   0  0  0  0  0  2  0  0  0  0  0  0
  156.0260  211.4190  137.0120 O   0  0  0  0  0  0  0  0  0  0  0  0
  159.6460  212.2550  140.8200 C   0  0  2  0  0  3  0  0  0  0  0  0
  158.0380  212.1070  138.0820 C   0  0  2  0  0  3  0  0  0  0  0  0
  157.2230  211.3340  138.9930 C   0  0  2  0  0  3  0  0  0  0  0  0
  156.0160  210.8230  138.2950 C   0  0  0  0  0  0  0  0  0  0  0  0
  158.4950  213.2900  138.9320 C   0  0  2  0  0  3  0  0  0  0  0  0
  154.7220  211.1910  139.0080 C   0  0  0  0  0  1  0  0  0  0  0  0
  159.9820  213.5160  138.7520 C   0  0  0  0  0  2  0  0  0  0  0  0
  158.3070  212.8250  140.3740 C   0  0  1  0  0  3  0  0  0  0  0  0
  161.0960  213.2930  142.3850 O   0  0  0  0  0  0  0  0  0  0  0  0
  159.9990  212.7030  142.1990 C   0  0  0  0  0  0  0  0  0  0  0  0
  159.0960  212.4650  143.2910 N   0  0  0  0  0  2  0  0  0  0  0  0
  159.2090  213.0210  144.6060 C   0  0  0  0  0  0  0  0  0  0  0  0
  160.3080  212.7410  145.4290 C   0  0  0  0  0  3  0  0  0  0  0  0
  160.4130  213.2960  146.7140 C   0  0  0  0  0  0  0  0  0  0  0  0
  158.2120  213.8870  145.0670 C   0  0  0  0  0  3  0  0  0  0  0  0
  159.3970  214.1560  147.1610 C   0  0  0  0  0  3  0  0  0  0  0  0
  158.3040  214.4510  146.3410 C   0  0  0  0  0  3  0  0  0  0  0  0
  161.4850  212.9140  148.9120 C   0  0  0  0  0  3  0  0  0  0  0  0
  161.5900  213.0030  147.5780 C   0  0  0  0  0  0  0  0  0  0  0  0
  162.9270  212.7810  146.9750 C   0  0  0  0  0  0  0  0  0  0  0  0
  163.8790  211.9350  147.6140 N   0  0  0  0  0  1  0  0  0  0  0  0
  163.2350  213.3270  145.8820 O   0  0  0  0  0  0  0  0  0  0  0  0
  160.2610  213.1420  149.6120 N   0  0  0  0  0  2  0  0  0  0  0  0
  160.2020  213.0320  151.0080 N   0  0  0  0  0  2  0  0  0  0  0  0
  158.8260  213.2860  151.3990 C   0  0  0  0  0  2  0  0  0  0  0  0
  157.9820  213.0530  150.3130 O   0  0  0  0  0  1  0  0  0  0  0  0
  161.4180  211.4820  139.2010 C   0  0  1  0  0  3  0  0  0  0  0  0
  162.7850  211.8510  138.7020 C   0  0  0  0  0  0  0  0  0  0  0  0
  164.8980  213.1830  139.0190 C   0  0  0  0  0  1  0  0  0  0  0  0
  163.2340  211.3420  137.6380 O   0  0  0  0  0  0  0  0  0  0  0  0
  163.5680  212.7850  139.4450 N   0  0  0  0  0  2  0  0  0  0  0  0
  161.8810  209.0460  139.4940 C   0  0  2  0  0  3  0  0  0  0  0  0
  161.5320  210.3380  140.2090 C   0  0  2  0  0  3  0  0  0  0  0  0
  160.4580  209.3020  139.9380 C   0  0  0  0  0  2  0  0  0  0  0  0
  162.5600  208.1150  140.4790 C   0  0  0  0  0  2  0  0  0  0  0  0
  161.5880  207.1820  141.0180 N   0  0  0  0  0  2  0  0  0  0  0  0
  162.2430  206.4860  142.1110 C   0  0  0  0  0  2  0  0  0  0  0  0
  161.2560  205.7340  142.8650 N   0  0  0  0  0  2  0  0  0  0  0  0
  160.8390  206.3660  146.5830 C   0  0  0  0  0  2  0  0  0  0  0  0
  162.2120  204.4190  144.6680 C   0  0  0  0  0  2  0  0  0  0  0  0
  162.3080  204.3800  147.2140 C   0  0  0  0  0  2  0  0  0  0  0  0
  163.0820  204.5720  145.9070 C   0  0  0  0  0  2  0  0  0  0  0  0
  160.4690  206.1970  145.1150 C   0  0  0  0  0  2  0  0  0  0  0  0
  160.9070  204.9990  147.2500 C   0  0  0  0  0  2  0  0  0  0  0  0
  161.6630  205.7820  144.2580 C   0  0  0  0  0  3  0  0  0  0  0  0
  2  9  1  0  0  0  0
  3 32  1  6  0  0  0
  3  6  1  0  0  0  0
  5  4  1  0  0  0  0
  5  9  1  0  0  0  0
  6 15  1  1  0  0  0
  7  4  1  6  0  0  0
  7 10  1  0  0  0  0
  7  8  1  0  0  0  0
  8  1  1  1  0  0  0
  9  8  1  0  0  0  0
  9 11  1  0  0  0  0
 10 12  1  1  0  0  0
 10 13  1  0  0  0  0
 12  3  1  0  0  0  0
 13  1  1  6  0  0  0
 13  6  1  0  0  0  0
 15 14  2  0  0  0  0
 15 16  1  0  0  0  0
 16 17  1  0  0  0  0
 17 20  2  0  0  0  0
 17 18  1  0  0  0  0
 18 19  2  0  0  0  0
 19 21  1  0  0  0  0
 19 24  1  0  0  0  0
 20 22  1  0  0  0  0
 22 21  2  0  0  0  0
 23 28  1  0  0  0  0
 24 23  2  0  0  0  0
 25 24  1  0  0  0  0
 25 26  1  0  0  0  0
 27 25  2  0  0  0  0
 28 29  1  0  0  0  0
 29 30  1  0  0  0  0
 31 30  1  0  0  0  0
 32 33  1  1  0  0  0
 33 36  1  0  0  0  0
 34 36  1  0  0  0  0
 35 33  2  0  0  0  0
 37 39  1  0  0  0  0
 37 38  1  0  0  0  0
 37 40  1  1  0  0  0
 38 32  1  6  0  0  0
 39 38  1  0  0  0  0
 40 41  1  0  0  0  0
 41 42  1  0  0  0  0
 42 43  1  0  0  0  0
 43 50  1  0  0  0  0
 44 49  1  0  0  0  0
 45 47  1  0  0  0  0
 46 49  1  0  0  0  0
 47 46  1  0  0  0  0
 48 44  1  0  0  0  0
 50 45  1  0  0  0  0
 50 48  1  0  0  0  0
M  END
>  <MODEL>
4

>  <REMARK>
 VINA RESULT:      -4.5      5.182     12.683
  Name = 
  15 active torsions:
  status: ('A' for Active; 'I' for Inactive)
    1  A    between atoms: C_1  and  N_45
    2  A    between atoms: C_3  and  C_41
    3  A    between atoms: C_6  and  C_36
    4  A    between atoms: C_7  and  C_39
    5  A    between atoms: C_11  and  C_36
    6  A    between atoms: C_12  and  C_39
    7  A    between atoms: C_15  and  N_26
    8  A    between atoms: C_16  and  C_36
    9  A    between atoms: C_17  and  C_42
   10  A    between atoms: N_18  and  C_41
   11  A    between atoms: N_18  and  C_47
   12  A    between atoms: C_19  and  N_23
   13  A    between atoms: N_23  and  N_26
   14  A    between atoms: N_37  and  C_47
   15  A    between atoms: N_37  and  C_48
                            x       y       z     vdW  Elec       q    Type
                         _______ _______ _______ _____ _____    ______ ____

>  <TORSDO>
F 15

$$$$
