=
 OpenBabel11052409553D

 29 32  0  0  1  0  0  0  0  0999 V2000
  162.0880  208.9060  151.6760 C   0  0  1  0  0  3  0  0  0  0  0  0
  162.0480  210.3110  153.7810 C   0  0  0  0  0  3  0  0  0  0  0  0
  161.3790  211.1080  154.6560 N   0  0  0  0  0  0  0  0  0  0  0  0
  159.3710  210.9110  153.3830 C   0  0  0  0  0  3  0  0  0  0  0  0
  161.3860  209.7830  152.6660 C   0  0  0  0  0  0  0  0  0  0  0  0
  160.0660  211.4150  154.4820 C   0  0  0  0  0  3  0  0  0  0  0  0
  160.0390  210.0930  152.4730 C   0  0  0  0  0  3  0  0  0  0  0  0
  161.7100  207.4650  151.8490 C   0  0  0  0  0  0  0  0  0  0  0  0
  161.2390  205.2710  151.2740 C   0  0  0  0  0  0  0  0  0  0  0  0
  161.5480  206.5630  150.8170 C   0  0  0  0  0  3  0  0  0  0  0  0
  161.1660  205.1380  152.6590 C   0  0  0  0  0  3  0  0  0  0  0  0
  161.4940  206.6550  153.3060 S   0  0  0  0  0  0  0  0  0  0  0  0
  161.3950  203.3470  146.2170 C   0  0  0  0  0  3  0  0  0  0  0  0
  161.5420  205.0370  148.0260 C   0  0  0  0  0  3  0  0  0  0  0  0
  160.9270  202.7510  148.5820 C   0  0  0  0  0  0  0  0  0  0  0  0
  161.0450  204.1320  150.3630 C   0  0  0  0  0  0  0  0  0  0  0  0
  161.0080  202.2330  147.1770 C   0  0  0  0  0  2  0  0  0  0  0  0
  161.1910  204.1190  148.9170 C   0  0  0  0  0  0  0  0  0  0  0  0
  160.6730  202.0670  149.6480 N   0  0  0  0  0  0  0  0  0  0  0  0
  161.6370  204.6170  146.6050 C   0  0  0  0  0  3  0  0  0  0  0  0
  160.7430  202.9310  150.7550 N   0  0  0  0  0  0  0  0  0  0  0  0
  161.8830  209.3900  150.2750 C   0  0  0  0  0  3  0  0  0  0  0  0
  162.2610  210.6120  149.9100 C   0  0  0  0  0  3  0  0  0  0  0  0
  162.0790  211.0920  148.5750 N   0  0  0  0  0  2  0  0  0  0  0  0
  160.8300  213.0640  149.2860 C   0  0  0  0  0  1  0  0  0  0  0  0
  161.7750  212.4800  148.2510 C   0  0  2  0  0  3  0  0  0  0  0  0
  161.8520  212.9420  145.9170 O   0  0  0  0  0  0  0  0  0  0  0  0
  159.8220  212.2260  146.7090 O   0  0  0  0  0  1  0  0  0  0  0  0
  161.1580  212.5630  146.8970 C   0  0  0  0  0  0  0  0  0  0  0  0
  1 22  1  6  0  0  0
  1  8  1  0  0  0  0
  1  5  1  0  0  0  0
  2  3  1  0  0  0  0
  4  6  1  0  0  0  0
  5  2  2  0  0  0  0
  6  3  2  0  0  0  0
  7  5  1  0  0  0  0
  7  4  2  0  0  0  0
  8 12  1  0  0  0  0
  9 11  2  0  0  0  0
 10  9  1  0  0  0  0
 10  8  2  0  0  0  0
 11 12  1  0  0  0  0
 13 20  2  0  0  0  0
 13 17  1  0  0  0  0
 14 18  2  0  0  0  0
 15 18  1  0  0  0  0
 15 19  2  0  0  0  0
 16 21  2  0  0  0  0
 16  9  1  0  0  0  0
 17 15  1  0  0  0  0
 18 16  1  0  0  0  0
 19 21  1  0  0  0  0
 20 14  1  0  0  0  0
 23 22  2  0  0  0  0
 24 23  1  0  0  0  0
 26 24  1  0  0  0  0
 26 25  1  1  0  0  0
 27 29  2  0  0  0  0
 28 29  1  0  0  0  0
 29 26  1  0  0  0  0
M  END
>  <MODEL>
1

>  <REMARK>
 VINA RESULT:      -8.5      0.000      0.000
  Name = 
  7 active torsions:
  status: ('A' for Active; 'I' for Inactive)
    1  A    between atoms: C_2  and  C_11
    2  A    between atoms: C_4  and  C_11
    3  A    between atoms: C_10  and  C_13
    4  A    between atoms: C_11  and  C_15
    5  A    between atoms: C_16  and  N_26
    6  A    between atoms: CA_18  and  C_25
    7  A    between atoms: CA_18  and  N_26
                            x       y       z     vdW  Elec       q    Type
                         _______ _______ _______ _____ _____    ______ ____

>  <TORSDO>
F 7

$$$$
=
 OpenBabel11052409553D

 29 32  0  0  1  0  0  0  0  0999 V2000
  160.5990  206.2910  149.1980 C   0  0  1  0  0  3  0  0  0  0  0  0
  160.8080  203.7730  149.3470 C   0  0  0  0  0  3  0  0  0  0  0  0
  161.0020  202.6460  150.0810 N   0  0  0  0  0  0  0  0  0  0  0  0
  161.2020  203.9230  152.0860 C   0  0  0  0  0  3  0  0  0  0  0  0
  160.8040  205.0260  149.9720 C   0  0  0  0  0  0  0  0  0  0  0  0
  161.1960  202.6950  151.4260 C   0  0  0  0  0  3  0  0  0  0  0  0
  161.0050  205.0900  151.3510 C   0  0  0  0  0  3  0  0  0  0  0  0
  161.0850  207.4890  149.9580 C   0  0  0  0  0  0  0  0  0  0  0  0
  161.3990  208.9360  151.7390 C   0  0  0  0  0  0  0  0  0  0  0  0
  160.7640  207.7740  151.2690 C   0  0  0  0  0  3  0  0  0  0  0  0
  162.2290  209.5680  150.8150 C   0  0  0  0  0  3  0  0  0  0  0  0
  162.1610  208.6560  149.4040 S   0  0  0  0  0  0  0  0  0  0  0  0
  160.3210  207.8280  156.9270 C   0  0  0  0  0  3  0  0  0  0  0  0
  160.6000  207.3810  154.5030 C   0  0  0  0  0  3  0  0  0  0  0  0
  160.9010  209.6460  155.3370 C   0  0  0  0  0  0  0  0  0  0  0  0
  161.2330  209.4310  153.1140 C   0  0  0  0  0  0  0  0  0  0  0  0
  160.6300  209.3080  156.7730 C   0  0  0  0  0  2  0  0  0  0  0  0
  160.8620  208.6650  154.2930 C   0  0  0  0  0  0  0  0  0  0  0  0
  161.2430  210.7960  154.8600 N   0  0  0  0  0  0  0  0  0  0  0  0
  160.3090  206.9560  155.8950 C   0  0  0  0  0  3  0  0  0  0  0  0
  161.4450  210.6600  153.4750 N   0  0  0  0  0  0  0  0  0  0  0  0
  161.1960  206.1970  147.8280 C   0  0  0  0  0  3  0  0  0  0  0  0
  160.4330  206.2700  146.7420 C   0  0  0  0  0  3  0  0  0  0  0  0
  160.9850  206.1870  145.4240 N   0  0  0  0  0  2  0  0  0  0  0  0
  159.9300  204.1990  144.4820 C   0  0  0  0  0  1  0  0  0  0  0  0
  161.2370  204.9300  144.7320 C   0  0  2  0  0  3  0  0  0  0  0  0
  161.7280  202.9870  146.0160 O   0  0  0  0  0  1  0  0  0  0  0  0
  163.4590  204.4750  145.7840 O   0  0  0  0  0  0  0  0  0  0  0  0
  162.1490  204.0770  145.5440 C   0  0  0  0  0  0  0  0  0  0  0  0
  1 22  1  6  0  0  0
  1  8  1  0  0  0  0
  1  5  1  0  0  0  0
  2  5  2  0  0  0  0
  2  3  1  0  0  0  0
  3  6  2  0  0  0  0
  5  7  1  0  0  0  0
  6  4  1  0  0  0  0
  7  4  2  0  0  0  0
  8 10  2  0  0  0  0
  9 16  1  0  0  0  0
 10  9  1  0  0  0  0
 11  9  2  0  0  0  0
 12  8  1  0  0  0  0
 12 11  1  0  0  0  0
 14 20  1  0  0  0  0
 15 17  1  0  0  0  0
 16 21  2  0  0  0  0
 16 18  1  0  0  0  0
 17 13  1  0  0  0  0
 18 14  2  0  0  0  0
 18 15  1  0  0  0  0
 19 15  2  0  0  0  0
 20 13  2  0  0  0  0
 21 19  1  0  0  0  0
 23 22  2  0  0  0  0
 24 23  1  0  0  0  0
 26 25  1  1  0  0  0
 26 24  1  0  0  0  0
 26 29  1  0  0  0  0
 29 28  2  0  0  0  0
 29 27  1  0  0  0  0
M  END
>  <MODEL>
2

>  <REMARK>
 VINA RESULT:      -8.3      3.281      7.674
  Name = 
  7 active torsions:
  status: ('A' for Active; 'I' for Inactive)
    1  A    between atoms: C_2  and  C_11
    2  A    between atoms: C_4  and  C_11
    3  A    between atoms: C_10  and  C_13
    4  A    between atoms: C_11  and  C_15
    5  A    between atoms: C_16  and  N_26
    6  A    between atoms: CA_18  and  C_25
    7  A    between atoms: CA_18  and  N_26
                            x       y       z     vdW  Elec       q    Type
                         _______ _______ _______ _____ _____    ______ ____

>  <TORSDO>
F 7

$$$$
=
 OpenBabel11052409553D

 29 32  0  0  1  0  0  0  0  0999 V2000
  160.8630  207.3920  152.2490 C   0  0  1  0  0  3  0  0  0  0  0  0
  161.6540  209.6450  151.4130 C   0  0  0  0  0  3  0  0  0  0  0  0
  162.0800  210.4470  150.4000 N   0  0  0  0  0  0  0  0  0  0  0  0
  161.8960  208.6560  148.8350 C   0  0  0  0  0  3  0  0  0  0  0  0
  161.3310  208.3070  151.1600 C   0  0  0  0  0  0  0  0  0  0  0  0
  162.2050  209.9830  149.1280 C   0  0  0  0  0  3  0  0  0  0  0  0
  161.4580  207.8180  149.8600 C   0  0  0  0  0  3  0  0  0  0  0  0
  160.9760  205.9510  151.8460 C   0  0  0  0  0  0  0  0  0  0  0  0
  161.0260  204.0910  150.4660 C   0  0  0  0  0  0  0  0  0  0  0  0
  160.8180  205.4780  150.5590 C   0  0  0  0  0  3  0  0  0  0  0  0
  161.3570  203.4640  151.6650 C   0  0  0  0  0  3  0  0  0  0  0  0
  161.3890  204.6620  152.8440 S   0  0  0  0  0  0  0  0  0  0  0  0
  161.6330  204.1300  145.0870 C   0  0  0  0  0  3  0  0  0  0  0  0
  161.5860  205.0500  147.3900 C   0  0  0  0  0  3  0  0  0  0  0  0
  161.0030  202.7170  147.0300 C   0  0  0  0  0  0  0  0  0  0  0  0
  160.9390  203.3590  149.1930 C   0  0  0  0  0  0  0  0  0  0  0  0
  161.2080  202.7430  145.5450 C   0  0  0  0  0  3  0  0  0  0  0  0
  161.1960  203.8710  147.8570 C   0  0  1  0  0  3  0  0  0  0  0  0
  160.6890  201.6930  147.7530 N   0  0  0  0  0  0  0  0  0  0  0  0
  161.8040  205.1730  145.9270 C   0  0  0  0  0  3  0  0  0  0  0  0
  160.6460  202.0980  149.0990 N   0  0  0  0  0  0  0  0  0  0  0  0
  161.5560  207.6830  153.5430 C   0  0  0  0  0  3  0  0  0  0  0  0
  160.8640  207.9070  154.6560 C   0  0  0  0  0  3  0  0  0  0  0  0
  161.5060  208.1820  155.9040 N   0  0  0  0  0  2  0  0  0  0  0  0
  159.9800  209.8960  156.7320 C   0  0  0  0  0  1  0  0  0  0  0  0
  161.4290  209.4670  156.5860 C   0  0  2  0  0  3  0  0  0  0  0  0
  163.3710  210.7730  156.1480 O   0  0  0  0  0  1  0  0  0  0  0  0
  161.5960  211.1520  154.7450 O   0  0  0  0  0  0  0  0  0  0  0  0
  162.1870  210.4960  155.8190 C   0  0  0  0  0  0  0  0  0  0  0  0
  1 22  1  1  0  0  0
  3  2  2  0  0  0  0
  4  6  2  0  0  0  0
  4  7  1  0  0  0  0
  5  2  1  0  0  0  0
  5  1  1  0  0  0  0
  6  3  1  0  0  0  0
  7  5  2  0  0  0  0
  8  1  1  0  0  0  0
  8 12  1  0  0  0  0
  9 10  1  0  0  0  0
  9 11  2  0  0  0  0
 10  8  2  0  0  0  0
 11 12  1  0  0  0  0
 13 17  2  0  0  0  0
 13 20  1  0  0  0  0
 15 19  2  0  0  0  0
 15 18  1  0  0  0  0
 16  9  1  0  0  0  0
 17 15  1  0  0  0  0
 18 14  1  1  0  0  0
 18 16  1  0  0  0  0
 19 21  1  0  0  0  0
 20 14  2  0  0  0  0
 21 16  2  0  0  0  0
 22 23  2  0  0  0  0
 23 24  1  0  0  0  0
 24 26  1  0  0  0  0
 26 25  1  6  0  0  0
 28 29  2  0  0  0  0
 29 27  1  0  0  0  0
 29 26  1  0  0  0  0
M  END
>  <MODEL>
3

>  <REMARK>
 VINA RESULT:      -8.2      2.907      4.797
  Name = 
  7 active torsions:
  status: ('A' for Active; 'I' for Inactive)
    1  A    between atoms: C_2  and  C_11
    2  A    between atoms: C_4  and  C_11
    3  A    between atoms: C_10  and  C_13
    4  A    between atoms: C_11  and  C_15
    5  A    between atoms: C_16  and  N_26
    6  A    between atoms: CA_18  and  C_25
    7  A    between atoms: CA_18  and  N_26
                            x       y       z     vdW  Elec       q    Type
                         _______ _______ _______ _____ _____    ______ ____

>  <TORSDO>
F 7

$$$$
=
 OpenBabel11052409553D

 29 32  0  0  1  0  0  0  0  0999 V2000
  161.1540  209.3930  153.3370 C   0  0  1  0  0  3  0  0  0  0  0  0
  161.9450  209.1890  155.7320 C   0  0  0  0  0  3  0  0  0  0  0  0
  161.8290  208.6430  156.9720 N   0  0  0  0  0  0  0  0  0  0  0  0
  159.9670  207.3240  156.2750 C   0  0  0  0  0  3  0  0  0  0  0  0
  161.0620  208.8110  154.7140 C   0  0  0  0  0  0  0  0  0  0  0  0
  160.8670  207.7260  157.2610 C   0  0  0  0  0  3  0  0  0  0  0  0
  160.0690  207.8730  154.9980 C   0  0  0  0  0  3  0  0  0  0  0  0
  161.4020  208.3330  152.3050 C   0  0  0  0  0  0  0  0  0  0  0  0
  161.4210  206.2350  151.3240 C   0  0  0  0  0  0  0  0  0  0  0  0
  161.1330  206.9900  152.4730 C   0  0  0  0  0  3  0  0  0  0  0  0
  161.9060  206.9690  150.2430 C   0  0  0  0  0  3  0  0  0  0  0  0
  161.9690  208.5740  150.7400 S   0  0  0  0  0  0  0  0  0  0  0  0
  161.0230  201.7920  148.2570 C   0  0  0  0  0  3  0  0  0  0  0  0
  161.2850  204.2060  148.7620 C   0  0  0  0  0  3  0  0  0  0  0  0
  160.9380  202.6400  150.5900 C   0  0  0  0  0  0  0  0  0  0  0  0
  161.1930  204.7840  151.2500 C   0  0  0  0  0  0  0  0  0  0  0  0
  160.8630  201.4190  149.7230 C   0  0  0  0  0  2  0  0  0  0  0  0
  161.1360  203.9550  150.0570 C   0  0  0  0  0  0  0  0  0  0  0  0
  160.8910  202.6800  151.8810 N   0  0  0  0  0  0  0  0  0  0  0  0
  161.2150  203.0570  147.8260 C   0  0  0  0  0  3  0  0  0  0  0  0
  161.0450  204.0170  152.2880 N   0  0  0  0  0  0  0  0  0  0  0  0
  159.9590  210.2360  153.0200 C   0  0  0  0  0  3  0  0  0  0  0  0
  159.7420  211.3840  153.6550 C   0  0  0  0  0  3  0  0  0  0  0  0
  158.6090  212.2070  153.3640 N   0  0  0  0  0  2  0  0  0  0  0  0
  157.0040  211.3750  155.0020 C   0  0  0  0  0  1  0  0  0  0  0  0
  157.6220  212.6040  154.3590 C   0  0  2  0  0  3  0  0  0  0  0  0
  155.3880  213.4050  154.1800 O   0  0  0  0  0  1  0  0  0  0  0  0
  156.8540  214.2320  152.6220 O   0  0  0  0  0  0  0  0  0  0  0  0
  156.5600  213.4320  153.7210 C   0  0  0  0  0  0  0  0  0  0  0  0
  1 22  1  6  0  0  0
  1  5  1  0  0  0  0
  2  3  1  0  0  0  0
  3  6  2  0  0  0  0
  4  6  1  0  0  0  0
  5  7  1  0  0  0  0
  5  2  2  0  0  0  0
  7  4  2  0  0  0  0
  8 10  2  0  0  0  0
  8  1  1  0  0  0  0
  9 10  1  0  0  0  0
 11 12  1  0  0  0  0
 11  9  2  0  0  0  0
 12  8  1  0  0  0  0
 13 17  1  0  0  0  0
 14 18  2  0  0  0  0
 15 19  2  0  0  0  0
 16  9  1  0  0  0  0
 16 21  2  0  0  0  0
 17 15  1  0  0  0  0
 18 15  1  0  0  0  0
 18 16  1  0  0  0  0
 19 21  1  0  0  0  0
 20 13  2  0  0  0  0
 20 14  1  0  0  0  0
 22 23  2  0  0  0  0
 24 23  1  0  0  0  0
 24 26  1  0  0  0  0
 26 25  1  6  0  0  0
 28 29  2  0  0  0  0
 29 27  1  0  0  0  0
 29 26  1  0  0  0  0
M  END
>  <MODEL>
4

>  <REMARK>
 VINA RESULT:      -8.1      3.303      4.321
  Name = 
  7 active torsions:
  status: ('A' for Active; 'I' for Inactive)
    1  A    between atoms: C_2  and  C_11
    2  A    between atoms: C_4  and  C_11
    3  A    between atoms: C_10  and  C_13
    4  A    between atoms: C_11  and  C_15
    5  A    between atoms: C_16  and  N_26
    6  A    between atoms: CA_18  and  C_25
    7  A    between atoms: CA_18  and  N_26
                            x       y       z     vdW  Elec       q    Type
                         _______ _______ _______ _____ _____    ______ ____

>  <TORSDO>
F 7

$$$$
=
 OpenBabel11052409553D

 29 32  0  0  1  0  0  0  0  0999 V2000
  161.6770  207.7390  152.6350 C   0  0  1  0  0  3  0  0  0  0  0  0
  160.5960  209.3000  154.3070 C   0  0  0  0  0  3  0  0  0  0  0  0
  159.9650  209.5080  155.4930 N   0  0  0  0  0  0  0  0  0  0  0  0
  160.0640  207.1800  156.0120 C   0  0  0  0  0  3  0  0  0  0  0  0
  160.9850  208.0080  153.9350 C   0  0  0  0  0  0  0  0  0  0  0  0
  159.6950  208.4830  156.3460 C   0  0  0  0  0  3  0  0  0  0  0  0
  160.7110  206.9480  154.7990 C   0  0  0  0  0  3  0  0  0  0  0  0
  161.4080  206.3470  152.1430 C   0  0  0  0  0  0  0  0  0  0  0  0
  161.1610  204.5930  150.6510 C   0  0  0  0  0  0  0  0  0  0  0  0
  161.3940  205.9690  150.8160 C   0  0  0  0  0  3  0  0  0  0  0  0
  161.0020  203.8760  151.8350 C   0  0  0  0  0  3  0  0  0  0  0  0
  161.1560  204.9820  153.0920 S   0  0  0  0  0  0  0  0  0  0  0  0
  161.9780  204.9890  145.3140 C   0  0  0  0  0  3  0  0  0  0  0  0
  161.8380  205.7550  147.6690 C   0  0  0  0  0  3  0  0  0  0  0  0
  161.2770  203.4500  147.1330 C   0  0  0  0  0  0  0  0  0  0  0  0
  161.1260  203.9470  149.3300 C   0  0  0  0  0  0  0  0  0  0  0  0
  161.5400  203.5750  145.6620 C   0  0  0  0  0  3  0  0  0  0  0  0
  161.4340  204.5460  148.0420 C   0  0  1  0  0  3  0  0  0  0  0  0
  160.9380  202.3800  147.7730 N   0  0  0  0  0  0  0  0  0  0  0  0
  162.1130  205.9750  146.2280 C   0  0  0  0  0  3  0  0  0  0  0  0
  160.8410  202.6950  149.1400 N   0  0  0  0  0  0  0  0  0  0  0  0
  161.3480  208.7820  151.6140 C   0  0  0  0  0  3  0  0  0  0  0  0
  162.2440  209.6990  151.2590 C   0  0  0  0  0  3  0  0  0  0  0  0
  161.9520  210.7030  150.2820 N   0  0  0  0  0  2  0  0  0  0  0  0
  162.3580  209.1680  148.4290 C   0  0  0  0  0  1  0  0  0  0  0  0
  161.6140  210.4060  148.8960 C   0  0  2  0  0  3  0  0  0  0  0  0
  163.1420  212.0140  148.0320 O   0  0  0  0  0  1  0  0  0  0  0  0
  161.0030  212.1550  147.2160 O   0  0  0  0  0  0  0  0  0  0  0  0
  161.9650  211.5650  148.0280 C   0  0  0  0  0  0  0  0  0  0  0  0
  1 22  1  6  0  0  0
  1  5  1  0  0  0  0
  2  3  1  0  0  0  0
  3  6  2  0  0  0  0
  4  6  1  0  0  0  0
  5  2  2  0  0  0  0
  5  7  1  0  0  0  0
  7  4  2  0  0  0  0
  8  1  1  0  0  0  0
  8 12  1  0  0  0  0
  9 10  1  0  0  0  0
  9 11  2  0  0  0  0
 10  8  2  0  0  0  0
 11 12  1  0  0  0  0
 13 17  2  0  0  0  0
 13 20  1  0  0  0  0
 15 19  2  0  0  0  0
 15 18  1  0  0  0  0
 16  9  1  0  0  0  0
 17 15  1  0  0  0  0
 18 14  1  1  0  0  0
 18 16  1  0  0  0  0
 19 21  1  0  0  0  0
 20 14  2  0  0  0  0
 21 16  2  0  0  0  0
 23 22  2  0  0  0  0
 24 23  1  0  0  0  0
 26 25  1  6  0  0  0
 26 24  1  0  0  0  0
 28 29  2  0  0  0  0
 29 27  1  0  0  0  0
 29 26  1  0  0  0  0
M  END
>  <MODEL>
5

>  <REMARK>
 VINA RESULT:      -7.8      1.748      2.184
  Name = 
  7 active torsions:
  status: ('A' for Active; 'I' for Inactive)
    1  A    between atoms: C_2  and  C_11
    2  A    between atoms: C_4  and  C_11
    3  A    between atoms: C_10  and  C_13
    4  A    between atoms: C_11  and  C_15
    5  A    between atoms: C_16  and  N_26
    6  A    between atoms: CA_18  and  C_25
    7  A    between atoms: CA_18  and  N_26
                            x       y       z     vdW  Elec       q    Type
                         _______ _______ _______ _____ _____    ______ ____

>  <TORSDO>
F 7

$$$$
=
 OpenBabel11052409553D

 29 32  0  0  1  0  0  0  0  0999 V2000
  160.6050  206.0770  149.3510 C   0  0  1  0  0  3  0  0  0  0  0  0
  161.0150  204.6820  151.4220 C   0  0  0  0  0  3  0  0  0  0  0  0
  161.2060  203.4720  152.0130 N   0  0  0  0  0  0  0  0  0  0  0  0
  161.0280  202.3580  149.9100 C   0  0  0  0  0  3  0  0  0  0  0  0
  160.8230  204.7640  150.0380 C   0  0  0  0  0  0  0  0  0  0  0  0
  161.2180  202.3200  151.2910 C   0  0  0  0  0  3  0  0  0  0  0  0
  160.8300  203.5890  149.2860 C   0  0  0  0  0  3  0  0  0  0  0  0
  161.0680  207.2270  150.1960 C   0  0  0  0  0  0  0  0  0  0  0  0
  161.1970  208.6590  152.0120 C   0  0  0  0  0  0  0  0  0  0  0  0
  160.5380  207.5660  151.4240 C   0  0  0  0  0  3  0  0  0  0  0  0
  162.2510  209.1820  151.2650 C   0  0  0  0  0  3  0  0  0  0  0  0
  162.3510  208.2610  149.8620 S   0  0  0  0  0  0  0  0  0  0  0  0
  158.2930  212.1970  154.9010 C   0  0  0  0  0  3  0  0  0  0  0  0
  159.2010  211.1050  152.8680 C   0  0  0  0  0  3  0  0  0  0  0  0
  159.9240  210.3310  155.0580 C   0  0  0  0  0  0  0  0  0  0  0  0
  160.8300  209.1910  153.3330 C   0  0  0  0  0  0  0  0  0  0  0  0
  159.0870  211.3000  155.8380 C   0  0  0  0  0  2  0  0  0  0  0  0
  159.9360  210.2990  153.6250 C   0  0  0  0  0  0  0  0  0  0  0  0
  160.6790  209.3980  155.5350 N   0  0  0  0  0  0  0  0  0  0  0  0
  158.3470  212.1050  153.5550 C   0  0  0  0  0  3  0  0  0  0  0  0
  161.2450  208.6930  154.4580 N   0  0  0  0  0  0  0  0  0  0  0  0
  161.2140  206.0860  147.9840 C   0  0  0  0  0  3  0  0  0  0  0  0
  160.4560  206.2020  146.8970 C   0  0  0  0  0  3  0  0  0  0  0  0
  161.0180  206.2180  145.5820 N   0  0  0  0  0  2  0  0  0  0  0  0
  160.0880  204.2320  144.5110 C   0  0  0  0  0  1  0  0  0  0  0  0
  161.3500  205.0140  144.8320 C   0  0  2  0  0  3  0  0  0  0  0  0
  161.9160  203.0250  146.0120 O   0  0  0  0  0  1  0  0  0  0  0  0
  163.5620  204.6210  145.9300 O   0  0  0  0  0  0  0  0  0  0  0  0
  162.2860  204.1650  145.6210 C   0  0  0  0  0  0  0  0  0  0  0  0
  1 22  1  6  0  0  0
  1  5  1  0  0  0  0
  1  8  1  0  0  0  0
  2  3  1  0  0  0  0
  4  6  1  0  0  0  0
  5  2  2  0  0  0  0
  6  3  2  0  0  0  0
  7  4  2  0  0  0  0
  7  5  1  0  0  0  0
  8 10  2  0  0  0  0
  9 16  1  0  0  0  0
 10  9  1  0  0  0  0
 11  9  2  0  0  0  0
 12  8  1  0  0  0  0
 12 11  1  0  0  0  0
 13 17  1  0  0  0  0
 14 20  1  0  0  0  0
 14 18  2  0  0  0  0
 15 19  2  0  0  0  0
 15 17  1  0  0  0  0
 16 18  1  0  0  0  0
 16 21  2  0  0  0  0
 18 15  1  0  0  0  0
 20 13  2  0  0  0  0
 21 19  1  0  0  0  0
 23 22  2  0  0  0  0
 24 23  1  0  0  0  0
 26 25  1  1  0  0  0
 26 24  1  0  0  0  0
 26 29  1  0  0  0  0
 29 28  2  0  0  0  0
 29 27  1  0  0  0  0
M  END
>  <MODEL>
6

>  <REMARK>
 VINA RESULT:      -7.7      3.267      7.817
  Name = 
  7 active torsions:
  status: ('A' for Active; 'I' for Inactive)
    1  A    between atoms: C_2  and  C_11
    2  A    between atoms: C_4  and  C_11
    3  A    between atoms: C_10  and  C_13
    4  A    between atoms: C_11  and  C_15
    5  A    between atoms: C_16  and  N_26
    6  A    between atoms: CA_18  and  C_25
    7  A    between atoms: CA_18  and  N_26
                            x       y       z     vdW  Elec       q    Type
                         _______ _______ _______ _____ _____    ______ ____

>  <TORSDO>
F 7

$$$$
=
 OpenBabel11052409553D

 29 32  0  0  1  0  0  0  0  0999 V2000
  161.8260  209.9220  151.4630 C   0  0  1  0  0  3  0  0  0  0  0  0
  161.8420  210.6930  153.8730 C   0  0  0  0  0  3  0  0  0  0  0  0
  161.1990  211.2240  154.9480 N   0  0  0  0  0  0  0  0  0  0  0  0
  159.1660  211.4020  153.7110 C   0  0  0  0  0  3  0  0  0  0  0  0
  161.1530  210.4990  152.6710 C   0  0  0  0  0  0  0  0  0  0  0  0
  159.8880  211.5770  154.8920 C   0  0  0  0  0  3  0  0  0  0  0  0
  159.8080  210.8600  152.5980 C   0  0  0  0  0  3  0  0  0  0  0  0
  161.6120  208.4410  151.3650 C   0  0  0  0  0  0  0  0  0  0  0  0
  161.4350  206.3430  150.3990 C   0  0  0  0  0  0  0  0  0  0  0  0
  161.6150  207.7200  150.1880 C   0  0  0  0  0  3  0  0  0  0  0  0
  161.3010  205.9640  151.7340 C   0  0  0  0  0  3  0  0  0  0  0  0
  161.4110  207.3710  152.6470 S   0  0  0  0  0  0  0  0  0  0  0  0
  160.7080  201.2220  148.8030 C   0  0  0  0  0  3  0  0  0  0  0  0
  160.8910  203.1180  150.3910 C   0  0  0  0  0  3  0  0  0  0  0  0
  161.2560  203.5140  148.0200 C   0  0  0  0  0  0  0  0  0  0  0  0
  161.4280  205.3650  149.3000 C   0  0  0  0  0  0  0  0  0  0  0  0
  161.0190  202.0950  147.5980 C   0  0  0  0  0  3  0  0  0  0  0  0
  161.1850  203.9350  149.3880 C   0  0  1  0  0  3  0  0  0  0  0  0
  161.4950  204.5240  147.2510 N   0  0  0  0  0  0  0  0  0  0  0  0
  160.6500  201.6890  150.0680 C   0  0  0  0  0  3  0  0  0  0  0  0
  161.6060  205.6740  148.0520 N   0  0  0  0  0  0  0  0  0  0  0  0
  161.4240  210.6450  150.2160 C   0  0  0  0  0  3  0  0  0  0  0  0
  162.3310  211.0180  149.3180 C   0  0  0  0  0  3  0  0  0  0  0  0
  161.9680  211.7060  148.1170 N   0  0  0  0  0  2  0  0  0  0  0  0
  162.1040  214.0910  148.6120 C   0  0  0  0  0  1  0  0  0  0  0  0
  162.5620  212.9680  147.6980 C   0  0  2  0  0  3  0  0  0  0  0  0
  163.0670  213.5480  145.4450 O   0  0  0  0  0  0  0  0  0  0  0  0
  160.8400  213.2500  145.9070 O   0  0  0  0  0  1  0  0  0  0  0  0
  162.1760  213.2700  146.2920 C   0  0  0  0  0  0  0  0  0  0  0  0
  1 22  1  6  0  0  0
  1  5  1  0  0  0  0
  2  3  1  0  0  0  0
  4  6  1  0  0  0  0
  5  2  2  0  0  0  0
  6  3  2  0  0  0  0
  7  5  1  0  0  0  0
  7  4  2  0  0  0  0
  8  1  1  0  0  0  0
  8 12  1  0  0  0  0
  9 11  2  0  0  0  0
 10  9  1  0  0  0  0
 10  8  2  0  0  0  0
 11 12  1  0  0  0  0
 13 20  1  0  0  0  0
 15 18  1  0  0  0  0
 16 18  1  0  0  0  0
 16  9  1  0  0  0  0
 17 15  1  0  0  0  0
 17 13  2  0  0  0  0
 18 14  1  6  0  0  0
 19 15  2  0  0  0  0
 19 21  1  0  0  0  0
 20 14  2  0  0  0  0
 21 16  2  0  0  0  0
 23 22  2  0  0  0  0
 24 23  1  0  0  0  0
 26 24  1  0  0  0  0
 26 25  1  1  0  0  0
 27 29  2  0  0  0  0
 28 29  1  0  0  0  0
 29 26  1  0  0  0  0
M  END
>  <MODEL>
7

>  <REMARK>
 VINA RESULT:      -7.7      1.426      1.855
  Name = 
  7 active torsions:
  status: ('A' for Active; 'I' for Inactive)
    1  A    between atoms: C_2  and  C_11
    2  A    between atoms: C_4  and  C_11
    3  A    between atoms: C_10  and  C_13
    4  A    between atoms: C_11  and  C_15
    5  A    between atoms: C_16  and  N_26
    6  A    between atoms: CA_18  and  C_25
    7  A    between atoms: CA_18  and  N_26
                            x       y       z     vdW  Elec       q    Type
                         _______ _______ _______ _____ _____    ______ ____

>  <TORSDO>
F 7

$$$$
=
 OpenBabel11052409553D

 29 32  0  0  1  0  0  0  0  0999 V2000
  160.6620  210.1360  153.9920 C   0  0  1  0  0  3  0  0  0  0  0  0
  161.6800  209.2400  156.1280 C   0  0  0  0  0  3  0  0  0  0  0  0
  161.6900  208.3350  157.1430 N   0  0  0  0  0  0  0  0  0  0  0  0
  159.7880  207.2170  156.2350 C   0  0  0  0  0  3  0  0  0  0  0  0
  160.7090  209.1560  155.1230 C   0  0  0  0  0  0  0  0  0  0  0  0
  160.7720  207.3340  157.2150 C   0  0  0  0  0  3  0  0  0  0  0  0
  159.7600  208.1350  155.1870 C   0  0  0  0  0  3  0  0  0  0  0  0
  161.2050  209.5440  152.7250 C   0  0  0  0  0  0  0  0  0  0  0  0
  161.4610  208.0480  150.9750 C   0  0  0  0  0  0  0  0  0  0  0  0
  160.8230  208.3280  152.1960 C   0  0  0  0  0  3  0  0  0  0  0  0
  162.3360  209.0350  150.5280 C   0  0  0  0  0  3  0  0  0  0  0  0
  162.3030  210.2650  151.6740 S   0  0  0  0  0  0  0  0  0  0  0  0
  160.8870  202.6650  150.9540 C   0  0  0  0  0  3  0  0  0  0  0  0
  161.3640  204.9100  151.8940 C   0  0  0  0  0  3  0  0  0  0  0  0
  160.8330  204.6990  149.5300 C   0  0  0  0  0  0  0  0  0  0  0  0
  161.1990  206.8220  150.2060 C   0  0  0  0  0  0  0  0  0  0  0  0
  160.6480  203.2120  149.5550 C   0  0  0  0  0  3  0  0  0  0  0  0
  161.1860  205.4530  150.6960 C   0  0  1  0  0  3  0  0  0  0  0  0
  160.6600  205.4870  148.5200 N   0  0  0  0  0  0  0  0  0  0  0  0
  161.2100  203.4390  152.0120 C   0  0  0  0  0  3  0  0  0  0  0  0
  160.8930  206.8070  148.9440 N   0  0  0  0  0  0  0  0  0  0  0  0
  159.2880  210.7040  153.8180 C   0  0  0  0  0  3  0  0  0  0  0  0
  159.1090  211.9280  153.3310 C   0  0  0  0  0  3  0  0  0  0  0  0
  157.8050  212.4880  153.1530 N   0  0  0  0  0  2  0  0  0  0  0  0
  158.3460  214.2040  154.8010 C   0  0  0  0  0  1  0  0  0  0  0  0
  157.2410  213.5140  154.0200 C   0  0  2  0  0  3  0  0  0  0  0  0
  155.5840  211.9050  154.5950 O   0  0  0  0  0  0  0  0  0  0  0  0
  156.0840  213.4290  156.2350 O   0  0  0  0  0  1  0  0  0  0  0  0
  156.2600  212.9040  154.9600 C   0  0  0  0  0  0  0  0  0  0  0  0
  1 22  1  6  0  0  0
  1  5  1  0  0  0  0
  2  3  1  0  0  0  0
  3  6  2  0  0  0  0
  4  6  1  0  0  0  0
  5  7  1  0  0  0  0
  5  2  2  0  0  0  0
  7  4  2  0  0  0  0
  8  1  1  0  0  0  0
  9 10  1  0  0  0  0
 10  8  2  0  0  0  0
 11  9  2  0  0  0  0
 11 12  1  0  0  0  0
 12  8  1  0  0  0  0
 13 20  1  0  0  0  0
 14 20  2  0  0  0  0
 15 17  1  0  0  0  0
 15 18  1  0  0  0  0
 16 18  1  0  0  0  0
 16  9  1  0  0  0  0
 17 13  2  0  0  0  0
 18 14  1  1  0  0  0
 19 21  1  0  0  0  0
 19 15  2  0  0  0  0
 21 16  2  0  0  0  0
 23 22  2  0  0  0  0
 24 23  1  0  0  0  0
 24 26  1  0  0  0  0
 26 25  1  1  0  0  0
 26 29  1  0  0  0  0
 27 29  2  0  0  0  0
 29 28  1  0  0  0  0
M  END
>  <MODEL>
8

>  <REMARK>
 VINA RESULT:      -7.7      3.631      5.132
  Name = 
  7 active torsions:
  status: ('A' for Active; 'I' for Inactive)
    1  A    between atoms: C_2  and  C_11
    2  A    between atoms: C_4  and  C_11
    3  A    between atoms: C_10  and  C_13
    4  A    between atoms: C_11  and  C_15
    5  A    between atoms: C_16  and  N_26
    6  A    between atoms: CA_18  and  C_25
    7  A    between atoms: CA_18  and  N_26
                            x       y       z     vdW  Elec       q    Type
                         _______ _______ _______ _____ _____    ______ ____

>  <TORSDO>
F 7

$$$$
=
 OpenBabel11052409553D

 29 32  0  0  1  0  0  0  0  0999 V2000
  161.3250  209.5540  153.0540 C   0  0  1  0  0  3  0  0  0  0  0  0
  159.8490  209.5970  155.1090 C   0  0  0  0  0  3  0  0  0  0  0  0
  159.6890  209.7970  156.4440 N   0  0  0  0  0  0  0  0  0  0  0  0
  161.9960  210.3510  156.6920 C   0  0  0  0  0  3  0  0  0  0  0  0
  161.1060  209.7710  154.5200 C   0  0  0  0  0  0  0  0  0  0  0  0
  160.7270  210.1690  157.2400 C   0  0  0  0  0  3  0  0  0  0  0  0
  162.1810  210.1490  155.3250 C   0  0  0  0  0  3  0  0  0  0  0  0
  161.2510  208.1000  152.6930 C   0  0  0  0  0  0  0  0  0  0  0  0
  161.2320  206.2020  151.3650 C   0  0  0  0  0  0  0  0  0  0  0  0
  161.2660  207.6060  151.4040 C   0  0  0  0  0  3  0  0  0  0  0  0
  161.2020  205.5790  152.6110 C   0  0  0  0  0  3  0  0  0  0  0  0
  161.2190  206.8030  153.7630 S   0  0  0  0  0  0  0  0  0  0  0  0
  160.8340  201.4140  148.8720 C   0  0  0  0  0  3  0  0  0  0  0  0
  160.9220  202.9990  150.7770 C   0  0  0  0  0  3  0  0  0  0  0  0
  161.1930  203.8450  148.5120 C   0  0  0  0  0  0  0  0  0  0  0  0
  161.2650  205.4420  150.1070 C   0  0  0  0  0  0  0  0  0  0  0  0
  161.0480  202.5120  147.8420 C   0  0  0  0  0  3  0  0  0  0  0  0
  161.1290  204.0050  149.9350 C   0  0  1  0  0  3  0  0  0  0  0  0
  161.3370  204.9930  147.9370 N   0  0  0  0  0  0  0  0  0  0  0  0
  160.7760  201.6390  150.2020 C   0  0  0  0  0  3  0  0  0  0  0  0
  161.3860  205.9840  148.9330 N   0  0  0  0  0  0  0  0  0  0  0  0
  160.4010  210.3980  152.2330 C   0  0  0  0  0  3  0  0  0  0  0  0
  160.3430  211.7150  152.4040 C   0  0  0  0  0  3  0  0  0  0  0  0
  159.4700  212.5410  151.6270 N   0  0  0  0  0  2  0  0  0  0  0  0
  157.8690  213.0010  153.4100 C   0  0  0  0  0  1  0  0  0  0  0  0
  158.5980  213.5580  152.2000 C   0  0  2  0  0  3  0  0  0  0  0  0
  156.3970  214.1220  151.4920 O   0  0  0  0  0  1  0  0  0  0  0  0
  158.0270  214.3270  149.8900 O   0  0  0  0  0  0  0  0  0  0  0  0
  157.6130  214.0170  151.1810 C   0  0  0  0  0  0  0  0  0  0  0  0
  1 22  1  6  0  0  0
  1  5  1  0  0  0  0
  2  3  1  0  0  0  0
  3  6  2  0  0  0  0
  4  6  1  0  0  0  0
  5  2  2  0  0  0  0
  5  7  1  0  0  0  0
  7  4  2  0  0  0  0
  8  1  1  0  0  0  0
  8 12  1  0  0  0  0
  9 10  1  0  0  0  0
  9 11  2  0  0  0  0
 10  8  2  0  0  0  0
 11 12  1  0  0  0  0
 13 20  1  0  0  0  0
 15 18  1  0  0  0  0
 16  9  1  0  0  0  0
 17 15  1  0  0  0  0
 17 13  2  0  0  0  0
 18 16  1  0  0  0  0
 18 14  1  6  0  0  0
 19 15  2  0  0  0  0
 19 21  1  0  0  0  0
 20 14  2  0  0  0  0
 21 16  2  0  0  0  0
 22 23  2  0  0  0  0
 24 26  1  0  0  0  0
 24 23  1  0  0  0  0
 26 25  1  1  0  0  0
 28 29  2  0  0  0  0
 29 27  1  0  0  0  0
 29 26  1  0  0  0  0
M  END
>  <MODEL>
9

>  <REMARK>
 VINA RESULT:      -7.6      2.640      3.441
  Name = 
  7 active torsions:
  status: ('A' for Active; 'I' for Inactive)
    1  A    between atoms: C_2  and  C_11
    2  A    between atoms: C_4  and  C_11
    3  A    between atoms: C_10  and  C_13
    4  A    between atoms: C_11  and  C_15
    5  A    between atoms: C_16  and  N_26
    6  A    between atoms: CA_18  and  C_25
    7  A    between atoms: CA_18  and  N_26
                            x       y       z     vdW  Elec       q    Type
                         _______ _______ _______ _____ _____    ______ ____

>  <TORSDO>
F 7

$$$$
