=
 OpenBabel11052412023D

 61 66  0  0  1  0  0  0  0  0999 V2000
  160.0280  209.5020  153.1640 C   0  0  1  0  0  3  0  0  0  0  0  0
  161.1400  210.1230  152.3180 C   0  0  0  0  0  1  0  0  0  0  0  0
  161.4650  207.4980  154.1800 C   0  0  2  0  0  3  0  0  0  0  0  0
  160.0750  207.3250  154.3190 O   0  0  0  0  0  0  0  0  0  0  0  0
  160.5390  208.6610  154.3620 C   0  0  2  0  0  0  0  0  0  0  0  0
  162.4670  210.4470  155.4370 O   0  0  0  0  0  1  0  0  0  0  0  0
  161.3880  210.2610  156.3120 C   0  0  2  0  0  3  0  0  0  0  0  0
  162.4330  208.0720  156.3830 O   0  0  0  0  0  1  0  0  0  0  0  0
  161.3650  208.8370  156.8800 C   0  0  2  0  0  3  0  0  0  0  0  0
  160.3780  209.2430  155.7880 C   0  0  2  0  0  0  0  0  0  0  0  0
  158.9780  209.4870  156.3110 C   0  0  0  0  0  1  0  0  0  0  0  0
  161.8610  207.2320  152.7320 C   0  0  0  0  0  2  0  0  0  0  0  0
  161.0480  206.1640  152.1580 N   0  0  0  0  0  0  0  0  0  0  0  0
  161.8890  204.9790  152.1600 C   0  0  0  0  0  2  0  0  0  0  0  0
  161.0320  203.7460  152.3810 C   0  0  0  0  0  2  0  0  0  0  0  0
  161.0630  201.6880  150.9750 C   0  0  0  0  0  1  0  0  0  0  0  0
  160.6280  203.1430  151.0550 C   0  0  0  0  0  2  0  0  0  0  0  0
  160.8040  206.5020  150.7580 C   0  0  0  0  0  2  0  0  0  0  0  0
  161.1620  207.9620  150.5290 C   0  0  0  0  0  2  0  0  0  0  0  0
  161.3710  208.2010  149.0440 C   0  0  0  0  0  2  0  0  0  0  0  0
  162.7330  207.6700  148.6470 C   0  0  0  0  0  2  0  0  0  0  0  0
  162.5950  206.7350  147.4640 C   0  0  0  0  0  2  0  0  0  0  0  0
  161.2390  206.4860  147.2270 O   0  0  0  0  0  0  0  0  0  0  0  0
  161.1750  205.1490  146.8240 C   0  0  2  0  0  3  0  0  0  0  0  0
  161.7090  204.3420  147.8350 O   0  0  0  0  0  0  0  0  0  0  0  0
  161.2350  203.0610  147.5590 C   0  0  0  0  0  1  0  0  0  0  0  0
  161.9640  204.9560  145.5300 C   0  0  2  0  0  3  0  0  0  0  0  0
  162.8000  206.0480  145.3160 O   0  0  0  0  0  1  0  0  0  0  0  0
  161.3140  205.4800  143.1600 O   0  0  0  0  0  0  0  0  0  0  0  0
  160.0290  204.0520  144.4420 O   0  0  0  0  0  1  0  0  0  0  0  0
  161.0490  204.8010  144.3530 C   0  0  0  0  0  0  0  0  0  0  0  0
  159.1160  210.4910  153.6250 O   0  0  0  0  0  0  0  0  0  0  0  0
  160.6650  212.1940  153.8580 O   0  0  0  0  0  0  0  0  0  0  0  0
  159.4590  211.8390  153.7670 C   0  0  0  0  0  0  0  0  0  0  0  0
  156.8200  214.2110  152.2790 C   0  0  2  0  0  3  0  0  0  0  0  0
  157.1820  212.3830  154.5600 C   0  0  0  0  0  2  0  0  0  0  0  0
  159.0780  213.7290  151.6200 O   0  0  0  0  0  1  0  0  0  0  0  0
  158.3870  212.8760  153.7550 C   0  0  2  0  0  3  0  0  0  0  0  0
  156.0630  213.4200  154.5300 C   0  0  2  0  0  3  0  0  0  0  0  0
  157.9810  213.2040  152.3080 C   0  0  1  0  0  3  0  0  0  0  0  0
  154.9730  212.9460  155.2590 O   0  0  0  0  0  1  0  0  0  0  0  0
  155.6380  213.6840  153.0890 C   0  0  0  0  0  2  0  0  0  0  0  0
  156.3960  214.4510  150.9070 N   0  0  0  0  0  0  0  0  0  0  0  0
  159.2250  213.5410  145.4410 C   0  0  0  0  0  2  0  0  0  0  0  0
  158.7380  213.4640  147.6420 C   0  0  1  0  0  3  0  0  0  0  0  0
  157.1170  214.1030  149.8830 C   0  0  0  0  0  0  0  0  0  0  0  0
  158.3930  213.5370  150.0690 O   0  0  0  0  0  0  0  0  0  0  0  0
  159.1750  212.9510  149.0200 C   0  0  2  0  0  3  0  0  0  0  0  0
  156.7450  213.4690  146.0770 C   0  0  1  0  0  3  0  0  0  0  0  0
  159.3030  212.7240  146.5920 O   0  0  0  0  0  0  0  0  0  0  0  0
  157.2190  213.3640  147.5430 C   0  0  2  0  0  3  0  0  0  0  0  0
  155.5410  214.1660  145.9560 O   0  0  0  0  0  1  0  0  0  0  0  0
  156.5920  214.3620  148.5040 C   0  0  0  0  0  2  0  0  0  0  0  0
  157.8020  214.0670  145.1420 C   0  0  0  0  0  2  0  0  0  0  0  0
  161.8470  214.1790  147.3290 C   0  0  0  0  0  2  0  0  0  0  0  0
  162.8320  213.0200  147.3760 C   0  0  2  0  0  3  0  0  0  0  0  0
  161.5400  211.9370  149.2300 C   0  0  0  0  0  2  0  0  0  0  0  0
  161.2740  214.4470  148.7210 C   0  0  0  0  0  2  0  0  0  0  0  0
  163.5190  212.7590  145.7590 Cl  0  0  0  0  0  0  0  0  0  0  0  0
  162.1160  211.7550  147.8280 C   0  0  0  0  0  2  0  0  0  0  0  0
  160.6580  213.1840  149.3380 C   0  0  1  0  0  3  0  0  0  0  0  0
  1  2  1  1  0  0  0
  1 32  1  0  0  0  0
  3 12  1  6  0  0  0
  3  4  1  0  0  0  0
  3  5  1  0  0  0  0
  4  5  1  0  0  0  0
  5  1  1  6  0  0  0
  5 10  1  0  0  0  0
  7  6  1  6  0  0  0
  7  9  1  0  0  0  0
  9  8  1  6  0  0  0
 10 11  1  1  0  0  0
 10  7  1  0  0  0  0
 10  9  1  0  0  0  0
 13 14  1  0  0  0  0
 13 12  1  0  0  0  0
 14 15  1  0  0  0  0
 16 17  1  0  0  0  0
 17 15  1  0  0  0  0
 18 13  1  0  0  0  0
 19 18  1  0  0  0  0
 20 19  1  0  0  0  0
 21 20  1  0  0  0  0
 22 21  1  0  0  0  0
 23 22  1  0  0  0  0
 24 23  1  1  0  0  0
 24 25  1  0  0  0  0
 26 25  1  0  0  0  0
 27 28  1  6  0  0  0
 27 24  1  0  0  0  0
 29 31  2  0  0  0  0
 31 30  1  0  0  0  0
 31 27  1  0  0  0  0
 32 34  1  0  0  0  0
 34 33  2  0  0  0  0
 35 43  1  6  0  0  0
 35 40  1  0  0  0  0
 35 42  1  0  0  0  0
 38 34  1  6  0  0  0
 38 36  1  0  0  0  0
 39 36  1  0  0  0  0
 39 41  1  1  0  0  0
 40 37  1  6  0  0  0
 40 38  1  0  0  0  0
 42 39  1  0  0  0  0
 44 50  1  0  0  0  0
 45 50  1  6  0  0  0
 45 48  1  0  0  0  0
 46 47  1  0  0  0  0
 46 43  2  0  0  0  0
 48 61  1  0  0  0  0
 48 47  1  1  0  0  0
 49 52  1  1  0  0  0
 49 51  1  0  0  0  0
 51 45  1  0  0  0  0
 51 53  1  1  0  0  0
 53 46  1  0  0  0  0
 54 44  1  0  0  0  0
 54 49  1  0  0  0  0
 55 56  1  0  0  0  0
 55 58  1  0  0  0  0
 56 59  1  6  0  0  0
 56 60  1  0  0  0  0
 57 61  1  0  0  0  0
 60 57  1  0  0  0  0
 61 58  1  6  0  0  0
M  END
>  <MODEL>
1

>  <REMARK>
 VINA RESULT:      -5.8      0.000      0.000
  Name = 
  22 active torsions:
  status: ('A' for Active; 'I' for Inactive)
    1  A    between atoms: C_3  and  N_7
    2  A    between atoms: C_3  and  C_16
    3  A    between atoms: C_4  and  N_7
    4  A    between atoms: C_4  and  C_61
    5  A    between atoms: N_5  and  C_15
    6  A    between atoms: N_7  and  C_25
    7  A    between atoms: C_9  and  C_10
    8  A    between atoms: C_9  and  C_18
    9  A    between atoms: C_10  and  C_16
   10  A    between atoms: C_11  and  C_32
   11  A    between atoms: C_11  and  C_42
   12  A    between atoms: C_18  and  O_22
   13  A    between atoms: C_19  and  C_57
   14  A    between atoms: C_20  and  C_25
   15  A    between atoms: O_22  and  C_42
   16  A    between atoms: O_26  and  C_45
   17  A    between atoms: O_26  and  C_60
   18  A    between atoms: C_33  and  C_55
   19  A    between atoms: C_36  and  C_61
   20  A    between atoms: C_37  and  C_60
   21  A    between atoms: C_42  and  O_47
   22  A    between atoms: C_45  and  C_57
                            x       y       z     vdW  Elec       q    Type
                         _______ _______ _______ _____ _____    ______ ____

>  <TORSDO>
F 22

$$$$
=
 OpenBabel11052412023D

 61 66  0  0  1  0  0  0  0  0999 V2000
  160.3520  209.7220  153.4920 C   0  0  1  0  0  3  0  0  0  0  0  0
  160.8750  208.2960  153.6760 C   0  0  0  0  0  1  0  0  0  0  0  0
  159.3630  211.7290  154.9410 C   0  0  2  0  0  3  0  0  0  0  0  0
  160.7350  211.8590  154.6570 O   0  0  0  0  0  0  0  0  0  0  0  0
  160.2580  210.5350  154.8080 C   0  0  2  0  0  0  0  0  0  0  0  0
  161.2730  212.1580  156.9050 O   0  0  0  0  0  1  0  0  0  0  0  0
  161.2880  210.7980  157.2480 C   0  0  2  0  0  3  0  0  0  0  0  0
  162.9810  210.8640  155.5110 O   0  0  0  0  0  1  0  0  0  0  0  0
  162.3110  210.0200  156.4120 C   0  0  2  0  0  3  0  0  0  0  0  0
  160.8200  209.9020  156.1040 C   0  0  2  0  0  0  0  0  0  0  0  0
  160.2120  208.6040  156.5910 C   0  0  0  0  0  1  0  0  0  0  0  0
  158.5580  212.0540  153.6880 C   0  0  0  0  0  2  0  0  0  0  0  0
  158.6280  213.4790  153.3800 N   0  0  0  0  0  0  0  0  0  0  0  0
  157.3310  213.8320  152.8300 C   0  0  0  0  0  2  0  0  0  0  0  0
  156.3340  214.0250  153.9590 C   0  0  0  0  0  2  0  0  0  0  0  0
  154.9980  214.3700  151.8830 C   0  0  0  0  0  1  0  0  0  0  0  0
  154.9490  214.2600  153.4000 C   0  0  0  0  0  2  0  0  0  0  0  0
  159.6000  213.6470  152.3010 C   0  0  0  0  0  2  0  0  0  0  0  0
  158.9030  214.2520  151.0930 C   0  0  0  0  0  2  0  0  0  0  0  0
  159.7080  213.9450  149.8420 C   0  0  0  0  0  2  0  0  0  0  0  0
  158.8360  214.1760  148.6260 C   0  0  0  0  0  2  0  0  0  0  0  0
  159.7040  214.4530  147.4160 C   0  0  0  0  0  2  0  0  0  0  0  0
  159.0160  214.0760  146.2580 O   0  0  0  0  0  0  0  0  0  0  0  0
  159.9370  214.2280  145.2180 C   0  0  2  0  0  3  0  0  0  0  0  0
  159.2820  214.0260  143.9970 O   0  0  0  0  0  0  0  0  0  0  0  0
  157.9240  214.0770  144.3060 C   0  0  0  0  0  1  0  0  0  0  0  0
  161.0730  213.2190  145.3740 C   0  0  2  0  0  3  0  0  0  0  0  0
  161.6470  213.3440  146.6360 O   0  0  0  0  0  1  0  0  0  0  0  0
  162.2830  212.5010  143.2920 O   0  0  0  0  0  0  0  0  0  0  0  0
  162.8900  214.4370  144.3960 O   0  0  0  0  0  1  0  0  0  0  0  0
  162.1300  213.4240  144.3320 C   0  0  0  0  0  0  0  0  0  0  0  0
  161.1290  210.4370  152.5390 O   0  0  0  0  0  0  0  0  0  0  0  0
  163.4340  210.2860  152.6730 O   0  0  0  0  0  0  0  0  0  0  0  0
  162.3670  209.9880  152.0710 C   0  0  0  0  0  0  0  0  0  0  0  0
  161.7140  206.8560  149.9320 C   0  0  2  0  0  3  0  0  0  0  0  0
  161.7580  209.7910  149.6830 C   0  0  0  0  0  2  0  0  0  0  0  0
  162.4150  207.1060  152.2150 O   0  0  0  0  0  1  0  0  0  0  0  0
  162.4230  209.0980  150.8750 C   0  0  2  0  0  3  0  0  0  0  0  0
  161.7790  208.8800  148.4590 C   0  0  2  0  0  3  0  0  0  0  0  0
  161.7380  207.7550  151.1790 C   0  0  1  0  0  3  0  0  0  0  0  0
  161.1590  209.5260  147.3900 O   0  0  0  0  0  1  0  0  0  0  0  0
  161.0420  207.5800  148.7680 C   0  0  0  0  0  2  0  0  0  0  0  0
  160.9940  205.6230  150.2140 N   0  0  0  0  0  0  0  0  0  0  0  0
  160.9360  200.0810  147.3860 C   0  0  0  0  0  2  0  0  0  0  0  0
  161.5270  202.1710  147.9960 C   0  0  1  0  0  3  0  0  0  0  0  0
  161.1930  204.5290  149.5400 C   0  0  0  0  0  0  0  0  0  0  0  0
  162.0770  204.5180  148.4440 O   0  0  0  0  0  0  0  0  0  0  0  0
  162.5050  203.3300  147.7660 C   0  0  2  0  0  3  0  0  0  0  0  0
  160.5920  200.7110  149.8450 C   0  0  1  0  0  3  0  0  0  0  0  0
  162.0450  200.9400  147.5640 O   0  0  0  0  0  0  0  0  0  0  0  0
  161.2270  202.0730  149.4890 C   0  0  2  0  0  3  0  0  0  0  0  0
  159.6220  200.8220  150.8440 O   0  0  0  0  0  1  0  0  0  0  0  0
  160.4290  203.2960  149.9150 C   0  0  0  0  0  2  0  0  0  0  0  0
  160.0210  199.9750  148.6280 C   0  0  0  0  0  2  0  0  0  0  0  0
  162.2970  206.1410  145.8800 C   0  0  0  0  0  2  0  0  0  0  0  0
  161.2820  205.7510  144.8140 C   0  0  2  0  0  3  0  0  0  0  0  0
  161.5720  203.3230  145.3590 C   0  0  0  0  0  2  0  0  0  0  0  0
  163.3600  205.0520  146.0240 C   0  0  0  0  0  2  0  0  0  0  0  0
  160.0850  207.0520  144.6300 Cl  0  0  0  0  0  0  0  0  0  0  0  0
  160.5720  204.4690  145.2230 C   0  0  0  0  0  2  0  0  0  0  0  0
  162.7360  203.6760  146.2900 C   0  0  1  0  0  3  0  0  0  0  0  0
  1  2  1  1  0  0  0
  3 12  1  6  0  0  0
  4  5  1  0  0  0  0
  4  3  1  0  0  0  0
  5  1  1  6  0  0  0
  5  3  1  0  0  0  0
  5 10  1  0  0  0  0
  7  6  1  6  0  0  0
  9  8  1  6  0  0  0
  9  7  1  0  0  0  0
 10  9  1  0  0  0  0
 10 11  1  1  0  0  0
 10  7  1  0  0  0  0
 13 12  1  0  0  0  0
 14 13  1  0  0  0  0
 14 15  1  0  0  0  0
 16 17  1  0  0  0  0
 17 15  1  0  0  0  0
 18 13  1  0  0  0  0
 19 18  1  0  0  0  0
 20 19  1  0  0  0  0
 21 20  1  0  0  0  0
 22 21  1  0  0  0  0
 23 22  1  0  0  0  0
 24 25  1  6  0  0  0
 24 27  1  0  0  0  0
 24 23  1  0  0  0  0
 25 26  1  0  0  0  0
 27 28  1  1  0  0  0
 29 31  2  0  0  0  0
 31 30  1  0  0  0  0
 31 27  1  0  0  0  0
 32  1  1  0  0  0  0
 34 32  1  0  0  0  0
 34 33  2  0  0  0  0
 35 43  1  1  0  0  0
 35 40  1  0  0  0  0
 36 38  1  0  0  0  0
 38 40  1  0  0  0  0
 38 34  1  1  0  0  0
 39 41  1  6  0  0  0
 39 42  1  0  0  0  0
 39 36  1  0  0  0  0
 40 37  1  1  0  0  0
 42 35  1  0  0  0  0
 44 50  1  0  0  0  0
 44 54  1  0  0  0  0
 45 50  1  1  0  0  0
 45 51  1  0  0  0  0
 46 53  1  0  0  0  0
 46 43  2  0  0  0  0
 47 46  1  0  0  0  0
 48 45  1  0  0  0  0
 48 47  1  1  0  0  0
 49 52  1  1  0  0  0
 51 49  1  0  0  0  0
 51 53  1  6  0  0  0
 54 49  1  0  0  0  0
 55 58  1  0  0  0  0
 56 59  1  1  0  0  0
 56 60  1  0  0  0  0
 56 55  1  0  0  0  0
 58 61  1  0  0  0  0
 60 57  1  0  0  0  0
 61 57  1  6  0  0  0
 61 48  1  0  0  0  0
M  END
>  <MODEL>
2

>  <REMARK>
 VINA RESULT:      -3.6      2.368      8.792
  Name = 
  22 active torsions:
  status: ('A' for Active; 'I' for Inactive)
    1  A    between atoms: C_3  and  N_7
    2  A    between atoms: C_3  and  C_16
    3  A    between atoms: C_4  and  N_7
    4  A    between atoms: C_4  and  C_61
    5  A    between atoms: N_5  and  C_15
    6  A    between atoms: N_7  and  C_25
    7  A    between atoms: C_9  and  C_10
    8  A    between atoms: C_9  and  C_18
    9  A    between atoms: C_10  and  C_16
   10  A    between atoms: C_11  and  C_32
   11  A    between atoms: C_11  and  C_42
   12  A    between atoms: C_18  and  O_22
   13  A    between atoms: C_19  and  C_57
   14  A    between atoms: C_20  and  C_25
   15  A    between atoms: O_22  and  C_42
   16  A    between atoms: O_26  and  C_45
   17  A    between atoms: O_26  and  C_60
   18  A    between atoms: C_33  and  C_55
   19  A    between atoms: C_36  and  C_61
   20  A    between atoms: C_37  and  C_60
   21  A    between atoms: C_42  and  O_47
   22  A    between atoms: C_45  and  C_57
                            x       y       z     vdW  Elec       q    Type
                         _______ _______ _______ _____ _____    ______ ____

>  <TORSDO>
F 22

$$$$
=
 OpenBabel11052412023D

 61 66  0  0  1  0  0  0  0  0999 V2000
  162.7910  205.7820  149.5050 C   0  0  1  0  0  3  0  0  0  0  0  0
  163.0780  206.5160  150.8150 C   0  0  0  0  0  1  0  0  0  0  0  0
  161.0980  204.0640  148.3680 C   0  0  2  0  0  3  0  0  0  0  0  0
  160.5160  205.3050  148.6860 O   0  0  0  0  0  0  0  0  0  0  0  0
  161.5430  204.8640  149.5540 C   0  0  2  0  0  0  0  0  0  0  0  0
  162.5090  202.6150  150.9930 O   0  0  0  0  0  1  0  0  0  0  0  0
  161.5500  203.3260  151.7260 C   0  0  2  0  0  3  0  0  0  0  0  0
  160.1900  202.4070  149.9380 O   0  0  0  0  0  1  0  0  0  0  0  0
  160.1570  203.2040  151.0950 C   0  0  2  0  0  3  0  0  0  0  0  0
  160.9590  204.4940  150.9390 C   0  0  2  0  0  0  0  0  0  0  0  0
  160.4680  205.6120  151.8340 C   0  0  0  0  0  1  0  0  0  0  0  0
  161.9800  204.2250  147.1360 C   0  0  0  0  0  2  0  0  0  0  0  0
  161.2420  203.8890  145.9210 N   0  0  0  0  0  0  0  0  0  0  0  0
  161.1950  202.4380  145.8720 C   0  0  0  0  0  2  0  0  0  0  0  0
  159.7770  201.9840  145.5730 C   0  0  0  0  0  2  0  0  0  0  0  0
  161.1120  199.8790  145.5870 C   0  0  0  0  0  1  0  0  0  0  0  0
  159.7160  200.4750  145.4960 C   0  0  0  0  0  2  0  0  0  0  0  0
  162.0510  204.3200  144.7830 C   0  0  0  0  0  2  0  0  0  0  0  0
  161.2080  205.2050  143.8800 C   0  0  0  0  0  2  0  0  0  0  0  0
  162.1140  206.1670  143.1300 C   0  0  0  0  0  2  0  0  0  0  0  0
  161.6710  206.2340  141.6840 C   0  0  0  0  0  2  0  0  0  0  0  0
  162.4830  207.2770  140.9450 C   0  0  0  0  0  2  0  0  0  0  0  0
  161.9380  207.4710  139.6720 O   0  0  0  0  0  0  0  0  0  0  0  0
  161.1920  208.6490  139.7680 C   0  0  2  0  0  3  0  0  0  0  0  0
  160.3490  208.7460  138.6540 O   0  0  0  0  0  0  0  0  0  0  0  0
  160.7510  207.7140  137.8090 C   0  0  0  0  0  1  0  0  0  0  0  0
  162.1260  209.8560  139.8220 C   0  0  2  0  0  3  0  0  0  0  0  0
  161.8130  210.6500  140.9210 O   0  0  0  0  0  1  0  0  0  0  0  0
  161.2260  211.8320  138.5560 O   0  0  0  0  0  1  0  0  0  0  0  0
  162.6560  210.3340  137.5340 O   0  0  0  0  0  0  0  0  0  0  0  0
  162.0210  210.6820  138.5750 C   0  0  0  0  0  0  0  0  0  0  0  0
  162.6760  206.6930  148.4180 O   0  0  0  0  0  0  0  0  0  0  0  0
  160.5320  206.8930  147.5720 O   0  0  0  0  0  0  0  0  0  0  0  0
  161.5150  207.4250  148.1550 C   0  0  0  0  0  0  0  0  0  0  0  0
  161.5090  210.3600  150.6430 C   0  0  2  0  0  3  0  0  0  0  0  0
  162.5100  209.6790  147.9580 C   0  0  0  0  0  2  0  0  0  0  0  0
  160.4700  208.1980  150.7310 O   0  0  0  0  0  1  0  0  0  0  0  0
  161.4150  208.8390  148.6200 C   0  0  2  0  0  3  0  0  0  0  0  0
  162.4420  211.1220  148.4480 C   0  0  2  0  0  3  0  0  0  0  0  0
  161.5280  208.9040  150.1520 C   0  0  1  0  0  3  0  0  0  0  0  0
  163.4540  211.8660  147.8420 O   0  0  0  0  0  1  0  0  0  0  0  0
  162.6160  211.1650  149.9630 C   0  0  0  0  0  2  0  0  0  0  0  0
  161.6960  210.4080  152.0860 N   0  0  0  0  0  0  0  0  0  0  0  0
  158.8380  213.6540  156.5590 C   0  0  0  0  0  2  0  0  0  0  0  0
  159.3140  212.7090  154.5680 C   0  0  1  0  0  3  0  0  0  0  0  0
  160.9200  211.1010  152.8670 C   0  0  0  0  0  0  0  0  0  0  0  0
  159.8980  211.9040  152.3260 O   0  0  0  0  0  0  0  0  0  0  0  0
  158.8810  212.5460  153.1050 C   0  0  2  0  0  3  0  0  0  0  0  0
  159.9340  211.3400  156.6080 C   0  0  1  0  0  3  0  0  0  0  0  0
  158.2530  213.0940  155.4000 O   0  0  0  0  0  0  0  0  0  0  0  0
  159.8610  211.3740  155.0660 C   0  0  2  0  0  3  0  0  0  0  0  0
  161.0530  210.6430  157.0720 O   0  0  0  0  0  1  0  0  0  0  0  0
  161.1650  211.0720  154.3440 C   0  0  0  0  0  2  0  0  0  0  0  0
  159.8710  212.7310  157.2470 C   0  0  0  0  0  2  0  0  0  0  0  0
  157.0860  213.3990  150.3570 C   0  0  0  0  0  2  0  0  0  0  0  0
  158.1000  214.1680  149.5220 C   0  0  2  0  0  3  0  0  0  0  0  0
  159.5940  214.4500  151.5140 C   0  0  0  0  0  2  0  0  0  0  0  0
  157.0940  213.9020  151.8000 C   0  0  0  0  0  2  0  0  0  0  0  0
  158.0380  213.6000  147.8400 Cl  0  0  0  0  0  0  0  0  0  0  0  0
  159.4990  213.9430  150.0770 C   0  0  0  0  0  2  0  0  0  0  0  0
  158.5010  213.8610  152.4110 C   0  0  1  0  0  3  0  0  0  0  0  0
  1  2  1  1  0  0  0
  3 12  1  6  0  0  0
  3  4  1  0  0  0  0
  3  5  1  0  0  0  0
  4  5  1  0  0  0  0
  5  1  1  6  0  0  0
  5 10  1  0  0  0  0
  7  6  1  6  0  0  0
  9  8  1  6  0  0  0
  9  7  1  0  0  0  0
 10  9  1  0  0  0  0
 10  7  1  0  0  0  0
 10 11  1  1  0  0  0
 13 12  1  0  0  0  0
 14 13  1  0  0  0  0
 15 14  1  0  0  0  0
 17 15  1  0  0  0  0
 17 16  1  0  0  0  0
 18 13  1  0  0  0  0
 19 18  1  0  0  0  0
 20 19  1  0  0  0  0
 21 20  1  0  0  0  0
 22 21  1  0  0  0  0
 23 24  1  0  0  0  0
 23 22  1  0  0  0  0
 24 25  1  6  0  0  0
 24 27  1  0  0  0  0
 26 25  1  0  0  0  0
 27 28  1  1  0  0  0
 29 31  1  0  0  0  0
 30 31  2  0  0  0  0
 31 27  1  0  0  0  0
 32  1  1  0  0  0  0
 33 34  2  0  0  0  0
 34 32  1  0  0  0  0
 35 43  1  1  0  0  0
 36 39  1  0  0  0  0
 36 38  1  0  0  0  0
 38 34  1  6  0  0  0
 38 40  1  0  0  0  0
 39 41  1  6  0  0  0
 39 42  1  0  0  0  0
 40 35  1  0  0  0  0
 40 37  1  1  0  0  0
 42 35  1  0  0  0  0
 43 46  2  0  0  0  0
 44 54  1  0  0  0  0
 45 51  1  0  0  0  0
 45 50  1  1  0  0  0
 46 53  1  0  0  0  0
 47 46  1  0  0  0  0
 48 47  1  6  0  0  0
 48 45  1  0  0  0  0
 49 52  1  6  0  0  0
 49 54  1  0  0  0  0
 50 44  1  0  0  0  0
 51 53  1  6  0  0  0
 51 49  1  0  0  0  0
 55 58  1  0  0  0  0
 56 59  1  6  0  0  0
 56 60  1  0  0  0  0
 56 55  1  0  0  0  0
 58 61  1  0  0  0  0
 60 57  1  0  0  0  0
 61 57  1  6  0  0  0
 61 48  1  0  0  0  0
M  END
>  <MODEL>
3

>  <REMARK>
 VINA RESULT:      -3.1      3.449      7.572
  Name = 
  22 active torsions:
  status: ('A' for Active; 'I' for Inactive)
    1  A    between atoms: C_3  and  N_7
    2  A    between atoms: C_3  and  C_16
    3  A    between atoms: C_4  and  N_7
    4  A    between atoms: C_4  and  C_61
    5  A    between atoms: N_5  and  C_15
    6  A    between atoms: N_7  and  C_25
    7  A    between atoms: C_9  and  C_10
    8  A    between atoms: C_9  and  C_18
    9  A    between atoms: C_10  and  C_16
   10  A    between atoms: C_11  and  C_32
   11  A    between atoms: C_11  and  C_42
   12  A    between atoms: C_18  and  O_22
   13  A    between atoms: C_19  and  C_57
   14  A    between atoms: C_20  and  C_25
   15  A    between atoms: O_22  and  C_42
   16  A    between atoms: O_26  and  C_45
   17  A    between atoms: O_26  and  C_60
   18  A    between atoms: C_33  and  C_55
   19  A    between atoms: C_36  and  C_61
   20  A    between atoms: C_37  and  C_60
   21  A    between atoms: C_42  and  O_47
   22  A    between atoms: C_45  and  C_57
                            x       y       z     vdW  Elec       q    Type
                         _______ _______ _______ _____ _____    ______ ____

>  <TORSDO>
F 22

$$$$
=
 OpenBabel11052412023D

 61 66  0  0  1  0  0  0  0  0999 V2000
  161.8790  212.0030  148.5520 C   0  0  1  0  0  3  0  0  0  0  0  0
  161.1150  210.9820  147.7090 C   0  0  0  0  0  1  0  0  0  0  0  0
  161.1420  214.2360  147.2950 C   0  0  2  0  0  3  0  0  0  0  0  0
  162.1950  214.4220  148.2090 O   0  0  0  0  0  0  0  0  0  0  0  0
  161.2540  213.4220  148.5470 C   0  0  2  0  0  0  0  0  0  0  0  0
  158.8710  212.0500  149.2540 O   0  0  0  0  0  1  0  0  0  0  0  0
  159.1820  213.0570  150.1780 C   0  0  2  0  0  3  0  0  0  0  0  0
  158.6080  214.3740  148.2220 O   0  0  0  0  0  1  0  0  0  0  0  0
  159.0260  214.4530  149.5610 C   0  0  2  0  0  3  0  0  0  0  0  0
  160.4170  213.8590  149.7740 C   0  0  2  0  0  0  0  0  0  0  0  0
  161.1420  214.4530  150.9630 C   0  0  0  0  0  1  0  0  0  0  0  0
  161.6770  213.5450  146.0470 C   0  0  0  0  0  2  0  0  0  0  0  0
  161.3440  214.3070  144.8470 N   0  0  0  0  0  0  0  0  0  0  0  0
  160.3740  213.5060  144.1220 C   0  0  0  0  0  2  0  0  0  0  0  0
  159.5610  214.3980  143.2000 C   0  0  0  0  0  2  0  0  0  0  0  0
  158.9270  213.1110  141.1620 C   0  0  0  0  0  1  0  0  0  0  0  0
  158.4680  213.5990  142.5280 C   0  0  0  0  0  2  0  0  0  0  0  0
  162.5440  214.3640  144.0160 C   0  0  0  0  0  2  0  0  0  0  0  0
  162.7920  212.9950  143.4040 C   0  0  0  0  0  2  0  0  0  0  0  0
  163.4140  213.1640  142.0290 C   0  0  0  0  0  2  0  0  0  0  0  0
  162.3380  213.5950  141.0530 C   0  0  0  0  0  2  0  0  0  0  0  0
  162.5640  212.9280  139.7120 C   0  0  0  0  0  2  0  0  0  0  0  0
  161.3480  212.8450  139.0270 O   0  0  0  0  0  0  0  0  0  0  0  0
  161.1800  211.4870  138.7400 C   0  0  2  0  0  3  0  0  0  0  0  0
  162.3820  210.9740  138.2390 O   0  0  0  0  0  0  0  0  0  0  0  0
  162.0330  209.7690  137.6320 C   0  0  0  0  0  1  0  0  0  0  0  0
  160.0660  211.3050  137.7110 C   0  0  2  0  0  3  0  0  0  0  0  0
  159.8670  212.4920  137.0120 O   0  0  0  0  0  1  0  0  0  0  0  0
  157.5710  211.4790  137.9630 O   0  0  0  0  0  0  0  0  0  0  0  0
  158.7890  210.0360  139.2920 O   0  0  0  0  0  1  0  0  0  0  0  0
  158.7790  210.9020  138.3660 C   0  0  0  0  0  0  0  0  0  0  0  0
  162.0360  211.5510  149.8920 O   0  0  0  0  0  0  0  0  0  0  0  0
  162.6790  209.3620  149.5090 O   0  0  0  0  0  0  0  0  0  0  0  0
  162.0850  210.1990  150.2410 C   0  0  0  0  0  0  0  0  0  0  0  0
  160.7050  207.7330  152.8530 C   0  0  2  0  0  3  0  0  0  0  0  0
  162.3770  210.1520  152.6960 C   0  0  0  0  0  2  0  0  0  0  0  0
  160.3660  207.8940  150.4810 O   0  0  0  0  0  1  0  0  0  0  0  0
  161.4760  209.7480  151.5260 C   0  0  2  0  0  3  0  0  0  0  0  0
  161.7840  209.6700  154.0160 C   0  0  2  0  0  3  0  0  0  0  0  0
  161.2570  208.2260  151.5060 C   0  0  1  0  0  3  0  0  0  0  0  0
  162.6260  210.0380  155.0650 O   0  0  0  0  0  1  0  0  0  0  0  0
  161.6310  208.1520  153.9920 C   0  0  0  0  0  2  0  0  0  0  0  0
  160.5780  206.2830  152.8440 N   0  0  0  0  0  0  0  0  0  0  0  0
  160.9900  202.0820  148.2730 C   0  0  0  0  0  2  0  0  0  0  0  0
  161.1280  204.0150  149.4270 C   0  0  1  0  0  3  0  0  0  0  0  0
  160.7910  205.5700  151.7770 C   0  0  0  0  0  0  0  0  0  0  0  0
  161.0860  206.1940  150.5500 O   0  0  0  0  0  0  0  0  0  0  0  0
  161.5200  205.4970  149.3760 C   0  0  2  0  0  3  0  0  0  0  0  0
  161.5490  201.9050  150.7660 C   0  0  1  0  0  3  0  0  0  0  0  0
  161.7570  203.2600  148.4240 O   0  0  0  0  0  0  0  0  0  0  0  0
  161.5330  203.4490  150.7850 C   0  0  2  0  0  3  0  0  0  0  0  0
  161.1100  201.3550  151.9730 O   0  0  0  0  0  1  0  0  0  0  0  0
  160.6650  204.0800  151.8630 C   0  0  0  0  0  2  0  0  0  0  0  0
  160.7660  201.3080  149.5930 C   0  0  0  0  0  2  0  0  0  0  0  0
  160.7800  204.6700  146.1700 C   0  0  0  0  0  2  0  0  0  0  0  0
  161.6780  205.6030  145.3700 C   0  0  2  0  0  3  0  0  0  0  0  0
  162.0440  207.0510  147.3820 C   0  0  0  0  0  2  0  0  0  0  0  0
  160.0310  205.4510  147.2510 C   0  0  0  0  0  2  0  0  0  0  0  0
  162.5000  204.6830  144.0910 Cl  0  0  0  0  0  0  0  0  0  0  0  0
  162.7190  206.2270  146.2890 C   0  0  0  0  0  2  0  0  0  0  0  0
  160.9890  206.2470  148.1470 C   0  0  1  0  0  3  0  0  0  0  0  0
  1  2  1  6  0  0  0
  1 32  1  0  0  0  0
  3 12  1  6  0  0  0
  3  4  1  0  0  0  0
  3  5  1  0  0  0  0
  4  5  1  0  0  0  0
  5  1  1  6  0  0  0
  5 10  1  0  0  0  0
  7  6  1  6  0  0  0
  9  8  1  6  0  0  0
  9 10  1  0  0  0  0
  9  7  1  0  0  0  0
 10  7  1  0  0  0  0
 10 11  1  1  0  0  0
 13 12  1  0  0  0  0
 14 13  1  0  0  0  0
 15 14  1  0  0  0  0
 16 17  1  0  0  0  0
 17 15  1  0  0  0  0
 18 13  1  0  0  0  0
 19 18  1  0  0  0  0
 20 19  1  0  0  0  0
 21 20  1  0  0  0  0
 22 21  1  0  0  0  0
 23 22  1  0  0  0  0
 24 25  1  6  0  0  0
 24 23  1  0  0  0  0
 26 25  1  0  0  0  0
 27 28  1  1  0  0  0
 27 31  1  0  0  0  0
 27 24  1  0  0  0  0
 29 31  2  0  0  0  0
 31 30  1  0  0  0  0
 32 34  1  0  0  0  0
 33 34  2  0  0  0  0
 35 43  1  6  0  0  0
 35 42  1  0  0  0  0
 36 39  1  0  0  0  0
 38 34  1  6  0  0  0
 38 36  1  0  0  0  0
 39 41  1  1  0  0  0
 40 37  1  6  0  0  0
 40 38  1  0  0  0  0
 40 35  1  0  0  0  0
 42 39  1  0  0  0  0
 44 50  1  0  0  0  0
 44 54  1  0  0  0  0
 45 50  1  6  0  0  0
 45 51  1  0  0  0  0
 46 53  1  0  0  0  0
 46 43  2  0  0  0  0
 47 46  1  0  0  0  0
 48 45  1  0  0  0  0
 48 47  1  1  0  0  0
 49 51  1  0  0  0  0
 49 52  1  1  0  0  0
 51 53  1  1  0  0  0
 54 49  1  0  0  0  0
 55 58  1  0  0  0  0
 56 59  1  6  0  0  0
 56 55  1  0  0  0  0
 56 60  1  0  0  0  0
 57 61  1  0  0  0  0
 60 57  1  0  0  0  0
 61 58  1  6  0  0  0
 61 48  1  0  0  0  0
M  END
>  <MODEL>
4

>  <REMARK>
 VINA RESULT:      -2.9      4.090      9.454
  Name = 
  22 active torsions:
  status: ('A' for Active; 'I' for Inactive)
    1  A    between atoms: C_3  and  N_7
    2  A    between atoms: C_3  and  C_16
    3  A    between atoms: C_4  and  N_7
    4  A    between atoms: C_4  and  C_61
    5  A    between atoms: N_5  and  C_15
    6  A    between atoms: N_7  and  C_25
    7  A    between atoms: C_9  and  C_10
    8  A    between atoms: C_9  and  C_18
    9  A    between atoms: C_10  and  C_16
   10  A    between atoms: C_11  and  C_32
   11  A    between atoms: C_11  and  C_42
   12  A    between atoms: C_18  and  O_22
   13  A    between atoms: C_19  and  C_57
   14  A    between atoms: C_20  and  C_25
   15  A    between atoms: O_22  and  C_42
   16  A    between atoms: O_26  and  C_45
   17  A    between atoms: O_26  and  C_60
   18  A    between atoms: C_33  and  C_55
   19  A    between atoms: C_36  and  C_61
   20  A    between atoms: C_37  and  C_60
   21  A    between atoms: C_42  and  O_47
   22  A    between atoms: C_45  and  C_57
                            x       y       z     vdW  Elec       q    Type
                         _______ _______ _______ _____ _____    ______ ____

>  <TORSDO>
F 22

$$$$
