=
 OpenBabel11042421023D

 28 32  0  0  1  0  0  0  0  0999 V2000
  161.8010  209.3000  150.2510 C   0  0  0  0  0  0  0  0  0  0  0  0
  161.5560  205.6610  146.7070 C   0  0  0  0  0  3  0  0  0  0  0  0
  161.0300  205.1790  152.8540 N   0  0  0  0  0  1  0  0  0  0  0  0
  161.5980  203.5190  148.1160 C   0  0  2  0  0  3  0  0  0  0  0  0
  161.4750  205.7600  149.1600 C   0  0  0  0  0  0  0  0  0  0  0  0
  160.9710  203.4880  145.7210 C   0  0  0  0  0  0  0  0  0  0  0  0
  161.5020  205.0300  148.0380 C   0  0  1  0  0  3  0  0  0  0  0  0
  160.9360  203.6500  150.4490 C   0  0  0  0  0  3  0  0  0  0  0  0
  161.0400  202.8440  146.8940 C   0  0  0  0  0  3  0  0  0  0  0  0
  161.4640  207.2750  151.5400 C   0  0  0  0  0  0  0  0  0  0  0  0
  161.6100  207.1520  149.1180 O   0  0  0  0  0  0  0  0  0  0  0  0
  161.0380  202.9600  149.3510 N   0  0  0  0  0  0  0  0  0  0  0  0
  161.6520  209.3620  152.6600 C   0  0  0  0  0  3  0  0  0  0  0  0
  161.2610  205.8100  151.5940 C   0  0  0  0  0  0  0  0  0  0  0  0
  161.4780  208.0130  152.6840 N   0  0  0  0  0  0  0  0  0  0  0  0
  160.5270  202.8280  144.6230 F   0  0  0  0  0  0  0  0  0  0  0  0
  161.3160  204.9250  145.6170 C   0  0  0  0  0  3  0  0  0  0  0  0
  161.2680  205.0860  150.4620 C   0  0  0  0  0  0  0  0  0  0  0  0
  161.8170  210.0280  151.4440 C   0  0  0  0  0  3  0  0  0  0  0  0
  161.6270  207.9090  150.2940 C   0  0  1  0  0  3  0  0  0  0  0  0
  161.9760  210.0210  148.9370 C   0  0  0  0  0  2  0  0  0  0  0  0
  162.1340  211.4800  149.0590 N   0  0  0  0  0  0  0  0  0  0  0  0
  161.4250  213.2050  147.5200 C   0  0  1  0  0  3  0  0  0  0  0  0
  160.9090  212.0850  149.5720 C   0  0  0  0  0  2  0  0  0  0  0  0
  163.8310  212.6380  147.7530 C   0  0  0  0  0  1  0  0  0  0  0  0
  162.4200  212.0850  147.7580 C   0  0  1  0  0  3  0  0  0  0  0  0
  160.4800  212.8000  146.4940 N   0  0  0  0  0  1  0  0  0  0  0  0
  160.7010  213.3840  148.8310 C   0  0  0  0  0  2  0  0  0  0  0  0
  1 20  1  0  0  0  0
  1 19  2  0  0  0  0
  4  9  1  6  0  0  0
  4 12  1  0  0  0  0
  5 18  2  0  0  0  0
  6  9  2  0  0  0  0
  7  2  1  6  0  0  0
  7  4  1  0  0  0  0
  7  5  1  0  0  0  0
  8 18  1  0  0  0  0
 10 14  2  0  0  0  0
 10 15  1  0  0  0  0
 11  5  1  0  0  0  0
 12  8  2  0  0  0  0
 13 15  2  0  0  0  0
 14  3  1  0  0  0  0
 16  6  1  0  0  0  0
 17  6  1  0  0  0  0
 17  2  2  0  0  0  0
 18 14  1  0  0  0  0
 19 13  1  0  0  0  0
 20 11  1  6  0  0  0
 20 10  1  0  0  0  0
 21 22  1  0  0  0  0
 21  1  1  0  0  0  0
 22 24  1  0  0  0  0
 23 27  1  6  0  0  0
 23 26  1  0  0  0  0
 23 28  1  0  0  0  0
 26 25  1  1  0  0  0
 26 22  1  0  0  0  0
 28 24  1  0  0  0  0
M  END
>  <MODEL>
1

>  <REMARK>
 VINA RESULT:      -9.1      0.000      0.000
  Name = 
  2 active torsions:
  status: ('A' for Active; 'I' for Inactive)
    1  A    between atoms: C_1  and  C_2
    2  A    between atoms: C_2  and  N_3
                            x       y       z     vdW  Elec       q    Type
                         _______ _______ _______ _____ _____    ______ ____

>  <TORSDO>
F 2

$$$$
=
 OpenBabel11042421023D

 28 32  0  0  1  0  0  0  0  0999 V2000
  161.9130  210.0990  149.6020 C   0  0  0  0  0  0  0  0  0  0  0  0
  161.7640  206.1470  146.4050 C   0  0  0  0  0  3  0  0  0  0  0  0
  160.9910  206.2450  152.5430 N   0  0  0  0  0  1  0  0  0  0  0  0
  161.7250  204.1460  148.0070 C   0  0  2  0  0  3  0  0  0  0  0  0
  161.5880  206.4750  148.8320 C   0  0  0  0  0  0  0  0  0  0  0  0
  161.1930  203.8970  145.6020 C   0  0  0  0  0  0  0  0  0  0  0  0
  161.6500  205.6440  147.7850 C   0  0  1  0  0  3  0  0  0  0  0  0
  160.9730  204.4990  150.2890 C   0  0  0  0  0  3  0  0  0  0  0  0
  161.2080  203.3650  146.8310 C   0  0  0  0  0  3  0  0  0  0  0  0
  161.5010  208.2060  151.0590 C   0  0  0  0  0  0  0  0  0  0  0  0
  161.7420  207.8560  148.6670 O   0  0  0  0  0  0  0  0  0  0  0  0
  161.1100  203.7090  149.2650 N   0  0  0  0  0  0  0  0  0  0  0  0
  161.6700  210.3870  151.9880 C   0  0  0  0  0  3  0  0  0  0  0  0
  161.2790  206.7540  151.2410 C   0  0  0  0  0  0  0  0  0  0  0  0
  161.4790  209.0470  152.1290 N   0  0  0  0  0  0  0  0  0  0  0  0
  160.7850  203.1420  144.5530 F   0  0  0  0  0  0  0  0  0  0  0  0
  161.5580  205.3150  145.3780 C   0  0  0  0  0  3  0  0  0  0  0  0
  161.3220  205.9280  150.1820 C   0  0  0  0  0  0  0  0  0  0  0  0
  161.8910  210.9350  150.7230 C   0  0  0  0  0  3  0  0  0  0  0  0
  161.7210  208.7200  149.7680 C   0  0  1  0  0  3  0  0  0  0  0  0
  162.1480  210.6930  148.2360 C   0  0  0  0  0  2  0  0  0  0  0  0
  161.5970  212.0470  148.0570 N   0  0  0  0  0  0  0  0  0  0  0  0
  161.8000  213.5150  146.1450 C   0  0  1  0  0  3  0  0  0  0  0  0
  160.3520  211.9950  147.2970 C   0  0  0  0  0  2  0  0  0  0  0  0
  163.0510  213.9920  148.2360 C   0  0  0  0  0  1  0  0  0  0  0  0
  162.5330  212.8990  147.3220 C   0  0  1  0  0  3  0  0  0  0  0  0
  162.2660  212.9010  144.9140 N   0  0  0  0  0  1  0  0  0  0  0  0
  160.3450  213.1760  146.3570 C   0  0  0  0  0  2  0  0  0  0  0  0
  1 20  1  0  0  0  0
  1 19  2  0  0  0  0
  4  9  1  6  0  0  0
  4 12  1  0  0  0  0
  5 18  2  0  0  0  0
  6  9  2  0  0  0  0
  7  2  1  1  0  0  0
  7  4  1  0  0  0  0
  7  5  1  0  0  0  0
 10 14  2  0  0  0  0
 10 15  1  0  0  0  0
 11  5  1  0  0  0  0
 12  8  2  0  0  0  0
 13 15  2  0  0  0  0
 14  3  1  0  0  0  0
 16  6  1  0  0  0  0
 17  6  1  0  0  0  0
 17  2  2  0  0  0  0
 18  8  1  0  0  0  0
 18 14  1  0  0  0  0
 19 13  1  0  0  0  0
 20 11  1  6  0  0  0
 20 10  1  0  0  0  0
 21  1  1  0  0  0  0
 22 21  1  0  0  0  0
 23 27  1  6  0  0  0
 23 28  1  0  0  0  0
 23 26  1  0  0  0  0
 24 22  1  0  0  0  0
 26 22  1  0  0  0  0
 26 25  1  1  0  0  0
 28 24  1  0  0  0  0
M  END
>  <MODEL>
2

>  <REMARK>
 VINA RESULT:      -9.1      1.054      1.210
  Name = 
  2 active torsions:
  status: ('A' for Active; 'I' for Inactive)
    1  A    between atoms: C_1  and  C_2
    2  A    between atoms: C_2  and  N_3
                            x       y       z     vdW  Elec       q    Type
                         _______ _______ _______ _____ _____    ______ ____

>  <TORSDO>
F 2

$$$$
=
 OpenBabel11042421023D

 28 32  0  0  1  0  0  0  0  0999 V2000
  161.5090  208.0020  152.7500 C   0  0  0  0  0  0  0  0  0  0  0  0
  160.8390  203.3620  150.7780 C   0  0  0  0  0  3  0  0  0  0  0  0
  162.3080  208.6520  147.9240 N   0  0  0  0  0  1  0  0  0  0  0  0
  160.8280  203.8330  148.2580 C   0  0  2  0  0  3  0  0  0  0  0  0
  161.3250  205.6070  149.9100 C   0  0  0  0  0  0  0  0  0  0  0  0
  161.0530  201.5350  149.1500 C   0  0  0  0  0  0  0  0  0  0  0  0
  161.0500  204.3190  149.6770 C   0  0  1  0  0  3  0  0  0  0  0  0
  161.8690  205.8750  147.4530 C   0  0  0  0  0  3  0  0  0  0  0  0
  161.1160  202.3660  148.1020 C   0  0  0  0  0  3  0  0  0  0  0  0
  161.8620  208.3380  150.3760 C   0  0  0  0  0  0  0  0  0  0  0  0
  161.3140  206.1240  151.2110 O   0  0  0  0  0  0  0  0  0  0  0  0
  161.5270  204.6360  147.2490 N   0  0  0  0  0  0  0  0  0  0  0  0
  162.0520  210.1810  151.8640 C   0  0  0  0  0  3  0  0  0  0  0  0
  161.9350  207.7930  149.0010 C   0  0  0  0  0  0  0  0  0  0  0  0
  162.1020  209.6580  150.6090 N   0  0  0  0  0  2  0  0  0  0  0  0
  161.2500  200.2070  148.9620 F   0  0  0  0  0  0  0  0  0  0  0  0
  160.8310  202.0500  150.5210 C   0  0  0  0  0  3  0  0  0  0  0  0
  161.6770  206.4940  148.7780 C   0  0  0  0  0  0  0  0  0  0  0  0
  161.7540  209.3630  152.9550 C   0  0  0  0  0  3  0  0  0  0  0  0
  161.5580  207.4810  151.4490 C   0  0  0  0  0  0  0  0  0  0  0  0
  161.1910  207.1170  153.9300 C   0  0  0  0  0  2  0  0  0  0  0  0
  160.3550  207.7540  154.9610 N   0  0  0  0  0  0  0  0  0  0  0  0
  161.0230  209.2970  156.7000 C   0  0  1  0  0  3  0  0  0  0  0  0
  159.9820  209.1050  154.5520 C   0  0  0  0  0  2  0  0  0  0  0  0
  160.4250  206.9530  157.2600 C   0  0  0  0  0  1  0  0  0  0  0  0
  161.0770  207.8560  156.2300 C   0  0  1  0  0  3  0  0  0  0  0  0
  162.3360  209.9010  156.5510 N   0  0  0  0  0  1  0  0  0  0  0  0
  160.0450  209.9830  155.7790 C   0  0  0  0  0  2  0  0  0  0  0  0
  1 19  1  0  0  0  0
  1 21  1  0  0  0  0
  3 14  1  0  0  0  0
  4  9  1  1  0  0  0
  4  7  1  0  0  0  0
  5 11  1  0  0  0  0
  6 17  1  0  0  0  0
  7  5  1  0  0  0  0
  7  2  1  1  0  0  0
  8 18  1  0  0  0  0
  9  6  2  0  0  0  0
 10 15  1  0  0  0  0
 10 20  1  0  0  0  0
 11 20  1  0  0  0  0
 12  8  2  0  0  0  0
 12  4  1  0  0  0  0
 13 19  2  0  0  0  0
 14 10  2  0  0  0  0
 15 13  1  0  0  0  0
 16  6  1  0  0  0  0
 17  2  2  0  0  0  0
 18 14  1  0  0  0  0
 18  5  2  0  0  0  0
 20  1  2  0  0  0  0
 21 22  1  0  0  0  0
 22 26  1  0  0  0  0
 23 27  1  6  0  0  0
 24 22  1  0  0  0  0
 24 28  1  0  0  0  0
 26 23  1  0  0  0  0
 26 25  1  1  0  0  0
 28 23  1  0  0  0  0
M  END
>  <MODEL>
3

>  <REMARK>
 VINA RESULT:      -8.7      2.790      5.438
  Name = 
  2 active torsions:
  status: ('A' for Active; 'I' for Inactive)
    1  A    between atoms: C_1  and  C_2
    2  A    between atoms: C_2  and  N_3
                            x       y       z     vdW  Elec       q    Type
                         _______ _______ _______ _____ _____    ______ ____

>  <TORSDO>
F 2

$$$$
=
 OpenBabel11042421023D

 28 32  0  0  1  0  0  0  0  0999 V2000
  160.9450  207.3620  151.7770 C   0  0  0  0  0  0  0  0  0  0  0  0
  160.9360  205.9500  146.8910 C   0  0  0  0  0  3  0  0  0  0  0  0
  161.3430  202.4460  151.9750 N   0  0  0  0  0  1  0  0  0  0  0  0
  161.5810  203.4740  147.0340 C   0  0  2  0  0  3  0  0  0  0  0  0
  161.1680  204.8280  149.0630 C   0  0  0  0  0  0  0  0  0  0  0  0
  160.6560  204.4590  144.9600 C   0  0  0  0  0  0  0  0  0  0  0  0
  161.1840  204.7630  147.7270 C   0  0  1  0  0  3  0  0  0  0  0  0
  161.2250  202.2990  149.1300 C   0  0  0  0  0  3  0  0  0  0  0  0
  161.0050  203.3650  145.6490 C   0  0  0  0  0  3  0  0  0  0  0  0
  161.1820  204.9510  151.8820 C   0  0  0  0  0  0  0  0  0  0  0  0
  161.0230  206.0540  149.7230 O   0  0  0  0  0  0  0  0  0  0  0  0
  161.3100  202.2720  147.8320 N   0  0  0  0  0  0  0  0  0  0  0  0
  161.1110  206.2120  153.8950 C   0  0  0  0  0  3  0  0  0  0  0  0
  161.2770  203.6420  151.1970 C   0  0  0  0  0  0  0  0  0  0  0  0
  161.2070  205.0230  153.2420 N   0  0  0  0  0  0  0  0  0  0  0  0
  160.2050  204.3300  143.6870 F   0  0  0  0  0  0  0  0  0  0  0  0
  160.6980  205.8010  145.5830 C   0  0  0  0  0  3  0  0  0  0  0  0
  161.2720  203.5820  149.8550 C   0  0  0  0  0  0  0  0  0  0  0  0
  160.9800  207.4010  153.1740 C   0  0  0  0  0  3  0  0  0  0  0  0
  161.0510  206.1270  151.1200 C   0  0  1  0  0  3  0  0  0  0  0  0
  160.7980  208.6460  150.9990 C   0  0  0  0  0  2  0  0  0  0  0  0
  162.0490  209.1410  150.4000 N   0  0  0  0  0  0  0  0  0  0  0  0
  162.3330  210.5540  148.4580 C   0  0  1  0  0  3  0  0  0  0  0  0
  162.3280  210.5010  150.8520 C   0  0  0  0  0  2  0  0  0  0  0  0
  162.9040  208.1410  148.3520 C   0  0  0  0  0  1  0  0  0  0  0  0
  161.9560  209.1660  148.9400 C   0  0  1  0  0  3  0  0  0  0  0  0
  161.1420  211.2390  147.9860 N   0  0  0  0  0  1  0  0  0  0  0  0
  162.8760  211.2660  149.6720 C   0  0  0  0  0  2  0  0  0  0  0  0
  1 19  2  0  0  0  0
  4  9  1  6  0  0  0
  4  7  1  0  0  0  0
  4 12  1  0  0  0  0
  5 11  1  0  0  0  0
  5 18  2  0  0  0  0
  6 17  1  0  0  0  0
  6  9  2  0  0  0  0
  7  2  1  6  0  0  0
  7  5  1  0  0  0  0
  8 18  1  0  0  0  0
 10 15  1  0  0  0  0
 12  8  2  0  0  0  0
 14 10  2  0  0  0  0
 14  3  1  0  0  0  0
 15 13  2  0  0  0  0
 16  6  1  0  0  0  0
 17  2  2  0  0  0  0
 18 14  1  0  0  0  0
 19 13  1  0  0  0  0
 20 11  1  1  0  0  0
 20  1  1  0  0  0  0
 20 10  1  0  0  0  0
 21  1  1  0  0  0  0
 22 24  1  0  0  0  0
 22 21  1  0  0  0  0
 23 27  1  1  0  0  0
 23 26  1  0  0  0  0
 23 28  1  0  0  0  0
 26 25  1  6  0  0  0
 26 22  1  0  0  0  0
 28 24  1  0  0  0  0
M  END
>  <MODEL>
4

>  <REMARK>
 VINA RESULT:      -8.3      1.595      2.387
  Name = 
  2 active torsions:
  status: ('A' for Active; 'I' for Inactive)
    1  A    between atoms: C_1  and  C_2
    2  A    between atoms: C_2  and  N_3
                            x       y       z     vdW  Elec       q    Type
                         _______ _______ _______ _____ _____    ______ ____

>  <TORSDO>
F 2

$$$$
=
 OpenBabel11042421023D

 28 32  0  0  1  0  0  0  0  0999 V2000
  160.8950  205.7680  149.1150 C   0  0  0  0  0  0  0  0  0  0  0  0
  160.5080  206.9050  154.0570 C   0  0  0  0  0  3  0  0  0  0  0  0
  162.3790  210.4690  149.3570 N   0  0  0  0  0  1  0  0  0  0  0  0
  161.6910  209.1750  154.1920 C   0  0  2  0  0  3  0  0  0  0  0  0
  161.2820  208.0500  152.0270 C   0  0  0  0  0  0  0  0  0  0  0  0
  160.2920  208.3250  156.0490 C   0  0  0  0  0  0  0  0  0  0  0  0
  161.1240  208.0450  153.3550 C   0  0  1  0  0  3  0  0  0  0  0  0
  161.8970  210.5010  152.1670 C   0  0  0  0  0  3  0  0  0  0  0  0
  160.9640  209.3440  155.4970 C   0  0  0  0  0  3  0  0  0  0  0  0
  161.6650  208.0640  149.2310 C   0  0  0  0  0  0  0  0  0  0  0  0
  160.9680  206.9220  151.2590 O   0  0  0  0  0  0  0  0  0  0  0  0
  161.8040  210.4440  153.4630 N   0  0  0  0  0  0  0  0  0  0  0  0
  161.6030  206.9510  147.1320 C   0  0  0  0  0  3  0  0  0  0  0  0
  161.9450  209.2830  150.0230 C   0  0  0  0  0  0  0  0  0  0  0  0
  161.8630  208.0550  147.8840 N   0  0  0  0  0  2  0  0  0  0  0  0
  159.7060  208.4910  157.2610 F   0  0  0  0  0  0  0  0  0  0  0  0
  160.1280  207.0400  155.3320 C   0  0  0  0  0  3  0  0  0  0  0  0
  161.7650  209.2770  151.3540 C   0  0  0  0  0  0  0  0  0  0  0  0
  161.1170  205.7900  147.7350 C   0  0  0  0  0  3  0  0  0  0  0  0
  161.1750  206.9130  149.8750 C   0  0  0  0  0  0  0  0  0  0  0  0
  160.3650  204.5140  149.7650 C   0  0  0  0  0  2  0  0  0  0  0  0
  161.2520  203.3440  149.6450 N   0  0  0  0  0  0  0  0  0  0  0  0
  160.6840  201.0000  149.8260 C   0  0  1  0  0  3  0  0  0  0  0  0
  161.1720  202.7800  148.3000 C   0  0  0  0  0  2  0  0  0  0  0  0
  161.9520  202.1310  151.6360 C   0  0  0  0  0  1  0  0  0  0  0  0
  160.8660  202.2970  150.5910 C   0  0  1  0  0  3  0  0  0  0  0  0
  159.2700  200.6770  149.7570 N   0  0  0  0  0  1  0  0  0  0  0  0
  161.2060  201.2770  148.4380 C   0  0  0  0  0  2  0  0  0  0  0  0
  1 21  1  0  0  0  0
  1 20  2  0  0  0  0
  2 17  2  0  0  0  0
  3 14  1  0  0  0  0
  4  9  1  1  0  0  0
  5  7  1  0  0  0  0
  6 16  1  0  0  0  0
  7  2  1  1  0  0  0
  7  4  1  0  0  0  0
  8 12  2  0  0  0  0
  9  6  2  0  0  0  0
 10 20  1  0  0  0  0
 10 14  2  0  0  0  0
 11  5  1  0  0  0  0
 12  4  1  0  0  0  0
 13 19  2  0  0  0  0
 13 15  1  0  0  0  0
 14 18  1  0  0  0  0
 15 10  1  0  0  0  0
 17  6  1  0  0  0  0
 18  5  2  0  0  0  0
 18  8  1  0  0  0  0
 19  1  1  0  0  0  0
 20 11  1  0  0  0  0
 22 21  1  0  0  0  0
 22 26  1  0  0  0  0
 23 27  1  6  0  0  0
 23 26  1  0  0  0  0
 24 28  1  0  0  0  0
 24 22  1  0  0  0  0
 26 25  1  1  0  0  0
 28 23  1  0  0  0  0
M  END
>  <MODEL>
5

>  <REMARK>
 VINA RESULT:      -8.3      3.543      8.281
  Name = 
  2 active torsions:
  status: ('A' for Active; 'I' for Inactive)
    1  A    between atoms: C_1  and  C_2
    2  A    between atoms: C_2  and  N_3
                            x       y       z     vdW  Elec       q    Type
                         _______ _______ _______ _____ _____    ______ ____

>  <TORSDO>
F 2

$$$$
=
 OpenBabel11042421023D

 28 32  0  0  1  0  0  0  0  0999 V2000
  160.4670  211.1190  152.3460 C   0  0  0  0  0  0  0  0  0  0  0  0
  161.0220  206.8630  149.6170 C   0  0  0  0  0  3  0  0  0  0  0  0
  160.8400  207.5760  155.7610 N   0  0  0  0  0  1  0  0  0  0  0  0
  161.6470  205.1400  151.4090 C   0  0  2  0  0  3  0  0  0  0  0  0
  161.0020  207.4550  152.0000 C   0  0  0  0  0  0  0  0  0  0  0  0
  160.9670  204.4570  149.1280 C   0  0  0  0  0  0  0  0  0  0  0  0
  161.1720  206.5330  151.0450 C   0  0  1  0  0  3  0  0  0  0  0  0
  161.0510  205.5970  153.7190 C   0  0  0  0  0  3  0  0  0  0  0  0
  161.2340  204.1100  150.3940 C   0  0  0  0  0  3  0  0  0  0  0  0
  160.6910  209.3900  154.0300 C   0  0  0  0  0  0  0  0  0  0  0  0
  160.7820  208.7980  151.6760 O   0  0  0  0  0  0  0  0  0  0  0  0
  161.2860  204.7360  152.7730 N   0  0  0  0  0  0  0  0  0  0  0  0
  160.3870  211.6490  154.7000 C   0  0  0  0  0  3  0  0  0  0  0  0
  160.8640  207.9640  154.3870 C   0  0  0  0  0  0  0  0  0  0  0  0
  160.5580  210.3340  155.0020 N   0  0  0  0  0  0  0  0  0  0  0  0
  160.6660  203.4940  148.2220 F   0  0  0  0  0  0  0  0  0  0  0  0
  160.9370  205.8790  148.7160 C   0  0  0  0  0  3  0  0  0  0  0  0
  161.0140  207.0410  153.4220 C   0  0  0  0  0  0  0  0  0  0  0  0
  160.3400  212.0640  153.3680 C   0  0  0  0  0  3  0  0  0  0  0  0
  160.6480  209.7680  152.6750 C   0  0  1  0  0  3  0  0  0  0  0  0
  160.4110  211.5670  150.9060 C   0  0  0  0  0  2  0  0  0  0  0  0
  159.9560  212.9550  150.7170 N   0  0  0  0  0  0  0  0  0  0  0  0
  158.7890  213.9130  148.8280 C   0  0  1  0  0  3  0  0  0  0  0  0
  158.5420  213.0790  151.0590 C   0  0  0  0  0  2  0  0  0  0  0  0
  161.1780  214.4520  149.2360 C   0  0  0  0  0  1  0  0  0  0  0  0
  160.1170  213.3720  149.3240 C   0  0  1  0  0  3  0  0  0  0  0  0
  158.2060  212.9700  147.8900 N   0  0  0  0  0  1  0  0  0  0  0  0
  157.9140  214.0130  150.0530 C   0  0  0  0  0  2  0  0  0  0  0  0
  1 20  1  0  0  0  0
  1 19  2  0  0  0  0
  4  9  1  6  0  0  0
  4 12  1  0  0  0  0
  5 18  2  0  0  0  0
  6  9  2  0  0  0  0
  7  2  1  6  0  0  0
  7  4  1  0  0  0  0
  7  5  1  0  0  0  0
 10 14  2  0  0  0  0
 10 15  1  0  0  0  0
 11  5  1  0  0  0  0
 12  8  2  0  0  0  0
 13 15  2  0  0  0  0
 14  3  1  0  0  0  0
 16  6  1  0  0  0  0
 17  6  1  0  0  0  0
 17  2  2  0  0  0  0
 18  8  1  0  0  0  0
 18 14  1  0  0  0  0
 19 13  1  0  0  0  0
 20 11  1  6  0  0  0
 20 10  1  0  0  0  0
 21  1  1  0  0  0  0
 22 21  1  0  0  0  0
 22 24  1  0  0  0  0
 23 27  1  6  0  0  0
 23 26  1  0  0  0  0
 23 28  1  0  0  0  0
 26 25  1  1  0  0  0
 26 22  1  0  0  0  0
 28 24  1  0  0  0  0
M  END
>  <MODEL>
6

>  <REMARK>
 VINA RESULT:      -8.3      2.378      3.350
  Name = 
  2 active torsions:
  status: ('A' for Active; 'I' for Inactive)
    1  A    between atoms: C_1  and  C_2
    2  A    between atoms: C_2  and  N_3
                            x       y       z     vdW  Elec       q    Type
                         _______ _______ _______ _____ _____    ______ ____

>  <TORSDO>
F 2

$$$$
=
 OpenBabel11042421023D

 28 32  0  0  1  0  0  0  0  0999 V2000
  161.1980  207.7400  151.9190 C   0  0  0  0  0  0  0  0  0  0  0  0
  161.2260  206.3300  147.0330 C   0  0  0  0  0  3  0  0  0  0  0  0
  161.1080  202.8100  152.1210 N   0  0  0  0  0  1  0  0  0  0  0  0
  161.6210  203.8020  147.1940 C   0  0  2  0  0  3  0  0  0  0  0  0
  161.2700  205.1940  149.2100 C   0  0  0  0  0  0  0  0  0  0  0  0
  160.8710  204.8700  145.0900 C   0  0  0  0  0  0  0  0  0  0  0  0
  161.3270  205.1250  147.8750 C   0  0  1  0  0  3  0  0  0  0  0  0
  161.0770  202.6710  149.2730 C   0  0  0  0  0  3  0  0  0  0  0  0
  161.0870  203.7480  145.7890 C   0  0  0  0  0  3  0  0  0  0  0  0
  161.1960  205.3190  152.0280 C   0  0  0  0  0  0  0  0  0  0  0  0
  161.2220  206.4280  149.8670 O   0  0  0  0  0  0  0  0  0  0  0  0
  161.2060  202.6350  147.9790 N   0  0  0  0  0  0  0  0  0  0  0  0
  161.1760  206.5840  154.0390 C   0  0  0  0  0  3  0  0  0  0  0  0
  161.1860  204.0060  151.3440 C   0  0  0  0  0  0  0  0  0  0  0  0
  161.1780  205.3900  153.3870 N   0  0  0  0  0  0  0  0  0  0  0  0
  160.4550  204.7840  143.8020 F   0  0  0  0  0  0  0  0  0  0  0  0
  161.0220  206.2030  145.7180 C   0  0  0  0  0  3  0  0  0  0  0  0
  161.2230  203.9440  150.0030 C   0  0  0  0  0  0  0  0  0  0  0  0
  161.1870  207.7780  153.3170 C   0  0  0  0  0  3  0  0  0  0  0  0
  161.2070  206.5000  151.2640 C   0  0  1  0  0  3  0  0  0  0  0  0
  161.2060  209.0320  151.1390 C   0  0  0  0  0  2  0  0  0  0  0  0
  161.5750  210.2180  151.9300 N   0  0  0  0  0  0  0  0  0  0  0  0
  160.4740  211.1300  153.8810 C   0  0  1  0  0  3  0  0  0  0  0  0
  162.3310  209.8260  153.1150 C   0  0  0  0  0  2  0  0  0  0  0  0
  160.3140  212.2870  151.6910 C   0  0  0  0  0  1  0  0  0  0  0  0
  160.3830  210.9380  152.3790 C   0  0  1  0  0  3  0  0  0  0  0  0
  159.5100  210.2620  154.5360 N   0  0  0  0  0  1  0  0  0  0  0  0
  161.8720  210.7030  154.2550 C   0  0  0  0  0  2  0  0  0  0  0  0
  1 19  2  0  0  0  0
  4  9  1  6  0  0  0
  4  7  1  0  0  0  0
  4 12  1  0  0  0  0
  5 11  1  0  0  0  0
  5 18  2  0  0  0  0
  6 17  1  0  0  0  0
  6  9  2  0  0  0  0
  7  2  1  1  0  0  0
  7  5  1  0  0  0  0
  8 18  1  0  0  0  0
 10 15  1  0  0  0  0
 12  8  2  0  0  0  0
 14 10  2  0  0  0  0
 14  3  1  0  0  0  0
 15 13  2  0  0  0  0
 16  6  1  0  0  0  0
 17  2  2  0  0  0  0
 18 14  1  0  0  0  0
 19 13  1  0  0  0  0
 20 11  1  6  0  0  0
 20  1  1  0  0  0  0
 20 10  1  0  0  0  0
 21  1  1  0  0  0  0
 21 22  1  0  0  0  0
 22 26  1  0  0  0  0
 22 24  1  0  0  0  0
 23 28  1  0  0  0  0
 23 27  1  1  0  0  0
 24 28  1  0  0  0  0
 26 25  1  6  0  0  0
 26 23  1  0  0  0  0
M  END
>  <MODEL>
7

>  <REMARK>
 VINA RESULT:      -8.0      2.404      3.355
  Name = 
  2 active torsions:
  status: ('A' for Active; 'I' for Inactive)
    1  A    between atoms: C_1  and  C_2
    2  A    between atoms: C_2  and  N_3
                            x       y       z     vdW  Elec       q    Type
                         _______ _______ _______ _____ _____    ______ ____

>  <TORSDO>
F 2

$$$$
=
 OpenBabel11042421023D

 28 32  0  0  1  0  0  0  0  0999 V2000
  161.4110  205.5660  151.7480 C   0  0  0  0  0  0  0  0  0  0  0  0
  161.8430  205.9380  146.6950 C   0  0  0  0  0  3  0  0  0  0  0  0
  160.2320  201.0540  150.1340 N   0  0  0  0  0  1  0  0  0  0  0  0
  161.6570  203.4940  145.9460 C   0  0  2  0  0  3  0  0  0  0  0  0
  161.3250  204.1600  148.3060 C   0  0  0  0  0  0  0  0  0  0  0  0
  161.4680  205.3640  144.3360 C   0  0  0  0  0  0  0  0  0  0  0  0
  161.5600  204.5350  147.0430 C   0  0  1  0  0  3  0  0  0  0  0  0
  160.5860  201.9010  147.4350 C   0  0  0  0  0  3  0  0  0  0  0  0
  161.3340  204.0560  144.5900 C   0  0  0  0  0  3  0  0  0  0  0  0
  160.8710  203.3360  150.9670 C   0  0  0  0  0  0  0  0  0  0  0  0
  161.4490  205.0670  149.3640 O   0  0  0  0  0  0  0  0  0  0  0  0
  160.8910  202.2740  146.2270 N   0  0  0  0  0  0  0  0  0  0  0  0
  160.8320  203.8050  153.2960 C   0  0  0  0  0  3  0  0  0  0  0  0
  160.6780  202.3800  149.8520 C   0  0  0  0  0  0  0  0  0  0  0  0
  160.6720  202.9440  152.2550 N   0  0  0  0  0  0  0  0  0  0  0  0
  161.2360  205.8280  143.0830 F   0  0  0  0  0  0  0  0  0  0  0  0
  161.8100  206.3210  145.4130 C   0  0  0  0  0  3  0  0  0  0  0  0
  160.8960  202.7710  148.5850 C   0  0  0  0  0  0  0  0  0  0  0  0
  161.2050  205.1290  153.0600 C   0  0  0  0  0  3  0  0  0  0  0  0
  161.2470  204.6630  150.6880 C   0  0  1  0  0  3  0  0  0  0  0  0
  161.8090  206.9990  151.4940 C   0  0  0  0  0  2  0  0  0  0  0  0
  160.9140  207.9970  152.1020 N   0  0  0  0  0  0  0  0  0  0  0  0
  161.4970  209.9270  153.4390 C   0  0  1  0  0  3  0  0  0  0  0  0
  160.8310  209.1880  151.2610 C   0  0  0  0  0  2  0  0  0  0  0  0
  160.4560  207.9340  154.4930 C   0  0  0  0  0  1  0  0  0  0  0  0
  161.4090  208.4120  153.4150 C   0  0  1  0  0  3  0  0  0  0  0  0
  162.8930  210.3280  153.4090 N   0  0  0  0  0  1  0  0  0  0  0  0
  160.8130  210.3880  152.1760 C   0  0  0  0  0  2  0  0  0  0  0  0
  1 19  2  0  0  0  0
  4  9  1  6  0  0  0
  4 12  1  0  0  0  0
  4  7  1  0  0  0  0
  5 18  2  0  0  0  0
  5 11  1  0  0  0  0
  6  9  2  0  0  0  0
  6 17  1  0  0  0  0
  7  2  1  1  0  0  0
  7  5  1  0  0  0  0
  8 18  1  0  0  0  0
 10 15  1  0  0  0  0
 12  8  2  0  0  0  0
 14  3  1  0  0  0  0
 14 10  2  0  0  0  0
 15 13  2  0  0  0  0
 16  6  1  0  0  0  0
 17  2  2  0  0  0  0
 18 14  1  0  0  0  0
 19 13  1  0  0  0  0
 20 11  1  6  0  0  0
 20 10  1  0  0  0  0
 20  1  1  0  0  0  0
 21  1  1  0  0  0  0
 21 22  1  0  0  0  0
 22 26  1  0  0  0  0
 23 27  1  6  0  0  0
 24 22  1  0  0  0  0
 24 28  1  0  0  0  0
 26 23  1  0  0  0  0
 26 25  1  1  0  0  0
 28 23  1  0  0  0  0
M  END
>  <MODEL>
8

>  <REMARK>
 VINA RESULT:      -7.9      2.945      4.400
  Name = 
  2 active torsions:
  status: ('A' for Active; 'I' for Inactive)
    1  A    between atoms: C_1  and  C_2
    2  A    between atoms: C_2  and  N_3
                            x       y       z     vdW  Elec       q    Type
                         _______ _______ _______ _____ _____    ______ ____

>  <TORSDO>
F 2

$$$$
=
 OpenBabel11042421023D

 28 32  0  0  1  0  0  0  0  0999 V2000
  161.9460  208.5410  151.3060 C   0  0  0  0  0  0  0  0  0  0  0  0
  161.1040  203.5260  151.3890 C   0  0  0  0  0  3  0  0  0  0  0  0
  161.6120  207.3280  146.5340 N   0  0  0  0  0  1  0  0  0  0  0  0
  160.5060  203.0290  148.9460 C   0  0  2  0  0  3  0  0  0  0  0  0
  161.2620  205.2720  149.6690 C   0  0  0  0  0  0  0  0  0  0  0  0
  161.0480  201.2190  150.5460 C   0  0  0  0  0  0  0  0  0  0  0  0
  161.0120  203.9990  149.9960 C   0  0  1  0  0  3  0  0  0  0  0  0
  161.2300  204.5910  147.2320 C   0  0  0  0  0  3  0  0  0  0  0  0
  160.8300  201.6000  149.2800 C   0  0  0  0  0  3  0  0  0  0  0  0
  161.7420  207.9610  148.9610 C   0  0  0  0  0  0  0  0  0  0  0  0
  161.5140  206.2330  150.6540 O   0  0  0  0  0  0  0  0  0  0  0  0
  160.9170  203.3770  147.5810 N   0  0  0  0  0  0  0  0  0  0  0  0
  162.1590  210.2170  149.5800 C   0  0  0  0  0  3  0  0  0  0  0  0
  161.5350  206.9430  147.9060 C   0  0  0  0  0  0  0  0  0  0  0  0
  161.9560  209.2640  148.6310 N   0  0  0  0  0  2  0  0  0  0  0  0
  161.2690  199.9100  150.8200 F   0  0  0  0  0  0  0  0  0  0  0  0
  161.1090  202.2130  151.6420 C   0  0  0  0  0  3  0  0  0  0  0  0
  161.3050  205.6630  148.2420 C   0  0  0  0  0  0  0  0  0  0  0  0
  162.1560  209.8710  150.9330 C   0  0  0  0  0  3  0  0  0  0  0  0
  161.7320  207.5730  150.3140 C   0  0  0  0  0  0  0  0  0  0  0  0
  161.9470  208.1680  152.7680 C   0  0  0  0  0  2  0  0  0  0  0  0
  160.7180  208.5330  153.4910 N   0  0  0  0  0  0  0  0  0  0  0  0
  160.4970  209.7760  155.5540 C   0  0  1  0  0  3  0  0  0  0  0  0
  160.3250  209.9020  153.1700 C   0  0  0  0  0  2  0  0  0  0  0  0
  160.0820  207.3280  155.5090 C   0  0  0  0  0  1  0  0  0  0  0  0
  160.9200  208.4550  154.9380 C   0  0  1  0  0  3  0  0  0  0  0  0
  161.6770  210.5000  155.9950 N   0  0  0  0  0  1  0  0  0  0  0  0
  159.8220  210.5390  154.4420 C   0  0  0  0  0  2  0  0  0  0  0  0
  1 21  1  0  0  0  0
  2 17  2  0  0  0  0
  3 14  1  0  0  0  0
  4  9  1  1  0  0  0
  4  7  1  0  0  0  0
  5  7  1  0  0  0  0
  5 11  1  0  0  0  0
  6 16  1  0  0  0  0
  6 17  1  0  0  0  0
  7  2  1  1  0  0  0
  8 12  2  0  0  0  0
  8 18  1  0  0  0  0
  9  6  2  0  0  0  0
 10 20  1  0  0  0  0
 12  4  1  0  0  0  0
 13 19  2  0  0  0  0
 14 18  1  0  0  0  0
 14 10  2  0  0  0  0
 15 10  1  0  0  0  0
 15 13  1  0  0  0  0
 18  5  2  0  0  0  0
 19  1  1  0  0  0  0
 20 11  1  0  0  0  0
 20  1  2  0  0  0  0
 21 22  1  0  0  0  0
 22 26  1  0  0  0  0
 23 27  1  6  0  0  0
 24 22  1  0  0  0  0
 24 28  1  0  0  0  0
 26 25  1  1  0  0  0
 26 23  1  0  0  0  0
 28 23  1  0  0  0  0
M  END
>  <MODEL>
9

>  <REMARK>
 VINA RESULT:      -7.8      2.480      5.116
  Name = 
  2 active torsions:
  status: ('A' for Active; 'I' for Inactive)
    1  A    between atoms: C_1  and  C_2
    2  A    between atoms: C_2  and  N_3
                            x       y       z     vdW  Elec       q    Type
                         _______ _______ _______ _____ _____    ______ ____

>  <TORSDO>
F 2

$$$$
