=
 OpenBabel11042421033D

 36 39  0  0  1  0  0  0  0  0999 V2000
  160.4480  208.6570  151.7840 N   0  0  0  0  0  2  0  0  0  0  0  0
  161.1740  207.4070  153.6120 C   0  0  0  0  0  0  0  0  0  0  0  0
  160.3690  209.4660  153.0140 C   0  0  1  0  0  3  0  0  0  0  0  0
  161.6970  206.2290  154.3690 C   0  0  0  0  0  1  0  0  0  0  0  0
  160.8450  208.5770  154.1210 C   0  0  0  0  0  0  0  0  0  0  0  0
  160.9390  207.4180  152.2220 N   0  0  0  0  0  0  0  0  0  0  0  0
  160.7690  204.1860  149.5590 N   0  0  0  0  0  0  0  0  0  0  0  0
  161.1390  205.4790  148.9690 C   0  0  0  0  0  2  0  0  0  0  0  0
  160.1840  204.1480  150.9020 C   0  0  0  0  0  2  0  0  0  0  0  0
  160.8100  206.6390  149.9050 C   0  0  0  0  0  2  0  0  0  0  0  0
  161.3790  206.3760  151.3030 C   0  0  2  0  0  3  0  0  0  0  0  0
  161.0230  204.9880  151.8650 C   0  0  0  0  0  2  0  0  0  0  0  0
  161.4640  201.8200  149.4170 C   0  0  0  0  0  3  0  0  0  0  0  0
  161.4610  199.4000  146.6450 O   0  0  0  0  0  1  0  0  0  0  0  0
  161.2810  200.5930  147.3350 C   0  0  0  0  0  0  0  0  0  0  0  0
  160.9410  202.9700  148.8070 C   0  0  0  0  0  0  0  0  0  0  0  0
  160.7540  201.7390  146.6990 C   0  0  0  0  0  0  0  0  0  0  0  0
  160.5910  202.9130  147.4490 C   0  0  0  0  0  3  0  0  0  0  0  0
  161.6320  200.6430  148.6860 C   0  0  0  0  0  3  0  0  0  0  0  0
  160.0730  200.6780  144.6710 O   0  0  0  0  0  0  0  0  0  0  0  0
  160.3140  202.9760  144.5480 N   0  0  0  0  0  1  0  0  0  0  0  0
  160.3650  201.7470  145.2690 C   0  0  0  0  0  0  0  0  0  0  0  0
  162.1310  209.8150  155.8690 C   0  0  0  0  0  2  0  0  0  0  0  0
  160.9000  208.9880  155.5640 C   0  0  1  0  0  3  0  0  0  0  0  0
  161.8080  210.6190  157.1030 C   0  0  2  0  0  3  0  0  0  0  0  0
  160.4140  211.1740  156.9150 C   0  0  0  0  0  2  0  0  0  0  0  0
  162.8000  211.7520  157.2600 C   0  0  0  0  0  1  0  0  0  0  0  0
  159.4130  209.9190  156.0600 S   0  0  0  0  0  0  0  0  0  0  0  0
  161.2770  210.6860  152.8970 C   0  0  0  0  0  2  0  0  0  0  0  0
  159.3230  213.7420  151.6820 N   0  0  0  0  0  2  0  0  0  0  0  0
  160.7030  212.2010  150.5180 N   0  0  0  0  0  2  0  0  0  0  0  0
  160.4890  211.9110  152.8520 N   0  0  0  0  0  2  0  0  0  0  0  0
  160.1620  212.5790  151.6310 C   0  0  0  0  0  0  0  0  0  0  0  0
  158.7520  214.3880  150.5690 N   0  0  0  0  0  2  0  0  0  0  0  0
  157.7580  213.8140  149.7600 C   0  0  0  0  0  0  0  0  0  0  0  0
  156.9070  213.3210  149.0620 C   0  0  0  0  0  3  0  0  0  0  0  0
  1  6  1  0  0  0  0
  1  3  1  0  0  0  0
  2  5  2  0  0  0  0
  2  4  1  0  0  0  0
  3 29  1  6  0  0  0
  3  5  1  0  0  0  0
  6  2  1  0  0  0  0
  7  9  1  0  0  0  0
  8  7  1  0  0  0  0
  8 10  1  0  0  0  0
  9 12  1  0  0  0  0
 11 10  1  6  0  0  0
 11 12  1  0  0  0  0
 11  6  1  0  0  0  0
 14 15  1  0  0  0  0
 15 19  1  0  0  0  0
 16 13  1  0  0  0  0
 16  7  1  0  0  0  0
 17 15  2  0  0  0  0
 17 18  1  0  0  0  0
 18 16  2  0  0  0  0
 19 13  2  0  0  0  0
 20 22  2  0  0  0  0
 21 22  1  0  0  0  0
 22 17  1  0  0  0  0
 23 25  1  0  0  0  0
 24  5  1  6  0  0  0
 24 23  1  0  0  0  0
 24 28  1  0  0  0  0
 25 27  1  6  0  0  0
 26 25  1  0  0  0  0
 28 26  1  0  0  0  0
 31 33  2  0  0  0  0
 32 29  1  0  0  0  0
 33 30  1  0  0  0  0
 33 32  1  0  0  0  0
 34 30  1  0  0  0  0
 35 34  1  0  0  0  0
 36 35  3  0  0  0  0
M  END
>  <MODEL>
1

>  <REMARK>
 VINA RESULT:      -6.9      0.000      0.000
  Name = 
  8 active torsions:
  status: ('A' for Active; 'I' for Inactive)
    1  A    between atoms: N_1  and  C_28
    2  A    between atoms: N_10  and  N_20
    3  A    between atoms: C_12  and  C_17
    4  A    between atoms: C_13  and  C_26
    5  A    between atoms: C_18  and  N_20
    6  A    between atoms: N_19  and  C_26
    7  A    between atoms: C_21  and  N_22
    8  A    between atoms: C_27  and  C_29
                            x       y       z     vdW  Elec       q    Type
                         _______ _______ _______ _____ _____    ______ ____

>  <TORSDO>
F 8

$$$$
=
 OpenBabel11042421033D

 36 39  0  0  1  0  0  0  0  0999 V2000
  160.7230  208.5110  151.2890 N   0  0  0  0  0  2  0  0  0  0  0  0
  160.9520  207.6600  153.4470 C   0  0  0  0  0  0  0  0  0  0  0  0
  161.0940  209.5900  152.2210 C   0  0  1  0  0  3  0  0  0  0  0  0
  160.9540  206.6500  154.5470 C   0  0  0  0  0  1  0  0  0  0  0  0
  161.2070  208.9470  153.5690 C   0  0  0  0  0  0  0  0  0  0  0  0
  160.6490  207.3680  152.1010 N   0  0  0  0  0  0  0  0  0  0  0  0
  161.3750  203.9950  149.7220 N   0  0  0  0  0  0  0  0  0  0  0  0
  161.7380  203.8650  151.1390 C   0  0  0  0  0  2  0  0  0  0  0  0
  161.1080  205.3240  149.1650 C   0  0  0  0  0  2  0  0  0  0  0  0
  161.7990  205.2250  151.8310 C   0  0  0  0  0  2  0  0  0  0  0  0
  160.5200  206.0230  151.5570 C   0  0  2  0  0  3  0  0  0  0  0  0
  160.1370  206.0870  150.0680 C   0  0  0  0  0  2  0  0  0  0  0  0
  161.6920  201.5710  149.3730 C   0  0  0  0  0  3  0  0  0  0  0  0
  161.1930  199.4050  146.4400 O   0  0  0  0  0  1  0  0  0  0  0  0
  161.2300  200.5530  147.2220 C   0  0  0  0  0  0  0  0  0  0  0  0
  161.3240  202.8300  148.8770 C   0  0  0  0  0  0  0  0  0  0  0  0
  160.8570  201.8120  146.7000 C   0  0  0  0  0  0  0  0  0  0  0  0
  160.9100  202.9340  147.5400 C   0  0  0  0  0  3  0  0  0  0  0  0
  161.6440  200.4430  148.5510 C   0  0  0  0  0  3  0  0  0  0  0  0
  159.9470  201.0250  144.6370 O   0  0  0  0  0  0  0  0  0  0  0  0
  160.4950  203.2720  144.6780 N   0  0  0  0  0  1  0  0  0  0  0  0
  160.4090  201.9910  145.2990 C   0  0  0  0  0  0  0  0  0  0  0  0
  161.0630  211.1290  154.7790 C   0  0  0  0  0  2  0  0  0  0  0  0
  161.5380  209.6920  154.8300 C   0  0  1  0  0  3  0  0  0  0  0  0
  160.9180  211.5800  156.2100 C   0  0  2  0  0  3  0  0  0  0  0  0
  160.2240  210.4620  156.9570 C   0  0  0  0  0  2  0  0  0  0  0  0
  160.0840  212.8420  156.2760 C   0  0  0  0  0  1  0  0  0  0  0  0
  160.8320  208.8780  156.3010 S   0  0  0  0  0  0  0  0  0  0  0  0
  162.4350  210.1930  151.8170 C   0  0  0  0  0  2  0  0  0  0  0  0
  162.1890  211.3380  148.1750 N   0  0  0  0  0  2  0  0  0  0  0  0
  161.1500  212.1550  150.1470 N   0  0  0  0  0  2  0  0  0  0  0  0
  162.5510  210.2660  150.3660 N   0  0  0  0  0  2  0  0  0  0  0  0
  161.9610  211.3130  149.5910 C   0  0  0  0  0  0  0  0  0  0  0  0
  161.8500  212.3960  147.3110 N   0  0  0  0  0  2  0  0  0  0  0  0
  160.6090  212.5080  146.6640 C   0  0  0  0  0  0  0  0  0  0  0  0
  159.5430  212.6010  146.1080 C   0  0  0  0  0  3  0  0  0  0  0  0
  1  6  1  0  0  0  0
  1  3  1  0  0  0  0
  2  5  2  0  0  0  0
  2  4  1  0  0  0  0
  3 29  1  6  0  0  0
  3  5  1  0  0  0  0
  6  2  1  0  0  0  0
  7  8  1  0  0  0  0
  8 10  1  0  0  0  0
  9  7  1  0  0  0  0
  9 12  1  0  0  0  0
 11 12  1  6  0  0  0
 11 10  1  0  0  0  0
 11  6  1  0  0  0  0
 14 15  1  0  0  0  0
 15 19  1  0  0  0  0
 16 13  1  0  0  0  0
 16  7  1  0  0  0  0
 17 15  2  0  0  0  0
 17 18  1  0  0  0  0
 18 16  2  0  0  0  0
 19 13  2  0  0  0  0
 20 22  2  0  0  0  0
 21 22  1  0  0  0  0
 22 17  1  0  0  0  0
 23 24  1  0  0  0  0
 23 25  1  0  0  0  0
 24  5  1  6  0  0  0
 24 28  1  0  0  0  0
 25 27  1  6  0  0  0
 25 26  1  0  0  0  0
 28 26  1  0  0  0  0
 30 33  1  0  0  0  0
 32 29  1  0  0  0  0
 33 31  2  0  0  0  0
 33 32  1  0  0  0  0
 34 30  1  0  0  0  0
 35 34  1  0  0  0  0
 36 35  3  0  0  0  0
M  END
>  <MODEL>
2

>  <REMARK>
 VINA RESULT:      -6.7      1.644      2.126
  Name = 
  8 active torsions:
  status: ('A' for Active; 'I' for Inactive)
    1  A    between atoms: N_1  and  C_28
    2  A    between atoms: N_10  and  N_20
    3  A    between atoms: C_12  and  C_17
    4  A    between atoms: C_13  and  C_26
    5  A    between atoms: C_18  and  N_20
    6  A    between atoms: N_19  and  C_26
    7  A    between atoms: C_21  and  N_22
    8  A    between atoms: C_27  and  C_29
                            x       y       z     vdW  Elec       q    Type
                         _______ _______ _______ _____ _____    ______ ____

>  <TORSDO>
F 8

$$$$
=
 OpenBabel11042421033D

 36 39  0  0  1  0  0  0  0  0999 V2000
  162.2030  209.2790  154.2120 N   0  0  0  0  0  2  0  0  0  0  0  0
  160.1640  210.3050  153.7380 C   0  0  0  0  0  0  0  0  0  0  0  0
  162.0550  210.5060  155.0150 C   0  0  1  0  0  3  0  0  0  0  0  0
  158.8350  210.5170  153.0890 C   0  0  0  0  0  1  0  0  0  0  0  0
  160.7290  211.0890  154.6340 C   0  0  0  0  0  0  0  0  0  0  0  0
  161.0220  209.2210  153.4560 N   0  0  0  0  0  0  0  0  0  0  0  0
  161.3760  205.8120  151.0450 N   0  0  0  0  0  0  0  0  0  0  0  0
  160.9560  205.5710  152.4320 C   0  0  0  0  0  2  0  0  0  0  0  0
  161.9440  207.1130  150.6800 C   0  0  0  0  0  2  0  0  0  0  0  0
  161.2180  206.7860  153.3180 C   0  0  0  0  0  2  0  0  0  0  0  0
  160.6430  208.0520  152.6750 C   0  0  2  0  0  3  0  0  0  0  0  0
  161.0540  208.2410  151.2040 C   0  0  0  0  0  2  0  0  0  0  0  0
  160.8590  203.4760  150.4330 C   0  0  0  0  0  3  0  0  0  0  0  0
  160.9520  201.6780  147.2240 O   0  0  0  0  0  1  0  0  0  0  0  0
  161.0690  202.7150  148.1410 C   0  0  0  0  0  0  0  0  0  0  0  0
  161.2710  204.7640  150.0620 C   0  0  0  0  0  0  0  0  0  0  0  0
  161.4870  204.0050  147.7450 C   0  0  0  0  0  0  0  0  0  0  0  0
  161.5810  205.0130  148.7160 C   0  0  0  0  0  3  0  0  0  0  0  0
  160.7590  202.4610  149.4800 C   0  0  0  0  0  3  0  0  0  0  0  0
  161.0340  204.0700  145.4020 O   0  0  0  0  0  0  0  0  0  0  0  0
  163.0730  204.9600  146.0360 N   0  0  0  0  0  1  0  0  0  0  0  0
  161.8290  204.3340  146.3420 C   0  0  0  0  0  0  0  0  0  0  0  0
  159.3090  213.0960  154.1890 C   0  0  0  0  0  2  0  0  0  0  0  0
  160.1840  212.3720  155.1910 C   0  0  1  0  0  3  0  0  0  0  0  0
  158.3990  213.9930  154.9900 C   0  0  2  0  0  3  0  0  0  0  0  0
  157.8890  213.1760  156.1570 C   0  0  0  0  0  2  0  0  0  0  0  0
  157.2380  214.4530  154.1340 C   0  0  0  0  0  1  0  0  0  0  0  0
  159.2370  212.0960  156.7250 S   0  0  0  0  0  0  0  0  0  0  0  0
  162.0660  210.1640  156.5010 C   0  0  0  0  0  2  0  0  0  0  0  0
  165.2470  212.1480  157.2600 N   0  0  0  0  0  2  0  0  0  0  0  0
  164.4960  211.0940  155.2700 N   0  0  0  0  0  2  0  0  0  0  0  0
  163.1340  210.8800  157.1870 N   0  0  0  0  0  2  0  0  0  0  0  0
  164.2830  211.3960  156.5100 C   0  0  0  0  0  0  0  0  0  0  0  0
  166.3150  212.8830  156.7120 N   0  0  0  0  0  2  0  0  0  0  0  0
  167.6600  212.4890  156.8000 C   0  0  0  0  0  0  0  0  0  0  0  0
  168.8150  212.1510  156.8730 C   0  0  0  0  0  3  0  0  0  0  0  0
  1  3  1  0  0  0  0
  2  5  2  0  0  0  0
  3 29  1  1  0  0  0
  4  2  1  0  0  0  0
  5  3  1  0  0  0  0
  6  2  1  0  0  0  0
  6  1  1  0  0  0  0
  7  8  1  0  0  0  0
  8 10  1  0  0  0  0
  9  7  1  0  0  0  0
  9 12  1  0  0  0  0
 11 12  1  6  0  0  0
 11 10  1  0  0  0  0
 11  6  1  0  0  0  0
 14 15  1  0  0  0  0
 15 19  1  0  0  0  0
 16 13  1  0  0  0  0
 16  7  1  0  0  0  0
 17 15  2  0  0  0  0
 17 18  1  0  0  0  0
 18 16  2  0  0  0  0
 19 13  2  0  0  0  0
 20 22  2  0  0  0  0
 21 22  1  0  0  0  0
 22 17  1  0  0  0  0
 23 25  1  0  0  0  0
 23 24  1  0  0  0  0
 24  5  1  6  0  0  0
 24 28  1  0  0  0  0
 25 27  1  6  0  0  0
 25 26  1  0  0  0  0
 26 28  1  0  0  0  0
 29 32  1  0  0  0  0
 31 33  2  0  0  0  0
 33 32  1  0  0  0  0
 33 30  1  0  0  0  0
 34 35  1  0  0  0  0
 34 30  1  0  0  0  0
 35 36  3  0  0  0  0
M  END
>  <MODEL>
3

>  <REMARK>
 VINA RESULT:      -6.5      3.097      5.177
  Name = 
  8 active torsions:
  status: ('A' for Active; 'I' for Inactive)
    1  A    between atoms: N_1  and  C_28
    2  A    between atoms: N_10  and  N_20
    3  A    between atoms: C_12  and  C_17
    4  A    between atoms: C_13  and  C_26
    5  A    between atoms: C_18  and  N_20
    6  A    between atoms: N_19  and  C_26
    7  A    between atoms: C_21  and  N_22
    8  A    between atoms: C_27  and  C_29
                            x       y       z     vdW  Elec       q    Type
                         _______ _______ _______ _____ _____    ______ ____

>  <TORSDO>
F 8

$$$$
=
 OpenBabel11042421033D

 36 39  0  0  1  0  0  0  0  0999 V2000
  162.0810  206.5200  149.3050 N   0  0  0  0  0  2  0  0  0  0  0  0
  161.2250  204.9210  150.7690 C   0  0  0  0  0  0  0  0  0  0  0  0
  161.5740  205.3610  148.5490 C   0  0  1  0  0  3  0  0  0  0  0  0
  160.8490  204.2920  152.0710 C   0  0  0  0  0  1  0  0  0  0  0  0
  161.0580  204.3970  149.5720 C   0  0  0  0  0  0  0  0  0  0  0  0
  161.8420  206.1830  150.6460 N   0  0  0  0  0  0  0  0  0  0  0  0
  160.8390  209.0140  153.5680 N   0  0  0  0  0  0  0  0  0  0  0  0
  161.2590  207.7010  154.0720 C   0  0  0  0  0  2  0  0  0  0  0  0
  160.4860  209.1650  152.1540 C   0  0  0  0  0  2  0  0  0  0  0  0
  161.2350  206.6420  152.9720 C   0  0  0  0  0  2  0  0  0  0  0  0
  161.9930  207.1380  151.7360 C   0  0  2  0  0  3  0  0  0  0  0  0
  161.5700  208.5430  151.2720 C   0  0  0  0  0  2  0  0  0  0  0  0
  161.6100  210.2650  155.5540 C   0  0  0  0  0  3  0  0  0  0  0  0
  160.4580  213.3940  157.1120 O   0  0  0  0  0  1  0  0  0  0  0  0
  160.5250  212.3270  156.2240 C   0  0  0  0  0  0  0  0  0  0  0  0
  160.7340  210.1360  154.4660 C   0  0  0  0  0  0  0  0  0  0  0  0
  159.6310  212.2160  155.1360 C   0  0  0  0  0  0  0  0  0  0  0  0
  159.7510  211.1190  154.2710 C   0  0  0  0  0  3  0  0  0  0  0  0
  161.5050  211.3510  156.4240 C   0  0  0  0  0  3  0  0  0  0  0  0
  158.7940  214.2210  154.1430 O   0  0  0  0  0  0  0  0  0  0  0  0
  157.2760  213.0590  155.4460 N   0  0  0  0  0  1  0  0  0  0  0  0
  158.5720  213.2190  154.8720 C   0  0  0  0  0  0  0  0  0  0  0  0
  160.9440  202.5500  147.8940 C   0  0  0  0  0  2  0  0  0  0  0  0
  160.4750  203.0530  149.2430 C   0  0  1  0  0  3  0  0  0  0  0  0
  160.7930  201.0490  147.9250 C   0  0  2  0  0  3  0  0  0  0  0  0
  161.3260  200.5800  149.2600 C   0  0  0  0  0  2  0  0  0  0  0  0
  161.5900  200.4240  146.8000 C   0  0  0  0  0  1  0  0  0  0  0  0
  160.8720  201.8120  150.5180 S   0  0  0  0  0  0  0  0  0  0  0  0
  160.4410  205.7940  147.6240 C   0  0  0  0  0  2  0  0  0  0  0  0
  161.5090  206.2030  143.9730 N   0  0  0  0  0  0  0  0  0  0  0  0
  160.7730  204.3000  145.1860 N   0  0  0  0  0  2  0  0  0  0  0  0
  160.9710  206.3300  146.3760 N   0  0  0  0  0  2  0  0  0  0  0  0
  161.0350  205.5670  145.1680 C   0  0  0  0  0  0  0  0  0  0  0  0
  161.4450  205.6580  142.6770 N   0  0  0  0  0  0  0  0  0  0  0  0
  161.8450  206.3480  141.5210 C   0  0  0  0  0  0  0  0  0  0  0  0
  162.1880  206.9380  140.5270 C   0  0  0  0  0  3  0  0  0  0  0  0
  1  6  1  0  0  0  0
  2  4  1  0  0  0  0
  3 29  1  6  0  0  0
  3  1  1  0  0  0  0
  3  5  1  0  0  0  0
  5  2  2  0  0  0  0
  6  2  1  0  0  0  0
  7  8  1  0  0  0  0
  7 16  1  0  0  0  0
  9  7  1  0  0  0  0
 10  8  1  0  0  0  0
 11  6  1  6  0  0  0
 11 10  1  0  0  0  0
 12 11  1  0  0  0  0
 12  9  1  0  0  0  0
 13 19  1  0  0  0  0
 15 19  2  0  0  0  0
 15 14  1  0  0  0  0
 16 13  2  0  0  0  0
 17 15  1  0  0  0  0
 18 16  1  0  0  0  0
 18 17  2  0  0  0  0
 20 22  2  0  0  0  0
 22 17  1  0  0  0  0
 22 21  1  0  0  0  0
 23 25  1  0  0  0  0
 23 24  1  0  0  0  0
 24  5  1  1  0  0  0
 24 28  1  0  0  0  0
 25 27  1  6  0  0  0
 25 26  1  0  0  0  0
 26 28  1  0  0  0  0
 30 33  1  0  0  0  0
 32 29  1  0  0  0  0
 33 31  2  0  0  0  0
 33 32  1  0  0  0  0
 34 30  2  0  0  0  0
 35 34  1  0  0  0  0
 36 35  3  0  0  0  0
M  END
>  <MODEL>
4

>  <REMARK>
 VINA RESULT:      -6.5      5.003     10.402
  Name = 
  8 active torsions:
  status: ('A' for Active; 'I' for Inactive)
    1  A    between atoms: N_1  and  C_28
    2  A    between atoms: N_10  and  N_20
    3  A    between atoms: C_12  and  C_17
    4  A    between atoms: C_13  and  C_26
    5  A    between atoms: C_18  and  N_20
    6  A    between atoms: N_19  and  C_26
    7  A    between atoms: C_21  and  N_22
    8  A    between atoms: C_27  and  C_29
                            x       y       z     vdW  Elec       q    Type
                         _______ _______ _______ _____ _____    ______ ____

>  <TORSDO>
F 8

$$$$
=
 OpenBabel11042421033D

 36 39  0  0  1  0  0  0  0  0999 V2000
  162.3540  210.7130  154.5210 N   0  0  0  0  0  2  0  0  0  0  0  0
  160.4610  211.3420  153.3150 C   0  0  0  0  0  0  0  0  0  0  0  0
  161.4610  211.5250  155.3670 C   0  0  1  0  0  3  0  0  0  0  0  0
  159.5290  211.4510  152.1520 C   0  0  0  0  0  1  0  0  0  0  0  0
  160.2900  211.8810  154.5040 C   0  0  0  0  0  0  0  0  0  0  0  0
  161.6880  210.6470  153.2870 N   0  0  0  0  0  0  0  0  0  0  0  0
  161.4600  208.0680  149.9920 N   0  0  0  0  0  0  0  0  0  0  0  0
  162.0440  209.3890  149.7270 C   0  0  0  0  0  2  0  0  0  0  0  0
  160.7190  207.8430  151.2360 C   0  0  0  0  0  2  0  0  0  0  0  0
  161.7440  210.3730  150.8560 C   0  0  0  0  0  2  0  0  0  0  0  0
  162.1090  209.7590  152.2120 C   0  0  2  0  0  3  0  0  0  0  0  0
  161.5300  208.3500  152.4300 C   0  0  0  0  0  2  0  0  0  0  0  0
  162.0570  207.2850  147.7270 C   0  0  0  0  0  3  0  0  0  0  0  0
  161.9320  203.9670  146.1390 O   0  0  0  0  0  1  0  0  0  0  0  0
  161.8010  204.9550  147.1080 C   0  0  0  0  0  0  0  0  0  0  0  0
  161.5770  207.0140  149.0160 C   0  0  0  0  0  0  0  0  0  0  0  0
  161.3140  204.6600  148.4010 C   0  0  0  0  0  0  0  0  0  0  0  0
  161.2100  205.6980  149.3380 C   0  0  0  0  0  3  0  0  0  0  0  0
  162.1680  206.2630  146.7820 C   0  0  0  0  0  3  0  0  0  0  0  0
  160.9480  202.3360  147.9870 O   0  0  0  0  0  0  0  0  0  0  0  0
  160.4720  203.0410  150.1380 N   0  0  0  0  0  1  0  0  0  0  0  0
  160.9110  203.2930  148.8050 C   0  0  0  0  0  0  0  0  0  0  0  0
  157.9660  211.9020  155.4230 C   0  0  0  0  0  2  0  0  0  0  0  0
  159.1420  212.7360  154.9580 C   0  0  1  0  0  3  0  0  0  0  0  0
  157.1620  212.7810  156.3480 C   0  0  2  0  0  3  0  0  0  0  0  0
  158.1460  213.4790  157.2600 C   0  0  0  0  0  2  0  0  0  0  0  0
  156.2070  211.9380  157.1660 C   0  0  0  0  0  1  0  0  0  0  0  0
  159.6330  213.8780  156.2910 S   0  0  0  0  0  0  0  0  0  0  0  0
  160.9940  210.7090  156.5680 C   0  0  0  0  0  2  0  0  0  0  0  0
  160.9940  206.9940  155.6560 N   0  0  0  0  0  2  0  0  0  0  0  0
  159.2810  208.6340  155.5460 N   0  0  0  0  0  2  0  0  0  0  0  0
  161.3700  209.3090  156.4180 N   0  0  0  0  0  2  0  0  0  0  0  0
  160.5090  208.3330  155.8240 C   0  0  0  0  0  0  0  0  0  0  0  0
  160.3560  205.9790  154.9190 N   0  0  0  0  0  2  0  0  0  0  0  0
  160.9400  205.3280  153.8200 C   0  0  0  0  0  0  0  0  0  0  0  0
  161.4420  204.7670  152.8790 C   0  0  0  0  0  3  0  0  0  0  0  0
  1  3  1  0  0  0  0
  2  5  2  0  0  0  0
  3 29  1  1  0  0  0
  4  2  1  0  0  0  0
  5  3  1  0  0  0  0
  6  2  1  0  0  0  0
  6  1  1  0  0  0  0
  7  9  1  0  0  0  0
  8  7  1  0  0  0  0
  8 10  1  0  0  0  0
  9 12  1  0  0  0  0
 11 10  1  6  0  0  0
 11 12  1  0  0  0  0
 11  6  1  0  0  0  0
 13 16  1  0  0  0  0
 14 15  1  0  0  0  0
 15 17  2  0  0  0  0
 16 18  2  0  0  0  0
 16  7  1  0  0  0  0
 17 22  1  0  0  0  0
 17 18  1  0  0  0  0
 19 15  1  0  0  0  0
 19 13  2  0  0  0  0
 20 22  2  0  0  0  0
 22 21  1  0  0  0  0
 23 25  1  0  0  0  0
 24  5  1  1  0  0  0
 24 23  1  0  0  0  0
 24 28  1  0  0  0  0
 25 27  1  1  0  0  0
 25 26  1  0  0  0  0
 28 26  1  0  0  0  0
 30 33  1  0  0  0  0
 31 33  2  0  0  0  0
 32 29  1  0  0  0  0
 33 32  1  0  0  0  0
 34 30  1  0  0  0  0
 35 34  1  0  0  0  0
 36 35  3  0  0  0  0
M  END
>  <MODEL>
5

>  <REMARK>
 VINA RESULT:      -6.4      2.682      5.294
  Name = 
  8 active torsions:
  status: ('A' for Active; 'I' for Inactive)
    1  A    between atoms: N_1  and  C_28
    2  A    between atoms: N_10  and  N_20
    3  A    between atoms: C_12  and  C_17
    4  A    between atoms: C_13  and  C_26
    5  A    between atoms: C_18  and  N_20
    6  A    between atoms: N_19  and  C_26
    7  A    between atoms: C_21  and  N_22
    8  A    between atoms: C_27  and  C_29
                            x       y       z     vdW  Elec       q    Type
                         _______ _______ _______ _____ _____    ______ ____

>  <TORSDO>
F 8

$$$$
=
 OpenBabel11042421033D

 36 39  0  0  1  0  0  0  0  0999 V2000
  160.8660  211.8390  151.1620 N   0  0  0  0  0  2  0  0  0  0  0  0
  159.2200  213.3180  151.8930 C   0  0  0  0  0  0  0  0  0  0  0  0
  160.4930  211.5320  152.5540 C   0  0  1  0  0  3  0  0  0  0  0  0
  158.2500  214.4530  151.8370 C   0  0  0  0  0  1  0  0  0  0  0  0
  159.4460  212.5350  152.9280 C   0  0  0  0  0  0  0  0  0  0  0  0
  160.0590  212.9360  150.8250 N   0  0  0  0  0  0  0  0  0  0  0  0
  159.6350  212.9540  146.6560 N   0  0  0  0  0  0  0  0  0  0  0  0
  158.4850  213.4620  147.4150 C   0  0  0  0  0  2  0  0  0  0  0  0
  160.6800  212.1960  147.3510 C   0  0  0  0  0  2  0  0  0  0  0  0
  158.5680  213.0730  148.8890 C   0  0  0  0  0  2  0  0  0  0  0  0
  159.9400  213.4390  149.4630 C   0  0  2  0  0  3  0  0  0  0  0  0
  161.1210  212.9430  148.6100 C   0  0  0  0  0  2  0  0  0  0  0  0
  158.5840  213.5640  144.5060 C   0  0  0  0  0  3  0  0  0  0  0  0
  159.9020  213.7750  141.0760 O   0  0  0  0  0  1  0  0  0  0  0  0
  159.8680  213.5620  142.4490 C   0  0  0  0  0  0  0  0  0  0  0  0
  159.7140  213.1610  145.2330 C   0  0  0  0  0  0  0  0  0  0  0  0
  161.0180  213.1550  143.1610 C   0  0  0  0  0  0  0  0  0  0  0  0
  160.9220  212.9610  144.5470 C   0  0  0  0  0  3  0  0  0  0  0  0
  158.6620  213.7620  143.1260 C   0  0  0  0  0  3  0  0  0  0  0  0
  162.5710  211.8420  141.9080 O   0  0  0  0  0  0  0  0  0  0  0  0
  163.3240  213.9420  142.5200 N   0  0  0  0  0  1  0  0  0  0  0  0
  162.3230  212.9270  142.4980 C   0  0  0  0  0  0  0  0  0  0  0  0
  157.4100  212.0140  154.2810 C   0  0  0  0  0  2  0  0  0  0  0  0
  158.8010  212.6120  154.2820 C   0  0  1  0  0  3  0  0  0  0  0  0
  157.1120  211.6260  155.7070 C   0  0  2  0  0  3  0  0  0  0  0  0
  158.3500  210.9430  156.2460 C   0  0  0  0  0  2  0  0  0  0  0  0
  155.9350  210.6760  155.7520 C   0  0  0  0  0  1  0  0  0  0  0  0
  159.8080  211.7850  155.5590 S   0  0  0  0  0  0  0  0  0  0  0  0
  159.9200  210.1220  152.6440 C   0  0  0  0  0  2  0  0  0  0  0  0
  161.9820  207.0470  151.6810 N   0  0  0  0  0  2  0  0  0  0  0  0
  161.0230  207.7040  153.7510 N   0  0  0  0  0  2  0  0  0  0  0  0
  160.7620  209.1760  151.9220 N   0  0  0  0  0  2  0  0  0  0  0  0
  161.2140  207.9460  152.4930 C   0  0  0  0  0  0  0  0  0  0  0  0
  162.3270  205.7260  152.0240 N   0  0  0  0  0  2  0  0  0  0  0  0
  161.5070  204.6150  151.7700 C   0  0  0  0  0  0  0  0  0  0  0  0
  160.8050  203.6590  151.5510 C   0  0  0  0  0  3  0  0  0  0  0  0
  1  3  1  0  0  0  0
  2  5  2  0  0  0  0
  3 29  1  6  0  0  0
  3  5  1  0  0  0  0
  4  2  1  0  0  0  0
  6  1  1  0  0  0  0
  6  2  1  0  0  0  0
  7  9  1  0  0  0  0
  7  8  1  0  0  0  0
  8 10  1  0  0  0  0
  9 12  1  0  0  0  0
 10 11  1  0  0  0  0
 11 12  1  6  0  0  0
 11  6  1  0  0  0  0
 13 16  1  0  0  0  0
 14 15  1  0  0  0  0
 15 19  1  0  0  0  0
 15 17  2  0  0  0  0
 16  7  1  0  0  0  0
 17 18  1  0  0  0  0
 18 16  2  0  0  0  0
 19 13  2  0  0  0  0
 20 22  2  0  0  0  0
 22 21  1  0  0  0  0
 22 17  1  0  0  0  0
 23 24  1  0  0  0  0
 23 25  1  0  0  0  0
 24  5  1  6  0  0  0
 24 28  1  0  0  0  0
 25 27  1  6  0  0  0
 25 26  1  0  0  0  0
 28 26  1  0  0  0  0
 30 34  1  0  0  0  0
 30 33  1  0  0  0  0
 32 33  1  0  0  0  0
 32 29  1  0  0  0  0
 33 31  2  0  0  0  0
 35 34  1  0  0  0  0
 36 35  3  0  0  0  0
M  END
>  <MODEL>
6

>  <REMARK>
 VINA RESULT:      -6.3      4.837      8.758
  Name = 
  8 active torsions:
  status: ('A' for Active; 'I' for Inactive)
    1  A    between atoms: N_1  and  C_28
    2  A    between atoms: N_10  and  N_20
    3  A    between atoms: C_12  and  C_17
    4  A    between atoms: C_13  and  C_26
    5  A    between atoms: C_18  and  N_20
    6  A    between atoms: N_19  and  C_26
    7  A    between atoms: C_21  and  N_22
    8  A    between atoms: C_27  and  C_29
                            x       y       z     vdW  Elec       q    Type
                         _______ _______ _______ _____ _____    ______ ____

>  <TORSDO>
F 8

$$$$
=
 OpenBabel11042421033D

 36 39  0  0  1  0  0  0  0  0999 V2000
  161.5190  210.5270  151.6130 N   0  0  0  0  0  2  0  0  0  0  0  0
  161.9330  210.9280  149.3550 C   0  0  0  0  0  0  0  0  0  0  0  0
  161.1930  211.9250  151.2800 C   0  0  1  0  0  3  0  0  0  0  0  0
  162.3510  210.6450  147.9490 C   0  0  0  0  0  1  0  0  0  0  0  0
  161.4990  212.0810  149.8220 C   0  0  0  0  0  0  0  0  0  0  0  0
  161.9670  209.9820  150.4000 N   0  0  0  0  0  0  0  0  0  0  0  0
  161.1690  205.8940  149.9410 N   0  0  0  0  0  0  0  0  0  0  0  0
  161.6790  206.5810  148.7480 C   0  0  0  0  0  2  0  0  0  0  0  0
  160.6720  206.6840  151.0710 C   0  0  0  0  0  2  0  0  0  0  0  0
  161.5800  208.0980  148.8870 C   0  0  0  0  0  2  0  0  0  0  0  0
  162.1940  208.5550  150.2130 C   0  0  2  0  0  3  0  0  0  0  0  0
  161.6820  207.7720  151.4360 C   0  0  0  0  0  2  0  0  0  0  0  0
  161.0580  203.7780  151.2100 C   0  0  0  0  0  3  0  0  0  0  0  0
  160.9710  200.2550  150.1490 O   0  0  0  0  0  1  0  0  0  0  0  0
  161.0240  201.6410  150.0650 C   0  0  0  0  0  0  0  0  0  0  0  0
  161.1180  204.4540  149.9830 C   0  0  0  0  0  0  0  0  0  0  0  0
  161.0860  202.3020  148.8180 C   0  0  0  0  0  0  0  0  0  0  0  0
  161.1320  203.7030  148.7980 C   0  0  0  0  0  3  0  0  0  0  0  0
  161.0110  202.3830  151.2490 C   0  0  0  0  0  3  0  0  0  0  0  0
  160.7020  202.1150  146.4690 O   0  0  0  0  0  0  0  0  0  0  0  0
  161.5780  200.2260  147.4760 N   0  0  0  0  0  1  0  0  0  0  0  0
  161.1030  201.5700  147.5300 C   0  0  0  0  0  0  0  0  0  0  0  0
  162.3330  213.4750  147.9240 C   0  0  0  0  0  2  0  0  0  0  0  0
  161.3420  213.3680  149.0640 C   0  0  1  0  0  3  0  0  0  0  0  0
  161.7400  214.4480  146.9360 C   0  0  2  0  0  3  0  0  0  0  0  0
  160.2780  214.0880  146.7860 C   0  0  0  0  0  2  0  0  0  0  0  0
  162.4430  214.3270  145.6000 C   0  0  0  0  0  1  0  0  0  0  0  0
  159.6520  213.5680  148.4110 S   0  0  0  0  0  0  0  0  0  0  0  0
  159.7130  212.1920  151.5330 C   0  0  0  0  0  2  0  0  0  0  0  0
  158.4110  211.0760  154.9520 N   0  0  0  0  0  2  0  0  0  0  0  0
  159.2890  213.1530  154.2130 N   0  0  0  0  0  2  0  0  0  0  0  0
  159.2270  211.3870  152.6470 N   0  0  0  0  0  2  0  0  0  0  0  0
  158.9520  211.9340  153.9390 C   0  0  0  0  0  0  0  0  0  0  0  0
  157.9040  211.4970  156.1960 N   0  0  0  0  0  2  0  0  0  0  0  0
  156.6250  212.0480  156.3710 C   0  0  0  0  0  0  0  0  0  0  0  0
  155.5250  212.5190  156.5230 C   0  0  0  0  0  3  0  0  0  0  0  0
  2  5  2  0  0  0  0
  2  6  1  0  0  0  0
  3 29  1  6  0  0  0
  3  1  1  0  0  0  0
  4  2  1  0  0  0  0
  5  3  1  0  0  0  0
  6  1  1  0  0  0  0
  7 16  1  0  0  0  0
  7  9  1  0  0  0  0
  8 10  1  0  0  0  0
  8  7  1  0  0  0  0
  9 12  1  0  0  0  0
 11 10  1  6  0  0  0
 11  6  1  0  0  0  0
 11 12  1  0  0  0  0
 13 19  1  0  0  0  0
 15 14  1  0  0  0  0
 15 19  2  0  0  0  0
 16 13  2  0  0  0  0
 17 15  1  0  0  0  0
 18 17  2  0  0  0  0
 18 16  1  0  0  0  0
 20 22  2  0  0  0  0
 21 22  1  0  0  0  0
 22 17  1  0  0  0  0
 23 24  1  0  0  0  0
 24  5  1  6  0  0  0
 25 27  1  6  0  0  0
 25 23  1  0  0  0  0
 26 25  1  0  0  0  0
 26 28  1  0  0  0  0
 28 24  1  0  0  0  0
 29 32  1  0  0  0  0
 30 34  1  0  0  0  0
 32 33  1  0  0  0  0
 33 31  2  0  0  0  0
 33 30  1  0  0  0  0
 34 35  1  0  0  0  0
 35 36  3  0  0  0  0
M  END
>  <MODEL>
7

>  <REMARK>
 VINA RESULT:      -5.7      3.228      5.370
  Name = 
  8 active torsions:
  status: ('A' for Active; 'I' for Inactive)
    1  A    between atoms: N_1  and  C_28
    2  A    between atoms: N_10  and  N_20
    3  A    between atoms: C_12  and  C_17
    4  A    between atoms: C_13  and  C_26
    5  A    between atoms: C_18  and  N_20
    6  A    between atoms: N_19  and  C_26
    7  A    between atoms: C_21  and  N_22
    8  A    between atoms: C_27  and  C_29
                            x       y       z     vdW  Elec       q    Type
                         _______ _______ _______ _____ _____    ______ ____

>  <TORSDO>
F 8

$$$$
=
 OpenBabel11042421033D

 36 39  0  0  1  0  0  0  0  0999 V2000
  161.9460  209.2030  151.8880 N   0  0  0  0  0  2  0  0  0  0  0  0
  161.8480  210.3180  149.8430 C   0  0  0  0  0  0  0  0  0  0  0  0
  161.5490  210.6070  152.0960 C   0  0  1  0  0  3  0  0  0  0  0  0
  161.9440  210.5180  148.3660 C   0  0  0  0  0  1  0  0  0  0  0  0
  161.5240  211.2320  150.7350 C   0  0  0  0  0  0  0  0  0  0  0  0
  162.1160  209.0980  150.4990 N   0  0  0  0  0  0  0  0  0  0  0  0
  161.4010  205.8550  147.9430 N   0  0  0  0  0  0  0  0  0  0  0  0
  162.5340  206.7160  147.5780 C   0  0  0  0  0  2  0  0  0  0  0  0
  160.4240  206.3280  148.9280 C   0  0  0  0  0  2  0  0  0  0  0  0
  162.4880  208.0500  148.3190 C   0  0  0  0  0  2  0  0  0  0  0  0
  162.3010  207.8220  149.8220 C   0  0  2  0  0  3  0  0  0  0  0  0
  161.1430  206.8670  150.1650 C   0  0  0  0  0  2  0  0  0  0  0  0
  161.0400  204.4870  145.9190 C   0  0  0  0  0  3  0  0  0  0  0  0
  160.7160  200.8570  145.4080 O   0  0  0  0  0  1  0  0  0  0  0  0
  160.8840  202.0720  146.0610 C   0  0  0  0  0  0  0  0  0  0  0  0
  161.2280  204.5750  147.3050 C   0  0  0  0  0  0  0  0  0  0  0  0
  161.0700  202.1370  147.4600 C   0  0  0  0  0  0  0  0  0  0  0  0
  161.2400  203.3920  148.0610 C   0  0  0  0  0  3  0  0  0  0  0  0
  160.8700  203.2450  145.3030 C   0  0  0  0  0  3  0  0  0  0  0  0
  161.5800  199.8450  147.8950 O   0  0  0  0  0  0  0  0  0  0  0  0
  160.5660  200.9760  149.6390 N   0  0  0  0  0  1  0  0  0  0  0  0
  161.0950  200.9280  148.3160 C   0  0  0  0  0  0  0  0  0  0  0  0
  161.3440  213.0360  149.0150 C   0  0  0  0  0  2  0  0  0  0  0  0
  161.1990  212.6750  150.4790 C   0  0  1  0  0  3  0  0  0  0  0  0
  160.4820  214.2520  148.7900 C   0  0  2  0  0  3  0  0  0  0  0  0
  159.1680  213.9980  149.4950 C   0  0  0  0  0  2  0  0  0  0  0  0
  160.2440  214.4530  147.3080 C   0  0  0  0  0  1  0  0  0  0  0  0
  159.5160  213.1000  151.0370 S   0  0  0  0  0  0  0  0  0  0  0  0
  160.1620  210.6710  152.7250 C   0  0  0  0  0  2  0  0  0  0  0  0
  159.2680  211.7830  156.2740 N   0  0  0  0  0  2  0  0  0  0  0  0
  157.9160  211.4410  154.3530 N   0  0  0  0  0  2  0  0  0  0  0  0
  160.2430  211.1230  154.1080 N   0  0  0  0  0  2  0  0  0  0  0  0
  159.0890  211.4110  154.9010 C   0  0  0  0  0  0  0  0  0  0  0  0
  158.2410  211.9030  157.2300 N   0  0  0  0  0  2  0  0  0  0  0  0
  157.1100  212.7170  157.0600 C   0  0  0  0  0  0  0  0  0  0  0  0
  156.1390  213.4170  156.9130 C   0  0  0  0  0  3  0  0  0  0  0  0
  1  3  1  0  0  0  0
  2  6  1  0  0  0  0
  2  5  2  0  0  0  0
  3 29  1  6  0  0  0
  4  2  1  0  0  0  0
  5  3  1  0  0  0  0
  6  1  1  0  0  0  0
  7  9  1  0  0  0  0
  8  7  1  0  0  0  0
  8 10  1  0  0  0  0
  9 12  1  0  0  0  0
 11 10  1  6  0  0  0
 11 12  1  0  0  0  0
 11  6  1  0  0  0  0
 13 16  1  0  0  0  0
 14 15  1  0  0  0  0
 15 17  2  0  0  0  0
 16  7  1  0  0  0  0
 16 18  2  0  0  0  0
 17 18  1  0  0  0  0
 17 22  1  0  0  0  0
 19 13  2  0  0  0  0
 19 15  1  0  0  0  0
 20 22  2  0  0  0  0
 22 21  1  0  0  0  0
 23 24  1  0  0  0  0
 24  5  1  6  0  0  0
 24 28  1  0  0  0  0
 25 27  1  6  0  0  0
 25 23  1  0  0  0  0
 25 26  1  0  0  0  0
 26 28  1  0  0  0  0
 29 32  1  0  0  0  0
 30 34  1  0  0  0  0
 31 33  2  0  0  0  0
 32 33  1  0  0  0  0
 33 30  1  0  0  0  0
 35 34  1  0  0  0  0
 36 35  3  0  0  0  0
M  END
>  <MODEL>
8

>  <REMARK>
 VINA RESULT:      -5.2      2.680      4.952
  Name = 
  8 active torsions:
  status: ('A' for Active; 'I' for Inactive)
    1  A    between atoms: N_1  and  C_28
    2  A    between atoms: N_10  and  N_20
    3  A    between atoms: C_12  and  C_17
    4  A    between atoms: C_13  and  C_26
    5  A    between atoms: C_18  and  N_20
    6  A    between atoms: N_19  and  C_26
    7  A    between atoms: C_21  and  N_22
    8  A    between atoms: C_27  and  C_29
                            x       y       z     vdW  Elec       q    Type
                         _______ _______ _______ _____ _____    ______ ____

>  <TORSDO>
F 8

$$$$
=
 OpenBabel11042421033D

 36 39  0  0  1  0  0  0  0  0999 V2000
  162.1750  210.3770  150.7180 N   0  0  0  0  0  2  0  0  0  0  0  0
  160.7490  212.2200  150.6910 C   0  0  0  0  0  0  0  0  0  0  0  0
  161.4750  210.4930  152.0090 C   0  0  1  0  0  3  0  0  0  0  0  0
  160.0600  213.4340  150.1580 C   0  0  0  0  0  1  0  0  0  0  0  0
  160.5980  211.7020  151.8920 C   0  0  0  0  0  0  0  0  0  0  0  0
  161.6920  211.4600  149.9680 N   0  0  0  0  0  0  0  0  0  0  0  0
  161.4750  212.9580  146.0600 N   0  0  0  0  0  0  0  0  0  0  0  0
  162.7340  213.2140  146.7710 C   0  0  0  0  0  2  0  0  0  0  0  0
  160.2980  212.5150  146.8140 C   0  0  0  0  0  2  0  0  0  0  0  0
  162.5890  212.9800  148.2730 C   0  0  0  0  0  2  0  0  0  0  0  0
  161.9550  211.6120  148.5440 C   0  0  2  0  0  3  0  0  0  0  0  0
  160.6710  211.3540  147.7360 C   0  0  0  0  0  2  0  0  0  0  0  0
  162.5040  212.9950  143.8150 C   0  0  0  0  0  3  0  0  0  0  0  0
  161.1660  213.8260  140.4900 O   0  0  0  0  0  1  0  0  0  0  0  0
  161.2110  213.6240  141.8640 C   0  0  0  0  0  0  0  0  0  0  0  0
  161.3850  213.1810  144.6400 C   0  0  0  0  0  0  0  0  0  0  0  0
  160.0710  213.8200  142.6750 C   0  0  0  0  0  0  0  0  0  0  0  0
  160.1780  213.5940  144.0560 C   0  0  0  0  0  3  0  0  0  0  0  0
  162.4160  213.2140  142.4400 C   0  0  0  0  0  3  0  0  0  0  0  0
  157.7780  214.4530  142.8760 O   0  0  0  0  0  0  0  0  0  0  0  0
  158.6150  214.4520  140.7190 N   0  0  0  0  0  1  0  0  0  0  0  0
  158.7670  214.2530  142.1230 C   0  0  0  0  0  0  0  0  0  0  0  0
  158.3130  211.6690  152.9030 C   0  0  0  0  0  2  0  0  0  0  0  0
  159.7220  212.2140  152.9990 C   0  0  1  0  0  3  0  0  0  0  0  0
  157.7260  211.7590  154.2900 C   0  0  2  0  0  3  0  0  0  0  0  0
  158.7860  211.2630  155.2490 C   0  0  0  0  0  2  0  0  0  0  0  0
  156.4900  210.8900  154.3890 C   0  0  0  0  0  1  0  0  0  0  0  0
  160.4070  211.8200  154.6430 S   0  0  0  0  0  0  0  0  0  0  0  0
  160.6230  209.2530  152.2560 C   0  0  0  0  0  2  0  0  0  0  0  0
  161.8150  205.7330  151.3490 N   0  0  0  0  0  2  0  0  0  0  0  0
  161.1630  206.6790  153.4270 N   0  0  0  0  0  2  0  0  0  0  0  0
  161.1670  208.1040  151.5430 N   0  0  0  0  0  2  0  0  0  0  0  0
  161.3360  206.8210  152.1520 C   0  0  0  0  0  0  0  0  0  0  0  0
  161.8460  204.3810  151.7400 N   0  0  0  0  0  2  0  0  0  0  0  0
  161.1090  203.3680  151.1040 C   0  0  0  0  0  0  0  0  0  0  0  0
  160.4780  202.4990  150.5560 C   0  0  0  0  0  3  0  0  0  0  0  0
  1  3  1  0  0  0  0
  2  5  2  0  0  0  0
  3 29  1  6  0  0  0
  4  2  1  0  0  0  0
  5  3  1  0  0  0  0
  6  2  1  0  0  0  0
  6  1  1  0  0  0  0
  7  8  1  0  0  0  0
  7  9  1  0  0  0  0
  8 10  1  0  0  0  0
  9 12  1  0  0  0  0
 10 11  1  0  0  0  0
 11 12  1  6  0  0  0
 11  6  1  0  0  0  0
 13 16  1  0  0  0  0
 14 15  1  0  0  0  0
 15 19  1  0  0  0  0
 15 17  2  0  0  0  0
 16  7  1  0  0  0  0
 17 18  1  0  0  0  0
 18 16  2  0  0  0  0
 19 13  2  0  0  0  0
 21 22  1  0  0  0  0
 22 17  1  0  0  0  0
 22 20  2  0  0  0  0
 23 24  1  0  0  0  0
 23 25  1  0  0  0  0
 24  5  1  6  0  0  0
 24 28  1  0  0  0  0
 25 27  1  6  0  0  0
 25 26  1  0  0  0  0
 28 26  1  0  0  0  0
 30 34  1  0  0  0  0
 30 33  1  0  0  0  0
 32 33  1  0  0  0  0
 32 29  1  0  0  0  0
 33 31  2  0  0  0  0
 35 34  1  0  0  0  0
 36 35  3  0  0  0  0
M  END
>  <MODEL>
9

>  <REMARK>
 VINA RESULT:      -5.2      5.454      9.010
  Name = 
  8 active torsions:
  status: ('A' for Active; 'I' for Inactive)
    1  A    between atoms: N_1  and  C_28
    2  A    between atoms: N_10  and  N_20
    3  A    between atoms: C_12  and  C_17
    4  A    between atoms: C_13  and  C_26
    5  A    between atoms: C_18  and  N_20
    6  A    between atoms: N_19  and  C_26
    7  A    between atoms: C_21  and  N_22
    8  A    between atoms: C_27  and  C_29
                            x       y       z     vdW  Elec       q    Type
                         _______ _______ _______ _____ _____    ______ ____

>  <TORSDO>
F 8

$$$$
