=
 OpenBabel11042421353D

 45 50  0  0  1  0  0  0  0  0999 V2000
  160.4250  207.9400  152.3310 C   0  0  0  0  0  2  0  0  0  0  0  0
  161.6450  207.2040  149.1730 C   0  0  1  0  0  3  0  0  0  0  0  0
  160.7260  203.7760  148.7470 C   0  0  0  0  0  3  0  0  0  0  0  0
  160.7650  205.7560  151.1020 C   0  0  0  0  0  0  0  0  0  0  0  0
  160.6260  202.9450  149.7860 C   0  0  0  0  0  0  0  0  0  0  0  0
  160.8970  206.0170  149.7710 C   0  0  0  0  0  0  0  0  0  0  0  0
  160.0510  204.5670  151.6210 C   0  0  0  0  0  3  0  0  0  0  0  0
  163.2670  207.3470  150.7630 C   0  0  0  0  0  2  0  0  0  0  0  0
  162.7690  206.9780  152.1520 C   0  0  1  0  0  3  0  0  0  0  0  0
  161.2660  206.6760  152.1900 C   0  0  1  0  0  3  0  0  0  0  0  0
  159.9960  203.3510  151.0630 C   0  0  0  0  0  3  0  0  0  0  0  0
  160.1840  205.1640  148.7670 C   0  0  0  0  0  2  0  0  0  0  0  0
  163.5570  205.7940  152.6780 C   0  0  0  0  0  1  0  0  0  0  0  0
  162.2790  208.0760  150.0850 O   0  0  0  0  0  0  0  0  0  0  0  0
  161.0850  201.5520  149.6320 C   0  0  0  0  0  0  0  0  0  0  0  0
  161.0850  200.9450  148.3820 O   0  0  0  0  0  0  0  0  0  0  0  0
  161.4790  200.8960  150.6330 O   0  0  0  0  0  1  0  0  0  0  0  0
  162.5320  206.7930  148.1700 O   0  0  0  0  0  0  0  0  0  0  0  0
  161.9100  207.1460  146.9710 C   0  0  0  0  0  2  0  0  0  0  0  0
  160.7870  205.7070  145.3480 C   0  0  0  0  0  3  0  0  0  0  0  0
  161.8780  205.9660  146.0620 C   0  0  0  0  0  3  0  0  0  0  0  0
  161.1470  203.2850  145.2030 C   0  0  0  0  0  1  0  0  0  0  0  0
  160.7550  204.5310  144.4350 C   0  0  0  0  0  2  0  0  0  0  0  0
  161.3660  208.7860  155.7010 C   0  0  0  0  0  0  0  0  0  0  0  0
  162.5930  210.2240  157.0900 C   0  0  0  0  0  3  0  0  0  0  0  0
  160.7080  211.1100  155.8440 N   0  0  0  0  0  0  0  0  0  0  0  0
  159.8240  209.5060  154.1920 C   0  0  0  0  0  0  0  0  0  0  0  0
  161.5500  208.0870  154.6300 N   0  0  0  0  0  0  0  0  0  0  0  0
  160.5410  208.4970  153.7130 C   0  0  0  0  0  0  0  0  0  0  0  0
  160.2260  209.7450  155.6040 C   0  0  1  0  0  3  0  0  0  0  0  0
  161.7610  211.3440  156.5800 C   0  0  0  0  0  3  0  0  0  0  0  0
  162.4110  209.0140  156.6450 N   0  0  0  0  0  0  0  0  0  0  0  0
  158.6950  210.1850  153.4840 C   0  0  0  0  0  2  0  0  0  0  0  0
  159.0930  212.6280  153.2580 C   0  0  0  0  0  3  0  0  0  0  0  0
  159.8320  211.3360  151.6490 N   0  0  0  0  0  0  0  0  0  0  0  0
  160.1640  212.6070  151.3620 C   0  0  0  0  0  0  0  0  0  0  0  0
  159.7190  213.4680  152.3490 C   0  0  0  0  0  3  0  0  0  0  0  0
  159.1800  211.3700  152.7950 N   0  0  0  0  0  0  0  0  0  0  0  0
  160.9120  213.0240  150.1400 C   0  0  0  0  0  3  0  0  0  0  0  0
  159.9560  213.6420  149.1190 C   0  0  0  0  0  2  0  0  0  0  0  0
  160.7120  213.9540  147.8300 C   0  0  0  0  0  2  0  0  0  0  0  0
  162.0090  213.1120  146.0780 C   0  0  0  0  0  1  0  0  0  0  0  0
  161.3050  212.7310  147.2890 N   0  0  0  0  0  0  0  0  0  0  0  0
  161.6510  211.8290  149.5360 C   0  0  0  0  0  2  0  0  0  0  0  0
  162.3160  212.2500  148.2290 C   0  0  0  0  0  2  0  0  0  0  0  0
  1 29  1  0  0  0  0
  2 18  1  6  0  0  0
  2  6  1  0  0  0  0
  2 14  1  0  0  0  0
  3 12  1  0  0  0  0
  3  5  2  0  0  0  0
  4  7  1  0  0  0  0
  4 10  1  0  0  0  0
  5 11  1  0  0  0  0
  6  4  2  0  0  0  0
  8  9  1  0  0  0  0
  9 10  1  0  0  0  0
  9 13  1  6  0  0  0
 10  1  1  6  0  0  0
 11  7  2  0  0  0  0
 12  6  1  0  0  0  0
 14  8  1  0  0  0  0
 15  5  1  0  0  0  0
 15 17  1  0  0  0  0
 16 15  2  0  0  0  0
 19 18  1  0  0  0  0
 20 21  2  0  0  0  0
 21 19  1  0  0  0  0
 23 22  1  0  0  0  0
 23 20  1  0  0  0  0
 24 32  1  0  0  0  0
 26 31  2  0  0  0  0
 28 24  2  0  0  0  0
 29 27  2  0  0  0  0
 29 28  1  0  0  0  0
 30 27  1  6  0  0  0
 30 24  1  0  0  0  0
 30 26  1  0  0  0  0
 31 25  1  0  0  0  0
 32 25  2  0  0  0  0
 33 27  1  0  0  0  0
 35 38  1  0  0  0  0
 36 35  2  0  0  0  0
 36 37  1  0  0  0  0
 37 34  2  0  0  0  0
 38 34  1  0  0  0  0
 38 33  1  0  0  0  0
 39 36  1  0  0  0  0
 40 39  1  0  0  0  0
 41 40  1  0  0  0  0
 42 43  1  0  0  0  0
 43 41  1  0  0  0  0
 43 45  1  0  0  0  0
 44 39  1  0  0  0  0
 45 44  1  0  0  0  0
M  END
>  <MODEL>
1

>  <REMARK>
 VINA RESULT:      -4.1      0.000      0.000
  Name = 
  10 active torsions:
  status: ('A' for Active; 'I' for Inactive)
    1  A    between atoms: C_3  and  O_25
    2  A    between atoms: C_4  and  C_34
    3  A    between atoms: C_7  and  O_25
    4  A    between atoms: C_7  and  C_40
    5  A    between atoms: C_8  and  C_16
    6  A    between atoms: C_11  and  C_18
    7  A    between atoms: C_12  and  C_30
    8  A    between atoms: C_12  and  C_32
    9  A    between atoms: C_21  and  C_22
   10  A    between atoms: C_22  and  N_39
                            x       y       z     vdW  Elec       q    Type
                         _______ _______ _______ _____ _____    ______ ____

>  <TORSDO>
F 10

$$$$
=
 OpenBabel11042421353D

 45 50  0  0  1  0  0  0  0  0999 V2000
  161.0690  208.5440  151.6570 C   0  0  0  0  0  2  0  0  0  0  0  0
  160.3610  206.7570  148.7750 C   0  0  1  0  0  3  0  0  0  0  0  0
  160.2440  203.3810  149.9440 C   0  0  0  0  0  3  0  0  0  0  0  0
  161.1560  206.0750  151.1190 C   0  0  0  0  0  0  0  0  0  0  0  0
  160.9750  202.9750  150.9850 C   0  0  0  0  0  0  0  0  0  0  0  0
  160.4200  205.8430  149.9950 C   0  0  0  0  0  0  0  0  0  0  0  0
  161.1960  205.1320  152.2610 C   0  0  0  0  0  3  0  0  0  0  0  0
  162.5080  207.5040  148.8750 C   0  0  0  0  0  2  0  0  0  0  0  0
  163.0200  207.6460  150.3010 C   0  0  1  0  0  3  0  0  0  0  0  0
  161.9500  207.3370  151.3550 C   0  0  1  0  0  3  0  0  0  0  0  0
  161.1280  203.7960  152.2070 C   0  0  0  0  0  3  0  0  0  0  0  0
  159.4930  204.6690  149.9360 C   0  0  0  0  0  2  0  0  0  0  0  0
  164.2280  206.7500  150.4990 C   0  0  0  0  0  1  0  0  0  0  0  0
  161.1690  207.9140  148.8120 O   0  0  0  0  0  0  0  0  0  0  0  0
  161.5830  201.6330  150.9490 C   0  0  0  0  0  0  0  0  0  0  0  0
  162.3900  201.1980  151.9930 O   0  0  0  0  0  1  0  0  0  0  0  0
  161.3810  200.8670  149.9700 O   0  0  0  0  0  0  0  0  0  0  0  0
  160.5670  206.0370  147.5910 O   0  0  0  0  0  0  0  0  0  0  0  0
  161.7870  205.3830  147.7740 C   0  0  0  0  0  2  0  0  0  0  0  0
  160.9890  203.3440  146.6910 C   0  0  0  0  0  3  0  0  0  0  0  0
  161.9190  204.2910  146.7690 C   0  0  0  0  0  3  0  0  0  0  0  0
  160.7610  200.9290  146.3270 C   0  0  0  0  0  1  0  0  0  0  0  0
  161.1170  202.2540  145.6850 C   0  0  0  0  0  2  0  0  0  0  0  0
  160.2740  207.9440  155.1150 C   0  0  0  0  0  0  0  0  0  0  0  0
  161.0950  207.4660  157.2610 C   0  0  0  0  0  3  0  0  0  0  0  0
  161.6250  209.6040  156.2440 N   0  0  0  0  0  0  0  0  0  0  0  0
  160.9670  209.7160  153.8690 C   0  0  0  0  0  0  0  0  0  0  0  0
  160.4130  207.5070  153.9080 N   0  0  0  0  0  0  0  0  0  0  0  0
  160.7840  208.6340  153.1210 C   0  0  0  0  0  0  0  0  0  0  0  0
  160.5520  209.4030  155.2630 C   0  0  1  0  0  3  0  0  0  0  0  0
  161.8410  208.7490  157.2060 C   0  0  0  0  0  3  0  0  0  0  0  0
  160.3710  207.0820  156.2490 N   0  0  0  0  0  0  0  0  0  0  0  0
  161.3730  211.0640  153.3660 C   0  0  0  0  0  2  0  0  0  0  0  0
  159.0950  212.0400  153.5580 C   0  0  0  0  0  3  0  0  0  0  0  0
  160.1510  212.3190  151.6580 N   0  0  0  0  0  0  0  0  0  0  0  0
  158.9590  212.9350  151.5780 C   0  0  0  0  0  0  0  0  0  0  0  0
  158.2480  212.7890  152.7560 C   0  0  0  0  0  3  0  0  0  0  0  0
  160.2130  211.7780  152.8600 N   0  0  0  0  0  0  0  0  0  0  0  0
  158.4750  213.6740  150.3760 C   0  0  0  0  0  3  0  0  0  0  0  0
  157.0870  213.1780  149.9710 C   0  0  0  0  0  2  0  0  0  0  0  0
  156.6560  213.8570  148.6730 C   0  0  0  0  0  2  0  0  0  0  0  0
  157.1480  214.2530  146.4240 C   0  0  0  0  0  1  0  0  0  0  0  0
  157.6220  213.5700  147.6140 N   0  0  0  0  0  0  0  0  0  0  0  0
  159.4650  213.5160  149.2210 C   0  0  0  0  0  2  0  0  0  0  0  0
  158.9000  214.1830  147.9710 C   0  0  0  0  0  2  0  0  0  0  0  0
  1 29  1  0  0  0  0
  2 18  1  6  0  0  0
  2 14  1  0  0  0  0
  2  6  1  0  0  0  0
  3  5  2  0  0  0  0
  4 10  1  0  0  0  0
  4  7  1  0  0  0  0
  5 11  1  0  0  0  0
  6  4  2  0  0  0  0
  8  9  1  0  0  0  0
  9 13  1  6  0  0  0
  9 10  1  0  0  0  0
 10  1  1  6  0  0  0
 11  7  2  0  0  0  0
 12  3  1  0  0  0  0
 12  6  1  0  0  0  0
 14  8  1  0  0  0  0
 15  5  1  0  0  0  0
 15 16  1  0  0  0  0
 17 15  2  0  0  0  0
 18 19  1  0  0  0  0
 20 21  2  0  0  0  0
 21 19  1  0  0  0  0
 23 22  1  0  0  0  0
 23 20  1  0  0  0  0
 24 30  1  0  0  0  0
 24 32  1  0  0  0  0
 26 31  2  0  0  0  0
 28 24  2  0  0  0  0
 29 27  2  0  0  0  0
 29 28  1  0  0  0  0
 30 27  1  6  0  0  0
 30 26  1  0  0  0  0
 31 25  1  0  0  0  0
 32 25  2  0  0  0  0
 33 27  1  0  0  0  0
 35 38  1  0  0  0  0
 36 35  2  0  0  0  0
 36 37  1  0  0  0  0
 37 34  2  0  0  0  0
 38 33  1  0  0  0  0
 38 34  1  0  0  0  0
 39 36  1  0  0  0  0
 40 39  1  0  0  0  0
 41 40  1  0  0  0  0
 42 43  1  0  0  0  0
 43 45  1  0  0  0  0
 43 41  1  0  0  0  0
 44 39  1  0  0  0  0
 45 44  1  0  0  0  0
M  END
>  <MODEL>
2

>  <REMARK>
 VINA RESULT:      -3.1      1.728      2.254
  Name = 
  10 active torsions:
  status: ('A' for Active; 'I' for Inactive)
    1  A    between atoms: C_3  and  O_25
    2  A    between atoms: C_4  and  C_34
    3  A    between atoms: C_7  and  O_25
    4  A    between atoms: C_7  and  C_40
    5  A    between atoms: C_8  and  C_16
    6  A    between atoms: C_11  and  C_18
    7  A    between atoms: C_12  and  C_30
    8  A    between atoms: C_12  and  C_32
    9  A    between atoms: C_21  and  C_22
   10  A    between atoms: C_22  and  N_39
                            x       y       z     vdW  Elec       q    Type
                         _______ _______ _______ _____ _____    ______ ____

>  <TORSDO>
F 10

$$$$
=
 OpenBabel11042421353D

 45 50  0  0  1  0  0  0  0  0999 V2000
  160.4610  208.6690  152.3190 C   0  0  0  0  0  2  0  0  0  0  0  0
  159.6250  212.0250  152.5130 C   0  0  1  0  0  3  0  0  0  0  0  0
  160.7900  213.3150  149.3890 C   0  0  0  0  0  3  0  0  0  0  0  0
  161.1320  210.6750  150.9330 C   0  0  0  0  0  0  0  0  0  0  0  0
  161.8390  212.7800  148.7600 C   0  0  0  0  0  0  0  0  0  0  0  0
  160.2450  211.6840  151.1620 C   0  0  0  0  0  0  0  0  0  0  0  0
  161.7250  210.4130  149.6010 C   0  0  0  0  0  3  0  0  0  0  0  0
  161.4160  211.4600  153.7990 C   0  0  0  0  0  2  0  0  0  0  0  0
  162.1960  210.2790  153.2410 C   0  0  1  0  0  3  0  0  0  0  0  0
  161.5550  209.6770  151.9850 C   0  0  1  0  0  3  0  0  0  0  0  0
  162.0400  211.3170  148.6660 C   0  0  0  0  0  3  0  0  0  0  0  0
  159.7180  212.4910  150.0160 C   0  0  0  0  0  2  0  0  0  0  0  0
  163.6230  210.7040  152.9520 C   0  0  0  0  0  1  0  0  0  0  0  0
  160.0420  211.2480  153.6150 O   0  0  0  0  0  0  0  0  0  0  0  0
  162.7860  213.6730  148.0670 C   0  0  0  0  0  0  0  0  0  0  0  0
  162.8710  213.6700  146.6800 O   0  0  0  0  0  0  0  0  0  0  0  0
  163.5310  214.4470  148.7260 O   0  0  0  0  0  1  0  0  0  0  0  0
  159.7360  213.3940  152.7920 O   0  0  0  0  0  0  0  0  0  0  0  0
  158.6030  213.7020  153.5460 C   0  0  0  0  0  2  0  0  0  0  0  0
  157.1180  214.4530  151.7580 C   0  0  0  0  0  3  0  0  0  0  0  0
  157.3870  213.5510  152.6980 C   0  0  0  0  0  3  0  0  0  0  0  0
  156.3160  214.2730  149.4470 C   0  0  0  0  0  1  0  0  0  0  0  0
  155.9060  214.3020  150.9050 C   0  0  0  0  0  2  0  0  0  0  0  0
  161.5230  205.2320  152.4380 C   0  0  0  0  0  0  0  0  0  0  0  0
  160.8780  202.9780  152.3560 C   0  0  0  0  0  3  0  0  0  0  0  0
  160.6260  204.3510  150.3710 N   0  0  0  0  0  0  0  0  0  0  0  0
  161.0200  206.7450  150.8160 C   0  0  0  0  0  0  0  0  0  0  0  0
  161.1730  206.3160  153.0470 N   0  0  0  0  0  0  0  0  0  0  0  0
  160.9220  207.2770  152.0280 C   0  0  0  0  0  0  0  0  0  0  0  0
  161.5280  205.3530  150.9500 C   0  0  1  0  0  3  0  0  0  0  0  0
  160.3710  203.2260  150.9820 C   0  0  0  0  0  3  0  0  0  0  0  0
  161.4030  203.9480  153.0480 N   0  0  0  0  0  0  0  0  0  0  0  0
  160.8070  207.4700  149.5250 C   0  0  0  0  0  2  0  0  0  0  0  0
  162.5730  207.0290  147.8330 C   0  0  0  0  0  3  0  0  0  0  0  0
  160.9040  205.6110  147.9370 N   0  0  0  0  0  0  0  0  0  0  0  0
  161.7620  205.1920  146.9900 C   0  0  0  0  0  0  0  0  0  0  0  0
  162.8380  206.0560  146.8820 C   0  0  0  0  0  3  0  0  0  0  0  0
  161.4080  206.7260  148.4310 N   0  0  0  0  0  0  0  0  0  0  0  0
  161.5700  203.9610  146.1690 C   0  0  0  0  0  3  0  0  0  0  0  0
  160.3710  204.1280  145.2350 C   0  0  0  0  0  2  0  0  0  0  0  0
  160.1140  202.8210  144.4900 C   0  0  0  0  0  2  0  0  0  0  0  0
  159.6380  200.5390  144.6610 C   0  0  0  0  0  1  0  0  0  0  0  0
  159.8630  201.7410  145.4440 N   0  0  0  0  0  0  0  0  0  0  0  0
  161.3850  202.7430  147.0750 C   0  0  0  0  0  2  0  0  0  0  0  0
  161.0800  201.5160  146.2210 C   0  0  0  0  0  2  0  0  0  0  0  0
  2 18  1  1  0  0  0
  2 14  1  0  0  0  0
  3 12  1  0  0  0  0
  4  6  2  0  0  0  0
  4 10  1  0  0  0  0
  5  3  2  0  0  0  0
  6  2  1  0  0  0  0
  7  4  1  0  0  0  0
  9 13  1  6  0  0  0
  9  8  1  0  0  0  0
 10  1  1  1  0  0  0
 10  9  1  0  0  0  0
 11  5  1  0  0  0  0
 11  7  2  0  0  0  0
 12  6  1  0  0  0  0
 14  8  1  0  0  0  0
 15 17  1  0  0  0  0
 15  5  1  0  0  0  0
 16 15  2  0  0  0  0
 18 19  1  0  0  0  0
 20 21  2  0  0  0  0
 21 19  1  0  0  0  0
 22 23  1  0  0  0  0
 23 20  1  0  0  0  0
 24 28  2  0  0  0  0
 24 32  1  0  0  0  0
 25 32  2  0  0  0  0
 26 31  2  0  0  0  0
 27 30  1  0  0  0  0
 27 29  2  0  0  0  0
 29  1  1  0  0  0  0
 29 28  1  0  0  0  0
 30 26  1  6  0  0  0
 30 24  1  0  0  0  0
 31 25  1  0  0  0  0
 33 27  1  0  0  0  0
 34 38  1  0  0  0  0
 35 38  1  0  0  0  0
 36 35  2  0  0  0  0
 37 36  1  0  0  0  0
 37 34  2  0  0  0  0
 38 33  1  0  0  0  0
 39 36  1  0  0  0  0
 39 44  1  0  0  0  0
 40 39  1  0  0  0  0
 41 40  1  0  0  0  0
 41 43  1  0  0  0  0
 42 43  1  0  0  0  0
 43 45  1  0  0  0  0
 45 44  1  0  0  0  0
M  END
>  <MODEL>
3

>  <REMARK>
 VINA RESULT:      -2.7      3.634      8.709
  Name = 
  10 active torsions:
  status: ('A' for Active; 'I' for Inactive)
    1  A    between atoms: C_3  and  O_25
    2  A    between atoms: C_4  and  C_34
    3  A    between atoms: C_7  and  O_25
    4  A    between atoms: C_7  and  C_40
    5  A    between atoms: C_8  and  C_16
    6  A    between atoms: C_11  and  C_18
    7  A    between atoms: C_12  and  C_30
    8  A    between atoms: C_12  and  C_32
    9  A    between atoms: C_21  and  C_22
   10  A    between atoms: C_22  and  N_39
                            x       y       z     vdW  Elec       q    Type
                         _______ _______ _______ _____ _____    ______ ____

>  <TORSDO>
F 10

$$$$
=
 OpenBabel11042421353D

 45 50  0  0  1  0  0  0  0  0999 V2000
  162.3800  206.3860  150.8080 C   0  0  0  0  0  2  0  0  0  0  0  0
  161.5580  203.2810  149.5100 C   0  0  1  0  0  3  0  0  0  0  0  0
  161.9560  203.7610  145.9910 C   0  0  0  0  0  3  0  0  0  0  0  0
  161.8800  205.6000  148.4570 C   0  0  0  0  0  0  0  0  0  0  0  0
  161.7570  204.9520  145.4200 C   0  0  0  0  0  0  0  0  0  0  0  0
  162.0000  204.2440  148.4120 C   0  0  0  0  0  0  0  0  0  0  0  0
  162.3000  206.4810  147.3420 C   0  0  0  0  0  3  0  0  0  0  0  0
  159.7550  204.4730  150.2240 C   0  0  0  0  0  2  0  0  0  0  0  0
  159.9660  205.9770  150.1320 C   0  0  1  0  0  3  0  0  0  0  0  0
  161.3750  206.3580  149.6620 C   0  0  1  0  0  3  0  0  0  0  0  0
  162.2400  206.2100  146.0330 C   0  0  0  0  0  3  0  0  0  0  0  0
  162.7100  203.5920  147.2660 C   0  0  0  0  0  2  0  0  0  0  0  0
  158.9220  206.5820  149.2120 C   0  0  0  0  0  1  0  0  0  0  0  0
  160.9420  203.8550  150.6440 O   0  0  0  0  0  0  0  0  0  0  0  0
  161.1060  205.0090  144.0990 C   0  0  0  0  0  0  0  0  0  0  0  0
  161.6100  205.8330  143.1000 O   0  0  0  0  0  0  0  0  0  0  0  0
  160.0820  204.3140  143.8620 O   0  0  0  0  0  1  0  0  0  0  0  0
  160.7810  202.2380  148.9900 O   0  0  0  0  0  0  0  0  0  0  0  0
  161.5630  201.0930  149.1470 C   0  0  0  0  0  2  0  0  0  0  0  0
  160.8100  200.7130  146.8540 C   0  0  0  0  0  3  0  0  0  0  0  0
  161.5460  200.3030  147.8830 C   0  0  0  0  0  3  0  0  0  0  0  0
  161.5840  198.6490  145.7780 C   0  0  0  0  0  1  0  0  0  0  0  0
  160.7960  199.9290  145.5880 C   0  0  0  0  0  2  0  0  0  0  0  0
  160.8700  207.2370  153.9620 C   0  0  0  0  0  0  0  0  0  0  0  0
  161.2170  207.7840  156.2170 C   0  0  0  0  0  3  0  0  0  0  0  0
  161.9610  209.3290  154.5000 N   0  0  0  0  0  0  0  0  0  0  0  0
  161.8190  208.3690  152.2320 C   0  0  0  0  0  0  0  0  0  0  0  0
  161.2580  206.3450  153.1130 N   0  0  0  0  0  0  0  0  0  0  0  0
  161.7930  207.0620  152.0050 C   0  0  0  0  0  0  0  0  0  0  0  0
  161.1170  208.6410  153.5160 C   0  0  1  0  0  3  0  0  0  0  0  0
  161.9650  208.9830  155.7590 C   0  0  0  0  0  3  0  0  0  0  0  0
  160.7210  206.9480  155.3510 N   0  0  0  0  0  0  0  0  0  0  0  0
  162.3280  209.4090  151.2860 C   0  0  0  0  0  2  0  0  0  0  0  0
  161.2980  211.4660  150.3470 C   0  0  0  0  0  3  0  0  0  0  0  0
  160.7650  210.9230  152.4020 N   0  0  0  0  0  0  0  0  0  0  0  0
  160.0920  212.0380  152.0680 C   0  0  0  0  0  0  0  0  0  0  0  0
  160.3940  212.4270  150.7740 C   0  0  0  0  0  3  0  0  0  0  0  0
  161.4930  210.5960  151.3520 N   0  0  0  0  0  0  0  0  0  0  0  0
  159.1500  212.7540  152.9760 C   0  0  0  0  0  3  0  0  0  0  0  0
  158.4600  211.7630  153.9140 C   0  0  0  0  0  2  0  0  0  0  0  0
  157.4140  212.4920  154.7530 C   0  0  0  0  0  2  0  0  0  0  0  0
  155.4800  213.8030  154.7500 C   0  0  0  0  0  1  0  0  0  0  0  0
  156.4280  213.1290  153.8820 N   0  0  0  0  0  0  0  0  0  0  0  0
  158.1180  213.5360  152.1610 C   0  0  0  0  0  2  0  0  0  0  0  0
  157.0990  214.1690  153.1040 C   0  0  0  0  0  2  0  0  0  0  0  0
  1 29  1  0  0  0  0
  2 18  1  6  0  0  0
  2 14  1  0  0  0  0
  3 12  1  0  0  0  0
  4 10  1  0  0  0  0
  5  3  2  0  0  0  0
  5 11  1  0  0  0  0
  6  4  2  0  0  0  0
  6  2  1  0  0  0  0
  7  4  1  0  0  0  0
  8 14  1  0  0  0  0
  9 13  1  6  0  0  0
  9  8  1  0  0  0  0
 10  9  1  0  0  0  0
 10  1  1  1  0  0  0
 11  7  2  0  0  0  0
 12  6  1  0  0  0  0
 15  5  1  0  0  0  0
 16 15  2  0  0  0  0
 17 15  1  0  0  0  0
 18 19  1  0  0  0  0
 20 21  2  0  0  0  0
 21 19  1  0  0  0  0
 23 22  1  0  0  0  0
 23 20  1  0  0  0  0
 24 32  1  0  0  0  0
 26 31  2  0  0  0  0
 28 24  2  0  0  0  0
 29 27  2  0  0  0  0
 29 28  1  0  0  0  0
 30 27  1  6  0  0  0
 30 24  1  0  0  0  0
 30 26  1  0  0  0  0
 31 25  1  0  0  0  0
 32 25  2  0  0  0  0
 33 38  1  0  0  0  0
 33 27  1  0  0  0  0
 34 37  2  0  0  0  0
 34 38  1  0  0  0  0
 36 35  2  0  0  0  0
 36 39  1  0  0  0  0
 37 36  1  0  0  0  0
 38 35  1  0  0  0  0
 39 40  1  0  0  0  0
 40 41  1  0  0  0  0
 43 42  1  0  0  0  0
 43 41  1  0  0  0  0
 44 39  1  0  0  0  0
 44 45  1  0  0  0  0
 45 43  1  0  0  0  0
M  END
>  <MODEL>
4

>  <REMARK>
 VINA RESULT:      -2.2      2.186      4.819
  Name = 
  10 active torsions:
  status: ('A' for Active; 'I' for Inactive)
    1  A    between atoms: C_3  and  O_25
    2  A    between atoms: C_4  and  C_34
    3  A    between atoms: C_7  and  O_25
    4  A    between atoms: C_7  and  C_40
    5  A    between atoms: C_8  and  C_16
    6  A    between atoms: C_11  and  C_18
    7  A    between atoms: C_12  and  C_30
    8  A    between atoms: C_12  and  C_32
    9  A    between atoms: C_21  and  C_22
   10  A    between atoms: C_22  and  N_39
                            x       y       z     vdW  Elec       q    Type
                         _______ _______ _______ _____ _____    ______ ____

>  <TORSDO>
F 10

$$$$
=
 OpenBabel11042421353D

 45 50  0  0  1  0  0  0  0  0999 V2000
  162.8770  207.0430  148.6980 C   0  0  0  0  0  2  0  0  0  0  0  0
  161.2030  204.3500  150.0910 C   0  0  1  0  0  3  0  0  0  0  0  0
  161.0290  202.0320  147.3750 C   0  0  0  0  0  3  0  0  0  0  0  0
  161.7960  204.9970  147.6790 C   0  0  0  0  0  0  0  0  0  0  0  0
  160.9780  202.4450  146.1060 C   0  0  0  0  0  0  0  0  0  0  0  0
  161.6220  204.0600  148.6530 C   0  0  0  0  0  0  0  0  0  0  0  0
  162.1750  204.6490  146.2890 C   0  0  0  0  0  3  0  0  0  0  0  0
  159.8510  206.1250  149.6410 C   0  0  0  0  0  2  0  0  0  0  0  0
  160.3480  206.9660  148.4760 C   0  0  1  0  0  3  0  0  0  0  0  0
  161.6930  206.4840  147.9180 C   0  0  1  0  0  3  0  0  0  0  0  0
  161.8170  203.5560  145.6040 C   0  0  0  0  0  3  0  0  0  0  0  0
  161.9550  202.6260  148.3810 C   0  0  0  0  0  2  0  0  0  0  0  0
  159.3000  206.9870  147.3800 C   0  0  0  0  0  1  0  0  0  0  0  0
  160.9410  205.6990  150.4140 O   0  0  0  0  0  0  0  0  0  0  0  0
  160.1180  201.7180  145.1540 C   0  0  0  0  0  0  0  0  0  0  0  0
  159.3300  202.4130  144.2450 O   0  0  0  0  0  0  0  0  0  0  0  0
  160.0870  200.4590  145.1560 O   0  0  0  0  0  1  0  0  0  0  0  0
  160.1440  203.5230  150.4880 O   0  0  0  0  0  0  0  0  0  0  0  0
  160.4710  203.1130  151.7810 C   0  0  0  0  0  2  0  0  0  0  0  0
  160.7110  204.9920  153.3240 C   0  0  0  0  0  3  0  0  0  0  0  0
  161.2820  204.1720  152.4460 C   0  0  0  0  0  3  0  0  0  0  0  0
  160.6230  206.8800  154.8860 C   0  0  0  0  0  1  0  0  0  0  0  0
  161.5200  206.0470  153.9940 C   0  0  0  0  0  2  0  0  0  0  0  0
  162.5350  210.6170  148.4460 C   0  0  0  0  0  0  0  0  0  0  0  0
  161.0670  212.4350  148.2320 C   0  0  0  0  0  3  0  0  0  0  0  0
  161.0180  211.1120  150.2650 N   0  0  0  0  0  0  0  0  0  0  0  0
  162.3770  209.0600  150.0970 C   0  0  0  0  0  0  0  0  0  0  0  0
  162.7420  209.4720  147.8870 N   0  0  0  0  0  0  0  0  0  0  0  0
  162.7060  208.5090  148.9350 C   0  0  0  0  0  0  0  0  0  0  0  0
  162.3240  210.5370  149.9220 C   0  0  1  0  0  3  0  0  0  0  0  0
  160.4610  212.0330  149.5270 C   0  0  0  0  0  3  0  0  0  0  0  0
  162.0380  211.7380  147.7160 N   0  0  0  0  0  0  0  0  0  0  0  0
  162.2360  208.3350  151.3970 C   0  0  0  0  0  2  0  0  0  0  0  0
  162.3330  209.9640  153.2720 C   0  0  0  0  0  3  0  0  0  0  0  0
  160.3490  209.4240  152.5110 N   0  0  0  0  0  0  0  0  0  0  0  0
  160.1980  210.3280  153.4940 C   0  0  0  0  0  0  0  0  0  0  0  0
  161.4250  210.7040  154.0120 C   0  0  0  0  0  3  0  0  0  0  0  0
  161.6470  209.2110  152.3950 N   0  0  0  0  0  0  0  0  0  0  0  0
  158.8800  210.8500  153.9590 C   0  0  0  0  0  3  0  0  0  0  0  0
  158.6620  212.2730  153.4450 C   0  0  0  0  0  2  0  0  0  0  0  0
  157.3670  212.8370  154.0250 C   0  0  0  0  0  2  0  0  0  0  0  0
  156.1660  213.3710  155.9570 C   0  0  0  0  0  1  0  0  0  0  0  0
  157.4290  212.8330  155.4860 N   0  0  0  0  0  0  0  0  0  0  0  0
  158.8000  210.8070  155.4850 C   0  0  0  0  0  2  0  0  0  0  0  0
  157.4930  211.4460  155.9450 C   0  0  0  0  0  2  0  0  0  0  0  0
  1 29  1  0  0  0  0
  2 14  1  0  0  0  0
  2 18  1  6  0  0  0
  3 12  1  0  0  0  0
  4 10  1  0  0  0  0
  4  6  2  0  0  0  0
  5  3  2  0  0  0  0
  6  2  1  0  0  0  0
  7  4  1  0  0  0  0
  8 14  1  0  0  0  0
  9 13  1  6  0  0  0
  9  8  1  0  0  0  0
 10  9  1  0  0  0  0
 10  1  1  1  0  0  0
 11  5  1  0  0  0  0
 11  7  2  0  0  0  0
 12  6  1  0  0  0  0
 15 17  1  0  0  0  0
 15  5  1  0  0  0  0
 16 15  2  0  0  0  0
 18 19  1  0  0  0  0
 19 21  1  0  0  0  0
 20 23  1  0  0  0  0
 21 20  2  0  0  0  0
 23 22  1  0  0  0  0
 25 31  1  0  0  0  0
 27 33  1  0  0  0  0
 28 24  2  0  0  0  0
 28 29  1  0  0  0  0
 29 27  2  0  0  0  0
 30 24  1  6  0  0  0
 30 27  1  0  0  0  0
 30 26  1  0  0  0  0
 31 26  2  0  0  0  0
 32 25  2  0  0  0  0
 32 24  1  0  0  0  0
 33 38  1  0  0  0  0
 34 37  2  0  0  0  0
 35 36  2  0  0  0  0
 36 39  1  0  0  0  0
 36 37  1  0  0  0  0
 38 35  1  0  0  0  0
 38 34  1  0  0  0  0
 39 44  1  0  0  0  0
 40 39  1  0  0  0  0
 40 41  1  0  0  0  0
 41 43  1  0  0  0  0
 43 45  1  0  0  0  0
 43 42  1  0  0  0  0
 44 45  1  0  0  0  0
M  END
>  <MODEL>
5

>  <REMARK>
 VINA RESULT:      -1.9      2.123      6.082
  Name = 
  10 active torsions:
  status: ('A' for Active; 'I' for Inactive)
    1  A    between atoms: C_3  and  O_25
    2  A    between atoms: C_4  and  C_34
    3  A    between atoms: C_7  and  O_25
    4  A    between atoms: C_7  and  C_40
    5  A    between atoms: C_8  and  C_16
    6  A    between atoms: C_11  and  C_18
    7  A    between atoms: C_12  and  C_30
    8  A    between atoms: C_12  and  C_32
    9  A    between atoms: C_21  and  C_22
   10  A    between atoms: C_22  and  N_39
                            x       y       z     vdW  Elec       q    Type
                         _______ _______ _______ _____ _____    ______ ____

>  <TORSDO>
F 10

$$$$
=
 OpenBabel11042421353D

 45 50  0  0  1  0  0  0  0  0999 V2000
  162.3480  206.6510  150.7650 C   0  0  0  0  0  2  0  0  0  0  0  0
  161.5780  203.4750  149.6160 C   0  0  1  0  0  3  0  0  0  0  0  0
  161.9680  203.7950  146.0770 C   0  0  0  0  0  3  0  0  0  0  0  0
  161.8610  205.7470  148.4540 C   0  0  0  0  0  0  0  0  0  0  0  0
  161.7490  204.9540  145.4520 C   0  0  0  0  0  0  0  0  0  0  0  0
  162.0030  204.3920  148.4730 C   0  0  0  0  0  0  0  0  0  0  0  0
  162.2670  206.5800  147.2990 C   0  0  0  0  0  3  0  0  0  0  0  0
  159.7550  204.6700  150.2740 C   0  0  0  0  0  2  0  0  0  0  0  0
  159.9410  206.1710  150.1110 C   0  0  1  0  0  3  0  0  0  0  0  0
  161.3440  206.5520  149.6220 C   0  0  1  0  0  3  0  0  0  0  0  0
  162.2110  206.2470  146.0040 C   0  0  0  0  0  3  0  0  0  0  0  0
  162.7240  203.6980  147.3580 C   0  0  0  0  0  2  0  0  0  0  0  0
  158.8880  206.7140  149.1650 C   0  0  0  0  0  1  0  0  0  0  0  0
  160.9520  204.0910  150.7210 O   0  0  0  0  0  0  0  0  0  0  0  0
  161.0970  204.9390  144.1300 C   0  0  0  0  0  0  0  0  0  0  0  0
  159.9890  204.1320  143.9000 O   0  0  0  0  0  1  0  0  0  0  0  0
  161.5380  205.6560  143.1920 O   0  0  0  0  0  0  0  0  0  0  0  0
  160.8170  202.3960  149.1450 O   0  0  0  0  0  0  0  0  0  0  0  0
  161.6600  201.2880  149.2510 C   0  0  0  0  0  2  0  0  0  0  0  0
  160.7700  200.8530  147.0180 C   0  0  0  0  0  3  0  0  0  0  0  0
  161.5100  200.4330  148.0400 C   0  0  0  0  0  3  0  0  0  0  0  0
  160.0780  200.8400  144.6650 C   0  0  0  0  0  1  0  0  0  0  0  0
  160.6230  200.0030  145.8050 C   0  0  0  0  0  2  0  0  0  0  0  0
  160.6820  207.6380  153.7980 C   0  0  0  0  0  0  0  0  0  0  0  0
  160.8880  208.0780  156.0940 C   0  0  0  0  0  3  0  0  0  0  0  0
  162.0020  209.5380  154.5080 N   0  0  0  0  0  0  0  0  0  0  0  0
  161.9410  208.6610  152.2040 C   0  0  0  0  0  0  0  0  0  0  0  0
  161.0190  206.7190  152.9560 N   0  0  0  0  0  0  0  0  0  0  0  0
  161.7520  207.3760  151.9280 C   0  0  0  0  0  0  0  0  0  0  0  0
  161.1660  209.0010  153.4280 C   0  0  1  0  0  3  0  0  0  0  0  0
  161.8380  209.1660  155.7490 C   0  0  0  0  0  3  0  0  0  0  0  0
  160.3630  207.3420  155.1570 N   0  0  0  0  0  0  0  0  0  0  0  0
  162.6800  209.6370  151.3450 C   0  0  0  0  0  2  0  0  0  0  0  0
  160.8330  211.2730  151.6450 C   0  0  0  0  0  3  0  0  0  0  0  0
  161.8390  211.2390  149.6980 N   0  0  0  0  0  0  0  0  0  0  0  0
  160.8970  212.1980  149.6750 C   0  0  0  0  0  0  0  0  0  0  0  0
  160.2290  212.2620  150.8850 C   0  0  0  0  0  3  0  0  0  0  0  0
  161.7810  210.6860  150.8950 N   0  0  0  0  0  0  0  0  0  0  0  0
  160.6170  213.0710  148.4980 C   0  0  0  0  0  3  0  0  0  0  0  0
  159.1620  213.5410  148.5210 C   0  0  0  0  0  2  0  0  0  0  0  0
  158.8580  214.3330  147.2520 C   0  0  0  0  0  2  0  0  0  0  0  0
  158.7990  214.3260  144.9160 C   0  0  0  0  0  1  0  0  0  0  0  0
  159.1010  213.5030  146.0730 N   0  0  0  0  0  0  0  0  0  0  0  0
  160.9250  212.3260  147.1990 C   0  0  0  0  0  2  0  0  0  0  0  0
  160.5280  213.1940  146.0080 C   0  0  0  0  0  2  0  0  0  0  0  0
  1 29  1  0  0  0  0
  2 18  1  6  0  0  0
  2 14  1  0  0  0  0
  3 12  1  0  0  0  0
  4  6  2  0  0  0  0
  4 10  1  0  0  0  0
  5 11  1  0  0  0  0
  5  3  2  0  0  0  0
  6  2  1  0  0  0  0
  7  4  1  0  0  0  0
  8 14  1  0  0  0  0
  9 13  1  6  0  0  0
  9  8  1  0  0  0  0
 10  9  1  0  0  0  0
 10  1  1  1  0  0  0
 11  7  2  0  0  0  0
 12  6  1  0  0  0  0
 15  5  1  0  0  0  0
 16 15  1  0  0  0  0
 17 15  2  0  0  0  0
 18 19  1  0  0  0  0
 20 21  2  0  0  0  0
 21 19  1  0  0  0  0
 22 23  1  0  0  0  0
 23 20  1  0  0  0  0
 24 32  1  0  0  0  0
 26 31  2  0  0  0  0
 28 24  2  0  0  0  0
 29 27  2  0  0  0  0
 29 28  1  0  0  0  0
 30 27  1  6  0  0  0
 30 24  1  0  0  0  0
 30 26  1  0  0  0  0
 31 25  1  0  0  0  0
 32 25  2  0  0  0  0
 33 27  1  0  0  0  0
 35 38  1  0  0  0  0
 36 35  2  0  0  0  0
 36 37  1  0  0  0  0
 37 34  2  0  0  0  0
 38 33  1  0  0  0  0
 38 34  1  0  0  0  0
 39 40  1  0  0  0  0
 39 36  1  0  0  0  0
 41 40  1  0  0  0  0
 42 43  1  0  0  0  0
 43 41  1  0  0  0  0
 44 39  1  0  0  0  0
 45 43  1  0  0  0  0
 45 44  1  0  0  0  0
M  END
>  <MODEL>
6

>  <REMARK>
 VINA RESULT:      -1.6      2.087      3.946
  Name = 
  10 active torsions:
  status: ('A' for Active; 'I' for Inactive)
    1  A    between atoms: C_3  and  O_25
    2  A    between atoms: C_4  and  C_34
    3  A    between atoms: C_7  and  O_25
    4  A    between atoms: C_7  and  C_40
    5  A    between atoms: C_8  and  C_16
    6  A    between atoms: C_11  and  C_18
    7  A    between atoms: C_12  and  C_30
    8  A    between atoms: C_12  and  C_32
    9  A    between atoms: C_21  and  C_22
   10  A    between atoms: C_22  and  N_39
                            x       y       z     vdW  Elec       q    Type
                         _______ _______ _______ _____ _____    ______ ____

>  <TORSDO>
F 10

$$$$
=
 OpenBabel11042421353D

 45 50  0  0  1  0  0  0  0  0999 V2000
  160.0160  213.7130  153.3390 C   0  0  0  0  0  2  0  0  0  0  0  0
  161.0070  210.9080  151.5650 C   0  0  1  0  0  3  0  0  0  0  0  0
  161.5740  212.2040  148.2830 C   0  0  0  0  0  3  0  0  0  0  0  0
  160.2800  213.2680  150.8640 C   0  0  0  0  0  0  0  0  0  0  0  0
  160.8910  213.2520  147.8170 C   0  0  0  0  0  0  0  0  0  0  0  0
  161.0570  212.1610  150.6970 C   0  0  0  0  0  0  0  0  0  0  0  0
  160.3540  214.4440  149.9660 C   0  0  0  0  0  3  0  0  0  0  0  0
  158.7760  210.9590  152.0100 C   0  0  0  0  0  2  0  0  0  0  0  0
  158.2290  212.3730  152.1300 C   0  0  1  0  0  3  0  0  0  0  0  0
  159.3150  213.4490  152.0110 C   0  0  1  0  0  3  0  0  0  0  0  0
  160.6070  214.4420  148.6520 C   0  0  0  0  0  3  0  0  0  0  0  0
  162.1390  212.1550  149.6610 C   0  0  0  0  0  2  0  0  0  0  0  0
  157.1530  212.5930  151.0830 C   0  0  0  0  0  1  0  0  0  0  0  0
  160.0470  210.8930  152.5990 O   0  0  0  0  0  0  0  0  0  0  0  0
  160.4740  213.2610  146.4030 C   0  0  0  0  0  0  0  0  0  0  0  0
  159.1450  213.4780  146.0610 O   0  0  0  0  0  1  0  0  0  0  0  0
  161.3190  213.0700  145.4880 O   0  0  0  0  0  0  0  0  0  0  0  0
  160.9210  209.7490  150.7810 O   0  0  0  0  0  0  0  0  0  0  0  0
  162.2420  209.3430  150.5910 C   0  0  0  0  0  2  0  0  0  0  0  0
  161.2100  207.5250  149.3270 C   0  0  0  0  0  3  0  0  0  0  0  0
  162.2870  208.2700  149.5570 C   0  0  0  0  0  3  0  0  0  0  0  0
  160.9270  205.1210  148.9310 C   0  0  0  0  0  1  0  0  0  0  0  0
  161.2510  206.4560  148.2910 C   0  0  0  0  0  2  0  0  0  0  0  0
  157.1060  214.4230  155.3350 C   0  0  0  0  0  0  0  0  0  0  0  0
  155.1730  213.5700  156.3540 C   0  0  0  0  0  3  0  0  0  0  0  0
  157.3460  212.8530  157.1600 N   0  0  0  0  0  0  0  0  0  0  0  0
  159.1930  213.5940  155.7020 C   0  0  0  0  0  0  0  0  0  0  0  0
  157.6900  214.3830  154.1840 N   0  0  0  0  0  0  0  0  0  0  0  0
  159.0150  213.9250  154.4290 C   0  0  0  0  0  0  0  0  0  0  0  0
  157.9760  213.9820  156.4660 C   0  0  1  0  0  3  0  0  0  0  0  0
  156.0510  212.6910  157.1680 C   0  0  0  0  0  3  0  0  0  0  0  0
  155.6860  214.3730  155.4670 N   0  0  0  0  0  0  0  0  0  0  0  0
  160.4580  213.0650  156.2970 C   0  0  0  0  0  2  0  0  0  0  0  0
  159.6320  210.9260  157.2560 C   0  0  0  0  0  3  0  0  0  0  0  0
  161.0430  210.7990  155.5830 N   0  0  0  0  0  0  0  0  0  0  0  0
  160.6940  209.5510  155.9420 C   0  0  0  0  0  0  0  0  0  0  0  0
  159.8010  209.5740  156.9990 C   0  0  0  0  0  3  0  0  0  0  0  0
  160.3970  211.6160  156.3930 N   0  0  0  0  0  0  0  0  0  0  0  0
  161.2060  208.3140  155.2840 C   0  0  0  0  0  3  0  0  0  0  0  0
  161.4210  208.5580  153.7900 C   0  0  0  0  0  2  0  0  0  0  0  0
  161.8300  207.2540  153.1100 C   0  0  0  0  0  2  0  0  0  0  0  0
  161.2620  205.0360  152.6460 C   0  0  0  0  0  1  0  0  0  0  0  0
  160.7960  206.2390  153.3110 N   0  0  0  0  0  0  0  0  0  0  0  0
  160.2370  207.1530  155.5100 C   0  0  0  0  0  2  0  0  0  0  0  0
  160.7210  205.9290  154.7370 C   0  0  0  0  0  2  0  0  0  0  0  0
  1 29  1  0  0  0  0
  2 18  1  6  0  0  0
  2 14  1  0  0  0  0
  3 12  1  0  0  0  0
  4 10  1  0  0  0  0
  5  3  2  0  0  0  0
  5 11  1  0  0  0  0
  6  4  2  0  0  0  0
  6  2  1  0  0  0  0
  7  4  1  0  0  0  0
  8  9  1  0  0  0  0
  8 14  1  0  0  0  0
  9 13  1  6  0  0  0
 10  9  1  0  0  0  0
 10  1  1  1  0  0  0
 11  7  2  0  0  0  0
 12  6  1  0  0  0  0
 15  5  1  0  0  0  0
 16 15  1  0  0  0  0
 17 15  2  0  0  0  0
 19 18  1  0  0  0  0
 20 21  2  0  0  0  0
 21 19  1  0  0  0  0
 23 22  1  0  0  0  0
 23 20  1  0  0  0  0
 24 32  1  0  0  0  0
 25 31  1  0  0  0  0
 26 31  2  0  0  0  0
 27 33  1  0  0  0  0
 27 30  1  0  0  0  0
 28 29  1  0  0  0  0
 28 24  2  0  0  0  0
 29 27  2  0  0  0  0
 30 24  1  6  0  0  0
 30 26  1  0  0  0  0
 32 25  2  0  0  0  0
 33 38  1  0  0  0  0
 35 36  2  0  0  0  0
 35 38  1  0  0  0  0
 36 37  1  0  0  0  0
 37 34  2  0  0  0  0
 38 34  1  0  0  0  0
 39 44  1  0  0  0  0
 39 36  1  0  0  0  0
 40 39  1  0  0  0  0
 41 43  1  0  0  0  0
 41 40  1  0  0  0  0
 42 43  1  0  0  0  0
 43 45  1  0  0  0  0
 45 44  1  0  0  0  0
M  END
>  <MODEL>
7

>  <REMARK>
 VINA RESULT:      -1.4      3.061      7.411
  Name = 
  10 active torsions:
  status: ('A' for Active; 'I' for Inactive)
    1  A    between atoms: C_3  and  O_25
    2  A    between atoms: C_4  and  C_34
    3  A    between atoms: C_7  and  O_25
    4  A    between atoms: C_7  and  C_40
    5  A    between atoms: C_8  and  C_16
    6  A    between atoms: C_11  and  C_18
    7  A    between atoms: C_12  and  C_30
    8  A    between atoms: C_12  and  C_32
    9  A    between atoms: C_21  and  C_22
   10  A    between atoms: C_22  and  N_39
                            x       y       z     vdW  Elec       q    Type
                         _______ _______ _______ _____ _____    ______ ____

>  <TORSDO>
F 10

$$$$
=
 OpenBabel11042421353D

 45 50  0  0  1  0  0  0  0  0999 V2000
  160.3190  211.0630  150.1530 C   0  0  0  0  0  2  0  0  0  0  0  0
  160.7980  207.9390  151.5680 C   0  0  1  0  0  3  0  0  0  0  0  0
  161.0230  208.6750  155.0590 C   0  0  0  0  0  3  0  0  0  0  0  0
  161.0300  210.3320  152.4660 C   0  0  0  0  0  0  0  0  0  0  0  0
  161.5010  209.8410  155.4980 C   0  0  0  0  0  0  0  0  0  0  0  0
  160.6940  209.0230  152.6360 C   0  0  0  0  0  0  0  0  0  0  0  0
  160.9360  211.3330  153.5540 C   0  0  0  0  0  3  0  0  0  0  0  0
  162.6460  208.7520  150.5170 C   0  0  0  0  0  2  0  0  0  0  0  0
  162.7050  210.2720  150.5160 C   0  0  1  0  0  3  0  0  0  0  0  0
  161.4660  210.9210  151.1460 C   0  0  1  0  0  3  0  0  0  0  0  0
  161.1470  211.1290  154.8600 C   0  0  0  0  0  3  0  0  0  0  0  0
  160.0680  208.5710  153.9190 C   0  0  0  0  0  2  0  0  0  0  0  0
  163.9610  210.7330  151.2290 C   0  0  0  0  0  1  0  0  0  0  0  0
  161.3230  208.3310  150.3180 O   0  0  0  0  0  0  0  0  0  0  0  0
  162.3450  209.8550  156.7070 C   0  0  0  0  0  0  0  0  0  0  0  0
  162.7750  211.0590  157.2510 O   0  0  0  0  0  0  0  0  0  0  0  0
  162.6890  208.7760  157.2580 O   0  0  0  0  0  1  0  0  0  0  0  0
  161.4610  206.8050  152.0580 O   0  0  0  0  0  0  0  0  0  0  0  0
  161.9800  206.1740  150.9260 C   0  0  0  0  0  2  0  0  0  0  0  0
  161.2060  203.9350  151.5230 C   0  0  0  0  0  3  0  0  0  0  0  0
  161.1990  204.9350  150.6470 C   0  0  0  0  0  3  0  0  0  0  0  0
  160.9600  202.0260  150.0030 C   0  0  0  0  0  1  0  0  0  0  0  0
  160.4220  202.6990  151.2490 C   0  0  0  0  0  2  0  0  0  0  0  0
  161.6900  213.2350  147.6310 C   0  0  0  0  0  0  0  0  0  0  0  0
  161.7680  213.7880  145.3520 C   0  0  0  0  0  3  0  0  0  0  0  0
  159.6960  214.1090  146.5740 N   0  0  0  0  0  0  0  0  0  0  0  0
  159.7610  213.1180  148.8320 C   0  0  0  0  0  0  0  0  0  0  0  0
  161.7870  212.1840  148.3740 N   0  0  0  0  0  0  0  0  0  0  0  0
  160.6070  212.1520  149.1690 C   0  0  0  0  0  0  0  0  0  0  0  0
  160.4280  214.0060  147.8410 C   0  0  1  0  0  3  0  0  0  0  0  0
  160.3120  214.0740  145.4240 C   0  0  0  0  0  3  0  0  0  0  0  0
  162.4070  213.3660  146.4050 N   0  0  0  0  0  0  0  0  0  0  0  0
  158.4250  213.3640  149.4550 C   0  0  0  0  0  2  0  0  0  0  0  0
  159.4330  214.4530  151.4490 C   0  0  0  0  0  3  0  0  0  0  0  0
  157.8220  213.0090  151.8000 N   0  0  0  0  0  0  0  0  0  0  0  0
  158.2150  213.5060  152.9860 C   0  0  0  0  0  0  0  0  0  0  0  0
  159.2360  214.4260  152.8210 C   0  0  0  0  0  3  0  0  0  0  0  0
  158.5740  213.5880  150.8830 N   0  0  0  0  0  0  0  0  0  0  0  0
  157.6260  213.1120  154.2980 C   0  0  0  0  0  3  0  0  0  0  0  0
  157.5970  211.5890  154.4300 C   0  0  0  0  0  2  0  0  0  0  0  0
  156.8840  211.1990  155.7230 C   0  0  0  0  0  2  0  0  0  0  0  0
  154.9190  211.3260  156.9810 C   0  0  0  0  0  1  0  0  0  0  0  0
  155.5210  211.7310  155.7240 N   0  0  0  0  0  0  0  0  0  0  0  0
  156.2200  213.6960  154.4460 C   0  0  0  0  0  2  0  0  0  0  0  0
  155.5930  213.1910  155.7420 C   0  0  0  0  0  2  0  0  0  0  0  0
  2 18  1  1  0  0  0
  2  6  1  0  0  0  0
  3  5  2  0  0  0  0
  4  6  2  0  0  0  0
  4  7  1  0  0  0  0
  5 15  1  0  0  0  0
  6 12  1  0  0  0  0
  7 11  2  0  0  0  0
  9  8  1  0  0  0  0
  9 10  1  0  0  0  0
  9 13  1  1  0  0  0
 10  1  1  6  0  0  0
 10  4  1  0  0  0  0
 11  5  1  0  0  0  0
 12  3  1  0  0  0  0
 14  8  1  0  0  0  0
 14  2  1  0  0  0  0
 15 16  2  0  0  0  0
 15 17  1  0  0  0  0
 19 18  1  0  0  0  0
 21 19  1  0  0  0  0
 21 20  2  0  0  0  0
 22 23  1  0  0  0  0
 23 20  1  0  0  0  0
 24 30  1  0  0  0  0
 24 28  2  0  0  0  0
 25 31  1  0  0  0  0
 25 32  2  0  0  0  0
 27 29  2  0  0  0  0
 27 33  1  0  0  0  0
 28 29  1  0  0  0  0
 29  1  1  0  0  0  0
 30 26  1  6  0  0  0
 30 27  1  0  0  0  0
 31 26  2  0  0  0  0
 32 24  1  0  0  0  0
 33 38  1  0  0  0  0
 34 37  2  0  0  0  0
 35 36  2  0  0  0  0
 36 39  1  0  0  0  0
 37 36  1  0  0  0  0
 38 34  1  0  0  0  0
 38 35  1  0  0  0  0
 39 40  1  0  0  0  0
 39 44  1  0  0  0  0
 40 41  1  0  0  0  0
 41 43  1  0  0  0  0
 43 45  1  0  0  0  0
 43 42  1  0  0  0  0
 44 45  1  0  0  0  0
M  END
>  <MODEL>
8

>  <REMARK>
 VINA RESULT:      -1.3      3.072      7.399
  Name = 
  10 active torsions:
  status: ('A' for Active; 'I' for Inactive)
    1  A    between atoms: C_3  and  O_25
    2  A    between atoms: C_4  and  C_34
    3  A    between atoms: C_7  and  O_25
    4  A    between atoms: C_7  and  C_40
    5  A    between atoms: C_8  and  C_16
    6  A    between atoms: C_11  and  C_18
    7  A    between atoms: C_12  and  C_30
    8  A    between atoms: C_12  and  C_32
    9  A    between atoms: C_21  and  C_22
   10  A    between atoms: C_22  and  N_39
                            x       y       z     vdW  Elec       q    Type
                         _______ _______ _______ _____ _____    ______ ____

>  <TORSDO>
F 10

$$$$
