=
 OpenBabel11052411043D

 34 40  0  0  1  0  0  0  0  0999 V2000
  161.7550  210.1940  154.0110 C   0  0  0  0  0  3  0  0  0  0  0  0
  161.0680  204.2470  152.7360 C   0  0  0  0  0  3  0  0  0  0  0  0
  160.2320  201.4300  148.6030 C   0  0  2  0  0  3  0  0  0  0  0  0
  162.1640  209.8600  151.6450 C   0  0  0  0  0  0  0  0  0  0  0  0
  161.9310  207.9510  150.5730 N   0  0  0  0  0  0  0  0  0  0  0  0
  162.1760  210.1430  150.2770 C   0  0  1  0  0  3  0  0  0  0  0  0
  160.9990  205.6720  150.7970 C   0  0  0  0  0  0  0  0  0  0  0  0
  161.1830  205.5320  152.2010 C   0  0  0  0  0  0  0  0  0  0  0  0
  161.2820  206.9610  148.6140 C   0  0  2  0  0  0  0  0  0  0  0  0
  160.1080  206.2020  148.0130 C   0  0  0  0  0  2  0  0  0  0  0  0
  161.3000  206.6200  153.1570 N   0  0  0  0  0  0  0  0  0  0  0  0
  162.0290  208.9060  149.6580 C   0  0  2  0  0  3  0  0  0  0  0  0
  162.0270  211.4820  149.6420 C   0  0  0  0  0  1  0  0  0  0  0  0
  160.4800  203.3150  150.6290 C   0  0  0  0  0  0  0  0  0  0  0  0
  160.0930  204.7480  148.5650 C   0  0  0  0  0  2  0  0  0  0  0  0
  161.9860  208.5050  151.7680 C   0  0  0  0  0  0  0  0  0  0  0  0
  161.5390  208.7690  154.1570 N   0  0  0  0  0  2  0  0  0  0  0  0
  160.7520  203.1840  151.9530 N   0  0  0  0  0  0  0  0  0  0  0  0
  162.0390  210.7450  152.8140 C   0  0  0  0  0  3  0  0  0  0  0  0
  161.5920  207.8870  153.0230 C   0  0  0  0  0  0  0  0  0  0  0  0
  161.0100  206.9830  150.1060 C   0  0  2  0  0  3  0  0  0  0  0  0
  160.1320  202.1570  149.8720 N   0  0  0  0  0  0  0  0  0  0  0  0
  160.0590  200.7660  149.7070 O   0  0  0  0  0  0  0  0  0  0  0  0
  160.5360  204.5780  150.0240 C   0  0  0  0  0  0  0  0  0  0  0  0
  161.4370  208.4810  148.3370 C   0  0  0  0  0  2  0  0  0  0  0  0
  162.6140  206.2550  148.2740 C   0  0  0  0  0  2  0  0  0  0  0  0
  162.7730  206.1050  146.8660 O   0  0  0  0  0  0  0  0  0  0  0  0
  161.9850  204.1420  145.5560 C   0  0  0  0  0  1  0  0  0  0  0  0
  163.0580  204.8730  146.2760 C   0  0  0  0  0  0  0  0  0  0  0  0
  164.2110  204.3690  146.3530 O   0  0  0  0  0  0  0  0  0  0  0  0
  161.6880  201.3320  148.1850 C   0  0  0  0  0  2  0  0  0  0  0  0
  161.9180  200.0800  147.3600 C   0  0  0  0  0  2  0  0  0  0  0  0
  161.1720  200.1410  146.1830 O   0  0  0  0  0  0  0  0  0  0  0  0
  161.2270  198.8470  145.6650 C   0  0  0  0  0  1  0  0  0  0  0  0
  1 17  1  0  0  0  0
  3 31  1  1  0  0  0
  3 23  1  0  0  0  0
  3 22  1  0  0  0  0
  4 16  2  0  0  0  0
  4 19  1  0  0  0  0
  5 16  1  0  0  0  0
  6 13  1  1  0  0  0
  6  4  1  0  0  0  0
  7  8  2  0  0  0  0
  8  2  1  0  0  0  0
  8 11  1  0  0  0  0
  9 26  1  6  0  0  0
  9 21  1  0  0  0  0
 10 15  1  0  0  0  0
 10  9  1  0  0  0  0
 12 25  1  1  0  0  0
 12  6  1  0  0  0  0
 12  5  1  0  0  0  0
 14 18  1  0  0  0  0
 15 24  1  0  0  0  0
 16 20  1  0  0  0  0
 18  2  2  0  0  0  0
 19  1  2  0  0  0  0
 20 11  2  0  0  0  0
 20 17  1  0  0  0  0
 21  5  1  0  0  0  0
 21  7  1  1  0  0  0
 22 14  1  0  0  0  0
 23 22  1  0  0  0  0
 24 14  2  0  0  0  0
 24  7  1  0  0  0  0
 25  9  1  0  0  0  0
 27 26  1  0  0  0  0
 28 29  1  0  0  0  0
 29 30  2  0  0  0  0
 29 27  1  0  0  0  0
 32 31  1  0  0  0  0
 33 32  1  0  0  0  0
 34 33  1  0  0  0  0
M  END
>  <MODEL>
1

>  <REMARK>
 VINA RESULT:      -6.3      0.000      0.000
  Name = 
  6 active torsions:
  status: ('A' for Active; 'I' for Inactive)
    1  A    between atoms: C_4  and  C_32
    2  A    between atoms: C_10  and  C_11
    3  A    between atoms: C_11  and  O_12
    4  A    between atoms: O_12  and  C_28
    5  A    between atoms: O_13  and  C_25
    6  A    between atoms: C_25  and  C_32
                            x       y       z     vdW  Elec       q    Type
                         _______ _______ _______ _____ _____    ______ ____

>  <TORSDO>
F 6

$$$$
=
 OpenBabel11052411043D

 34 40  0  0  1  0  0  0  0  0999 V2000
  161.0950  203.0750  150.0370 C   0  0  0  0  0  3  0  0  0  0  0  0
  160.5820  206.6030  155.0130 C   0  0  0  0  0  3  0  0  0  0  0  0
  161.5020  211.4430  156.2170 C   0  0  2  0  0  3  0  0  0  0  0  0
  161.0800  205.3960  149.3390 C   0  0  0  0  0  0  0  0  0  0  0  0
  161.0540  207.1300  150.6950 N   0  0  0  0  0  0  0  0  0  0  0  0
  161.3980  206.5260  148.5800 C   0  0  1  0  0  3  0  0  0  0  0  0
  161.3580  207.7800  153.0610 C   0  0  0  0  0  0  0  0  0  0  0  0
  160.8800  206.5750  153.6490 C   0  0  0  0  0  0  0  0  0  0  0  0
  161.8120  209.2640  151.0360 C   0  0  2  0  0  0  0  0  0  0  0  0
  162.8650  210.0230  151.8280 C   0  0  0  0  0  2  0  0  0  0  0  0
  160.8440  205.2720  153.0070 N   0  0  0  0  0  0  0  0  0  0  0  0
  161.3630  207.5820  149.4860 C   0  0  2  0  0  3  0  0  0  0  0  0
  161.9790  206.5460  147.2100 C   0  0  0  0  0  1  0  0  0  0  0  0
  161.3240  208.8520  155.2300 C   0  0  0  0  0  0  0  0  0  0  0  0
  162.4290  210.1140  153.3180 C   0  0  0  0  0  2  0  0  0  0  0  0
  160.9040  205.8220  150.6310 C   0  0  0  0  0  0  0  0  0  0  0  0
  160.9350  203.5050  151.4120 N   0  0  0  0  0  2  0  0  0  0  0  0
  160.7800  207.7230  155.7540 N   0  0  0  0  0  0  0  0  0  0  0  0
  161.1850  203.9620  149.0260 C   0  0  0  0  0  3  0  0  0  0  0  0
  160.8930  204.9010  151.7550 C   0  0  0  0  0  0  0  0  0  0  0  0
  161.7900  207.8750  151.6470 C   0  0  2  0  0  3  0  0  0  0  0  0
  161.5260  209.9840  156.0740 N   0  0  0  0  0  0  0  0  0  0  0  0
  161.2970  210.6950  157.2610 O   0  0  0  0  0  0  0  0  0  0  0  0
  161.6870  208.8910  153.8760 C   0  0  0  0  0  0  0  0  0  0  0  0
  162.0790  208.9080  149.5480 C   0  0  0  0  0  2  0  0  0  0  0  0
  160.4420  209.9690  151.1410 C   0  0  0  0  0  2  0  0  0  0  0  0
  160.5950  211.3810  151.2440 O   0  0  0  0  0  0  0  0  0  0  0  0
  158.6490  211.5260  152.7880 C   0  0  0  0  0  1  0  0  0  0  0  0
  159.7220  212.1730  151.9910 C   0  0  0  0  0  0  0  0  0  0  0  0
  159.8280  213.4290  151.9920 O   0  0  0  0  0  0  0  0  0  0  0  0
  160.1720  211.9810  155.7220 C   0  0  0  0  0  2  0  0  0  0  0  0
  159.8220  213.2710  156.4410 C   0  0  0  0  0  2  0  0  0  0  0  0
  158.7100  213.0740  157.2600 O   0  0  0  0  0  0  0  0  0  0  0  0
  157.8130  212.3580  156.4670 C   0  0  0  0  0  1  0  0  0  0  0  0
  1 17  1  0  0  0  0
  2 18  1  0  0  0  0
  3 31  1  6  0  0  0
  3 23  1  0  0  0  0
  4 16  2  0  0  0  0
  5 21  1  0  0  0  0
  6 13  1  1  0  0  0
  6  4  1  0  0  0  0
  6 12  1  0  0  0  0
  7  8  1  0  0  0  0
  7 24  2  0  0  0  0
  8  2  2  0  0  0  0
  9 26  1  1  0  0  0
  9 21  1  0  0  0  0
  9 10  1  0  0  0  0
 10 15  1  0  0  0  0
 11  8  1  0  0  0  0
 12 25  1  1  0  0  0
 12  5  1  0  0  0  0
 14 18  2  0  0  0  0
 14 22  1  0  0  0  0
 15 24  1  0  0  0  0
 16  5  1  0  0  0  0
 16 20  1  0  0  0  0
 17 20  1  0  0  0  0
 19  4  1  0  0  0  0
 19  1  2  0  0  0  0
 20 11  2  0  0  0  0
 21  7  1  1  0  0  0
 22  3  1  0  0  0  0
 22 23  1  0  0  0  0
 24 14  1  0  0  0  0
 25  9  1  0  0  0  0
 26 27  1  0  0  0  0
 27 29  1  0  0  0  0
 29 30  2  0  0  0  0
 29 28  1  0  0  0  0
 31 32  1  0  0  0  0
 32 33  1  0  0  0  0
 34 33  1  0  0  0  0
M  END
>  <MODEL>
2

>  <REMARK>
 VINA RESULT:      -5.9      4.082      8.412
  Name = 
  6 active torsions:
  status: ('A' for Active; 'I' for Inactive)
    1  A    between atoms: C_4  and  C_32
    2  A    between atoms: C_10  and  C_11
    3  A    between atoms: C_11  and  O_12
    4  A    between atoms: O_12  and  C_28
    5  A    between atoms: O_13  and  C_25
    6  A    between atoms: C_25  and  C_32
                            x       y       z     vdW  Elec       q    Type
                         _______ _______ _______ _____ _____    ______ ____

>  <TORSDO>
F 6

$$$$
=
 OpenBabel11052411043D

 34 40  0  0  1  0  0  0  0  0999 V2000
  160.8180  201.5170  151.9440 C   0  0  0  0  0  3  0  0  0  0  0  0
  161.0100  207.6340  151.8330 C   0  0  0  0  0  3  0  0  0  0  0  0
  162.1890  211.2290  148.4560 C   0  0  2  0  0  3  0  0  0  0  0  0
  160.7730  202.2490  149.6340 C   0  0  0  0  0  0  0  0  0  0  0  0
  160.9570  204.3350  148.9580 N   0  0  0  0  0  0  0  0  0  0  0  0
  161.0230  202.2230  148.2590 C   0  0  1  0  0  3  0  0  0  0  0  0
  161.5670  206.6040  149.7290 C   0  0  0  0  0  0  0  0  0  0  0  0
  161.1360  206.4660  151.0780 C   0  0  0  0  0  0  0  0  0  0  0  0
  161.8040  205.7240  147.3460 C   0  0  2  0  0  0  0  0  0  0  0  0
  162.9650  206.6770  147.1090 C   0  0  0  0  0  2  0  0  0  0  0  0
  160.9900  205.2130  151.8000 N   0  0  0  0  0  0  0  0  0  0  0  0
  161.1260  203.5620  147.8940 C   0  0  2  0  0  3  0  0  0  0  0  0
  161.4310  201.0440  147.4480 C   0  0  0  0  0  1  0  0  0  0  0  0
  161.8280  208.9870  150.0560 C   0  0  0  0  0  0  0  0  0  0  0  0
  162.7190  208.0000  147.8890 C   0  0  0  0  0  2  0  0  0  0  0  0
  160.7690  203.5670  150.0130 C   0  0  0  0  0  0  0  0  0  0  0  0
  160.8390  202.9040  152.3650 N   0  0  0  0  0  2  0  0  0  0  0  0
  161.3250  208.8470  151.3100 N   0  0  0  0  0  0  0  0  0  0  0  0
  160.8040  201.1760  150.6410 C   0  0  0  0  0  3  0  0  0  0  0  0
  160.8740  203.9730  151.4040 C   0  0  0  0  0  0  0  0  0  0  0  0
  161.8240  205.4480  148.8380 C   0  0  2  0  0  3  0  0  0  0  0  0
  162.1600  210.2910  149.5820 N   0  0  0  0  0  0  0  0  0  0  0  0
  162.0970  211.6890  149.6680 O   0  0  0  0  0  0  0  0  0  0  0  0
  162.0210  207.8580  149.2490 C   0  0  0  0  0  0  0  0  0  0  0  0
  161.8760  204.2730  146.7950 C   0  0  0  0  0  2  0  0  0  0  0  0
  160.4750  206.3640  146.8890 C   0  0  0  0  0  2  0  0  0  0  0  0
  160.4760  206.6080  145.4860 O   0  0  0  0  0  0  0  0  0  0  0  0
  161.5660  205.6380  143.4700 C   0  0  0  0  0  1  0  0  0  0  0  0
  160.5480  205.5750  144.5500 C   0  0  0  0  0  0  0  0  0  0  0  0
  159.7560  204.5960  144.6040 O   0  0  0  0  0  0  0  0  0  0  0  0
  160.8220  211.2790  147.7990 C   0  0  0  0  0  2  0  0  0  0  0  0
  160.6710  212.5520  146.9860 C   0  0  0  0  0  2  0  0  0  0  0  0
  161.9150  212.9570  146.5010 O   0  0  0  0  0  0  0  0  0  0  0  0
  161.6670  213.3480  145.1850 C   0  0  0  0  0  1  0  0  0  0  0  0
  1 17  1  0  0  0  0
  3 31  1  6  0  0  0
  3 22  1  0  0  0  0
  3 23  1  0  0  0  0
  4 16  2  0  0  0  0
  4 19  1  0  0  0  0
  5 16  1  0  0  0  0
  6 13  1  1  0  0  0
  6  4  1  0  0  0  0
  7  8  1  0  0  0  0
  8 11  1  0  0  0  0
  8  2  2  0  0  0  0
  9 26  1  6  0  0  0
  9 21  1  0  0  0  0
 10  9  1  0  0  0  0
 10 15  1  0  0  0  0
 12 25  1  1  0  0  0
 12  6  1  0  0  0  0
 12  5  1  0  0  0  0
 14 18  2  0  0  0  0
 15 24  1  0  0  0  0
 16 20  1  0  0  0  0
 18  2  1  0  0  0  0
 19  1  2  0  0  0  0
 20 11  2  0  0  0  0
 20 17  1  0  0  0  0
 21  5  1  0  0  0  0
 21  7  1  1  0  0  0
 22 23  1  0  0  0  0
 22 14  1  0  0  0  0
 24  7  2  0  0  0  0
 24 14  1  0  0  0  0
 25  9  1  0  0  0  0
 27 26  1  0  0  0  0
 28 29  1  0  0  0  0
 29 30  2  0  0  0  0
 29 27  1  0  0  0  0
 32 31  1  0  0  0  0
 33 32  1  0  0  0  0
 34 33  1  0  0  0  0
M  END
>  <MODEL>
3

>  <REMARK>
 VINA RESULT:      -5.7      2.512      7.062
  Name = 
  6 active torsions:
  status: ('A' for Active; 'I' for Inactive)
    1  A    between atoms: C_4  and  C_32
    2  A    between atoms: C_10  and  C_11
    3  A    between atoms: C_11  and  O_12
    4  A    between atoms: O_12  and  C_28
    5  A    between atoms: O_13  and  C_25
    6  A    between atoms: C_25  and  C_32
                            x       y       z     vdW  Elec       q    Type
                         _______ _______ _______ _____ _____    ______ ____

>  <TORSDO>
F 6

$$$$
=
 OpenBabel11052411043D

 34 40  0  0  1  0  0  0  0  0999 V2000
  160.6120  211.5700  155.3530 C   0  0  0  0  0  3  0  0  0  0  0  0
  161.4460  209.8010  149.5530 C   0  0  0  0  0  3  0  0  0  0  0  0
  162.7530  205.5320  147.1470 C   0  0  2  0  0  3  0  0  0  0  0  0
  160.4770  209.1520  155.2570 C   0  0  0  0  0  0  0  0  0  0  0  0
  160.8330  207.9300  153.4610 N   0  0  0  0  0  0  0  0  0  0  0  0
  160.6210  207.8250  155.6740 C   0  0  1  0  0  3  0  0  0  0  0  0
  161.7360  208.0330  151.1610 C   0  0  0  0  0  0  0  0  0  0  0  0
  161.3920  209.3860  150.8850 C   0  0  0  0  0  0  0  0  0  0  0  0
  161.7030  205.9690  152.6610 C   0  0  2  0  0  0  0  0  0  0  0  0
  162.9390  205.4350  151.9530 C   0  0  0  0  0  2  0  0  0  0  0  0
  161.1660  210.4250  151.8760 N   0  0  0  0  0  0  0  0  0  0  0  0
  160.8400  207.1080  154.5020 C   0  0  2  0  0  3  0  0  0  0  0  0
  160.8410  207.3470  157.0670 C   0  0  0  0  0  1  0  0  0  0  0  0
  162.2720  207.6930  148.8270 C   0  0  0  0  0  0  0  0  0  0  0  0
  162.8920  205.8380  150.4510 C   0  0  0  0  0  2  0  0  0  0  0  0
  160.6410  209.1600  153.8950 C   0  0  0  0  0  0  0  0  0  0  0  0
  160.8110  211.5990  153.9180 N   0  0  0  0  0  0  0  0  0  0  0  0
  161.8500  208.9580  148.5690 N   0  0  0  0  0  0  0  0  0  0  0  0
  160.4660  210.4080  156.0220 C   0  0  0  0  0  2  0  0  0  0  0  0
  160.8900  210.3840  153.1530 C   0  0  0  0  0  0  0  0  0  0  0  0
  161.8020  207.4780  152.5330 C   0  0  2  0  0  3  0  0  0  0  0  0
  162.7060  206.8700  147.7450 N   0  0  0  0  0  0  0  0  0  0  0  0
  162.7990  206.5780  146.3770 O   0  0  0  0  0  0  0  0  0  0  0  0
  162.2850  207.2140  150.1440 C   0  0  0  0  0  0  0  0  0  0  0  0
  161.5790  205.8280  154.2030 C   0  0  0  0  0  2  0  0  0  0  0  0
  160.4200  205.4110  152.0060 C   0  0  0  0  0  2  0  0  0  0  0  0
  160.2940  204.0100  152.2300 O   0  0  0  0  0  0  0  0  0  0  0  0
  160.4560  203.0920  149.9230 C   0  0  0  0  0  1  0  0  0  0  0  0
  160.8350  203.0650  151.3580 C   0  0  0  0  0  0  0  0  0  0  0  0
  161.6350  202.1830  151.7740 O   0  0  0  0  0  0  0  0  0  0  0  0
  161.3550  204.9440  147.1060 C   0  0  0  0  0  2  0  0  0  0  0  0
  161.1930  204.0500  145.8900 C   0  0  0  0  0  2  0  0  0  0  0  0
  161.1740  202.7110  146.2820 O   0  0  0  0  0  0  0  0  0  0  0  0
  160.4560  202.0610  145.2790 C   0  0  0  0  0  1  0  0  0  0  0  0
  1 19  1  0  0  0  0
  2  8  1  0  0  0  0
  3 31  1  6  0  0  0
  3 22  1  0  0  0  0
  4  6  1  0  0  0  0
  4 19  1  0  0  0  0
  5 16  1  0  0  0  0
  5 12  1  0  0  0  0
  6 13  1  1  0  0  0
  8  7  2  0  0  0  0
  8 11  1  0  0  0  0
  9 26  1  6  0  0  0
  9 25  1  0  0  0  0
 10  9  1  0  0  0  0
 11 20  2  0  0  0  0
 12 25  1  1  0  0  0
 12  6  1  0  0  0  0
 14 24  2  0  0  0  0
 15 10  1  0  0  0  0
 16  4  2  0  0  0  0
 17  1  2  0  0  0  0
 18 14  1  0  0  0  0
 18  2  2  0  0  0  0
 20 16  1  0  0  0  0
 20 17  1  0  0  0  0
 21  7  1  6  0  0  0
 21  9  1  0  0  0  0
 21  5  1  0  0  0  0
 22 14  1  0  0  0  0
 23  3  1  0  0  0  0
 23 22  1  0  0  0  0
 24 15  1  0  0  0  0
 24  7  1  0  0  0  0
 26 27  1  0  0  0  0
 28 29  1  0  0  0  0
 29 30  2  0  0  0  0
 29 27  1  0  0  0  0
 32 33  1  0  0  0  0
 32 31  1  0  0  0  0
 34 33  1  0  0  0  0
M  END
>  <MODEL>
4

>  <REMARK>
 VINA RESULT:      -5.3      2.158      4.809
  Name = 
  6 active torsions:
  status: ('A' for Active; 'I' for Inactive)
    1  A    between atoms: C_4  and  C_32
    2  A    between atoms: C_10  and  C_11
    3  A    between atoms: C_11  and  O_12
    4  A    between atoms: O_12  and  C_28
    5  A    between atoms: O_13  and  C_25
    6  A    between atoms: C_25  and  C_32
                            x       y       z     vdW  Elec       q    Type
                         _______ _______ _______ _____ _____    ______ ____

>  <TORSDO>
F 6

$$$$
=
 OpenBabel11052411043D

 34 40  0  0  1  0  0  0  0  0999 V2000
  160.8480  201.3610  146.5600 C   0  0  0  0  0  3  0  0  0  0  0  0
  160.1860  203.7020  152.1770 C   0  0  0  0  0  3  0  0  0  0  0  0
  161.6160  207.9130  154.6130 C   0  0  2  0  0  3  0  0  0  0  0  0
  161.2560  203.7480  146.4550 C   0  0  0  0  0  0  0  0  0  0  0  0
  161.2960  205.1080  148.1850 N   0  0  0  0  0  0  0  0  0  0  0  0
  161.8290  204.9500  146.0300 C   0  0  1  0  0  3  0  0  0  0  0  0
  161.3730  205.1420  150.6560 C   0  0  0  0  0  0  0  0  0  0  0  0
  160.6550  203.9340  150.8830 C   0  0  0  0  0  0  0  0  0  0  0  0
  162.2980  206.9470  149.1100 C   0  0  2  0  0  0  0  0  0  0  0  0
  163.3340  207.3170  150.1600 C   0  0  0  0  0  2  0  0  0  0  0  0
  160.5200  202.8360  149.9410 N   0  0  0  0  0  0  0  0  0  0  0  0
  161.8240  205.7620  147.1590 C   0  0  2  0  0  3  0  0  0  0  0  0
  162.5840  205.1810  144.7680 C   0  0  0  0  0  1  0  0  0  0  0  0
  161.2050  205.6830  153.0090 C   0  0  0  0  0  0  0  0  0  0  0  0
  162.7210  207.1400  151.5790 C   0  0  0  0  0  2  0  0  0  0  0  0
  160.9730  203.8930  147.7890 C   0  0  0  0  0  0  0  0  0  0  0  0
  160.5700  201.4890  147.9770 N   0  0  0  0  0  2  0  0  0  0  0  0
  160.4410  204.5740  153.1860 N   0  0  0  0  0  0  0  0  0  0  0  0
  161.1970  202.4260  145.8110 C   0  0  0  0  0  3  0  0  0  0  0  0
  160.6810  202.7560  148.6460 C   0  0  0  0  0  0  0  0  0  0  0  0
  161.9980  205.4810  149.3570 C   0  0  2  0  0  3  0  0  0  0  0  0
  161.4520  206.5430  154.1200 N   0  0  0  0  0  0  0  0  0  0  0  0
  161.1710  206.9940  155.4170 O   0  0  0  0  0  0  0  0  0  0  0  0
  161.7460  205.9670  151.7470 C   0  0  0  0  0  0  0  0  0  0  0  0
  162.7060  206.8990  147.6120 C   0  0  0  0  0  2  0  0  0  0  0  0
  161.0400  207.8320  149.2540 C   0  0  0  0  0  2  0  0  0  0  0  0
  161.2060  209.0780  148.5830 O   0  0  0  0  0  0  0  0  0  0  0  0
  162.3300  211.2850  148.3460 C   0  0  0  0  0  1  0  0  0  0  0  0
  161.8210  210.1740  149.1900 C   0  0  0  0  0  0  0  0  0  0  0  0
  161.9560  210.2300  150.4420 O   0  0  0  0  0  0  0  0  0  0  0  0
  160.4540  208.7670  154.1410 C   0  0  0  0  0  2  0  0  0  0  0  0
  160.1890  209.8920  155.1250 C   0  0  0  0  0  2  0  0  0  0  0  0
  160.9180  211.0240  154.7620 O   0  0  0  0  0  0  0  0  0  0  0  0
  160.4550  211.3450  153.4860 C   0  0  0  0  0  1  0  0  0  0  0  0
  1 17  1  0  0  0  0
  2 18  1  0  0  0  0
  3 31  1  6  0  0  0
  3 23  1  0  0  0  0
  4 16  2  0  0  0  0
  5 21  1  0  0  0  0
  6 13  1  1  0  0  0
  6  4  1  0  0  0  0
  6 12  1  0  0  0  0
  7  8  1  0  0  0  0
  7 24  2  0  0  0  0
  8  2  2  0  0  0  0
  9 26  1  1  0  0  0
  9 21  1  0  0  0  0
  9 10  1  0  0  0  0
 10 15  1  0  0  0  0
 11  8  1  0  0  0  0
 12 25  1  1  0  0  0
 12  5  1  0  0  0  0
 14 18  2  0  0  0  0
 14 22  1  0  0  0  0
 15 24  1  0  0  0  0
 16  5  1  0  0  0  0
 16 20  1  0  0  0  0
 17 20  1  0  0  0  0
 19  4  1  0  0  0  0
 19  1  2  0  0  0  0
 20 11  2  0  0  0  0
 21  7  1  1  0  0  0
 22  3  1  0  0  0  0
 22 23  1  0  0  0  0
 24 14  1  0  0  0  0
 25  9  1  0  0  0  0
 27 29  1  0  0  0  0
 27 26  1  0  0  0  0
 28 29  1  0  0  0  0
 29 30  2  0  0  0  0
 31 32  1  0  0  0  0
 33 32  1  0  0  0  0
 34 33  1  0  0  0  0
M  END
>  <MODEL>
5

>  <REMARK>
 VINA RESULT:      -5.2      2.912      7.200
  Name = 
  6 active torsions:
  status: ('A' for Active; 'I' for Inactive)
    1  A    between atoms: C_4  and  C_32
    2  A    between atoms: C_10  and  C_11
    3  A    between atoms: C_11  and  O_12
    4  A    between atoms: O_12  and  C_28
    5  A    between atoms: O_13  and  C_25
    6  A    between atoms: C_25  and  C_32
                            x       y       z     vdW  Elec       q    Type
                         _______ _______ _______ _____ _____    ______ ____

>  <TORSDO>
F 6

$$$$
=
 OpenBabel11052411043D

 34 40  0  0  1  0  0  0  0  0999 V2000
  160.8480  201.3050  148.7210 C   0  0  0  0  0  3  0  0  0  0  0  0
  160.2030  205.3830  153.2410 C   0  0  0  0  0  3  0  0  0  0  0  0
  161.6140  210.1740  154.1200 C   0  0  2  0  0  3  0  0  0  0  0  0
  161.2350  203.5230  147.8210 C   0  0  0  0  0  0  0  0  0  0  0  0
  161.2760  205.3820  148.9990 N   0  0  0  0  0  0  0  0  0  0  0  0
  161.7950  204.5170  147.0150 C   0  0  1  0  0  3  0  0  0  0  0  0
  161.3680  206.2390  151.3160 C   0  0  0  0  0  0  0  0  0  0  0  0
  160.6620  205.1720  151.9390 C   0  0  0  0  0  0  0  0  0  0  0  0
  162.2690  207.4300  149.2480 C   0  0  2  0  0  0  0  0  0  0  0  0
  163.3080  208.1350  150.1060 C   0  0  0  0  0  2  0  0  0  0  0  0
  160.5290  203.8220  151.4180 N   0  0  0  0  0  0  0  0  0  0  0  0
  161.7910  205.6600  147.8090 C   0  0  2  0  0  3  0  0  0  0  0  0
  162.5400  204.3180  145.7410 C   0  0  0  0  0  1  0  0  0  0  0  0
  161.2100  207.5330  153.3540 C   0  0  0  0  0  0  0  0  0  0  0  0
  162.7060  208.4380  151.5070 C   0  0  0  0  0  2  0  0  0  0  0  0
  160.9590  204.1030  149.0330 C   0  0  0  0  0  0  0  0  0  0  0  0
  160.5770  201.8970  150.0160 N   0  0  0  0  0  2  0  0  0  0  0  0
  160.4570  206.5430  153.8990 N   0  0  0  0  0  0  0  0  0  0  0  0
  161.1820  202.0610  147.6560 C   0  0  0  0  0  3  0  0  0  0  0  0
  160.6820  203.3160  150.2230 C   0  0  0  0  0  0  0  0  0  0  0  0
  161.9820  206.1280  149.9720 C   0  0  2  0  0  3  0  0  0  0  0  0
  161.4580  208.7160  154.1130 N   0  0  0  0  0  0  0  0  0  0  0  0
  161.1810  209.5730  155.1880 O   0  0  0  0  0  0  0  0  0  0  0  0
  161.7410  207.3830  152.0660 C   0  0  0  0  0  0  0  0  0  0  0  0
  162.6670  206.8870  147.8480 C   0  0  0  0  0  2  0  0  0  0  0  0
  161.0040  208.3050  149.0990 C   0  0  0  0  0  2  0  0  0  0  0  0
  161.2090  209.3520  148.1550 O   0  0  0  0  0  0  0  0  0  0  0  0
  161.2320  211.7760  147.5950 C   0  0  0  0  0  1  0  0  0  0  0  0
  161.4860  210.6630  148.5450 C   0  0  0  0  0  0  0  0  0  0  0  0
  161.9570  210.9140  149.6870 O   0  0  0  0  0  0  0  0  0  0  0  0
  160.4410  210.8150  153.4000 C   0  0  0  0  0  2  0  0  0  0  0  0
  159.9510  212.0300  154.1650 C   0  0  0  0  0  2  0  0  0  0  0  0
  159.2000  212.8510  153.3240 O   0  0  0  0  0  0  0  0  0  0  0  0
  159.6850  212.5810  152.0450 C   0  0  0  0  0  1  0  0  0  0  0  0
  1 17  1  0  0  0  0
  2 18  1  0  0  0  0
  3 31  1  6  0  0  0
  3 23  1  0  0  0  0
  4 16  2  0  0  0  0
  5 16  1  0  0  0  0
  5 21  1  0  0  0  0
  6 13  1  1  0  0  0
  6 12  1  0  0  0  0
  6  4  1  0  0  0  0
  7  8  1  0  0  0  0
  7 24  2  0  0  0  0
  8  2  2  0  0  0  0
  9 26  1  6  0  0  0
  9 21  1  0  0  0  0
  9 10  1  0  0  0  0
 10 15  1  0  0  0  0
 11  8  1  0  0  0  0
 12 25  1  1  0  0  0
 12  5  1  0  0  0  0
 14 18  2  0  0  0  0
 14 22  1  0  0  0  0
 15 24  1  0  0  0  0
 16 20  1  0  0  0  0
 17 20  1  0  0  0  0
 19  4  1  0  0  0  0
 19  1  2  0  0  0  0
 20 11  2  0  0  0  0
 21  7  1  1  0  0  0
 22  3  1  0  0  0  0
 22 23  1  0  0  0  0
 24 14  1  0  0  0  0
 25  9  1  0  0  0  0
 27 29  1  0  0  0  0
 27 26  1  0  0  0  0
 28 29  1  0  0  0  0
 29 30  2  0  0  0  0
 31 32  1  0  0  0  0
 33 32  1  0  0  0  0
 34 33  1  0  0  0  0
M  END
>  <MODEL>
6

>  <REMARK>
 VINA RESULT:      -4.2      2.924      7.419
  Name = 
  6 active torsions:
  status: ('A' for Active; 'I' for Inactive)
    1  A    between atoms: C_4  and  C_32
    2  A    between atoms: C_10  and  C_11
    3  A    between atoms: C_11  and  O_12
    4  A    between atoms: O_12  and  C_28
    5  A    between atoms: O_13  and  C_25
    6  A    between atoms: C_25  and  C_32
                            x       y       z     vdW  Elec       q    Type
                         _______ _______ _______ _____ _____    ______ ____

>  <TORSDO>
F 6

$$$$
