=
 OpenBabel11052409393D

 38 40  0  0  1  0  0  0  0  0999 V2000
  160.6310  203.8940  152.0770 C   0  0  0  0  0  0  0  0  0  0  0  0
  160.1290  203.0570  152.9260 N   0  0  0  0  0  2  0  0  0  0  0  0
  162.0920  207.3430  149.1470 C   0  0  1  0  0  3  0  0  0  0  0  0
  160.3640  205.8260  149.9680 O   0  0  0  0  0  0  0  0  0  0  0  0
  160.7480  203.5240  150.6530 C   0  0  0  0  0  0  0  0  0  0  0  0
  162.4700  208.7830  152.4970 C   0  0  0  0  0  2  0  0  0  0  0  0
  160.5800  205.9920  153.2970 N   0  0  0  0  0  0  0  0  0  0  0  0
  161.2030  201.8440  148.9720 C   0  0  0  0  0  0  0  0  0  0  0  0
  160.7010  204.5020  149.6410 C   0  0  0  0  0  0  0  0  0  0  0  0
  161.1950  202.8110  148.0140 N   0  0  0  0  0  0  0  0  0  0  0  0
  161.0050  207.1440  153.7250 C   0  0  0  0  0  0  0  0  0  0  0  0
  162.6520  207.5530  150.4310 O   0  0  0  0  0  0  0  0  0  0  0  0
  160.4140  209.1680  155.1780 C   0  0  0  0  0  0  0  0  0  0  0  0
  160.9870  202.1880  150.3060 C   0  0  0  0  0  3  0  0  0  0  0  0
  162.4200  207.5870  153.4440 C   0  0  0  0  0  2  0  0  0  0  0  0
  160.1170  206.7660  147.8460 O   0  0  0  0  0  1  0  0  0  0  0  0
  160.0860  207.9890  154.4280 N   0  0  0  0  0  2  0  0  0  0  0  0
  161.8610  208.4760  151.1380 C   0  0  0  0  0  2  0  0  0  0  0  0
  161.4510  200.4800  148.6300 N   0  0  0  0  0  2  0  0  0  0  0  0
  161.6140  209.4630  155.4220 O   0  0  0  0  0  0  0  0  0  0  0  0
  161.4300  205.0470  152.5850 C   0  0  0  0  0  2  0  0  0  0  0  0
  160.9500  204.1120  148.3170 C   0  0  0  0  0  3  0  0  0  0  0  0
  161.6910  200.0580  147.2600 C   0  0  0  0  0  1  0  0  0  0  0  0
  160.5980  206.9690  149.1430 C   0  0  2  0  0  3  0  0  0  0  0  0
  159.4290  210.7440  156.8060 C   0  0  0  0  0  3  0  0  0  0  0  0
  158.0900  210.1800  155.0460 N   0  0  0  0  0  0  0  0  0  0  0  0
  157.4010  210.9910  155.7740 C   0  0  0  0  0  0  0  0  0  0  0  0
  159.3430  210.0290  155.6930 C   0  0  0  0  0  0  0  0  0  0  0  0
  158.1370  211.4730  156.9770 C   0  0  0  0  0  2  0  0  0  0  0  0
  155.1440  210.2220  155.1390 C   0  0  0  0  0  1  0  0  0  0  0  0
  156.0230  211.4290  155.4140 C   0  0  0  0  0  2  0  0  0  0  0  0
  162.5120  208.3970  148.1120 C   0  0  0  0  0  2  0  0  0  0  0  0
  162.5130  210.7690  148.5850 N   0  0  0  0  0  0  0  0  0  0  0  0
  161.8300  209.7140  148.2880 C   0  0  0  0  0  3  0  0  0  0  0  0
  161.8670  211.9980  148.7530 N   0  0  0  0  0  2  0  0  0  0  0  0
  162.3270  213.1740  148.0340 C   0  0  0  0  0  2  0  0  0  0  0  0
  160.6390  212.9130  146.4350 C   0  0  0  0  0  1  0  0  0  0  0  0
  162.0780  213.0160  146.6110 N   0  0  0  0  0  2  0  0  0  0  0  0
  1 21  1  0  0  0  0
  1  2  2  0  0  0  0
  3 32  1  6  0  0  0
  3 12  1  0  0  0  0
  5  1  1  0  0  0  0
  6 15  1  0  0  0  0
  7 11  2  0  0  0  0
  8 14  1  0  0  0  0
  9  4  1  0  0  0  0
  9  5  1  0  0  0  0
 10 22  1  0  0  0  0
 10  8  2  0  0  0  0
 11 17  1  0  0  0  0
 12 18  1  0  0  0  0
 13 20  2  0  0  0  0
 13 28  1  0  0  0  0
 14  5  2  0  0  0  0
 15 11  1  0  0  0  0
 17 13  1  0  0  0  0
 18  6  1  0  0  0  0
 19  8  1  0  0  0  0
 21  7  1  0  0  0  0
 22  9  2  0  0  0  0
 23 19  1  0  0  0  0
 24 16  1  6  0  0  0
 24  3  1  0  0  0  0
 24  4  1  0  0  0  0
 25 29  1  0  0  0  0
 26 28  1  0  0  0  0
 26 27  2  0  0  0  0
 27 29  1  0  0  0  0
 28 25  2  0  0  0  0
 30 31  1  0  0  0  0
 31 27  1  0  0  0  0
 32 34  1  0  0  0  0
 33 35  1  0  0  0  0
 34 33  2  0  0  0  0
 36 35  1  0  0  0  0
 37 38  1  0  0  0  0
 38 36  1  0  0  0  0
M  END
>  <MODEL>
1

>  <REMARK>
 VINA RESULT:      -5.2      0.000      0.000
  Name = 
  7 active torsions:
  status: ('A' for Active; 'I' for Inactive)
    1  A    between atoms: C_5  and  C_10
    2  A    between atoms: C_6  and  C_19
    3  A    between atoms: C_10  and  C_32
    4  A    between atoms: N_12  and  N_14
    5  A    between atoms: N_12  and  C_31
    6  A    between atoms: C_13  and  C_24
    7  A    between atoms: C_31  and  N_37
                            x       y       z     vdW  Elec       q    Type
                         _______ _______ _______ _____ _____    ______ ____

>  <TORSDO>
F 7

$$$$
=
 OpenBabel11052409393D

 38 40  0  0  1  0  0  0  0  0999 V2000
  160.0630  211.2400  152.7880 C   0  0  0  0  0  0  0  0  0  0  0  0
  159.3510  212.0850  153.4590 N   0  0  0  0  0  2  0  0  0  0  0  0
  162.3230  208.2220  149.8890 C   0  0  1  0  0  3  0  0  0  0  0  0
  160.3260  208.9280  151.1020 O   0  0  0  0  0  0  0  0  0  0  0  0
  160.3250  209.8940  153.3350 C   0  0  0  0  0  0  0  0  0  0  0  0
  162.4210  211.4270  148.1110 C   0  0  0  0  0  2  0  0  0  0  0  0
  160.1090  212.2180  150.5670 N   0  0  0  0  0  0  0  0  0  0  0  0
  160.7910  208.4790  155.2420 C   0  0  0  0  0  0  0  0  0  0  0  0
  160.5370  208.7910  152.4840 C   0  0  0  0  0  0  0  0  0  0  0  0
  161.0330  207.4360  154.4000 N   0  0  0  0  0  0  0  0  0  0  0  0
  160.6120  212.5850  149.4260 C   0  0  0  0  0  0  0  0  0  0  0  0
  162.7270  209.5470  149.5900 O   0  0  0  0  0  0  0  0  0  0  0  0
  160.0860  213.7200  147.1910 C   0  0  0  0  0  0  0  0  0  0  0  0
  160.4410  209.7240  154.7200 C   0  0  0  0  0  3  0  0  0  0  0  0
  162.0950  212.4730  149.1750 C   0  0  0  0  0  2  0  0  0  0  0  0
  160.4860  206.7090  150.3990 O   0  0  0  0  0  1  0  0  0  0  0  0
  159.7180  213.0540  148.4080 N   0  0  0  0  0  2  0  0  0  0  0  0
  161.9670  210.0310  148.5100 C   0  0  0  0  0  2  0  0  0  0  0  0
  160.9120  208.3170  156.6550 N   0  0  0  0  0  2  0  0  0  0  0  0
  161.2690  214.1080  147.0010 O   0  0  0  0  0  0  0  0  0  0  0  0
  160.9230  211.7400  151.6760 C   0  0  0  0  0  2  0  0  0  0  0  0
  160.9130  207.5650  153.0520 C   0  0  0  0  0  3  0  0  0  0  0  0
  161.2810  207.0480  157.2600 C   0  0  0  0  0  1  0  0  0  0  0  0
  160.8090  208.0350  150.0970 C   0  0  2  0  0  3  0  0  0  0  0  0
  157.7830  214.1750  146.4180 C   0  0  0  0  0  3  0  0  0  0  0  0
  159.3670  214.0490  144.7790 N   0  0  0  0  0  0  0  0  0  0  0  0
  158.2490  214.2800  144.1790 C   0  0  0  0  0  0  0  0  0  0  0  0
  159.0700  213.9810  146.1650 C   0  0  2  0  0  3  0  0  0  0  0  0
  157.0950  214.4040  145.1130 C   0  0  0  0  0  3  0  0  0  0  0  0
  158.9280  213.3590  141.9930 C   0  0  0  0  0  1  0  0  0  0  0  0
  158.1450  214.4480  142.7020 C   0  0  0  0  0  2  0  0  0  0  0  0
  163.0070  207.1580  149.0170 C   0  0  0  0  0  2  0  0  0  0  0  0
  162.3640  206.3480  146.8300 N   0  0  0  0  0  0  0  0  0  0  0  0
  162.0740  206.4590  148.0830 C   0  0  0  0  0  3  0  0  0  0  0  0
  161.4830  205.6970  145.9610 N   0  0  0  0  0  2  0  0  0  0  0  0
  161.9600  204.6350  145.0920 C   0  0  0  0  0  2  0  0  0  0  0  0
  161.2710  202.9020  146.5050 C   0  0  0  0  0  1  0  0  0  0  0  0
  161.0800  203.4820  145.1860 N   0  0  0  0  0  2  0  0  0  0  0  0
  1  5  1  0  0  0  0
  1  2  2  0  0  0  0
  3 32  1  6  0  0  0
  3 24  1  0  0  0  0
  4  9  1  0  0  0  0
  5 14  2  0  0  0  0
  6 18  1  0  0  0  0
  6 15  1  0  0  0  0
  7 21  1  0  0  0  0
  8 19  1  0  0  0  0
  9 22  2  0  0  0  0
  9  5  1  0  0  0  0
 10  8  2  0  0  0  0
 11  7  2  0  0  0  0
 12  3  1  0  0  0  0
 13 17  1  0  0  0  0
 14  8  1  0  0  0  0
 15 11  1  0  0  0  0
 17 11  1  0  0  0  0
 18 12  1  0  0  0  0
 19 23  1  0  0  0  0
 20 13  2  0  0  0  0
 21  1  1  0  0  0  0
 22 10  1  0  0  0  0
 24 16  1  1  0  0  0
 24  4  1  0  0  0  0
 26 28  1  0  0  0  0
 27 26  2  0  0  0  0
 27 29  1  0  0  0  0
 28 25  1  0  0  0  0
 28 13  1  6  0  0  0
 29 25  2  0  0  0  0
 30 31  1  0  0  0  0
 31 27  1  0  0  0  0
 33 34  2  0  0  0  0
 34 32  1  0  0  0  0
 35 33  1  0  0  0  0
 36 38  1  0  0  0  0
 36 35  1  0  0  0  0
 38 37  1  0  0  0  0
M  END
>  <MODEL>
2

>  <REMARK>
 VINA RESULT:      -3.3      2.854      8.281
  Name = 
  7 active torsions:
  status: ('A' for Active; 'I' for Inactive)
    1  A    between atoms: C_5  and  C_10
    2  A    between atoms: C_6  and  C_19
    3  A    between atoms: C_10  and  C_32
    4  A    between atoms: N_12  and  N_14
    5  A    between atoms: N_12  and  C_31
    6  A    between atoms: C_13  and  C_24
    7  A    between atoms: C_31  and  N_37
                            x       y       z     vdW  Elec       q    Type
                         _______ _______ _______ _____ _____    ______ ____

>  <TORSDO>
F 7

$$$$
=
 OpenBabel11052409393D

 38 40  0  0  1  0  0  0  0  0999 V2000
  161.8510  208.9330  149.1920 C   0  0  0  0  0  0  0  0  0  0  0  0
  162.1850  209.9460  148.4620 N   0  0  0  0  0  2  0  0  0  0  0  0
  161.0670  205.3380  152.2070 C   0  0  1  0  0  3  0  0  0  0  0  0
  162.4820  206.5070  150.5970 O   0  0  0  0  0  0  0  0  0  0  0  0
  161.6780  207.6020  148.5780 C   0  0  0  0  0  0  0  0  0  0  0  0
  160.9330  208.3330  154.3170 C   0  0  0  0  0  2  0  0  0  0  0  0
  162.2750  209.7310  151.4460 N   0  0  0  0  0  0  0  0  0  0  0  0
  160.9370  206.2540  146.7100 C   0  0  0  0  0  0  0  0  0  0  0  0
  161.9110  206.4240  149.3150 C   0  0  0  0  0  0  0  0  0  0  0  0
  161.1280  205.1300  147.4550 N   0  0  0  0  0  0  0  0  0  0  0  0
  162.0640  209.9120  152.7150 C   0  0  0  0  0  0  0  0  0  0  0  0
  160.5440  206.5340  152.7600 O   0  0  0  0  0  0  0  0  0  0  0  0
  163.0050  210.9770  154.8460 C   0  0  0  0  0  0  0  0  0  0  0  0
  161.2020  207.5060  147.2650 C   0  0  0  0  0  3  0  0  0  0  0  0
  160.7570  209.4920  153.3390 C   0  0  0  0  0  2  0  0  0  0  0  0
  162.9120  204.2570  151.0450 O   0  0  0  0  0  1  0  0  0  0  0  0
  163.1180  210.4810  153.5050 N   0  0  0  0  0  2  0  0  0  0  0  0
  161.4860  207.0850  153.6470 C   0  0  0  0  0  2  0  0  0  0  0  0
  160.4470  206.1670  145.3730 N   0  0  0  0  0  2  0  0  0  0  0  0
  161.8770  211.1080  155.3920 O   0  0  0  0  0  0  0  0  0  0  0  0
  161.2720  209.1770  150.5460 C   0  0  0  0  0  2  0  0  0  0  0  0
  161.6050  205.1890  148.7260 C   0  0  0  0  0  3  0  0  0  0  0  0
  160.1430  204.8940  144.7410 C   0  0  0  0  0  1  0  0  0  0  0  0
  162.4670  205.4700  151.5790 C   0  0  2  0  0  3  0  0  0  0  0  0
  164.3040  211.3810  156.9090 C   0  0  0  0  0  3  0  0  0  0  0  0
  165.4140  211.7690  154.9530 N   0  0  0  0  0  0  0  0  0  0  0  0
  166.2480  212.0430  155.8980 C   0  0  0  0  0  0  0  0  0  0  0  0
  164.2110  211.3640  155.5870 C   0  0  0  0  0  0  0  0  0  0  0  0
  165.6830  211.8310  157.2610 C   0  0  0  0  0  2  0  0  0  0  0  0
  167.7850  213.9720  155.8940 C   0  0  0  0  0  1  0  0  0  0  0  0
  167.6470  212.4830  155.6380 C   0  0  0  0  0  2  0  0  0  0  0  0
  160.8540  204.1040  153.0950 C   0  0  0  0  0  2  0  0  0  0  0  0
  160.4400  202.8620  151.0610 N   0  0  0  0  0  0  0  0  0  0  0  0
  160.6920  202.8330  152.3270 C   0  0  0  0  0  3  0  0  0  0  0  0
  160.2850  201.6680  150.3500 N   0  0  0  0  0  2  0  0  0  0  0  0
  159.9790  201.6940  148.9300 C   0  0  0  0  0  2  0  0  0  0  0  0
  160.8330  201.6490  146.7520 C   0  0  0  0  0  1  0  0  0  0  0  0
  161.2040  201.5870  148.1550 N   0  0  0  0  0  2  0  0  0  0  0  0
  1 21  1  0  0  0  0
  2  1  2  0  0  0  0
  3 12  1  0  0  0  0
  3 32  1  1  0  0  0
  4 24  1  0  0  0  0
  5  1  1  0  0  0  0
  5  9  1  0  0  0  0
  7 11  2  0  0  0  0
  8 14  1  0  0  0  0
  8 10  2  0  0  0  0
  9  4  1  0  0  0  0
 10 22  1  0  0  0  0
 11 15  1  0  0  0  0
 11 17  1  0  0  0  0
 12 18  1  0  0  0  0
 13 20  2  0  0  0  0
 13 28  1  0  0  0  0
 14  5  2  0  0  0  0
 15  6  1  0  0  0  0
 17 13  1  0  0  0  0
 18  6  1  0  0  0  0
 19  8  1  0  0  0  0
 21  7  1  0  0  0  0
 22  9  2  0  0  0  0
 23 19  1  0  0  0  0
 24 16  1  6  0  0  0
 24  3  1  0  0  0  0
 25 29  1  0  0  0  0
 26 28  1  0  0  0  0
 26 27  2  0  0  0  0
 27 29  1  0  0  0  0
 28 25  2  0  0  0  0
 31 30  1  0  0  0  0
 31 27  1  0  0  0  0
 33 34  2  0  0  0  0
 34 32  1  0  0  0  0
 35 33  1  0  0  0  0
 36 35  1  0  0  0  0
 37 38  1  0  0  0  0
 38 36  1  0  0  0  0
M  END
>  <MODEL>
3

>  <REMARK>
 VINA RESULT:      -2.9      3.320      6.679
  Name = 
  7 active torsions:
  status: ('A' for Active; 'I' for Inactive)
    1  A    between atoms: C_5  and  C_10
    2  A    between atoms: C_6  and  C_19
    3  A    between atoms: C_10  and  C_32
    4  A    between atoms: N_12  and  N_14
    5  A    between atoms: N_12  and  C_31
    6  A    between atoms: C_13  and  C_24
    7  A    between atoms: C_31  and  N_37
                            x       y       z     vdW  Elec       q    Type
                         _______ _______ _______ _____ _____    ______ ____

>  <TORSDO>
F 7

$$$$
=
 OpenBabel11052409393D

 38 40  0  0  1  0  0  0  0  0999 V2000
  160.6980  203.7580  152.2160 C   0  0  0  0  0  0  0  0  0  0  0  0
  160.2980  202.9460  153.1390 N   0  0  0  0  0  2  0  0  0  0  0  0
  161.7810  207.1100  149.0210 C   0  0  1  0  0  3  0  0  0  0  0  0
  160.1910  205.5640  150.0410 O   0  0  0  0  0  0  0  0  0  0  0  0
  160.7300  203.3200  150.8070 C   0  0  0  0  0  0  0  0  0  0  0  0
  162.3320  208.7370  152.2600 C   0  0  0  0  0  2  0  0  0  0  0  0
  160.6370  205.9130  153.3330 N   0  0  0  0  0  0  0  0  0  0  0  0
  161.1410  201.5760  149.1810 C   0  0  0  0  0  0  0  0  0  0  0  0
  160.5640  204.2410  149.7550 C   0  0  0  0  0  0  0  0  0  0  0  0
  161.0190  202.4900  148.1800 N   0  0  0  0  0  0  0  0  0  0  0  0
  161.0380  207.1020  153.6710 C   0  0  0  0  0  0  0  0  0  0  0  0
  162.4230  207.4110  150.2490 O   0  0  0  0  0  0  0  0  0  0  0  0
  160.4580  209.1720  155.0640 C   0  0  0  0  0  0  0  0  0  0  0  0
  161.0050  201.9790  150.5090 C   0  0  0  0  0  3  0  0  0  0  0  0
  162.4060  207.5900  153.2650 C   0  0  0  0  0  2  0  0  0  0  0  0
  159.7480  206.3820  147.9000 O   0  0  0  0  0  1  0  0  0  0  0  0
  160.1320  207.9430  154.3990 N   0  0  0  0  0  2  0  0  0  0  0  0
  161.6420  208.3340  150.9670 C   0  0  0  0  0  2  0  0  0  0  0  0
  161.4270  200.2080  148.8880 N   0  0  0  0  0  2  0  0  0  0  0  0
  161.6580  209.5310  155.2040 O   0  0  0  0  0  0  0  0  0  0  0  0
  161.4770  204.9700  152.6070 C   0  0  0  0  0  2  0  0  0  0  0  0
  160.7360  203.7940  148.4360 C   0  0  0  0  0  3  0  0  0  0  0  0
  161.5880  199.7260  147.5260 C   0  0  0  0  0  1  0  0  0  0  0  0
  160.3110  206.6720  149.1460 C   0  0  2  0  0  3  0  0  0  0  0  0
  159.2990  210.3690  156.8880 C   0  0  0  0  0  3  0  0  0  0  0  0
  158.3250  210.5280  154.8300 N   0  0  0  0  0  0  0  0  0  0  0  0
  157.5750  211.2020  155.6340 C   0  0  0  0  0  0  0  0  0  0  0  0
  159.3880  210.0110  155.6150 C   0  0  0  0  0  0  0  0  0  0  0  0
  158.0760  211.2130  157.0370 C   0  0  0  0  0  2  0  0  0  0  0  0
  156.0390  213.0650  156.1370 C   0  0  0  0  0  1  0  0  0  0  0  0
  156.3560  211.9300  155.1820 C   0  0  0  0  0  2  0  0  0  0  0  0
  162.0770  208.1260  147.9080 C   0  0  0  0  0  2  0  0  0  0  0  0
  162.3520  206.2110  146.4540 N   0  0  0  0  0  0  0  0  0  0  0  0
  162.3610  207.4960  146.5830 C   0  0  0  0  0  3  0  0  0  0  0  0
  162.6240  205.6300  145.2120 N   0  0  0  0  0  2  0  0  0  0  0  0
  161.5570  205.4240  144.2480 C   0  0  0  0  0  2  0  0  0  0  0  0
  160.4780  203.4420  144.8650 C   0  0  0  0  0  1  0  0  0  0  0  0
  160.3810  204.8910  144.9150 N   0  0  0  0  0  2  0  0  0  0  0  0
  1 21  1  0  0  0  0
  1  2  2  0  0  0  0
  3 32  1  6  0  0  0
  3 24  1  0  0  0  0
  3 12  1  0  0  0  0
  5  1  1  0  0  0  0
  6 15  1  0  0  0  0
  7 11  2  0  0  0  0
  8 14  1  0  0  0  0
  9  4  1  0  0  0  0
  9  5  1  0  0  0  0
 10 22  1  0  0  0  0
 10  8  2  0  0  0  0
 11 17  1  0  0  0  0
 12 18  1  0  0  0  0
 13 20  2  0  0  0  0
 13 28  1  0  0  0  0
 14  5  2  0  0  0  0
 15 11  1  0  0  0  0
 17 13  1  0  0  0  0
 18  6  1  0  0  0  0
 19  8  1  0  0  0  0
 21  7  1  0  0  0  0
 22  9  2  0  0  0  0
 23 19  1  0  0  0  0
 24 16  1  6  0  0  0
 24  4  1  0  0  0  0
 25 29  1  0  0  0  0
 26 28  1  0  0  0  0
 26 27  2  0  0  0  0
 27 29  1  0  0  0  0
 28 25  2  0  0  0  0
 31 27  1  0  0  0  0
 31 30  1  0  0  0  0
 33 34  2  0  0  0  0
 34 32  1  0  0  0  0
 35 33  1  0  0  0  0
 36 38  1  0  0  0  0
 36 35  1  0  0  0  0
 37 38  1  0  0  0  0
M  END
>  <MODEL>
4

>  <REMARK>
 VINA RESULT:      -2.8      2.141      2.989
  Name = 
  7 active torsions:
  status: ('A' for Active; 'I' for Inactive)
    1  A    between atoms: C_5  and  C_10
    2  A    between atoms: C_6  and  C_19
    3  A    between atoms: C_10  and  C_32
    4  A    between atoms: N_12  and  N_14
    5  A    between atoms: N_12  and  C_31
    6  A    between atoms: C_13  and  C_24
    7  A    between atoms: C_31  and  N_37
                            x       y       z     vdW  Elec       q    Type
                         _______ _______ _______ _____ _____    ______ ____

>  <TORSDO>
F 7

$$$$
