=
 OpenBabel11042420333D

 49 54  0  0  1  0  0  0  0  0999 V2000
  161.1970  211.8720  150.1750 N   0  0  0  0  0  0  0  0  0  0  0  0
  159.5080  213.3870  151.6640 O   0  0  0  0  0  0  0  0  0  0  0  0
  161.2410  211.0730  151.2040 C   0  0  0  0  0  0  0  0  0  0  0  0
  160.4740  211.3720  152.3740 N   0  0  0  0  0  2  0  0  0  0  0  0
  159.6330  212.5150  152.5640 C   0  0  0  0  0  0  0  0  0  0  0  0
  158.9260  212.6810  153.8670 C   0  0  2  0  0  3  0  0  0  0  0  0
  158.8280  211.3430  154.6200 C   0  0  0  0  0  2  0  0  0  0  0  0
  156.9420  212.4880  155.8670 C   0  0  0  0  0  2  0  0  0  0  0  0
  157.4560  211.1720  155.2780 C   0  0  0  0  0  2  0  0  0  0  0  0
  157.6560  213.2480  153.6620 O   0  0  0  0  0  0  0  0  0  0  0  0
  157.2160  213.6770  154.9290 C   0  0  0  0  0  2  0  0  0  0  0  0
  161.8770  211.7480  148.9160 C   0  0  0  0  0  0  0  0  0  0  0  0
  162.2120  210.6300  148.4470 O   0  0  0  0  0  0  0  0  0  0  0  0
  162.1810  212.9790  148.1330 C   0  0  0  0  0  2  0  0  0  0  0  0
  161.3230  212.9480  146.5310 S   0  0  0  0  0  0  0  0  0  0  0  0
  162.6890  213.7520  145.6330 C   0  0  0  0  0  2  0  0  0  0  0  0
  162.9000  213.1030  144.2780 C   0  0  0  0  0  2  0  0  0  0  0  0
  161.6380  212.5970  143.7640 N   0  0  0  0  0  2  0  0  0  0  0  0
  161.7700  212.5270  142.3210 C   0  0  0  0  0  2  0  0  0  0  0  0
  161.4560  208.0130  138.6290 C   0  0  0  0  0  2  0  0  0  0  0  0
  161.1210  211.0240  140.5330 N   0  0  0  0  0  0  0  0  0  0  0  0
  159.2370  212.2210  139.9450 C   0  0  0  0  0  3  0  0  0  0  0  0
  160.3500  210.2920  138.6280 C   0  0  0  0  0  0  0  0  0  0  0  0
  160.3200  211.3190  139.5330 C   0  0  0  0  0  0  0  0  0  0  0  0
  159.4850  210.0190  137.4370 C   0  0  0  0  0  2  0  0  0  0  0  0
  161.2600  209.3970  139.1640 C   0  0  0  0  0  0  0  0  0  0  0  0
  159.4740  208.5140  137.1250 C   0  0  0  0  0  2  0  0  0  0  0  0
  160.6710  211.6480  141.7520 C   0  0  2  0  0  3  0  0  0  0  0  0
  160.8860  207.9090  137.2050 C   0  0  0  0  0  2  0  0  0  0  0  0
  161.6610  209.8250  140.3820 N   0  0  0  0  0  0  0  0  0  0  0  0
  159.5060  212.4780  141.3730 N   0  0  0  0  0  0  0  0  0  0  0  0
  162.2720  209.6010  151.2440 S   0  0  0  0  0  0  0  0  0  0  0  0
  161.4940  208.9910  152.7640 C   0  0  0  0  0  2  0  0  0  0  0  0
  160.6660  207.7610  152.4420 C   0  0  0  0  0  2  0  0  0  0  0  0
  162.0560  206.2360  153.5780 O   0  0  0  0  0  0  0  0  0  0  0  0
  161.5100  206.5310  152.5270 C   0  0  0  0  0  0  0  0  0  0  0  0
  161.7370  205.6870  151.3170 C   0  0  0  0  0  2  0  0  0  0  0  0
  160.3690  203.7260  151.6050 O   0  0  0  0  0  0  0  0  0  0  0  0
  161.6930  204.2000  151.6730 C   0  0  1  0  0  3  0  0  0  0  0  0
  161.2280  203.2950  150.5770 C   0  0  2  0  0  3  0  0  0  0  0  0
  160.8310  203.9820  149.2740 C   0  0  0  0  0  2  0  0  0  0  0  0
  161.3260  204.3360  147.0070 C   0  0  0  0  0  2  0  0  0  0  0  0
  160.6370  202.3090  145.7920 C   0  0  0  0  0  0  0  0  0  0  0  0
  161.4670  203.5610  145.6950 C   0  0  1  0  0  3  0  0  0  0  0  0
  161.5830  202.0970  148.0580 C   0  0  0  0  0  2  0  0  0  0  0  0
  161.0020  204.4490  144.5540 C   0  0  0  0  0  1  0  0  0  0  0  0
  160.1290  201.8050  144.8020 O   0  0  0  0  0  0  0  0  0  0  0  0
  161.7130  203.5600  148.1980 N   0  0  0  0  0  0  0  0  0  0  0  0
  160.4470  201.6680  147.1290 C   0  0  0  0  0  2  0  0  0  0  0  0
  1  3  2  0  0  0  0
  2  5  2  0  0  0  0
  3 32  1  0  0  0  0
  3  4  1  0  0  0  0
  4  5  1  0  0  0  0
  6  5  1  6  0  0  0
  6  7  1  0  0  0  0
  7  9  1  0  0  0  0
  9  8  1  0  0  0  0
 10  6  1  0  0  0  0
 10 11  1  0  0  0  0
 11  8  1  0  0  0  0
 12  1  1  0  0  0  0
 13 12  2  0  0  0  0
 14 12  1  0  0  0  0
 15 14  1  0  0  0  0
 16 15  1  0  0  0  0
 17 16  1  0  0  0  0
 18 17  1  0  0  0  0
 19 18  1  0  0  0  0
 20 26  1  0  0  0  0
 21 28  1  0  0  0  0
 22 31  2  0  0  0  0
 23 26  1  0  0  0  0
 23 24  2  0  0  0  0
 24 22  1  0  0  0  0
 24 21  1  0  0  0  0
 25 23  1  0  0  0  0
 26 30  2  0  0  0  0
 27 29  1  0  0  0  0
 27 25  1  0  0  0  0
 28 19  1  6  0  0  0
 29 20  1  0  0  0  0
 30 21  1  0  0  0  0
 31 28  1  0  0  0  0
 32 33  1  0  0  0  0
 34 36  1  0  0  0  0
 34 33  1  0  0  0  0
 36 35  2  0  0  0  0
 37 36  1  0  0  0  0
 38 39  1  0  0  0  0
 39 37  1  6  0  0  0
 40 41  1  6  0  0  0
 40 38  1  0  0  0  0
 40 39  1  0  0  0  0
 42 48  1  0  0  0  0
 43 49  1  0  0  0  0
 44 46  1  6  0  0  0
 44 43  1  0  0  0  0
 44 42  1  0  0  0  0
 45 48  1  0  0  0  0
 47 43  2  0  0  0  0
 48 41  1  0  0  0  0
 49 45  1  0  0  0  0
M  END
>  <MODEL>
1

>  <REMARK>
 VINA RESULT:      -7.3      0.000      0.000
  Name = 
  17 active torsions:
  status: ('A' for Active; 'I' for Inactive)
    1  A    between atoms: C_2  and  C_48
    2  A    between atoms: N_3  and  C_22
    3  A    between atoms: S_8  and  C_16
    4  A    between atoms: S_8  and  C_27
    5  A    between atoms: C_15  and  S_25
    6  A    between atoms: C_16  and  C_43
    7  A    between atoms: C_17  and  S_25
    8  A    between atoms: C_17  and  C_31
    9  A    between atoms: C_21  and  N_30
   10  A    between atoms: C_21  and  C_45
   11  A    between atoms: C_22  and  C_27
   12  A    between atoms: C_23  and  N_36
   13  A    between atoms: C_23  and  C_42
   14  A    between atoms: N_30  and  C_43
   15  A    between atoms: C_31  and  C_41
   16  A    between atoms: C_32  and  C_44
   17  A    between atoms: C_41  and  C_44
                            x       y       z     vdW  Elec       q    Type
                         _______ _______ _______ _____ _____    ______ ____

>  <TORSDO>
F 17

$$$$
=
 OpenBabel11042420333D

 49 54  0  0  1  0  0  0  0  0999 V2000
  161.4910  209.4890  150.3060 N   0  0  0  0  0  0  0  0  0  0  0  0
  160.7490  207.0210  149.4550 O   0  0  0  0  0  0  0  0  0  0  0  0
  161.8930  209.6900  149.0830 C   0  0  0  0  0  0  0  0  0  0  0  0
  161.7300  208.6640  148.1000 N   0  0  0  0  0  2  0  0  0  0  0  0
  161.1630  207.3670  148.3170 C   0  0  0  0  0  0  0  0  0  0  0  0
  161.0980  206.4080  147.1760 C   0  0  2  0  0  3  0  0  0  0  0  0
  162.5010  205.9100  146.7890 C   0  0  0  0  0  2  0  0  0  0  0  0
  161.3940  205.3230  144.5870 C   0  0  0  0  0  2  0  0  0  0  0  0
  162.6670  205.8320  145.2690 C   0  0  0  0  0  2  0  0  0  0  0  0
  160.4440  207.0000  146.0810 O   0  0  0  0  0  0  0  0  0  0  0  0
  160.1300  205.9450  145.2030 C   0  0  0  0  0  2  0  0  0  0  0  0
  161.5540  210.3840  151.4280 C   0  0  0  0  0  0  0  0  0  0  0  0
  160.9780  211.5030  151.4210 O   0  0  0  0  0  0  0  0  0  0  0  0
  162.3090  209.9700  152.6430 C   0  0  0  0  0  2  0  0  0  0  0  0
  161.1830  209.2930  153.9000 S   0  0  0  0  0  0  0  0  0  0  0  0
  160.7860  207.8010  152.9330 C   0  0  0  0  0  2  0  0  0  0  0  0
  160.7710  206.5710  153.8210 C   0  0  0  0  0  2  0  0  0  0  0  0
  161.6010  205.5270  153.2430 N   0  0  0  0  0  2  0  0  0  0  0  0
  160.8500  204.9550  152.1420 C   0  0  0  0  0  2  0  0  0  0  0  0
  161.1580  202.7580  146.7400 C   0  0  0  0  0  2  0  0  0  0  0  0
  161.0190  203.4520  150.2470 N   0  0  0  0  0  0  0  0  0  0  0  0
  161.4240  201.5720  151.5240 C   0  0  0  0  0  3  0  0  0  0  0  0
  160.8420  201.6680  149.0040 C   0  0  0  0  0  0  0  0  0  0  0  0
  160.8780  202.1460  150.2880 C   0  0  0  0  0  0  0  0  0  0  0  0
  160.9090  200.2650  148.4870 C   0  0  0  0  0  2  0  0  0  0  0  0
  160.9350  202.8040  148.2190 C   0  0  0  0  0  0  0  0  0  0  0  0
  161.4540  200.2570  147.0500 C   0  0  0  0  0  2  0  0  0  0  0  0
  161.7060  203.9300  151.4210 C   0  0  2  0  0  3  0  0  0  0  0  0
  160.8130  201.3620  146.1950 C   0  0  0  0  0  2  0  0  0  0  0  0
  161.1290  203.8880  149.0030 N   0  0  0  0  0  0  0  0  0  0  0  0
  161.9070  202.7440  152.2810 N   0  0  0  0  0  0  0  0  0  0  0  0
  162.6990  211.2110  148.5660 S   0  0  0  0  0  0  0  0  0  0  0  0
  161.1680  211.8900  147.8720 C   0  0  0  0  0  2  0  0  0  0  0  0
  161.5050  213.0600  146.9660 C   0  0  0  0  0  2  0  0  0  0  0  0
  159.4130  213.7580  146.1390 O   0  0  0  0  0  0  0  0  0  0  0  0
  160.4720  213.2020  145.8970 C   0  0  0  0  0  0  0  0  0  0  0  0
  160.7030  212.6170  144.5420 C   0  0  0  0  0  2  0  0  0  0  0  0
  162.8200  212.6260  143.3940 O   0  0  0  0  0  0  0  0  0  0  0  0
  161.7300  213.4390  143.7610 C   0  0  1  0  0  3  0  0  0  0  0  0
  161.9560  213.0030  142.3490 C   0  0  2  0  0  3  0  0  0  0  0  0
  161.1580  211.7830  141.8970 C   0  0  0  0  0  2  0  0  0  0  0  0
  159.8190  211.1750  140.0680 C   0  0  0  0  0  2  0  0  0  0  0  0
  160.8120  209.1460  139.0880 C   0  0  0  0  0  0  0  0  0  0  0  0
  159.8500  210.2750  138.8310 C   0  0  1  0  0  3  0  0  0  0  0  0
  162.2880  210.8860  140.0230 C   0  0  0  0  0  2  0  0  0  0  0  0
  158.4450  209.7590  138.5700 C   0  0  0  0  0  1  0  0  0  0  0  0
  160.6560  208.0490  138.5760 O   0  0  0  0  0  0  0  0  0  0  0  0
  161.1390  211.7090  140.4450 N   0  0  0  0  0  0  0  0  0  0  0  0
  161.9870  209.3870  139.9810 C   0  0  0  0  0  2  0  0  0  0  0  0
  1 12  1  0  0  0  0
  3  1  2  0  0  0  0
  4  5  1  0  0  0  0
  4  3  1  0  0  0  0
  5  2  2  0  0  0  0
  6  5  1  1  0  0  0
  7  6  1  0  0  0  0
  8 11  1  0  0  0  0
  8  9  1  0  0  0  0
  9  7  1  0  0  0  0
 10  6  1  0  0  0  0
 11 10  1  0  0  0  0
 12 14  1  0  0  0  0
 13 12  2  0  0  0  0
 14 15  1  0  0  0  0
 16 17  1  0  0  0  0
 16 15  1  0  0  0  0
 18 17  1  0  0  0  0
 19 18  1  0  0  0  0
 20 26  1  0  0  0  0
 21 24  1  0  0  0  0
 21 28  1  0  0  0  0
 22 31  2  0  0  0  0
 23 24  2  0  0  0  0
 24 22  1  0  0  0  0
 25 23  1  0  0  0  0
 26 30  2  0  0  0  0
 26 23  1  0  0  0  0
 27 25  1  0  0  0  0
 28 19  1  1  0  0  0
 28 31  1  0  0  0  0
 29 20  1  0  0  0  0
 29 27  1  0  0  0  0
 30 21  1  0  0  0  0
 32  3  1  0  0  0  0
 33 32  1  0  0  0  0
 34 33  1  0  0  0  0
 36 35  2  0  0  0  0
 36 34  1  0  0  0  0
 37 36  1  0  0  0  0
 38 39  1  0  0  0  0
 39 37  1  1  0  0  0
 40 41  1  1  0  0  0
 40 38  1  0  0  0  0
 40 39  1  0  0  0  0
 42 48  1  0  0  0  0
 43 49  1  0  0  0  0
 44 46  1  1  0  0  0
 44 43  1  0  0  0  0
 44 42  1  0  0  0  0
 45 48  1  0  0  0  0
 47 43  2  0  0  0  0
 48 41  1  0  0  0  0
 49 45  1  0  0  0  0
M  END
>  <MODEL>
2

>  <REMARK>
 VINA RESULT:      -7.2      2.707     10.488
  Name = 
  17 active torsions:
  status: ('A' for Active; 'I' for Inactive)
    1  A    between atoms: C_2  and  C_48
    2  A    between atoms: N_3  and  C_22
    3  A    between atoms: S_8  and  C_16
    4  A    between atoms: S_8  and  C_27
    5  A    between atoms: C_15  and  S_25
    6  A    between atoms: C_16  and  C_43
    7  A    between atoms: C_17  and  S_25
    8  A    between atoms: C_17  and  C_31
    9  A    between atoms: C_21  and  N_30
   10  A    between atoms: C_21  and  C_45
   11  A    between atoms: C_22  and  C_27
   12  A    between atoms: C_23  and  N_36
   13  A    between atoms: C_23  and  C_42
   14  A    between atoms: N_30  and  C_43
   15  A    between atoms: C_31  and  C_41
   16  A    between atoms: C_32  and  C_44
   17  A    between atoms: C_41  and  C_44
                            x       y       z     vdW  Elec       q    Type
                         _______ _______ _______ _____ _____    ______ ____

>  <TORSDO>
F 17

$$$$
=
 OpenBabel11042420333D

 49 54  0  0  1  0  0  0  0  0999 V2000
  159.9240  209.6080  154.8050 N   0  0  0  0  0  0  0  0  0  0  0  0
  157.9960  210.7600  156.3290 O   0  0  0  0  0  0  0  0  0  0  0  0
  159.8450  210.6740  154.0600 C   0  0  0  0  0  0  0  0  0  0  0  0
  158.9380  211.7240  154.4090 N   0  0  0  0  0  2  0  0  0  0  0  0
  158.0470  211.7330  155.5300 C   0  0  0  0  0  0  0  0  0  0  0  0
  157.1450  212.9060  155.7250 C   0  0  2  0  0  3  0  0  0  0  0  0
  156.6090  212.9610  157.1660 C   0  0  0  0  0  2  0  0  0  0  0  0
  154.8070  214.4270  156.1550 C   0  0  0  0  0  2  0  0  0  0  0  0
  155.1290  213.3520  157.1960 C   0  0  0  0  0  2  0  0  0  0  0  0
  156.0980  212.8740  154.7890 O   0  0  0  0  0  0  0  0  0  0  0  0
  155.5150  214.1560  154.8170 C   0  0  0  0  0  2  0  0  0  0  0  0
  160.7680  208.4580  154.6360 C   0  0  0  0  0  0  0  0  0  0  0  0
  161.7720  208.2550  155.3670 O   0  0  0  0  0  0  0  0  0  0  0  0
  160.4370  207.4670  153.5740 C   0  0  0  0  0  2  0  0  0  0  0  0
  161.9270  206.5660  153.0510 S   0  0  0  0  0  0  0  0  0  0  0  0
  162.2620  207.6680  151.6400 C   0  0  0  0  0  2  0  0  0  0  0  0
  161.4500  207.2540  150.4270 C   0  0  0  0  0  2  0  0  0  0  0  0
  161.6180  208.2250  149.3590 N   0  0  0  0  0  2  0  0  0  0  0  0
  162.1160  207.4990  148.2060 C   0  0  0  0  0  2  0  0  0  0  0  0
  161.0560  201.7890  148.8150 C   0  0  0  0  0  2  0  0  0  0  0  0
  161.5730  205.1750  147.7820 N   0  0  0  0  0  0  0  0  0  0  0  0
  160.9860  205.5120  145.5750 C   0  0  0  0  0  3  0  0  0  0  0  0
  161.3770  203.2510  146.7720 C   0  0  0  0  0  0  0  0  0  0  0  0
  161.5150  204.6030  146.5990 C   0  0  0  0  0  0  0  0  0  0  0  0
  161.0570  202.1720  145.7850 C   0  0  0  0  0  2  0  0  0  0  0  0
  161.3980  203.0830  148.1460 C   0  0  0  0  0  0  0  0  0  0  0  0
  160.4060  200.9780  146.5000 C   0  0  0  0  0  2  0  0  0  0  0  0
  161.0600  206.5210  147.7250 C   0  0  2  0  0  3  0  0  0  0  0  0
  161.1400  200.6320  147.8060 C   0  0  0  0  0  2  0  0  0  0  0  0
  161.4340  204.2900  148.7550 N   0  0  0  0  0  0  0  0  0  0  0  0
  160.7490  206.7740  146.3020 N   0  0  0  0  0  0  0  0  0  0  0  0
  160.8110  210.8810  152.5580 S   0  0  0  0  0  0  0  0  0  0  0  0
  159.8110  212.2880  152.0040 C   0  0  0  0  0  2  0  0  0  0  0  0
  160.4270  212.8740  150.7480 C   0  0  0  0  0  2  0  0  0  0  0  0
  158.3710  214.0000  150.5120 O   0  0  0  0  0  0  0  0  0  0  0  0
  159.3970  213.6260  149.9680 C   0  0  0  0  0  0  0  0  0  0  0  0
  159.5900  213.8750  148.5090 C   0  0  0  0  0  2  0  0  0  0  0  0
  161.7960  213.2650  147.7600 O   0  0  0  0  0  0  0  0  0  0  0  0
  161.0170  214.3450  148.2190 C   0  0  1  0  0  3  0  0  0  0  0  0
  161.4500  214.2280  146.7930 C   0  0  2  0  0  3  0  0  0  0  0  0
  160.4240  213.6270  145.8360 C   0  0  0  0  0  2  0  0  0  0  0  0
  159.8540  213.2940  143.5840 C   0  0  0  0  0  2  0  0  0  0  0  0
  161.8970  212.5640  142.4210 C   0  0  0  0  0  0  0  0  0  0  0  0
  160.5120  213.1150  142.2140 C   0  0  1  0  0  3  0  0  0  0  0  0
  162.0670  214.2190  144.2400 C   0  0  0  0  0  2  0  0  0  0  0  0
  159.6570  212.1740  141.3830 C   0  0  0  0  0  1  0  0  0  0  0  0
  162.4250  211.8430  141.5880 O   0  0  0  0  0  0  0  0  0  0  0  0
  160.6150  214.1630  144.4990 N   0  0  0  0  0  0  0  0  0  0  0  0
  162.6390  212.9210  143.6680 C   0  0  0  0  0  2  0  0  0  0  0  0
  3  4  1  0  0  0  0
  3  1  2  0  0  0  0
  4  5  1  0  0  0  0
  5  2  2  0  0  0  0
  6  5  1  1  0  0  0
  6  7  1  0  0  0  0
  7  9  1  0  0  0  0
  8  9  1  0  0  0  0
 10 11  1  0  0  0  0
 10  6  1  0  0  0  0
 11  8  1  0  0  0  0
 12  1  1  0  0  0  0
 12 13  2  0  0  0  0
 14 12  1  0  0  0  0
 15 14  1  0  0  0  0
 16 15  1  0  0  0  0
 17 16  1  0  0  0  0
 18 17  1  0  0  0  0
 19 18  1  0  0  0  0
 21 30  1  0  0  0  0
 22 31  2  0  0  0  0
 22 24  1  0  0  0  0
 23 26  1  0  0  0  0
 24 23  2  0  0  0  0
 24 21  1  0  0  0  0
 25 27  1  0  0  0  0
 25 23  1  0  0  0  0
 26 30  2  0  0  0  0
 26 20  1  0  0  0  0
 27 29  1  0  0  0  0
 28 21  1  0  0  0  0
 28 19  1  6  0  0  0
 29 20  1  0  0  0  0
 31 28  1  0  0  0  0
 32  3  1  0  0  0  0
 33 32  1  0  0  0  0
 34 33  1  0  0  0  0
 36 35  2  0  0  0  0
 36 34  1  0  0  0  0
 37 36  1  0  0  0  0
 38 39  1  0  0  0  0
 39 37  1  6  0  0  0
 40 41  1  6  0  0  0
 40 38  1  0  0  0  0
 40 39  1  0  0  0  0
 42 48  1  0  0  0  0
 43 49  1  0  0  0  0
 44 46  1  6  0  0  0
 44 43  1  0  0  0  0
 44 42  1  0  0  0  0
 45 48  1  0  0  0  0
 47 43  2  0  0  0  0
 48 41  1  0  0  0  0
 49 45  1  0  0  0  0
M  END
>  <MODEL>
3

>  <REMARK>
 VINA RESULT:      -6.9      3.310      8.598
  Name = 
  17 active torsions:
  status: ('A' for Active; 'I' for Inactive)
    1  A    between atoms: C_2  and  C_48
    2  A    between atoms: N_3  and  C_22
    3  A    between atoms: S_8  and  C_16
    4  A    between atoms: S_8  and  C_27
    5  A    between atoms: C_15  and  S_25
    6  A    between atoms: C_16  and  C_43
    7  A    between atoms: C_17  and  S_25
    8  A    between atoms: C_17  and  C_31
    9  A    between atoms: C_21  and  N_30
   10  A    between atoms: C_21  and  C_45
   11  A    between atoms: C_22  and  C_27
   12  A    between atoms: C_23  and  N_36
   13  A    between atoms: C_23  and  C_42
   14  A    between atoms: N_30  and  C_43
   15  A    between atoms: C_31  and  C_41
   16  A    between atoms: C_32  and  C_44
   17  A    between atoms: C_41  and  C_44
                            x       y       z     vdW  Elec       q    Type
                         _______ _______ _______ _____ _____    ______ ____

>  <TORSDO>
F 17

$$$$
=
 OpenBabel11042420333D

 49 54  0  0  1  0  0  0  0  0999 V2000
  161.7490  209.6780  150.4730 N   0  0  0  0  0  0  0  0  0  0  0  0
  161.2080  212.2240  149.7020 O   0  0  0  0  0  0  0  0  0  0  0  0
  161.9820  209.4430  149.2130 C   0  0  0  0  0  0  0  0  0  0  0  0
  161.8660  210.4990  148.2550 N   0  0  0  0  0  2  0  0  0  0  0  0
  161.4850  211.8520  148.5310 C   0  0  0  0  0  0  0  0  0  0  0  0
  161.3870  212.8180  147.3980 C   0  0  2  0  0  3  0  0  0  0  0  0
  160.2030  212.4760  146.4780 C   0  0  0  0  0  2  0  0  0  0  0  0
  161.4640  213.8740  144.7810 C   0  0  0  0  0  2  0  0  0  0  0  0
  160.5760  212.6470  145.0020 C   0  0  0  0  0  2  0  0  0  0  0  0
  162.5980  212.8550  146.6850 O   0  0  0  0  0  0  0  0  0  0  0  0
  162.5350  214.0070  145.8770 C   0  0  0  0  0  2  0  0  0  0  0  0
  161.8190  208.7680  151.5820 C   0  0  0  0  0  0  0  0  0  0  0  0
  162.7230  207.8980  151.6740 O   0  0  0  0  0  0  0  0  0  0  0  0
  160.8000  208.8650  152.6640 C   0  0  0  0  0  2  0  0  0  0  0  0
  161.3670  209.9810  153.9820 S   0  0  0  0  0  0  0  0  0  0  0  0
  160.6630  208.9720  155.3250 C   0  0  0  0  0  2  0  0  0  0  0  0
  160.2370  209.8460  156.4900 C   0  0  0  0  0  2  0  0  0  0  0  0
  160.0090  211.2080  156.0360 N   0  0  0  0  0  2  0  0  0  0  0  0
  158.7000  211.5990  156.5230 C   0  0  0  0  0  2  0  0  0  0  0  0
  158.2910  213.3950  150.9810 C   0  0  0  0  0  2  0  0  0  0  0  0
  157.8990  212.5200  154.4280 N   0  0  0  0  0  0  0  0  0  0  0  0
  155.7290  212.8100  155.1590 C   0  0  0  0  0  3  0  0  0  0  0  0
  156.8000  213.7470  152.9970 C   0  0  0  0  0  0  0  0  0  0  0  0
  156.8150  213.2470  154.2730 C   0  0  0  0  0  0  0  0  0  0  0  0
  155.7150  214.4470  152.2400 C   0  0  0  0  0  2  0  0  0  0  0  0
  157.9790  213.2830  152.4400 C   0  0  0  0  0  0  0  0  0  0  0  0
  155.9170  214.2540  150.7290 C   0  0  0  0  0  2  0  0  0  0  0  0
  157.6830  211.4800  155.4020 C   0  0  2  0  0  3  0  0  0  0  0  0
  157.3880  214.4510  150.3250 C   0  0  0  0  0  2  0  0  0  0  0  0
  158.6040  212.4580  153.3100 N   0  0  0  0  0  0  0  0  0  0  0  0
  156.3200  211.6990  155.9310 N   0  0  0  0  0  0  0  0  0  0  0  0
  162.4140  207.8110  148.5950 S   0  0  0  0  0  0  0  0  0  0  0  0
  160.9020  207.0630  149.2590 C   0  0  0  0  0  2  0  0  0  0  0  0
  160.9340  205.5670  149.0110 C   0  0  0  0  0  2  0  0  0  0  0  0
  161.0410  205.2730  151.3460 O   0  0  0  0  0  0  0  0  0  0  0  0
  160.6550  204.8260  150.2780 C   0  0  0  0  0  0  0  0  0  0  0  0
  159.9520  203.5090  150.2430 C   0  0  0  0  0  2  0  0  0  0  0  0
  160.2870  201.1240  150.2730 O   0  0  0  0  0  0  0  0  0  0  0  0
  160.9350  202.3590  150.4720 C   0  0  1  0  0  3  0  0  0  0  0  0
  161.2070  201.5040  149.2770 C   0  0  2  0  0  3  0  0  0  0  0  0
  160.4440  201.8750  148.0090 C   0  0  0  0  0  2  0  0  0  0  0  0
  161.9010  203.3720  146.9390 C   0  0  0  0  0  2  0  0  0  0  0  0
  160.8810  203.9510  144.7740 C   0  0  0  0  0  0  0  0  0  0  0  0
  162.1650  203.9790  145.5600 C   0  0  1  0  0  3  0  0  0  0  0  0
  160.6250  201.6640  145.6600 C   0  0  0  0  0  2  0  0  0  0  0  0
  162.6750  205.3980  145.7420 C   0  0  0  0  0  1  0  0  0  0  0  0
  160.6360  204.7950  143.9260 O   0  0  0  0  0  0  0  0  0  0  0  0
  161.3640  202.0010  146.8910 N   0  0  0  0  0  0  0  0  0  0  0  0
  159.8970  202.8560  145.0360 C   0  0  0  0  0  2  0  0  0  0  0  0
  1 12  1  0  0  0  0
  3  1  2  0  0  0  0
  4  5  1  0  0  0  0
  4  3  1  0  0  0  0
  5  2  2  0  0  0  0
  6  5  1  1  0  0  0
  7  6  1  0  0  0  0
  8  9  1  0  0  0  0
  8 11  1  0  0  0  0
  9  7  1  0  0  0  0
 10  6  1  0  0  0  0
 11 10  1  0  0  0  0
 12 13  2  0  0  0  0
 12 14  1  0  0  0  0
 14 15  1  0  0  0  0
 15 16  1  0  0  0  0
 16 17  1  0  0  0  0
 18 17  1  0  0  0  0
 18 19  1  0  0  0  0
 20 26  1  0  0  0  0
 21 28  1  0  0  0  0
 22 31  2  0  0  0  0
 23 24  2  0  0  0  0
 24 21  1  0  0  0  0
 24 22  1  0  0  0  0
 25 23  1  0  0  0  0
 26 23  1  0  0  0  0
 26 30  2  0  0  0  0
 27 25  1  0  0  0  0
 28 31  1  0  0  0  0
 28 19  1  1  0  0  0
 29 27  1  0  0  0  0
 29 20  1  0  0  0  0
 30 21  1  0  0  0  0
 32  3  1  0  0  0  0
 32 33  1  0  0  0  0
 34 33  1  0  0  0  0
 34 36  1  0  0  0  0
 36 35  2  0  0  0  0
 37 36  1  0  0  0  0
 38 39  1  0  0  0  0
 39 37  1  6  0  0  0
 40 41  1  6  0  0  0
 40 38  1  0  0  0  0
 40 39  1  0  0  0  0
 43 49  1  0  0  0  0
 43 44  1  0  0  0  0
 44 46  1  1  0  0  0
 44 42  1  0  0  0  0
 45 48  1  0  0  0  0
 47 43  2  0  0  0  0
 48 42  1  0  0  0  0
 48 41  1  0  0  0  0
 49 45  1  0  0  0  0
M  END
>  <MODEL>
4

>  <REMARK>
 VINA RESULT:      -6.8      4.063      9.222
  Name = 
  17 active torsions:
  status: ('A' for Active; 'I' for Inactive)
    1  A    between atoms: C_2  and  C_48
    2  A    between atoms: N_3  and  C_22
    3  A    between atoms: S_8  and  C_16
    4  A    between atoms: S_8  and  C_27
    5  A    between atoms: C_15  and  S_25
    6  A    between atoms: C_16  and  C_43
    7  A    between atoms: C_17  and  S_25
    8  A    between atoms: C_17  and  C_31
    9  A    between atoms: C_21  and  N_30
   10  A    between atoms: C_21  and  C_45
   11  A    between atoms: C_22  and  C_27
   12  A    between atoms: C_23  and  N_36
   13  A    between atoms: C_23  and  C_42
   14  A    between atoms: N_30  and  C_43
   15  A    between atoms: C_31  and  C_41
   16  A    between atoms: C_32  and  C_44
   17  A    between atoms: C_41  and  C_44
                            x       y       z     vdW  Elec       q    Type
                         _______ _______ _______ _____ _____    ______ ____

>  <TORSDO>
F 17

$$$$
=
 OpenBabel11042420333D

 49 54  0  0  1  0  0  0  0  0999 V2000
  161.5040  208.4650  151.6470 N   0  0  0  0  0  0  0  0  0  0  0  0
  160.4110  209.9720  153.6230 O   0  0  0  0  0  0  0  0  0  0  0  0
  161.5030  209.5580  150.9380 C   0  0  0  0  0  0  0  0  0  0  0  0
  161.0190  210.7790  151.5060 N   0  0  0  0  0  2  0  0  0  0  0  0
  160.4930  210.9450  152.8270 C   0  0  0  0  0  0  0  0  0  0  0  0
  160.0050  212.2930  153.2440 C   0  0  2  0  0  3  0  0  0  0  0  0
  159.4930  212.2730  154.6950 C   0  0  0  0  0  2  0  0  0  0  0  0
  158.2600  214.3770  154.0060 C   0  0  0  0  0  2  0  0  0  0  0  0
  158.2120  213.0980  154.8460 C   0  0  0  0  0  2  0  0  0  0  0  0
  159.0140  212.7460  152.3570 O   0  0  0  0  0  0  0  0  0  0  0  0
  158.8650  214.1230  152.6150 C   0  0  0  0  0  2  0  0  0  0  0  0
  161.9500  207.1530  151.2700 C   0  0  0  0  0  0  0  0  0  0  0  0
  163.1540  206.9130  150.9920 O   0  0  0  0  0  0  0  0  0  0  0  0
  160.9640  206.0380  151.2220 C   0  0  0  0  0  2  0  0  0  0  0  0
  161.1650  204.9410  152.6580 S   0  0  0  0  0  0  0  0  0  0  0  0
  161.9920  203.6260  151.7060 C   0  0  0  0  0  2  0  0  0  0  0  0
  161.2270  202.3200  151.8130 C   0  0  0  0  0  2  0  0  0  0  0  0
  160.3140  202.1830  150.6900 N   0  0  0  0  0  2  0  0  0  0  0  0
  160.6920  200.9710  149.9880 C   0  0  0  0  0  2  0  0  0  0  0  0
  161.9730  205.8110  146.9810 C   0  0  0  0  0  2  0  0  0  0  0  0
  161.1100  202.5620  148.2070 N   0  0  0  0  0  0  0  0  0  0  0  0
  160.9770  200.9990  146.5140 C   0  0  0  0  0  3  0  0  0  0  0  0
  161.0110  203.5760  146.2780 C   0  0  0  0  0  0  0  0  0  0  0  0
  160.8060  202.3940  146.9390 C   0  0  0  0  0  0  0  0  0  0  0  0
  161.0240  203.8810  144.8120 C   0  0  0  0  0  2  0  0  0  0  0  0
  161.4210  204.4500  147.2700 C   0  0  0  0  0  0  0  0  0  0  0  0
  161.8820  205.1250  144.5390 C   0  0  0  0  0  2  0  0  0  0  0  0
  161.5600  201.3250  148.7940 C   0  0  2  0  0  3  0  0  0  0  0  0
  161.5960  206.2440  145.5550 C   0  0  0  0  0  2  0  0  0  0  0  0
  161.5580  203.7850  148.4390 N   0  0  0  0  0  0  0  0  0  0  0  0
  161.4100  200.2990  147.7400 N   0  0  0  0  0  0  0  0  0  0  0  0
  162.0520  209.6030  149.2270 S   0  0  0  0  0  0  0  0  0  0  0  0
  162.0150  211.4140  149.1710 C   0  0  0  0  0  2  0  0  0  0  0  0
  161.2270  211.8600  147.9520 C   0  0  0  0  0  2  0  0  0  0  0  0
  163.2740  212.8300  147.3060 O   0  0  0  0  0  0  0  0  0  0  0  0
  162.0950  212.6620  147.0390 C   0  0  0  0  0  0  0  0  0  0  0  0
  161.5170  213.3080  145.8230 C   0  0  0  0  0  2  0  0  0  0  0  0
  159.4750  213.5250  144.5650 O   0  0  0  0  0  0  0  0  0  0  0  0
  160.1620  212.6920  145.4690 C   0  0  1  0  0  3  0  0  0  0  0  0
  159.9830  212.3260  144.0310 C   0  0  2  0  0  3  0  0  0  0  0  0
  161.1600  212.6480  143.1140 C   0  0  0  0  0  2  0  0  0  0  0  0
  161.0890  211.1120  141.3410 C   0  0  0  0  0  2  0  0  0  0  0  0
  162.7410  211.8560  139.6740 C   0  0  0  0  0  0  0  0  0  0  0  0
  161.5470  210.9660  139.8890 C   0  0  1  0  0  3  0  0  0  0  0  0
  161.4620  213.5380  140.9440 C   0  0  0  0  0  2  0  0  0  0  0  0
  161.8870  209.5070  139.6310 C   0  0  0  0  0  1  0  0  0  0  0  0
  163.6080  211.5720  138.8630 O   0  0  0  0  0  0  0  0  0  0  0  0
  160.7650  212.4980  141.7240 N   0  0  0  0  0  0  0  0  0  0  0  0
  162.8530  213.1190  140.4660 C   0  0  0  0  0  2  0  0  0  0  0  0
  3  4  1  0  0  0  0
  3  1  2  0  0  0  0
  4  5  1  0  0  0  0
  5  2  2  0  0  0  0
  6  5  1  6  0  0  0
  6  7  1  0  0  0  0
  7  9  1  0  0  0  0
  8  9  1  0  0  0  0
 10 11  1  0  0  0  0
 10  6  1  0  0  0  0
 11  8  1  0  0  0  0
 12  1  1  0  0  0  0
 13 12  2  0  0  0  0
 14 12  1  0  0  0  0
 14 15  1  0  0  0  0
 16 17  1  0  0  0  0
 16 15  1  0  0  0  0
 18 17  1  0  0  0  0
 19 18  1  0  0  0  0
 20 26  1  0  0  0  0
 21 30  1  0  0  0  0
 21 28  1  0  0  0  0
 22 24  1  0  0  0  0
 22 31  2  0  0  0  0
 23 24  2  0  0  0  0
 23 26  1  0  0  0  0
 24 21  1  0  0  0  0
 25 23  1  0  0  0  0
 26 30  2  0  0  0  0
 27 25  1  0  0  0  0
 27 29  1  0  0  0  0
 28 19  1  1  0  0  0
 29 20  1  0  0  0  0
 31 28  1  0  0  0  0
 32  3  1  0  0  0  0
 33 32  1  0  0  0  0
 34 33  1  0  0  0  0
 36 35  2  0  0  0  0
 36 34  1  0  0  0  0
 37 36  1  0  0  0  0
 38 39  1  0  0  0  0
 39 37  1  6  0  0  0
 40 41  1  6  0  0  0
 40 38  1  0  0  0  0
 40 39  1  0  0  0  0
 42 48  1  0  0  0  0
 43 44  1  0  0  0  0
 43 49  1  0  0  0  0
 44 46  1  1  0  0  0
 44 42  1  0  0  0  0
 45 48  1  0  0  0  0
 47 43  2  0  0  0  0
 48 41  1  0  0  0  0
 49 45  1  0  0  0  0
M  END
>  <MODEL>
5

>  <REMARK>
 VINA RESULT:      -6.8      2.466      9.166
  Name = 
  17 active torsions:
  status: ('A' for Active; 'I' for Inactive)
    1  A    between atoms: C_2  and  C_48
    2  A    between atoms: N_3  and  C_22
    3  A    between atoms: S_8  and  C_16
    4  A    between atoms: S_8  and  C_27
    5  A    between atoms: C_15  and  S_25
    6  A    between atoms: C_16  and  C_43
    7  A    between atoms: C_17  and  S_25
    8  A    between atoms: C_17  and  C_31
    9  A    between atoms: C_21  and  N_30
   10  A    between atoms: C_21  and  C_45
   11  A    between atoms: C_22  and  C_27
   12  A    between atoms: C_23  and  N_36
   13  A    between atoms: C_23  and  C_42
   14  A    between atoms: N_30  and  C_43
   15  A    between atoms: C_31  and  C_41
   16  A    between atoms: C_32  and  C_44
   17  A    between atoms: C_41  and  C_44
                            x       y       z     vdW  Elec       q    Type
                         _______ _______ _______ _____ _____    ______ ____

>  <TORSDO>
F 17

$$$$
=
 OpenBabel11042420333D

 49 54  0  0  1  0  0  0  0  0999 V2000
  160.6860  212.3670  149.6390 N   0  0  0  0  0  0  0  0  0  0  0  0
  159.9780  212.2620  152.2580 O   0  0  0  0  0  0  0  0  0  0  0  0
  161.3520  211.2720  149.8690 C   0  0  0  0  0  0  0  0  0  0  0  0
  161.3350  210.6850  151.1740 N   0  0  0  0  0  2  0  0  0  0  0  0
  160.6480  211.1970  152.3210 C   0  0  0  0  0  0  0  0  0  0  0  0
  160.7640  210.4660  153.6170 C   0  0  2  0  0  3  0  0  0  0  0  0
  161.5160  209.1350  153.4380 C   0  0  0  0  0  2  0  0  0  0  0  0
  160.3820  208.5090  155.6160 C   0  0  0  0  0  2  0  0  0  0  0  0
  160.8650  208.0130  154.2510 C   0  0  0  0  0  2  0  0  0  0  0  0
  159.4900  210.2630  154.1760 O   0  0  0  0  0  0  0  0  0  0  0  0
  159.7120  209.8900  155.5150 C   0  0  0  0  0  2  0  0  0  0  0  0
  160.5690  213.1030  148.4110 C   0  0  0  0  0  0  0  0  0  0  0  0
  159.6160  212.9150  147.6110 O   0  0  0  0  0  0  0  0  0  0  0  0
  161.5960  214.1300  148.0800 C   0  0  0  0  0  2  0  0  0  0  0  0
  162.7210  213.5200  146.7890 S   0  0  0  0  0  0  0  0  0  0  0  0
  161.8370  214.3590  145.4350 C   0  0  0  0  0  2  0  0  0  0  0  0
  161.2580  213.3490  144.4610 C   0  0  0  0  0  2  0  0  0  0  0  0
  161.5470  213.7510  143.0940 N   0  0  0  0  0  2  0  0  0  0  0  0
  162.3470  212.6920  142.5070 C   0  0  0  0  0  2  0  0  0  0  0  0
  157.3390  212.5670  139.5050 C   0  0  0  0  0  2  0  0  0  0  0  0
  160.5590  212.0820  140.9880 N   0  0  0  0  0  0  0  0  0  0  0  0
  161.7490  210.3960  139.9530 C   0  0  0  0  0  3  0  0  0  0  0  0
  159.2150  210.8850  139.7540 C   0  0  0  0  0  0  0  0  0  0  0  0
  160.4440  210.9340  140.3580 C   0  0  0  0  0  0  0  0  0  0  0  0
  158.6610  209.9180  138.7550 C   0  0  0  0  0  2  0  0  0  0  0  0
  158.6150  212.0780  140.1160 C   0  0  0  0  0  0  0  0  0  0  0  0
  157.5520  210.5900  137.9300 C   0  0  0  0  0  2  0  0  0  0  0  0
  161.9390  212.4910  141.0590 C   0  0  2  0  0  3  0  0  0  0  0  0
  156.6000  211.4070  138.8200 C   0  0  0  0  0  2  0  0  0  0  0  0
  159.4910  212.8420  140.8060 N   0  0  0  0  0  0  0  0  0  0  0  0
  162.7190  211.3840  140.4640 N   0  0  0  0  0  0  0  0  0  0  0  0
  162.3510  210.4620  148.6120 S   0  0  0  0  0  0  0  0  0  0  0  0
  161.6880  208.8240  149.0150 C   0  0  0  0  0  2  0  0  0  0  0  0
  162.6250  207.7600  148.4770 C   0  0  0  0  0  2  0  0  0  0  0  0
  160.7230  207.0630  147.2750 O   0  0  0  0  0  0  0  0  0  0  0  0
  161.9060  206.8780  147.5080 C   0  0  0  0  0  0  0  0  0  0  0  0
  162.6130  205.7320  146.8630 C   0  0  0  0  0  2  0  0  0  0  0  0
  162.3700  203.9420  145.2710 O   0  0  0  0  0  0  0  0  0  0  0  0
  161.7500  205.1060  145.7660 C   0  0  1  0  0  3  0  0  0  0  0  0
  161.2280  203.7380  146.0680 C   0  0  2  0  0  3  0  0  0  0  0  0
  161.6540  203.1470  147.4080 C   0  0  0  0  0  2  0  0  0  0  0  0
  161.0790  204.3250  149.3550 C   0  0  0  0  0  2  0  0  0  0  0  0
  161.0580  202.7000  151.2040 C   0  0  0  0  0  0  0  0  0  0  0  0
  160.6090  204.0760  150.7900 C   0  0  1  0  0  3  0  0  0  0  0  0
  160.2960  201.9980  148.9670 C   0  0  0  0  0  2  0  0  0  0  0  0
  161.2020  205.1480  151.6880 C   0  0  0  0  0  1  0  0  0  0  0  0
  161.3130  202.4390  152.3700 O   0  0  0  0  0  0  0  0  0  0  0  0
  160.5970  203.3220  148.3900 N   0  0  0  0  0  0  0  0  0  0  0  0
  161.1780  201.6340  150.1630 C   0  0  0  0  0  2  0  0  0  0  0  0
  1  3  2  0  0  0  0
  2  5  2  0  0  0  0
  3  4  1  0  0  0  0
  4  5  1  0  0  0  0
  6  5  1  6  0  0  0
  6 10  1  0  0  0  0
  7  6  1  0  0  0  0
  7  9  1  0  0  0  0
  9  8  1  0  0  0  0
 10 11  1  0  0  0  0
 11  8  1  0  0  0  0
 12  1  1  0  0  0  0
 13 12  2  0  0  0  0
 14 12  1  0  0  0  0
 15 14  1  0  0  0  0
 16 15  1  0  0  0  0
 17 16  1  0  0  0  0
 18 17  1  0  0  0  0
 19 18  1  0  0  0  0
 20 26  1  0  0  0  0
 21 28  1  0  0  0  0
 22 24  1  0  0  0  0
 22 31  2  0  0  0  0
 23 26  1  0  0  0  0
 23 24  2  0  0  0  0
 24 21  1  0  0  0  0
 25 23  1  0  0  0  0
 26 30  2  0  0  0  0
 27 25  1  0  0  0  0
 27 29  1  0  0  0  0
 28 19  1  1  0  0  0
 29 20  1  0  0  0  0
 30 21  1  0  0  0  0
 31 28  1  0  0  0  0
 32 33  1  0  0  0  0
 32  3  1  0  0  0  0
 34 33  1  0  0  0  0
 35 36  2  0  0  0  0
 36 34  1  0  0  0  0
 37 36  1  0  0  0  0
 38 39  1  0  0  0  0
 38 40  1  0  0  0  0
 39 40  1  0  0  0  0
 39 37  1  1  0  0  0
 40 41  1  1  0  0  0
 41 48  1  0  0  0  0
 42 44  1  0  0  0  0
 43 47  2  0  0  0  0
 44 43  1  0  0  0  0
 44 46  1  1  0  0  0
 45 49  1  0  0  0  0
 48 45  1  0  0  0  0
 48 42  1  0  0  0  0
 49 43  1  0  0  0  0
M  END
>  <MODEL>
6

>  <REMARK>
 VINA RESULT:      -6.7      1.999      3.794
  Name = 
  17 active torsions:
  status: ('A' for Active; 'I' for Inactive)
    1  A    between atoms: C_2  and  C_48
    2  A    between atoms: N_3  and  C_22
    3  A    between atoms: S_8  and  C_16
    4  A    between atoms: S_8  and  C_27
    5  A    between atoms: C_15  and  S_25
    6  A    between atoms: C_16  and  C_43
    7  A    between atoms: C_17  and  S_25
    8  A    between atoms: C_17  and  C_31
    9  A    between atoms: C_21  and  N_30
   10  A    between atoms: C_21  and  C_45
   11  A    between atoms: C_22  and  C_27
   12  A    between atoms: C_23  and  N_36
   13  A    between atoms: C_23  and  C_42
   14  A    between atoms: N_30  and  C_43
   15  A    between atoms: C_31  and  C_41
   16  A    between atoms: C_32  and  C_44
   17  A    between atoms: C_41  and  C_44
                            x       y       z     vdW  Elec       q    Type
                         _______ _______ _______ _____ _____    ______ ____

>  <TORSDO>
F 17

$$$$
=
 OpenBabel11042420333D

 49 54  0  0  1  0  0  0  0  0999 V2000
  160.4650  212.6460  150.4200 N   0  0  0  0  0  0  0  0  0  0  0  0
  159.6100  212.9760  152.9750 O   0  0  0  0  0  0  0  0  0  0  0  0
  161.0190  211.5450  150.8440 C   0  0  0  0  0  0  0  0  0  0  0  0
  160.8780  211.1560  152.2140 N   0  0  0  0  0  2  0  0  0  0  0  0
  160.1780  211.8820  153.2310 C   0  0  0  0  0  0  0  0  0  0  0  0
  160.1590  211.3380  154.6200 C   0  0  2  0  0  3  0  0  0  0  0  0
  161.4980  210.6670  154.9730 C   0  0  0  0  0  2  0  0  0  0  0  0
  160.1350  209.5000  156.7630 C   0  0  0  0  0  2  0  0  0  0  0  0
  161.2820  209.3700  155.7570 C   0  0  0  0  0  2  0  0  0  0  0  0
  159.0820  210.4490  154.7780 O   0  0  0  0  0  0  0  0  0  0  0  0
  158.9380  210.2600  156.1670 C   0  0  0  0  0  2  0  0  0  0  0  0
  160.4800  213.2030  149.0960 C   0  0  0  0  0  0  0  0  0  0  0  0
  159.5820  212.9420  148.2540 O   0  0  0  0  0  0  0  0  0  0  0  0
  161.5810  214.1300  148.7120 C   0  0  0  0  0  2  0  0  0  0  0  0
  162.7620  213.3000  147.6070 S   0  0  0  0  0  0  0  0  0  0  0  0
  162.2430  214.2340  146.1320 C   0  0  0  0  0  2  0  0  0  0  0  0
  161.6190  213.3110  145.1020 C   0  0  0  0  0  2  0  0  0  0  0  0
  161.9740  213.7460  143.7610 N   0  0  0  0  0  2  0  0  0  0  0  0
  162.1030  212.5500  142.9510 C   0  0  0  0  0  2  0  0  0  0  0  0
  157.1280  212.7510  139.8980 C   0  0  0  0  0  2  0  0  0  0  0  0
  160.4160  212.2820  141.2310 N   0  0  0  0  0  0  0  0  0  0  0  0
  161.8580  211.3550  139.6850 C   0  0  0  0  0  3  0  0  0  0  0  0
  159.2750  211.4460  139.5690 C   0  0  0  0  0  0  0  0  0  0  0  0
  160.4890  211.4650  140.2030 C   0  0  0  0  0  0  0  0  0  0  0  0
  158.8750  210.8640  138.2500 C   0  0  0  0  0  2  0  0  0  0  0  0
  158.4830  212.2870  140.3330 C   0  0  0  0  0  0  0  0  0  0  0  0
  157.6480  211.6040  137.6950 C   0  0  0  0  0  2  0  0  0  0  0  0
  161.7050  212.8590  141.5190 C   0  0  2  0  0  3  0  0  0  0  0  0
  156.5890  211.8390  138.7840 C   0  0  0  0  0  2  0  0  0  0  0  0
  159.2280  212.8600  141.3050 N   0  0  0  0  0  0  0  0  0  0  0  0
  162.6520  212.2180  140.5830 N   0  0  0  0  0  0  0  0  0  0  0  0
  162.0080  210.4860  149.7810 S   0  0  0  0  0  0  0  0  0  0  0  0
  161.9920  209.1230  150.9760 C   0  0  0  0  0  2  0  0  0  0  0  0
  161.8660  207.8070  150.2300 C   0  0  0  0  0  2  0  0  0  0  0  0
  162.4170  206.7250  152.2490 O   0  0  0  0  0  0  0  0  0  0  0  0
  161.8030  206.6690  151.1960 C   0  0  0  0  0  0  0  0  0  0  0  0
  161.0340  205.4340  150.8570 C   0  0  0  0  0  2  0  0  0  0  0  0
  160.4300  203.4260  152.0400 O   0  0  0  0  0  0  0  0  0  0  0  0
  161.5200  204.2440  151.6850 C   0  0  1  0  0  3  0  0  0  0  0  0
  161.2980  202.9020  151.0650 C   0  0  2  0  0  3  0  0  0  0  0  0
  160.5910  202.9050  149.7140 C   0  0  0  0  0  2  0  0  0  0  0  0
  161.3720  203.6570  147.6320 C   0  0  0  0  0  2  0  0  0  0  0  0
  160.6150  202.0320  145.9450 C   0  0  0  0  0  0  0  0  0  0  0  0
  161.5770  203.1610  146.2000 C   0  0  1  0  0  3  0  0  0  0  0  0
  161.2730  201.2350  148.1840 C   0  0  0  0  0  2  0  0  0  0  0  0
  161.3400  204.3190  145.2450 C   0  0  0  0  0  1  0  0  0  0  0  0
  160.1720  201.8130  144.8280 O   0  0  0  0  0  0  0  0  0  0  0  0
  161.5390  202.6080  148.6530 N   0  0  0  0  0  0  0  0  0  0  0  0
  160.2100  201.1560  147.0870 C   0  0  0  0  0  2  0  0  0  0  0  0
  1  3  2  0  0  0  0
  2  5  2  0  0  0  0
  3  4  1  0  0  0  0
  4  5  1  0  0  0  0
  6  5  1  6  0  0  0
  6 10  1  0  0  0  0
  6  7  1  0  0  0  0
  7  9  1  0  0  0  0
  9  8  1  0  0  0  0
 10 11  1  0  0  0  0
 11  8  1  0  0  0  0
 12  1  1  0  0  0  0
 13 12  2  0  0  0  0
 14 12  1  0  0  0  0
 15 14  1  0  0  0  0
 16 15  1  0  0  0  0
 17 16  1  0  0  0  0
 18 17  1  0  0  0  0
 19 18  1  0  0  0  0
 20 26  1  0  0  0  0
 21 30  1  0  0  0  0
 21 28  1  0  0  0  0
 22 24  1  0  0  0  0
 22 31  2  0  0  0  0
 23 24  2  0  0  0  0
 23 26  1  0  0  0  0
 24 21  1  0  0  0  0
 25 23  1  0  0  0  0
 26 30  2  0  0  0  0
 27 25  1  0  0  0  0
 27 29  1  0  0  0  0
 28 19  1  1  0  0  0
 29 20  1  0  0  0  0
 31 28  1  0  0  0  0
 32  3  1  0  0  0  0
 32 33  1  0  0  0  0
 34 33  1  0  0  0  0
 34 36  1  0  0  0  0
 36 35  2  0  0  0  0
 37 36  1  0  0  0  0
 39 37  1  6  0  0  0
 39 38  1  0  0  0  0
 40 41  1  6  0  0  0
 40 39  1  0  0  0  0
 40 38  1  0  0  0  0
 42 48  1  0  0  0  0
 43 44  1  0  0  0  0
 43 49  1  0  0  0  0
 44 46  1  6  0  0  0
 44 42  1  0  0  0  0
 45 48  1  0  0  0  0
 47 43  2  0  0  0  0
 48 41  1  0  0  0  0
 49 45  1  0  0  0  0
M  END
>  <MODEL>
7

>  <REMARK>
 VINA RESULT:      -6.6      1.719      2.422
  Name = 
  17 active torsions:
  status: ('A' for Active; 'I' for Inactive)
    1  A    between atoms: C_2  and  C_48
    2  A    between atoms: N_3  and  C_22
    3  A    between atoms: S_8  and  C_16
    4  A    between atoms: S_8  and  C_27
    5  A    between atoms: C_15  and  S_25
    6  A    between atoms: C_16  and  C_43
    7  A    between atoms: C_17  and  S_25
    8  A    between atoms: C_17  and  C_31
    9  A    between atoms: C_21  and  N_30
   10  A    between atoms: C_21  and  C_45
   11  A    between atoms: C_22  and  C_27
   12  A    between atoms: C_23  and  N_36
   13  A    between atoms: C_23  and  C_42
   14  A    between atoms: N_30  and  C_43
   15  A    between atoms: C_31  and  C_41
   16  A    between atoms: C_32  and  C_44
   17  A    between atoms: C_41  and  C_44
                            x       y       z     vdW  Elec       q    Type
                         _______ _______ _______ _____ _____    ______ ____

>  <TORSDO>
F 17

$$$$
=
 OpenBabel11042420333D

 49 54  0  0  1  0  0  0  0  0999 V2000
  161.7920  208.9980  150.6380 N   0  0  0  0  0  0  0  0  0  0  0  0
  161.0310  210.7890  152.5310 O   0  0  0  0  0  0  0  0  0  0  0  0
  161.9030  208.1460  151.6180 C   0  0  0  0  0  0  0  0  0  0  0  0
  161.5890  208.5500  152.9550 N   0  0  0  0  0  2  0  0  0  0  0  0
  161.1630  209.8540  153.3650 C   0  0  0  0  0  0  0  0  0  0  0  0
  160.9060  210.1060  154.8130 C   0  0  2  0  0  3  0  0  0  0  0  0
  159.5620  210.8240  155.0220 C   0  0  0  0  0  2  0  0  0  0  0  0
  160.5590  211.4690  157.2610 C   0  0  0  0  0  2  0  0  0  0  0  0
  159.6710  211.9110  156.0950 C   0  0  0  0  0  2  0  0  0  0  0  0
  161.9690  210.8340  155.3760 O   0  0  0  0  0  0  0  0  0  0  0  0
  161.8140  210.7270  156.7710 C   0  0  0  0  0  2  0  0  0  0  0  0
  162.0470  208.7910  149.2400 C   0  0  0  0  0  0  0  0  0  0  0  0
  162.3580  207.6620  148.7790 O   0  0  0  0  0  0  0  0  0  0  0  0
  161.9240  209.9430  148.3030 C   0  0  0  0  0  2  0  0  0  0  0  0
  161.9450  211.5160  149.2140 S   0  0  0  0  0  0  0  0  0  0  0  0
  162.3870  212.5100  147.7530 C   0  0  0  0  0  2  0  0  0  0  0  0
  161.1790  213.2630  147.2270 C   0  0  0  0  0  2  0  0  0  0  0  0
  161.5700  214.1290  146.1270 N   0  0  0  0  0  2  0  0  0  0  0  0
  160.4670  214.1360  145.1850 C   0  0  0  0  0  2  0  0  0  0  0  0
  158.7750  211.9390  140.0450 C   0  0  0  0  0  2  0  0  0  0  0  0
  160.4210  213.0270  143.0300 N   0  0  0  0  0  0  0  0  0  0  0  0
  162.7000  212.6630  142.9490 C   0  0  0  0  0  3  0  0  0  0  0  0
  160.8880  211.6420  141.4100 C   0  0  0  0  0  0  0  0  0  0  0  0
  161.3530  212.2290  142.5560 C   0  0  0  0  0  0  0  0  0  0  0  0
  161.6010  210.8290  140.3740 C   0  0  0  0  0  2  0  0  0  0  0  0
  159.6000  212.1330  141.2790 C   0  0  0  0  0  0  0  0  0  0  0  0
  160.8680  210.9280  139.0280 C   0  0  0  0  0  2  0  0  0  0  0  0
  161.0070  214.1180  143.7670 C   0  0  2  0  0  3  0  0  0  0  0  0
  159.3460  210.7890  139.2000 C   0  0  0  0  0  2  0  0  0  0  0  0
  159.3600  213.0520  142.2400 N   0  0  0  0  0  0  0  0  0  0  0  0
  162.4630  213.8570  143.7850 N   0  0  0  0  0  0  0  0  0  0  0  0
  162.4810  206.4610  151.3780 S   0  0  0  0  0  0  0  0  0  0  0  0
  160.9760  205.7490  152.0930 C   0  0  0  0  0  2  0  0  0  0  0  0
  160.4360  204.6820  151.1590 C   0  0  0  0  0  2  0  0  0  0  0  0
  160.5310  202.8810  152.6750 O   0  0  0  0  0  0  0  0  0  0  0  0
  160.8930  203.3290  151.5990 C   0  0  0  0  0  0  0  0  0  0  0  0
  161.8380  202.5400  150.7540 C   0  0  0  0  0  2  0  0  0  0  0  0
  159.8120  201.3510  150.2260 O   0  0  0  0  0  0  0  0  0  0  0  0
  161.2100  201.2130  150.3240 C   0  0  1  0  0  3  0  0  0  0  0  0
  160.5050  201.2380  149.0060 C   0  0  2  0  0  3  0  0  0  0  0  0
  160.4820  202.5860  148.2920 C   0  0  0  0  0  2  0  0  0  0  0  0
  161.9370  204.0230  147.1420 C   0  0  0  0  0  2  0  0  0  0  0  0
  161.1080  204.1930  144.8300 C   0  0  0  0  0  0  0  0  0  0  0  0
  162.3000  204.4400  145.7150 C   0  0  1  0  0  3  0  0  0  0  0  0
  160.9150  202.0480  146.0300 C   0  0  0  0  0  2  0  0  0  0  0  0
  162.6930  205.9080  145.7220 C   0  0  0  0  0  1  0  0  0  0  0  0
  160.8950  204.8810  143.8430 O   0  0  0  0  0  0  0  0  0  0  0  0
  161.5010  202.6210  147.2570 N   0  0  0  0  0  0  0  0  0  0  0  0
  160.1770  203.0730  145.1660 C   0  0  0  0  0  2  0  0  0  0  0  0
  1  3  2  0  0  0  0
  2  5  2  0  0  0  0
  3  4  1  0  0  0  0
  4  5  1  0  0  0  0
  6  5  1  6  0  0  0
  6  7  1  0  0  0  0
  6 10  1  0  0  0  0
  7  9  1  0  0  0  0
  9  8  1  0  0  0  0
 10 11  1  0  0  0  0
 11  8  1  0  0  0  0
 12  1  1  0  0  0  0
 13 12  2  0  0  0  0
 14 15  1  0  0  0  0
 14 12  1  0  0  0  0
 16 15  1  0  0  0  0
 17 16  1  0  0  0  0
 18 17  1  0  0  0  0
 19 18  1  0  0  0  0
 20 26  1  0  0  0  0
 21 28  1  0  0  0  0
 22 31  2  0  0  0  0
 23 24  2  0  0  0  0
 24 22  1  0  0  0  0
 24 21  1  0  0  0  0
 25 23  1  0  0  0  0
 26 23  1  0  0  0  0
 26 30  2  0  0  0  0
 27 29  1  0  0  0  0
 27 25  1  0  0  0  0
 28 31  1  0  0  0  0
 28 19  1  1  0  0  0
 29 20  1  0  0  0  0
 30 21  1  0  0  0  0
 32  3  1  0  0  0  0
 32 33  1  0  0  0  0
 34 36  1  0  0  0  0
 34 33  1  0  0  0  0
 36 35  2  0  0  0  0
 37 36  1  0  0  0  0
 38 39  1  0  0  0  0
 39 37  1  6  0  0  0
 40 41  1  6  0  0  0
 40 38  1  0  0  0  0
 40 39  1  0  0  0  0
 42 48  1  0  0  0  0
 43 49  1  0  0  0  0
 43 44  1  0  0  0  0
 44 46  1  1  0  0  0
 44 42  1  0  0  0  0
 45 48  1  0  0  0  0
 47 43  2  0  0  0  0
 48 41  1  0  0  0  0
 49 45  1  0  0  0  0
M  END
>  <MODEL>
8

>  <REMARK>
 VINA RESULT:      -6.5      2.234      3.287
  Name = 
  17 active torsions:
  status: ('A' for Active; 'I' for Inactive)
    1  A    between atoms: C_2  and  C_48
    2  A    between atoms: N_3  and  C_22
    3  A    between atoms: S_8  and  C_16
    4  A    between atoms: S_8  and  C_27
    5  A    between atoms: C_15  and  S_25
    6  A    between atoms: C_16  and  C_43
    7  A    between atoms: C_17  and  S_25
    8  A    between atoms: C_17  and  C_31
    9  A    between atoms: C_21  and  N_30
   10  A    between atoms: C_21  and  C_45
   11  A    between atoms: C_22  and  C_27
   12  A    between atoms: C_23  and  N_36
   13  A    between atoms: C_23  and  C_42
   14  A    between atoms: N_30  and  C_43
   15  A    between atoms: C_31  and  C_41
   16  A    between atoms: C_32  and  C_44
   17  A    between atoms: C_41  and  C_44
                            x       y       z     vdW  Elec       q    Type
                         _______ _______ _______ _____ _____    ______ ____

>  <TORSDO>
F 17

$$$$
=
 OpenBabel11042420333D

 49 54  0  0  1  0  0  0  0  0999 V2000
  161.9490  208.6970  150.6060 N   0  0  0  0  0  0  0  0  0  0  0  0
  161.5770  211.3860  150.5580 O   0  0  0  0  0  0  0  0  0  0  0  0
  162.0480  208.7790  149.3100 C   0  0  0  0  0  0  0  0  0  0  0  0
  161.9440  210.0520  148.6640 N   0  0  0  0  0  2  0  0  0  0  0  0
  161.7150  211.3100  149.3080 C   0  0  0  0  0  0  0  0  0  0  0  0
  161.6060  212.5400  148.4700 C   0  0  2  0  0  3  0  0  0  0  0  0
  160.6950  212.3030  147.2530 C   0  0  0  0  0  2  0  0  0  0  0  0
  161.8980  214.3190  146.2980 C   0  0  0  0  0  2  0  0  0  0  0  0
  161.2680  212.9570  145.9920 C   0  0  0  0  0  2  0  0  0  0  0  0
  162.8830  212.9750  148.0780 O   0  0  0  0  0  0  0  0  0  0  0  0
  162.7140  214.2890  147.6010 C   0  0  0  0  0  2  0  0  0  0  0  0
  162.0330  207.5300  151.4390 C   0  0  0  0  0  0  0  0  0  0  0  0
  163.0810  206.8380  151.5120 O   0  0  0  0  0  0  0  0  0  0  0  0
  160.8500  207.1340  152.2530 C   0  0  0  0  0  2  0  0  0  0  0  0
  160.5740  208.3200  153.6030 S   0  0  0  0  0  0  0  0  0  0  0  0
  160.3800  207.0320  154.8750 C   0  0  0  0  0  2  0  0  0  0  0  0
  160.7580  207.5660  156.2450 C   0  0  0  0  0  2  0  0  0  0  0  0
  161.8820  208.4810  156.1320 N   0  0  0  0  0  2  0  0  0  0  0  0
  161.7920  209.3960  157.2540 C   0  0  0  0  0  2  0  0  0  0  0  0
  156.7800  212.3690  156.8720 C   0  0  0  0  0  2  0  0  0  0  0  0
  159.9520  210.7630  156.4670 N   0  0  0  0  0  0  0  0  0  0  0  0
  160.9870  211.3640  154.4930 C   0  0  0  0  0  3  0  0  0  0  0  0
  158.5050  211.7110  155.1370 C   0  0  0  0  0  0  0  0  0  0  0  0
  159.7350  211.1140  155.2180 C   0  0  0  0  0  0  0  0  0  0  0  0
  157.8640  212.4710  154.0180 C   0  0  0  0  0  2  0  0  0  0  0  0
  158.0120  211.6420  156.4290 C   0  0  0  0  0  0  0  0  0  0  0  0
  156.8150  213.4460  154.5740 C   0  0  0  0  0  2  0  0  0  0  0  0
  161.3630  210.7650  156.7610 C   0  0  2  0  0  3  0  0  0  0  0  0
  155.9410  212.7820  155.6520 C   0  0  0  0  0  2  0  0  0  0  0  0
  158.9530  211.1310  157.2530 N   0  0  0  0  0  0  0  0  0  0  0  0
  162.0410  211.0780  155.4850 N   0  0  0  0  0  0  0  0  0  0  0  0
  162.2720  207.3360  148.2620 S   0  0  0  0  0  0  0  0  0  0  0  0
  160.8110  206.5060  148.9410 C   0  0  0  0  0  2  0  0  0  0  0  0
  160.8060  205.0570  148.4930 C   0  0  0  0  0  2  0  0  0  0  0  0
  161.5990  204.4410  150.6240 O   0  0  0  0  0  0  0  0  0  0  0  0
  160.8870  204.1480  149.6770 C   0  0  0  0  0  0  0  0  0  0  0  0
  160.1440  202.8540  149.6870 C   0  0  0  0  0  2  0  0  0  0  0  0
  160.4020  200.4880  149.3190 O   0  0  0  0  0  0  0  0  0  0  0  0
  161.1080  201.6690  149.6180 C   0  0  1  0  0  3  0  0  0  0  0  0
  161.2050  201.0010  148.2840 C   0  0  2  0  0  3  0  0  0  0  0  0
  160.3060  201.5720  147.1910 C   0  0  0  0  0  2  0  0  0  0  0  0
  161.9650  202.9950  146.3350 C   0  0  0  0  0  2  0  0  0  0  0  0
  160.8830  204.4480  144.6690 C   0  0  0  0  0  0  0  0  0  0  0  0
  162.2130  203.9480  145.1650 C   0  0  1  0  0  3  0  0  0  0  0  0
  160.1470  202.1060  144.8920 C   0  0  0  0  0  2  0  0  0  0  0  0
  163.0930  205.0900  145.6460 C   0  0  0  0  0  1  0  0  0  0  0  0
  160.7680  205.5540  144.1640 O   0  0  0  0  0  0  0  0  0  0  0  0
  161.0890  201.8590  146.0000 N   0  0  0  0  0  0  0  0  0  0  0  0
  159.6860  203.5610  144.7900 C   0  0  0  0  0  2  0  0  0  0  0  0
  1 12  1  0  0  0  0
  3  1  2  0  0  0  0
  4  5  1  0  0  0  0
  4  3  1  0  0  0  0
  5  2  2  0  0  0  0
  6  5  1  6  0  0  0
  7  6  1  0  0  0  0
  8 11  1  0  0  0  0
  9  8  1  0  0  0  0
  9  7  1  0  0  0  0
 10  6  1  0  0  0  0
 11 10  1  0  0  0  0
 12 13  2  0  0  0  0
 12 14  1  0  0  0  0
 14 15  1  0  0  0  0
 15 16  1  0  0  0  0
 16 17  1  0  0  0  0
 18 17  1  0  0  0  0
 18 19  1  0  0  0  0
 21 28  1  0  0  0  0
 21 30  1  0  0  0  0
 22 24  1  0  0  0  0
 22 31  2  0  0  0  0
 23 24  2  0  0  0  0
 23 26  1  0  0  0  0
 24 21  1  0  0  0  0
 25 27  1  0  0  0  0
 25 23  1  0  0  0  0
 26 20  1  0  0  0  0
 26 30  2  0  0  0  0
 27 29  1  0  0  0  0
 28 19  1  6  0  0  0
 29 20  1  0  0  0  0
 31 28  1  0  0  0  0
 32 33  1  0  0  0  0
 32  3  1  0  0  0  0
 34 33  1  0  0  0  0
 34 36  1  0  0  0  0
 36 37  1  0  0  0  0
 36 35  2  0  0  0  0
 38 39  1  0  0  0  0
 39 37  1  6  0  0  0
 40 41  1  6  0  0  0
 40 38  1  0  0  0  0
 40 39  1  0  0  0  0
 43 49  1  0  0  0  0
 43 44  1  0  0  0  0
 44 46  1  1  0  0  0
 44 42  1  0  0  0  0
 45 48  1  0  0  0  0
 47 43  2  0  0  0  0
 48 42  1  0  0  0  0
 48 41  1  0  0  0  0
 49 45  1  0  0  0  0
M  END
>  <MODEL>
9

>  <REMARK>
 VINA RESULT:      -6.4      4.355     10.142
  Name = 
  17 active torsions:
  status: ('A' for Active; 'I' for Inactive)
    1  A    between atoms: C_2  and  C_48
    2  A    between atoms: N_3  and  C_22
    3  A    between atoms: S_8  and  C_16
    4  A    between atoms: S_8  and  C_27
    5  A    between atoms: C_15  and  S_25
    6  A    between atoms: C_16  and  C_43
    7  A    between atoms: C_17  and  S_25
    8  A    between atoms: C_17  and  C_31
    9  A    between atoms: C_21  and  N_30
   10  A    between atoms: C_21  and  C_45
   11  A    between atoms: C_22  and  C_27
   12  A    between atoms: C_23  and  N_36
   13  A    between atoms: C_23  and  C_42
   14  A    between atoms: N_30  and  C_43
   15  A    between atoms: C_31  and  C_41
   16  A    between atoms: C_32  and  C_44
   17  A    between atoms: C_41  and  C_44
                            x       y       z     vdW  Elec       q    Type
                         _______ _______ _______ _____ _____    ______ ____

>  <TORSDO>
F 17

$$$$
