=
 OpenBabel11042420503D

 41 46  0  0  1  0  0  0  0  0999 V2000
  161.6850  207.5250  150.9670 C   0  0  0  0  0  3  0  0  0  0  0  0
  161.4590  206.6660  149.7090 C   0  0  0  0  0  0  0  0  0  0  0  0
  161.1810  204.5400  151.0460 C   0  0  0  0  0  0  0  0  0  0  0  0
  161.6260  206.5640  153.5460 C   0  0  1  0  0  0  0  0  0  0  0  0
  161.2480  205.3140  149.7720 C   0  0  0  0  0  3  0  0  0  0  0  0
  161.3860  205.1730  153.5910 N   0  0  0  0  0  2  0  0  0  0  0  0
  161.5860  206.6850  152.1450 N   0  0  0  0  0  0  0  0  0  0  0  0
  161.3520  205.2660  152.1270 C   0  0  2  0  0  0  0  0  0  0  0  0
  161.5300  207.3020  148.3700 C   0  0  0  0  0  0  0  0  0  0  0  0
  161.5660  208.5620  148.2990 O   0  0  0  0  0  0  0  0  0  0  0  0
  162.6820  205.7830  146.7220 C   0  0  0  0  0  3  0  0  0  0  0  0
  161.5710  205.1000  144.6810 C   0  0  0  0  0  3  0  0  0  0  0  0
  160.4400  206.5540  146.2510 C   0  0  0  0  0  3  0  0  0  0  0  0
  160.4450  205.8430  145.0470 C   0  0  0  0  0  3  0  0  0  0  0  0
  161.5530  206.5230  147.1070 C   0  0  0  0  0  0  0  0  0  0  0  0
  162.6900  205.0710  145.5180 C   0  0  0  0  0  3  0  0  0  0  0  0
  160.9470  203.0710  151.0920 C   0  0  0  0  0  2  0  0  0  0  0  0
  160.2790  202.6080  149.8120 C   0  0  0  0  0  2  0  0  0  0  0  0
  160.9430  201.4110  149.3250 N   0  0  0  0  0  2  0  0  0  0  0  0
  161.3440  199.8510  147.5940 C   0  0  0  0  0  3  0  0  0  0  0  0
  160.0590  200.9150  145.0280 C   0  0  0  0  0  3  0  0  0  0  0  0
  160.5590  202.1340  145.6880 C   0  0  0  0  0  3  0  0  0  0  0  0
  160.4950  199.6810  145.2790 C   0  0  0  0  0  3  0  0  0  0  0  0
  161.0120  202.2220  146.9440 C   0  0  0  0  0  3  0  0  0  0  0  0
  161.0970  201.1190  147.9340 C   0  0  0  0  0  0  0  0  0  0  0  0
  161.6310  199.3960  146.2020 C   0  0  0  0  0  2  0  0  0  0  0  0
  160.4590  207.3170  154.1780 C   0  0  0  0  0  2  0  0  0  0  0  0
  160.7670  207.6810  155.6200 C   0  0  0  0  0  2  0  0  0  0  0  0
  160.4970  209.0890  155.8480 N   0  0  0  0  0  2  0  0  0  0  0  0
  161.6840  209.7760  155.5640 N   0  0  0  0  0  2  0  0  0  0  0  0
  161.3170  211.1580  155.2900 C   0  0  0  0  0  2  0  0  0  0  0  0
  158.4430  214.3900  153.5580 C   0  0  0  0  0  2  0  0  0  0  0  0
  160.0600  211.2300  154.4280 C   0  0  2  0  0  3  0  0  0  0  0  0
  160.4070  211.4140  152.9410 C   0  0  0  0  0  2  0  0  0  0  0  0
  159.1600  212.4010  154.8510 C   0  0  1  0  0  3  0  0  0  0  0  0
  159.7040  212.6090  152.5200 N   0  0  0  0  0  0  0  0  0  0  0  0
  159.8260  213.1820  151.1890 C   0  0  0  0  0  1  0  0  0  0  0  0
  158.9850  213.1760  153.5990 C   0  0  0  0  0  0  0  0  0  0  0  0
  156.8510  211.7830  154.6200 O   0  0  0  0  0  0  0  0  0  0  0  0
  157.7510  211.5150  156.7090 O   0  0  0  0  0  1  0  0  0  0  0  0
  157.8530  211.8910  155.3760 C   0  0  0  0  0  0  0  0  0  0  0  0
  1  7  1  0  0  0  0
  2  5  1  0  0  0  0
  2  1  2  0  0  0  0
  3 17  1  0  0  0  0
  4  6  1  0  0  0  0
  4 27  1  1  0  0  0
  5  3  2  0  0  0  0
  7  4  1  0  0  0  0
  8  3  1  6  0  0  0
  8  7  1  0  0  0  0
  8  4  1  0  0  0  0
  8  6  1  0  0  0  0
  9  2  1  0  0  0  0
 10  9  2  0  0  0  0
 11 15  1  0  0  0  0
 12 14  2  0  0  0  0
 12 16  1  0  0  0  0
 13 15  2  0  0  0  0
 14 13  1  0  0  0  0
 15  9  1  0  0  0  0
 16 11  2  0  0  0  0
 18 17  1  0  0  0  0
 19 18  1  0  0  0  0
 20 25  2  0  0  0  0
 21 23  2  0  0  0  0
 21 22  1  0  0  0  0
 22 24  2  0  0  0  0
 23 26  1  0  0  0  0
 24 25  1  0  0  0  0
 25 19  1  0  0  0  0
 26 20  1  0  0  0  0
 27 28  1  0  0  0  0
 28 29  1  0  0  0  0
 30 29  1  0  0  0  0
 31 30  1  0  0  0  0
 32 38  2  0  0  0  0
 33 35  1  0  0  0  0
 33 31  1  1  0  0  0
 34 33  1  0  0  0  0
 35 41  1  6  0  0  0
 36 34  1  0  0  0  0
 36 38  1  0  0  0  0
 37 36  1  0  0  0  0
 38 35  1  0  0  0  0
 39 41  2  0  0  0  0
 41 40  1  0  0  0  0
M  END
>  <MODEL>
1

>  <REMARK>
 VINA RESULT:      -8.5      0.000      0.000
  Name = 
  13 active torsions:
  status: ('A' for Active; 'I' for Inactive)
    1  A    between atoms: C_2  and  N_10
    2  A    between atoms: C_2  and  C_11
    3  A    between atoms: N_4  and  C_20
    4  A    between atoms: N_4  and  C_25
    5  A    between atoms: C_9  and  C_19
    6  A    between atoms: C_9  and  C_20
    7  A    between atoms: N_10  and  N_18
    8  A    between atoms: C_11  and  C_21
    9  A    between atoms: C_16  and  C_22
   10  A    between atoms: N_18  and  C_41
   11  A    between atoms: C_22  and  C_31
   12  A    between atoms: C_29  and  C_41
   13  A    between atoms: C_33  and  C_36
                            x       y       z     vdW  Elec       q    Type
                         _______ _______ _______ _____ _____    ______ ____

>  <TORSDO>
F 13

$$$$
=
 OpenBabel11042420503D

 41 46  0  0  1  0  0  0  0  0999 V2000
  160.8190  207.2090  153.4330 C   0  0  0  0  0  3  0  0  0  0  0  0
  161.2000  206.3280  152.2280 C   0  0  0  0  0  0  0  0  0  0  0  0
  161.6090  208.3200  150.7290 C   0  0  0  0  0  0  0  0  0  0  0  0
  160.8250  209.9610  153.4180 C   0  0  1  0  0  0  0  0  0  0  0  0
  161.5390  206.8570  151.0100 C   0  0  0  0  0  3  0  0  0  0  0  0
  161.1980  210.4870  152.1620 N   0  0  0  0  0  2  0  0  0  0  0  0
  160.9320  208.6060  153.0600 N   0  0  0  0  0  0  0  0  0  0  0  0
  161.3060  209.0810  151.7550 C   0  0  2  0  0  0  0  0  0  0  0  0
  161.1430  204.8510  152.3590 C   0  0  0  0  0  0  0  0  0  0  0  0
  161.1760  204.3440  153.5140 O   0  0  0  0  0  0  0  0  0  0  0  0
  160.8750  204.4320  149.8880 C   0  0  0  0  0  3  0  0  0  0  0  0
  160.8480  202.1750  149.0100 C   0  0  0  0  0  3  0  0  0  0  0  0
  161.1140  202.5500  151.3870 C   0  0  0  0  0  3  0  0  0  0  0  0
  161.0160  201.6720  150.3030 C   0  0  0  0  0  3  0  0  0  0  0  0
  161.0560  203.9400  151.1900 C   0  0  0  0  0  0  0  0  0  0  0  0
  160.7760  203.5560  148.8030 C   0  0  0  0  0  3  0  0  0  0  0  0
  161.9840  208.8740  149.3980 C   0  0  0  0  0  2  0  0  0  0  0  0
  162.4780  207.7640  148.4920 C   0  0  0  0  0  2  0  0  0  0  0  0
  161.4030  207.3480  147.6060 N   0  0  0  0  0  2  0  0  0  0  0  0
  162.6600  205.5850  146.6570 C   0  0  0  0  0  3  0  0  0  0  0  0
  160.7490  203.7880  145.0790 C   0  0  0  0  0  3  0  0  0  0  0  0
  160.2100  205.1400  144.8490 C   0  0  0  0  0  3  0  0  0  0  0  0
  161.9950  203.5210  145.4690 C   0  0  0  0  0  3  0  0  0  0  0  0
  160.5690  206.2530  145.5000 C   0  0  0  0  0  3  0  0  0  0  0  0
  161.5720  206.3580  146.5890 C   0  0  0  0  0  0  0  0  0  0  0  0
  163.0380  204.5760  145.6240 C   0  0  0  0  0  2  0  0  0  0  0  0
  161.8740  210.3190  154.4670 C   0  0  0  0  0  2  0  0  0  0  0  0
  161.4510  209.8370  155.8440 C   0  0  0  0  0  2  0  0  0  0  0  0
  161.4070  210.9530  156.7710 N   0  0  0  0  0  2  0  0  0  0  0  0
  160.0950  211.4450  156.7460 N   0  0  0  0  0  2  0  0  0  0  0  0
  160.1850  212.8760  156.4950 C   0  0  0  0  0  2  0  0  0  0  0  0
  156.1630  211.2040  154.8410 C   0  0  0  0  0  2  0  0  0  0  0  0
  158.9080  213.3990  155.8440 C   0  0  2  0  0  3  0  0  0  0  0  0
  157.8200  213.6840  156.8910 C   0  0  0  0  0  2  0  0  0  0  0  0
  158.3420  212.3870  154.8360 C   0  0  1  0  0  3  0  0  0  0  0  0
  156.6680  212.9080  156.4790 N   0  0  0  0  0  0  0  0  0  0  0  0
  155.4350  212.8350  157.2480 C   0  0  0  0  0  1  0  0  0  0  0  0
  156.9510  212.1690  155.3060 C   0  0  0  0  0  0  0  0  0  0  0  0
  158.4910  214.1960  153.2640 O   0  0  0  0  0  1  0  0  0  0  0  0
  158.3010  212.0990  152.3590 O   0  0  0  0  0  0  0  0  0  0  0  0
  158.3770  212.9550  153.4510 C   0  0  0  0  0  0  0  0  0  0  0  0
  2  9  1  0  0  0  0
  2  1  2  0  0  0  0
  3  5  2  0  0  0  0
  4 27  1  1  0  0  0
  5  2  1  0  0  0  0
  6  4  1  0  0  0  0
  7  4  1  0  0  0  0
  7  1  1  0  0  0  0
  8  3  1  6  0  0  0
  8  6  1  0  0  0  0
  8  7  1  0  0  0  0
  8  4  1  0  0  0  0
  9 10  2  0  0  0  0
 11 15  1  0  0  0  0
 12 14  2  0  0  0  0
 14 13  1  0  0  0  0
 15 13  2  0  0  0  0
 15  9  1  0  0  0  0
 16 12  1  0  0  0  0
 16 11  2  0  0  0  0
 17  3  1  0  0  0  0
 18 17  1  0  0  0  0
 19 18  1  0  0  0  0
 21 23  2  0  0  0  0
 22 21  1  0  0  0  0
 22 24  2  0  0  0  0
 23 26  1  0  0  0  0
 24 25  1  0  0  0  0
 25 20  2  0  0  0  0
 25 19  1  0  0  0  0
 26 20  1  0  0  0  0
 27 28  1  0  0  0  0
 28 29  1  0  0  0  0
 30 29  1  0  0  0  0
 31 30  1  0  0  0  0
 32 38  2  0  0  0  0
 33 31  1  1  0  0  0
 33 34  1  0  0  0  0
 35 41  1  6  0  0  0
 35 38  1  0  0  0  0
 35 33  1  0  0  0  0
 36 34  1  0  0  0  0
 36 37  1  0  0  0  0
 38 36  1  0  0  0  0
 39 41  1  0  0  0  0
 40 41  2  0  0  0  0
M  END
>  <MODEL>
2

>  <REMARK>
 VINA RESULT:      -8.3      2.379      4.421
  Name = 
  13 active torsions:
  status: ('A' for Active; 'I' for Inactive)
    1  A    between atoms: C_2  and  N_10
    2  A    between atoms: C_2  and  C_11
    3  A    between atoms: N_4  and  C_20
    4  A    between atoms: N_4  and  C_25
    5  A    between atoms: C_9  and  C_19
    6  A    between atoms: C_9  and  C_20
    7  A    between atoms: N_10  and  N_18
    8  A    between atoms: C_11  and  C_21
    9  A    between atoms: C_16  and  C_22
   10  A    between atoms: N_18  and  C_41
   11  A    between atoms: C_22  and  C_31
   12  A    between atoms: C_29  and  C_41
   13  A    between atoms: C_33  and  C_36
                            x       y       z     vdW  Elec       q    Type
                         _______ _______ _______ _____ _____    ______ ____

>  <TORSDO>
F 13

$$$$
=
 OpenBabel11042420503D

 41 46  0  0  1  0  0  0  0  0999 V2000
  161.9400  207.5300  150.9750 C   0  0  0  0  0  3  0  0  0  0  0  0
  161.7120  206.6830  149.7080 C   0  0  0  0  0  0  0  0  0  0  0  0
  161.1970  204.5950  151.0330 C   0  0  0  0  0  0  0  0  0  0  0  0
  161.6710  206.5920  153.5480 C   0  0  1  0  0  0  0  0  0  0  0  0
  161.3910  205.3520  149.7620 C   0  0  0  0  0  3  0  0  0  0  0  0
  161.3190  205.2250  153.5840 N   0  0  0  0  0  2  0  0  0  0  0  0
  161.7140  206.7070  152.1470 N   0  0  0  0  0  0  0  0  0  0  0  0
  161.3680  205.3110  152.1190 C   0  0  2  0  0  0  0  0  0  0  0  0
  161.9020  207.3030  148.3730 C   0  0  0  0  0  0  0  0  0  0  0  0
  162.2250  208.5220  148.3130 O   0  0  0  0  0  0  0  0  0  0  0  0
  162.7770  205.8310  146.5250 C   0  0  0  0  0  3  0  0  0  0  0  0
  161.3550  205.1940  144.6710 C   0  0  0  0  0  3  0  0  0  0  0  0
  160.4880  206.6040  146.4370 C   0  0  0  0  0  3  0  0  0  0  0  0
  160.3020  205.9230  145.2300 C   0  0  0  0  0  3  0  0  0  0  0  0
  161.7240  206.5560  147.1030 C   0  0  0  0  0  0  0  0  0  0  0  0
  162.5930  205.1490  145.3180 C   0  0  0  0  0  3  0  0  0  0  0  0
  160.8440  203.1490  151.0700 C   0  0  0  0  0  2  0  0  0  0  0  0
  160.2770  202.7160  149.7320 C   0  0  0  0  0  2  0  0  0  0  0  0
  160.9770  201.5280  149.2710 N   0  0  0  0  0  2  0  0  0  0  0  0
  161.3610  199.9140  147.5870 C   0  0  0  0  0  3  0  0  0  0  0  0
  160.0180  200.8790  145.0110 C   0  0  0  0  0  3  0  0  0  0  0  0
  160.5180  202.1240  145.6200 C   0  0  0  0  0  3  0  0  0  0  0  0
  160.4710  199.6580  145.2950 C   0  0  0  0  0  3  0  0  0  0  0  0
  160.9930  202.2590  146.8640 C   0  0  0  0  0  3  0  0  0  0  0  0
  161.1080  201.1910  147.8880 C   0  0  0  0  0  0  0  0  0  0  0  0
  161.6270  199.4150  146.2050 C   0  0  0  0  0  2  0  0  0  0  0  0
  160.5360  207.4390  154.1180 C   0  0  0  0  0  2  0  0  0  0  0  0
  160.3020  207.1160  155.5830 C   0  0  0  0  0  2  0  0  0  0  0  0
  159.7710  208.2790  156.2710 N   0  0  0  0  0  2  0  0  0  0  0  0
  160.4590  209.3910  155.7680 N   0  0  0  0  0  2  0  0  0  0  0  0
  160.1880  210.5000  156.6720 C   0  0  0  0  0  2  0  0  0  0  0  0
  155.9260  211.0900  154.8850 C   0  0  0  0  0  2  0  0  0  0  0  0
  159.3790  211.5890  155.9750 C   0  0  2  0  0  3  0  0  0  0  0  0
  158.5610  212.4140  156.9830 C   0  0  0  0  0  2  0  0  0  0  0  0
  158.4020  210.9900  154.9520 C   0  0  1  0  0  3  0  0  0  0  0  0
  157.1860  212.3290  156.5340 N   0  0  0  0  0  0  0  0  0  0  0  0
  156.0700  212.9140  157.2600 C   0  0  0  0  0  1  0  0  0  0  0  0
  157.0840  211.5250  155.3740 C   0  0  0  0  0  0  0  0  0  0  0  0
  158.4320  212.5710  153.1450 O   0  0  0  0  0  1  0  0  0  0  0  0
  159.4850  210.5760  152.7440 O   0  0  0  0  0  0  0  0  0  0  0  0
  158.7620  211.4310  153.5670 C   0  0  0  0  0  0  0  0  0  0  0  0
  1  7  1  0  0  0  0
  2  5  1  0  0  0  0
  2  1  2  0  0  0  0
  3 17  1  0  0  0  0
  4  6  1  0  0  0  0
  4 27  1  6  0  0  0
  5  3  2  0  0  0  0
  7  4  1  0  0  0  0
  8  3  1  1  0  0  0
  8  7  1  0  0  0  0
  8  4  1  0  0  0  0
  8  6  1  0  0  0  0
  9  2  1  0  0  0  0
 10  9  2  0  0  0  0
 11 15  1  0  0  0  0
 12 14  2  0  0  0  0
 12 16  1  0  0  0  0
 13 15  2  0  0  0  0
 14 13  1  0  0  0  0
 15  9  1  0  0  0  0
 16 11  2  0  0  0  0
 18 17  1  0  0  0  0
 19 18  1  0  0  0  0
 20 25  2  0  0  0  0
 21 23  2  0  0  0  0
 21 22  1  0  0  0  0
 22 24  2  0  0  0  0
 23 26  1  0  0  0  0
 24 25  1  0  0  0  0
 25 19  1  0  0  0  0
 26 20  1  0  0  0  0
 27 28  1  0  0  0  0
 28 29  1  0  0  0  0
 30 29  1  0  0  0  0
 30 31  1  0  0  0  0
 32 38  2  0  0  0  0
 33 31  1  1  0  0  0
 33 34  1  0  0  0  0
 35 41  1  6  0  0  0
 35 38  1  0  0  0  0
 35 33  1  0  0  0  0
 36 34  1  0  0  0  0
 36 37  1  0  0  0  0
 38 36  1  0  0  0  0
 39 41  1  0  0  0  0
 40 41  2  0  0  0  0
M  END
>  <MODEL>
3

>  <REMARK>
 VINA RESULT:      -8.3      1.381      2.012
  Name = 
  13 active torsions:
  status: ('A' for Active; 'I' for Inactive)
    1  A    between atoms: C_2  and  N_10
    2  A    between atoms: C_2  and  C_11
    3  A    between atoms: N_4  and  C_20
    4  A    between atoms: N_4  and  C_25
    5  A    between atoms: C_9  and  C_19
    6  A    between atoms: C_9  and  C_20
    7  A    between atoms: N_10  and  N_18
    8  A    between atoms: C_11  and  C_21
    9  A    between atoms: C_16  and  C_22
   10  A    between atoms: N_18  and  C_41
   11  A    between atoms: C_22  and  C_31
   12  A    between atoms: C_29  and  C_41
   13  A    between atoms: C_33  and  C_36
                            x       y       z     vdW  Elec       q    Type
                         _______ _______ _______ _____ _____    ______ ____

>  <TORSDO>
F 13

$$$$
=
 OpenBabel11042420503D

 41 46  0  0  1  0  0  0  0  0999 V2000
  160.6090  206.0060  153.1480 C   0  0  0  0  0  3  0  0  0  0  0  0
  161.1680  205.2080  151.9530 C   0  0  0  0  0  0  0  0  0  0  0  0
  162.0140  207.2860  150.7900 C   0  0  0  0  0  0  0  0  0  0  0  0
  160.8090  208.7360  153.4330 C   0  0  1  0  0  0  0  0  0  0  0  0
  161.7860  205.8150  150.8910 C   0  0  0  0  0  3  0  0  0  0  0  0
  161.4680  209.3400  152.3400 N   0  0  0  0  0  2  0  0  0  0  0  0
  160.8940  207.4150  152.9580 N   0  0  0  0  0  0  0  0  0  0  0  0
  161.5600  207.9730  151.8120 C   0  0  2  0  0  0  0  0  0  0  0  0
  160.9830  203.7370  151.9090 C   0  0  0  0  0  0  0  0  0  0  0  0
  160.8450  203.1110  152.9970 O   0  0  0  0  0  0  0  0  0  0  0  0
  161.1250  201.5710  150.6290 C   0  0  0  0  0  3  0  0  0  0  0  0
  160.9580  201.5470  148.2130 C   0  0  0  0  0  3  0  0  0  0  0  0
  160.8110  203.6400  149.4200 C   0  0  0  0  0  3  0  0  0  0  0  0
  160.8050  202.9360  148.2120 C   0  0  0  0  0  3  0  0  0  0  0  0
  160.9600  202.9640  150.6420 C   0  0  0  0  0  0  0  0  0  0  0  0
  161.1190  200.8650  149.4220 C   0  0  0  0  0  3  0  0  0  0  0  0
  162.6920  207.9240  149.6280 C   0  0  0  0  0  2  0  0  0  0  0  0
  161.6740  208.2850  148.5640 C   0  0  0  0  0  2  0  0  0  0  0  0
  160.9830  207.0830  148.1270 N   0  0  0  0  0  2  0  0  0  0  0  0
  162.4970  205.6940  146.9570 C   0  0  0  0  0  3  0  0  0  0  0  0
  160.9290  204.1450  144.8330 C   0  0  0  0  0  3  0  0  0  0  0  0
  160.2710  205.4630  144.8460 C   0  0  0  0  0  3  0  0  0  0  0  0
  162.1600  203.9040  145.2860 C   0  0  0  0  0  3  0  0  0  0  0  0
  160.4520  206.4260  145.7570 C   0  0  0  0  0  3  0  0  0  0  0  0
  161.3430  206.3670  146.9430 C   0  0  0  0  0  0  0  0  0  0  0  0
  163.0660  204.9820  145.7750 C   0  0  0  0  0  2  0  0  0  0  0  0
  161.6430  208.8990  154.7020 C   0  0  0  0  0  2  0  0  0  0  0  0
  160.9530  209.8260  155.6880 C   0  0  0  0  0  2  0  0  0  0  0  0
  161.3650  211.1990  155.4540 N   0  0  0  0  0  2  0  0  0  0  0  0
  160.2670  211.8550  154.8820 N   0  0  0  0  0  2  0  0  0  0  0  0
  159.0990  211.4880  155.6680 C   0  0  0  0  0  2  0  0  0  0  0  0
  155.3050  214.1030  154.9790 C   0  0  0  0  0  2  0  0  0  0  0  0
  157.8400  211.4760  154.8060 C   0  0  2  0  0  3  0  0  0  0  0  0
  158.0460  212.2600  153.5000 C   0  0  0  0  0  2  0  0  0  0  0  0
  156.6490  212.1000  155.5500 C   0  0  1  0  0  3  0  0  0  0  0  0
  156.9960  213.2580  153.4730 N   0  0  0  0  0  0  0  0  0  0  0  0
  156.8770  214.2670  152.4320 C   0  0  0  0  0  1  0  0  0  0  0  0
  156.1900  213.1730  154.6330 C   0  0  0  0  0  0  0  0  0  0  0  0
  155.2820  210.2410  154.8860 O   0  0  0  0  0  0  0  0  0  0  0  0
  154.9320  211.0300  157.0080 O   0  0  0  0  0  1  0  0  0  0  0  0
  155.5830  211.0740  155.7820 C   0  0  0  0  0  0  0  0  0  0  0  0
  2  1  2  0  0  0  0
  3  5  2  0  0  0  0
  4 27  1  1  0  0  0
  5  2  1  0  0  0  0
  6  4  1  0  0  0  0
  7  1  1  0  0  0  0
  7  4  1  0  0  0  0
  8  3  1  6  0  0  0
  8  6  1  0  0  0  0
  8  7  1  0  0  0  0
  8  4  1  0  0  0  0
  9  2  1  0  0  0  0
  9 10  2  0  0  0  0
 11 15  1  0  0  0  0
 12 16  1  0  0  0  0
 13 15  2  0  0  0  0
 14 12  2  0  0  0  0
 14 13  1  0  0  0  0
 15  9  1  0  0  0  0
 16 11  2  0  0  0  0
 17  3  1  0  0  0  0
 18 17  1  0  0  0  0
 19 18  1  0  0  0  0
 21 22  1  0  0  0  0
 21 23  2  0  0  0  0
 22 24  2  0  0  0  0
 23 26  1  0  0  0  0
 24 25  1  0  0  0  0
 25 20  2  0  0  0  0
 25 19  1  0  0  0  0
 26 20  1  0  0  0  0
 27 28  1  0  0  0  0
 29 28  1  0  0  0  0
 30 29  1  0  0  0  0
 30 31  1  0  0  0  0
 33 35  1  0  0  0  0
 33 31  1  1  0  0  0
 34 33  1  0  0  0  0
 35 41  1  6  0  0  0
 36 34  1  0  0  0  0
 36 38  1  0  0  0  0
 37 36  1  0  0  0  0
 38 32  2  0  0  0  0
 38 35  1  0  0  0  0
 39 41  2  0  0  0  0
 41 40  1  0  0  0  0
M  END
>  <MODEL>
4

>  <REMARK>
 VINA RESULT:      -8.2      2.258      4.012
  Name = 
  13 active torsions:
  status: ('A' for Active; 'I' for Inactive)
    1  A    between atoms: C_2  and  N_10
    2  A    between atoms: C_2  and  C_11
    3  A    between atoms: N_4  and  C_20
    4  A    between atoms: N_4  and  C_25
    5  A    between atoms: C_9  and  C_19
    6  A    between atoms: C_9  and  C_20
    7  A    between atoms: N_10  and  N_18
    8  A    between atoms: C_11  and  C_21
    9  A    between atoms: C_16  and  C_22
   10  A    between atoms: N_18  and  C_41
   11  A    between atoms: C_22  and  C_31
   12  A    between atoms: C_29  and  C_41
   13  A    between atoms: C_33  and  C_36
                            x       y       z     vdW  Elec       q    Type
                         _______ _______ _______ _____ _____    ______ ____

>  <TORSDO>
F 13

$$$$
=
 OpenBabel11042420503D

 41 46  0  0  1  0  0  0  0  0999 V2000
  162.0320  210.4920  150.6290 C   0  0  0  0  0  3  0  0  0  0  0  0
  162.0660  210.5730  149.0900 C   0  0  0  0  0  0  0  0  0  0  0  0
  162.3360  208.0740  148.8310 C   0  0  0  0  0  0  0  0  0  0  0  0
  162.1810  208.1540  152.0730 C   0  0  1  0  0  0  0  0  0  0  0  0
  162.2200  209.4640  148.3010 C   0  0  0  0  0  3  0  0  0  0  0  0
  162.3170  207.0210  151.2410 N   0  0  0  0  0  2  0  0  0  0  0  0
  162.1370  209.1050  151.0380 N   0  0  0  0  0  0  0  0  0  0  0  0
  162.2870  207.9910  150.1400 C   0  0  2  0  0  0  0  0  0  0  0  0
  161.9920  211.8990  148.4290 C   0  0  0  0  0  0  0  0  0  0  0  0
  163.0680  212.4880  148.1310 O   0  0  0  0  0  0  0  0  0  0  0  0
  160.1310  212.4760  146.8300 C   0  0  0  0  0  3  0  0  0  0  0  0
  158.2960  213.8950  147.5260 C   0  0  0  0  0  3  0  0  0  0  0  0
  160.0670  213.3500  149.0830 C   0  0  0  0  0  3  0  0  0  0  0  0
  158.8660  214.0060  148.7970 C   0  0  0  0  0  3  0  0  0  0  0  0
  160.7070  212.5690  148.1060 C   0  0  0  0  0  0  0  0  0  0  0  0
  158.9300  213.1320  146.5420 C   0  0  0  0  0  3  0  0  0  0  0  0
  162.4980  206.8820  147.9540 C   0  0  0  0  0  2  0  0  0  0  0  0
  161.1820  206.5480  147.2790 C   0  0  0  0  0  2  0  0  0  0  0  0
  160.3690  205.7430  148.1760 N   0  0  0  0  0  2  0  0  0  0  0  0
  160.8520  204.4440  150.0920 C   0  0  0  0  0  3  0  0  0  0  0  0
  160.6260  201.4890  149.3270 C   0  0  0  0  0  3  0  0  0  0  0  0
  161.1980  202.1090  148.1190 C   0  0  0  0  0  3  0  0  0  0  0  0
  160.6670  202.0220  150.5480 C   0  0  0  0  0  3  0  0  0  0  0  0
  161.2900  203.4210  147.8740 C   0  0  0  0  0  3  0  0  0  0  0  0
  160.8300  204.5210  148.7580 C   0  0  0  0  0  0  0  0  0  0  0  0
  161.3990  203.2840  150.8560 C   0  0  0  0  0  2  0  0  0  0  0  0
  160.8440  208.1050  152.8080 C   0  0  0  0  0  2  0  0  0  0  0  0
  160.2880  209.5040  153.0140 C   0  0  0  0  0  2  0  0  0  0  0  0
  160.7790  210.0560  154.2640 N   0  0  0  0  0  2  0  0  0  0  0  0
  159.7310  209.9490  155.1880 N   0  0  0  0  0  2  0  0  0  0  0  0
  159.1810  211.2850  155.3590 C   0  0  0  0  0  2  0  0  0  0  0  0
  155.5690  214.2240  155.1930 C   0  0  0  0  0  2  0  0  0  0  0  0
  157.8560  211.4310  154.6170 C   0  0  2  0  0  3  0  0  0  0  0  0
  158.0130  212.2910  153.3520 C   0  0  0  0  0  2  0  0  0  0  0  0
  156.7880  212.0880  155.5050 C   0  0  1  0  0  3  0  0  0  0  0  0
  157.0500  213.3650  153.4870 N   0  0  0  0  0  0  0  0  0  0  0  0
  156.9250  214.4530  152.5300 C   0  0  0  0  0  1  0  0  0  0  0  0
  156.3420  213.2570  154.7070 C   0  0  0  0  0  0  0  0  0  0  0  0
  155.1130  211.0750  156.8960 O   0  0  0  0  0  1  0  0  0  0  0  0
  155.2180  210.3090  154.7400 O   0  0  0  0  0  0  0  0  0  0  0  0
  155.6660  211.1320  155.7650 C   0  0  0  0  0  0  0  0  0  0  0  0
  1  7  1  0  0  0  0
  2  1  2  0  0  0  0
  4 27  1  6  0  0  0
  5  3  2  0  0  0  0
  5  2  1  0  0  0  0
  6  4  1  0  0  0  0
  7  4  1  0  0  0  0
  8  3  1  1  0  0  0
  8  7  1  0  0  0  0
  8  6  1  0  0  0  0
  8  4  1  0  0  0  0
  9  2  1  0  0  0  0
 10  9  2  0  0  0  0
 11 15  1  0  0  0  0
 12 14  2  0  0  0  0
 14 13  1  0  0  0  0
 15  9  1  0  0  0  0
 15 13  2  0  0  0  0
 16 11  2  0  0  0  0
 16 12  1  0  0  0  0
 17  3  1  0  0  0  0
 18 17  1  0  0  0  0
 18 19  1  0  0  0  0
 19 25  1  0  0  0  0
 20 26  1  0  0  0  0
 21 23  2  0  0  0  0
 22 21  1  0  0  0  0
 23 26  1  0  0  0  0
 24 22  2  0  0  0  0
 24 25  1  0  0  0  0
 25 20  2  0  0  0  0
 27 28  1  0  0  0  0
 28 29  1  0  0  0  0
 29 30  1  0  0  0  0
 30 31  1  0  0  0  0
 33 31  1  1  0  0  0
 33 35  1  0  0  0  0
 34 36  1  0  0  0  0
 34 33  1  0  0  0  0
 35 41  1  6  0  0  0
 36 38  1  0  0  0  0
 37 36  1  0  0  0  0
 38 32  2  0  0  0  0
 38 35  1  0  0  0  0
 40 41  2  0  0  0  0
 41 39  1  0  0  0  0
M  END
>  <MODEL>
5

>  <REMARK>
 VINA RESULT:      -7.5      2.424      4.572
  Name = 
  13 active torsions:
  status: ('A' for Active; 'I' for Inactive)
    1  A    between atoms: C_2  and  N_10
    2  A    between atoms: C_2  and  C_11
    3  A    between atoms: N_4  and  C_20
    4  A    between atoms: N_4  and  C_25
    5  A    between atoms: C_9  and  C_19
    6  A    between atoms: C_9  and  C_20
    7  A    between atoms: N_10  and  N_18
    8  A    between atoms: C_11  and  C_21
    9  A    between atoms: C_16  and  C_22
   10  A    between atoms: N_18  and  C_41
   11  A    between atoms: C_22  and  C_31
   12  A    between atoms: C_29  and  C_41
   13  A    between atoms: C_33  and  C_36
                            x       y       z     vdW  Elec       q    Type
                         _______ _______ _______ _____ _____    ______ ____

>  <TORSDO>
F 13

$$$$
=
 OpenBabel11042420503D

 41 46  0  0  1  0  0  0  0  0999 V2000
  160.6760  204.8320  153.1490 C   0  0  0  0  0  3  0  0  0  0  0  0
  161.3700  204.4140  151.8390 C   0  0  0  0  0  0  0  0  0  0  0  0
  162.0300  206.7860  151.2730 C   0  0  0  0  0  0  0  0  0  0  0  0
  160.5600  207.4130  154.0990 C   0  0  1  0  0  0  0  0  0  0  0  0
  161.9620  205.3210  151.0000 C   0  0  0  0  0  3  0  0  0  0  0  0
  161.1950  208.3300  153.2320 N   0  0  0  0  0  2  0  0  0  0  0  0
  160.8110  206.2660  153.3260 N   0  0  0  0  0  0  0  0  0  0  0  0
  161.4600  207.1520  152.3970 C   0  0  2  0  0  0  0  0  0  0  0  0
  161.3510  202.9880  151.4280 C   0  0  0  0  0  0  0  0  0  0  0  0
  161.4870  202.1010  152.3150 O   0  0  0  0  0  0  0  0  0  0  0  0
  160.8080  203.4620  149.0130 C   0  0  0  0  0  3  0  0  0  0  0  0
  160.8380  201.6870  147.3650 C   0  0  0  0  0  3  0  0  0  0  0  0
  161.3690  201.2070  149.6770 C   0  0  0  0  0  3  0  0  0  0  0  0
  161.2020  200.7740  148.3580 C   0  0  0  0  0  3  0  0  0  0  0  0
  161.1860  202.5570  150.0170 C   0  0  0  0  0  0  0  0  0  0  0  0
  160.6390  203.0310  147.6930 C   0  0  0  0  0  3  0  0  0  0  0  0
  162.6820  207.7550  150.3490 C   0  0  0  0  0  2  0  0  0  0  0  0
  161.7770  208.0390  149.1670 C   0  0  0  0  0  2  0  0  0  0  0  0
  162.4520  207.6590  147.9370 N   0  0  0  0  0  2  0  0  0  0  0  0
  160.7720  206.8080  146.5090 C   0  0  0  0  0  3  0  0  0  0  0  0
  162.0900  204.9020  144.5090 C   0  0  0  0  0  3  0  0  0  0  0  0
  162.8460  204.6650  145.7520 C   0  0  0  0  0  3  0  0  0  0  0  0
  160.8740  205.4440  144.4490 C   0  0  0  0  0  3  0  0  0  0  0  0
  162.7910  205.4100  146.8620 C   0  0  0  0  0  3  0  0  0  0  0  0
  161.9700  206.6290  147.0710 C   0  0  0  0  0  0  0  0  0  0  0  0
  160.0810  205.7890  145.6650 C   0  0  0  0  0  2  0  0  0  0  0  0
  161.3150  207.3370  155.4240 C   0  0  0  0  0  2  0  0  0  0  0  0
  161.1820  208.6370  156.1980 C   0  0  0  0  0  2  0  0  0  0  0  0
  159.8070  209.1030  156.1580 N   0  0  0  0  0  2  0  0  0  0  0  0
  159.8500  210.4420  155.7480 N   0  0  0  0  0  2  0  0  0  0  0  0
  158.7810  211.1330  156.4550 C   0  0  0  0  0  2  0  0  0  0  0  0
  155.3070  212.9250  153.9190 C   0  0  0  0  0  2  0  0  0  0  0  0
  158.4270  212.4460  155.7620 C   0  0  2  0  0  3  0  0  0  0  0  0
  157.6030  213.3620  156.6820 C   0  0  0  0  0  2  0  0  0  0  0  0
  157.6090  212.1990  154.4850 C   0  0  1  0  0  3  0  0  0  0  0  0
  156.3900  213.6640  155.9490 N   0  0  0  0  0  0  0  0  0  0  0  0
  155.2960  214.4470  156.5010 C   0  0  0  0  0  1  0  0  0  0  0  0
  156.3850  213.0110  154.6930 C   0  0  0  0  0  0  0  0  0  0  0  0
  158.6880  211.8350  152.3710 O   0  0  0  0  0  0  0  0  0  0  0  0
  158.7300  213.9870  153.1560 O   0  0  0  0  0  1  0  0  0  0  0  0
  158.3760  212.6500  153.2800 C   0  0  0  0  0  0  0  0  0  0  0  0
  1  7  1  0  0  0  0
  2  1  2  0  0  0  0
  4 27  1  1  0  0  0
  5  3  2  0  0  0  0
  5  2  1  0  0  0  0
  6  4  1  0  0  0  0
  7  4  1  0  0  0  0
  8  3  1  6  0  0  0
  8  6  1  0  0  0  0
  8  7  1  0  0  0  0
  8  4  1  0  0  0  0
  9  2  1  0  0  0  0
  9 10  2  0  0  0  0
 11 15  1  0  0  0  0
 12 16  1  0  0  0  0
 12 14  2  0  0  0  0
 13 15  2  0  0  0  0
 14 13  1  0  0  0  0
 15  9  1  0  0  0  0
 16 11  2  0  0  0  0
 17  3  1  0  0  0  0
 18 17  1  0  0  0  0
 19 18  1  0  0  0  0
 20 25  2  0  0  0  0
 21 22  1  0  0  0  0
 22 24  2  0  0  0  0
 23 21  2  0  0  0  0
 23 26  1  0  0  0  0
 24 25  1  0  0  0  0
 25 19  1  0  0  0  0
 26 20  1  0  0  0  0
 27 28  1  0  0  0  0
 29 28  1  0  0  0  0
 30 29  1  0  0  0  0
 30 31  1  0  0  0  0
 32 38  2  0  0  0  0
 33 31  1  1  0  0  0
 33 34  1  0  0  0  0
 35 41  1  6  0  0  0
 35 38  1  0  0  0  0
 35 33  1  0  0  0  0
 36 37  1  0  0  0  0
 36 34  1  0  0  0  0
 38 36  1  0  0  0  0
 39 41  2  0  0  0  0
 40 41  1  0  0  0  0
M  END
>  <MODEL>
6

>  <REMARK>
 VINA RESULT:      -7.1      2.198      4.325
  Name = 
  13 active torsions:
  status: ('A' for Active; 'I' for Inactive)
    1  A    between atoms: C_2  and  N_10
    2  A    between atoms: C_2  and  C_11
    3  A    between atoms: N_4  and  C_20
    4  A    between atoms: N_4  and  C_25
    5  A    between atoms: C_9  and  C_19
    6  A    between atoms: C_9  and  C_20
    7  A    between atoms: N_10  and  N_18
    8  A    between atoms: C_11  and  C_21
    9  A    between atoms: C_16  and  C_22
   10  A    between atoms: N_18  and  C_41
   11  A    between atoms: C_22  and  C_31
   12  A    between atoms: C_29  and  C_41
   13  A    between atoms: C_33  and  C_36
                            x       y       z     vdW  Elec       q    Type
                         _______ _______ _______ _____ _____    ______ ____

>  <TORSDO>
F 13

$$$$
=
 OpenBabel11042420503D

 41 46  0  0  1  0  0  0  0  0999 V2000
  161.3000  207.9740  150.6750 C   0  0  0  0  0  3  0  0  0  0  0  0
  161.7460  209.4460  150.5760 C   0  0  0  0  0  0  0  0  0  0  0  0
  161.6100  209.7950  153.0740 C   0  0  0  0  0  0  0  0  0  0  0  0
  160.7460  206.6660  153.0320 C   0  0  1  0  0  0  0  0  0  0  0  0
  161.8630  210.2520  151.6770 C   0  0  0  0  0  3  0  0  0  0  0  0
  160.8940  207.5070  154.1560 N   0  0  0  0  0  2  0  0  0  0  0  0
  161.0950  207.6290  152.0680 N   0  0  0  0  0  0  0  0  0  0  0  0
  161.2500  208.5370  153.1730 C   0  0  2  0  0  0  0  0  0  0  0  0
  162.0020  210.0420  149.2410 C   0  0  0  0  0  0  0  0  0  0  0  0
  162.3050  209.2750  148.2840 O   0  0  0  0  0  0  0  0  0  0  0  0
  160.8820  212.2840  149.5000 C   0  0  0  0  0  3  0  0  0  0  0  0
  161.7890  214.2530  148.4200 C   0  0  0  0  0  3  0  0  0  0  0  0
  162.8880  212.1120  148.1620 C   0  0  0  0  0  3  0  0  0  0  0  0
  162.8250  213.4820  147.8870 C   0  0  0  0  0  3  0  0  0  0  0  0
  161.9240  211.5000  148.9800 C   0  0  0  0  0  0  0  0  0  0  0  0
  160.8160  213.6540  149.2260 C   0  0  0  0  0  3  0  0  0  0  0  0
  161.7480  210.6870  154.2580 C   0  0  0  0  0  2  0  0  0  0  0  0
  160.4590  210.6970  155.0560 C   0  0  0  0  0  2  0  0  0  0  0  0
  159.8090  211.9900  154.9110 N   0  0  0  0  0  0  0  0  0  0  0  0
  157.6320  211.0830  155.0770 C   0  0  0  0  0  2  0  0  0  0  0  0
  155.9010  213.0340  156.6780 C   0  0  0  0  0  3  0  0  0  0  0  0
  156.7770  213.9230  155.8940 C   0  0  0  0  0  3  0  0  0  0  0  0
  155.6430  211.7620  156.3770 C   0  0  0  0  0  3  0  0  0  0  0  0
  157.8570  213.5510  155.1960 C   0  0  0  0  0  3  0  0  0  0  0  0
  158.4010  212.1750  155.0740 C   0  0  0  0  0  0  0  0  0  0  0  0
  156.1410  211.1070  155.1340 C   0  0  0  0  0  2  0  0  0  0  0  0
  161.7880  205.5510  153.0720 C   0  0  0  0  0  2  0  0  0  0  0  0
  161.7540  204.7310  151.7940 C   0  0  0  0  0  2  0  0  0  0  0  0
  160.6220  203.8220  151.8150 N   0  0  0  0  0  2  0  0  0  0  0  0
  160.8050  202.9280  150.7520 N   0  0  0  0  0  2  0  0  0  0  0  0
  160.7500  203.7120  149.5270 C   0  0  0  0  0  2  0  0  0  0  0  0
  160.0840  201.9210  145.2780 C   0  0  0  0  0  2  0  0  0  0  0  0
  161.5680  203.0550  148.4190 C   0  0  2  0  0  3  0  0  0  0  0  0
  162.0600  204.0900  147.3950 C   0  0  0  0  0  2  0  0  0  0  0  0
  160.7420  202.0010  147.6660 C   0  0  1  0  0  3  0  0  0  0  0  0
  161.5780  203.6280  146.1090 N   0  0  0  0  0  0  0  0  0  0  0  0
  161.7630  204.3700  144.8720 C   0  0  0  0  0  1  0  0  0  0  0  0
  160.8310  202.4350  146.2500 C   0  0  0  0  0  0  0  0  0  0  0  0
  161.5850  200.2070  149.0230 O   0  0  0  0  0  1  0  0  0  0  0  0
  161.5780  199.8320  146.7630 O   0  0  0  0  0  0  0  0  0  0  0  0
  161.3290  200.6370  147.8670 C   0  0  0  0  0  0  0  0  0  0  0  0
  1  7  1  0  0  0  0
  2  1  2  0  0  0  0
  2  5  1  0  0  0  0
  3 17  1  0  0  0  0
  4 27  1  1  0  0  0
  4  8  1  0  0  0  0
  4  6  1  0  0  0  0
  5  3  2  0  0  0  0
  7  4  1  0  0  0  0
  7  8  1  0  0  0  0
  8  3  1  6  0  0  0
  8  6  1  0  0  0  0
  9  2  1  0  0  0  0
 10  9  2  0  0  0  0
 12 16  2  0  0  0  0
 13 15  1  0  0  0  0
 14 13  2  0  0  0  0
 14 12  1  0  0  0  0
 15  9  1  0  0  0  0
 15 11  2  0  0  0  0
 16 11  1  0  0  0  0
 17 18  1  0  0  0  0
 19 18  1  0  0  0  0
 19 25  2  0  0  0  0
 20 26  1  0  0  0  0
 22 21  1  0  0  0  0
 23 21  2  0  0  0  0
 24 22  2  0  0  0  0
 25 20  1  0  0  0  0
 25 24  1  0  0  0  0
 26 23  1  0  0  0  0
 28 29  1  0  0  0  0
 28 27  1  0  0  0  0
 30 29  1  0  0  0  0
 31 30  1  0  0  0  0
 32 38  2  0  0  0  0
 33 31  1  1  0  0  0
 34 33  1  0  0  0  0
 35 41  1  6  0  0  0
 35 33  1  0  0  0  0
 36 38  1  0  0  0  0
 36 34  1  0  0  0  0
 37 36  1  0  0  0  0
 38 35  1  0  0  0  0
 40 41  2  0  0  0  0
 41 39  1  0  0  0  0
M  END
>  <MODEL>
7

>  <REMARK>
 VINA RESULT:      -6.9      2.833     10.283
  Name = 
  13 active torsions:
  status: ('A' for Active; 'I' for Inactive)
    1  A    between atoms: C_2  and  N_10
    2  A    between atoms: C_2  and  C_11
    3  A    between atoms: N_4  and  C_20
    4  A    between atoms: N_4  and  C_25
    5  A    between atoms: C_9  and  C_19
    6  A    between atoms: C_9  and  C_20
    7  A    between atoms: N_10  and  N_18
    8  A    between atoms: C_11  and  C_21
    9  A    between atoms: C_16  and  C_22
   10  A    between atoms: N_18  and  C_41
   11  A    between atoms: C_22  and  C_31
   12  A    between atoms: C_29  and  C_41
   13  A    between atoms: C_33  and  C_36
                            x       y       z     vdW  Elec       q    Type
                         _______ _______ _______ _____ _____    ______ ____

>  <TORSDO>
F 13

$$$$
=
 OpenBabel11042420503D

 41 46  0  0  1  0  0  0  0  0999 V2000
  160.5460  210.7600  152.8900 C   0  0  0  0  0  3  0  0  0  0  0  0
  160.1940  211.8990  151.9140 C   0  0  0  0  0  0  0  0  0  0  0  0
  161.5940  210.9190  150.0530 C   0  0  0  0  0  0  0  0  0  0  0  0
  162.1430  208.6070  152.2650 C   0  0  1  0  0  0  0  0  0  0  0  0
  160.6950  211.9550  150.6400 C   0  0  0  0  0  3  0  0  0  0  0  0
  162.6310  208.6710  150.9420 N   0  0  0  0  0  2  0  0  0  0  0  0
  161.4080  209.8050  152.2200 N   0  0  0  0  0  0  0  0  0  0  0  0
  161.8850  209.9330  150.8690 C   0  0  2  0  0  0  0  0  0  0  0  0
  159.3320  213.0150  152.3760 C   0  0  0  0  0  0  0  0  0  0  0  0
  159.3500  214.1000  151.7320 O   0  0  0  0  0  0  0  0  0  0  0  0
  158.2910  213.9900  154.4530 C   0  0  0  0  0  3  0  0  0  0  0  0
  156.8130  212.6630  155.8390 C   0  0  0  0  0  3  0  0  0  0  0  0
  157.7950  211.7040  153.8450 C   0  0  0  0  0  3  0  0  0  0  0  0
  156.9760  211.5800  154.9710 C   0  0  0  0  0  3  0  0  0  0  0  0
  158.4520  212.9140  153.5670 C   0  0  0  0  0  0  0  0  0  0  0  0
  157.4730  213.8680  155.5810 C   0  0  0  0  0  3  0  0  0  0  0  0
  162.1250  210.9970  148.6640 C   0  0  0  0  0  2  0  0  0  0  0  0
  162.3500  212.4440  148.2720 C   0  0  0  0  0  2  0  0  0  0  0  0
  161.7030  212.7060  146.9970 N   0  0  0  0  0  2  0  0  0  0  0  0
  159.6610  212.6430  145.8070 C   0  0  0  0  0  3  0  0  0  0  0  0
  157.3750  213.0140  147.8090 C   0  0  0  0  0  3  0  0  0  0  0  0
  158.4330  213.8940  148.3360 C   0  0  0  0  0  3  0  0  0  0  0  0
  157.3040  212.5770  146.5520 C   0  0  0  0  0  3  0  0  0  0  0  0
  159.7090  213.9210  147.9330 C   0  0  0  0  0  3  0  0  0  0  0  0
  160.3250  213.0700  146.8850 C   0  0  0  0  0  0  0  0  0  0  0  0
  158.2520  213.0180  145.4880 C   0  0  0  0  0  2  0  0  0  0  0  0
  161.2040  207.4130  152.4190 C   0  0  0  0  0  2  0  0  0  0  0  0
  161.9700  206.1050  152.3240 C   0  0  0  0  0  2  0  0  0  0  0  0
  161.2930  205.0730  153.0880 N   0  0  0  0  0  2  0  0  0  0  0  0
  160.5490  204.3190  152.1720 N   0  0  0  0  0  2  0  0  0  0  0  0
  161.4420  203.9930  151.0700 C   0  0  0  0  0  2  0  0  0  0  0  0
  162.4330  203.9960  146.5170 C   0  0  0  0  0  2  0  0  0  0  0  0
  160.7010  204.0290  149.7360 C   0  0  2  0  0  3  0  0  0  0  0  0
  160.4380  202.6120  149.2010 C   0  0  0  0  0  2  0  0  0  0  0  0
  161.5050  204.7940  148.6730 C   0  0  1  0  0  3  0  0  0  0  0  0
  161.0230  202.5800  147.8760 N   0  0  0  0  0  0  0  0  0  0  0  0
  161.0610  201.3850  147.0470 C   0  0  0  0  0  1  0  0  0  0  0  0
  161.6290  203.8190  147.5610 C   0  0  0  0  0  0  0  0  0  0  0  0
  160.4530  206.9130  149.0900 O   0  0  0  0  0  1  0  0  0  0  0  0
  160.4440  206.2050  146.9110 O   0  0  0  0  0  0  0  0  0  0  0  0
  160.7680  206.0280  148.2500 C   0  0  0  0  0  0  0  0  0  0  0  0
  2  9  1  0  0  0  0
  2  1  2  0  0  0  0
  3  5  2  0  0  0  0
  4 27  1  6  0  0  0
  5  2  1  0  0  0  0
  6  4  1  0  0  0  0
  7  4  1  0  0  0  0
  7  1  1  0  0  0  0
  8  3  1  1  0  0  0
  8  6  1  0  0  0  0
  8  7  1  0  0  0  0
  8  4  1  0  0  0  0
  9 15  1  0  0  0  0
 10  9  2  0  0  0  0
 11 16  1  0  0  0  0
 13 14  2  0  0  0  0
 14 12  1  0  0  0  0
 15 13  1  0  0  0  0
 15 11  2  0  0  0  0
 16 12  2  0  0  0  0
 17  3  1  0  0  0  0
 18 17  1  0  0  0  0
 19 18  1  0  0  0  0
 20 25  2  0  0  0  0
 21 22  1  0  0  0  0
 23 21  2  0  0  0  0
 24 22  2  0  0  0  0
 25 19  1  0  0  0  0
 25 24  1  0  0  0  0
 26 20  1  0  0  0  0
 26 23  1  0  0  0  0
 28 27  1  0  0  0  0
 28 29  1  0  0  0  0
 30 29  1  0  0  0  0
 31 30  1  0  0  0  0
 32 38  2  0  0  0  0
 33 31  1  1  0  0  0
 34 33  1  0  0  0  0
 35 41  1  6  0  0  0
 35 33  1  0  0  0  0
 36 34  1  0  0  0  0
 37 36  1  0  0  0  0
 38 36  1  0  0  0  0
 38 35  1  0  0  0  0
 40 41  2  0  0  0  0
 41 39  1  0  0  0  0
M  END
>  <MODEL>
8

>  <REMARK>
 VINA RESULT:      -6.9      2.804      9.789
  Name = 
  13 active torsions:
  status: ('A' for Active; 'I' for Inactive)
    1  A    between atoms: C_2  and  N_10
    2  A    between atoms: C_2  and  C_11
    3  A    between atoms: N_4  and  C_20
    4  A    between atoms: N_4  and  C_25
    5  A    between atoms: C_9  and  C_19
    6  A    between atoms: C_9  and  C_20
    7  A    between atoms: N_10  and  N_18
    8  A    between atoms: C_11  and  C_21
    9  A    between atoms: C_16  and  C_22
   10  A    between atoms: N_18  and  C_41
   11  A    between atoms: C_22  and  C_31
   12  A    between atoms: C_29  and  C_41
   13  A    between atoms: C_33  and  C_36
                            x       y       z     vdW  Elec       q    Type
                         _______ _______ _______ _____ _____    ______ ____

>  <TORSDO>
F 13

$$$$
=
 OpenBabel11042420503D

 41 46  0  0  1  0  0  0  0  0999 V2000
  161.9760  207.8620  150.8860 C   0  0  0  0  0  3  0  0  0  0  0  0
  161.9350  206.8800  149.6990 C   0  0  0  0  0  0  0  0  0  0  0  0
  161.6850  204.8640  151.2020 C   0  0  0  0  0  0  0  0  0  0  0  0
  161.7380  207.1280  153.5280 C   0  0  1  0  0  0  0  0  0  0  0  0
  161.8180  205.5260  149.8710 C   0  0  0  0  0  3  0  0  0  0  0  0
  161.5960  205.7320  153.6840 N   0  0  0  0  0  2  0  0  0  0  0  0
  161.8250  207.1230  152.1250 N   0  0  0  0  0  0  0  0  0  0  0  0
  161.6970  205.6930  152.2200 C   0  0  2  0  0  0  0  0  0  0  0  0
  162.0890  207.4000  148.3180 C   0  0  0  0  0  0  0  0  0  0  0  0
  162.5090  208.5800  148.1590 O   0  0  0  0  0  0  0  0  0  0  0  0
  162.7580  205.8970  146.4090 C   0  0  0  0  0  3  0  0  0  0  0  0
  161.1140  205.1260  144.8060 C   0  0  0  0  0  3  0  0  0  0  0  0
  160.4450  206.5630  146.6350 C   0  0  0  0  0  3  0  0  0  0  0  0
  160.1190  205.8290  145.4910 C   0  0  0  0  0  3  0  0  0  0  0  0
  161.7650  206.5970  147.1130 C   0  0  0  0  0  0  0  0  0  0  0  0
  162.4340  205.1620  145.2650 C   0  0  0  0  0  3  0  0  0  0  0  0
  161.5540  203.3900  151.3660 C   0  0  0  0  0  2  0  0  0  0  0  0
  160.2050  202.9260  150.8520 C   0  0  0  0  0  2  0  0  0  0  0  0
  160.3480  201.6180  150.2330 N   0  0  0  0  0  2  0  0  0  0  0  0
  161.1150  200.1910  148.5110 C   0  0  0  0  0  3  0  0  0  0  0  0
  160.5430  201.5390  145.8230 C   0  0  0  0  0  3  0  0  0  0  0  0
  160.9030  202.6690  146.6990 C   0  0  0  0  0  3  0  0  0  0  0  0
  160.8630  200.2660  146.0530 C   0  0  0  0  0  3  0  0  0  0  0  0
  161.0320  202.6240  148.0300 C   0  0  0  0  0  3  0  0  0  0  0  0
  160.8330  201.4380  148.9000 C   0  0  0  0  0  0  0  0  0  0  0  0
  161.7240  199.8420  147.1940 C   0  0  0  0  0  2  0  0  0  0  0  0
  160.4640  207.8370  153.9800 C   0  0  0  0  0  2  0  0  0  0  0  0
  160.5750  209.3370  153.7700 C   0  0  0  0  0  2  0  0  0  0  0  0
  159.3950  209.8330  153.0850 N   0  0  0  0  0  2  0  0  0  0  0  0
  159.4420  211.2310  153.1660 N   0  0  0  0  0  2  0  0  0  0  0  0
  160.2750  211.6900  152.0650 C   0  0  0  0  0  2  0  0  0  0  0  0
  156.8940  213.4450  149.3820 C   0  0  0  0  0  2  0  0  0  0  0  0
  159.8080  213.0500  151.5540 C   0  0  2  0  0  3  0  0  0  0  0  0
  158.7480  213.6650  152.4830 C   0  0  0  0  0  2  0  0  0  0  0  0
  159.1960  212.9370  150.1490 C   0  0  1  0  0  3  0  0  0  0  0  0
  157.5990  213.9340  151.6420 N   0  0  0  0  0  0  0  0  0  0  0  0
  156.3390  214.4530  152.1500 C   0  0  0  0  0  1  0  0  0  0  0  0
  157.8450  213.5290  150.3080 C   0  0  0  0  0  0  0  0  0  0  0  0
  160.9580  214.4500  149.5390 O   0  0  0  0  0  1  0  0  0  0  0  0
  159.7640  213.5560  147.8010 O   0  0  0  0  0  0  0  0  0  0  0  0
  160.0220  213.6970  149.1580 C   0  0  0  0  0  0  0  0  0  0  0  0
  1  7  1  0  0  0  0
  2  5  1  0  0  0  0
  2  1  2  0  0  0  0
  3 17  1  0  0  0  0
  4  6  1  0  0  0  0
  4 27  1  6  0  0  0
  5  3  2  0  0  0  0
  7  8  1  0  0  0  0
  7  4  1  0  0  0  0
  8  3  1  1  0  0  0
  8  4  1  0  0  0  0
  8  6  1  0  0  0  0
  9  2  1  0  0  0  0
 10  9  2  0  0  0  0
 11 15  1  0  0  0  0
 12 16  1  0  0  0  0
 12 14  2  0  0  0  0
 13 15  2  0  0  0  0
 14 13  1  0  0  0  0
 15  9  1  0  0  0  0
 16 11  2  0  0  0  0
 18 17  1  0  0  0  0
 19 18  1  0  0  0  0
 20 25  2  0  0  0  0
 21 23  2  0  0  0  0
 21 22  1  0  0  0  0
 22 24  2  0  0  0  0
 23 26  1  0  0  0  0
 24 25  1  0  0  0  0
 25 19  1  0  0  0  0
 26 20  1  0  0  0  0
 28 27  1  0  0  0  0
 29 30  1  0  0  0  0
 29 28  1  0  0  0  0
 31 30  1  0  0  0  0
 32 38  2  0  0  0  0
 33 31  1  1  0  0  0
 33 34  1  0  0  0  0
 35 41  1  6  0  0  0
 35 38  1  0  0  0  0
 35 33  1  0  0  0  0
 36 37  1  0  0  0  0
 36 34  1  0  0  0  0
 38 36  1  0  0  0  0
 40 41  2  0  0  0  0
 41 39  1  0  0  0  0
M  END
>  <MODEL>
9

>  <REMARK>
 VINA RESULT:      -6.9      2.176      2.868
  Name = 
  13 active torsions:
  status: ('A' for Active; 'I' for Inactive)
    1  A    between atoms: C_2  and  N_10
    2  A    between atoms: C_2  and  C_11
    3  A    between atoms: N_4  and  C_20
    4  A    between atoms: N_4  and  C_25
    5  A    between atoms: C_9  and  C_19
    6  A    between atoms: C_9  and  C_20
    7  A    between atoms: N_10  and  N_18
    8  A    between atoms: C_11  and  C_21
    9  A    between atoms: C_16  and  C_22
   10  A    between atoms: N_18  and  C_41
   11  A    between atoms: C_22  and  C_31
   12  A    between atoms: C_29  and  C_41
   13  A    between atoms: C_33  and  C_36
                            x       y       z     vdW  Elec       q    Type
                         _______ _______ _______ _____ _____    ______ ____

>  <TORSDO>
F 13

$$$$
