=
 OpenBabel11052410563D

 70 80  0  0  1  0  0  0  0  0999 V2000
  162.0210  208.8230  150.1200 C   0  0  1  0  0  3  0  0  0  0  0  0
  162.4010  210.1460  152.0150 C   0  0  2  0  0  3  0  0  0  0  0  0
  161.9870  206.3330  149.3890 C   0  0  0  0  0  2  0  0  0  0  0  0
  162.1650  211.0980  150.8410 C   0  0  0  0  0  2  0  0  0  0  0  0
  161.3010  207.7140  149.3230 C   0  0  0  0  0  0  0  0  0  0  0  0
  162.4400  206.2820  151.8490 C   0  0  0  0  0  0  0  0  0  0  0  0
  159.9760  207.6230  149.7890 O   0  0  0  0  0  1  0  0  0  0  0  0
  162.3740  210.1900  149.6170 C   0  0  2  0  0  3  0  0  0  0  0  0
  163.0430  206.1740  150.4830 C   0  0  0  0  0  2  0  0  0  0  0  0
  162.3070  205.1890  152.6210 C   0  0  0  0  0  3  0  0  0  0  0  0
  162.1380  208.7860  151.4530 C   0  0  1  0  0  3  0  0  0  0  0  0
  161.8270  207.5870  152.3290 C   0  0  0  0  0  2  0  0  0  0  0  0
  161.2440  208.0310  147.9670 O   0  0  0  0  0  1  0  0  0  0  0  0
  158.0240  212.3420  154.0380 C   0  0  0  0  0  0  0  0  0  0  0  0
  156.8660  212.9920  154.1780 N   0  0  0  0  0  0  0  0  0  0  0  0
  160.7840  209.8760  156.5960 N   0  0  0  0  0  2  0  0  0  0  0  0
  159.9140  211.0320  154.5740 C   0  0  0  0  0  0  0  0  0  0  0  0
  160.3910  211.1360  153.2770 C   0  0  0  0  0  0  0  0  0  0  0  0
  160.8400  210.2680  155.2260 C   0  0  0  0  0  0  0  0  0  0  0  0
  158.4730  212.4620  152.7360 C   0  0  0  0  0  0  0  0  0  0  0  0
  159.6770  211.8640  152.3050 C   0  0  0  0  0  3  0  0  0  0  0  0
  158.7240  211.6170  155.0050 C   0  0  0  0  0  3  0  0  0  0  0  0
  161.8260  209.9120  154.3720 N   0  0  0  0  0  0  0  0  0  0  0  0
  157.6230  213.2290  152.0280 N   0  0  0  0  0  2  0  0  0  0  0  0
  156.6470  213.5130  152.9310 C   0  0  0  0  0  0  0  0  0  0  0  0
  161.8000  208.9860  157.1390 C   0  0  0  0  0  1  0  0  0  0  0  0
  161.5540  210.4300  153.1840 N   0  0  0  0  0  0  0  0  0  0  0  0
  154.3650  214.1060  153.4350 N   0  0  0  0  0  1  0  0  0  0  0  0
  155.5110  214.4530  152.6290 C   0  0  2  0  0  3  0  0  0  0  0  0
  155.1160  214.4530  151.1510 C   0  0  0  0  0  2  0  0  0  0  0  0
  153.7230  214.4040  150.9940 O   0  0  0  0  0  1  0  0  0  0  0  0
  162.5580  203.7590  152.1570 C   0  0  0  0  0  2  0  0  0  0  0  0
  159.4890  203.7010  149.9180 C   0  0  0  0  0  2  0  0  0  0  0  0
  160.9060  200.7770  150.3160 C   0  0  1  0  0  3  0  0  0  0  0  0
  161.9340  201.3050  149.2920 C   0  0  2  0  0  3  0  0  0  0  0  0
  162.0130  201.7720  150.7510 C   0  0  1  0  0  3  0  0  0  0  0  0
  159.5640  201.3230  150.5840 N   0  0  0  0  0  2  0  0  0  0  0  0
  161.7860  203.3010  150.9310 C   0  0  1  0  0  3  0  0  0  0  0  0
  160.3520  203.7740  151.1720 C   0  0  0  0  0  2  0  0  0  0  0  0
  159.0230  202.2630  149.6070 C   0  0  0  0  0  2  0  0  0  0  0  0
  161.3840  202.1980  148.1690 C   0  0  0  0  0  2  0  0  0  0  0  0
  160.2390  201.5910  147.4930 N   0  0  0  0  0  2  0  0  0  0  0  0
  159.0010  201.7470  145.1910 O   0  0  0  0  0  0  0  0  0  0  0  0
  160.3860  201.7080  145.7750 S   0  0  0  0  0  0  0  0  0  0  0  0
  161.0990  200.5030  145.2370 O   0  0  0  0  0  0  0  0  0  0  0  0
  161.2820  203.1680  145.2030 C   0  0  2  0  0  3  0  0  0  0  0  0
  162.0870  203.7460  146.3750 C   0  0  0  0  0  2  0  0  0  0  0  0
  160.5440  205.4960  144.7420 C   0  0  0  0  0  3  0  0  0  0  0  0
  160.3290  204.1880  144.6220 C   0  0  0  0  0  3  0  0  0  0  0  0
  162.7150  205.0690  145.9360 C   0  0  0  0  0  2  0  0  0  0  0  0
  161.6590  205.9900  145.4750 N   0  0  0  0  0  2  0  0  0  0  0  0
  161.5640  210.6010  148.5450 O   0  0  0  0  0  0  0  0  0  0  0  0
  161.5660  211.9920  148.6280 C   0  0  0  0  0  2  0  0  0  0  0  0
  162.4100  212.5860  147.6760 O   0  0  0  0  0  0  0  0  0  0  0  0
  160.8920  213.9740  149.7860 O   0  0  0  0  0  0  0  0  0  0  0  0
  157.6900  213.7820  148.2630 C   0  0  0  0  0  0  0  0  0  0  0  0
  161.7030  213.6150  147.0340 C   0  0  2  0  0  3  0  0  0  0  0  0
  159.4250  213.5970  146.6220 C   0  0  0  0  0  0  0  0  0  0  0  0
  159.9880  213.4250  145.2790 C   0  0  0  0  0  2  0  0  0  0  0  0
  160.0120  213.8720  148.9010 C   0  0  0  0  0  0  0  0  0  0  0  0
  158.6720  213.8960  149.2630 C   0  0  0  0  0  3  0  0  0  0  0  0
  160.3530  213.7090  147.5870 N   0  0  0  0  0  0  0  0  0  0  0  0
  156.2700  213.7770  148.6300 C   0  0  0  0  0  1  0  0  0  0  0  0
  161.4790  213.1740  145.5690 C   0  0  1  0  0  3  0  0  0  0  0  0
  158.0660  213.6310  146.9260 C   0  0  0  0  0  3  0  0  0  0  0  0
  161.6760  213.6090  142.3140 C   0  0  0  0  0  2  0  0  0  0  0  0
  162.4160  212.3790  142.7460 C   0  0  0  0  0  2  0  0  0  0  0  0
  161.5220  214.4450  143.5700 C   0  0  0  0  0  2  0  0  0  0  0  0
  163.1930  212.8750  143.9390 C   0  0  0  0  0  2  0  0  0  0  0  0
  162.3680  213.8830  144.6210 N   0  0  0  0  0  0  0  0  0  0  0  0
  1  5  1  1  0  0  0
  1 11  1  0  0  0  0
  2  4  1  6  0  0  0
  2 27  1  0  0  0  0
  3  9  1  0  0  0  0
  5  3  1  0  0  0  0
  5  7  1  0  0  0  0
  6 12  1  0  0  0  0
  6 10  2  0  0  0  0
  8 52  1  6  0  0  0
  8  1  1  0  0  0  0
  8  4  1  0  0  0  0
  9  6  1  0  0  0  0
 11  2  1  0  0  0  0
 11 12  1  1  0  0  0
 13  5  1  0  0  0  0
 14 15  1  0  0  0  0
 14 22  1  0  0  0  0
 16 26  1  0  0  0  0
 17 22  2  0  0  0  0
 17 19  1  0  0  0  0
 18 17  1  0  0  0  0
 19 16  1  0  0  0  0
 20 14  2  0  0  0  0
 21 20  1  0  0  0  0
 21 18  2  0  0  0  0
 23 19  2  0  0  0  0
 24 20  1  0  0  0  0
 24 25  1  0  0  0  0
 25 15  2  0  0  0  0
 27 18  1  0  0  0  0
 27 23  1  0  0  0  0
 29 25  1  0  0  0  0
 29 28  1  1  0  0  0
 30 29  1  0  0  0  0
 31 30  1  0  0  0  0
 32 10  1  0  0  0  0
 33 39  1  0  0  0  0
 34 37  1  6  0  0  0
 34 36  1  0  0  0  0
 35 41  1  6  0  0  0
 35 34  1  0  0  0  0
 35 36  1  0  0  0  0
 36 38  1  0  0  0  0
 38 39  1  0  0  0  0
 38 32  1  0  0  0  0
 40 33  1  0  0  0  0
 40 37  1  0  0  0  0
 42 41  1  0  0  0  0
 43 44  2  0  0  0  0
 44 42  1  0  0  0  0
 45 44  2  0  0  0  0
 46 44  1  0  0  0  0
 46 47  1  0  0  0  0
 48 51  1  0  0  0  0
 49 48  2  0  0  0  0
 49 46  1  0  0  0  0
 50 47  1  0  0  0  0
 51 50  1  0  0  0  0
 52 53  1  0  0  0  0
 54 53  1  0  0  0  0
 56 63  1  0  0  0  0
 56 61  2  0  0  0  0
 57 62  1  0  0  0  0
 57 54  1  0  0  0  0
 58 65  2  0  0  0  0
 58 62  1  0  0  0  0
 59 64  1  0  0  0  0
 59 58  1  0  0  0  0
 60 61  1  0  0  0  0
 60 55  2  0  0  0  0
 62 60  1  0  0  0  0
 64 57  1  0  0  0  0
 65 56  1  0  0  0  0
 66 67  1  0  0  0  0
 66 68  1  0  0  0  0
 67 69  1  0  0  0  0
 68 70  1  0  0  0  0
 69 70  1  0  0  0  0
 70 64  1  0  0  0  0
M  END
>  <MODEL>
1

>  <REMARK>
 VINA RESULT:      -3.0      0.000      0.000
  Name = 
  14 active torsions:
  status: ('A' for Active; 'I' for Inactive)
    1  A    between atoms: C_1  and  CA_43
    2  A    between atoms: O_4  and  C_25
    3  A    between atoms: O_4  and  C_65
    4  A    between atoms: C_5  and  S_42
    5  A    between atoms: C_17  and  N_68
    6  A    between atoms: C_26  and  C_69
    7  A    between atoms: C_30  and  C_36
    8  A    between atoms: C_30  and  C_51
    9  A    between atoms: N_32  and  S_42
   10  A    between atoms: N_32  and  C_69
   11  A    between atoms: C_40  and  O_44
   12  A    between atoms: CA_43  and  C_60
   13  A    between atoms: O_44  and  C_65
   14  A    between atoms: N_61  and  C_62
                            x       y       z     vdW  Elec       q    Type
                         _______ _______ _______ _____ _____    ______ ____

>  <TORSDO>
F 14

$$$$
=
 OpenBabel11052410563D

 70 80  0  0  1  0  0  0  0  0999 V2000
  161.0750  209.4660  151.3790 C   0  0  1  0  0  3  0  0  0  0  0  0
  159.6380  209.8840  153.1800 C   0  0  2  0  0  3  0  0  0  0  0  0
  162.0850  210.6550  149.3040 C   0  0  0  0  0  2  0  0  0  0  0  0
  160.0330  208.4070  153.2520 C   0  0  0  0  0  2  0  0  0  0  0  0
  162.3260  209.7250  150.5120 C   0  0  0  0  0  0  0  0  0  0  0  0
  160.7500  212.4160  150.4760 C   0  0  0  0  0  0  0  0  0  0  0  0
  163.3360  210.2520  151.3390 O   0  0  0  0  0  1  0  0  0  0  0  0
  160.5770  208.1300  151.8400 C   0  0  2  0  0  3  0  0  0  0  0  0
  160.7790  211.4480  149.3350 C   0  0  0  0  0  2  0  0  0  0  0  0
  160.8740  213.7360  150.2510 C   0  0  0  0  0  3  0  0  0  0  0  0
  160.4670  210.4390  152.0680 C   0  0  1  0  0  3  0  0  0  0  0  0
  160.7380  211.9250  151.9150 C   0  0  0  0  0  2  0  0  0  0  0  0
  162.8130  208.5370  149.9700 O   0  0  0  0  0  1  0  0  0  0  0  0
  162.9740  212.1070  156.6450 C   0  0  0  0  0  0  0  0  0  0  0  0
  164.0750  212.5450  157.2610 N   0  0  0  0  0  0  0  0  0  0  0  0
  158.5170  212.4300  157.1720 N   0  0  0  0  0  2  0  0  0  0  0  0
  160.6890  211.7580  156.1650 C   0  0  0  0  0  0  0  0  0  0  0  0
  161.0090  211.0050  155.0450 C   0  0  0  0  0  0  0  0  0  0  0  0
  159.3230  211.7690  156.1970 C   0  0  0  0  0  0  0  0  0  0  0  0
  163.3240  211.3630  155.5340 C   0  0  0  0  0  0  0  0  0  0  0  0
  162.3540  210.7800  154.6910 C   0  0  0  0  0  3  0  0  0  0  0  0
  161.6430  212.3380  156.9990 C   0  0  0  0  0  3  0  0  0  0  0  0
  158.8310  211.0720  155.1490 N   0  0  0  0  0  0  0  0  0  0  0  0
  164.6650  211.2790  155.4430 N   0  0  0  0  0  2  0  0  0  0  0  0
  165.0870  212.0290  156.4960 C   0  0  0  0  0  0  0  0  0  0  0  0
  157.0680  212.4300  157.0350 C   0  0  0  0  0  1  0  0  0  0  0  0
  159.8510  210.6120  154.4400 N   0  0  0  0  0  0  0  0  0  0  0  0
  166.8330  213.5050  157.2600 N   0  0  0  0  0  1  0  0  0  0  0  0
  166.5370  212.1450  156.8790 C   0  0  2  0  0  3  0  0  0  0  0  0
  167.4850  211.7090  155.7600 C   0  0  0  0  0  2  0  0  0  0  0  0
  168.8200  212.0030  156.0770 O   0  0  0  0  0  1  0  0  0  0  0  0
  161.2330  214.3590  148.9070 C   0  0  0  0  0  2  0  0  0  0  0  0
  157.6690  214.2700  147.5960 C   0  0  0  0  0  2  0  0  0  0  0  0
  159.6360  212.0160  146.2670 C   0  0  1  0  0  3  0  0  0  0  0  0
  160.1670  213.1960  145.4240 C   0  0  2  0  0  3  0  0  0  0  0  0
  160.6280  213.0390  146.8800 C   0  0  1  0  0  3  0  0  0  0  0  0
  158.3770  211.9710  147.0320 N   0  0  0  0  0  2  0  0  0  0  0  0
  160.2010  214.2190  147.8010 C   0  0  1  0  0  3  0  0  0  0  0  0
  158.8620  214.0930  148.5270 C   0  0  0  0  0  2  0  0  0  0  0  0
  157.3920  213.0100  146.7490 C   0  0  0  0  0  2  0  0  0  0  0  0
  159.1340  214.2500  144.9960 C   0  0  0  0  0  2  0  0  0  0  0  0
  159.1240  214.4530  143.5480 N   0  0  0  0  0  2  0  0  0  0  0  0
  160.0940  212.0220  143.4710 O   0  0  0  0  0  0  0  0  0  0  0  0
  160.1740  213.3370  142.7470 S   0  0  0  0  0  0  0  0  0  0  0  0
  161.5880  213.8310  142.8030 O   0  0  0  0  0  0  0  0  0  0  0  0
  159.7690  213.0520  141.0100 C   0  0  2  0  0  3  0  0  0  0  0  0
  160.6340  211.9000  140.4820 C   0  0  0  0  0  2  0  0  0  0  0  0
  160.3830  214.2810  138.9390 C   0  0  0  0  0  3  0  0  0  0  0  0
  159.9640  214.3150  140.2010 C   0  0  0  0  0  3  0  0  0  0  0  0
  160.4110  211.7660  138.9750 C   0  0  0  0  0  2  0  0  0  0  0  0
  160.7200  213.0470  138.3120 N   0  0  0  0  0  2  0  0  0  0  0  0
  161.5880  207.1550  151.8760 O   0  0  0  0  0  0  0  0  0  0  0  0
  161.0090  206.0380  151.2760 C   0  0  0  0  0  2  0  0  0  0  0  0
  161.0050  206.1220  149.8740 O   0  0  0  0  0  0  0  0  0  0  0  0
  163.0220  206.9260  147.8830 O   0  0  0  0  0  0  0  0  0  0  0  0
  161.7860  205.0060  145.1630 C   0  0  0  0  0  0  0  0  0  0  0  0
  161.5350  204.9320  149.3550 C   0  0  2  0  0  3  0  0  0  0  0  0
  161.0690  204.0820  147.2530 C   0  0  0  0  0  0  0  0  0  0  0  0
  160.3650  203.1440  148.1340 C   0  0  0  0  0  2  0  0  0  0  0  0
  162.4240  206.0240  147.2520 C   0  0  0  0  0  0  0  0  0  0  0  0
  162.4580  206.0230  145.8640 C   0  0  0  0  0  3  0  0  0  0  0  0
  161.7170  205.0570  147.9100 N   0  0  0  0  0  0  0  0  0  0  0  0
  161.7860  205.0060  143.6970 C   0  0  0  0  0  1  0  0  0  0  0  0
  160.4480  203.8420  149.5030 C   0  0  1  0  0  3  0  0  0  0  0  0
  161.0820  204.0220  145.8620 C   0  0  0  0  0  3  0  0  0  0  0  0
  162.1970  201.0860  149.9170 C   0  0  0  0  0  2  0  0  0  0  0  0
  160.8020  200.7830  149.4600 C   0  0  0  0  0  2  0  0  0  0  0  0
  162.1390  202.4950  150.4730 C   0  0  0  0  0  2  0  0  0  0  0  0
  159.9720  201.6670  150.3570 C   0  0  0  0  0  2  0  0  0  0  0  0
  160.7390  202.8970  150.6050 N   0  0  0  0  0  0  0  0  0  0  0  0
  1  5  1  1  0  0  0
  1  8  1  0  0  0  0
  1 11  1  0  0  0  0
  2  4  1  1  0  0  0
  2 27  1  0  0  0  0
  3  9  1  0  0  0  0
  3  5  1  0  0  0  0
  5  7  1  0  0  0  0
  6 12  1  0  0  0  0
  8 52  1  1  0  0  0
  8  4  1  0  0  0  0
  9  6  1  0  0  0  0
 10  6  2  0  0  0  0
 11 12  1  1  0  0  0
 11  2  1  0  0  0  0
 13  5  1  0  0  0  0
 14 22  1  0  0  0  0
 14 15  1  0  0  0  0
 17 19  1  0  0  0  0
 17 22  2  0  0  0  0
 18 17  1  0  0  0  0
 19 16  1  0  0  0  0
 20 14  2  0  0  0  0
 21 18  2  0  0  0  0
 21 20  1  0  0  0  0
 23 19  2  0  0  0  0
 24 20  1  0  0  0  0
 24 25  1  0  0  0  0
 25 29  1  0  0  0  0
 25 15  2  0  0  0  0
 26 16  1  0  0  0  0
 27 18  1  0  0  0  0
 27 23  1  0  0  0  0
 29 28  1  6  0  0  0
 30 31  1  0  0  0  0
 30 29  1  0  0  0  0
 32 10  1  0  0  0  0
 33 39  1  0  0  0  0
 34 36  1  0  0  0  0
 34 37  1  1  0  0  0
 35 41  1  1  0  0  0
 35 34  1  0  0  0  0
 35 36  1  0  0  0  0
 36 38  1  0  0  0  0
 38 39  1  0  0  0  0
 38 32  1  0  0  0  0
 40 37  1  0  0  0  0
 40 33  1  0  0  0  0
 42 41  1  0  0  0  0
 44 45  2  0  0  0  0
 44 43  2  0  0  0  0
 44 42  1  0  0  0  0
 46 44  1  0  0  0  0
 47 46  1  0  0  0  0
 48 49  2  0  0  0  0
 49 46  1  0  0  0  0
 50 47  1  0  0  0  0
 51 48  1  0  0  0  0
 51 50  1  0  0  0  0
 53 52  1  0  0  0  0
 54 53  1  0  0  0  0
 56 65  1  0  0  0  0
 56 61  2  0  0  0  0
 57 64  1  0  0  0  0
 57 54  1  0  0  0  0
 58 62  1  0  0  0  0
 58 59  1  0  0  0  0
 59 64  1  0  0  0  0
 60 55  2  0  0  0  0
 60 62  1  0  0  0  0
 61 60  1  0  0  0  0
 62 57  1  0  0  0  0
 63 56  1  0  0  0  0
 64 70  1  0  0  0  0
 65 58  2  0  0  0  0
 66 68  1  0  0  0  0
 67 66  1  0  0  0  0
 67 69  1  0  0  0  0
 68 70  1  0  0  0  0
 69 70  1  0  0  0  0
M  END
>  <MODEL>
2

>  <REMARK>
 VINA RESULT:      -0.4      3.270      9.337
  Name = 
  14 active torsions:
  status: ('A' for Active; 'I' for Inactive)
    1  A    between atoms: C_1  and  CA_43
    2  A    between atoms: O_4  and  C_25
    3  A    between atoms: O_4  and  C_65
    4  A    between atoms: C_5  and  S_42
    5  A    between atoms: C_17  and  N_68
    6  A    between atoms: C_26  and  C_69
    7  A    between atoms: C_30  and  C_36
    8  A    between atoms: C_30  and  C_51
    9  A    between atoms: N_32  and  S_42
   10  A    between atoms: N_32  and  C_69
   11  A    between atoms: C_40  and  O_44
   12  A    between atoms: CA_43  and  C_60
   13  A    between atoms: O_44  and  C_65
   14  A    between atoms: N_61  and  C_62
                            x       y       z     vdW  Elec       q    Type
                         _______ _______ _______ _____ _____    ______ ____

>  <TORSDO>
F 14

$$$$
