=
 OpenBabel11042421573D

 39 41  0  0  1  0  0  0  0  0999 V2000
  160.7870  206.8360  154.7880 C   0  0  0  0  0  3  0  0  0  0  0  0
  161.1980  206.2940  153.6930 N   0  0  0  0  0  0  0  0  0  0  0  0
  161.6050  208.5100  152.6520 C   0  0  0  0  0  0  0  0  0  0  0  0
  162.3730  209.9780  150.6300 C   0  0  0  0  0  3  0  0  0  0  0  0
  160.7960  209.1010  153.7880 C   0  0  1  0  0  3  0  0  0  0  0  0
  161.0160  208.2920  155.0650 C   0  0  0  0  0  2  0  0  0  0  0  0
  161.9140  207.0240  152.6500 C   0  0  2  0  0  3  0  0  0  0  0  0
  161.9920  209.2500  151.6420 C   0  0  0  0  0  0  0  0  0  0  0  0
  161.0810  210.5610  154.0330 C   0  0  0  0  0  0  0  0  0  0  0  0
  162.1330  210.9070  154.6370 O   0  0  0  0  0  0  0  0  0  0  0  0
  160.2040  211.5710  153.5290 N   0  0  0  0  0  2  0  0  0  0  0  0
  159.0110  211.2540  152.7580 C   0  0  0  0  0  2  0  0  0  0  0  0
  158.5620  212.4750  151.9790 C   0  0  0  0  0  2  0  0  0  0  0  0
  159.7640  213.2000  151.3990 C   0  0  0  0  0  2  0  0  0  0  0  0
  159.3380  214.0850  150.2360 C   0  0  0  0  0  2  0  0  0  0  0  0
  158.2030  213.4540  149.4400 C   0  0  0  0  0  2  0  0  0  0  0  0
  157.0730  213.4140  147.2410 C   0  0  0  0  0  2  0  0  0  0  0  0
  159.3360  212.8560  147.4160 O   0  0  0  0  0  0  0  0  0  0  0  0
  157.4250  212.6200  146.0870 N   0  0  0  0  0  2  0  0  0  0  0  0
  158.3660  213.7100  147.9500 C   0  0  2  0  0  3  0  0  0  0  0  0
  158.8780  212.5570  146.1230 C   0  0  0  0  0  2  0  0  0  0  0  0
  161.6880  206.4280  151.3220 N   0  0  0  0  0  0  0  0  0  0  0  0
  160.3000  206.6080  150.9010 C   0  0  0  0  0  1  0  0  0  0  0  0
  161.9550  204.9990  151.4010 C   0  0  0  0  0  2  0  0  0  0  0  0
  160.6720  204.2240  151.1770 C   0  0  0  0  0  2  0  0  0  0  0  0
  160.8630  203.2580  150.1090 N   0  0  0  0  0  2  0  0  0  0  0  0
  161.4630  203.9480  149.0440 N   0  0  0  0  0  2  0  0  0  0  0  0
  160.3180  201.7720  145.6650 C   0  0  0  0  0  2  0  0  0  0  0  0
  161.3740  202.8640  145.5230 C   0  0  0  0  0  2  0  0  0  0  0  0
  160.4290  201.0630  147.0130 C   0  0  1  0  0  3  0  0  0  0  0  0
  162.4230  204.8500  146.5360 C   0  0  0  0  0  1  0  0  0  0  0  0
  161.6460  200.1550  147.0610 C   0  0  0  0  0  1  0  0  0  0  0  0
  161.5610  203.0470  147.9710 N   0  0  0  0  0  0  0  0  0  0  0  0
  160.4660  202.0870  148.1470 C   0  0  0  0  0  2  0  0  0  0  0  0
  161.3370  203.8030  146.7280 C   0  0  2  0  0  3  0  0  0  0  0  0
  162.4600  208.4540  148.7110 C   0  0  0  0  0  1  0  0  0  0  0  0
  161.8200  209.7090  149.2770 C   0  0  2  0  0  3  0  0  0  0  0  0
  162.1810  212.0640  149.1250 O   0  0  0  0  0  1  0  0  0  0  0  0
  162.1050  210.8930  148.3700 C   0  0  0  0  0  2  0  0  0  0  0  0
  1  6  1  0  0  0  0
  2  1  2  0  0  0  0
  3  5  1  0  0  0  0
  4  8  2  0  0  0  0
  5  9  1  1  0  0  0
  5  6  1  0  0  0  0
  7 22  1  6  0  0  0
  7  3  1  0  0  0  0
  7  2  1  0  0  0  0
  8  3  2  0  0  0  0
  9 10  2  0  0  0  0
 11  9  1  0  0  0  0
 12 11  1  0  0  0  0
 13 12  1  0  0  0  0
 14 13  1  0  0  0  0
 15 14  1  0  0  0  0
 16 15  1  0  0  0  0
 17 20  1  0  0  0  0
 18 20  1  0  0  0  0
 19 21  1  0  0  0  0
 19 17  1  0  0  0  0
 20 16  1  1  0  0  0
 21 18  1  0  0  0  0
 22 24  1  0  0  0  0
 23 22  1  0  0  0  0
 25 24  1  0  0  0  0
 26 25  1  0  0  0  0
 27 26  1  0  0  0  0
 28 30  1  0  0  0  0
 29 28  1  0  0  0  0
 29 35  1  0  0  0  0
 30 32  1  6  0  0  0
 30 34  1  0  0  0  0
 33 34  1  0  0  0  0
 33 27  1  0  0  0  0
 35 31  1  6  0  0  0
 35 33  1  0  0  0  0
 37 36  1  6  0  0  0
 37  4  1  0  0  0  0
 39 38  1  0  0  0  0
 39 37  1  0  0  0  0
M  END
>  <MODEL>
1

>  <REMARK>
 VINA RESULT:      -6.3      0.000      0.000
  Name = 
  15 active torsions:
  status: ('A' for Active; 'I' for Inactive)
    1  A    between atoms: C_2  and  C_22
    2  A    between atoms: C_2  and  C_27
    3  A    between atoms: C_7  and  C_25
    4  A    between atoms: C_12  and  N_16
    5  A    between atoms: C_12  and  C_28
    6  A    between atoms: C_13  and  C_21
    7  A    between atoms: N_16  and  C_38
    8  A    between atoms: N_19  and  N_30
    9  A    between atoms: N_19  and  N_35
   10  A    between atoms: N_20  and  C_31
   11  A    between atoms: C_21  and  C_22
   12  A    between atoms: C_24  and  C_26
   13  A    between atoms: C_26  and  C_36
   14  A    between atoms: C_27  and  C_31
   15  A    between atoms: C_28  and  N_35
                            x       y       z     vdW  Elec       q    Type
                         _______ _______ _______ _____ _____    ______ ____

>  <TORSDO>
F 15

$$$$
=
 OpenBabel11042421573D

 39 41  0  0  1  0  0  0  0  0999 V2000
  160.9010  206.6780  152.1790 C   0  0  0  0  0  3  0  0  0  0  0  0
  161.2100  206.6300  150.9280 N   0  0  0  0  0  0  0  0  0  0  0  0
  161.7180  209.0590  150.8760 C   0  0  0  0  0  0  0  0  0  0  0  0
  162.4760  211.2080  149.5950 C   0  0  0  0  0  3  0  0  0  0  0  0
  161.0180  209.1510  152.2160 C   0  0  1  0  0  3  0  0  0  0  0  0
  161.2500  207.8710  153.0180 C   0  0  0  0  0  2  0  0  0  0  0  0
  161.9180  207.7000  150.2300 C   0  0  2  0  0  3  0  0  0  0  0  0
  162.1010  210.1380  150.2380 C   0  0  0  0  0  0  0  0  0  0  0  0
  161.4220  210.3590  153.0240 C   0  0  0  0  0  0  0  0  0  0  0  0
  162.5630  210.4100  153.5560 O   0  0  0  0  0  0  0  0  0  0  0  0
  160.5480  211.4840  153.1390 N   0  0  0  0  0  2  0  0  0  0  0  0
  159.2470  211.5310  152.4900 C   0  0  0  0  0  2  0  0  0  0  0  0
  158.1480  211.4890  153.5350 C   0  0  0  0  0  2  0  0  0  0  0  0
  158.5390  212.3240  154.7430 C   0  0  0  0  0  2  0  0  0  0  0  0
  158.4470  211.4920  156.0140 C   0  0  0  0  0  2  0  0  0  0  0  0
  158.9900  210.0850  155.8020 C   0  0  0  0  0  2  0  0  0  0  0  0
  161.1230  210.8000  156.8270 C   0  0  0  0  0  2  0  0  0  0  0  0
  160.6670  208.5300  156.5130 O   0  0  0  0  0  0  0  0  0  0  0  0
  162.3810  210.0910  156.8220 N   0  0  0  0  0  2  0  0  0  0  0  0
  160.0530  209.7440  156.8350 C   0  0  2  0  0  3  0  0  0  0  0  0
  162.0050  208.6890  156.9080 C   0  0  0  0  0  2  0  0  0  0  0  0
  161.5750  207.7280  148.7970 N   0  0  0  0  0  0  0  0  0  0  0  0
  160.3050  207.0480  148.5540 C   0  0  0  0  0  1  0  0  0  0  0  0
  162.6140  207.0270  148.0560 C   0  0  0  0  0  2  0  0  0  0  0  0
  161.9800  206.0990  147.0390 C   0  0  0  0  0  2  0  0  0  0  0  0
  162.5430  204.7670  147.1740 N   0  0  0  0  0  2  0  0  0  0  0  0
  161.4710  203.8660  147.0850 N   0  0  0  0  0  2  0  0  0  0  0  0
  160.0290  201.7110  150.3620 C   0  0  0  0  0  2  0  0  0  0  0  0
  160.6990  200.9600  149.2150 C   0  0  0  0  0  2  0  0  0  0  0  0
  160.6780  203.0750  150.5870 C   0  0  1  0  0  3  0  0  0  0  0  0
  161.4530  201.0400  146.8720 C   0  0  0  0  0  1  0  0  0  0  0  0
  162.0490  202.9370  151.2270 C   0  0  0  0  0  1  0  0  0  0  0  0
  161.4950  203.0790  148.2490 N   0  0  0  0  0  0  0  0  0  0  0  0
  160.7660  203.8420  149.2670 C   0  0  0  0  0  2  0  0  0  0  0  0
  160.7580  201.8360  147.9650 C   0  0  2  0  0  3  0  0  0  0  0  0
  162.8260  212.2930  147.4240 C   0  0  0  0  0  1  0  0  0  0  0  0
  161.8300  211.5560  148.3020 C   0  0  2  0  0  3  0  0  0  0  0  0
  160.7790  213.6680  147.9320 O   0  0  0  0  0  1  0  0  0  0  0  0
  160.6190  212.4340  148.5630 C   0  0  0  0  0  2  0  0  0  0  0  0
  1  6  1  0  0  0  0
  2  1  2  0  0  0  0
  3  5  1  0  0  0  0
  4  8  2  0  0  0  0
  5  6  1  0  0  0  0
  5  9  1  1  0  0  0
  7 22  1  6  0  0  0
  7  3  1  0  0  0  0
  7  2  1  0  0  0  0
  8  3  2  0  0  0  0
  9 11  1  0  0  0  0
  9 10  2  0  0  0  0
 12 11  1  0  0  0  0
 12 13  1  0  0  0  0
 13 14  1  0  0  0  0
 14 15  1  0  0  0  0
 16 15  1  0  0  0  0
 17 20  1  0  0  0  0
 18 20  1  0  0  0  0
 18 21  1  0  0  0  0
 19 17  1  0  0  0  0
 19 21  1  0  0  0  0
 20 16  1  6  0  0  0
 23 22  1  0  0  0  0
 24 22  1  0  0  0  0
 25 26  1  0  0  0  0
 25 24  1  0  0  0  0
 27 26  1  0  0  0  0
 27 33  1  0  0  0  0
 28 30  1  0  0  0  0
 29 28  1  0  0  0  0
 30 32  1  6  0  0  0
 33 34  1  0  0  0  0
 34 30  1  0  0  0  0
 35 31  1  6  0  0  0
 35 33  1  0  0  0  0
 35 29  1  0  0  0  0
 37 36  1  6  0  0  0
 37 39  1  0  0  0  0
 37  4  1  0  0  0  0
 38 39  1  0  0  0  0
M  END
>  <MODEL>
2

>  <REMARK>
 VINA RESULT:      -6.3      2.093      4.967
  Name = 
  15 active torsions:
  status: ('A' for Active; 'I' for Inactive)
    1  A    between atoms: C_2  and  C_22
    2  A    between atoms: C_2  and  C_27
    3  A    between atoms: C_7  and  C_25
    4  A    between atoms: C_12  and  N_16
    5  A    between atoms: C_12  and  C_28
    6  A    between atoms: C_13  and  C_21
    7  A    between atoms: N_16  and  C_38
    8  A    between atoms: N_19  and  N_30
    9  A    between atoms: N_19  and  N_35
   10  A    between atoms: N_20  and  C_31
   11  A    between atoms: C_21  and  C_22
   12  A    between atoms: C_24  and  C_26
   13  A    between atoms: C_26  and  C_36
   14  A    between atoms: C_27  and  C_31
   15  A    between atoms: C_28  and  N_35
                            x       y       z     vdW  Elec       q    Type
                         _______ _______ _______ _____ _____    ______ ____

>  <TORSDO>
F 15

$$$$
=
 OpenBabel11042421573D

 39 41  0  0  1  0  0  0  0  0999 V2000
  160.9020  206.6850  152.3550 C   0  0  0  0  0  3  0  0  0  0  0  0
  161.2930  206.6660  151.1260 N   0  0  0  0  0  0  0  0  0  0  0  0
  161.6820  209.1180  151.1270 C   0  0  0  0  0  0  0  0  0  0  0  0
  162.4150  211.3150  149.9150 C   0  0  0  0  0  3  0  0  0  0  0  0
  160.8940  209.1610  152.4190 C   0  0  1  0  0  3  0  0  0  0  0  0
  161.1370  207.8850  153.2240 C   0  0  0  0  0  2  0  0  0  0  0  0
  161.9910  207.7780  150.4840 C   0  0  2  0  0  3  0  0  0  0  0  0
  162.0520  210.2210  150.5230 C   0  0  0  0  0  0  0  0  0  0  0  0
  161.1850  210.3780  153.2610 C   0  0  0  0  0  0  0  0  0  0  0  0
  162.2820  210.4760  153.8730 O   0  0  0  0  0  0  0  0  0  0  0  0
  160.2540  211.4610  153.3220 N   0  0  0  0  0  2  0  0  0  0  0  0
  159.0000  211.4550  152.5840 C   0  0  0  0  0  2  0  0  0  0  0  0
  158.9050  212.6980  151.7190 C   0  0  0  0  0  2  0  0  0  0  0  0
  157.6500  213.4820  152.0620 C   0  0  0  0  0  2  0  0  0  0  0  0
  157.7610  214.0770  153.4580 C   0  0  0  0  0  2  0  0  0  0  0  0
  156.3950  214.2030  154.1210 C   0  0  0  0  0  2  0  0  0  0  0  0
  157.5210  212.8790  155.8800 C   0  0  0  0  0  2  0  0  0  0  0  0
  155.7850  211.9420  154.6270 O   0  0  0  0  0  0  0  0  0  0  0  0
  157.6460  211.4430  155.9520 N   0  0  0  0  0  2  0  0  0  0  0  0
  156.2070  213.1460  155.1990 C   0  0  2  0  0  3  0  0  0  0  0  0
  156.3960  210.9430  155.4010 C   0  0  0  0  0  2  0  0  0  0  0  0
  161.7410  207.8050  149.0320 N   0  0  0  0  0  0  0  0  0  0  0  0
  160.4530  207.1900  148.7160 C   0  0  0  0  0  1  0  0  0  0  0  0
  162.7850  207.0400  148.3660 C   0  0  0  0  0  2  0  0  0  0  0  0
  162.1970  206.2940  147.1840 C   0  0  0  0  0  2  0  0  0  0  0  0
  162.5640  204.8910  147.2580 N   0  0  0  0  0  2  0  0  0  0  0  0
  161.3670  204.1610  147.2630 N   0  0  0  0  0  2  0  0  0  0  0  0
  160.0740  201.6170  150.3170 C   0  0  0  0  0  2  0  0  0  0  0  0
  160.7210  201.0160  149.0720 C   0  0  0  0  0  2  0  0  0  0  0  0
  160.7040  202.9610  150.6750 C   0  0  1  0  0  3  0  0  0  0  0  0
  161.3960  201.3780  146.7310 C   0  0  0  0  0  1  0  0  0  0  0  0
  162.0970  202.7830  151.2540 C   0  0  0  0  0  1  0  0  0  0  0  0
  161.4440  203.2480  148.3290 N   0  0  0  0  0  0  0  0  0  0  0  0
  160.7340  203.8740  149.4490 C   0  0  0  0  0  2  0  0  0  0  0  0
  160.7220  202.0290  147.9280 C   0  0  2  0  0  3  0  0  0  0  0  0
  162.9430  212.1230  147.6600 C   0  0  0  0  0  1  0  0  0  0  0  0
  161.8370  211.6470  148.5850 C   0  0  2  0  0  3  0  0  0  0  0  0
  160.0130  212.8220  147.5910 O   0  0  0  0  0  1  0  0  0  0  0  0
  160.7900  212.7330  148.7470 C   0  0  0  0  0  2  0  0  0  0  0  0
  1  6  1  0  0  0  0
  2  1  2  0  0  0  0
  3  5  1  0  0  0  0
  4  8  2  0  0  0  0
  5  6  1  0  0  0  0
  5  9  1  1  0  0  0
  7 22  1  6  0  0  0
  7  2  1  0  0  0  0
  7  3  1  0  0  0  0
  8  3  2  0  0  0  0
  9 11  1  0  0  0  0
  9 10  2  0  0  0  0
 12 11  1  0  0  0  0
 13 14  1  0  0  0  0
 13 12  1  0  0  0  0
 14 15  1  0  0  0  0
 15 16  1  0  0  0  0
 17 19  1  0  0  0  0
 18 20  1  0  0  0  0
 18 21  1  0  0  0  0
 20 16  1  6  0  0  0
 20 17  1  0  0  0  0
 21 19  1  0  0  0  0
 23 22  1  0  0  0  0
 24 22  1  0  0  0  0
 25 26  1  0  0  0  0
 25 24  1  0  0  0  0
 26 27  1  0  0  0  0
 27 33  1  0  0  0  0
 28 30  1  0  0  0  0
 29 28  1  0  0  0  0
 30 32  1  6  0  0  0
 33 34  1  0  0  0  0
 34 30  1  0  0  0  0
 35 31  1  6  0  0  0
 35 33  1  0  0  0  0
 35 29  1  0  0  0  0
 37 36  1  6  0  0  0
 37 39  1  0  0  0  0
 37  4  1  0  0  0  0
 38 39  1  0  0  0  0
M  END
>  <MODEL>
3

>  <REMARK>
 VINA RESULT:      -6.2      2.150      4.141
  Name = 
  15 active torsions:
  status: ('A' for Active; 'I' for Inactive)
    1  A    between atoms: C_2  and  C_22
    2  A    between atoms: C_2  and  C_27
    3  A    between atoms: C_7  and  C_25
    4  A    between atoms: C_12  and  N_16
    5  A    between atoms: C_12  and  C_28
    6  A    between atoms: C_13  and  C_21
    7  A    between atoms: N_16  and  C_38
    8  A    between atoms: N_19  and  N_30
    9  A    between atoms: N_19  and  N_35
   10  A    between atoms: N_20  and  C_31
   11  A    between atoms: C_21  and  C_22
   12  A    between atoms: C_24  and  C_26
   13  A    between atoms: C_26  and  C_36
   14  A    between atoms: C_27  and  C_31
   15  A    between atoms: C_28  and  N_35
                            x       y       z     vdW  Elec       q    Type
                         _______ _______ _______ _____ _____    ______ ____

>  <TORSDO>
F 15

$$$$
=
 OpenBabel11042421573D

 39 41  0  0  1  0  0  0  0  0999 V2000
  160.7220  206.9390  155.0100 C   0  0  0  0  0  3  0  0  0  0  0  0
  161.1600  206.3570  153.9460 N   0  0  0  0  0  0  0  0  0  0  0  0
  161.5630  208.5340  152.8230 C   0  0  0  0  0  0  0  0  0  0  0  0
  162.3540  209.9280  150.7580 C   0  0  0  0  0  3  0  0  0  0  0  0
  160.7260  209.1620  153.9190 C   0  0  1  0  0  3  0  0  0  0  0  0
  160.9310  208.4080  155.2320 C   0  0  0  0  0  2  0  0  0  0  0  0
  161.8880  207.0530  152.8870 C   0  0  2  0  0  3  0  0  0  0  0  0
  161.9620  209.2360  151.7900 C   0  0  0  0  0  0  0  0  0  0  0  0
  160.9910  210.6340  154.1090 C   0  0  0  0  0  0  0  0  0  0  0  0
  162.0130  211.0150  154.7410 O   0  0  0  0  0  0  0  0  0  0  0  0
  160.1300  211.6120  153.5220 N   0  0  0  0  0  2  0  0  0  0  0  0
  158.9740  211.2500  152.7160 C   0  0  0  0  0  2  0  0  0  0  0  0
  158.6240  212.3880  151.7760 C   0  0  0  0  0  2  0  0  0  0  0  0
  159.8330  213.2840  151.5640 C   0  0  0  0  0  2  0  0  0  0  0  0
  159.6180  214.1860  150.3570 C   0  0  0  0  0  2  0  0  0  0  0  0
  158.2150  214.0280  149.7840 C   0  0  0  0  0  2  0  0  0  0  0  0
  156.9980  213.3520  147.7410 C   0  0  0  0  0  2  0  0  0  0  0  0
  159.3330  213.2820  147.8000 O   0  0  0  0  0  0  0  0  0  0  0  0
  157.4420  212.4340  146.7180 N   0  0  0  0  0  2  0  0  0  0  0  0
  158.2400  214.0200  148.2630 C   0  0  2  0  0  3  0  0  0  0  0  0
  158.8760  212.6590  146.6290 C   0  0  0  0  0  2  0  0  0  0  0  0
  161.6940  206.4000  151.5810 N   0  0  0  0  0  0  0  0  0  0  0  0
  160.3210  206.5760  151.1110 C   0  0  0  0  0  1  0  0  0  0  0  0
  161.9420  204.9740  151.7320 C   0  0  0  0  0  2  0  0  0  0  0  0
  160.9130  204.1890  150.9410 C   0  0  0  0  0  2  0  0  0  0  0  0
  161.5370  203.6120  149.7630 N   0  0  0  0  0  2  0  0  0  0  0  0
  160.4970  203.1780  148.9280 N   0  0  0  0  0  2  0  0  0  0  0  0
  162.5290  204.8180  145.6660 C   0  0  0  0  0  2  0  0  0  0  0  0
  161.7890  203.4950  145.4920 C   0  0  0  0  0  2  0  0  0  0  0  0
  161.7950  205.7420  146.6350 C   0  0  1  0  0  3  0  0  0  0  0  0
  160.7390  201.5670  146.6100 C   0  0  0  0  0  1  0  0  0  0  0  0
  160.5340  206.3130  146.0080 C   0  0  0  0  0  1  0  0  0  0  0  0
  160.6910  203.7840  147.6760 N   0  0  0  0  0  0  0  0  0  0  0  0
  161.4730  204.9980  147.9320 C   0  0  0  0  0  2  0  0  0  0  0  0
  161.4940  202.8650  146.8520 C   0  0  2  0  0  3  0  0  0  0  0  0
  162.5510  208.3740  148.8710 C   0  0  0  0  0  1  0  0  0  0  0  0
  161.8290  209.5970  149.4060 C   0  0  2  0  0  3  0  0  0  0  0  0
  162.1080  211.9600  149.2160 O   0  0  0  0  0  1  0  0  0  0  0  0
  162.0470  210.7780  148.4770 C   0  0  0  0  0  2  0  0  0  0  0  0
  1  6  1  0  0  0  0
  2  1  2  0  0  0  0
  3  7  1  0  0  0  0
  3  5  1  0  0  0  0
  4  8  2  0  0  0  0
  5  9  1  1  0  0  0
  5  6  1  0  0  0  0
  7 22  1  6  0  0  0
  7  2  1  0  0  0  0
  8  3  2  0  0  0  0
  9 10  2  0  0  0  0
 11  9  1  0  0  0  0
 12 11  1  0  0  0  0
 13 12  1  0  0  0  0
 14 13  1  0  0  0  0
 15 14  1  0  0  0  0
 16 15  1  0  0  0  0
 17 20  1  0  0  0  0
 18 20  1  0  0  0  0
 19 17  1  0  0  0  0
 20 16  1  1  0  0  0
 21 19  1  0  0  0  0
 21 18  1  0  0  0  0
 22 24  1  0  0  0  0
 23 22  1  0  0  0  0
 25 24  1  0  0  0  0
 26 25  1  0  0  0  0
 27 26  1  0  0  0  0
 28 30  1  0  0  0  0
 29 28  1  0  0  0  0
 29 35  1  0  0  0  0
 30 32  1  6  0  0  0
 30 34  1  0  0  0  0
 33 34  1  0  0  0  0
 33 27  1  0  0  0  0
 35 31  1  6  0  0  0
 35 33  1  0  0  0  0
 37 36  1  6  0  0  0
 37  4  1  0  0  0  0
 39 38  1  0  0  0  0
 39 37  1  0  0  0  0
M  END
>  <MODEL>
4

>  <REMARK>
 VINA RESULT:      -6.2      0.705      1.676
  Name = 
  15 active torsions:
  status: ('A' for Active; 'I' for Inactive)
    1  A    between atoms: C_2  and  C_22
    2  A    between atoms: C_2  and  C_27
    3  A    between atoms: C_7  and  C_25
    4  A    between atoms: C_12  and  N_16
    5  A    between atoms: C_12  and  C_28
    6  A    between atoms: C_13  and  C_21
    7  A    between atoms: N_16  and  C_38
    8  A    between atoms: N_19  and  N_30
    9  A    between atoms: N_19  and  N_35
   10  A    between atoms: N_20  and  C_31
   11  A    between atoms: C_21  and  C_22
   12  A    between atoms: C_24  and  C_26
   13  A    between atoms: C_26  and  C_36
   14  A    between atoms: C_27  and  C_31
   15  A    between atoms: C_28  and  N_35
                            x       y       z     vdW  Elec       q    Type
                         _______ _______ _______ _____ _____    ______ ____

>  <TORSDO>
F 15

$$$$
=
 OpenBabel11042421573D

 39 41  0  0  1  0  0  0  0  0999 V2000
  160.6920  206.8540  154.7440 C   0  0  0  0  0  3  0  0  0  0  0  0
  161.0980  206.3590  153.6250 N   0  0  0  0  0  0  0  0  0  0  0  0
  161.5800  208.6150  152.7090 C   0  0  0  0  0  0  0  0  0  0  0  0
  162.4110  210.1660  150.7760 C   0  0  0  0  0  3  0  0  0  0  0  0
  160.7780  209.1680  153.8680 C   0  0  1  0  0  3  0  0  0  0  0  0
  160.9620  208.2850  155.1020 C   0  0  0  0  0  2  0  0  0  0  0  0
  161.8460  207.1230  152.6280 C   0  0  2  0  0  3  0  0  0  0  0  0
  161.9990  209.3960  151.7430 C   0  0  0  0  0  0  0  0  0  0  0  0
  161.1040  210.6040  154.1950 C   0  0  0  0  0  0  0  0  0  0  0  0
  162.1390  210.8810  154.8580 O   0  0  0  0  0  0  0  0  0  0  0  0
  160.2860  211.6670  153.7020 N   0  0  0  0  0  2  0  0  0  0  0  0
  159.1190  211.4310  152.8670 C   0  0  0  0  0  2  0  0  0  0  0  0
  158.9920  212.5340  151.8340 C   0  0  0  0  0  2  0  0  0  0  0  0
  158.4660  213.8030  152.4820 C   0  0  0  0  0  2  0  0  0  0  0  0
  157.0240  213.6110  152.9300 C   0  0  0  0  0  2  0  0  0  0  0  0
  156.7440  214.3390  154.2390 C   0  0  0  0  0  2  0  0  0  0  0  0
  157.7550  212.9310  156.0030 C   0  0  0  0  0  2  0  0  0  0  0  0
  155.8500  212.2050  154.8610 O   0  0  0  0  0  0  0  0  0  0  0  0
  157.6820  211.4950  156.1290 N   0  0  0  0  0  2  0  0  0  0  0  0
  156.4610  213.3570  155.3660 C   0  0  2  0  0  3  0  0  0  0  0  0
  156.3510  211.1570  155.6500 C   0  0  0  0  0  2  0  0  0  0  0  0
  161.6150  206.6050  151.2680 N   0  0  0  0  0  0  0  0  0  0  0  0
  160.2060  206.7260  150.8990 C   0  0  0  0  0  1  0  0  0  0  0  0
  161.9720  205.1940  151.2400 C   0  0  0  0  0  2  0  0  0  0  0  0
  160.7180  204.3520  151.1050 C   0  0  0  0  0  2  0  0  0  0  0  0
  160.9060  203.3590  150.0620 N   0  0  0  0  0  2  0  0  0  0  0  0
  161.4460  204.0320  148.9570 N   0  0  0  0  0  2  0  0  0  0  0  0
  160.3400  201.7370  145.6440 C   0  0  0  0  0  2  0  0  0  0  0  0
  161.3940  202.8280  145.4740 C   0  0  0  0  0  2  0  0  0  0  0  0
  160.4420  201.0750  147.0160 C   0  0  1  0  0  3  0  0  0  0  0  0
  162.4250  204.8520  146.4270 C   0  0  0  0  0  1  0  0  0  0  0  0
  161.6620  200.1740  147.1060 C   0  0  0  0  0  1  0  0  0  0  0  0
  161.5570  203.0950  147.9160 N   0  0  0  0  0  0  0  0  0  0  0  0
  160.4640  202.1380  148.1150 C   0  0  0  0  0  2  0  0  0  0  0  0
  161.3410  203.8080  146.6460 C   0  0  2  0  0  3  0  0  0  0  0  0
  162.3830  208.6860  148.8210 C   0  0  0  0  0  1  0  0  0  0  0  0
  161.8630  209.9870  149.4050 C   0  0  2  0  0  3  0  0  0  0  0  0
  161.1750  211.9210  148.1860 O   0  0  0  0  0  1  0  0  0  0  0  0
  162.2890  211.1550  148.5340 C   0  0  0  0  0  2  0  0  0  0  0  0
  1  6  1  0  0  0  0
  2  1  2  0  0  0  0
  3  5  1  0  0  0  0
  4  8  2  0  0  0  0
  5  9  1  1  0  0  0
  5  6  1  0  0  0  0
  7 22  1  6  0  0  0
  7  3  1  0  0  0  0
  7  2  1  0  0  0  0
  8  3  2  0  0  0  0
  9 10  2  0  0  0  0
 11  9  1  0  0  0  0
 12 11  1  0  0  0  0
 13 14  1  0  0  0  0
 13 12  1  0  0  0  0
 14 15  1  0  0  0  0
 15 16  1  0  0  0  0
 17 19  1  0  0  0  0
 18 20  1  0  0  0  0
 18 21  1  0  0  0  0
 20 16  1  6  0  0  0
 20 17  1  0  0  0  0
 21 19  1  0  0  0  0
 23 22  1  0  0  0  0
 24 22  1  0  0  0  0
 25 24  1  0  0  0  0
 26 25  1  0  0  0  0
 27 26  1  0  0  0  0
 28 30  1  0  0  0  0
 29 28  1  0  0  0  0
 29 35  1  0  0  0  0
 30 32  1  6  0  0  0
 30 34  1  0  0  0  0
 33 34  1  0  0  0  0
 33 27  1  0  0  0  0
 35 31  1  6  0  0  0
 35 33  1  0  0  0  0
 37 36  1  6  0  0  0
 37  4  1  0  0  0  0
 38 39  1  0  0  0  0
 39 37  1  0  0  0  0
M  END
>  <MODEL>
5

>  <REMARK>
 VINA RESULT:      -6.0      1.963      3.399
  Name = 
  15 active torsions:
  status: ('A' for Active; 'I' for Inactive)
    1  A    between atoms: C_2  and  C_22
    2  A    between atoms: C_2  and  C_27
    3  A    between atoms: C_7  and  C_25
    4  A    between atoms: C_12  and  N_16
    5  A    between atoms: C_12  and  C_28
    6  A    between atoms: C_13  and  C_21
    7  A    between atoms: N_16  and  C_38
    8  A    between atoms: N_19  and  N_30
    9  A    between atoms: N_19  and  N_35
   10  A    between atoms: N_20  and  C_31
   11  A    between atoms: C_21  and  C_22
   12  A    between atoms: C_24  and  C_26
   13  A    between atoms: C_26  and  C_36
   14  A    between atoms: C_27  and  C_31
   15  A    between atoms: C_28  and  N_35
                            x       y       z     vdW  Elec       q    Type
                         _______ _______ _______ _____ _____    ______ ____

>  <TORSDO>
F 15

$$$$
=
 OpenBabel11042421573D

 39 41  0  0  1  0  0  0  0  0999 V2000
  161.2150  210.5310  151.6910 C   0  0  0  0  0  3  0  0  0  0  0  0
  160.4300  211.5540  151.6550 N   0  0  0  0  0  0  0  0  0  0  0  0
  160.3550  211.6880  154.1320 C   0  0  0  0  0  0  0  0  0  0  0  0
  159.5100  212.8130  156.3350 C   0  0  0  0  0  3  0  0  0  0  0  0
  160.9670  210.3020  154.1440 C   0  0  1  0  0  3  0  0  0  0  0  0
  161.9160  210.1370  152.9570 C   0  0  0  0  0  2  0  0  0  0  0  0
  160.1620  212.4080  152.8100 C   0  0  2  0  0  3  0  0  0  0  0  0
  159.9360  212.2510  155.2390 C   0  0  0  0  0  0  0  0  0  0  0  0
  161.6730  209.9680  155.4340 C   0  0  0  0  0  0  0  0  0  0  0  0
  162.7360  210.5690  155.7460 O   0  0  0  0  0  0  0  0  0  0  0  0
  161.1160  209.0190  156.3460 N   0  0  0  0  0  2  0  0  0  0  0  0
  159.8550  208.3390  156.0910 C   0  0  0  0  0  2  0  0  0  0  0  0
  160.1200  206.9420  155.5630 C   0  0  0  0  0  2  0  0  0  0  0  0
  161.3790  206.9310  154.7130 C   0  0  0  0  0  2  0  0  0  0  0  0
  161.2000  206.0130  153.5130 C   0  0  0  0  0  2  0  0  0  0  0  0
  162.0370  206.4740  152.3270 C   0  0  0  0  0  2  0  0  0  0  0  0
  160.8430  205.3570  150.4720 C   0  0  0  0  0  2  0  0  0  0  0  0
  161.8720  207.4280  150.1350 O   0  0  0  0  0  0  0  0  0  0  0  0
  161.0820  205.5090  149.0560 N   0  0  0  0  0  2  0  0  0  0  0  0
  161.1730  206.6860  151.0930 C   0  0  2  0  0  3  0  0  0  0  0  0
  161.4510  206.9070  148.9010 C   0  0  0  0  0  2  0  0  0  0  0  0
  158.8300  213.0300  152.7230 N   0  0  0  0  0  0  0  0  0  0  0  0
  157.8150  212.0370  152.3780 C   0  0  0  0  0  1  0  0  0  0  0  0
  158.8540  214.0370  151.6730 C   0  0  0  0  0  2  0  0  0  0  0  0
  157.7090  213.7990  150.7080 C   0  0  0  0  0  2  0  0  0  0  0  0
  158.1430  214.0870  149.3520 N   0  0  0  0  0  2  0  0  0  0  0  0
  159.4980  213.7330  149.2790 N   0  0  0  0  0  2  0  0  0  0  0  0
  160.7460  213.8790  145.2930 C   0  0  0  0  0  2  0  0  0  0  0  0
  161.5100  213.0000  146.2800 C   0  0  0  0  0  2  0  0  0  0  0  0
  159.2540  213.9060  145.6140 C   0  0  1  0  0  3  0  0  0  0  0  0
  161.9610  212.4820  148.6450 C   0  0  0  0  0  1  0  0  0  0  0  0
  158.5850  212.5910  145.2520 C   0  0  0  0  0  1  0  0  0  0  0  0
  159.7410  213.2980  147.9650 N   0  0  0  0  0  0  0  0  0  0  0  0
  159.0370  214.2410  147.0910 C   0  0  0  0  0  2  0  0  0  0  0  0
  161.1890  213.4060  147.7170 C   0  0  2  0  0  3  0  0  0  0  0  0
  157.2700  211.8410  156.1090 C   0  0  0  0  0  1  0  0  0  0  0  0
  158.0580  213.0750  156.5140 C   0  0  2  0  0  3  0  0  0  0  0  0
  156.3680  214.0530  155.1400 O   0  0  0  0  0  1  0  0  0  0  0  0
  157.6480  214.2580  155.6560 C   0  0  0  0  0  2  0  0  0  0  0  0
  1  6  1  0  0  0  0
  2  1  2  0  0  0  0
  2  7  1  0  0  0  0
  3  5  1  0  0  0  0
  3  8  2  0  0  0  0
  4 37  1  0  0  0  0
  5  9  1  1  0  0  0
  6  5  1  0  0  0  0
  7 22  1  6  0  0  0
  7  3  1  0  0  0  0
  8  4  2  0  0  0  0
  9 10  2  0  0  0  0
  9 11  1  0  0  0  0
 12 11  1  0  0  0  0
 13 12  1  0  0  0  0
 14 13  1  0  0  0  0
 15 14  1  0  0  0  0
 16 15  1  0  0  0  0
 17 20  1  0  0  0  0
 18 20  1  0  0  0  0
 19 17  1  0  0  0  0
 20 16  1  1  0  0  0
 21 19  1  0  0  0  0
 21 18  1  0  0  0  0
 23 22  1  0  0  0  0
 24 22  1  0  0  0  0
 25 24  1  0  0  0  0
 26 25  1  0  0  0  0
 27 26  1  0  0  0  0
 28 30  1  0  0  0  0
 28 29  1  0  0  0  0
 29 35  1  0  0  0  0
 30 32  1  1  0  0  0
 30 34  1  0  0  0  0
 33 27  1  0  0  0  0
 34 33  1  0  0  0  0
 35 33  1  0  0  0  0
 35 31  1  1  0  0  0
 37 36  1  6  0  0  0
 38 39  1  0  0  0  0
 39 37  1  0  0  0  0
M  END
>  <MODEL>
6

>  <REMARK>
 VINA RESULT:      -5.5      2.948      8.219
  Name = 
  15 active torsions:
  status: ('A' for Active; 'I' for Inactive)
    1  A    between atoms: C_2  and  C_22
    2  A    between atoms: C_2  and  C_27
    3  A    between atoms: C_7  and  C_25
    4  A    between atoms: C_12  and  N_16
    5  A    between atoms: C_12  and  C_28
    6  A    between atoms: C_13  and  C_21
    7  A    between atoms: N_16  and  C_38
    8  A    between atoms: N_19  and  N_30
    9  A    between atoms: N_19  and  N_35
   10  A    between atoms: N_20  and  C_31
   11  A    between atoms: C_21  and  C_22
   12  A    between atoms: C_24  and  C_26
   13  A    between atoms: C_26  and  C_36
   14  A    between atoms: C_27  and  C_31
   15  A    between atoms: C_28  and  N_35
                            x       y       z     vdW  Elec       q    Type
                         _______ _______ _______ _____ _____    ______ ____

>  <TORSDO>
F 15

$$$$
=
 OpenBabel11042421573D

 39 41  0  0  1  0  0  0  0  0999 V2000
  160.0980  207.3300  155.8130 C   0  0  0  0  0  3  0  0  0  0  0  0
  160.4580  206.5600  154.8440 N   0  0  0  0  0  0  0  0  0  0  0  0
  161.2560  208.4880  153.5000 C   0  0  0  0  0  0  0  0  0  0  0  0
  162.3280  209.4730  151.3290 C   0  0  0  0  0  3  0  0  0  0  0  0
  160.5110  209.3730  154.4770 C   0  0  1  0  0  3  0  0  0  0  0  0
  160.5480  208.7590  155.8760 C   0  0  0  0  0  2  0  0  0  0  0  0
  161.3220  206.9920  153.7480 C   0  0  2  0  0  3  0  0  0  0  0  0
  161.7970  208.9850  152.4140 C   0  0  0  0  0  0  0  0  0  0  0  0
  161.0170  210.7930  154.5110 C   0  0  0  0  0  0  0  0  0  0  0  0
  162.0230  211.0880  155.2120 O   0  0  0  0  0  0  0  0  0  0  0  0
  160.4120  211.8030  153.7020 N   0  0  0  0  0  2  0  0  0  0  0  0
  159.2960  211.5240  152.8100 C   0  0  0  0  0  2  0  0  0  0  0  0
  159.0670  212.7050  151.8870 C   0  0  0  0  0  2  0  0  0  0  0  0
  157.6910  213.3020  152.1300 C   0  0  0  0  0  2  0  0  0  0  0  0
  157.7800  214.4510  153.1230 C   0  0  0  0  0  2  0  0  0  0  0  0
  156.8120  214.2620  154.2850 C   0  0  0  0  0  2  0  0  0  0  0  0
  155.5880  212.4810  155.4850 C   0  0  0  0  0  2  0  0  0  0  0  0
  157.8750  212.7900  155.8480 O   0  0  0  0  0  0  0  0  0  0  0  0
  155.9170  211.8970  156.7640 N   0  0  0  0  0  2  0  0  0  0  0  0
  156.8990  212.8520  154.8490 C   0  0  2  0  0  3  0  0  0  0  0  0
  157.3710  211.8760  156.7860 C   0  0  0  0  0  2  0  0  0  0  0  0
  161.0540  206.2290  152.5160 N   0  0  0  0  0  0  0  0  0  0  0  0
  160.0530  205.1910  152.7560 C   0  0  0  0  0  1  0  0  0  0  0  0
  162.2870  205.5810  152.0920 C   0  0  0  0  0  2  0  0  0  0  0  0
  161.9610  204.3580  151.2570 C   0  0  0  0  0  2  0  0  0  0  0  0
  161.5440  204.7700  149.9280 N   0  0  0  0  0  2  0  0  0  0  0  0
  161.1930  203.6020  149.2350 N   0  0  0  0  0  2  0  0  0  0  0  0
  162.1030  204.4130  145.2380 C   0  0  0  0  0  2  0  0  0  0  0  0
  161.2670  203.1810  145.5750 C   0  0  0  0  0  2  0  0  0  0  0  0
  161.7960  205.5690  146.1870 C   0  0  1  0  0  3  0  0  0  0  0  0
  160.5410  201.6100  147.3290 C   0  0  0  0  0  1  0  0  0  0  0  0
  160.4350  206.1780  145.8970 C   0  0  0  0  0  1  0  0  0  0  0  0
  160.9910  203.9630  147.8920 N   0  0  0  0  0  0  0  0  0  0  0  0
  161.8850  205.0970  147.6390 C   0  0  0  0  0  2  0  0  0  0  0  0
  161.4110  202.8270  147.0550 C   0  0  2  0  0  3  0  0  0  0  0  0
  162.5300  207.8440  149.5070 C   0  0  0  0  0  1  0  0  0  0  0  0
  161.7910  209.0750  150.0010 C   0  0  2  0  0  3  0  0  0  0  0  0
  161.7170  211.4350  149.6530 O   0  0  0  0  0  1  0  0  0  0  0  0
  161.9720  210.2190  149.0190 C   0  0  0  0  0  2  0  0  0  0  0  0
  1  6  1  0  0  0  0
  2  1  2  0  0  0  0
  3  7  1  0  0  0  0
  3  5  1  0  0  0  0
  4  8  2  0  0  0  0
  5  9  1  1  0  0  0
  5  6  1  0  0  0  0
  7 22  1  6  0  0  0
  7  2  1  0  0  0  0
  8  3  2  0  0  0  0
  9 10  2  0  0  0  0
 11  9  1  0  0  0  0
 12 11  1  0  0  0  0
 13 14  1  0  0  0  0
 13 12  1  0  0  0  0
 14 15  1  0  0  0  0
 15 16  1  0  0  0  0
 17 19  1  0  0  0  0
 18 21  1  0  0  0  0
 19 21  1  0  0  0  0
 20 16  1  1  0  0  0
 20 17  1  0  0  0  0
 20 18  1  0  0  0  0
 22 23  1  0  0  0  0
 24 22  1  0  0  0  0
 25 24  1  0  0  0  0
 26 25  1  0  0  0  0
 27 26  1  0  0  0  0
 28 29  1  0  0  0  0
 28 30  1  0  0  0  0
 29 35  1  0  0  0  0
 30 32  1  6  0  0  0
 30 34  1  0  0  0  0
 33 27  1  0  0  0  0
 34 33  1  0  0  0  0
 35 31  1  1  0  0  0
 35 33  1  0  0  0  0
 37 36  1  6  0  0  0
 37  4  1  0  0  0  0
 39 38  1  0  0  0  0
 39 37  1  0  0  0  0
M  END
>  <MODEL>
7

>  <REMARK>
 VINA RESULT:      -5.4      2.216      3.915
  Name = 
  15 active torsions:
  status: ('A' for Active; 'I' for Inactive)
    1  A    between atoms: C_2  and  C_22
    2  A    between atoms: C_2  and  C_27
    3  A    between atoms: C_7  and  C_25
    4  A    between atoms: C_12  and  N_16
    5  A    between atoms: C_12  and  C_28
    6  A    between atoms: C_13  and  C_21
    7  A    between atoms: N_16  and  C_38
    8  A    between atoms: N_19  and  N_30
    9  A    between atoms: N_19  and  N_35
   10  A    between atoms: N_20  and  C_31
   11  A    between atoms: C_21  and  C_22
   12  A    between atoms: C_24  and  C_26
   13  A    between atoms: C_26  and  C_36
   14  A    between atoms: C_27  and  C_31
   15  A    between atoms: C_28  and  N_35
                            x       y       z     vdW  Elec       q    Type
                         _______ _______ _______ _____ _____    ______ ____

>  <TORSDO>
F 15

$$$$
=
 OpenBabel11042421573D

 39 41  0  0  1  0  0  0  0  0999 V2000
  161.4140  206.9760  149.0190 C   0  0  0  0  0  3  0  0  0  0  0  0
  161.6660  208.0880  149.6220 N   0  0  0  0  0  0  0  0  0  0  0  0
  161.5020  207.0090  151.8520 C   0  0  0  0  0  0  0  0  0  0  0  0
  161.5970  207.1310  154.4610 C   0  0  0  0  0  3  0  0  0  0  0  0
  160.8670  205.8300  151.1440 C   0  0  1  0  0  3  0  0  0  0  0  0
  161.4700  205.6680  149.7490 C   0  0  0  0  0  2  0  0  0  0  0  0
  162.0280  208.1760  151.0350 C   0  0  2  0  0  3  0  0  0  0  0  0
  161.5520  207.0660  153.1600 C   0  0  0  0  0  0  0  0  0  0  0  0
  160.9700  204.5390  151.9160 C   0  0  0  0  0  0  0  0  0  0  0  0
  161.2070  204.5600  153.1540 O   0  0  0  0  0  0  0  0  0  0  0  0
  160.7340  203.2840  151.2740 N   0  0  0  0  0  2  0  0  0  0  0  0
  160.3810  203.1820  149.8660 C   0  0  0  0  0  2  0  0  0  0  0  0
  160.2180  201.7250  149.4800 C   0  0  0  0  0  2  0  0  0  0  0  0
  160.9920  201.4280  148.2070 C   0  0  0  0  0  2  0  0  0  0  0  0
  161.2070  202.7050  147.4070 C   0  0  0  0  0  2  0  0  0  0  0  0
  160.8850  202.5020  145.9320 C   0  0  0  0  0  2  0  0  0  0  0  0
  162.4010  204.4550  145.9170 C   0  0  0  0  0  2  0  0  0  0  0  0
  160.4570  204.4610  144.6210 O   0  0  0  0  0  0  0  0  0  0  0  0
  162.0600  205.8290  145.6350 N   0  0  0  0  0  2  0  0  0  0  0  0
  161.4730  203.6180  145.0820 C   0  0  2  0  0  3  0  0  0  0  0  0
  161.0310  205.7420  144.6110 C   0  0  0  0  0  2  0  0  0  0  0  0
  161.6230  209.4680  151.6160 N   0  0  0  0  0  0  0  0  0  0  0  0
  162.6320  209.9530  152.5550 C   0  0  0  0  0  1  0  0  0  0  0  0
  160.3770  209.2810  152.3450 C   0  0  0  0  0  2  0  0  0  0  0  0
  159.6680  210.6120  152.4940 C   0  0  0  0  0  2  0  0  0  0  0  0
  159.8570  211.1190  153.8420 N   0  0  0  0  0  2  0  0  0  0  0  0
  159.3460  212.4250  153.8570 N   0  0  0  0  0  2  0  0  0  0  0  0
  155.5530  213.2060  155.4290 C   0  0  0  0  0  2  0  0  0  0  0  0
  155.8600  213.6120  153.9900 C   0  0  0  0  0  2  0  0  0  0  0  0
  156.2710  211.9110  155.8060 C   0  0  1  0  0  3  0  0  0  0  0  0
  157.6050  214.0310  152.3030 C   0  0  0  0  0  1  0  0  0  0  0  0
  155.6330  210.7090  155.1300 C   0  0  0  0  0  1  0  0  0  0  0  0
  157.9570  212.3240  154.0390 N   0  0  0  0  0  0  0  0  0  0  0  0
  157.7560  212.0100  155.4570 C   0  0  0  0  0  2  0  0  0  0  0  0
  157.3690  213.6430  153.7540 C   0  0  2  0  0  3  0  0  0  0  0  0
  161.7450  208.9460  156.1040 C   0  0  0  0  0  1  0  0  0  0  0  0
  160.8210  208.1800  155.1750 C   0  0  2  0  0  3  0  0  0  0  0  0
  160.2220  206.9520  157.1330 O   0  0  0  0  0  1  0  0  0  0  0  0
  159.7050  207.5280  155.9710 C   0  0  0  0  0  2  0  0  0  0  0  0
  1  2  2  0  0  0  0
  1  6  1  0  0  0  0
  2  7  1  0  0  0  0
  3  8  2  0  0  0  0
  4 37  1  0  0  0  0
  5  3  1  0  0  0  0
  5  9  1  1  0  0  0
  6  5  1  0  0  0  0
  7 22  1  1  0  0  0
  7  3  1  0  0  0  0
  8  4  2  0  0  0  0
  9 10  2  0  0  0  0
 11  9  1  0  0  0  0
 12 11  1  0  0  0  0
 13 12  1  0  0  0  0
 14 13  1  0  0  0  0
 15 14  1  0  0  0  0
 16 15  1  0  0  0  0
 18 20  1  0  0  0  0
 19 17  1  0  0  0  0
 20 17  1  0  0  0  0
 20 16  1  1  0  0  0
 21 18  1  0  0  0  0
 21 19  1  0  0  0  0
 22 24  1  0  0  0  0
 22 23  1  0  0  0  0
 24 25  1  0  0  0  0
 25 26  1  0  0  0  0
 26 27  1  0  0  0  0
 27 33  1  0  0  0  0
 28 30  1  0  0  0  0
 29 28  1  0  0  0  0
 30 32  1  6  0  0  0
 33 34  1  0  0  0  0
 34 30  1  0  0  0  0
 35 31  1  6  0  0  0
 35 29  1  0  0  0  0
 35 33  1  0  0  0  0
 37 39  1  0  0  0  0
 37 36  1  1  0  0  0
 39 38  1  0  0  0  0
M  END
>  <MODEL>
8

>  <REMARK>
 VINA RESULT:      -5.2      3.340      9.317
  Name = 
  15 active torsions:
  status: ('A' for Active; 'I' for Inactive)
    1  A    between atoms: C_2  and  C_22
    2  A    between atoms: C_2  and  C_27
    3  A    between atoms: C_7  and  C_25
    4  A    between atoms: C_12  and  N_16
    5  A    between atoms: C_12  and  C_28
    6  A    between atoms: C_13  and  C_21
    7  A    between atoms: N_16  and  C_38
    8  A    between atoms: N_19  and  N_30
    9  A    between atoms: N_19  and  N_35
   10  A    between atoms: N_20  and  C_31
   11  A    between atoms: C_21  and  C_22
   12  A    between atoms: C_24  and  C_26
   13  A    between atoms: C_26  and  C_36
   14  A    between atoms: C_27  and  C_31
   15  A    between atoms: C_28  and  N_35
                            x       y       z     vdW  Elec       q    Type
                         _______ _______ _______ _____ _____    ______ ____

>  <TORSDO>
F 15

$$$$
=
 OpenBabel11042421573D

 39 41  0  0  1  0  0  0  0  0999 V2000
  162.0430  207.5740  148.6950 C   0  0  0  0  0  3  0  0  0  0  0  0
  161.6640  206.6580  149.5210 N   0  0  0  0  0  0  0  0  0  0  0  0
  161.2330  208.3300  151.3040 C   0  0  0  0  0  0  0  0  0  0  0  0
  160.4750  208.9380  153.7310 C   0  0  0  0  0  3  0  0  0  0  0  0
  162.0070  209.3160  150.4540 C   0  0  1  0  0  3  0  0  0  0  0  0
  161.7790  209.0240  148.9720 C   0  0  0  0  0  2  0  0  0  0  0  0
  160.9540  206.9380  150.7670 C   0  0  2  0  0  3  0  0  0  0  0  0
  160.8500  208.6390  152.5190 C   0  0  0  0  0  0  0  0  0  0  0  0
  161.6880  210.7570  150.7630 C   0  0  0  0  0  0  0  0  0  0  0  0
  161.3950  211.1010  151.9400 O   0  0  0  0  0  0  0  0  0  0  0  0
  161.7780  211.7580  149.7470 N   0  0  0  0  0  2  0  0  0  0  0  0
  162.1830  211.4520  148.3830 C   0  0  0  0  0  2  0  0  0  0  0  0
  163.2410  212.4370  147.9260 C   0  0  0  0  0  2  0  0  0  0  0  0
  162.5950  213.7460  147.5080 C   0  0  0  0  0  2  0  0  0  0  0  0
  161.8950  213.5870  146.1660 C   0  0  0  0  0  2  0  0  0  0  0  0
  160.4640  214.1090  146.2170 C   0  0  0  0  0  2  0  0  0  0  0  0
  158.6490  212.5860  145.5130 C   0  0  0  0  0  2  0  0  0  0  0  0
  158.6370  213.5240  147.6530 O   0  0  0  0  0  0  0  0  0  0  0  0
  157.2920  212.5490  146.0070 N   0  0  0  0  0  2  0  0  0  0  0  0
  159.4990  213.0240  146.6720 C   0  0  2  0  0  3  0  0  0  0  0  0
  157.4130  212.8780  147.4180 C   0  0  0  0  0  2  0  0  0  0  0  0
  161.2180  205.9040  151.7820 N   0  0  0  0  0  0  0  0  0  0  0  0
  162.6530  205.6570  151.9110 C   0  0  0  0  0  1  0  0  0  0  0  0
  160.5800  204.6650  151.3610 C   0  0  0  0  0  2  0  0  0  0  0  0
  161.5440  203.8540  150.5170 C   0  0  0  0  0  2  0  0  0  0  0  0
  160.8170  203.1810  149.4550 N   0  0  0  0  0  2  0  0  0  0  0  0
  161.7320  202.9660  148.4140 N   0  0  0  0  0  2  0  0  0  0  0  0
  161.5880  204.4530  144.5110 C   0  0  0  0  0  2  0  0  0  0  0  0
  160.7090  203.2620  144.8860 C   0  0  0  0  0  2  0  0  0  0  0  0
  161.7360  205.4240  145.6790 C   0  0  1  0  0  3  0  0  0  0  0  0
  160.2830  201.4560  146.5050 C   0  0  0  0  0  1  0  0  0  0  0  0
  160.4540  206.2040  145.9160 C   0  0  0  0  0  1  0  0  0  0  0  0
  161.2150  203.6000  147.2710 N   0  0  0  0  0  0  0  0  0  0  0  0
  162.1600  204.6720  146.9410 C   0  0  0  0  0  2  0  0  0  0  0  0
  161.2100  202.6150  146.1760 C   0  0  2  0  0  3  0  0  0  0  0  0
  160.2330  206.9660  155.1680 C   0  0  0  0  0  1  0  0  0  0  0  0
  161.0600  208.2080  154.8860 C   0  0  2  0  0  3  0  0  0  0  0  0
  161.9540  208.6160  157.0620 O   0  0  0  0  0  1  0  0  0  0  0  0
  161.0690  209.1140  156.1040 C   0  0  0  0  0  2  0  0  0  0  0  0
  1  6  1  0  0  0  0
  1  2  2  0  0  0  0
  2  7  1  0  0  0  0
  3  8  2  0  0  0  0
  4 37  1  0  0  0  0
  5  9  1  6  0  0  0
  5  3  1  0  0  0  0
  6  5  1  0  0  0  0
  7  3  1  0  0  0  0
  7 22  1  1  0  0  0
  8  4  2  0  0  0  0
  9 10  2  0  0  0  0
 11  9  1  0  0  0  0
 12 11  1  0  0  0  0
 13 12  1  0  0  0  0
 14 13  1  0  0  0  0
 15 16  1  0  0  0  0
 15 14  1  0  0  0  0
 17 19  1  0  0  0  0
 17 20  1  0  0  0  0
 19 21  1  0  0  0  0
 20 16  1  6  0  0  0
 20 18  1  0  0  0  0
 21 18  1  0  0  0  0
 22 23  1  0  0  0  0
 24 22  1  0  0  0  0
 25 24  1  0  0  0  0
 26 25  1  0  0  0  0
 27 26  1  0  0  0  0
 28 29  1  0  0  0  0
 28 30  1  0  0  0  0
 29 35  1  0  0  0  0
 30 32  1  1  0  0  0
 30 34  1  0  0  0  0
 33 27  1  0  0  0  0
 34 33  1  0  0  0  0
 35 31  1  1  0  0  0
 35 33  1  0  0  0  0
 37 36  1  1  0  0  0
 37 39  1  0  0  0  0
 39 38  1  0  0  0  0
M  END
>  <MODEL>
9

>  <REMARK>
 VINA RESULT:      -5.2      1.744      4.082
  Name = 
  15 active torsions:
  status: ('A' for Active; 'I' for Inactive)
    1  A    between atoms: C_2  and  C_22
    2  A    between atoms: C_2  and  C_27
    3  A    between atoms: C_7  and  C_25
    4  A    between atoms: C_12  and  N_16
    5  A    between atoms: C_12  and  C_28
    6  A    between atoms: C_13  and  C_21
    7  A    between atoms: N_16  and  C_38
    8  A    between atoms: N_19  and  N_30
    9  A    between atoms: N_19  and  N_35
   10  A    between atoms: N_20  and  C_31
   11  A    between atoms: C_21  and  C_22
   12  A    between atoms: C_24  and  C_26
   13  A    between atoms: C_26  and  C_36
   14  A    between atoms: C_27  and  C_31
   15  A    between atoms: C_28  and  N_35
                            x       y       z     vdW  Elec       q    Type
                         _______ _______ _______ _____ _____    ______ ____

>  <TORSDO>
F 15

$$$$
