=
 OpenBabel11042422513D

 29 32  0  0  1  0  0  0  0  0999 V2000
  161.0180  208.6530  151.6470 C   0  0  0  0  0  3  0  0  0  0  0  0
  161.0520  207.5480  150.7960 C   0  0  0  0  0  0  0  0  0  0  0  0
  161.0510  206.0310  148.9610 C   0  0  0  0  0  2  0  0  0  0  0  0
  160.9840  207.1170  153.5350 C   0  0  0  0  0  3  0  0  0  0  0  0
  161.0490  205.3220  150.2390 N   0  0  0  0  0  0  0  0  0  0  0  0
  161.0060  206.0210  152.6590 C   0  0  0  0  0  3  0  0  0  0  0  0
  161.0440  206.2740  151.2880 C   0  0  0  0  0  0  0  0  0  0  0  0
  162.3410  208.1620  148.7850 C   0  0  0  0  0  1  0  0  0  0  0  0
  161.0080  208.4460  153.0450 C   0  0  0  0  0  0  0  0  0  0  0  0
  161.0610  207.5370  149.3060 C   0  0  2  0  0  3  0  0  0  0  0  0
  161.4300  203.2540  151.4830 N   0  0  0  0  0  0  0  0  0  0  0  0
  160.6520  203.0530  149.3930 N   0  0  0  0  0  2  0  0  0  0  0  0
  161.2880  201.9640  151.2310 N   0  0  0  0  0  0  0  0  0  0  0  0
  161.0440  203.8940  150.3690 C   0  0  0  0  0  0  0  0  0  0  0  0
  160.8210  201.8470  149.9730 C   0  0  0  0  0  3  0  0  0  0  0  0
  160.9220  209.6400  153.9890 C   0  0  2  0  0  0  0  0  0  0  0  0
  158.4580  212.7940  152.3010 C   0  0  0  0  0  0  0  0  0  0  0  0
  157.6720  213.8100  151.7750 O   0  0  0  0  0  1  0  0  0  0  0  0
  158.7580  210.9740  153.8670 C   0  0  0  0  0  3  0  0  0  0  0  0
  160.0410  210.7170  153.3500 C   0  0  0  0  0  0  0  0  0  0  0  0
  157.9690  212.0000  153.3400 C   0  0  0  0  0  3  0  0  0  0  0  0
  160.5290  211.5440  152.3210 C   0  0  0  0  0  3  0  0  0  0  0  0
  159.7390  212.5700  151.7950 C   0  0  0  0  0  3  0  0  0  0  0  0
  162.3530  211.0710  155.3560 O   0  0  0  0  0  1  0  0  0  0  0  0
  162.3350  210.2050  154.2600 C   0  0  0  0  0  2  0  0  0  0  0  0
  160.3400  209.1080  155.3140 C   0  0  0  0  0  2  0  0  0  0  0  0
  161.3800  208.7110  156.2580 N   0  0  0  0  0  0  0  0  0  0  0  0
  161.1850  207.7120  157.2600 C   0  0  0  0  0  3  0  0  0  0  0  0
  160.1220  206.9150  157.2610 C   0  0  0  0  0  1  0  0  0  0  0  0
  1  9  1  0  0  0  0
  2  7  1  0  0  0  0
  2  1  2  0  0  0  0
  3 10  1  0  0  0  0
  3  5  1  0  0  0  0
  5 14  1  0  0  0  0
  5  7  1  0  0  0  0
  6  4  1  0  0  0  0
  7  6  2  0  0  0  0
  9  4  2  0  0  0  0
  9 16  1  0  0  0  0
 10  8  1  1  0  0  0
 10  2  1  0  0  0  0
 12 15  1  0  0  0  0
 12 14  1  0  0  0  0
 13 11  1  0  0  0  0
 14 11  2  0  0  0  0
 15 13  2  0  0  0  0
 16 25  1  1  0  0  0
 16 26  1  0  0  0  0
 17 21  1  0  0  0  0
 18 17  1  0  0  0  0
 20 19  1  0  0  0  0
 20 16  1  0  0  0  0
 21 19  2  0  0  0  0
 22 20  2  0  0  0  0
 23 17  2  0  0  0  0
 23 22  1  0  0  0  0
 25 24  1  0  0  0  0
 26 27  1  0  0  0  0
 27 28  2  0  0  0  0
 28 29  1  0  0  0  0
M  END
>  <MODEL>
1

>  <REMARK>
 VINA RESULT:      -7.4      0.000      0.000
  Name = 
  7 active torsions:
  status: ('A' for Active; 'I' for Inactive)
    1  A    between atoms: C_1  and  N_14
    2  A    between atoms: N_11  and  C_24
    3  A    between atoms: N_14  and  C_22
    4  A    between atoms: C_15  and  C_19
    5  A    between atoms: C_17  and  C_19
    6  A    between atoms: C_19  and  C_22
    7  A    between atoms: C_19  and  C_26
                            x       y       z     vdW  Elec       q    Type
                         _______ _______ _______ _____ _____    ______ ____

>  <TORSDO>
F 7

$$$$
=
 OpenBabel11042422513D

 29 32  0  0  1  0  0  0  0  0999 V2000
  161.9320  207.8680  149.6970 C   0  0  0  0  0  3  0  0  0  0  0  0
  161.8950  208.6210  150.8700 C   0  0  0  0  0  0  0  0  0  0  0  0
  162.1410  210.2450  152.5940 C   0  0  0  0  0  2  0  0  0  0  0  0
  160.7690  206.0870  150.8810 C   0  0  0  0  0  3  0  0  0  0  0  0
  161.4360  209.0590  153.0760 N   0  0  0  0  0  0  0  0  0  0  0  0
  160.7540  206.8600  152.0520 C   0  0  0  0  0  3  0  0  0  0  0  0
  161.3250  208.1310  152.0110 C   0  0  0  0  0  0  0  0  0  0  0  0
  161.7310  211.0040  150.2500 C   0  0  0  0  0  1  0  0  0  0  0  0
  161.3400  206.5840  149.6840 C   0  0  0  0  0  0  0  0  0  0  0  0
  162.4570  209.9820  151.1050 C   0  0  2  0  0  3  0  0  0  0  0  0
  160.0330  209.6930  154.9720 N   0  0  0  0  0  0  0  0  0  0  0  0
  161.3800  207.9280  155.2520 N   0  0  0  0  0  2  0  0  0  0  0  0
  159.8470  209.2400  156.2000 N   0  0  0  0  0  0  0  0  0  0  0  0
  160.9570  208.8950  154.4170 C   0  0  0  0  0  0  0  0  0  0  0  0
  160.6600  208.1770  156.3650 C   0  0  0  0  0  3  0  0  0  0  0  0
  161.4140  205.7260  148.4260 C   0  0  2  0  0  0  0  0  0  0  0  0
  160.8740  201.5730  149.5790 C   0  0  0  0  0  0  0  0  0  0  0  0
  160.6870  200.2500  149.9530 O   0  0  0  0  0  1  0  0  0  0  0  0
  161.2410  203.8880  150.1780 C   0  0  0  0  0  3  0  0  0  0  0  0
  161.2780  204.2530  148.8190 C   0  0  0  0  0  0  0  0  0  0  0  0
  161.0490  202.5560  150.5540 C   0  0  0  0  0  3  0  0  0  0  0  0
  161.0740  203.2530  147.8500 C   0  0  0  0  0  3  0  0  0  0  0  0
  160.8810  201.9210  148.2270 C   0  0  0  0  0  3  0  0  0  0  0  0
  163.1910  204.8210  147.0160 O   0  0  0  0  0  1  0  0  0  0  0  0
  162.7620  205.9580  147.7050 C   0  0  0  0  0  2  0  0  0  0  0  0
  160.2720  206.2010  147.5050 C   0  0  0  0  0  2  0  0  0  0  0  0
  160.7450  206.5440  146.1680 N   0  0  0  0  0  2  0  0  0  0  0  0
  160.3010  205.8710  144.9870 C   0  0  0  0  0  3  0  0  0  0  0  0
  160.9040  204.7780  144.5320 C   0  0  0  0  0  2  0  0  0  0  0  0
  1  2  1  0  0  0  0
  2 10  1  0  0  0  0
  2  7  2  0  0  0  0
  3  5  1  0  0  0  0
  4  6  2  0  0  0  0
  5 14  1  0  0  0  0
  7  6  1  0  0  0  0
  7  5  1  0  0  0  0
  9  1  2  0  0  0  0
  9  4  1  0  0  0  0
 10  8  1  6  0  0  0
 10  3  1  0  0  0  0
 11 13  1  0  0  0  0
 12 15  1  0  0  0  0
 13 15  2  0  0  0  0
 14 11  2  0  0  0  0
 14 12  1  0  0  0  0
 16 26  1  6  0  0  0
 16 20  1  0  0  0  0
 16  9  1  0  0  0  0
 17 18  1  0  0  0  0
 17 21  1  0  0  0  0
 19 21  2  0  0  0  0
 20 19  1  0  0  0  0
 22 23  1  0  0  0  0
 22 20  2  0  0  0  0
 23 17  2  0  0  0  0
 24 25  1  0  0  0  0
 25 16  1  0  0  0  0
 27 26  1  0  0  0  0
 28 27  1  0  0  0  0
 29 28  2  0  0  0  0
M  END
>  <MODEL>
2

>  <REMARK>
 VINA RESULT:      -7.2      3.954      8.169
  Name = 
  7 active torsions:
  status: ('A' for Active; 'I' for Inactive)
    1  A    between atoms: C_1  and  N_14
    2  A    between atoms: N_11  and  C_24
    3  A    between atoms: N_14  and  C_22
    4  A    between atoms: C_15  and  C_19
    5  A    between atoms: C_17  and  C_19
    6  A    between atoms: C_19  and  C_22
    7  A    between atoms: C_19  and  C_26
                            x       y       z     vdW  Elec       q    Type
                         _______ _______ _______ _____ _____    ______ ____

>  <TORSDO>
F 7

$$$$
=
 OpenBabel11042422513D

 29 32  0  0  1  0  0  0  0  0999 V2000
  161.2780  207.1280  152.7640 C   0  0  0  0  0  3  0  0  0  0  0  0
  161.3940  206.2800  151.6640 C   0  0  0  0  0  0  0  0  0  0  0  0
  161.7040  204.4620  150.1570 C   0  0  0  0  0  2  0  0  0  0  0  0
  161.0470  208.9950  151.2190 C   0  0  0  0  0  3  0  0  0  0  0  0
  161.5200  205.7230  149.4410 N   0  0  0  0  0  0  0  0  0  0  0  0
  161.1770  208.1220  150.1280 C   0  0  0  0  0  3  0  0  0  0  0  0
  161.3470  206.7630  150.3870 C   0  0  0  0  0  0  0  0  0  0  0  0
  160.4200  204.0950  152.2680 C   0  0  0  0  0  1  0  0  0  0  0  0
  161.0760  208.5110  152.5510 C   0  0  0  0  0  0  0  0  0  0  0  0
  161.6160  204.8050  151.6610 C   0  0  2  0  0  3  0  0  0  0  0  0
  160.4590  206.2340  147.3000 N   0  0  0  0  0  0  0  0  0  0  0  0
  162.6040  205.5940  147.2440 N   0  0  0  0  0  0  0  0  0  0  0  0
  160.8430  206.2320  146.0350 N   0  0  0  0  0  2  0  0  0  0  0  0
  161.5290  205.8480  148.0130 C   0  0  0  0  0  0  0  0  0  0  0  0
  162.1330  205.8470  146.0050 C   0  0  0  0  0  3  0  0  0  0  0  0
  160.9960  209.4600  153.7410 C   0  0  2  0  0  0  0  0  0  0  0  0
  158.4770  212.8820  152.8360 C   0  0  0  0  0  0  0  0  0  0  0  0
  157.6770  213.9820  152.5610 O   0  0  0  0  0  1  0  0  0  0  0  0
  158.9520  210.9170  154.1660 C   0  0  0  0  0  3  0  0  0  0  0  0
  160.0850  210.6360  153.3790 C   0  0  0  0  0  0  0  0  0  0  0  0
  158.1500  212.0270  153.8900 C   0  0  0  0  0  3  0  0  0  0  0  0
  160.4150  211.5230  152.3370 C   0  0  0  0  0  3  0  0  0  0  0  0
  159.6120  212.6330  152.0620 C   0  0  0  0  0  3  0  0  0  0  0  0
  162.3620  211.0280  155.0210 O   0  0  0  0  0  1  0  0  0  0  0  0
  162.4070  209.9760  154.1020 C   0  0  0  0  0  2  0  0  0  0  0  0
  160.4540  208.6330  154.9230 C   0  0  0  0  0  2  0  0  0  0  0  0
  161.4630  208.4090  155.9530 N   0  0  0  0  0  0  0  0  0  0  0  0
  161.2230  207.6270  157.1250 C   0  0  0  0  0  3  0  0  0  0  0  0
  160.1330  206.8810  157.2610 C   0  0  0  0  0  1  0  0  0  0  0  0
  2  1  2  0  0  0  0
  3 10  1  0  0  0  0
  4  9  2  0  0  0  0
  5  3  1  0  0  0  0
  5  7  1  0  0  0  0
  6  7  2  0  0  0  0
  6  4  1  0  0  0  0
  7  2  1  0  0  0  0
  9  1  1  0  0  0  0
  9 16  1  0  0  0  0
 10  2  1  0  0  0  0
 10  8  1  6  0  0  0
 11 14  2  0  0  0  0
 12 14  1  0  0  0  0
 13 11  1  0  0  0  0
 14  5  1  0  0  0  0
 15 13  1  0  0  0  0
 15 12  2  0  0  0  0
 16 25  1  1  0  0  0
 16 26  1  0  0  0  0
 17 21  1  0  0  0  0
 18 17  1  0  0  0  0
 20 16  1  0  0  0  0
 20 19  1  0  0  0  0
 21 19  2  0  0  0  0
 22 20  2  0  0  0  0
 23 22  1  0  0  0  0
 23 17  2  0  0  0  0
 25 24  1  0  0  0  0
 26 27  1  0  0  0  0
 27 28  2  0  0  0  0
 28 29  1  0  0  0  0
M  END
>  <MODEL>
3

>  <REMARK>
 VINA RESULT:      -6.8      1.497      2.700
  Name = 
  7 active torsions:
  status: ('A' for Active; 'I' for Inactive)
    1  A    between atoms: C_1  and  N_14
    2  A    between atoms: N_11  and  C_24
    3  A    between atoms: N_14  and  C_22
    4  A    between atoms: C_15  and  C_19
    5  A    between atoms: C_17  and  C_19
    6  A    between atoms: C_19  and  C_22
    7  A    between atoms: C_19  and  C_26
                            x       y       z     vdW  Elec       q    Type
                         _______ _______ _______ _____ _____    ______ ____

>  <TORSDO>
F 7

$$$$
=
 OpenBabel11042422513D

 29 32  0  0  1  0  0  0  0  0999 V2000
  161.1360  204.1620  149.0100 C   0  0  0  0  0  3  0  0  0  0  0  0
  161.0440  204.5520  150.3460 C   0  0  0  0  0  0  0  0  0  0  0  0
  160.7620  204.7030  152.7060 C   0  0  0  0  0  2  0  0  0  0  0  0
  161.4360  206.5030  148.4150 C   0  0  0  0  0  3  0  0  0  0  0  0
  160.9820  206.0200  152.1090 N   0  0  0  0  0  0  0  0  0  0  0  0
  161.3300  206.8720  149.7650 C   0  0  0  0  0  3  0  0  0  0  0  0
  161.1370  205.8650  150.7100 C   0  0  0  0  0  0  0  0  0  0  0  0
  161.9740  202.7430  151.7420 C   0  0  0  0  0  1  0  0  0  0  0  0
  161.3600  205.1450  148.0190 C   0  0  0  0  0  0  0  0  0  0  0  0
  160.8060  203.6910  151.5390 C   0  0  2  0  0  3  0  0  0  0  0  0
  160.8720  208.4530  152.2890 N   0  0  0  0  0  0  0  0  0  0  0  0
  161.2030  207.3100  154.1840 N   0  0  0  0  0  0  0  0  0  0  0  0
  160.9620  209.3300  153.2740 N   0  0  0  0  0  2  0  0  0  0  0  0
  161.0190  207.2450  152.8520 C   0  0  0  0  0  0  0  0  0  0  0  0
  161.1610  208.6380  154.4130 C   0  0  0  0  0  3  0  0  0  0  0  0
  161.4130  204.7440  146.5500 C   0  0  2  0  0  0  0  0  0  0  0  0
  160.8970  200.4510  146.1310 C   0  0  0  0  0  0  0  0  0  0  0  0
  160.7430  199.0800  145.9860 O   0  0  0  0  0  1  0  0  0  0  0  0
  160.6030  202.6950  145.2750 C   0  0  0  0  0  3  0  0  0  0  0  0
  161.1860  203.2340  146.4370 C   0  0  0  0  0  0  0  0  0  0  0  0
  160.4520  201.3140  145.1280 C   0  0  0  0  0  3  0  0  0  0  0  0
  161.6530  202.3490  147.4270 C   0  0  0  0  0  3  0  0  0  0  0  0
  161.5010  200.9680  147.2790 C   0  0  0  0  0  3  0  0  0  0  0  0
  163.8460  204.6780  146.7450 O   0  0  0  0  0  1  0  0  0  0  0  0
  162.7870  205.1180  145.9480 C   0  0  0  0  0  2  0  0  0  0  0  0
  160.3200  205.5620  145.8340 C   0  0  0  0  0  2  0  0  0  0  0  0
  160.8160  206.2120  144.6250 N   0  0  0  0  0  2  0  0  0  0  0  0
  161.2040  205.4910  143.4540 C   0  0  0  0  0  3  0  0  0  0  0  0
  161.5940  206.1090  142.3450 C   0  0  0  0  0  2  0  0  0  0  0  0
  1  2  1  0  0  0  0
  2  7  2  0  0  0  0
  2 10  1  0  0  0  0
  4  6  2  0  0  0  0
  5  3  1  0  0  0  0
  5 14  1  0  0  0  0
  6  7  1  0  0  0  0
  7  5  1  0  0  0  0
  9  4  1  0  0  0  0
  9  1  2  0  0  0  0
 10  8  1  1  0  0  0
 10  3  1  0  0  0  0
 11 14  2  0  0  0  0
 11 13  1  0  0  0  0
 12 15  2  0  0  0  0
 13 15  1  0  0  0  0
 14 12  1  0  0  0  0
 16 26  1  6  0  0  0
 16  9  1  0  0  0  0
 17 23  1  0  0  0  0
 18 17  1  0  0  0  0
 19 20  2  0  0  0  0
 20 16  1  0  0  0  0
 20 22  1  0  0  0  0
 21 19  1  0  0  0  0
 21 17  2  0  0  0  0
 23 22  2  0  0  0  0
 25 16  1  0  0  0  0
 25 24  1  0  0  0  0
 27 26  1  0  0  0  0
 28 27  1  0  0  0  0
 29 28  2  0  0  0  0
M  END
>  <MODEL>
4

>  <REMARK>
 VINA RESULT:      -6.3      4.669      9.319
  Name = 
  7 active torsions:
  status: ('A' for Active; 'I' for Inactive)
    1  A    between atoms: C_1  and  N_14
    2  A    between atoms: N_11  and  C_24
    3  A    between atoms: N_14  and  C_22
    4  A    between atoms: C_15  and  C_19
    5  A    between atoms: C_17  and  C_19
    6  A    between atoms: C_19  and  C_22
    7  A    between atoms: C_19  and  C_26
                            x       y       z     vdW  Elec       q    Type
                         _______ _______ _______ _____ _____    ______ ____

>  <TORSDO>
F 7

$$$$
=
 OpenBabel11042422513D

 29 32  0  0  1  0  0  0  0  0999 V2000
  161.1620  208.7550  151.9090 C   0  0  0  0  0  3  0  0  0  0  0  0
  161.0910  207.6660  151.0410 C   0  0  0  0  0  0  0  0  0  0  0  0
  160.9070  206.1850  149.1850 C   0  0  0  0  0  2  0  0  0  0  0  0
  161.1700  207.1880  153.7710 C   0  0  0  0  0  3  0  0  0  0  0  0
  160.9490  205.4530  150.4500 N   0  0  0  0  0  0  0  0  0  0  0  0
  161.0870  206.1090  152.8780 C   0  0  0  0  0  3  0  0  0  0  0  0
  161.0530  206.3850  151.5120 C   0  0  0  0  0  0  0  0  0  0  0  0
  162.2840  208.2570  148.9630 C   0  0  0  0  0  1  0  0  0  0  0  0
  161.2280  208.5240  153.3020 C   0  0  0  0  0  0  0  0  0  0  0  0
  161.0090  207.6830  149.5520 C   0  0  2  0  0  3  0  0  0  0  0  0
  160.7790  203.2110  149.4960 N   0  0  0  0  0  0  0  0  0  0  0  0
  160.9240  203.3570  151.7250 N   0  0  0  0  0  0  0  0  0  0  0  0
  160.7480  201.9810  149.9800 N   0  0  0  0  0  2  0  0  0  0  0  0
  160.8840  204.0250  150.5570 C   0  0  0  0  0  0  0  0  0  0  0  0
  160.8350  202.0730  151.3220 C   0  0  0  0  0  3  0  0  0  0  0  0
  161.2560  209.7020  154.2680 C   0  0  2  0  0  0  0  0  0  0  0  0
  157.3040  211.5030  154.1760 C   0  0  0  0  0  0  0  0  0  0  0  0
  156.0360  212.0670  154.1350 O   0  0  0  0  0  1  0  0  0  0  0  0
  159.4320  211.0540  153.1160 C   0  0  0  0  0  3  0  0  0  0  0  0
  159.8830  210.3800  154.2670 C   0  0  0  0  0  0  0  0  0  0  0  0
  158.1540  211.6180  153.0750 C   0  0  0  0  0  3  0  0  0  0  0  0
  159.0030  210.2500  155.3570 C   0  0  0  0  0  3  0  0  0  0  0  0
  157.7250  210.8150  155.3150 C   0  0  0  0  0  3  0  0  0  0  0  0
  163.0310  210.2910  152.6980 O   0  0  0  0  0  1  0  0  0  0  0  0
  162.3450  210.7130  153.8390 C   0  0  0  0  0  2  0  0  0  0  0  0
  161.6310  209.1270  155.6480 C   0  0  0  0  0  2  0  0  0  0  0  0
  162.7490  209.8390  156.2600 N   0  0  0  0  0  2  0  0  0  0  0  0
  162.5780  210.8670  157.2380 C   0  0  0  0  0  3  0  0  0  0  0  0
  161.5000  211.6430  157.2610 C   0  0  0  0  0  2  0  0  0  0  0  0
  1  9  1  0  0  0  0
  2  7  1  0  0  0  0
  2  1  2  0  0  0  0
  3 10  1  0  0  0  0
  3  5  1  0  0  0  0
  5 14  1  0  0  0  0
  5  7  1  0  0  0  0
  6  4  1  0  0  0  0
  7  6  2  0  0  0  0
  9  4  2  0  0  0  0
  9 16  1  0  0  0  0
 10  8  1  6  0  0  0
 10  2  1  0  0  0  0
 11 13  1  0  0  0  0
 11 14  2  0  0  0  0
 13 15  1  0  0  0  0
 14 12  1  0  0  0  0
 15 12  2  0  0  0  0
 16 25  1  6  0  0  0
 16 26  1  0  0  0  0
 17 23  1  0  0  0  0
 18 17  1  0  0  0  0
 19 20  2  0  0  0  0
 20 16  1  0  0  0  0
 20 22  1  0  0  0  0
 21 19  1  0  0  0  0
 21 17  2  0  0  0  0
 23 22  2  0  0  0  0
 24 25  1  0  0  0  0
 26 27  1  0  0  0  0
 27 28  1  0  0  0  0
 28 29  2  0  0  0  0
M  END
>  <MODEL>
5

>  <REMARK>
 VINA RESULT:      -6.2      1.435      2.011
  Name = 
  7 active torsions:
  status: ('A' for Active; 'I' for Inactive)
    1  A    between atoms: C_1  and  N_14
    2  A    between atoms: N_11  and  C_24
    3  A    between atoms: N_14  and  C_22
    4  A    between atoms: C_15  and  C_19
    5  A    between atoms: C_17  and  C_19
    6  A    between atoms: C_19  and  C_22
    7  A    between atoms: C_19  and  C_26
                            x       y       z     vdW  Elec       q    Type
                         _______ _______ _______ _____ _____    ______ ____

>  <TORSDO>
F 7

$$$$
=
 OpenBabel11042422513D

 29 32  0  0  1  0  0  0  0  0999 V2000
  160.9810  205.7260  150.4700 C   0  0  0  0  0  3  0  0  0  0  0  0
  160.8830  206.3700  151.7040 C   0  0  0  0  0  0  0  0  0  0  0  0
  160.5490  206.9880  153.9790 C   0  0  0  0  0  2  0  0  0  0  0  0
  161.4740  207.8840  149.4570 C   0  0  0  0  0  3  0  0  0  0  0  0
  160.8840  208.1480  153.1550 N   0  0  0  0  0  0  0  0  0  0  0  0
  161.3590  208.5100  150.7080 C   0  0  0  0  0  3  0  0  0  0  0  0
  161.0650  207.7180  151.8170 C   0  0  0  0  0  0  0  0  0  0  0  0
  161.6350  204.8010  153.4530 C   0  0  0  0  0  1  0  0  0  0  0  0
  161.3060  206.4840  149.3220 C   0  0  0  0  0  0  0  0  0  0  0  0
  160.5480  205.7700  153.0270 C   0  0  2  0  0  3  0  0  0  0  0  0
  160.3530  210.5320  153.1090 N   0  0  0  0  0  0  0  0  0  0  0  0
  161.7450  209.8320  154.7160 N   0  0  0  0  0  0  0  0  0  0  0  0
  160.6920  211.5860  153.8300 N   0  0  0  0  0  2  0  0  0  0  0  0
  160.9940  209.4860  153.6540 C   0  0  0  0  0  0  0  0  0  0  0  0
  161.5310  211.1620  154.7970 C   0  0  0  0  0  3  0  0  0  0  0  0
  161.3690  205.8060  147.9580 C   0  0  2  0  0  0  0  0  0  0  0  0
  161.1470  201.4980  148.4660 C   0  0  0  0  0  0  0  0  0  0  0  0
  161.0920  200.1200  148.6240 O   0  0  0  0  0  1  0  0  0  0  0  0
  161.2570  203.4400  147.0270 C   0  0  0  0  0  3  0  0  0  0  0  0
  161.2350  204.2930  148.1460 C   0  0  0  0  0  0  0  0  0  0  0  0
  161.2050  202.0530  147.1870 C   0  0  0  0  0  3  0  0  0  0  0  0
  161.2030  203.7170  149.4300 C   0  0  0  0  0  3  0  0  0  0  0  0
  161.1510  202.3290  149.5880 C   0  0  0  0  0  3  0  0  0  0  0  0
  163.3380  204.9910  146.7660 O   0  0  0  0  0  1  0  0  0  0  0  0
  162.7100  206.1360  147.2640 C   0  0  0  0  0  2  0  0  0  0  0  0
  160.2190  206.4030  147.1210 C   0  0  0  0  0  2  0  0  0  0  0  0
  160.6160  206.6650  145.7410 N   0  0  0  0  0  2  0  0  0  0  0  0
  160.3760  205.7460  144.6720 C   0  0  0  0  0  3  0  0  0  0  0  0
  161.3530  205.3130  143.8840 C   0  0  0  0  0  2  0  0  0  0  0  0
  1  2  1  0  0  0  0
  2  7  2  0  0  0  0
  2 10  1  0  0  0  0
  4  6  2  0  0  0  0
  5 14  1  0  0  0  0
  5  3  1  0  0  0  0
  6  7  1  0  0  0  0
  7  5  1  0  0  0  0
  9  4  1  0  0  0  0
  9  1  2  0  0  0  0
 10  8  1  1  0  0  0
 10  3  1  0  0  0  0
 11 14  2  0  0  0  0
 11 13  1  0  0  0  0
 12 15  2  0  0  0  0
 13 15  1  0  0  0  0
 14 12  1  0  0  0  0
 16 26  1  6  0  0  0
 16 20  1  0  0  0  0
 16  9  1  0  0  0  0
 17 18  1  0  0  0  0
 17 23  1  0  0  0  0
 19 21  1  0  0  0  0
 19 20  2  0  0  0  0
 20 22  1  0  0  0  0
 21 17  2  0  0  0  0
 22 23  2  0  0  0  0
 24 25  1  0  0  0  0
 25 16  1  0  0  0  0
 27 26  1  0  0  0  0
 28 27  1  0  0  0  0
 29 28  2  0  0  0  0
M  END
>  <MODEL>
6

>  <REMARK>
 VINA RESULT:      -5.9      3.993      8.650
  Name = 
  7 active torsions:
  status: ('A' for Active; 'I' for Inactive)
    1  A    between atoms: C_1  and  N_14
    2  A    between atoms: N_11  and  C_24
    3  A    between atoms: N_14  and  C_22
    4  A    between atoms: C_15  and  C_19
    5  A    between atoms: C_17  and  C_19
    6  A    between atoms: C_19  and  C_22
    7  A    between atoms: C_19  and  C_26
                            x       y       z     vdW  Elec       q    Type
                         _______ _______ _______ _____ _____    ______ ____

>  <TORSDO>
F 7

$$$$
=
 OpenBabel11042422513D

 29 32  0  0  1  0  0  0  0  0999 V2000
  160.7900  209.8390  153.1860 C   0  0  0  0  0  3  0  0  0  0  0  0
  161.2880  209.8070  151.8840 C   0  0  0  0  0  0  0  0  0  0  0  0
  162.3270  209.2720  149.8090 C   0  0  0  0  0  2  0  0  0  0  0  0
  160.1120  212.1450  152.8000 C   0  0  0  0  0  3  0  0  0  0  0  0
  161.8100  210.6400  149.8100 N   0  0  0  0  0  0  0  0  0  0  0  0
  160.6300  212.0910  151.4970 C   0  0  0  0  0  3  0  0  0  0  0  0
  161.2110  210.8990  151.0670 C   0  0  0  0  0  0  0  0  0  0  0  0
  161.0330  207.5110  151.0180 C   0  0  0  0  0  1  0  0  0  0  0  0
  160.1660  211.0180  153.6560 C   0  0  0  0  0  0  0  0  0  0  0  0
  161.9820  208.6810  151.1940 C   0  0  2  0  0  3  0  0  0  0  0  0
  160.8950  211.8320  147.8840 N   0  0  0  0  0  0  0  0  0  0  0  0
  163.0500  212.1920  148.3710 N   0  0  0  0  0  0  0  0  0  0  0  0
  161.3680  212.6900  146.9960 N   0  0  0  0  0  2  0  0  0  0  0  0
  161.9190  211.5430  148.7020 C   0  0  0  0  0  0  0  0  0  0  0  0
  162.6650  212.9040  147.2930 C   0  0  0  0  0  3  0  0  0  0  0  0
  159.6600  211.0880  155.0920 C   0  0  2  0  0  0  0  0  0  0  0  0
  155.9700  213.3680  155.3190 C   0  0  0  0  0  0  0  0  0  0  0  0
  154.7850  214.0860  155.4030 O   0  0  0  0  0  1  0  0  0  0  0  0
  157.1730  211.3830  154.6390 C   0  0  0  0  0  3  0  0  0  0  0  0
  158.3770  211.9230  155.1280 C   0  0  0  0  0  0  0  0  0  0  0  0
  155.9800  212.1040  154.7270 C   0  0  0  0  0  3  0  0  0  0  0  0
  158.3440  213.1870  155.7450 C   0  0  0  0  0  3  0  0  0  0  0  0
  157.1500  213.9080  155.8330 C   0  0  0  0  0  3  0  0  0  0  0  0
  162.0060  211.2060  155.7600 O   0  0  0  0  0  1  0  0  0  0  0  0
  160.7340  211.7310  156.0010 C   0  0  0  0  0  2  0  0  0  0  0  0
  159.4340  209.6330  155.5470 C   0  0  0  0  0  2  0  0  0  0  0  0
  160.0170  209.3640  156.8580 N   0  0  0  0  0  2  0  0  0  0  0  0
  160.4700  208.0690  157.2600 C   0  0  0  0  0  3  0  0  0  0  0  0
  160.0760  206.9630  156.6400 C   0  0  0  0  0  2  0  0  0  0  0  0
  1  9  1  0  0  0  0
  2  1  2  0  0  0  0
  3  5  1  0  0  0  0
  3 10  1  0  0  0  0
  4  9  2  0  0  0  0
  5  7  1  0  0  0  0
  6  4  1  0  0  0  0
  7  6  2  0  0  0  0
  7  2  1  0  0  0  0
  9 16  1  0  0  0  0
 10  8  1  6  0  0  0
 10  2  1  0  0  0  0
 11 14  2  0  0  0  0
 12 14  1  0  0  0  0
 13 15  1  0  0  0  0
 13 11  1  0  0  0  0
 14  5  1  0  0  0  0
 15 12  2  0  0  0  0
 16 20  1  0  0  0  0
 16 26  1  1  0  0  0
 16 25  1  0  0  0  0
 17 18  1  0  0  0  0
 17 23  1  0  0  0  0
 19 21  1  0  0  0  0
 19 20  2  0  0  0  0
 20 22  1  0  0  0  0
 21 17  2  0  0  0  0
 22 23  2  0  0  0  0
 24 25  1  0  0  0  0
 26 27  1  0  0  0  0
 27 28  1  0  0  0  0
 29 28  2  0  0  0  0
M  END
>  <MODEL>
7

>  <REMARK>
 VINA RESULT:      -5.7      3.419      5.185
  Name = 
  7 active torsions:
  status: ('A' for Active; 'I' for Inactive)
    1  A    between atoms: C_1  and  N_14
    2  A    between atoms: N_11  and  C_24
    3  A    between atoms: N_14  and  C_22
    4  A    between atoms: C_15  and  C_19
    5  A    between atoms: C_17  and  C_19
    6  A    between atoms: C_19  and  C_22
    7  A    between atoms: C_19  and  C_26
                            x       y       z     vdW  Elec       q    Type
                         _______ _______ _______ _____ _____    ______ ____

>  <TORSDO>
F 7

$$$$
=
 OpenBabel11042422513D

 29 32  0  0  1  0  0  0  0  0999 V2000
  161.2810  204.8400  150.7230 C   0  0  0  0  0  3  0  0  0  0  0  0
  161.2270  204.2380  149.4670 C   0  0  0  0  0  0  0  0  0  0  0  0
  161.2010  202.7580  147.6010 C   0  0  0  0  0  2  0  0  0  0  0  0
  161.2790  207.0070  149.6150 C   0  0  0  0  0  3  0  0  0  0  0  0
  161.1840  204.1560  147.1740 N   0  0  0  0  0  0  0  0  0  0  0  0
  161.2350  206.3770  148.3610 C   0  0  0  0  0  3  0  0  0  0  0  0
  161.2060  204.9840  148.3230 C   0  0  0  0  0  0  0  0  0  0  0  0
  159.9560  202.1340  149.6740 C   0  0  0  0  0  1  0  0  0  0  0  0
  161.2830  206.2510  150.8130 C   0  0  0  0  0  0  0  0  0  0  0  0
  161.2220  202.7820  149.1460 C   0  0  2  0  0  3  0  0  0  0  0  0
  160.3140  204.0760  144.8930 N   0  0  0  0  0  0  0  0  0  0  0  0
  161.9730  205.5230  145.2950 N   0  0  0  0  0  0  0  0  0  0  0  0
  160.5820  204.7020  143.7600 N   0  0  0  0  0  2  0  0  0  0  0  0
  161.1590  204.5800  145.8050 C   0  0  0  0  0  0  0  0  0  0  0  0
  161.5810  205.5720  144.0060 C   0  0  0  0  0  3  0  0  0  0  0  0
  161.3920  206.9260  152.1750 C   0  0  2  0  0  0  0  0  0  0  0  0
  160.6770  211.1990  151.8560 C   0  0  0  0  0  0  0  0  0  0  0  0
  160.4540  212.5660  151.7690 O   0  0  0  0  0  1  0  0  0  0  0  0
  160.0830  209.0310  152.7510 C   0  0  0  0  0  3  0  0  0  0  0  0
  161.1150  208.4230  152.0120 C   0  0  0  0  0  0  0  0  0  0  0  0
  159.8610  210.4080  152.6660 C   0  0  0  0  0  3  0  0  0  0  0  0
  161.9450  209.2380  151.2210 C   0  0  0  0  0  3  0  0  0  0  0  0
  161.7220  210.6150  151.1370 C   0  0  0  0  0  3  0  0  0  0  0  0
  163.5500  205.7930  152.0140 O   0  0  0  0  0  1  0  0  0  0  0  0
  162.8070  206.7110  152.7610 C   0  0  0  0  0  2  0  0  0  0  0  0
  160.3660  206.2290  153.0910 C   0  0  0  0  0  2  0  0  0  0  0  0
  160.8000  206.1950  154.4840 N   0  0  0  0  0  2  0  0  0  0  0  0
  160.4720  207.2150  155.4290 C   0  0  0  0  0  3  0  0  0  0  0  0
  159.7910  206.9530  156.5390 C   0  0  0  0  0  2  0  0  0  0  0  0
  1  9  1  0  0  0  0
  2  1  2  0  0  0  0
  3 10  1  0  0  0  0
  4  9  2  0  0  0  0
  5  3  1  0  0  0  0
  5  7  1  0  0  0  0
  6  4  1  0  0  0  0
  7  6  2  0  0  0  0
  7  2  1  0  0  0  0
  9 16  1  0  0  0  0
 10  2  1  0  0  0  0
 10  8  1  1  0  0  0
 11 14  2  0  0  0  0
 12 14  1  0  0  0  0
 13 15  1  0  0  0  0
 13 11  1  0  0  0  0
 14  5  1  0  0  0  0
 15 12  2  0  0  0  0
 16 25  1  1  0  0  0
 16 26  1  0  0  0  0
 17 21  1  0  0  0  0
 18 17  1  0  0  0  0
 20 16  1  0  0  0  0
 20 19  1  0  0  0  0
 21 19  2  0  0  0  0
 22 20  2  0  0  0  0
 23 22  1  0  0  0  0
 23 17  2  0  0  0  0
 24 25  1  0  0  0  0
 26 27  1  0  0  0  0
 27 28  1  0  0  0  0
 28 29  2  0  0  0  0
M  END
>  <MODEL>
8

>  <REMARK>
 VINA RESULT:      -5.5      2.722      4.258
  Name = 
  7 active torsions:
  status: ('A' for Active; 'I' for Inactive)
    1  A    between atoms: C_1  and  N_14
    2  A    between atoms: N_11  and  C_24
    3  A    between atoms: N_14  and  C_22
    4  A    between atoms: C_15  and  C_19
    5  A    between atoms: C_17  and  C_19
    6  A    between atoms: C_19  and  C_22
    7  A    between atoms: C_19  and  C_26
                            x       y       z     vdW  Elec       q    Type
                         _______ _______ _______ _____ _____    ______ ____

>  <TORSDO>
F 7

$$$$
=
 OpenBabel11042422513D

 29 32  0  0  1  0  0  0  0  0999 V2000
  161.2070  208.3440  149.9840 C   0  0  0  0  0  3  0  0  0  0  0  0
  161.1620  207.0330  149.5100 C   0  0  0  0  0  0  0  0  0  0  0  0
  161.0090  205.0330  148.2270 C   0  0  0  0  0  2  0  0  0  0  0  0
  161.2630  207.4550  152.2490 C   0  0  0  0  0  3  0  0  0  0  0  0
  161.0760  204.7450  149.6590 N   0  0  0  0  0  0  0  0  0  0  0  0
  161.2060  206.1450  151.7490 C   0  0  0  0  0  3  0  0  0  0  0  0
  161.1600  205.9690  150.3660 C   0  0  0  0  0  0  0  0  0  0  0  0
  162.3300  206.9580  147.3390 C   0  0  0  0  0  1  0  0  0  0  0  0
  161.2840  208.5710  151.3770 C   0  0  0  0  0  0  0  0  0  0  0  0
  161.0730  206.5710  148.0960 C   0  0  2  0  0  3  0  0  0  0  0  0
  161.3610  203.1590  151.4950 N   0  0  0  0  0  0  0  0  0  0  0  0
  160.7100  202.3230  149.5230 N   0  0  0  0  0  2  0  0  0  0  0  0
  161.2230  201.8520  151.6400 N   0  0  0  0  0  0  0  0  0  0  0  0
  161.0500  203.4250  150.2170 C   0  0  0  0  0  0  0  0  0  0  0  0
  160.8310  201.3520  150.4520 C   0  0  0  0  0  3  0  0  0  0  0  0
  161.2840  209.9970  151.9160 C   0  0  2  0  0  0  0  0  0  0  0  0
  161.4870  212.8720  148.6650 C   0  0  0  0  0  0  0  0  0  0  0  0
  161.5580  213.8010  147.6370 O   0  0  0  0  0  1  0  0  0  0  0  0
  160.5010  212.1150  150.7410 C   0  0  0  0  0  3  0  0  0  0  0  0
  161.3250  210.9740  150.7380 C   0  0  0  0  0  0  0  0  0  0  0  0
  160.5760  213.0520  149.7070 C   0  0  0  0  0  3  0  0  0  0  0  0
  162.2560  210.8210  149.6940 C   0  0  0  0  0  3  0  0  0  0  0  0
  162.3310  211.7590  148.6600 C   0  0  0  0  0  3  0  0  0  0  0  0
  162.1750  210.1540  154.1840 O   0  0  0  0  0  1  0  0  0  0  0  0
  162.5120  210.2180  152.8290 C   0  0  0  0  0  2  0  0  0  0  0  0
  160.0050  210.1440  152.7630 C   0  0  0  0  0  2  0  0  0  0  0  0
  159.9010  211.4590  153.3880 N   0  0  0  0  0  2  0  0  0  0  0  0
  158.9830  211.7510  154.4440 C   0  0  0  0  0  3  0  0  0  0  0  0
  158.9170  211.0090  155.5440 C   0  0  0  0  0  2  0  0  0  0  0  0
  1  9  1  0  0  0  0
  2  1  2  0  0  0  0
  2  7  1  0  0  0  0
  3  5  1  0  0  0  0
  5 14  1  0  0  0  0
  5  7  1  0  0  0  0
  6  4  1  0  0  0  0
  7  6  2  0  0  0  0
  9 16  1  0  0  0  0
  9  4  2  0  0  0  0
 10  8  1  6  0  0  0
 10  3  1  0  0  0  0
 10  2  1  0  0  0  0
 11 13  1  0  0  0  0
 12 14  1  0  0  0  0
 12 15  1  0  0  0  0
 14 11  2  0  0  0  0
 15 13  2  0  0  0  0
 16 26  1  1  0  0  0
 16 25  1  0  0  0  0
 17 21  1  0  0  0  0
 18 17  1  0  0  0  0
 20 19  1  0  0  0  0
 20 16  1  0  0  0  0
 21 19  2  0  0  0  0
 22 20  2  0  0  0  0
 23 17  2  0  0  0  0
 23 22  1  0  0  0  0
 25 24  1  0  0  0  0
 26 27  1  0  0  0  0
 27 28  1  0  0  0  0
 28 29  2  0  0  0  0
M  END
>  <MODEL>
9

>  <REMARK>
 VINA RESULT:      -5.3      2.114      2.827
  Name = 
  7 active torsions:
  status: ('A' for Active; 'I' for Inactive)
    1  A    between atoms: C_1  and  N_14
    2  A    between atoms: N_11  and  C_24
    3  A    between atoms: N_14  and  C_22
    4  A    between atoms: C_15  and  C_19
    5  A    between atoms: C_17  and  C_19
    6  A    between atoms: C_19  and  C_22
    7  A    between atoms: C_19  and  C_26
                            x       y       z     vdW  Elec       q    Type
                         _______ _______ _______ _____ _____    ______ ____

>  <TORSDO>
F 7

$$$$
