=
 OpenBabel11052410493D

 28 29  0  0  1  0  0  0  0  0999 V2000
  160.4660  205.7230  150.5070 C   0  0  1  0  0  3  0  0  0  0  0  0
  161.0790  206.9600  151.1100 C   0  0  0  0  0  3  0  0  0  0  0  0
  161.6380  206.3500  148.3810 C   0  0  2  0  0  3  0  0  0  0  0  0
  160.3480  205.8050  148.9830 C   0  0  0  0  0  2  0  0  0  0  0  0
  161.8980  207.7610  148.9050 C   0  0  0  0  0  2  0  0  0  0  0  0
  161.7900  207.8540  150.4030 C   0  0  0  0  0  0  0  0  0  0  0  0
  160.4940  206.7310  146.3300 O   0  0  0  0  0  1  0  0  0  0  0  0
  162.6420  205.9620  146.1210 O   0  0  0  0  0  0  0  0  0  0  0  0
  161.5530  206.3520  146.8930 C   0  0  0  0  0  0  0  0  0  0  0  0
  162.4090  204.5580  151.2030 O   0  0  0  0  0  0  0  0  0  0  0  0
  161.2190  204.4960  150.9280 C   0  0  0  0  0  0  0  0  0  0  0  0
  160.8550  202.5050  152.1670 O   0  0  0  0  0  1  0  0  0  0  0  0
  160.4950  203.1880  151.0050 C   0  0  2  0  0  3  0  0  0  0  0  0
  160.8540  201.6400  146.3950 N   0  0  0  0  0  1  0  0  0  0  0  0
  160.9100  201.6710  147.8150 C   0  0  0  0  0  0  0  0  0  0  0  0
  161.2720  200.6050  148.5550 N   0  0  0  0  0  0  0  0  0  0  0  0
  161.1860  201.0350  149.8280 C   0  0  0  0  0  2  0  0  0  0  0  0
  160.7800  202.3520  149.7990 C   0  0  0  0  0  0  0  0  0  0  0  0
  160.5900  202.7640  148.5320 N   0  0  0  0  0  0  0  0  0  0  0  0
  162.3600  208.9970  151.0480 N   0  0  0  0  0  2  0  0  0  0  0  0
  161.6020  210.1890  151.4090 C   0  0  0  0  0  2  0  0  0  0  0  0
  160.5900  209.8680  152.5060 C   0  0  2  0  0  3  0  0  0  0  0  0
  159.5960  211.0040  152.6790 C   0  0  0  0  0  1  0  0  0  0  0  0
  161.2730  209.5610  153.8410 C   0  0  2  0  0  3  0  0  0  0  0  0
  161.1390  207.5020  154.6510 C   0  0  0  0  0  1  0  0  0  0  0  0
  160.4750  208.7300  154.6350 O   0  0  0  0  0  0  0  0  0  0  0  0
  162.6370  210.6090  155.5020 O   0  0  0  0  0  1  0  0  0  0  0  0
  161.5980  210.8400  154.6000 C   0  0  0  0  0  2  0  0  0  0  0  0
  1 11  1  6  0  0  0
  1  2  1  0  0  0  0
  3  9  1  6  0  0  0
  3  5  1  0  0  0  0
  3  4  1  0  0  0  0
  4  1  1  0  0  0  0
  5  6  1  0  0  0  0
  6 20  1  0  0  0  0
  6  2  2  0  0  0  0
  7  9  1  0  0  0  0
  8  9  2  0  0  0  0
 11 13  1  0  0  0  0
 11 10  2  0  0  0  0
 13 12  1  1  0  0  0
 14 15  1  0  0  0  0
 15 19  1  0  0  0  0
 15 16  2  0  0  0  0
 16 17  1  0  0  0  0
 18 17  1  0  0  0  0
 18 13  1  0  0  0  0
 19 18  2  0  0  0  0
 20 21  1  0  0  0  0
 21 22  1  0  0  0  0
 22 23  1  1  0  0  0
 22 24  1  0  0  0  0
 24 28  1  1  0  0  0
 24 26  1  0  0  0  0
 26 25  1  0  0  0  0
 28 27  1  0  0  0  0
M  END
>  <MODEL>
1

>  <REMARK>
 VINA RESULT:      -7.1      0.000      0.000
  Name = 
  10 active torsions:
  status: ('A' for Active; 'I' for Inactive)
    1  A    between atoms: C_1  and  C_13
    2  A    between atoms: C_4  and  C_11
    3  A    between atoms: C_4  and  O_25
    4  A    between atoms: C_4  and  C_28
    5  A    between atoms: C_11  and  C_24
    6  A    between atoms: C_13  and  C_23
    7  A    between atoms: C_14  and  C_26
    8  A    between atoms: N_15  and  C_22
    9  A    between atoms: N_15  and  C_24
   10  A    between atoms: C_17  and  C_23
                            x       y       z     vdW  Elec       q    Type
                         _______ _______ _______ _____ _____    ______ ____

>  <TORSDO>
F 10

$$$$
=
 OpenBabel11052410493D

 28 29  0  0  1  0  0  0  0  0999 V2000
  160.6580  206.9430  150.2180 C   0  0  1  0  0  3  0  0  0  0  0  0
  161.0020  206.6970  148.7720 C   0  0  0  0  0  3  0  0  0  0  0  0
  161.3360  204.5660  150.6380 C   0  0  2  0  0  3  0  0  0  0  0  0
  160.3230  205.6550  150.9740 C   0  0  0  0  0  2  0  0  0  0  0  0
  161.2860  204.2560  149.1430 C   0  0  0  0  0  2  0  0  0  0  0  0
  161.3560  205.4930  148.2900 C   0  0  0  0  0  0  0  0  0  0  0  0
  160.6870  203.4440  152.6340 O   0  0  0  0  0  1  0  0  0  0  0  0
  161.1810  202.0770  150.8620 O   0  0  0  0  0  0  0  0  0  0  0  0
  161.0580  203.3380  151.4360 C   0  0  0  0  0  0  0  0  0  0  0  0
  162.8900  207.2540  150.9530 O   0  0  0  0  0  0  0  0  0  0  0  0
  161.7540  207.7040  150.9030 C   0  0  0  0  0  0  0  0  0  0  0  0
  162.4430  209.9510  151.2380 O   0  0  0  0  0  1  0  0  0  0  0  0
  161.4390  209.0260  151.5310 C   0  0  2  0  0  3  0  0  0  0  0  0
  160.4360  207.2290  155.9510 N   0  0  0  0  0  1  0  0  0  0  0  0
  160.8170  208.1230  154.9140 C   0  0  0  0  0  0  0  0  0  0  0  0
  161.1210  209.4160  155.1400 N   0  0  0  0  0  0  0  0  0  0  0  0
  161.4110  209.9110  153.9220 C   0  0  0  0  0  2  0  0  0  0  0  0
  161.2740  208.8860  153.0100 C   0  0  0  0  0  0  0  0  0  0  0  0
  160.8870  207.7520  153.6230 N   0  0  0  0  0  0  0  0  0  0  0  0
  161.6890  205.3380  146.9070 N   0  0  0  0  0  2  0  0  0  0  0  0
  162.4010  204.1860  146.3660 C   0  0  0  0  0  2  0  0  0  0  0  0
  161.5400  203.4610  145.3340 C   0  0  2  0  0  3  0  0  0  0  0  0
  160.6620  204.4400  144.5740 C   0  0  0  0  0  1  0  0  0  0  0  0
  160.6760  202.3710  145.9750 C   0  0  2  0  0  3  0  0  0  0  0  0
  160.9250  201.0300  147.7220 C   0  0  0  0  0  1  0  0  0  0  0  0
  161.4680  201.3290  146.4710 O   0  0  0  0  0  0  0  0  0  0  0  0
  160.0300  200.5320  144.5880 O   0  0  0  0  0  1  0  0  0  0  0  0
  159.6610  201.8190  144.9830 C   0  0  0  0  0  2  0  0  0  0  0  0
  1 11  1  1  0  0  0
  1  4  1  0  0  0  0
  2  1  1  0  0  0  0
  3  4  1  0  0  0  0
  3  9  1  1  0  0  0
  5  3  1  0  0  0  0
  6  2  2  0  0  0  0
  6  5  1  0  0  0  0
  8  9  2  0  0  0  0
  9  7  1  0  0  0  0
 11 10  2  0  0  0  0
 11 13  1  0  0  0  0
 13 12  1  1  0  0  0
 13 18  1  0  0  0  0
 15 16  2  0  0  0  0
 15 14  1  0  0  0  0
 17 16  1  0  0  0  0
 18 19  2  0  0  0  0
 18 17  1  0  0  0  0
 19 15  1  0  0  0  0
 20  6  1  0  0  0  0
 21 20  1  0  0  0  0
 22 23  1  1  0  0  0
 22 24  1  0  0  0  0
 22 21  1  0  0  0  0
 24 28  1  6  0  0  0
 24 26  1  0  0  0  0
 26 25  1  0  0  0  0
 27 28  1  0  0  0  0
M  END
>  <MODEL>
2

>  <REMARK>
 VINA RESULT:      -7.0      2.730      8.102
  Name = 
  10 active torsions:
  status: ('A' for Active; 'I' for Inactive)
    1  A    between atoms: C_1  and  C_13
    2  A    between atoms: C_4  and  C_11
    3  A    between atoms: C_4  and  O_25
    4  A    between atoms: C_4  and  C_28
    5  A    between atoms: C_11  and  C_24
    6  A    between atoms: C_13  and  C_23
    7  A    between atoms: C_14  and  C_26
    8  A    between atoms: N_15  and  C_22
    9  A    between atoms: N_15  and  C_24
   10  A    between atoms: C_17  and  C_23
                            x       y       z     vdW  Elec       q    Type
                         _______ _______ _______ _____ _____    ______ ____

>  <TORSDO>
F 10

$$$$
=
 OpenBabel11052410493D

 28 29  0  0  1  0  0  0  0  0999 V2000
  162.0490  207.0000  152.4030 C   0  0  1  0  0  3  0  0  0  0  0  0
  161.4890  205.6030  152.3630 C   0  0  0  0  0  3  0  0  0  0  0  0
  161.2430  207.2400  150.0400 C   0  0  2  0  0  3  0  0  0  0  0  0
  162.3790  207.5450  151.0100 C   0  0  0  0  0  2  0  0  0  0  0  0
  161.0590  205.7290  149.9180 C   0  0  0  0  0  2  0  0  0  0  0  0
  160.9730  205.0430  151.2550 C   0  0  0  0  0  0  0  0  0  0  0  0
  161.3260  207.1660  147.6630 O   0  0  0  0  0  0  0  0  0  0  0  0
  161.9910  209.1480  148.6030 O   0  0  0  0  0  1  0  0  0  0  0  0
  161.5280  207.8410  148.7060 C   0  0  0  0  0  0  0  0  0  0  0  0
  160.4100  208.7080  152.5330 O   0  0  0  0  0  0  0  0  0  0  0  0
  161.1260  207.9240  153.1410 C   0  0  0  0  0  0  0  0  0  0  0  0
  160.1060  206.9880  155.0690 O   0  0  0  0  0  1  0  0  0  0  0  0
  161.0920  207.8760  154.6370 C   0  0  2  0  0  3  0  0  0  0  0  0
  158.9500  211.7750  156.6330 N   0  0  0  0  0  1  0  0  0  0  0  0
  159.9260  210.9290  156.0400 C   0  0  0  0  0  0  0  0  0  0  0  0
  161.1660  211.3530  155.7250 N   0  0  0  0  0  0  0  0  0  0  0  0
  161.7630  210.2740  155.1860 C   0  0  0  0  0  2  0  0  0  0  0  0
  160.8540  209.2370  155.2060 C   0  0  0  0  0  0  0  0  0  0  0  0
  159.6840  209.6410  155.7330 N   0  0  0  0  0  0  0  0  0  0  0  0
  160.4400  203.7160  151.2980 N   0  0  0  0  0  2  0  0  0  0  0  0
  161.0080  202.5880  150.5680 C   0  0  0  0  0  2  0  0  0  0  0  0
  160.3460  202.4480  149.1990 C   0  0  2  0  0  3  0  0  0  0  0  0
  159.3430  201.3070  149.1930 C   0  0  0  0  0  1  0  0  0  0  0  0
  161.3770  202.2450  148.0850 C   0  0  2  0  0  3  0  0  0  0  0  0
  161.3340  203.3430  146.1600 C   0  0  0  0  0  1  0  0  0  0  0  0
  161.7250  203.4650  147.4950 O   0  0  0  0  0  0  0  0  0  0  0  0
  161.5560  200.0830  147.0790 O   0  0  0  0  0  1  0  0  0  0  0  0
  160.8560  201.2890  147.0210 C   0  0  0  0  0  2  0  0  0  0  0  0
  1 11  1  6  0  0  0
  2  1  1  0  0  0  0
  3  9  1  6  0  0  0
  3  4  1  0  0  0  0
  4  1  1  0  0  0  0
  5  3  1  0  0  0  0
  5  6  1  0  0  0  0
  6 20  1  0  0  0  0
  6  2  2  0  0  0  0
  7  9  2  0  0  0  0
  8  9  1  0  0  0  0
 10 11  2  0  0  0  0
 11 13  1  0  0  0  0
 13 12  1  6  0  0  0
 13 18  1  0  0  0  0
 15 14  1  0  0  0  0
 16 15  2  0  0  0  0
 17 18  1  0  0  0  0
 17 16  1  0  0  0  0
 18 19  2  0  0  0  0
 19 15  1  0  0  0  0
 21 20  1  0  0  0  0
 22 23  1  1  0  0  0
 22 21  1  0  0  0  0
 24 28  1  6  0  0  0
 24 22  1  0  0  0  0
 25 26  1  0  0  0  0
 26 24  1  0  0  0  0
 28 27  1  0  0  0  0
M  END
>  <MODEL>
3

>  <REMARK>
 VINA RESULT:      -7.0      2.762      8.118
  Name = 
  10 active torsions:
  status: ('A' for Active; 'I' for Inactive)
    1  A    between atoms: C_1  and  C_13
    2  A    between atoms: C_4  and  C_11
    3  A    between atoms: C_4  and  O_25
    4  A    between atoms: C_4  and  C_28
    5  A    between atoms: C_11  and  C_24
    6  A    between atoms: C_13  and  C_23
    7  A    between atoms: C_14  and  C_26
    8  A    between atoms: N_15  and  C_22
    9  A    between atoms: N_15  and  C_24
   10  A    between atoms: C_17  and  C_23
                            x       y       z     vdW  Elec       q    Type
                         _______ _______ _______ _____ _____    ______ ____

>  <TORSDO>
F 10

$$$$
=
 OpenBabel11052410493D

 28 29  0  0  1  0  0  0  0  0999 V2000
  162.3320  207.0140  149.5460 C   0  0  1  0  0  3  0  0  0  0  0  0
  162.3430  208.4990  149.2900 C   0  0  0  0  0  3  0  0  0  0  0  0
  161.1690  207.5360  151.7050 C   0  0  2  0  0  3  0  0  0  0  0  0
  162.2300  206.6710  151.0340 C   0  0  0  0  0  2  0  0  0  0  0  0
  161.5550  209.0090  151.5910 C   0  0  0  0  0  2  0  0  0  0  0  0
  161.9260  209.4070  150.1880 C   0  0  0  0  0  0  0  0  0  0  0  0
  160.7560  208.0260  153.9960 O   0  0  0  0  0  1  0  0  0  0  0  0
  161.1210  205.8150  153.5210 O   0  0  0  0  0  0  0  0  0  0  0  0
  161.0120  207.1460  153.1350 C   0  0  0  0  0  0  0  0  0  0  0  0
  160.0670  206.5460  149.0290 O   0  0  0  0  0  0  0  0  0  0  0  0
  161.2430  206.3460  148.7590 C   0  0  0  0  0  0  0  0  0  0  0  0
  160.9660  205.8130  146.4630 O   0  0  0  0  0  1  0  0  0  0  0  0
  161.6140  205.4260  147.6380 C   0  0  2  0  0  3  0  0  0  0  0  0
  160.5820  201.3560  150.1170 N   0  0  0  0  0  1  0  0  0  0  0  0
  160.8580  202.2490  149.0460 C   0  0  0  0  0  0  0  0  0  0  0  0
  160.9680  201.8430  147.7660 N   0  0  0  0  0  0  0  0  0  0  0  0
  161.2400  202.9680  147.0780 C   0  0  0  0  0  2  0  0  0  0  0  0
  161.2760  204.0110  147.9790 C   0  0  0  0  0  0  0  0  0  0  0  0
  161.0480  203.5690  149.2290 N   0  0  0  0  0  0  0  0  0  0  0  0
  161.9460  210.8020  149.8680 N   0  0  0  0  0  2  0  0  0  0  0  0
  161.9630  211.3220  148.5060 C   0  0  0  0  0  2  0  0  0  0  0  0
  161.6520  212.8170  148.5000 C   0  0  2  0  0  3  0  0  0  0  0  0
  160.6280  213.1640  149.5680 C   0  0  0  0  0  1  0  0  0  0  0  0
  161.1620  213.2940  147.1300 C   0  0  2  0  0  3  0  0  0  0  0  0
  159.2540  212.6200  146.2240 C   0  0  0  0  0  1  0  0  0  0  0  0
  160.5860  212.2430  146.4080 O   0  0  0  0  0  0  0  0  0  0  0  0
  162.5420  213.1480  145.1820 O   0  0  0  0  0  1  0  0  0  0  0  0
  162.2960  213.9120  146.3240 C   0  0  0  0  0  2  0  0  0  0  0  0
  1 11  1  6  0  0  0
  1  4  1  0  0  0  0
  2  1  1  0  0  0  0
  2  6  2  0  0  0  0
  3  9  1  1  0  0  0
  4  3  1  0  0  0  0
  5  3  1  0  0  0  0
  6  5  1  0  0  0  0
  9  8  2  0  0  0  0
  9  7  1  0  0  0  0
 11 10  2  0  0  0  0
 13 12  1  6  0  0  0
 13 18  1  0  0  0  0
 13 11  1  0  0  0  0
 15 19  1  0  0  0  0
 15 14  1  0  0  0  0
 16 15  2  0  0  0  0
 17 16  1  0  0  0  0
 17 18  1  0  0  0  0
 18 19  2  0  0  0  0
 20  6  1  0  0  0  0
 21 20  1  0  0  0  0
 22 21  1  0  0  0  0
 22 23  1  1  0  0  0
 24 28  1  6  0  0  0
 24 22  1  0  0  0  0
 25 26  1  0  0  0  0
 26 24  1  0  0  0  0
 27 28  1  0  0  0  0
M  END
>  <MODEL>
4

>  <REMARK>
 VINA RESULT:      -6.8      3.111      5.382
  Name = 
  10 active torsions:
  status: ('A' for Active; 'I' for Inactive)
    1  A    between atoms: C_1  and  C_13
    2  A    between atoms: C_4  and  C_11
    3  A    between atoms: C_4  and  O_25
    4  A    between atoms: C_4  and  C_28
    5  A    between atoms: C_11  and  C_24
    6  A    between atoms: C_13  and  C_23
    7  A    between atoms: C_14  and  C_26
    8  A    between atoms: N_15  and  C_22
    9  A    between atoms: N_15  and  C_24
   10  A    between atoms: C_17  and  C_23
                            x       y       z     vdW  Elec       q    Type
                         _______ _______ _______ _____ _____    ______ ____

>  <TORSDO>
F 10

$$$$
=
 OpenBabel11052410493D

 28 29  0  0  1  0  0  0  0  0999 V2000
  162.0900  206.1950  150.6430 C   0  0  1  0  0  3  0  0  0  0  0  0
  162.2490  207.3640  149.7060 C   0  0  0  0  0  3  0  0  0  0  0  0
  161.0730  207.8140  152.2640 C   0  0  2  0  0  3  0  0  0  0  0  0
  162.0100  206.6210  152.1110 C   0  0  0  0  0  2  0  0  0  0  0  0
  161.6080  208.9990  151.4640 C   0  0  0  0  0  2  0  0  0  0  0  0
  161.9650  208.6320  150.0490 C   0  0  0  0  0  0  0  0  0  0  0  0
  160.7440  207.2730  154.5580 O   0  0  0  0  0  1  0  0  0  0  0  0
  161.0240  209.5020  154.1120 O   0  0  0  0  0  0  0  0  0  0  0  0
  160.9300  208.1770  153.7030 C   0  0  0  0  0  0  0  0  0  0  0  0
  160.0630  205.7910  149.4840 O   0  0  0  0  0  0  0  0  0  0  0  0
  160.9080  205.3580  150.2550 C   0  0  0  0  0  0  0  0  0  0  0  0
  161.7580  203.7600  151.7900 O   0  0  0  0  0  1  0  0  0  0  0  0
  160.7710  203.9810  150.8270 C   0  0  2  0  0  3  0  0  0  0  0  0
  160.9550  201.8140  146.4630 N   0  0  0  0  0  1  0  0  0  0  0  0
  160.9040  202.0100  147.8700 C   0  0  0  0  0  0  0  0  0  0  0  0
  160.8250  200.9900  148.7480 N   0  0  0  0  0  0  0  0  0  0  0  0
  160.7880  201.5870  149.9540 C   0  0  0  0  0  2  0  0  0  0  0  0
  160.8530  202.9490  149.7500 C   0  0  0  0  0  0  0  0  0  0  0  0
  160.9150  203.2310  148.4360 N   0  0  0  0  0  0  0  0  0  0  0  0
  162.1210  209.6900  149.0980 N   0  0  0  0  0  2  0  0  0  0  0  0
  162.0170  211.1050  149.4340 C   0  0  0  0  0  2  0  0  0  0  0  0
  161.9620  211.9530  148.1650 C   0  0  2  0  0  3  0  0  0  0  0  0
  163.3440  212.4550  147.7850 C   0  0  0  0  0  1  0  0  0  0  0  0
  160.9970  213.1330  148.3080 C   0  0  2  0  0  3  0  0  0  0  0  0
  159.2460  213.6780  149.5540 C   0  0  0  0  0  1  0  0  0  0  0  0
  160.5840  213.2870  149.6360 O   0  0  0  0  0  0  0  0  0  0  0  0
  160.0830  212.0960  146.3560 O   0  0  0  0  0  1  0  0  0  0  0  0
  159.7810  212.9620  147.4070 C   0  0  0  0  0  2  0  0  0  0  0  0
  1 11  1  6  0  0  0
  1  4  1  0  0  0  0
  2  6  2  0  0  0  0
  2  1  1  0  0  0  0
  3  9  1  1  0  0  0
  4  3  1  0  0  0  0
  5  3  1  0  0  0  0
  6  5  1  0  0  0  0
  9  8  2  0  0  0  0
  9  7  1  0  0  0  0
 10 11  2  0  0  0  0
 11 13  1  0  0  0  0
 13 12  1  1  0  0  0
 14 15  1  0  0  0  0
 15 19  1  0  0  0  0
 15 16  2  0  0  0  0
 16 17  1  0  0  0  0
 18 17  1  0  0  0  0
 18 13  1  0  0  0  0
 19 18  2  0  0  0  0
 20 21  1  0  0  0  0
 20  6  1  0  0  0  0
 22 23  1  1  0  0  0
 22 24  1  0  0  0  0
 22 21  1  0  0  0  0
 24 28  1  6  0  0  0
 24 26  1  0  0  0  0
 25 26  1  0  0  0  0
 27 28  1  0  0  0  0
M  END
>  <MODEL>
5

>  <REMARK>
 VINA RESULT:      -6.8      2.735      4.791
  Name = 
  10 active torsions:
  status: ('A' for Active; 'I' for Inactive)
    1  A    between atoms: C_1  and  C_13
    2  A    between atoms: C_4  and  C_11
    3  A    between atoms: C_4  and  O_25
    4  A    between atoms: C_4  and  C_28
    5  A    between atoms: C_11  and  C_24
    6  A    between atoms: C_13  and  C_23
    7  A    between atoms: C_14  and  C_26
    8  A    between atoms: N_15  and  C_22
    9  A    between atoms: N_15  and  C_24
   10  A    between atoms: C_17  and  C_23
                            x       y       z     vdW  Elec       q    Type
                         _______ _______ _______ _____ _____    ______ ____

>  <TORSDO>
F 10

$$$$
=
 OpenBabel11052410493D

 28 29  0  0  1  0  0  0  0  0999 V2000
  160.3610  204.6770  150.9900 C   0  0  1  0  0  3  0  0  0  0  0  0
  160.6430  205.1280  152.4000 C   0  0  0  0  0  3  0  0  0  0  0  0
  161.8190  206.5730  150.2400 C   0  0  2  0  0  3  0  0  0  0  0  0
  160.5350  205.7990  149.9640 C   0  0  0  0  0  2  0  0  0  0  0  0
  161.7490  207.2150  151.6240 C   0  0  0  0  0  2  0  0  0  0  0  0
  161.3340  206.2420  152.6960 C   0  0  0  0  0  0  0  0  0  0  0  0
  161.9560  208.8300  149.5000 O   0  0  0  0  0  1  0  0  0  0  0  0
  162.3360  207.2490  147.8860 O   0  0  0  0  0  0  0  0  0  0  0  0
  162.0320  207.6120  149.1930 C   0  0  0  0  0  0  0  0  0  0  0  0
  162.3310  203.3630  151.0760 O   0  0  0  0  0  0  0  0  0  0  0  0
  161.1960  203.4820  150.6360 C   0  0  0  0  0  0  0  0  0  0  0  0
  161.0440  201.1670  150.1360 O   0  0  0  0  0  1  0  0  0  0  0  0
  160.6230  202.4360  149.7320 C   0  0  2  0  0  3  0  0  0  0  0  0
  162.2360  204.5810  145.6610 N   0  0  0  0  0  1  0  0  0  0  0  0
  161.6840  203.6190  146.5510 C   0  0  0  0  0  0  0  0  0  0  0  0
  161.2060  202.4290  146.1360 N   0  0  0  0  0  0  0  0  0  0  0  0
  160.7720  201.8300  147.2600 C   0  0  0  0  0  2  0  0  0  0  0  0
  161.0160  202.6880  148.3120 C   0  0  0  0  0  0  0  0  0  0  0  0
  161.5810  203.8280  147.8760 N   0  0  0  0  0  0  0  0  0  0  0  0
  161.5810  206.5980  154.0590 N   0  0  0  0  0  2  0  0  0  0  0  0
  160.6300  207.3210  154.8960 C   0  0  0  0  0  2  0  0  0  0  0  0
  161.2170  208.6590  155.3410 C   0  0  2  0  0  3  0  0  0  0  0  0
  161.3600  208.7150  156.8520 C   0  0  0  0  0  1  0  0  0  0  0  0
  160.3780  209.8420  154.8500 C   0  0  2  0  0  3  0  0  0  0  0  0
  160.7720  210.6240  152.8130 C   0  0  0  0  0  1  0  0  0  0  0  0
  161.1660  210.7590  154.1460 O   0  0  0  0  0  0  0  0  0  0  0  0
  158.3260  210.7030  155.7270 O   0  0  0  0  0  1  0  0  0  0  0  0
  159.6840  210.5430  156.0090 C   0  0  0  0  0  2  0  0  0  0  0  0
  1 11  1  6  0  0  0
  1  2  1  0  0  0  0
  2  6  2  0  0  0  0
  3  9  1  6  0  0  0
  3  5  1  0  0  0  0
  4  3  1  0  0  0  0
  4  1  1  0  0  0  0
  5  6  1  0  0  0  0
  6 20  1  0  0  0  0
  8  9  2  0  0  0  0
  9  7  1  0  0  0  0
 11 10  2  0  0  0  0
 13 12  1  1  0  0  0
 13 11  1  0  0  0  0
 14 15  1  0  0  0  0
 15 19  1  0  0  0  0
 16 15  2  0  0  0  0
 16 17  1  0  0  0  0
 17 18  1  0  0  0  0
 18 13  1  0  0  0  0
 19 18  2  0  0  0  0
 20 21  1  0  0  0  0
 21 22  1  0  0  0  0
 22 23  1  1  0  0  0
 24 22  1  0  0  0  0
 24 28  1  1  0  0  0
 25 26  1  0  0  0  0
 26 24  1  0  0  0  0
 27 28  1  0  0  0  0
M  END
>  <MODEL>
6

>  <REMARK>
 VINA RESULT:      -6.7      1.956      2.813
  Name = 
  10 active torsions:
  status: ('A' for Active; 'I' for Inactive)
    1  A    between atoms: C_1  and  C_13
    2  A    between atoms: C_4  and  C_11
    3  A    between atoms: C_4  and  O_25
    4  A    between atoms: C_4  and  C_28
    5  A    between atoms: C_11  and  C_24
    6  A    between atoms: C_13  and  C_23
    7  A    between atoms: C_14  and  C_26
    8  A    between atoms: N_15  and  C_22
    9  A    between atoms: N_15  and  C_24
   10  A    between atoms: C_17  and  C_23
                            x       y       z     vdW  Elec       q    Type
                         _______ _______ _______ _____ _____    ______ ____

>  <TORSDO>
F 10

$$$$
=
 OpenBabel11052410493D

 28 29  0  0  1  0  0  0  0  0999 V2000
  160.5280  206.3810  150.1290 C   0  0  1  0  0  3  0  0  0  0  0  0
  161.2010  207.6950  150.4270 C   0  0  0  0  0  3  0  0  0  0  0  0
  161.7220  206.4300  147.9240 C   0  0  2  0  0  3  0  0  0  0  0  0
  160.4090  206.1050  148.6270 C   0  0  0  0  0  2  0  0  0  0  0  0
  162.0500  207.9110  148.1010 C   0  0  0  0  0  2  0  0  0  0  0  0
  161.9520  208.3620  149.5340 C   0  0  0  0  0  0  0  0  0  0  0  0
  160.5790  206.3410  145.8390 O   0  0  0  0  0  1  0  0  0  0  0  0
  162.7110  205.5020  145.8200 O   0  0  0  0  0  0  0  0  0  0  0  0
  161.6330  206.0840  146.4770 C   0  0  0  0  0  0  0  0  0  0  0  0
  162.4030  205.3450  151.1420 O   0  0  0  0  0  0  0  0  0  0  0  0
  161.2230  205.2540  150.8340 C   0  0  0  0  0  0  0  0  0  0  0  0
  160.7590  203.5740  152.4450 O   0  0  0  0  0  1  0  0  0  0  0  0
  160.4530  204.0110  151.1550 C   0  0  2  0  0  3  0  0  0  0  0  0
  160.8890  201.5320  146.9780 N   0  0  0  0  0  1  0  0  0  0  0  0
  160.9050  201.8550  148.3630 C   0  0  0  0  0  0  0  0  0  0  0  0
  161.2060  200.9550  149.3190 N   0  0  0  0  0  0  0  0  0  0  0  0
  161.0990  201.6420  150.4720 C   0  0  0  0  0  2  0  0  0  0  0  0
  160.7420  202.9360  150.1580 C   0  0  0  0  0  0  0  0  0  0  0  0
  160.6040  203.0810  148.8280 N   0  0  0  0  0  0  0  0  0  0  0  0
  162.5780  209.5960  149.8950 N   0  0  0  0  0  2  0  0  0  0  0  0
  161.8670  210.8640  150.0150 C   0  0  0  0  0  2  0  0  0  0  0  0
  161.9160  211.6320  148.6970 C   0  0  2  0  0  3  0  0  0  0  0  0
  163.3510  211.8730  148.2600 C   0  0  0  0  0  1  0  0  0  0  0  0
  161.1640  212.9630  148.7830 C   0  0  2  0  0  3  0  0  0  0  0  0
  159.3850  213.9280  149.6880 C   0  0  0  0  0  1  0  0  0  0  0  0
  160.4350  213.0520  149.9740 O   0  0  0  0  0  0  0  0  0  0  0  0
  160.3270  212.0490  146.7380 O   0  0  0  0  0  1  0  0  0  0  0  0
  160.2320  213.1470  147.5940 C   0  0  0  0  0  2  0  0  0  0  0  0
  1  2  1  0  0  0  0
  1 11  1  1  0  0  0
  3  9  1  6  0  0  0
  3  5  1  0  0  0  0
  3  4  1  0  0  0  0
  4  1  1  0  0  0  0
  5  6  1  0  0  0  0
  6 20  1  0  0  0  0
  6  2  2  0  0  0  0
  7  9  1  0  0  0  0
  8  9  2  0  0  0  0
 11 10  2  0  0  0  0
 11 13  1  0  0  0  0
 13 12  1  1  0  0  0
 14 15  1  0  0  0  0
 15 19  1  0  0  0  0
 15 16  2  0  0  0  0
 16 17  1  0  0  0  0
 18 17  1  0  0  0  0
 18 13  1  0  0  0  0
 19 18  2  0  0  0  0
 20 21  1  0  0  0  0
 22 23  1  1  0  0  0
 22 24  1  0  0  0  0
 22 21  1  0  0  0  0
 24 28  1  6  0  0  0
 24 26  1  0  0  0  0
 25 26  1  0  0  0  0
 27 28  1  0  0  0  0
M  END
>  <MODEL>
7

>  <REMARK>
 VINA RESULT:      -6.7      2.433      3.565
  Name = 
  10 active torsions:
  status: ('A' for Active; 'I' for Inactive)
    1  A    between atoms: C_1  and  C_13
    2  A    between atoms: C_4  and  C_11
    3  A    between atoms: C_4  and  O_25
    4  A    between atoms: C_4  and  C_28
    5  A    between atoms: C_11  and  C_24
    6  A    between atoms: C_13  and  C_23
    7  A    between atoms: C_14  and  C_26
    8  A    between atoms: N_15  and  C_22
    9  A    between atoms: N_15  and  C_24
   10  A    between atoms: C_17  and  C_23
                            x       y       z     vdW  Elec       q    Type
                         _______ _______ _______ _____ _____    ______ ____

>  <TORSDO>
F 10

$$$$
=
 OpenBabel11052410493D

 28 29  0  0  1  0  0  0  0  0999 V2000
  162.4430  207.3450  149.9750 C   0  0  1  0  0  3  0  0  0  0  0  0
  162.0760  208.7710  150.2910 C   0  0  0  0  0  3  0  0  0  0  0  0
  161.1860  206.7100  152.0490 C   0  0  2  0  0  3  0  0  0  0  0  0
  162.4320  206.4440  151.2120 C   0  0  0  0  0  2  0  0  0  0  0  0
  161.1850  208.1600  152.5290 C   0  0  0  0  0  2  0  0  0  0  0  0
  161.4420  209.1410  151.4170 C   0  0  0  0  0  0  0  0  0  0  0  0
  161.1070  206.2370  154.3800 O   0  0  0  0  0  1  0  0  0  0  0  0
  161.0880  204.4000  153.0100 O   0  0  0  0  0  0  0  0  0  0  0  0
  161.1330  205.7760  153.2100 C   0  0  0  0  0  0  0  0  0  0  0  0
  160.3650  207.0530  148.8740 O   0  0  0  0  0  0  0  0  0  0  0  0
  161.5600  206.7940  148.8950 C   0  0  0  0  0  0  0  0  0  0  0  0
  161.9120  206.4520  146.5730 O   0  0  0  0  0  1  0  0  0  0  0  0
  162.1610  205.9200  147.8390 C   0  0  2  0  0  3  0  0  0  0  0  0
  160.4310  201.7090  149.5860 N   0  0  0  0  0  1  0  0  0  0  0  0
  160.9040  202.7020  148.6860 C   0  0  0  0  0  0  0  0  0  0  0  0
  161.0710  202.4750  147.3690 N   0  0  0  0  0  0  0  0  0  0  0  0
  161.5370  203.6400  146.8830 C   0  0  0  0  0  2  0  0  0  0  0  0
  161.6240  204.5280  147.9340 C   0  0  0  0  0  0  0  0  0  0  0  0
  161.2380  203.9440  149.0830 N   0  0  0  0  0  0  0  0  0  0  0  0
  161.1070  210.5130  151.6400 N   0  0  0  0  0  2  0  0  0  0  0  0
  160.8500  211.0830  152.9580 C   0  0  0  0  0  2  0  0  0  0  0  0
  159.6090  211.9710  152.9250 C   0  0  2  0  0  3  0  0  0  0  0  0
  159.6600  212.9350  151.7520 C   0  0  0  0  0  1  0  0  0  0  0  0
  159.4260  212.7460  154.2320 C   0  0  2  0  0  3  0  0  0  0  0  0
  159.9820  213.0200  156.3600 C   0  0  0  0  0  1  0  0  0  0  0  0
  160.1860  212.1820  155.2620 O   0  0  0  0  0  0  0  0  0  0  0  0
  157.3580  211.5580  154.4140 O   0  0  0  0  0  1  0  0  0  0  0  0
  157.9600  212.7960  154.6420 C   0  0  0  0  0  2  0  0  0  0  0  0
  1 11  1  6  0  0  0
  1  2  1  0  0  0  0
  1  4  1  0  0  0  0
  2  6  2  0  0  0  0
  3  5  1  0  0  0  0
  3  9  1  1  0  0  0
  4  3  1  0  0  0  0
  6 20  1  0  0  0  0
  6  5  1  0  0  0  0
  8  9  2  0  0  0  0
  9  7  1  0  0  0  0
 10 11  2  0  0  0  0
 13 12  1  6  0  0  0
 13 18  1  0  0  0  0
 13 11  1  0  0  0  0
 15 19  1  0  0  0  0
 15 14  1  0  0  0  0
 16 15  2  0  0  0  0
 17 16  1  0  0  0  0
 17 18  1  0  0  0  0
 18 19  2  0  0  0  0
 20 21  1  0  0  0  0
 22 23  1  6  0  0  0
 22 21  1  0  0  0  0
 22 24  1  0  0  0  0
 24 28  1  1  0  0  0
 24 26  1  0  0  0  0
 26 25  1  0  0  0  0
 27 28  1  0  0  0  0
M  END
>  <MODEL>
8

>  <REMARK>
 VINA RESULT:      -6.6      2.015      4.112
  Name = 
  10 active torsions:
  status: ('A' for Active; 'I' for Inactive)
    1  A    between atoms: C_1  and  C_13
    2  A    between atoms: C_4  and  C_11
    3  A    between atoms: C_4  and  O_25
    4  A    between atoms: C_4  and  C_28
    5  A    between atoms: C_11  and  C_24
    6  A    between atoms: C_13  and  C_23
    7  A    between atoms: C_14  and  C_26
    8  A    between atoms: N_15  and  C_22
    9  A    between atoms: N_15  and  C_24
   10  A    between atoms: C_17  and  C_23
                            x       y       z     vdW  Elec       q    Type
                         _______ _______ _______ _____ _____    ______ ____

>  <TORSDO>
F 10

$$$$
=
 OpenBabel11052410493D

 28 29  0  0  1  0  0  0  0  0999 V2000
  162.1810  206.9970  150.5720 C   0  0  1  0  0  3  0  0  0  0  0  0
  162.3310  208.3920  150.0210 C   0  0  0  0  0  3  0  0  0  0  0  0
  161.0080  208.0460  152.5240 C   0  0  2  0  0  3  0  0  0  0  0  0
  162.0070  206.9780  152.0930 C   0  0  0  0  0  2  0  0  0  0  0  0
  161.5260  209.4280  152.1320 C   0  0  0  0  0  2  0  0  0  0  0  0
  161.9700  209.4970  150.6950 C   0  0  0  0  0  0  0  0  0  0  0  0
  160.6500  209.0340  154.6590 O   0  0  0  0  0  1  0  0  0  0  0  0
  160.6750  206.7430  154.6350 O   0  0  0  0  0  0  0  0  0  0  0  0
  160.7770  207.9730  153.9950 C   0  0  0  0  0  0  0  0  0  0  0  0
  160.2770  206.8730  149.1670 O   0  0  0  0  0  0  0  0  0  0  0  0
  161.0600  206.2720  149.8880 C   0  0  0  0  0  0  0  0  0  0  0  0
  161.8000  204.3600  151.0850 O   0  0  0  0  0  1  0  0  0  0  0  0
  160.9100  204.7980  150.1030 C   0  0  2  0  0  3  0  0  0  0  0  0
  161.8990  203.7260  145.4500 N   0  0  0  0  0  1  0  0  0  0  0  0
  161.5320  203.5890  146.8160 C   0  0  0  0  0  0  0  0  0  0  0  0
  161.1280  202.4200  147.3510 N   0  0  0  0  0  0  0  0  0  0  0  0
  160.8670  202.7110  148.6390 C   0  0  0  0  0  2  0  0  0  0  0  0
  161.1330  204.0510  148.8270 C   0  0  0  0  0  0  0  0  0  0  0  0
  161.5430  204.6210  147.6800 N   0  0  0  0  0  0  0  0  0  0  0  0
  162.1230  210.7880  150.1000 N   0  0  0  0  0  2  0  0  0  0  0  0
  161.8500  211.0730  148.6950 C   0  0  0  0  0  2  0  0  0  0  0  0
  161.6190  212.5690  148.4880 C   0  0  2  0  0  3  0  0  0  0  0  0
  160.7100  213.1340  149.5650 C   0  0  0  0  0  1  0  0  0  0  0  0
  161.0410  212.8700  147.1030 C   0  0  2  0  0  3  0  0  0  0  0  0
  159.8430  212.1890  145.3660 C   0  0  0  0  0  1  0  0  0  0  0  0
  160.2390  211.8160  146.6520 O   0  0  0  0  0  0  0  0  0  0  0  0
  162.6090  214.4530  146.2340 O   0  0  0  0  0  1  0  0  0  0  0  0
  162.1460  213.1440  146.0920 C   0  0  0  0  0  2  0  0  0  0  0  0
  1 11  1  6  0  0  0
  1  4  1  0  0  0  0
  2  1  1  0  0  0  0
  2  6  2  0  0  0  0
  3  9  1  1  0  0  0
  4  3  1  0  0  0  0
  5  3  1  0  0  0  0
  6  5  1  0  0  0  0
  9  8  2  0  0  0  0
  9  7  1  0  0  0  0
 10 11  2  0  0  0  0
 11 13  1  0  0  0  0
 13 12  1  1  0  0  0
 14 15  1  0  0  0  0
 15 16  2  0  0  0  0
 15 19  1  0  0  0  0
 16 17  1  0  0  0  0
 17 18  1  0  0  0  0
 18 13  1  0  0  0  0
 19 18  2  0  0  0  0
 20  6  1  0  0  0  0
 21 20  1  0  0  0  0
 22 21  1  0  0  0  0
 22 23  1  1  0  0  0
 24 28  1  6  0  0  0
 24 22  1  0  0  0  0
 25 26  1  0  0  0  0
 26 24  1  0  0  0  0
 28 27  1  0  0  0  0
M  END
>  <MODEL>
9

>  <REMARK>
 VINA RESULT:      -6.5      3.142      5.320
  Name = 
  10 active torsions:
  status: ('A' for Active; 'I' for Inactive)
    1  A    between atoms: C_1  and  C_13
    2  A    between atoms: C_4  and  C_11
    3  A    between atoms: C_4  and  O_25
    4  A    between atoms: C_4  and  C_28
    5  A    between atoms: C_11  and  C_24
    6  A    between atoms: C_13  and  C_23
    7  A    between atoms: C_14  and  C_26
    8  A    between atoms: N_15  and  C_22
    9  A    between atoms: N_15  and  C_24
   10  A    between atoms: C_17  and  C_23
                            x       y       z     vdW  Elec       q    Type
                         _______ _______ _______ _____ _____    ______ ____

>  <TORSDO>
F 10

$$$$
