=
 OpenBabel11042420183D

 51 56  0  0  1  0  0  0  0  0999 V2000
  162.4900  204.1840  147.1910 C   0  0  0  0  0  3  0  0  0  0  0  0
  160.9080  203.9200  145.2660 C   0  0  0  0  0  0  0  0  0  0  0  0
  159.8520  203.1250  144.5610 C   0  0  0  0  0  1  0  0  0  0  0  0
  161.4990  203.4250  146.3880 C   0  0  0  0  0  0  0  0  0  0  0  0
  161.5080  206.3940  146.7230 C   0  0  0  0  0  2  0  0  0  0  0  0
  161.2780  205.2520  143.1760 N   0  0  0  0  0  2  0  0  0  0  0  0
  162.5290  205.5050  147.3370 C   0  0  0  0  0  3  0  0  0  0  0  0
  161.5640  206.2820  145.2750 N   0  0  0  0  0  0  0  0  0  0  0  0
  161.2980  205.1980  144.6070 C   0  0  0  0  0  0  0  0  0  0  0  0
  160.5610  202.0820  148.3940 C   0  0  2  0  0  0  0  0  0  0  0  0
  161.0770  202.0810  146.9520 C   0  0  2  0  0  3  0  0  0  0  0  0
  161.9790  201.6540  148.1130 C   0  0  0  0  0  2  0  0  0  0  0  0
  159.7050  201.0110  148.6960 O   0  0  0  0  0  0  0  0  0  0  0  0
  158.5860  201.5500  149.1430 O   0  0  0  0  0  1  0  0  0  0  0  0
  160.4570  203.3510  149.2390 C   0  0  0  0  0  2  0  0  0  0  0  0
  161.0800  203.1210  150.6060 C   0  0  0  0  0  2  0  0  0  0  0  0
  161.0960  206.7650  152.8680 C   0  0  0  0  0  0  0  0  0  0  0  0
  161.0790  204.3810  151.3970 C   0  0  0  0  0  0  0  0  0  0  0  0
  160.9670  205.6130  150.7420 C   0  0  0  0  0  3  0  0  0  0  0  0
  161.1990  205.5280  153.5260 C   0  0  0  0  0  3  0  0  0  0  0  0
  160.9770  206.8010  151.4750 C   0  0  0  0  0  3  0  0  0  0  0  0
  161.1900  204.3390  152.7910 C   0  0  0  0  0  3  0  0  0  0  0  0
  161.1310  208.0620  153.6300 C   0  0  2  0  0  3  0  0  0  0  0  0
  159.6190  208.8510  155.4610 C   0  0  0  0  0  2  0  0  0  0  0  0
  160.2060  209.8910  156.1970 O   0  0  0  0  0  0  0  0  0  0  0  0
  161.8070  208.3020  156.0230 C   0  0  0  0  0  2  0  0  0  0  0  0
  160.7090  207.8780  155.0930 C   0  0  2  0  0  3  0  0  0  0  0  0
  161.2290  209.3150  156.8870 N   0  0  0  0  0  2  0  0  0  0  0  0
  160.2630  209.1170  152.9430 C   0  0  0  0  0  2  0  0  0  0  0  0
  161.9520  210.2880  151.7330 O   0  0  0  0  0  0  0  0  0  0  0  0
  161.0590  210.3370  152.6180 C   0  0  0  0  0  0  0  0  0  0  0  0
  160.8000  211.5570  153.2990 N   0  0  0  0  0  1  0  0  0  0  0  0
  161.6540  206.4440  142.4300 C   0  0  0  0  0  2  0  0  0  0  0  0
  161.9750  206.0720  140.9930 C   0  0  0  0  0  2  0  0  0  0  0  0
  162.5650  207.2750  140.2740 C   0  0  0  0  0  2  0  0  0  0  0  0
  161.5440  207.9020  139.3320 C   0  0  0  0  0  2  0  0  0  0  0  0
  161.6950  209.4130  139.1330 C   0  0  0  0  0  0  0  0  0  0  0  0
  160.6770  210.2160  138.3400 C   0  0  0  0  0  2  0  0  0  0  0  0
  161.9730  209.7590  137.6850 C   0  0  0  0  0  2  0  0  0  0  0  0
  162.6340  210.1710  140.0580 C   0  0  0  0  0  2  0  0  0  0  0  0
  162.1640  211.6030  140.2450 C   0  0  2  0  0  3  0  0  0  0  0  0
  163.1230  212.4720  139.7330 O   0  0  0  0  0  1  0  0  0  0  0  0
  161.9580  211.8940  141.7230 C   0  0  0  0  0  2  0  0  0  0  0  0
  159.7730  212.7600  141.7670 C   0  0  2  0  0  3  0  0  0  0  0  0
  159.0260  213.3960  142.9170 C   0  0  0  0  0  2  0  0  0  0  0  0
  161.3890  213.5910  143.2470 C   0  0  0  0  0  2  0  0  0  0  0  0
  161.1840  213.1180  141.8810 N   0  0  0  0  0  0  0  0  0  0  0  0
  160.0690  213.5220  143.9920 C   0  0  0  0  0  2  0  0  0  0  0  0
  159.2010  213.1820  140.4140 C   0  0  0  0  0  2  0  0  0  0  0  0
  157.1690  212.1570  139.4410 C   0  0  0  0  0  1  0  0  0  0  0  0
  157.6830  213.2000  140.4130 C   0  0  0  0  0  2  0  0  0  0  0  0
  1  7  2  0  0  0  0
  2  4  2  0  0  0  0
  3  2  1  0  0  0  0
  4  1  1  0  0  0  0
  5  7  1  0  0  0  0
  6  9  1  0  0  0  0
  8  5  1  0  0  0  0
  9  2  1  0  0  0  0
  9  8  2  0  0  0  0
 10 13  1  0  0  0  0
 10 15  1  1  0  0  0
 11  4  1  1  0  0  0
 11 12  1  0  0  0  0
 11 10  1  0  0  0  0
 12 10  1  0  0  0  0
 13 14  1  0  0  0  0
 15 16  1  0  0  0  0
 16 18  1  0  0  0  0
 17 20  1  0  0  0  0
 17 23  1  0  0  0  0
 18 22  1  0  0  0  0
 19 18  2  0  0  0  0
 19 21  1  0  0  0  0
 21 17  2  0  0  0  0
 22 20  2  0  0  0  0
 23 29  1  6  0  0  0
 24 25  1  0  0  0  0
 25 28  1  0  0  0  0
 26 28  1  0  0  0  0
 27 23  1  6  0  0  0
 27 24  1  0  0  0  0
 27 26  1  0  0  0  0
 30 31  2  0  0  0  0
 31 29  1  0  0  0  0
 31 32  1  0  0  0  0
 33  6  1  0  0  0  0
 34 33  1  0  0  0  0
 35 34  1  0  0  0  0
 36 35  1  0  0  0  0
 37 36  1  0  0  0  0
 37 40  1  0  0  0  0
 38 37  1  0  0  0  0
 39 38  1  0  0  0  0
 39 37  1  0  0  0  0
 40 41  1  0  0  0  0
 41 42  1  1  0  0  0
 41 43  1  0  0  0  0
 43 47  1  0  0  0  0
 44 49  1  6  0  0  0
 44 47  1  0  0  0  0
 44 45  1  0  0  0  0
 45 48  1  0  0  0  0
 46 48  1  0  0  0  0
 47 46  1  0  0  0  0
 50 51  1  0  0  0  0
 51 49  1  0  0  0  0
M  END
>  <MODEL>
1

>  <REMARK>
 VINA RESULT:      -6.0      0.000      0.000
  Name = 
  20 active torsions:
  status: ('A' for Active; 'I' for Inactive)
    1  A    between atoms: C_1  and  C_14
    2  A    between atoms: C_1  and  C_34
    3  A    between atoms: C_2  and  C_14
    4  A    between atoms: C_3  and  C_9
    5  A    between atoms: C_3  and  C_37
    6  A    between atoms: C_5  and  C_16
    7  A    between atoms: C_6  and  C_13
    8  A    between atoms: C_6  and  C_43
    9  A    between atoms: C_7  and  C_37
   10  A    between atoms: C_7  and  C_49
   11  A    between atoms: C_9  and  C_17
   12  A    between atoms: C_12  and  C_17
   13  A    between atoms: C_12  and  N_42
   14  A    between atoms: C_14  and  C_45
   15  A    between atoms: C_16  and  C_39
   16  A    between atoms: C_20  and  O_33
   17  A    between atoms: C_20  and  C_43
   18  A    between atoms: C_21  and  C_28
   19  A    between atoms: N_30  and  C_35
   20  A    between atoms: C_35  and  C_49
                            x       y       z     vdW  Elec       q    Type
                         _______ _______ _______ _____ _____    ______ ____

>  <TORSDO>
F 20

$$$$
=
 OpenBabel11042420183D

 51 56  0  0  1  0  0  0  0  0999 V2000
  158.4810  212.3880  155.3020 C   0  0  0  0  0  3  0  0  0  0  0  0
  160.3770  211.7650  153.7870 C   0  0  0  0  0  0  0  0  0  0  0  0
  161.7460  211.1850  153.6010 C   0  0  0  0  0  1  0  0  0  0  0  0
  159.8590  211.9020  155.0380 C   0  0  0  0  0  0  0  0  0  0  0  0
  157.5130  211.4330  153.2490 C   0  0  0  0  0  2  0  0  0  0  0  0
  160.5210  212.7940  151.5080 N   0  0  0  0  0  2  0  0  0  0  0  0
  157.4270  212.2110  154.5120 C   0  0  0  0  0  3  0  0  0  0  0  0
  158.4310  212.0840  152.3310 N   0  0  0  0  0  0  0  0  0  0  0  0
  159.7050  212.2380  152.5450 C   0  0  0  0  0  0  0  0  0  0  0  0
  160.7580  209.9320  156.4600 C   0  0  2  0  0  0  0  0  0  0  0  0
  160.6470  211.4460  156.2530 C   0  0  2  0  0  3  0  0  0  0  0  0
  159.7500  210.7190  157.2600 C   0  0  0  0  0  2  0  0  0  0  0  0
  161.8780  209.5380  157.2080 O   0  0  0  0  0  0  0  0  0  0  0  0
  162.9350  209.9370  156.5250 O   0  0  0  0  0  1  0  0  0  0  0  0
  160.1290  208.9150  155.5080 C   0  0  0  0  0  2  0  0  0  0  0  0
  160.9730  207.6510  155.4610 C   0  0  0  0  0  2  0  0  0  0  0  0
  161.0610  206.0220  151.4950 C   0  0  0  0  0  0  0  0  0  0  0  0
  160.9950  207.0920  154.0830 C   0  0  0  0  0  0  0  0  0  0  0  0
  161.1280  205.7120  153.8960 C   0  0  0  0  0  3  0  0  0  0  0  0
  160.9180  207.4070  151.6840 C   0  0  0  0  0  3  0  0  0  0  0  0
  161.1620  205.1790  152.6050 C   0  0  0  0  0  3  0  0  0  0  0  0
  160.8840  207.9400  152.9760 C   0  0  0  0  0  3  0  0  0  0  0  0
  161.1270  205.4230  150.1160 C   0  0  2  0  0  3  0  0  0  0  0  0
  160.7250  205.8170  147.6770 C   0  0  0  0  0  2  0  0  0  0  0  0
  161.9310  205.9670  146.9780 O   0  0  0  0  0  0  0  0  0  0  0  0
  162.1260  207.2960  148.7980 C   0  0  0  0  0  2  0  0  0  0  0  0
  160.8920  206.4740  149.0240 C   0  0  2  0  0  3  0  0  0  0  0  0
  162.4450  207.1590  147.3890 N   0  0  0  0  0  2  0  0  0  0  0  0
  160.1360  204.2680  149.9800 C   0  0  0  0  0  2  0  0  0  0  0  0
  160.9150  202.3740  148.7560 O   0  0  0  0  0  0  0  0  0  0  0  0
  160.8480  202.9610  149.8680 C   0  0  0  0  0  0  0  0  0  0  0  0
  161.4630  202.3850  151.0120 N   0  0  0  0  0  1  0  0  0  0  0  0
  159.9680  213.3020  150.2610 C   0  0  0  0  0  2  0  0  0  0  0  0
  160.7000  212.6840  149.0830 C   0  0  0  0  0  2  0  0  0  0  0  0
  160.6560  213.6360  147.8980 C   0  0  0  0  0  2  0  0  0  0  0  0
  159.2910  214.3060  147.7870 C   0  0  0  0  0  2  0  0  0  0  0  0
  158.2430  213.5050  147.0080 C   0  0  0  0  0  0  0  0  0  0  0  0
  156.8030  213.9780  146.8960 C   0  0  0  0  0  2  0  0  0  0  0  0
  157.1880  212.9270  147.9270 C   0  0  0  0  0  2  0  0  0  0  0  0
  158.7270  212.4590  146.0170 C   0  0  0  0  0  2  0  0  0  0  0  0
  159.2940  213.1190  144.7730 C   0  0  2  0  0  3  0  0  0  0  0  0
  158.2690  213.7580  144.0820 O   0  0  0  0  0  1  0  0  0  0  0  0
  159.9300  212.0710  143.8720 C   0  0  0  0  0  2  0  0  0  0  0  0
  161.8110  212.7450  142.6340 C   0  0  2  0  0  3  0  0  0  0  0  0
  162.3200  212.2130  141.3140 C   0  0  0  0  0  2  0  0  0  0  0  0
  159.9770  211.7800  141.5400 C   0  0  0  0  0  2  0  0  0  0  0  0
  160.3520  212.6870  142.6210 N   0  0  0  0  0  0  0  0  0  0  0  0
  161.2380  211.2680  140.8710 C   0  0  0  0  0  2  0  0  0  0  0  0
  162.3070  214.1650  142.9030 C   0  0  0  0  0  2  0  0  0  0  0  0
  163.1590  213.2880  145.0550 C   0  0  0  0  0  1  0  0  0  0  0  0
  163.4700  214.1910  143.8790 C   0  0  0  0  0  2  0  0  0  0  0  0
  2  4  2  0  0  0  0
  3  2  1  0  0  0  0
  4  1  1  0  0  0  0
  5  7  1  0  0  0  0
  6  9  1  0  0  0  0
  7  1  2  0  0  0  0
  8  9  2  0  0  0  0
  8  5  1  0  0  0  0
  9  2  1  0  0  0  0
 10 15  1  6  0  0  0
 10 13  1  0  0  0  0
 10 12  1  0  0  0  0
 11  4  1  6  0  0  0
 11 10  1  0  0  0  0
 11 12  1  0  0  0  0
 14 13  1  0  0  0  0
 16 15  1  0  0  0  0
 17 20  2  0  0  0  0
 17 21  1  0  0  0  0
 18 16  1  0  0  0  0
 19 18  1  0  0  0  0
 20 22  1  0  0  0  0
 21 19  2  0  0  0  0
 22 18  2  0  0  0  0
 23 29  1  1  0  0  0
 23 17  1  0  0  0  0
 24 27  1  0  0  0  0
 25 28  1  0  0  0  0
 25 24  1  0  0  0  0
 26 27  1  0  0  0  0
 27 23  1  1  0  0  0
 28 26  1  0  0  0  0
 30 31  2  0  0  0  0
 31 29  1  0  0  0  0
 31 32  1  0  0  0  0
 33  6  1  0  0  0  0
 34 33  1  0  0  0  0
 35 34  1  0  0  0  0
 36 35  1  0  0  0  0
 37 36  1  0  0  0  0
 37 39  1  0  0  0  0
 38 37  1  0  0  0  0
 38 39  1  0  0  0  0
 40 37  1  0  0  0  0
 41 42  1  6  0  0  0
 41 40  1  0  0  0  0
 43 41  1  0  0  0  0
 44 49  1  6  0  0  0
 45 44  1  0  0  0  0
 46 47  1  0  0  0  0
 47 44  1  0  0  0  0
 47 43  1  0  0  0  0
 48 45  1  0  0  0  0
 48 46  1  0  0  0  0
 49 51  1  0  0  0  0
 51 50  1  0  0  0  0
M  END
>  <MODEL>
2

>  <REMARK>
 VINA RESULT:      -6.0      2.829      8.615
  Name = 
  20 active torsions:
  status: ('A' for Active; 'I' for Inactive)
    1  A    between atoms: C_1  and  C_14
    2  A    between atoms: C_1  and  C_34
    3  A    between atoms: C_2  and  C_14
    4  A    between atoms: C_3  and  C_9
    5  A    between atoms: C_3  and  C_37
    6  A    between atoms: C_5  and  C_16
    7  A    between atoms: C_6  and  C_13
    8  A    between atoms: C_6  and  C_43
    9  A    between atoms: C_7  and  C_37
   10  A    between atoms: C_7  and  C_49
   11  A    between atoms: C_9  and  C_17
   12  A    between atoms: C_12  and  C_17
   13  A    between atoms: C_12  and  N_42
   14  A    between atoms: C_14  and  C_45
   15  A    between atoms: C_16  and  C_39
   16  A    between atoms: C_20  and  O_33
   17  A    between atoms: C_20  and  C_43
   18  A    between atoms: C_21  and  C_28
   19  A    between atoms: N_30  and  C_35
   20  A    between atoms: C_35  and  C_49
                            x       y       z     vdW  Elec       q    Type
                         _______ _______ _______ _____ _____    ______ ____

>  <TORSDO>
F 20

$$$$
=
 OpenBabel11042420183D

 51 56  0  0  1  0  0  0  0  0999 V2000
  162.3770  204.0990  147.0520 C   0  0  0  0  0  3  0  0  0  0  0  0
  160.8210  204.1140  145.0870 C   0  0  0  0  0  0  0  0  0  0  0  0
  159.6810  203.4960  144.3370 C   0  0  0  0  0  1  0  0  0  0  0  0
  161.3090  203.5100  146.2050 C   0  0  0  0  0  0  0  0  0  0  0  0
  161.7260  206.4370  146.6330 C   0  0  0  0  0  2  0  0  0  0  0  0
  161.4250  205.4390  143.0480 N   0  0  0  0  0  2  0  0  0  0  0  0
  162.5970  205.3970  147.2400 C   0  0  0  0  0  3  0  0  0  0  0  0
  161.8010  206.3590  145.1840 N   0  0  0  0  0  0  0  0  0  0  0  0
  161.4020  205.3420  144.4770 C   0  0  0  0  0  0  0  0  0  0  0  0
  160.7740  201.9840  148.2290 C   0  0  2  0  0  0  0  0  0  0  0  0
  160.6890  202.2230  146.7180 C   0  0  2  0  0  3  0  0  0  0  0  0
  161.7480  201.2890  147.3120 C   0  0  0  0  0  2  0  0  0  0  0  0
  159.7770  201.1320  148.7300 O   0  0  0  0  0  0  0  0  0  0  0  0
  160.3610  200.3840  149.6480 O   0  0  0  0  0  1  0  0  0  0  0  0
  161.4320  202.9720  149.1910 C   0  0  0  0  0  2  0  0  0  0  0  0
  160.6000  203.1030  150.4560 C   0  0  0  0  0  2  0  0  0  0  0  0
  161.1550  206.9560  152.2570 C   0  0  0  0  0  0  0  0  0  0  0  0
  160.7990  204.4420  151.0740 C   0  0  0  0  0  0  0  0  0  0  0  0
  161.0360  204.5450  152.4490 C   0  0  0  0  0  3  0  0  0  0  0  0
  160.9270  206.8520  150.8750 C   0  0  0  0  0  3  0  0  0  0  0  0
  161.2120  205.7980  153.0390 C   0  0  0  0  0  3  0  0  0  0  0  0
  160.7500  205.5960  150.2850 C   0  0  0  0  0  3  0  0  0  0  0  0
  161.3220  208.2940  152.9240 C   0  0  2  0  0  3  0  0  0  0  0  0
  160.3340  209.7910  154.6710 C   0  0  0  0  0  2  0  0  0  0  0  0
  161.2800  210.1290  155.6490 O   0  0  0  0  0  0  0  0  0  0  0  0
  161.4660  207.8900  155.3860 C   0  0  0  0  0  2  0  0  0  0  0  0
  160.5830  208.3600  154.2670 C   0  0  2  0  0  3  0  0  0  0  0  0
  161.5130  208.9810  156.3420 N   0  0  0  0  0  2  0  0  0  0  0  0
  160.8660  209.4210  151.9980 C   0  0  0  0  0  2  0  0  0  0  0  0
  163.1060  210.2400  151.9620 O   0  0  0  0  0  0  0  0  0  0  0  0
  162.0320  210.0690  151.3280 C   0  0  0  0  0  0  0  0  0  0  0  0
  161.9350  210.4810  149.9720 N   0  0  0  0  0  1  0  0  0  0  0  0
  161.9840  206.5850  142.3470 C   0  0  0  0  0  2  0  0  0  0  0  0
  161.9220  206.3530  140.8480 C   0  0  0  0  0  2  0  0  0  0  0  0
  162.0280  207.6840  140.1210 C   0  0  0  0  0  2  0  0  0  0  0  0
  161.4010  207.6000  138.7340 C   0  0  0  0  0  2  0  0  0  0  0  0
  161.1430  208.9520  138.0620 C   0  0  0  0  0  0  0  0  0  0  0  0
  162.2830  209.8090  137.5390 C   0  0  0  0  0  2  0  0  0  0  0  0
  161.6660  210.0990  138.9000 C   0  0  0  0  0  2  0  0  0  0  0  0
  159.7400  209.2490  137.5560 C   0  0  0  0  0  2  0  0  0  0  0  0
  159.0830  210.3290  138.3980 C   0  0  2  0  0  3  0  0  0  0  0  0
  158.0760  209.7610  139.1720 O   0  0  0  0  0  1  0  0  0  0  0  0
  158.4840  211.3980  137.4970 C   0  0  0  0  0  2  0  0  0  0  0  0
  157.9190  213.3380  138.6980 C   0  0  2  0  0  3  0  0  0  0  0  0
  156.9510  214.4370  138.3260 C   0  0  0  0  0  2  0  0  0  0  0  0
  156.3820  212.4080  137.1940 C   0  0  0  0  0  2  0  0  0  0  0  0
  157.3950  212.0730  138.1910 N   0  0  0  0  0  0  0  0  0  0  0  0
  156.2820  213.9170  137.0860 C   0  0  0  0  0  2  0  0  0  0  0  0
  158.1560  213.2750  140.2070 C   0  0  0  0  0  2  0  0  0  0  0  0
  160.4160  213.9410  139.4470 C   0  0  0  0  0  1  0  0  0  0  0  0
  159.6340  213.2670  140.5560 C   0  0  0  0  0  2  0  0  0  0  0  0
  1  7  2  0  0  0  0
  2  4  2  0  0  0  0
  3  2  1  0  0  0  0
  4  1  1  0  0  0  0
  5  7  1  0  0  0  0
  6  9  1  0  0  0  0
  8  5  1  0  0  0  0
  9  2  1  0  0  0  0
  9  8  2  0  0  0  0
 10 13  1  0  0  0  0
 10 15  1  1  0  0  0
 11  4  1  1  0  0  0
 11 12  1  0  0  0  0
 11 10  1  0  0  0  0
 12 10  1  0  0  0  0
 13 14  1  0  0  0  0
 15 16  1  0  0  0  0
 16 18  1  0  0  0  0
 17 23  1  0  0  0  0
 17 21  1  0  0  0  0
 18 19  1  0  0  0  0
 19 21  2  0  0  0  0
 20 17  2  0  0  0  0
 22 20  1  0  0  0  0
 22 18  2  0  0  0  0
 23 29  1  6  0  0  0
 24 25  1  0  0  0  0
 25 28  1  0  0  0  0
 26 28  1  0  0  0  0
 27 23  1  6  0  0  0
 27 24  1  0  0  0  0
 27 26  1  0  0  0  0
 31 30  2  0  0  0  0
 31 29  1  0  0  0  0
 32 31  1  0  0  0  0
 33  6  1  0  0  0  0
 34 33  1  0  0  0  0
 35 34  1  0  0  0  0
 36 35  1  0  0  0  0
 37 36  1  0  0  0  0
 37 39  1  0  0  0  0
 38 37  1  0  0  0  0
 38 39  1  0  0  0  0
 40 37  1  0  0  0  0
 40 41  1  0  0  0  0
 41 42  1  6  0  0  0
 43 47  1  0  0  0  0
 43 41  1  0  0  0  0
 44 49  1  1  0  0  0
 45 44  1  0  0  0  0
 46 47  1  0  0  0  0
 47 44  1  0  0  0  0
 48 46  1  0  0  0  0
 48 45  1  0  0  0  0
 49 51  1  0  0  0  0
 50 51  1  0  0  0  0
M  END
>  <MODEL>
3

>  <REMARK>
 VINA RESULT:      -5.1      1.680      2.701
  Name = 
  20 active torsions:
  status: ('A' for Active; 'I' for Inactive)
    1  A    between atoms: C_1  and  C_14
    2  A    between atoms: C_1  and  C_34
    3  A    between atoms: C_2  and  C_14
    4  A    between atoms: C_3  and  C_9
    5  A    between atoms: C_3  and  C_37
    6  A    between atoms: C_5  and  C_16
    7  A    between atoms: C_6  and  C_13
    8  A    between atoms: C_6  and  C_43
    9  A    between atoms: C_7  and  C_37
   10  A    between atoms: C_7  and  C_49
   11  A    between atoms: C_9  and  C_17
   12  A    between atoms: C_12  and  C_17
   13  A    between atoms: C_12  and  N_42
   14  A    between atoms: C_14  and  C_45
   15  A    between atoms: C_16  and  C_39
   16  A    between atoms: C_20  and  O_33
   17  A    between atoms: C_20  and  C_43
   18  A    between atoms: C_21  and  C_28
   19  A    between atoms: N_30  and  C_35
   20  A    between atoms: C_35  and  C_49
                            x       y       z     vdW  Elec       q    Type
                         _______ _______ _______ _____ _____    ______ ____

>  <TORSDO>
F 20

$$$$
=
 OpenBabel11042420183D

 51 56  0  0  1  0  0  0  0  0999 V2000
  162.2060  204.3240  147.0770 C   0  0  0  0  0  3  0  0  0  0  0  0
  160.7540  204.1250  145.0450 C   0  0  0  0  0  0  0  0  0  0  0  0
  159.7140  203.3770  144.2670 C   0  0  0  0  0  1  0  0  0  0  0  0
  161.2400  203.6080  146.2060 C   0  0  0  0  0  0  0  0  0  0  0  0
  161.3630  206.5740  146.5390 C   0  0  0  0  0  2  0  0  0  0  0  0
  161.3320  205.4300  142.9860 N   0  0  0  0  0  2  0  0  0  0  0  0
  162.2950  205.6420  147.2250 C   0  0  0  0  0  3  0  0  0  0  0  0
  161.5160  206.4540  145.0990 N   0  0  0  0  0  0  0  0  0  0  0  0
  161.2480  205.3810  144.4140 C   0  0  0  0  0  0  0  0  0  0  0  0
  160.8480  202.0650  148.2500 C   0  0  2  0  0  0  0  0  0  0  0  0
  160.7180  202.2860  146.7390 C   0  0  2  0  0  3  0  0  0  0  0  0
  161.8480  201.4300  147.3170 C   0  0  0  0  0  2  0  0  0  0  0  0
  159.9200  201.1530  148.7760 O   0  0  0  0  0  0  0  0  0  0  0  0
  160.5810  200.4250  149.6570 O   0  0  0  0  0  1  0  0  0  0  0  0
  161.4570  203.1030  149.1920 C   0  0  0  0  0  2  0  0  0  0  0  0
  160.7800  203.0350  150.5520 C   0  0  0  0  0  2  0  0  0  0  0  0
  161.0130  206.8170  152.5620 C   0  0  0  0  0  0  0  0  0  0  0  0
  160.8670  204.3500  151.2420 C   0  0  0  0  0  0  0  0  0  0  0  0
  161.0820  204.3970  152.6240 C   0  0  0  0  0  3  0  0  0  0  0  0
  160.8080  206.7700  151.1730 C   0  0  0  0  0  3  0  0  0  0  0  0
  161.1530  205.6270  153.2820 C   0  0  0  0  0  3  0  0  0  0  0  0
  160.7360  205.5380  150.5150 C   0  0  0  0  0  3  0  0  0  0  0  0
  161.0680  208.1260  153.3010 C   0  0  2  0  0  3  0  0  0  0  0  0
  161.5770  210.5120  152.7400 C   0  0  0  0  0  2  0  0  0  0  0  0
  161.1010  210.8510  151.4660 O   0  0  0  0  0  0  0  0  0  0  0  0
  162.1820  208.8820  151.1960 C   0  0  0  0  0  2  0  0  0  0  0  0
  162.0830  209.0930  152.6780 C   0  0  2  0  0  3  0  0  0  0  0  0
  161.8870  210.1670  150.5890 N   0  0  0  0  0  2  0  0  0  0  0  0
  161.3720  207.9000  154.7820 C   0  0  0  0  0  2  0  0  0  0  0  0
  159.9370  209.4340  155.9120 O   0  0  0  0  0  0  0  0  0  0  0  0
  160.1890  208.2340  155.6290 C   0  0  0  0  0  0  0  0  0  0  0  0
  159.3410  207.1990  156.1050 N   0  0  0  0  0  1  0  0  0  0  0  0
  161.8150  206.6000  142.2670 C   0  0  0  0  0  2  0  0  0  0  0  0
  161.9390  206.2820  140.7880 C   0  0  0  0  0  2  0  0  0  0  0  0
  161.9570  207.5740  139.9880 C   0  0  0  0  0  2  0  0  0  0  0  0
  161.5380  207.3280  138.5420 C   0  0  0  0  0  2  0  0  0  0  0  0
  161.1970  208.5920  137.7480 C   0  0  0  0  0  0  0  0  0  0  0  0
  162.2680  209.5940  137.3520 C   0  0  0  0  0  2  0  0  0  0  0  0
  161.4000  209.8420  138.5770 C   0  0  0  0  0  2  0  0  0  0  0  0
  159.8680  208.6430  137.0110 C   0  0  0  0  0  2  0  0  0  0  0  0
  158.8470  209.4430  137.8000 C   0  0  2  0  0  3  0  0  0  0  0  0
  157.6230  208.7800  137.7760 O   0  0  0  0  0  1  0  0  0  0  0  0
  158.6820  210.8250  137.1870 C   0  0  0  0  0  2  0  0  0  0  0  0
  158.9320  212.9660  138.1240 C   0  0  2  0  0  3  0  0  0  0  0  0
  157.9880  214.1450  138.0660 C   0  0  0  0  0  2  0  0  0  0  0  0
  156.7870  212.0990  137.7500 C   0  0  0  0  0  2  0  0  0  0  0  0
  158.1370  211.7430  138.1790 N   0  0  0  0  0  0  0  0  0  0  0  0
  156.7520  213.5800  137.4230 C   0  0  0  0  0  2  0  0  0  0  0  0
  159.8870  213.0610  139.3130 C   0  0  0  0  0  2  0  0  0  0  0  0
  158.5560  213.3290  141.3830 C   0  0  0  0  0  1  0  0  0  0  0  0
  159.3480  212.3490  140.5410 C   0  0  0  0  0  2  0  0  0  0  0  0
  1  7  2  0  0  0  0
  2  4  2  0  0  0  0
  3  2  1  0  0  0  0
  4  1  1  0  0  0  0
  5  7  1  0  0  0  0
  6  9  1  0  0  0  0
  8  5  1  0  0  0  0
  9  2  1  0  0  0  0
  9  8  2  0  0  0  0
 10 13  1  0  0  0  0
 10 15  1  1  0  0  0
 11  4  1  1  0  0  0
 11 12  1  0  0  0  0
 11 10  1  0  0  0  0
 12 10  1  0  0  0  0
 13 14  1  0  0  0  0
 15 16  1  0  0  0  0
 16 18  1  0  0  0  0
 17 21  1  0  0  0  0
 17 23  1  0  0  0  0
 18 19  1  0  0  0  0
 19 21  2  0  0  0  0
 20 17  2  0  0  0  0
 22 20  1  0  0  0  0
 22 18  2  0  0  0  0
 23 29  1  1  0  0  0
 25 24  1  0  0  0  0
 26 27  1  0  0  0  0
 27 24  1  0  0  0  0
 27 23  1  6  0  0  0
 28 26  1  0  0  0  0
 28 25  1  0  0  0  0
 29 31  1  0  0  0  0
 31 30  2  0  0  0  0
 31 32  1  0  0  0  0
 33  6  1  0  0  0  0
 34 33  1  0  0  0  0
 35 34  1  0  0  0  0
 36 35  1  0  0  0  0
 37 36  1  0  0  0  0
 37 39  1  0  0  0  0
 38 37  1  0  0  0  0
 38 39  1  0  0  0  0
 40 37  1  0  0  0  0
 40 41  1  0  0  0  0
 41 42  1  6  0  0  0
 43 41  1  0  0  0  0
 43 47  1  0  0  0  0
 44 47  1  0  0  0  0
 44 49  1  1  0  0  0
 45 44  1  0  0  0  0
 46 47  1  0  0  0  0
 48 46  1  0  0  0  0
 48 45  1  0  0  0  0
 49 51  1  0  0  0  0
 51 50  1  0  0  0  0
M  END
>  <MODEL>
4

>  <REMARK>
 VINA RESULT:      -4.4      1.752      3.227
  Name = 
  20 active torsions:
  status: ('A' for Active; 'I' for Inactive)
    1  A    between atoms: C_1  and  C_14
    2  A    between atoms: C_1  and  C_34
    3  A    between atoms: C_2  and  C_14
    4  A    between atoms: C_3  and  C_9
    5  A    between atoms: C_3  and  C_37
    6  A    between atoms: C_5  and  C_16
    7  A    between atoms: C_6  and  C_13
    8  A    between atoms: C_6  and  C_43
    9  A    between atoms: C_7  and  C_37
   10  A    between atoms: C_7  and  C_49
   11  A    between atoms: C_9  and  C_17
   12  A    between atoms: C_12  and  C_17
   13  A    between atoms: C_12  and  N_42
   14  A    between atoms: C_14  and  C_45
   15  A    between atoms: C_16  and  C_39
   16  A    between atoms: C_20  and  O_33
   17  A    between atoms: C_20  and  C_43
   18  A    between atoms: C_21  and  C_28
   19  A    between atoms: N_30  and  C_35
   20  A    between atoms: C_35  and  C_49
                            x       y       z     vdW  Elec       q    Type
                         _______ _______ _______ _____ _____    ______ ____

>  <TORSDO>
F 20

$$$$
=
 OpenBabel11042420183D

 51 56  0  0  1  0  0  0  0  0999 V2000
  159.3460  212.1320  154.5820 C   0  0  0  0  0  3  0  0  0  0  0  0
  161.0040  211.1800  152.9620 C   0  0  0  0  0  0  0  0  0  0  0  0
  162.2090  210.3290  152.6960 C   0  0  0  0  0  1  0  0  0  0  0  0
  160.5770  211.3760  154.2400 C   0  0  0  0  0  0  0  0  0  0  0  0
  158.1160  211.4840  152.5480 C   0  0  0  0  0  2  0  0  0  0  0  0
  161.2750  212.2420  150.7100 N   0  0  0  0  0  2  0  0  0  0  0  0
  158.2480  212.2140  153.8360 C   0  0  0  0  0  3  0  0  0  0  0  0
  159.1160  211.9600  151.6080 N   0  0  0  0  0  0  0  0  0  0  0  0
  160.4010  211.8320  151.7670 C   0  0  0  0  0  0  0  0  0  0  0  0
  161.2740  209.1840  155.4330 C   0  0  2  0  0  0  0  0  0  0  0  0
  161.2950  210.7160  155.4020 C   0  0  2  0  0  3  0  0  0  0  0  0
  160.3180  209.9580  156.3060 C   0  0  0  0  0  2  0  0  0  0  0  0
  162.3390  208.6110  156.1440 O   0  0  0  0  0  0  0  0  0  0  0  0
  161.8010  207.7240  156.9600 O   0  0  0  0  0  1  0  0  0  0  0  0
  160.5820  208.3420  154.3610 C   0  0  0  0  0  2  0  0  0  0  0  0
  160.9890  206.8830  154.5000 C   0  0  0  0  0  2  0  0  0  0  0  0
  160.7640  204.9190  150.6940 C   0  0  0  0  0  0  0  0  0  0  0  0
  160.9190  206.1960  153.1820 C   0  0  0  0  0  0  0  0  0  0  0  0
  160.8240  206.9520  152.0080 C   0  0  0  0  0  3  0  0  0  0  0  0
  160.8690  204.1610  151.8720 C   0  0  0  0  0  3  0  0  0  0  0  0
  160.7460  206.3150  150.7680 C   0  0  0  0  0  3  0  0  0  0  0  0
  160.9470  204.7990  153.1130 C   0  0  0  0  0  3  0  0  0  0  0  0
  160.6520  204.2600  149.3460 C   0  0  2  0  0  3  0  0  0  0  0  0
  161.1690  201.9780  150.2360 C   0  0  0  0  0  2  0  0  0  0  0  0
  161.9130  201.2270  149.3150 O   0  0  0  0  0  0  0  0  0  0  0  0
  160.2150  202.1260  148.1210 C   0  0  0  0  0  2  0  0  0  0  0  0
  160.1770  202.8050  149.4590 C   0  0  2  0  0  3  0  0  0  0  0  0
  161.0570  200.9570  148.2910 N   0  0  0  0  0  2  0  0  0  0  0  0
  161.9780  204.3410  148.5910 C   0  0  0  0  0  2  0  0  0  0  0  0
  162.4960  204.9000  146.3300 O   0  0  0  0  0  0  0  0  0  0  0  0
  161.8480  205.1900  147.3700 C   0  0  0  0  0  0  0  0  0  0  0  0
  160.9840  206.3180  147.3760 N   0  0  0  0  0  1  0  0  0  0  0  0
  160.7960  212.9030  149.5050 C   0  0  0  0  0  2  0  0  0  0  0  0
  161.2370  212.1240  148.2790 C   0  0  0  0  0  2  0  0  0  0  0  0
  161.9760  213.0500  147.3250 C   0  0  0  0  0  2  0  0  0  0  0  0
  161.0110  214.0120  146.6410 C   0  0  0  0  0  2  0  0  0  0  0  0
  160.4930  213.5410  145.2790 C   0  0  0  0  0  0  0  0  0  0  0  0
  159.4020  214.2980  144.5390 C   0  0  0  0  0  2  0  0  0  0  0  0
  159.0580  213.0650  145.3630 C   0  0  0  0  0  2  0  0  0  0  0  0
  161.3400  212.5600  144.4850 C   0  0  0  0  0  2  0  0  0  0  0  0
  162.2160  213.2930  143.4840 C   0  0  2  0  0  3  0  0  0  0  0  0
  162.7170  214.4510  144.0710 O   0  0  0  0  0  1  0  0  0  0  0  0
  161.4010  213.6640  142.2540 C   0  0  0  0  0  2  0  0  0  0  0  0
  160.6080  212.7540  140.2370 C   0  0  2  0  0  3  0  0  0  0  0  0
  161.1170  212.9740  138.8310 C   0  0  0  0  0  2  0  0  0  0  0  0
  162.8520  213.4040  140.4220 C   0  0  0  0  0  2  0  0  0  0  0  0
  161.7490  212.7810  141.1490 N   0  0  0  0  0  0  0  0  0  0  0  0
  162.3770  213.7680  139.0290 C   0  0  0  0  0  2  0  0  0  0  0  0
  159.8290  211.4460  140.3620 C   0  0  0  0  0  2  0  0  0  0  0  0
  158.7220  209.8240  138.8550 C   0  0  0  0  0  1  0  0  0  0  0  0
  158.7990  211.2830  139.2580 C   0  0  0  0  0  2  0  0  0  0  0  0
  2  4  2  0  0  0  0
  3  2  1  0  0  0  0
  4  1  1  0  0  0  0
  5  7  1  0  0  0  0
  6  9  1  0  0  0  0
  7  1  2  0  0  0  0
  8  9  2  0  0  0  0
  8  5  1  0  0  0  0
  9  2  1  0  0  0  0
 10 15  1  6  0  0  0
 10 13  1  0  0  0  0
 10 12  1  0  0  0  0
 11  4  1  6  0  0  0
 11 10  1  0  0  0  0
 11 12  1  0  0  0  0
 13 14  1  0  0  0  0
 15 16  1  0  0  0  0
 17 21  2  0  0  0  0
 17 20  1  0  0  0  0
 18 16  1  0  0  0  0
 19 18  2  0  0  0  0
 20 22  2  0  0  0  0
 21 19  1  0  0  0  0
 22 18  1  0  0  0  0
 23 29  1  1  0  0  0
 23 17  1  0  0  0  0
 25 24  1  0  0  0  0
 26 28  1  0  0  0  0
 26 27  1  0  0  0  0
 27 23  1  6  0  0  0
 27 24  1  0  0  0  0
 28 25  1  0  0  0  0
 30 31  2  0  0  0  0
 31 32  1  0  0  0  0
 31 29  1  0  0  0  0
 33  6  1  0  0  0  0
 34 33  1  0  0  0  0
 35 34  1  0  0  0  0
 36 35  1  0  0  0  0
 37 39  1  0  0  0  0
 37 36  1  0  0  0  0
 38 37  1  0  0  0  0
 38 39  1  0  0  0  0
 40 37  1  0  0  0  0
 41 42  1  1  0  0  0
 41 40  1  0  0  0  0
 43 41  1  0  0  0  0
 44 49  1  6  0  0  0
 44 47  1  0  0  0  0
 45 48  1  0  0  0  0
 45 44  1  0  0  0  0
 46 47  1  0  0  0  0
 47 43  1  0  0  0  0
 48 46  1  0  0  0  0
 50 51  1  0  0  0  0
 51 49  1  0  0  0  0
M  END
>  <MODEL>
5

>  <REMARK>
 VINA RESULT:      -4.4      2.610      7.828
  Name = 
  20 active torsions:
  status: ('A' for Active; 'I' for Inactive)
    1  A    between atoms: C_1  and  C_14
    2  A    between atoms: C_1  and  C_34
    3  A    between atoms: C_2  and  C_14
    4  A    between atoms: C_3  and  C_9
    5  A    between atoms: C_3  and  C_37
    6  A    between atoms: C_5  and  C_16
    7  A    between atoms: C_6  and  C_13
    8  A    between atoms: C_6  and  C_43
    9  A    between atoms: C_7  and  C_37
   10  A    between atoms: C_7  and  C_49
   11  A    between atoms: C_9  and  C_17
   12  A    between atoms: C_12  and  C_17
   13  A    between atoms: C_12  and  N_42
   14  A    between atoms: C_14  and  C_45
   15  A    between atoms: C_16  and  C_39
   16  A    between atoms: C_20  and  O_33
   17  A    between atoms: C_20  and  C_43
   18  A    between atoms: C_21  and  C_28
   19  A    between atoms: N_30  and  C_35
   20  A    between atoms: C_35  and  C_49
                            x       y       z     vdW  Elec       q    Type
                         _______ _______ _______ _____ _____    ______ ____

>  <TORSDO>
F 20

$$$$
=
 OpenBabel11042420183D

 51 56  0  0  1  0  0  0  0  0999 V2000
  160.2870  207.7550  154.8840 C   0  0  0  0  0  3  0  0  0  0  0  0
  161.5600  208.8240  153.0090 C   0  0  0  0  0  0  0  0  0  0  0  0
  162.3950  209.9570  152.4950 C   0  0  0  0  0  1  0  0  0  0  0  0
  161.0500  208.8710  154.2700 C   0  0  0  0  0  0  0  0  0  0  0  0
  161.5090  205.9740  153.7010 C   0  0  0  0  0  2  0  0  0  0  0  0
  161.1260  208.0940  150.6520 N   0  0  0  0  0  2  0  0  0  0  0  0
  160.4560  206.4610  154.6310 C   0  0  0  0  0  3  0  0  0  0  0  0
  161.2560  206.4790  152.3630 N   0  0  0  0  0  0  0  0  0  0  0  0
  161.2780  207.7370  152.0300 C   0  0  0  0  0  0  0  0  0  0  0  0
  160.3010  211.1770  155.1820 C   0  0  2  0  0  0  0  0  0  0  0  0
  161.3420  210.0530  155.1760 C   0  0  2  0  0  3  0  0  0  0  0  0
  161.5610  211.3360  154.3690 C   0  0  0  0  0  2  0  0  0  0  0  0
  160.2960  211.9460  156.3560 O   0  0  0  0  0  0  0  0  0  0  0  0
  159.0340  212.0270  156.7360 O   0  0  0  0  0  1  0  0  0  0  0  0
  159.0260  211.1330  154.3400 C   0  0  0  0  0  2  0  0  0  0  0  0
  158.4830  212.5390  154.1420 C   0  0  0  0  0  2  0  0  0  0  0  0
  158.9280  213.7470  150.0500 C   0  0  0  0  0  0  0  0  0  0  0  0
  158.6270  212.9580  152.7220 C   0  0  0  0  0  0  0  0  0  0  0  0
  159.5840  212.3400  151.9090 C   0  0  0  0  0  3  0  0  0  0  0  0
  157.9600  214.3600  150.8640 C   0  0  0  0  0  3  0  0  0  0  0  0
  159.7350  212.7350  150.5780 C   0  0  0  0  0  3  0  0  0  0  0  0
  157.8100  213.9650  152.1970 C   0  0  0  0  0  3  0  0  0  0  0  0
  159.1300  214.1700  148.6210 C   0  0  2  0  0  3  0  0  0  0  0  0
  157.0840  212.9050  147.9290 C   0  0  0  0  0  2  0  0  0  0  0  0
  157.2840  212.2330  146.7140 O   0  0  0  0  0  0  0  0  0  0  0  0
  158.0540  214.3330  146.3720 C   0  0  0  0  0  2  0  0  0  0  0  0
  157.8060  214.2250  147.8470 C   0  0  2  0  0  3  0  0  0  0  0  0
  157.3620  213.2090  145.7680 N   0  0  0  0  0  2  0  0  0  0  0  0
  160.1300  213.2490  147.9210 C   0  0  0  0  0  2  0  0  0  0  0  0
  162.0610  214.4530  148.6350 O   0  0  0  0  0  0  0  0  0  0  0  0
  161.4230  213.9520  147.6720 C   0  0  0  0  0  0  0  0  0  0  0  0
  161.9400  214.0450  146.3520 N   0  0  0  0  0  1  0  0  0  0  0  0
  160.8340  207.1160  149.6150 C   0  0  0  0  0  2  0  0  0  0  0  0
  162.0920  206.8140  148.8210 C   0  0  0  0  0  2  0  0  0  0  0  0
  161.8730  207.1800  147.3610 C   0  0  0  0  0  2  0  0  0  0  0  0
  160.9020  206.2120  146.6960 C   0  0  0  0  0  2  0  0  0  0  0  0
  161.4430  205.5180  145.4420 C   0  0  0  0  0  0  0  0  0  0  0  0
  161.4140  206.1970  144.0830 C   0  0  0  0  0  2  0  0  0  0  0  0
  160.3350  205.1930  144.4620 C   0  0  0  0  0  2  0  0  0  0  0  0
  162.3700  204.3270  145.6210 C   0  0  0  0  0  2  0  0  0  0  0  0
  161.5800  203.0770  145.9650 C   0  0  2  0  0  3  0  0  0  0  0  0
  160.7720  202.7310  144.8860 O   0  0  0  0  0  1  0  0  0  0  0  0
  160.7080  203.3320  147.1850 C   0  0  0  0  0  2  0  0  0  0  0  0
  160.2790  202.5680  149.3660 C   0  0  2  0  0  3  0  0  0  0  0  0
  160.3790  201.1640  149.9180 C   0  0  0  0  0  2  0  0  0  0  0  0
  161.7870  201.4080  147.9980 C   0  0  0  0  0  2  0  0  0  0  0  0
  161.3280  202.7440  148.3660 N   0  0  0  0  0  0  0  0  0  0  0  0
  161.0000  200.3840  148.7930 C   0  0  0  0  0  2  0  0  0  0  0  0
  160.3820  203.6200  150.4690 C   0  0  0  0  0  2  0  0  0  0  0  0
  162.3490  203.3950  151.9550 C   0  0  0  0  0  1  0  0  0  0  0  0
  160.8880  203.0350  151.7760 C   0  0  0  0  0  2  0  0  0  0  0  0
  2  4  2  0  0  0  0
  3  2  1  0  0  0  0
  4  1  1  0  0  0  0
  5  7  1  0  0  0  0
  6  9  1  0  0  0  0
  7  1  2  0  0  0  0
  8  5  1  0  0  0  0
  9  8  2  0  0  0  0
  9  2  1  0  0  0  0
 10 15  1  6  0  0  0
 10 13  1  0  0  0  0
 11  4  1  6  0  0  0
 11 10  1  0  0  0  0
 12 11  1  0  0  0  0
 12 10  1  0  0  0  0
 13 14  1  0  0  0  0
 16 15  1  0  0  0  0
 17 21  2  0  0  0  0
 17 20  1  0  0  0  0
 18 16  1  0  0  0  0
 19 18  2  0  0  0  0
 20 22  2  0  0  0  0
 21 19  1  0  0  0  0
 22 18  1  0  0  0  0
 23 29  1  6  0  0  0
 23 17  1  0  0  0  0
 25 24  1  0  0  0  0
 26 27  1  0  0  0  0
 27 24  1  0  0  0  0
 27 23  1  1  0  0  0
 28 26  1  0  0  0  0
 28 25  1  0  0  0  0
 31 29  1  0  0  0  0
 31 30  2  0  0  0  0
 32 31  1  0  0  0  0
 33  6  1  0  0  0  0
 34 33  1  0  0  0  0
 35 34  1  0  0  0  0
 36 35  1  0  0  0  0
 37 40  1  0  0  0  0
 37 36  1  0  0  0  0
 38 39  1  0  0  0  0
 38 37  1  0  0  0  0
 39 37  1  0  0  0  0
 40 41  1  0  0  0  0
 41 42  1  6  0  0  0
 41 43  1  0  0  0  0
 43 47  1  0  0  0  0
 44 45  1  0  0  0  0
 44 49  1  1  0  0  0
 46 47  1  0  0  0  0
 46 48  1  0  0  0  0
 47 44  1  0  0  0  0
 48 45  1  0  0  0  0
 49 51  1  0  0  0  0
 51 50  1  0  0  0  0
M  END
>  <MODEL>
6

>  <REMARK>
 VINA RESULT:      -4.2      4.036     10.102
  Name = 
  20 active torsions:
  status: ('A' for Active; 'I' for Inactive)
    1  A    between atoms: C_1  and  C_14
    2  A    between atoms: C_1  and  C_34
    3  A    between atoms: C_2  and  C_14
    4  A    between atoms: C_3  and  C_9
    5  A    between atoms: C_3  and  C_37
    6  A    between atoms: C_5  and  C_16
    7  A    between atoms: C_6  and  C_13
    8  A    between atoms: C_6  and  C_43
    9  A    between atoms: C_7  and  C_37
   10  A    between atoms: C_7  and  C_49
   11  A    between atoms: C_9  and  C_17
   12  A    between atoms: C_12  and  C_17
   13  A    between atoms: C_12  and  N_42
   14  A    between atoms: C_14  and  C_45
   15  A    between atoms: C_16  and  C_39
   16  A    between atoms: C_20  and  O_33
   17  A    between atoms: C_20  and  C_43
   18  A    between atoms: C_21  and  C_28
   19  A    between atoms: N_30  and  C_35
   20  A    between atoms: C_35  and  C_49
                            x       y       z     vdW  Elec       q    Type
                         _______ _______ _______ _____ _____    ______ ____

>  <TORSDO>
F 20

$$$$
=
 OpenBabel11042420183D

 51 56  0  0  1  0  0  0  0  0999 V2000
  162.1350  209.8750  137.2250 C   0  0  0  0  0  3  0  0  0  0  0  0
  162.2220  210.0340  139.7240 C   0  0  0  0  0  0  0  0  0  0  0  0
  162.5700  210.8090  140.9590 C   0  0  0  0  0  1  0  0  0  0  0  0
  162.5210  210.5390  138.4960 C   0  0  0  0  0  0  0  0  0  0  0  0
  160.0520  208.9010  138.1080 C   0  0  0  0  0  2  0  0  0  0  0  0
  162.0740  207.9430  141.0970 N   0  0  0  0  0  2  0  0  0  0  0  0
  161.0540  209.1240  137.0340 C   0  0  0  0  0  3  0  0  0  0  0  0
  160.6720  208.2030  139.2220 N   0  0  0  0  0  0  0  0  0  0  0  0
  161.6310  208.6870  139.9560 C   0  0  0  0  0  0  0  0  0  0  0  0
  162.2840  213.1160  138.6040 C   0  0  2  0  0  0  0  0  0  0  0  0
  163.1820  211.8980  138.3610 C   0  0  2  0  0  3  0  0  0  0  0  0
  162.5950  212.6920  137.1900 C   0  0  0  0  0  2  0  0  0  0  0  0
  162.9790  214.2680  139.0050 O   0  0  0  0  0  0  0  0  0  0  0  0
  164.1010  214.2810  138.3080 O   0  0  0  0  0  1  0  0  0  0  0  0
  160.8050  212.9980  138.9700 C   0  0  0  0  0  2  0  0  0  0  0  0
  160.3000  214.3170  139.5320 C   0  0  0  0  0  2  0  0  0  0  0  0
  159.9620  214.0710  143.8010 C   0  0  0  0  0  0  0  0  0  0  0  0
  160.1750  214.2390  141.0130 C   0  0  0  0  0  0  0  0  0  0  0  0
  161.3210  214.3200  141.8120 C   0  0  0  0  0  3  0  0  0  0  0  0
  158.8110  213.9990  142.9990 C   0  0  0  0  0  3  0  0  0  0  0  0
  161.2150  214.2340  143.2020 C   0  0  0  0  0  3  0  0  0  0  0  0
  158.9180  214.0840  141.6070 C   0  0  0  0  0  3  0  0  0  0  0  0
  159.8800  213.9560  145.2990 C   0  0  2  0  0  3  0  0  0  0  0  0
  162.1120  213.0220  145.9440 C   0  0  0  0  0  2  0  0  0  0  0  0
  162.0740  212.4430  147.2200 O   0  0  0  0  0  0  0  0  0  0  0  0
  161.0590  214.4520  147.4450 C   0  0  0  0  0  2  0  0  0  0  0  0
  161.2300  214.2440  145.9690 C   0  0  2  0  0  3  0  0  0  0  0  0
  161.9270  213.4820  148.0870 N   0  0  0  0  0  2  0  0  0  0  0  0
  159.3550  212.5800  145.7080 C   0  0  0  0  0  2  0  0  0  0  0  0
  158.2720  212.9080  147.8080 O   0  0  0  0  0  0  0  0  0  0  0  0
  158.1440  212.7040  146.5730 C   0  0  0  0  0  0  0  0  0  0  0  0
  156.8480  212.6060  146.0000 N   0  0  0  0  0  1  0  0  0  0  0  0
  161.5760  206.6120  141.4090 C   0  0  0  0  0  2  0  0  0  0  0  0
  162.1390  206.1500  142.7410 C   0  0  0  0  0  2  0  0  0  0  0  0
  161.1120  205.2890  143.4580 C   0  0  0  0  0  2  0  0  0  0  0  0
  160.8030  205.8480  144.8430 C   0  0  0  0  0  2  0  0  0  0  0  0
  161.5030  205.1250  145.9980 C   0  0  0  0  0  0  0  0  0  0  0  0
  162.9730  204.7450  145.9230 C   0  0  0  0  0  2  0  0  0  0  0  0
  161.8960  203.7140  145.6160 C   0  0  0  0  0  2  0  0  0  0  0  0
  160.8440  205.1490  147.3680 C   0  0  0  0  0  2  0  0  0  0  0  0
  160.8660  206.5510  147.9510 C   0  0  2  0  0  3  0  0  0  0  0  0
  161.2980  207.4480  146.9780 O   0  0  0  0  0  1  0  0  0  0  0  0
  161.8120  206.6050  149.1410 C   0  0  0  0  0  2  0  0  0  0  0  0
  162.0150  205.4400  151.1730 C   0  0  2  0  0  3  0  0  0  0  0  0
  161.9780  205.9790  152.5840 C   0  0  0  0  0  2  0  0  0  0  0  0
  160.8250  207.4580  151.0970 C   0  0  0  0  0  2  0  0  0  0  0  0
  161.0990  206.2300  150.3550 N   0  0  0  0  0  0  0  0  0  0  0  0
  161.5930  207.4200  152.4040 C   0  0  0  0  0  2  0  0  0  0  0  0
  161.6630  203.9540  151.1220 C   0  0  0  0  0  2  0  0  0  0  0  0
  160.4590  202.3450  149.6780 C   0  0  0  0  0  1  0  0  0  0  0  0
  160.3740  203.6940  150.3630 C   0  0  0  0  0  2  0  0  0  0  0  0
  1  4  1  0  0  0  0
  2  9  1  0  0  0  0
  2  3  1  0  0  0  0
  4  2  2  0  0  0  0
  5  8  1  0  0  0  0
  6 33  1  0  0  0  0
  7  1  2  0  0  0  0
  7  5  1  0  0  0  0
  8  9  2  0  0  0  0
  9  6  1  0  0  0  0
 10 15  1  1  0  0  0
 10 13  1  0  0  0  0
 11  4  1  1  0  0  0
 11 10  1  0  0  0  0
 12 11  1  0  0  0  0
 12 10  1  0  0  0  0
 14 13  1  0  0  0  0
 15 16  1  0  0  0  0
 16 18  1  0  0  0  0
 17 23  1  0  0  0  0
 18 22  2  0  0  0  0
 18 19  1  0  0  0  0
 19 21  2  0  0  0  0
 20 17  2  0  0  0  0
 21 17  1  0  0  0  0
 22 20  1  0  0  0  0
 23 29  1  6  0  0  0
 24 27  1  0  0  0  0
 24 25  1  0  0  0  0
 25 28  1  0  0  0  0
 26 28  1  0  0  0  0
 27 23  1  6  0  0  0
 27 26  1  0  0  0  0
 29 31  1  0  0  0  0
 31 30  2  0  0  0  0
 32 31  1  0  0  0  0
 33 34  1  0  0  0  0
 34 35  1  0  0  0  0
 35 36  1  0  0  0  0
 36 37  1  0  0  0  0
 37 40  1  0  0  0  0
 38 37  1  0  0  0  0
 39 38  1  0  0  0  0
 39 37  1  0  0  0  0
 40 41  1  0  0  0  0
 41 42  1  6  0  0  0
 41 43  1  0  0  0  0
 43 47  1  0  0  0  0
 44 49  1  1  0  0  0
 44 45  1  0  0  0  0
 46 48  1  0  0  0  0
 47 46  1  0  0  0  0
 47 44  1  0  0  0  0
 48 45  1  0  0  0  0
 50 51  1  0  0  0  0
 51 49  1  0  0  0  0
M  END
>  <MODEL>
7

>  <REMARK>
 VINA RESULT:      -4.2      3.052     10.984
  Name = 
  20 active torsions:
  status: ('A' for Active; 'I' for Inactive)
    1  A    between atoms: C_1  and  C_14
    2  A    between atoms: C_1  and  C_34
    3  A    between atoms: C_2  and  C_14
    4  A    between atoms: C_3  and  C_9
    5  A    between atoms: C_3  and  C_37
    6  A    between atoms: C_5  and  C_16
    7  A    between atoms: C_6  and  C_13
    8  A    between atoms: C_6  and  C_43
    9  A    between atoms: C_7  and  C_37
   10  A    between atoms: C_7  and  C_49
   11  A    between atoms: C_9  and  C_17
   12  A    between atoms: C_12  and  C_17
   13  A    between atoms: C_12  and  N_42
   14  A    between atoms: C_14  and  C_45
   15  A    between atoms: C_16  and  C_39
   16  A    between atoms: C_20  and  O_33
   17  A    between atoms: C_20  and  C_43
   18  A    between atoms: C_21  and  C_28
   19  A    between atoms: N_30  and  C_35
   20  A    between atoms: C_35  and  C_49
                            x       y       z     vdW  Elec       q    Type
                         _______ _______ _______ _____ _____    ______ ____

>  <TORSDO>
F 20

$$$$
=
 OpenBabel11042420183D

 51 56  0  0  1  0  0  0  0  0999 V2000
  161.8020  209.4410  152.6630 C   0  0  0  0  0  3  0  0  0  0  0  0
  160.6370  207.6710  154.0000 C   0  0  0  0  0  0  0  0  0  0  0  0
  159.7630  207.2900  155.1570 C   0  0  0  0  0  1  0  0  0  0  0  0
  161.0100  208.9690  153.8270 C   0  0  0  0  0  0  0  0  0  0  0  0
  160.8660  207.8030  151.0800 C   0  0  0  0  0  2  0  0  0  0  0  0
  161.3700  205.2850  153.7890 N   0  0  0  0  0  2  0  0  0  0  0  0
  161.7720  208.9250  151.4380 C   0  0  0  0  0  3  0  0  0  0  0  0
  161.2080  206.6260  151.8590 N   0  0  0  0  0  0  0  0  0  0  0  0
  161.1100  206.5410  153.1530 C   0  0  0  0  0  0  0  0  0  0  0  0
  160.0030  211.3350  154.1410 C   0  0  2  0  0  0  0  0  0  0  0  0
  160.5260  210.0440  154.7810 C   0  0  2  0  0  3  0  0  0  0  0  0
  161.4020  211.2980  154.7030 C   0  0  0  0  0  2  0  0  0  0  0  0
  159.0990  212.0460  154.9450 O   0  0  0  0  0  0  0  0  0  0  0  0
  159.7690  212.3990  156.0260 O   0  0  0  0  0  1  0  0  0  0  0  0
  159.9540  211.5510  152.6290 C   0  0  0  0  0  2  0  0  0  0  0  0
  159.5930  212.9950  152.3190 C   0  0  0  0  0  2  0  0  0  0  0  0
  159.9620  213.7580  148.1150 C   0  0  0  0  0  0  0  0  0  0  0  0
  159.7110  213.2590  150.8600 C   0  0  0  0  0  0  0  0  0  0  0  0
  160.6670  212.5710  150.1040 C   0  0  0  0  0  3  0  0  0  0  0  0
  158.9960  214.4420  148.8720 C   0  0  0  0  0  3  0  0  0  0  0  0
  160.7940  212.8210  148.7360 C   0  0  0  0  0  3  0  0  0  0  0  0
  158.8710  214.1910  150.2420 C   0  0  0  0  0  3  0  0  0  0  0  0
  160.1390  214.0270  146.6450 C   0  0  2  0  0  3  0  0  0  0  0  0
  157.9410  214.4130  145.5100 C   0  0  0  0  0  2  0  0  0  0  0  0
  156.8680  214.1660  146.3770 O   0  0  0  0  0  0  0  0  0  0  0  0
  158.2500  212.3910  146.6150 C   0  0  0  0  0  2  0  0  0  0  0  0
  159.0150  213.3990  145.8100 C   0  0  2  0  0  3  0  0  0  0  0  0
  156.8630  212.8190  146.5770 N   0  0  0  0  0  2  0  0  0  0  0  0
  161.5070  213.5410  146.1660 C   0  0  0  0  0  2  0  0  0  0  0  0
  162.5240  212.9910  144.0800 O   0  0  0  0  0  0  0  0  0  0  0  0
  161.6130  213.6200  144.6790 C   0  0  0  0  0  0  0  0  0  0  0  0
  160.6790  214.3940  143.9400 N   0  0  0  0  0  1  0  0  0  0  0  0
  161.8500  204.1200  153.0600 C   0  0  0  0  0  2  0  0  0  0  0  0
  160.8020  203.6690  152.0590 C   0  0  0  0  0  2  0  0  0  0  0  0
  161.3010  202.4390  151.3170 C   0  0  0  0  0  2  0  0  0  0  0  0
  161.2150  202.6410  149.8080 C   0  0  0  0  0  2  0  0  0  0  0  0
  160.4130  201.5700  149.0610 C   0  0  0  0  0  0  0  0  0  0  0  0
  158.9140  201.4190  149.2590 C   0  0  0  0  0  2  0  0  0  0  0  0
  159.8810  200.5130  150.0060 C   0  0  0  0  0  2  0  0  0  0  0  0
  161.0360  200.9300  147.8310 C   0  0  0  0  0  2  0  0  0  0  0  0
  160.5090  201.5770  146.5630 C   0  0  2  0  0  3  0  0  0  0  0  0
  160.4770  200.6320  145.5420 O   0  0  0  0  0  1  0  0  0  0  0  0
  161.4110  202.7310  146.1530 C   0  0  0  0  0  2  0  0  0  0  0  0
  161.3420  205.0800  146.2070 C   0  0  2  0  0  3  0  0  0  0  0  0
  161.3430  206.0570  145.0540 C   0  0  0  0  0  2  0  0  0  0  0  0
  160.5080  203.9300  144.3440 C   0  0  0  0  0  2  0  0  0  0  0  0
  160.6010  203.8890  145.8000 N   0  0  0  0  0  0  0  0  0  0  0  0
  161.2100  205.1780  143.8430 C   0  0  0  0  0  2  0  0  0  0  0  0
  160.7500  205.6960  147.4740 C   0  0  0  0  0  2  0  0  0  0  0  0
  162.3650  207.4960  148.0050 C   0  0  0  0  0  1  0  0  0  0  0  0
  161.8230  206.1510  148.4470 C   0  0  0  0  0  2  0  0  0  0  0  0
  1  4  1  0  0  0  0
  2  3  1  0  0  0  0
  4  2  2  0  0  0  0
  5  7  1  0  0  0  0
  5  8  1  0  0  0  0
  7  1  2  0  0  0  0
  8  9  2  0  0  0  0
  9  6  1  0  0  0  0
  9  2  1  0  0  0  0
 10 15  1  6  0  0  0
 10 12  1  0  0  0  0
 10 11  1  0  0  0  0
 10 13  1  0  0  0  0
 11  4  1  6  0  0  0
 12 11  1  0  0  0  0
 13 14  1  0  0  0  0
 16 15  1  0  0  0  0
 17 21  2  0  0  0  0
 17 20  1  0  0  0  0
 18 16  1  0  0  0  0
 19 18  2  0  0  0  0
 20 22  2  0  0  0  0
 21 19  1  0  0  0  0
 22 18  1  0  0  0  0
 23 29  1  6  0  0  0
 23 17  1  0  0  0  0
 24 27  1  0  0  0  0
 24 25  1  0  0  0  0
 25 28  1  0  0  0  0
 27 26  1  0  0  0  0
 27 23  1  1  0  0  0
 28 26  1  0  0  0  0
 30 31  2  0  0  0  0
 31 29  1  0  0  0  0
 32 31  1  0  0  0  0
 33  6  1  0  0  0  0
 34 33  1  0  0  0  0
 35 34  1  0  0  0  0
 36 35  1  0  0  0  0
 37 38  1  0  0  0  0
 37 36  1  0  0  0  0
 37 39  1  0  0  0  0
 38 39  1  0  0  0  0
 40 37  1  0  0  0  0
 41 42  1  6  0  0  0
 41 40  1  0  0  0  0
 43 41  1  0  0  0  0
 44 49  1  1  0  0  0
 45 44  1  0  0  0  0
 46 47  1  0  0  0  0
 47 43  1  0  0  0  0
 47 44  1  0  0  0  0
 48 46  1  0  0  0  0
 48 45  1  0  0  0  0
 49 51  1  0  0  0  0
 50 51  1  0  0  0  0
M  END
>  <MODEL>
8

>  <REMARK>
 VINA RESULT:      -3.7      3.403     10.390
  Name = 
  20 active torsions:
  status: ('A' for Active; 'I' for Inactive)
    1  A    between atoms: C_1  and  C_14
    2  A    between atoms: C_1  and  C_34
    3  A    between atoms: C_2  and  C_14
    4  A    between atoms: C_3  and  C_9
    5  A    between atoms: C_3  and  C_37
    6  A    between atoms: C_5  and  C_16
    7  A    between atoms: C_6  and  C_13
    8  A    between atoms: C_6  and  C_43
    9  A    between atoms: C_7  and  C_37
   10  A    between atoms: C_7  and  C_49
   11  A    between atoms: C_9  and  C_17
   12  A    between atoms: C_12  and  C_17
   13  A    between atoms: C_12  and  N_42
   14  A    between atoms: C_14  and  C_45
   15  A    between atoms: C_16  and  C_39
   16  A    between atoms: C_20  and  O_33
   17  A    between atoms: C_20  and  C_43
   18  A    between atoms: C_21  and  C_28
   19  A    between atoms: N_30  and  C_35
   20  A    between atoms: C_35  and  C_49
                            x       y       z     vdW  Elec       q    Type
                         _______ _______ _______ _____ _____    ______ ____

>  <TORSDO>
F 20

$$$$
=
 OpenBabel11042420183D

 51 56  0  0  1  0  0  0  0  0999 V2000
  161.9240  204.4070  146.5770 C   0  0  0  0  0  3  0  0  0  0  0  0
  161.0680  205.7800  148.4900 C   0  0  0  0  0  0  0  0  0  0  0  0
  160.1940  205.9070  149.7010 C   0  0  0  0  0  1  0  0  0  0  0  0
  161.0310  204.6460  147.7390 C   0  0  0  0  0  0  0  0  0  0  0  0
  163.8250  205.6750  147.4950 C   0  0  0  0  0  2  0  0  0  0  0  0
  161.3090  208.2730  148.4220 N   0  0  0  0  0  2  0  0  0  0  0  0
  163.1610  204.8720  146.4350 C   0  0  0  0  0  3  0  0  0  0  0  0
  163.0940  206.9130  147.7050 N   0  0  0  0  0  0  0  0  0  0  0  0
  161.8740  206.9860  148.1500 C   0  0  0  0  0  0  0  0  0  0  0  0
  160.6200  202.6070  149.2840 C   0  0  2  0  0  0  0  0  0  0  0  0
  160.1290  203.4900  148.1320 C   0  0  2  0  0  3  0  0  0  0  0  0
  160.7990  202.1400  147.8620 C   0  0  0  0  0  2  0  0  0  0  0  0
  159.5940  201.9340  149.9660 O   0  0  0  0  0  0  0  0  0  0  0  0
  159.1680  200.9900  149.1480 O   0  0  0  0  0  1  0  0  0  0  0  0
  161.9360  202.8580  150.0200 C   0  0  0  0  0  2  0  0  0  0  0  0
  161.7130  202.8010  151.5230 C   0  0  0  0  0  2  0  0  0  0  0  0
  161.3810  206.7600  153.1400 C   0  0  0  0  0  0  0  0  0  0  0  0
  161.6070  204.1740  152.0850 C   0  0  0  0  0  0  0  0  0  0  0  0
  160.6420  204.4550  153.0580 C   0  0  0  0  0  3  0  0  0  0  0  0
  162.3570  206.4750  152.1700 C   0  0  0  0  0  3  0  0  0  0  0  0
  160.5280  205.7440  153.5830 C   0  0  0  0  0  3  0  0  0  0  0  0
  162.4700  205.1840  151.6450 C   0  0  0  0  0  3  0  0  0  0  0  0
  161.2190  208.1450  153.7030 C   0  0  2  0  0  3  0  0  0  0  0  0
  160.2890  209.5230  155.5750 C   0  0  0  0  0  2  0  0  0  0  0  0
  161.2880  209.8850  156.4890 O   0  0  0  0  0  0  0  0  0  0  0  0
  161.5790  207.6710  156.1300 C   0  0  0  0  0  2  0  0  0  0  0  0
  160.5860  208.1240  155.1010 C   0  0  2  0  0  3  0  0  0  0  0  0
  161.6400  208.7310  157.1190 N   0  0  0  0  0  2  0  0  0  0  0  0
  160.4050  209.0240  152.7530 C   0  0  0  0  0  2  0  0  0  0  0  0
  162.1140  210.2510  151.6290 O   0  0  0  0  0  0  0  0  0  0  0  0
  161.1400  210.2810  152.4250 C   0  0  0  0  0  0  0  0  0  0  0  0
  160.7320  211.5140  153.0010 N   0  0  0  0  0  1  0  0  0  0  0  0
  162.0020  209.5150  148.1140 C   0  0  0  0  0  2  0  0  0  0  0  0
  161.0450  210.6870  148.2520 C   0  0  0  0  0  2  0  0  0  0  0  0
  161.6560  211.9220  147.6100 C   0  0  0  0  0  2  0  0  0  0  0  0
  160.6610  212.5970  146.6720 C   0  0  0  0  0  2  0  0  0  0  0  0
  161.2900  213.5280  145.6300 C   0  0  0  0  0  0  0  0  0  0  0  0
  162.7510  213.4010  145.2320 C   0  0  0  0  0  2  0  0  0  0  0  0
  162.3220  214.4440  146.2530 C   0  0  0  0  0  2  0  0  0  0  0  0
  160.3660  214.3050  144.7070 C   0  0  0  0  0  2  0  0  0  0  0  0
  160.5250  213.8390  143.2710 C   0  0  2  0  0  3  0  0  0  0  0  0
  159.5600  214.4530  142.4780 O   0  0  0  0  0  1  0  0  0  0  0  0
  160.3560  212.3300  143.1920 C   0  0  0  0  0  2  0  0  0  0  0  0
  160.4900  212.1800  140.8500 C   0  0  2  0  0  3  0  0  0  0  0  0
  161.5250  212.7690  139.9180 C   0  0  0  0  0  2  0  0  0  0  0  0
  162.4390  212.4970  142.1130 C   0  0  0  0  0  2  0  0  0  0  0  0
  161.1550  211.8010  142.0930 N   0  0  0  0  0  0  0  0  0  0  0  0
  162.5660  213.3240  140.8480 C   0  0  0  0  0  2  0  0  0  0  0  0
  159.7710  210.9890  140.2190 C   0  0  0  0  0  2  0  0  0  0  0  0
  158.0930  210.1900  138.5840 C   0  0  0  0  0  1  0  0  0  0  0  0
  158.7810  211.4160  139.1500 C   0  0  0  0  0  2  0  0  0  0  0  0
  1  4  1  0  0  0  0
  2  3  1  0  0  0  0
  4  2  2  0  0  0  0
  5  8  1  0  0  0  0
  7  1  2  0  0  0  0
  7  5  1  0  0  0  0
  8  9  2  0  0  0  0
  9  6  1  0  0  0  0
  9  2  1  0  0  0  0
 10 13  1  0  0  0  0
 10 15  1  1  0  0  0
 11  4  1  6  0  0  0
 11 10  1  0  0  0  0
 12 11  1  0  0  0  0
 12 10  1  0  0  0  0
 14 13  1  0  0  0  0
 15 16  1  0  0  0  0
 16 18  1  0  0  0  0
 17 21  1  0  0  0  0
 17 23  1  0  0  0  0
 18 19  1  0  0  0  0
 19 21  2  0  0  0  0
 20 17  2  0  0  0  0
 22 18  2  0  0  0  0
 22 20  1  0  0  0  0
 23 29  1  6  0  0  0
 24 25  1  0  0  0  0
 25 28  1  0  0  0  0
 26 28  1  0  0  0  0
 27 23  1  6  0  0  0
 27 24  1  0  0  0  0
 27 26  1  0  0  0  0
 30 31  2  0  0  0  0
 31 29  1  0  0  0  0
 31 32  1  0  0  0  0
 33 34  1  0  0  0  0
 33  6  1  0  0  0  0
 35 34  1  0  0  0  0
 36 35  1  0  0  0  0
 37 39  1  0  0  0  0
 37 36  1  0  0  0  0
 38 37  1  0  0  0  0
 38 39  1  0  0  0  0
 40 37  1  0  0  0  0
 41 42  1  6  0  0  0
 41 40  1  0  0  0  0
 43 41  1  0  0  0  0
 44 49  1  6  0  0  0
 44 47  1  0  0  0  0
 45 48  1  0  0  0  0
 45 44  1  0  0  0  0
 47 46  1  0  0  0  0
 47 43  1  0  0  0  0
 48 46  1  0  0  0  0
 50 51  1  0  0  0  0
 51 49  1  0  0  0  0
M  END
>  <MODEL>
9

>  <REMARK>
 VINA RESULT:      -3.1      2.168      3.943
  Name = 
  20 active torsions:
  status: ('A' for Active; 'I' for Inactive)
    1  A    between atoms: C_1  and  C_14
    2  A    between atoms: C_1  and  C_34
    3  A    between atoms: C_2  and  C_14
    4  A    between atoms: C_3  and  C_9
    5  A    between atoms: C_3  and  C_37
    6  A    between atoms: C_5  and  C_16
    7  A    between atoms: C_6  and  C_13
    8  A    between atoms: C_6  and  C_43
    9  A    between atoms: C_7  and  C_37
   10  A    between atoms: C_7  and  C_49
   11  A    between atoms: C_9  and  C_17
   12  A    between atoms: C_12  and  C_17
   13  A    between atoms: C_12  and  N_42
   14  A    between atoms: C_14  and  C_45
   15  A    between atoms: C_16  and  C_39
   16  A    between atoms: C_20  and  O_33
   17  A    between atoms: C_20  and  C_43
   18  A    between atoms: C_21  and  C_28
   19  A    between atoms: N_30  and  C_35
   20  A    between atoms: C_35  and  C_49
                            x       y       z     vdW  Elec       q    Type
                         _______ _______ _______ _____ _____    ______ ____

>  <TORSDO>
F 20

$$$$
