=
 OpenBabel11042420493D

 41 40  0  0  1  0  0  0  0  0999 V2000
  160.9850  207.4290  153.4850 C   0  0  0  0  0  0  0  0  0  0  0  0
  161.4240  207.2340  152.1300 N   0  0  0  0  0  0  0  0  0  0  0  0
  161.1140  206.4980  154.3250 O   0  0  0  0  0  0  0  0  0  0  0  0
  162.0010  206.0130  151.7490 N   0  0  0  0  0  2  0  0  0  0  0  0
  161.1500  205.4190  150.7230 C   0  0  0  0  0  2  0  0  0  0  0  0
  161.2680  203.8960  150.7220 C   0  0  1  0  0  3  0  0  0  0  0  0
  160.9430  203.3400  152.0960 C   0  0  0  0  0  1  0  0  0  0  0  0
  160.3670  203.2490  149.6720 C   0  0  0  0  0  2  0  0  0  0  0  0
  161.1780  202.5340  148.5990 C   0  0  0  0  0  2  0  0  0  0  0  0
  161.1970  201.0620  148.8400 C   0  0  0  0  0  0  0  0  0  0  0  0
  160.9290  200.5650  150.1090 O   0  0  0  0  0  1  0  0  0  0  0  0
  161.4290  200.2710  147.8890 O   0  0  0  0  0  0  0  0  0  0  0  0
  160.3900  208.7290  153.9300 C   0  0  0  0  0  2  0  0  0  0  0  0
  161.3200  209.4340  154.8760 C   0  0  0  0  0  3  0  0  0  0  0  0
  161.3340  210.7610  155.0510 C   0  0  0  0  0  3  0  0  0  0  0  0
  160.4450  211.6940  154.2900 C   0  0  0  0  0  2  0  0  0  0  0  0
  159.2920  212.1100  155.1400 C   0  0  0  0  0  0  0  0  0  0  0  0
  159.3830  212.0590  156.3580 O   0  0  0  0  0  0  0  0  0  0  0  0
  158.0220  212.5650  154.4880 C   0  0  2  0  0  3  0  0  0  0  0  0
  156.9880  211.5580  154.6410 N   0  0  0  0  0  1  0  0  0  0  0  0
  158.4870  213.9960  152.6710 O   0  0  0  0  0  0  0  0  0  0  0  0
  158.2350  212.8590  153.0380 C   0  0  0  0  0  3  0  0  0  0  0  0
  161.0940  208.2010  151.0910 C   0  0  0  0  0  2  0  0  0  0  0  0
  162.5870  210.0320  151.4300 O   0  0  0  0  0  1  0  0  0  0  0  0
  162.3480  208.9200  150.6210 C   0  0  2  0  0  3  0  0  0  0  0  0
  162.2230  209.3350  149.1550 C   0  0  2  0  0  3  0  0  0  0  0  0
  162.0150  211.7630  148.4380 C   0  0  0  0  0  0  0  0  0  0  0  0
  163.2010  211.7830  148.0150 O   0  0  0  0  0  0  0  0  0  0  0  0
  161.2220  212.8960  148.3130 O   0  0  0  0  0  1  0  0  0  0  0  0
  161.4820  210.5890  149.0480 N   0  0  0  0  0  2  0  0  0  0  0  0
  161.5690  208.3390  148.4170 O   0  0  0  0  0  0  0  0  0  0  0  0
  163.2170  205.4580  147.1000 O   0  0  0  0  0  0  0  0  0  0  0  0
  162.5420  207.4670  148.0480 N   0  0  0  0  0  2  0  0  0  0  0  0
  162.2670  206.2380  147.3640 C   0  0  0  0  0  0  0  0  0  0  0  0
  159.9410  206.5290  147.7420 O   0  0  0  0  0  1  0  0  0  0  0  0
  160.8780  205.8360  146.9710 C   0  0  1  0  0  3  0  0  0  0  0  0
  160.6330  206.0630  145.5060 C   0  0  0  0  0  3  0  0  0  0  0  0
  160.6860  205.0900  144.5900 C   0  0  0  0  0  3  0  0  0  0  0  0
  161.0050  203.6710  144.9330 C   0  0  0  0  0  2  0  0  0  0  0  0
  159.7280  202.8570  144.9570 C   0  0  0  0  0  2  0  0  0  0  0  0
  160.0710  201.3860  145.0710 C   0  0  0  0  0  1  0  0  0  0  0  0
  1 13  1  0  0  0  0
  1  3  2  0  0  0  0
  2  1  1  0  0  0  0
  4  2  1  0  0  0  0
  5  4  1  0  0  0  0
  6  5  1  0  0  0  0
  6  7  1  1  0  0  0
  8  6  1  0  0  0  0
  9 10  1  0  0  0  0
  9  8  1  0  0  0  0
 10 11  1  0  0  0  0
 12 10  2  0  0  0  0
 13 14  1  0  0  0  0
 14 15  2  0  0  0  0
 16 15  1  0  0  0  0
 16 17  1  0  0  0  0
 17 18  2  0  0  0  0
 19 20  1  6  0  0  0
 19 17  1  0  0  0  0
 21 22  2  0  0  0  0
 22 19  1  0  0  0  0
 23  2  1  0  0  0  0
 25 23  1  0  0  0  0
 25 24  1  1  0  0  0
 26 31  1  6  0  0  0
 26 25  1  0  0  0  0
 27 30  1  0  0  0  0
 28 27  2  0  0  0  0
 29 27  1  0  0  0  0
 30 26  1  0  0  0  0
 32 34  2  0  0  0  0
 33 31  1  0  0  0  0
 34 33  1  0  0  0  0
 36 34  1  0  0  0  0
 36 35  1  1  0  0  0
 37 36  1  0  0  0  0
 38 39  1  0  0  0  0
 38 37  2  0  0  0  0
 39 40  1  0  0  0  0
 40 41  1  0  0  0  0
M  END
>  <MODEL>
1

>  <REMARK>
 VINA RESULT:      -6.4      0.000      0.000
  Name = 
  22 active torsions:
  status: ('A' for Active; 'I' for Inactive)
    1  A    between atoms: C_3  and  N_11
    2  A    between atoms: C_3  and  C_14
    3  A    between atoms: C_4  and  C_7
    4  A    between atoms: C_4  and  C_12
    5  A    between atoms: C_8  and  C_34
    6  A    between atoms: N_10  and  O_33
    7  A    between atoms: N_11  and  N_27
    8  A    between atoms: C_13  and  C_17
    9  A    between atoms: C_13  and  C_38
   10  A    between atoms: C_14  and  C_23
   11  A    between atoms: C_15  and  C_30
   12  A    between atoms: C_15  and  C_32
   13  A    between atoms: C_16  and  C_37
   14  A    between atoms: C_16  and  C_41
   15  A    between atoms: C_17  and  N_27
   16  A    between atoms: C_19  and  C_28
   17  A    between atoms: C_19  and  C_37
   18  A    between atoms: C_21  and  C_35
   19  A    between atoms: C_22  and  C_35
   20  A    between atoms: C_23  and  N_31
   21  A    between atoms: C_23  and  O_33
   22  A    between atoms: C_34  and  C_38
                            x       y       z     vdW  Elec       q    Type
                         _______ _______ _______ _____ _____    ______ ____

>  <TORSDO>
F 22

$$$$
=
 OpenBabel11042420493D

 41 40  0  0  1  0  0  0  0  0999 V2000
  161.8820  210.0680  150.3870 C   0  0  0  0  0  0  0  0  0  0  0  0
  161.8590  209.5840  149.0340 N   0  0  0  0  0  0  0  0  0  0  0  0
  161.6290  211.2810  150.6230 O   0  0  0  0  0  0  0  0  0  0  0  0
  161.5500  210.4590  147.9810 N   0  0  0  0  0  2  0  0  0  0  0  0
  162.4220  211.6230  148.0990 C   0  0  0  0  0  2  0  0  0  0  0  0
  161.6470  212.9190  147.8680 C   0  0  1  0  0  3  0  0  0  0  0  0
  162.6000  214.0970  147.7870 C   0  0  0  0  0  1  0  0  0  0  0  0
  160.7860  212.8590  146.6100 C   0  0  0  0  0  2  0  0  0  0  0  0
  159.3160  213.1130  146.9210 C   0  0  0  0  0  2  0  0  0  0  0  0
  158.4420  212.5430  145.8550 C   0  0  0  0  0  0  0  0  0  0  0  0
  157.0980  212.3060  146.1140 O   0  0  0  0  0  1  0  0  0  0  0  0
  158.9160  212.3030  144.7130 O   0  0  0  0  0  0  0  0  0  0  0  0
  162.1800  209.1540  151.5350 C   0  0  0  0  0  2  0  0  0  0  0  0
  160.9250  208.8420  152.2980 C   0  0  0  0  0  3  0  0  0  0  0  0
  160.4990  209.5530  153.3490 C   0  0  0  0  0  3  0  0  0  0  0  0
  161.2530  210.7220  153.9030 C   0  0  0  0  0  2  0  0  0  0  0  0
  161.6880  210.4330  155.3010 C   0  0  0  0  0  0  0  0  0  0  0  0
  162.8260  210.7050  155.6530 O   0  0  0  0  0  0  0  0  0  0  0  0
  160.7270  209.7880  156.2530 C   0  0  2  0  0  3  0  0  0  0  0  0
  160.1870  210.7770  157.1690 N   0  0  0  0  0  1  0  0  0  0  0  0
  161.0980  207.5230  156.7960 O   0  0  0  0  0  0  0  0  0  0  0  0
  161.3840  208.6880  157.0220 C   0  0  0  0  0  3  0  0  0  0  0  0
  162.3540  208.2520  148.7090 C   0  0  0  0  0  2  0  0  0  0  0  0
  160.4730  207.0550  149.5620 O   0  0  0  0  0  1  0  0  0  0  0  0
  161.1940  207.3200  148.3950 C   0  0  2  0  0  3  0  0  0  0  0  0
  161.6930  206.0210  147.7620 C   0  0  2  0  0  3  0  0  0  0  0  0
  161.6000  205.6140  145.2570 C   0  0  0  0  0  0  0  0  0  0  0  0
  162.8410  205.7920  145.1390 O   0  0  0  0  0  1  0  0  0  0  0  0
  160.8440  205.2870  144.1390 O   0  0  0  0  0  0  0  0  0  0  0  0
  160.9640  205.7500  146.5270 N   0  0  0  0  0  2  0  0  0  0  0  0
  161.5290  204.9490  148.6500 O   0  0  0  0  0  0  0  0  0  0  0  0
  161.2430  201.5670  147.5410 O   0  0  0  0  0  0  0  0  0  0  0  0
  161.6240  203.8310  147.8850 N   0  0  0  0  0  2  0  0  0  0  0  0
  161.0710  202.5690  148.2810 C   0  0  0  0  0  0  0  0  0  0  0  0
  159.3620  201.3780  149.4200 O   0  0  0  0  0  1  0  0  0  0  0  0
  160.3090  202.3960  149.5590 C   0  0  1  0  0  3  0  0  0  0  0  0
  161.2280  202.1140  150.7140 C   0  0  0  0  0  3  0  0  0  0  0  0
  161.3320  202.9080  151.7850 C   0  0  0  0  0  3  0  0  0  0  0  0
  160.5450  204.1700  151.9370 C   0  0  0  0  0  2  0  0  0  0  0  0
  161.3240  205.1520  152.7870 C   0  0  0  0  0  2  0  0  0  0  0  0
  162.5170  205.6590  152.0050 C   0  0  0  0  0  1  0  0  0  0  0  0
  1  3  2  0  0  0  0
  1 13  1  0  0  0  0
  2  1  1  0  0  0  0
  4  5  1  0  0  0  0
  4  2  1  0  0  0  0
  6  7  1  6  0  0  0
  6  5  1  0  0  0  0
  8  9  1  0  0  0  0
  8  6  1  0  0  0  0
 10 11  1  0  0  0  0
 10  9  1  0  0  0  0
 12 10  2  0  0  0  0
 13 14  1  0  0  0  0
 14 15  2  0  0  0  0
 15 16  1  0  0  0  0
 16 17  1  0  0  0  0
 17 18  2  0  0  0  0
 17 19  1  0  0  0  0
 19 22  1  0  0  0  0
 19 20  1  1  0  0  0
 21 22  2  0  0  0  0
 23  2  1  0  0  0  0
 25 23  1  0  0  0  0
 25 24  1  1  0  0  0
 26 30  1  6  0  0  0
 26 25  1  0  0  0  0
 26 31  1  0  0  0  0
 27 30  1  0  0  0  0
 28 27  1  0  0  0  0
 29 27  2  0  0  0  0
 32 34  2  0  0  0  0
 33 34  1  0  0  0  0
 33 31  1  0  0  0  0
 34 36  1  0  0  0  0
 36 35  1  6  0  0  0
 36 37  1  0  0  0  0
 37 38  2  0  0  0  0
 38 39  1  0  0  0  0
 39 40  1  0  0  0  0
 41 40  1  0  0  0  0
M  END
>  <MODEL>
2

>  <REMARK>
 VINA RESULT:      -6.0      2.373      6.825
  Name = 
  22 active torsions:
  status: ('A' for Active; 'I' for Inactive)
    1  A    between atoms: C_3  and  N_11
    2  A    between atoms: C_3  and  C_14
    3  A    between atoms: C_4  and  C_7
    4  A    between atoms: C_4  and  C_12
    5  A    between atoms: C_8  and  C_34
    6  A    between atoms: N_10  and  O_33
    7  A    between atoms: N_11  and  N_27
    8  A    between atoms: C_13  and  C_17
    9  A    between atoms: C_13  and  C_38
   10  A    between atoms: C_14  and  C_23
   11  A    between atoms: C_15  and  C_30
   12  A    between atoms: C_15  and  C_32
   13  A    between atoms: C_16  and  C_37
   14  A    between atoms: C_16  and  C_41
   15  A    between atoms: C_17  and  N_27
   16  A    between atoms: C_19  and  C_28
   17  A    between atoms: C_19  and  C_37
   18  A    between atoms: C_21  and  C_35
   19  A    between atoms: C_22  and  C_35
   20  A    between atoms: C_23  and  N_31
   21  A    between atoms: C_23  and  O_33
   22  A    between atoms: C_34  and  C_38
                            x       y       z     vdW  Elec       q    Type
                         _______ _______ _______ _____ _____    ______ ____

>  <TORSDO>
F 22

$$$$
=
 OpenBabel11042420493D

 41 40  0  0  1  0  0  0  0  0999 V2000
  161.5210  209.8410  150.9910 C   0  0  0  0  0  0  0  0  0  0  0  0
  162.0160  209.2540  149.7770 N   0  0  0  0  0  0  0  0  0  0  0  0
  161.5240  211.0950  151.1280 O   0  0  0  0  0  0  0  0  0  0  0  0
  162.4940  210.0760  148.7440 N   0  0  0  0  0  2  0  0  0  0  0  0
  161.3530  210.7890  148.1780 C   0  0  0  0  0  2  0  0  0  0  0  0
  161.6890  212.2570  147.9260 C   0  0  1  0  0  3  0  0  0  0  0  0
  163.1930  212.4490  147.8460 C   0  0  0  0  0  1  0  0  0  0  0  0
  161.0290  212.7900  146.6570 C   0  0  0  0  0  2  0  0  0  0  0  0
  159.6350  213.3380  146.9350 C   0  0  0  0  0  2  0  0  0  0  0  0
  158.6150  212.6460  146.0950 C   0  0  0  0  0  0  0  0  0  0  0  0
  158.9460  212.2200  144.8150 O   0  0  0  0  0  0  0  0  0  0  0  0
  157.4640  212.4240  146.5550 O   0  0  0  0  0  1  0  0  0  0  0  0
  160.9780  208.9930  152.1000 C   0  0  0  0  0  2  0  0  0  0  0  0
  161.5980  209.3840  153.4110 C   0  0  0  0  0  3  0  0  0  0  0  0
  160.9790  210.1340  154.3300 C   0  0  0  0  0  3  0  0  0  0  0  0
  159.6070  210.6990  154.1330 C   0  0  0  0  0  2  0  0  0  0  0  0
  159.5730  212.1250  154.5710 C   0  0  0  0  0  0  0  0  0  0  0  0
  159.8410  212.4130  155.7280 O   0  0  0  0  0  0  0  0  0  0  0  0
  159.1850  213.1880  153.5890 C   0  0  2  0  0  3  0  0  0  0  0  0
  158.5260  214.2880  154.2710 N   0  0  0  0  0  1  0  0  0  0  0  0
  158.6060  212.7310  151.3480 O   0  0  0  0  0  0  0  0  0  0  0  0
  158.2900  212.6410  152.5250 C   0  0  0  0  0  3  0  0  0  0  0  0
  162.2260  207.8150  149.6730 C   0  0  0  0  0  2  0  0  0  0  0  0
  160.0850  206.7600  149.6450 O   0  0  0  0  0  1  0  0  0  0  0  0
  161.1340  207.1830  148.8250 C   0  0  2  0  0  3  0  0  0  0  0  0
  161.6850  206.0140  148.0080 C   0  0  2  0  0  3  0  0  0  0  0  0
  161.4140  205.7230  145.4990 C   0  0  0  0  0  0  0  0  0  0  0  0
  162.6450  205.8990  145.3030 O   0  0  0  0  0  1  0  0  0  0  0  0
  160.5790  205.4520  144.4230 O   0  0  0  0  0  0  0  0  0  0  0  0
  160.8690  205.8040  146.8150 N   0  0  0  0  0  2  0  0  0  0  0  0
  161.7030  204.8430  148.7770 O   0  0  0  0  0  0  0  0  0  0  0  0
  161.0970  201.6590  147.2790 O   0  0  0  0  0  0  0  0  0  0  0  0
  161.6840  203.8230  147.8810 N   0  0  0  0  0  2  0  0  0  0  0  0
  161.0290  202.5740  148.1390 C   0  0  0  0  0  0  0  0  0  0  0  0
  159.2800  201.3620  149.1910 O   0  0  0  0  0  1  0  0  0  0  0  0
  160.2810  202.3110  149.4100 C   0  0  1  0  0  3  0  0  0  0  0  0
  161.2030  201.8670  150.5100 C   0  0  0  0  0  3  0  0  0  0  0  0
  161.3710  202.5450  151.6510 C   0  0  0  0  0  3  0  0  0  0  0  0
  160.6590  203.8270  151.9430 C   0  0  0  0  0  2  0  0  0  0  0  0
  161.6740  204.9220  152.1980 C   0  0  0  0  0  2  0  0  0  0  0  0
  161.2600  205.7160  153.4190 C   0  0  0  0  0  1  0  0  0  0  0  0
  1  3  2  0  0  0  0
  1 13  1  0  0  0  0
  2  1  1  0  0  0  0
  4  2  1  0  0  0  0
  5  4  1  0  0  0  0
  6  7  1  6  0  0  0
  6  5  1  0  0  0  0
  8  9  1  0  0  0  0
  8  6  1  0  0  0  0
 10 12  1  0  0  0  0
 10  9  1  0  0  0  0
 11 10  2  0  0  0  0
 13 14  1  0  0  0  0
 14 15  2  0  0  0  0
 16 15  1  0  0  0  0
 16 17  1  0  0  0  0
 17 18  2  0  0  0  0
 19 20  1  1  0  0  0
 19 17  1  0  0  0  0
 21 22  2  0  0  0  0
 22 19  1  0  0  0  0
 23  2  1  0  0  0  0
 25 24  1  1  0  0  0
 25 23  1  0  0  0  0
 26 30  1  6  0  0  0
 26 31  1  0  0  0  0
 26 25  1  0  0  0  0
 27 30  1  0  0  0  0
 28 27  1  0  0  0  0
 29 27  2  0  0  0  0
 32 34  2  0  0  0  0
 33 34  1  0  0  0  0
 33 31  1  0  0  0  0
 34 36  1  0  0  0  0
 36 35  1  6  0  0  0
 36 37  1  0  0  0  0
 37 38  2  0  0  0  0
 38 39  1  0  0  0  0
 39 40  1  0  0  0  0
 40 41  1  0  0  0  0
M  END
>  <MODEL>
3

>  <REMARK>
 VINA RESULT:      -5.9      2.074      6.378
  Name = 
  22 active torsions:
  status: ('A' for Active; 'I' for Inactive)
    1  A    between atoms: C_3  and  N_11
    2  A    between atoms: C_3  and  C_14
    3  A    between atoms: C_4  and  C_7
    4  A    between atoms: C_4  and  C_12
    5  A    between atoms: C_8  and  C_34
    6  A    between atoms: N_10  and  O_33
    7  A    between atoms: N_11  and  N_27
    8  A    between atoms: C_13  and  C_17
    9  A    between atoms: C_13  and  C_38
   10  A    between atoms: C_14  and  C_23
   11  A    between atoms: C_15  and  C_30
   12  A    between atoms: C_15  and  C_32
   13  A    between atoms: C_16  and  C_37
   14  A    between atoms: C_16  and  C_41
   15  A    between atoms: C_17  and  N_27
   16  A    between atoms: C_19  and  C_28
   17  A    between atoms: C_19  and  C_37
   18  A    between atoms: C_21  and  C_35
   19  A    between atoms: C_22  and  C_35
   20  A    between atoms: C_23  and  N_31
   21  A    between atoms: C_23  and  O_33
   22  A    between atoms: C_34  and  C_38
                            x       y       z     vdW  Elec       q    Type
                         _______ _______ _______ _____ _____    ______ ____

>  <TORSDO>
F 22

$$$$
=
 OpenBabel11042420493D

 41 40  0  0  1  0  0  0  0  0999 V2000
  161.9020  209.4450  148.8760 C   0  0  0  0  0  0  0  0  0  0  0  0
  161.9620  210.5340  149.8130 N   0  0  0  0  0  0  0  0  0  0  0  0
  161.5330  209.6600  147.6900 O   0  0  0  0  0  0  0  0  0  0  0  0
  161.6170  211.8310  149.4030 N   0  0  0  0  0  2  0  0  0  0  0  0
  162.5880  212.2530  148.3980 C   0  0  0  0  0  2  0  0  0  0  0  0
  161.9770  213.2700  147.4350 C   0  0  1  0  0  3  0  0  0  0  0  0
  162.6070  213.1380  146.0600 C   0  0  0  0  0  1  0  0  0  0  0  0
  160.4620  213.1260  147.3290 C   0  0  0  0  0  2  0  0  0  0  0  0
  160.0600  212.2490  146.1490 C   0  0  0  0  0  2  0  0  0  0  0  0
  158.9140  212.8500  145.4070 C   0  0  0  0  0  0  0  0  0  0  0  0
  157.6130  212.6100  145.8300 O   0  0  0  0  0  1  0  0  0  0  0  0
  159.1270  213.5940  144.4150 O   0  0  0  0  0  0  0  0  0  0  0  0
  162.2900  208.0550  149.2740 C   0  0  0  0  0  2  0  0  0  0  0  0
  161.1020  207.1380  149.2030 C   0  0  0  0  0  3  0  0  0  0  0  0
  160.9020  206.2580  148.2150 C   0  0  0  0  0  3  0  0  0  0  0  0
  161.8280  206.1180  147.0470 C   0  0  0  0  0  2  0  0  0  0  0  0
  161.0490  205.8190  145.8100 C   0  0  0  0  0  0  0  0  0  0  0  0
  160.1640  206.5800  145.4490 O   0  0  0  0  0  0  0  0  0  0  0  0
  161.3480  204.5720  145.0350 C   0  0  2  0  0  3  0  0  0  0  0  0
  160.1870  204.1710  144.2600 N   0  0  0  0  0  1  0  0  0  0  0  0
  161.1330  202.4130  145.9610 O   0  0  0  0  0  0  0  0  0  0  0  0
  161.7630  203.4590  145.9420 C   0  0  0  0  0  3  0  0  0  0  0  0
  162.1740  210.2870  151.2340 C   0  0  0  0  0  2  0  0  0  0  0  0
  160.6820  211.5880  152.5680 O   0  0  0  0  0  1  0  0  0  0  0  0
  160.8500  210.3320  151.9800 C   0  0  2  0  0  3  0  0  0  0  0  0
  160.7800  209.2280  153.0350 C   0  0  2  0  0  3  0  0  0  0  0  0
  160.9130  209.8280  155.5000 C   0  0  0  0  0  0  0  0  0  0  0  0
  159.6640  209.7370  155.6330 O   0  0  0  0  0  0  0  0  0  0  0  0
  161.7010  210.1350  156.6020 O   0  0  0  0  0  1  0  0  0  0  0  0
  161.5250  209.6230  154.2270 N   0  0  0  0  0  2  0  0  0  0  0  0
  161.3040  208.0310  152.5290 O   0  0  0  0  0  0  0  0  0  0  0  0
  160.7360  204.8440  154.0340 O   0  0  0  0  0  0  0  0  0  0  0  0
  160.9400  207.0730  153.4190 N   0  0  0  0  0  2  0  0  0  0  0  0
  161.1450  205.6740  153.1830 C   0  0  0  0  0  0  0  0  0  0  0  0
  163.0360  205.8130  151.7530 O   0  0  0  0  0  1  0  0  0  0  0  0
  161.8140  205.1620  151.9440 C   0  0  1  0  0  3  0  0  0  0  0  0
  162.0080  203.6730  151.9970 C   0  0  0  0  0  3  0  0  0  0  0  0
  161.4610  202.8270  151.1180 C   0  0  0  0  0  3  0  0  0  0  0  0
  160.5900  203.2800  149.9910 C   0  0  0  0  0  2  0  0  0  0  0  0
  160.0310  202.0730  149.2670 C   0  0  0  0  0  2  0  0  0  0  0  0
  161.1070  201.0140  149.1500 C   0  0  0  0  0  1  0  0  0  0  0  0
  1 13  1  0  0  0  0
  1  2  1  0  0  0  0
  2 23  1  0  0  0  0
  3  1  2  0  0  0  0
  4  2  1  0  0  0  0
  5  4  1  0  0  0  0
  6  7  1  6  0  0  0
  6  5  1  0  0  0  0
  8  6  1  0  0  0  0
  9  8  1  0  0  0  0
 10 11  1  0  0  0  0
 10  9  1  0  0  0  0
 12 10  2  0  0  0  0
 14 13  1  0  0  0  0
 15 14  2  0  0  0  0
 16 15  1  0  0  0  0
 17 16  1  0  0  0  0
 18 17  2  0  0  0  0
 19 20  1  1  0  0  0
 19 17  1  0  0  0  0
 19 22  1  0  0  0  0
 22 21  2  0  0  0  0
 23 25  1  0  0  0  0
 25 24  1  1  0  0  0
 25 26  1  0  0  0  0
 26 31  1  6  0  0  0
 26 30  1  0  0  0  0
 27 28  2  0  0  0  0
 27 29  1  0  0  0  0
 30 27  1  0  0  0  0
 31 33  1  0  0  0  0
 34 33  1  0  0  0  0
 34 32  2  0  0  0  0
 36 35  1  1  0  0  0
 36 37  1  0  0  0  0
 36 34  1  0  0  0  0
 38 37  2  0  0  0  0
 39 38  1  0  0  0  0
 40 39  1  0  0  0  0
 41 40  1  0  0  0  0
M  END
>  <MODEL>
4

>  <REMARK>
 VINA RESULT:      -5.7      2.327      8.477
  Name = 
  22 active torsions:
  status: ('A' for Active; 'I' for Inactive)
    1  A    between atoms: C_3  and  N_11
    2  A    between atoms: C_3  and  C_14
    3  A    between atoms: C_4  and  C_7
    4  A    between atoms: C_4  and  C_12
    5  A    between atoms: C_8  and  C_34
    6  A    between atoms: N_10  and  O_33
    7  A    between atoms: N_11  and  N_27
    8  A    between atoms: C_13  and  C_17
    9  A    between atoms: C_13  and  C_38
   10  A    between atoms: C_14  and  C_23
   11  A    between atoms: C_15  and  C_30
   12  A    between atoms: C_15  and  C_32
   13  A    between atoms: C_16  and  C_37
   14  A    between atoms: C_16  and  C_41
   15  A    between atoms: C_17  and  N_27
   16  A    between atoms: C_19  and  C_28
   17  A    between atoms: C_19  and  C_37
   18  A    between atoms: C_21  and  C_35
   19  A    between atoms: C_22  and  C_35
   20  A    between atoms: C_23  and  N_31
   21  A    between atoms: C_23  and  O_33
   22  A    between atoms: C_34  and  C_38
                            x       y       z     vdW  Elec       q    Type
                         _______ _______ _______ _____ _____    ______ ____

>  <TORSDO>
F 22

$$$$
=
 OpenBabel11042420493D

 41 40  0  0  1  0  0  0  0  0999 V2000
  161.5920  209.3500  150.8880 C   0  0  0  0  0  0  0  0  0  0  0  0
  161.6950  209.2550  149.4580 N   0  0  0  0  0  0  0  0  0  0  0  0
  162.1800  210.2830  151.4980 O   0  0  0  0  0  0  0  0  0  0  0  0
  162.4420  210.2050  148.7440 N   0  0  0  0  0  2  0  0  0  0  0  0
  161.5030  211.0970  148.0720 C   0  0  0  0  0  2  0  0  0  0  0  0
  161.8790  212.5610  148.2910 C   0  0  1  0  0  3  0  0  0  0  0  0
  163.2880  212.8240  147.7930 C   0  0  0  0  0  1  0  0  0  0  0  0
  160.9010  213.5150  147.6110 C   0  0  0  0  0  2  0  0  0  0  0  0
  159.4800  213.3310  148.1310 C   0  0  0  0  0  2  0  0  0  0  0  0
  158.5830  212.8190  147.0550 C   0  0  0  0  0  0  0  0  0  0  0  0
  159.0560  212.7070  145.7530 O   0  0  0  0  0  0  0  0  0  0  0  0
  157.4070  212.4640  147.3310 O   0  0  0  0  0  1  0  0  0  0  0  0
  160.7800  208.3690  151.6760 C   0  0  0  0  0  2  0  0  0  0  0  0
  161.5530  207.8860  152.8700 C   0  0  0  0  0  3  0  0  0  0  0  0
  161.3350  208.3150  154.1180 C   0  0  0  0  0  3  0  0  0  0  0  0
  160.3150  209.3570  154.4570 C   0  0  0  0  0  2  0  0  0  0  0  0
  160.9890  210.6510  154.7690 C   0  0  0  0  0  0  0  0  0  0  0  0
  162.2090  210.7090  154.8020 O   0  0  0  0  0  0  0  0  0  0  0  0
  160.1580  211.8630  155.0640 C   0  0  2  0  0  3  0  0  0  0  0  0
  159.1540  211.5530  156.0660 N   0  0  0  0  0  1  0  0  0  0  0  0
  160.1130  212.4190  152.7720 O   0  0  0  0  0  0  0  0  0  0  0  0
  159.4980  212.3780  153.8260 C   0  0  0  0  0  3  0  0  0  0  0  0
  161.2120  208.0760  148.7500 C   0  0  0  0  0  2  0  0  0  0  0  0
  163.4120  207.1500  148.7330 O   0  0  0  0  0  1  0  0  0  0  0  0
  162.0850  206.8740  149.0710 C   0  0  2  0  0  3  0  0  0  0  0  0
  161.5890  205.6270  148.3370 C   0  0  2  0  0  3  0  0  0  0  0  0
  162.0780  205.5600  145.8450 C   0  0  0  0  0  0  0  0  0  0  0  0
  163.1670  204.9560  146.0320 O   0  0  0  0  0  1  0  0  0  0  0  0
  161.6660  205.8490  144.5510 O   0  0  0  0  0  0  0  0  0  0  0  0
  161.2660  205.9540  146.9510 N   0  0  0  0  0  2  0  0  0  0  0  0
  160.4560  205.1030  148.9730 O   0  0  0  0  0  0  0  0  0  0  0  0
  161.1900  204.4980  152.4140 O   0  0  0  0  0  0  0  0  0  0  0  0
  160.6640  205.2990  150.3000 N   0  0  0  0  0  2  0  0  0  0  0  0
  161.0650  204.2480  151.1880 C   0  0  0  0  0  0  0  0  0  0  0  0
  161.9220  202.0990  151.7220 O   0  0  0  0  0  1  0  0  0  0  0  0
  161.3220  202.8520  150.7090 C   0  0  1  0  0  3  0  0  0  0  0  0
  160.0600  202.1920  150.2320 C   0  0  0  0  0  3  0  0  0  0  0  0
  159.9890  201.4520  149.1200 C   0  0  0  0  0  3  0  0  0  0  0  0
  161.1660  201.2140  148.2300 C   0  0  0  0  0  2  0  0  0  0  0  0
  161.1190  202.1770  147.0610 C   0  0  0  0  0  2  0  0  0  0  0  0
  160.4860  201.4910  145.8700 C   0  0  0  0  0  1  0  0  0  0  0  0
  1  3  2  0  0  0  0
  1 13  1  0  0  0  0
  2  1  1  0  0  0  0
  4  2  1  0  0  0  0
  5  6  1  0  0  0  0
  5  4  1  0  0  0  0
  6  7  1  6  0  0  0
  8  9  1  0  0  0  0
  8  6  1  0  0  0  0
 10 12  1  0  0  0  0
 10  9  1  0  0  0  0
 11 10  2  0  0  0  0
 13 14  1  0  0  0  0
 14 15  2  0  0  0  0
 15 16  1  0  0  0  0
 16 17  1  0  0  0  0
 17 18  2  0  0  0  0
 17 19  1  0  0  0  0
 19 20  1  1  0  0  0
 21 22  2  0  0  0  0
 22 19  1  0  0  0  0
 23 25  1  0  0  0  0
 23  2  1  0  0  0  0
 25 24  1  6  0  0  0
 26 30  1  6  0  0  0
 26 31  1  0  0  0  0
 26 25  1  0  0  0  0
 27 28  1  0  0  0  0
 27 30  1  0  0  0  0
 29 27  2  0  0  0  0
 31 33  1  0  0  0  0
 33 34  1  0  0  0  0
 34 32  2  0  0  0  0
 36 34  1  0  0  0  0
 36 35  1  1  0  0  0
 37 36  1  0  0  0  0
 38 37  2  0  0  0  0
 39 38  1  0  0  0  0
 40 39  1  0  0  0  0
 41 40  1  0  0  0  0
M  END
>  <MODEL>
5

>  <REMARK>
 VINA RESULT:      -5.6      1.946      6.144
  Name = 
  22 active torsions:
  status: ('A' for Active; 'I' for Inactive)
    1  A    between atoms: C_3  and  N_11
    2  A    between atoms: C_3  and  C_14
    3  A    between atoms: C_4  and  C_7
    4  A    between atoms: C_4  and  C_12
    5  A    between atoms: C_8  and  C_34
    6  A    between atoms: N_10  and  O_33
    7  A    between atoms: N_11  and  N_27
    8  A    between atoms: C_13  and  C_17
    9  A    between atoms: C_13  and  C_38
   10  A    between atoms: C_14  and  C_23
   11  A    between atoms: C_15  and  C_30
   12  A    between atoms: C_15  and  C_32
   13  A    between atoms: C_16  and  C_37
   14  A    between atoms: C_16  and  C_41
   15  A    between atoms: C_17  and  N_27
   16  A    between atoms: C_19  and  C_28
   17  A    between atoms: C_19  and  C_37
   18  A    between atoms: C_21  and  C_35
   19  A    between atoms: C_22  and  C_35
   20  A    between atoms: C_23  and  N_31
   21  A    between atoms: C_23  and  O_33
   22  A    between atoms: C_34  and  C_38
                            x       y       z     vdW  Elec       q    Type
                         _______ _______ _______ _____ _____    ______ ____

>  <TORSDO>
F 22

$$$$
=
 OpenBabel11042420493D

 41 40  0  0  1  0  0  0  0  0999 V2000
  161.0810  208.2020  153.2030 C   0  0  0  0  0  0  0  0  0  0  0  0
  161.7190  207.1160  152.5110 N   0  0  0  0  0  0  0  0  0  0  0  0
  160.2910  207.9600  154.1550 O   0  0  0  0  0  0  0  0  0  0  0  0
  161.4670  205.7910  152.9000 N   0  0  0  0  0  2  0  0  0  0  0  0
  162.3680  204.9260  152.1460 C   0  0  0  0  0  2  0  0  0  0  0  0
  161.7430  203.5530  151.9050 C   0  0  1  0  0  3  0  0  0  0  0  0
  160.3610  203.4850  152.5290 C   0  0  0  0  0  1  0  0  0  0  0  0
  161.6610  203.2100  150.4200 C   0  0  0  0  0  2  0  0  0  0  0  0
  160.2230  202.9720  149.9760 C   0  0  0  0  0  2  0  0  0  0  0  0
  160.0490  201.5830  149.4620 C   0  0  0  0  0  0  0  0  0  0  0  0
  161.1510  200.7450  149.3420 O   0  0  0  0  0  1  0  0  0  0  0  0
  158.9010  201.1610  149.1630 O   0  0  0  0  0  0  0  0  0  0  0  0
  161.3510  209.6270  152.8300 C   0  0  0  0  0  2  0  0  0  0  0  0
  160.8680  210.5520  153.9100 C   0  0  0  0  0  3  0  0  0  0  0  0
  159.8590  211.4160  153.7500 C   0  0  0  0  0  3  0  0  0  0  0  0
  159.1230  211.5810  152.4570 C   0  0  0  0  0  2  0  0  0  0  0  0
  159.0250  213.0270  152.1040 C   0  0  0  0  0  0  0  0  0  0  0  0
  158.7420  213.8460  152.9650 O   0  0  0  0  0  0  0  0  0  0  0  0
  159.2540  213.4560  150.6860 C   0  0  2  0  0  3  0  0  0  0  0  0
  160.3390  214.4190  150.6210 N   0  0  0  0  0  1  0  0  0  0  0  0
  157.0570  213.3330  149.8350 O   0  0  0  0  0  0  0  0  0  0  0  0
  158.0150  214.0460  150.0940 C   0  0  0  0  0  3  0  0  0  0  0  0
  162.4620  207.3480  151.2780 C   0  0  0  0  0  2  0  0  0  0  0  0
  160.6690  206.5330  149.9300 O   0  0  0  0  0  1  0  0  0  0  0  0
  161.5060  207.6320  150.1310 C   0  0  2  0  0  3  0  0  0  0  0  0
  162.2730  207.9690  148.8520 C   0  0  2  0  0  3  0  0  0  0  0  0
  161.8100  210.4510  148.5710 C   0  0  0  0  0  0  0  0  0  0  0  0
  162.4770  210.7340  149.6010 O   0  0  0  0  0  1  0  0  0  0  0  0
  161.2320  211.4690  147.8250 O   0  0  0  0  0  0  0  0  0  0  0  0
  161.6410  209.0920  148.1670 N   0  0  0  0  0  2  0  0  0  0  0  0
  162.3110  206.8590  147.9970 O   0  0  0  0  0  0  0  0  0  0  0  0
  159.9880  206.3410  145.3360 O   0  0  0  0  0  0  0  0  0  0  0  0
  161.2310  206.9910  147.1860 N   0  0  0  0  0  2  0  0  0  0  0  0
  160.9840  206.1240  146.0720 C   0  0  0  0  0  0  0  0  0  0  0  0
  163.2160  205.4050  145.6960 O   0  0  0  0  0  1  0  0  0  0  0  0
  161.8870  204.9760  145.7380 C   0  0  1  0  0  3  0  0  0  0  0  0
  161.7240  203.8450  146.7130 C   0  0  0  0  0  3  0  0  0  0  0  0
  161.0720  202.7120  146.4280 C   0  0  0  0  0  3  0  0  0  0  0  0
  160.4280  202.4610  145.1030 C   0  0  0  0  0  2  0  0  0  0  0  0
  160.0090  201.0080  145.0110 C   0  0  0  0  0  2  0  0  0  0  0  0
  160.9050  200.1700  145.8990 C   0  0  0  0  0  1  0  0  0  0  0  0
  1  3  2  0  0  0  0
  2  4  1  0  0  0  0
  2  1  1  0  0  0  0
  5  4  1  0  0  0  0
  6  5  1  0  0  0  0
  6  7  1  6  0  0  0
  8  6  1  0  0  0  0
  9  8  1  0  0  0  0
 10  9  1  0  0  0  0
 11 10  1  0  0  0  0
 12 10  2  0  0  0  0
 13  1  1  0  0  0  0
 13 14  1  0  0  0  0
 15 14  2  0  0  0  0
 16 15  1  0  0  0  0
 17 16  1  0  0  0  0
 17 18  2  0  0  0  0
 19 20  1  1  0  0  0
 19 17  1  0  0  0  0
 21 22  2  0  0  0  0
 22 19  1  0  0  0  0
 23  2  1  0  0  0  0
 25 24  1  6  0  0  0
 25 23  1  0  0  0  0
 26 31  1  6  0  0  0
 26 25  1  0  0  0  0
 27 28  1  0  0  0  0
 29 27  2  0  0  0  0
 30 27  1  0  0  0  0
 30 26  1  0  0  0  0
 32 34  2  0  0  0  0
 33 31  1  0  0  0  0
 34 33  1  0  0  0  0
 36 35  1  1  0  0  0
 36 34  1  0  0  0  0
 36 37  1  0  0  0  0
 38 37  2  0  0  0  0
 39 38  1  0  0  0  0
 40 39  1  0  0  0  0
 40 41  1  0  0  0  0
M  END
>  <MODEL>
6

>  <REMARK>
 VINA RESULT:      -5.5      1.772      2.447
  Name = 
  22 active torsions:
  status: ('A' for Active; 'I' for Inactive)
    1  A    between atoms: C_3  and  N_11
    2  A    between atoms: C_3  and  C_14
    3  A    between atoms: C_4  and  C_7
    4  A    between atoms: C_4  and  C_12
    5  A    between atoms: C_8  and  C_34
    6  A    between atoms: N_10  and  O_33
    7  A    between atoms: N_11  and  N_27
    8  A    between atoms: C_13  and  C_17
    9  A    between atoms: C_13  and  C_38
   10  A    between atoms: C_14  and  C_23
   11  A    between atoms: C_15  and  C_30
   12  A    between atoms: C_15  and  C_32
   13  A    between atoms: C_16  and  C_37
   14  A    between atoms: C_16  and  C_41
   15  A    between atoms: C_17  and  N_27
   16  A    between atoms: C_19  and  C_28
   17  A    between atoms: C_19  and  C_37
   18  A    between atoms: C_21  and  C_35
   19  A    between atoms: C_22  and  C_35
   20  A    between atoms: C_23  and  N_31
   21  A    between atoms: C_23  and  O_33
   22  A    between atoms: C_34  and  C_38
                            x       y       z     vdW  Elec       q    Type
                         _______ _______ _______ _____ _____    ______ ____

>  <TORSDO>
F 22

$$$$
=
 OpenBabel11042420493D

 41 40  0  0  1  0  0  0  0  0999 V2000
  160.8850  207.3240  153.6850 C   0  0  0  0  0  0  0  0  0  0  0  0
  160.9310  208.6400  153.1100 N   0  0  0  0  0  0  0  0  0  0  0  0
  161.0970  207.1720  154.9190 O   0  0  0  0  0  0  0  0  0  0  0  0
  161.2050  209.7520  153.9220 N   0  0  0  0  0  2  0  0  0  0  0  0
  160.0060  210.0360  154.7050 C   0  0  0  0  0  2  0  0  0  0  0  0
  159.0920  211.0200  153.9780 C   0  0  1  0  0  3  0  0  0  0  0  0
  158.1180  211.6560  154.9520 C   0  0  0  0  0  1  0  0  0  0  0  0
  159.8790  212.1040  153.2460 C   0  0  0  0  0  2  0  0  0  0  0  0
  158.9670  213.2130  152.7330 C   0  0  0  0  0  2  0  0  0  0  0  0
  158.9320  213.2240  151.2420 C   0  0  0  0  0  0  0  0  0  0  0  0
  160.1080  213.0700  150.5200 O   0  0  0  0  0  0  0  0  0  0  0  0
  157.8330  213.3470  150.6400 O   0  0  0  0  0  1  0  0  0  0  0  0
  160.5690  206.1210  152.8510 C   0  0  0  0  0  2  0  0  0  0  0  0
  161.8210  205.5640  152.2370 C   0  0  0  0  0  3  0  0  0  0  0  0
  161.8280  204.5850  151.3260 C   0  0  0  0  0  3  0  0  0  0  0  0
  160.5820  203.9090  150.8440 C   0  0  0  0  0  2  0  0  0  0  0  0
  160.8380  202.4540  150.6340 C   0  0  0  0  0  0  0  0  0  0  0  0
  161.4280  201.8090  151.4880 O   0  0  0  0  0  0  0  0  0  0  0  0
  160.3880  201.8040  149.3610 C   0  0  2  0  0  3  0  0  0  0  0  0
  159.0190  201.3360  149.4920 N   0  0  0  0  0  1  0  0  0  0  0  0
  161.5610  200.4580  147.8200 O   0  0  0  0  0  0  0  0  0  0  0  0
  161.2810  200.6650  148.9900 C   0  0  0  0  0  3  0  0  0  0  0  0
  160.9060  208.8250  151.6640 C   0  0  0  0  0  2  0  0  0  0  0  0
  162.7080  210.3700  151.4110 O   0  0  0  0  0  1  0  0  0  0  0  0
  162.3130  209.0590  151.1370 C   0  0  2  0  0  3  0  0  0  0  0  0
  162.3880  208.7740  149.6370 C   0  0  2  0  0  3  0  0  0  0  0  0
  161.8450  210.8410  148.2640 C   0  0  0  0  0  0  0  0  0  0  0  0
  163.0300  211.2590  148.3480 O   0  0  0  0  0  1  0  0  0  0  0  0
  160.9100  211.5670  147.5380 O   0  0  0  0  0  0  0  0  0  0  0  0
  161.4540  209.6320  148.9140 N   0  0  0  0  0  2  0  0  0  0  0  0
  162.0890  207.4300  149.3770 O   0  0  0  0  0  0  0  0  0  0  0  0
  160.4450  206.6740  146.3000 O   0  0  0  0  0  0  0  0  0  0  0  0
  161.1980  207.4510  148.3540 N   0  0  0  0  0  2  0  0  0  0  0  0
  161.2790  206.5600  147.2340 C   0  0  0  0  0  0  0  0  0  0  0  0
  161.9380  204.3500  147.7980 O   0  0  0  0  0  1  0  0  0  0  0  0
  162.3390  205.5070  147.1250 C   0  0  1  0  0  3  0  0  0  0  0  0
  162.6690  205.2020  145.6920 C   0  0  0  0  0  3  0  0  0  0  0  0
  162.2300  204.1140  145.0490 C   0  0  0  0  0  3  0  0  0  0  0  0
  161.3700  203.0810  145.7010 C   0  0  0  0  0  2  0  0  0  0  0  0
  160.1080  202.8850  144.8850 C   0  0  0  0  0  2  0  0  0  0  0  0
  159.7030  201.4270  144.9270 C   0  0  0  0  0  1  0  0  0  0  0  0
  1  3  2  0  0  0  0
  2  1  1  0  0  0  0
  2  4  1  0  0  0  0
  4  5  1  0  0  0  0
  6  5  1  0  0  0  0
  6  7  1  1  0  0  0
  8  6  1  0  0  0  0
  9  8  1  0  0  0  0
 10  9  1  0  0  0  0
 11 10  2  0  0  0  0
 12 10  1  0  0  0  0
 13  1  1  0  0  0  0
 14 13  1  0  0  0  0
 15 14  2  0  0  0  0
 16 15  1  0  0  0  0
 17 16  1  0  0  0  0
 17 18  2  0  0  0  0
 19 20  1  1  0  0  0
 19 17  1  0  0  0  0
 21 22  2  0  0  0  0
 22 19  1  0  0  0  0
 23  2  1  0  0  0  0
 25 24  1  6  0  0  0
 25 23  1  0  0  0  0
 26 30  1  6  0  0  0
 26 25  1  0  0  0  0
 27 28  1  0  0  0  0
 27 30  1  0  0  0  0
 29 27  2  0  0  0  0
 31 26  1  0  0  0  0
 32 34  2  0  0  0  0
 33 31  1  0  0  0  0
 34 33  1  0  0  0  0
 36 34  1  0  0  0  0
 36 35  1  6  0  0  0
 37 36  1  0  0  0  0
 38 37  2  0  0  0  0
 38 39  1  0  0  0  0
 40 41  1  0  0  0  0
 40 39  1  0  0  0  0
M  END
>  <MODEL>
7

>  <REMARK>
 VINA RESULT:      -5.4      1.701      7.101
  Name = 
  22 active torsions:
  status: ('A' for Active; 'I' for Inactive)
    1  A    between atoms: C_3  and  N_11
    2  A    between atoms: C_3  and  C_14
    3  A    between atoms: C_4  and  C_7
    4  A    between atoms: C_4  and  C_12
    5  A    between atoms: C_8  and  C_34
    6  A    between atoms: N_10  and  O_33
    7  A    between atoms: N_11  and  N_27
    8  A    between atoms: C_13  and  C_17
    9  A    between atoms: C_13  and  C_38
   10  A    between atoms: C_14  and  C_23
   11  A    between atoms: C_15  and  C_30
   12  A    between atoms: C_15  and  C_32
   13  A    between atoms: C_16  and  C_37
   14  A    between atoms: C_16  and  C_41
   15  A    between atoms: C_17  and  N_27
   16  A    between atoms: C_19  and  C_28
   17  A    between atoms: C_19  and  C_37
   18  A    between atoms: C_21  and  C_35
   19  A    between atoms: C_22  and  C_35
   20  A    between atoms: C_23  and  N_31
   21  A    between atoms: C_23  and  O_33
   22  A    between atoms: C_34  and  C_38
                            x       y       z     vdW  Elec       q    Type
                         _______ _______ _______ _____ _____    ______ ____

>  <TORSDO>
F 22

$$$$
=
 OpenBabel11042420493D

 41 40  0  0  1  0  0  0  0  0999 V2000
  161.0930  204.7260  152.0740 C   0  0  0  0  0  0  0  0  0  0  0  0
  160.6340  204.9740  150.7350 N   0  0  0  0  0  0  0  0  0  0  0  0
  161.0450  203.5580  152.5470 O   0  0  0  0  0  0  0  0  0  0  0  0
  160.1410  203.9160  149.9550 N   0  0  0  0  0  2  0  0  0  0  0  0
  161.2180  203.4710  149.0770 C   0  0  0  0  0  2  0  0  0  0  0  0
  161.2550  201.9470  148.9780 C   0  0  1  0  0  3  0  0  0  0  0  0
  160.4190  201.3260  150.0820 C   0  0  0  0  0  1  0  0  0  0  0  0
  160.7780  201.4460  147.6180 C   0  0  0  0  0  2  0  0  0  0  0  0
  161.2080  202.3770  146.4910 C   0  0  0  0  0  2  0  0  0  0  0  0
  160.4110  202.1210  145.2570 C   0  0  0  0  0  0  0  0  0  0  0  0
  160.0570  200.8210  144.9190 O   0  0  0  0  0  1  0  0  0  0  0  0
  160.0360  203.0840  144.5380 O   0  0  0  0  0  0  0  0  0  0  0  0
  161.6510  205.8270  152.9220 C   0  0  0  0  0  2  0  0  0  0  0  0
  160.8680  205.9550  154.1970 C   0  0  0  0  0  3  0  0  0  0  0  0
  160.4680  207.1260  154.7080 C   0  0  0  0  0  3  0  0  0  0  0  0
  160.7920  208.4450  154.0780 C   0  0  0  0  0  2  0  0  0  0  0  0
  160.2500  209.5570  154.9110 C   0  0  0  0  0  0  0  0  0  0  0  0
  159.7150  209.3110  155.9820 O   0  0  0  0  0  0  0  0  0  0  0  0
  160.3470  210.9660  154.4110 C   0  0  2  0  0  3  0  0  0  0  0  0
  160.8070  211.8450  155.4720 N   0  0  0  0  0  1  0  0  0  0  0  0
  158.6730  211.1460  152.7590 O   0  0  0  0  0  0  0  0  0  0  0  0
  159.0320  211.4460  153.8870 C   0  0  0  0  0  3  0  0  0  0  0  0
  160.4740  206.3360  150.2400 C   0  0  0  0  0  2  0  0  0  0  0  0
  162.7180  207.1500  150.1920 O   0  0  0  0  0  1  0  0  0  0  0  0
  161.6640  206.7260  149.3780 C   0  0  2  0  0  3  0  0  0  0  0  0
  161.2800  207.8180  148.3800 C   0  0  2  0  0  3  0  0  0  0  0  0
  161.9100  206.2030  146.5230 C   0  0  0  0  0  0  0  0  0  0  0  0
  162.9010  205.7770  147.1730 O   0  0  0  0  0  1  0  0  0  0  0  0
  161.6180  205.6590  145.2790 O   0  0  0  0  0  0  0  0  0  0  0  0
  161.0870  207.2420  147.0520 N   0  0  0  0  0  2  0  0  0  0  0  0
  162.2760  208.8030  148.3230 O   0  0  0  0  0  0  0  0  0  0  0  0
  161.5740  211.8190  150.1010 O   0  0  0  0  0  0  0  0  0  0  0  0
  161.9830  209.6690  149.3270 N   0  0  0  0  0  2  0  0  0  0  0  0
  161.7940  211.0730  149.1130 C   0  0  0  0  0  0  0  0  0  0  0  0
  160.5900  211.8040  147.2010 O   0  0  0  0  0  1  0  0  0  0  0  0
  161.8700  211.6910  147.7490 C   0  0  1  0  0  3  0  0  0  0  0  0
  162.5520  213.0290  147.7870 C   0  0  0  0  0  3  0  0  0  0  0  0
  162.6190  213.8530  146.7360 C   0  0  0  0  0  3  0  0  0  0  0  0
  162.0250  213.5190  145.4060 C   0  0  0  0  0  2  0  0  0  0  0  0
  163.1060  212.9860  144.4890 C   0  0  0  0  0  2  0  0  0  0  0  0
  162.6200  213.0380  143.0560 C   0  0  0  0  0  1  0  0  0  0  0  0
  1  3  2  0  0  0  0
  1 13  1  0  0  0  0
  2  1  1  0  0  0  0
  4  2  1  0  0  0  0
  5  4  1  0  0  0  0
  6  5  1  0  0  0  0
  6  7  1  1  0  0  0
  8  6  1  0  0  0  0
  9  8  1  0  0  0  0
 10  9  1  0  0  0  0
 11 10  1  0  0  0  0
 12 10  2  0  0  0  0
 13 14  1  0  0  0  0
 14 15  2  0  0  0  0
 16 15  1  0  0  0  0
 16 17  1  0  0  0  0
 17 18  2  0  0  0  0
 19 17  1  0  0  0  0
 19 20  1  1  0  0  0
 21 22  2  0  0  0  0
 22 19  1  0  0  0  0
 23  2  1  0  0  0  0
 25 24  1  1  0  0  0
 25 23  1  0  0  0  0
 26 30  1  6  0  0  0
 26 25  1  0  0  0  0
 27 30  1  0  0  0  0
 27 28  1  0  0  0  0
 29 27  2  0  0  0  0
 31 26  1  0  0  0  0
 31 33  1  0  0  0  0
 34 33  1  0  0  0  0
 34 32  2  0  0  0  0
 36 35  1  1  0  0  0
 36 37  1  0  0  0  0
 36 34  1  0  0  0  0
 38 37  2  0  0  0  0
 39 38  1  0  0  0  0
 40 39  1  0  0  0  0
 41 40  1  0  0  0  0
M  END
>  <MODEL>
8

>  <REMARK>
 VINA RESULT:      -5.3      2.326      5.088
  Name = 
  22 active torsions:
  status: ('A' for Active; 'I' for Inactive)
    1  A    between atoms: C_3  and  N_11
    2  A    between atoms: C_3  and  C_14
    3  A    between atoms: C_4  and  C_7
    4  A    between atoms: C_4  and  C_12
    5  A    between atoms: C_8  and  C_34
    6  A    between atoms: N_10  and  O_33
    7  A    between atoms: N_11  and  N_27
    8  A    between atoms: C_13  and  C_17
    9  A    between atoms: C_13  and  C_38
   10  A    between atoms: C_14  and  C_23
   11  A    between atoms: C_15  and  C_30
   12  A    between atoms: C_15  and  C_32
   13  A    between atoms: C_16  and  C_37
   14  A    between atoms: C_16  and  C_41
   15  A    between atoms: C_17  and  N_27
   16  A    between atoms: C_19  and  C_28
   17  A    between atoms: C_19  and  C_37
   18  A    between atoms: C_21  and  C_35
   19  A    between atoms: C_22  and  C_35
   20  A    between atoms: C_23  and  N_31
   21  A    between atoms: C_23  and  O_33
   22  A    between atoms: C_34  and  C_38
                            x       y       z     vdW  Elec       q    Type
                         _______ _______ _______ _____ _____    ______ ____

>  <TORSDO>
F 22

$$$$
=
 OpenBabel11042420493D

 41 40  0  0  1  0  0  0  0  0999 V2000
  161.2680  207.5430  152.8920 C   0  0  0  0  0  0  0  0  0  0  0  0
  162.1300  206.7920  152.0230 N   0  0  0  0  0  0  0  0  0  0  0  0
  160.7620  206.9880  153.9060 O   0  0  0  0  0  0  0  0  0  0  0  0
  162.4140  205.4460  152.3070 N   0  0  0  0  0  2  0  0  0  0  0  0
  161.9340  204.6440  151.1860 C   0  0  0  0  0  2  0  0  0  0  0  0
  161.3570  203.3140  151.6660 C   0  0  1  0  0  3  0  0  0  0  0  0
  160.2270  203.5540  152.6510 C   0  0  0  0  0  1  0  0  0  0  0  0
  160.8650  202.4480  150.5100 C   0  0  0  0  0  2  0  0  0  0  0  0
  161.1650  203.0870  149.1600 C   0  0  0  0  0  2  0  0  0  0  0  0
  161.1550  202.0640  148.0740 C   0  0  0  0  0  0  0  0  0  0  0  0
  160.8980  202.4470  146.7640 O   0  0  0  0  0  0  0  0  0  0  0  0
  161.4040  200.8590  148.3420 O   0  0  0  0  0  1  0  0  0  0  0  0
  160.9680  208.9870  152.6330 C   0  0  0  0  0  2  0  0  0  0  0  0
  161.8120  209.8640  153.5110 C   0  0  0  0  0  3  0  0  0  0  0  0
  161.4020  210.3500  154.6890 C   0  0  0  0  0  3  0  0  0  0  0  0
  160.0340  210.0990  155.2430 C   0  0  0  0  0  2  0  0  0  0  0  0
  159.3860  211.3920  155.6100 C   0  0  0  0  0  0  0  0  0  0  0  0
  158.8380  211.5130  156.6950 O   0  0  0  0  0  0  0  0  0  0  0  0
  159.3950  212.5250  154.6280 C   0  0  2  0  0  3  0  0  0  0  0  0
  159.2220  213.7910  155.3190 N   0  0  0  0  0  1  0  0  0  0  0  0
  158.6020  211.9490  152.4820 O   0  0  0  0  0  0  0  0  0  0  0  0
  158.3240  212.3570  153.5990 C   0  0  0  0  0  3  0  0  0  0  0  0
  162.5530  207.3340  150.7370 C   0  0  0  0  0  2  0  0  0  0  0  0
  160.4070  206.6970  149.9090 O   0  0  0  0  0  1  0  0  0  0  0  0
  161.3420  207.7340  149.9100 C   0  0  2  0  0  3  0  0  0  0  0  0
  161.7510  208.0940  148.4820 C   0  0  2  0  0  3  0  0  0  0  0  0
  162.0390  206.0990  146.9360 C   0  0  0  0  0  0  0  0  0  0  0  0
  160.8290  206.1410  146.5880 O   0  0  0  0  0  1  0  0  0  0  0  0
  162.8810  205.1460  146.3780 O   0  0  0  0  0  0  0  0  0  0  0  0
  162.5490  207.0190  147.9000 N   0  0  0  0  0  2  0  0  0  0  0  0
  162.4880  209.2860  148.4680 O   0  0  0  0  0  0  0  0  0  0  0  0
  161.0810  212.0520  150.2340 O   0  0  0  0  0  0  0  0  0  0  0  0
  161.9600  210.0470  149.4600 N   0  0  0  0  0  2  0  0  0  0  0  0
  161.5130  211.3930  149.2540 C   0  0  0  0  0  0  0  0  0  0  0  0
  160.5400  213.0020  147.8030 O   0  0  0  0  0  1  0  0  0  0  0  0
  161.5610  212.0540  147.9100 C   0  0  1  0  0  3  0  0  0  0  0  0
  162.9010  212.6830  147.6520 C   0  0  0  0  0  3  0  0  0  0  0  0
  163.1990  213.3530  146.5340 C   0  0  0  0  0  3  0  0  0  0  0  0
  162.2240  213.5360  145.4160 C   0  0  0  0  0  2  0  0  0  0  0  0
  162.9490  213.4280  144.0900 C   0  0  0  0  0  2  0  0  0  0  0  0
  162.1300  212.5820  143.1380 C   0  0  0  0  0  1  0  0  0  0  0  0
  1  3  2  0  0  0  0
  2  4  1  0  0  0  0
  2  1  1  0  0  0  0
  5  6  1  0  0  0  0
  5  4  1  0  0  0  0
  6  7  1  1  0  0  0
  8  6  1  0  0  0  0
  9  8  1  0  0  0  0
 10 12  1  0  0  0  0
 10  9  1  0  0  0  0
 11 10  2  0  0  0  0
 13  1  1  0  0  0  0
 13 14  1  0  0  0  0
 14 15  2  0  0  0  0
 15 16  1  0  0  0  0
 16 17  1  0  0  0  0
 17 18  2  0  0  0  0
 19 20  1  1  0  0  0
 19 17  1  0  0  0  0
 21 22  2  0  0  0  0
 22 19  1  0  0  0  0
 23  2  1  0  0  0  0
 25 24  1  6  0  0  0
 25 23  1  0  0  0  0
 26 30  1  1  0  0  0
 26 25  1  0  0  0  0
 27 30  1  0  0  0  0
 28 27  1  0  0  0  0
 29 27  2  0  0  0  0
 31 26  1  0  0  0  0
 31 33  1  0  0  0  0
 34 33  1  0  0  0  0
 34 32  2  0  0  0  0
 36 35  1  1  0  0  0
 36 34  1  0  0  0  0
 37 36  1  0  0  0  0
 38 37  2  0  0  0  0
 39 38  1  0  0  0  0
 40 39  1  0  0  0  0
 41 40  1  0  0  0  0
M  END
>  <MODEL>
9

>  <REMARK>
 VINA RESULT:      -5.3      1.821      4.692
  Name = 
  22 active torsions:
  status: ('A' for Active; 'I' for Inactive)
    1  A    between atoms: C_3  and  N_11
    2  A    between atoms: C_3  and  C_14
    3  A    between atoms: C_4  and  C_7
    4  A    between atoms: C_4  and  C_12
    5  A    between atoms: C_8  and  C_34
    6  A    between atoms: N_10  and  O_33
    7  A    between atoms: N_11  and  N_27
    8  A    between atoms: C_13  and  C_17
    9  A    between atoms: C_13  and  C_38
   10  A    between atoms: C_14  and  C_23
   11  A    between atoms: C_15  and  C_30
   12  A    between atoms: C_15  and  C_32
   13  A    between atoms: C_16  and  C_37
   14  A    between atoms: C_16  and  C_41
   15  A    between atoms: C_17  and  N_27
   16  A    between atoms: C_19  and  C_28
   17  A    between atoms: C_19  and  C_37
   18  A    between atoms: C_21  and  C_35
   19  A    between atoms: C_22  and  C_35
   20  A    between atoms: C_23  and  N_31
   21  A    between atoms: C_23  and  O_33
   22  A    between atoms: C_34  and  C_38
                            x       y       z     vdW  Elec       q    Type
                         _______ _______ _______ _____ _____    ______ ____

>  <TORSDO>
F 22

$$$$
