=
 OpenBabel11042423123D

 29 31  0  0  1  0  0  0  0  0999 V2000
  160.6630  208.8140  156.0610 C   0  0  0  0  0  0  0  0  0  0  0  0
  161.3950  211.1160  154.5850 C   0  0  0  0  0  3  0  0  0  0  0  0
  162.5910  211.8910  156.4280 F   0  0  0  0  0  0  0  0  0  0  0  0
  161.8550  210.9270  155.8280 C   0  0  0  0  0  0  0  0  0  0  0  0
  160.6250  210.0300  153.8520 C   0  0  2  0  0  0  0  0  0  0  0  0
  161.5750  209.6660  156.5380 C   0  0  0  0  0  3  0  0  0  0  0  0
  159.8270  209.1920  154.8680 C   0  0  0  0  0  2  0  0  0  0  0  0
  160.8520  206.1250  149.3020 C   0  0  0  0  0  3  0  0  0  0  0  0
  161.2380  207.4850  151.2610 C   0  0  0  0  0  0  0  0  0  0  0  0
  161.7830  208.3540  149.0670 C   0  0  0  0  0  3  0  0  0  0  0  0
  162.5450  209.6800  152.3830 O   0  0  0  0  0  0  0  0  0  0  0  0
  162.1850  209.6850  151.0760 O   0  0  0  0  0  0  0  0  0  0  0  0
  160.7110  206.9480  153.5200 O   0  0  0  0  0  0  0  0  0  0  0  0
  161.3880  206.9940  147.1130 O   0  0  0  0  0  1  0  0  0  0  0  0
  161.3410  207.1580  148.4920 C   0  0  0  0  0  0  0  0  0  0  0  0
  161.1240  207.7970  152.6840 C   0  0  0  0  0  0  0  0  0  0  0  0
  161.7410  208.5090  150.4550 C   0  0  0  0  0  0  0  0  0  0  0  0
  160.7920  206.2880  150.6910 C   0  0  0  0  0  3  0  0  0  0  0  0
  161.5040  209.1280  153.0760 N   0  0  0  0  0  0  0  0  0  0  0  0
  160.2480  206.5540  157.2610 N   0  0  0  0  0  0  0  0  0  0  0  0
  160.4340  207.5640  156.7260 C   0  0  0  0  0  0  0  0  0  0  0  0
  159.6090  210.6920  152.9140 C   0  0  0  0  0  2  0  0  0  0  0  0
  157.7020  211.8300  153.9210 N   0  0  0  0  0  1  0  0  0  0  0  0
  159.0660  212.0110  153.4520 C   0  0  2  0  0  3  0  0  0  0  0  0
  159.0880  213.0480  152.3430 C   0  0  0  0  0  2  0  0  0  0  0  0
  160.0140  212.6450  151.2940 N   0  0  0  0  0  2  0  0  0  0  0  0
  159.7310  213.4570  150.1210 C   0  0  0  0  0  2  0  0  0  0  0  0
  160.9740  213.5870  149.2580 C   0  0  0  0  0  2  0  0  0  0  0  0
  161.5170  212.3250  149.0160 O   0  0  0  0  0  1  0  0  0  0  0  0
  1  6  2  0  0  0  0
  1 21  1  0  0  0  0
  2  4  2  0  0  0  0
  4  3  1  0  0  0  0
  4  6  1  0  0  0  0
  5 22  1  6  0  0  0
  5  2  1  0  0  0  0
  5  7  1  0  0  0  0
  7  1  1  0  0  0  0
  8 18  1  0  0  0  0
  9 16  1  0  0  0  0
 10 17  2  0  0  0  0
 11 19  1  0  0  0  0
 12 11  1  0  0  0  0
 14 15  1  0  0  0  0
 15 10  1  0  0  0  0
 15  8  2  0  0  0  0
 16 19  1  0  0  0  0
 16 13  2  0  0  0  0
 17 12  1  0  0  0  0
 17  9  1  0  0  0  0
 18  9  2  0  0  0  0
 19  5  1  0  0  0  0
 21 20  3  0  0  0  0
 22 24  1  0  0  0  0
 24 23  1  6  0  0  0
 25 24  1  0  0  0  0
 26 25  1  0  0  0  0
 27 26  1  0  0  0  0
 28 27  1  0  0  0  0
 29 28  1  0  0  0  0
M  END
>  <MODEL>
1

>  <REMARK>
 VINA RESULT:      -5.9      0.000      0.000
  Name = 
  8 active torsions:
  status: ('A' for Active; 'I' for Inactive)
    1  A    between atoms: C_1  and  C_16
    2  A    between atoms: N_9  and  C_27
    3  A    between atoms: N_9  and  C_29
    4  A    between atoms: C_15  and  C_20
    5  A    between atoms: C_15  and  N_24
    6  A    between atoms: C_20  and  C_25
    7  A    between atoms: C_22  and  C_29
    8  A    between atoms: C_25  and  C_27
                            x       y       z     vdW  Elec       q    Type
                         _______ _______ _______ _____ _____    ______ ____

>  <TORSDO>
F 8

$$$$
=
 OpenBabel11042423123D

 29 31  0  0  1  0  0  0  0  0999 V2000
  162.2600  210.2250  155.9640 C   0  0  0  0  0  0  0  0  0  0  0  0
  159.8090  209.1470  155.0460 C   0  0  0  0  0  3  0  0  0  0  0  0
  159.6270  207.9320  157.0260 F   0  0  0  0  0  0  0  0  0  0  0  0
  160.2750  208.8440  156.2630 C   0  0  0  0  0  0  0  0  0  0  0  0
  160.4690  210.2160  154.1890 C   0  0  2  0  0  0  0  0  0  0  0  0
  161.4830  209.5100  156.7820 C   0  0  0  0  0  3  0  0  0  0  0  0
  161.9790  210.2500  154.4850 C   0  0  0  0  0  2  0  0  0  0  0  0
  156.2840  214.1470  152.4460 C   0  0  0  0  0  3  0  0  0  0  0  0
  158.1850  212.9930  153.3900 C   0  0  0  0  0  0  0  0  0  0  0  0
  156.0540  212.9420  154.5410 C   0  0  0  0  0  3  0  0  0  0  0  0
  159.3540  211.8320  155.6430 O   0  0  0  0  0  0  0  0  0  0  0  0
  158.0090  211.8130  155.4760 O   0  0  0  0  0  0  0  0  0  0  0  0
  160.3600  212.7780  152.4470 O   0  0  0  0  0  0  0  0  0  0  0  0
  154.1570  214.0910  153.5890 O   0  0  0  0  0  1  0  0  0  0  0  0
  155.4960  213.7270  153.5260 C   0  0  0  0  0  0  0  0  0  0  0  0
  159.5480  212.4650  153.3580 C   0  0  0  0  0  0  0  0  0  0  0  0
  157.4040  212.5870  154.4760 C   0  0  0  0  0  0  0  0  0  0  0  0
  157.6320  213.7750  152.3710 C   0  0  0  0  0  3  0  0  0  0  0  0
  159.9070  211.5630  154.4210 N   0  0  0  0  0  0  0  0  0  0  0  0
  164.3280  211.4720  156.9050 N   0  0  0  0  0  0  0  0  0  0  0  0
  163.4040  210.9160  156.4850 C   0  0  0  0  0  0  0  0  0  0  0  0
  160.3050  209.8360  152.7130 C   0  0  0  0  0  2  0  0  0  0  0  0
  161.9730  209.8770  150.9350 N   0  0  0  0  0  1  0  0  0  0  0  0
  161.5410  209.1630  152.1250 C   0  0  2  0  0  3  0  0  0  0  0  0
  161.2020  207.7280  151.7630 C   0  0  0  0  0  2  0  0  0  0  0  0
  162.0800  207.2540  150.7030 N   0  0  0  0  0  2  0  0  0  0  0  0
  161.2570  206.5450  149.7350 C   0  0  0  0  0  2  0  0  0  0  0  0
  161.3580  207.2080  148.3720 C   0  0  0  0  0  2  0  0  0  0  0  0
  162.6140  207.7950  148.2220 O   0  0  0  0  0  1  0  0  0  0  0  0
  1 21  1  0  0  0  0
  1  6  2  0  0  0  0
  2  4  2  0  0  0  0
  4  6  1  0  0  0  0
  4  3  1  0  0  0  0
  5 22  1  6  0  0  0
  5 19  1  0  0  0  0
  5  7  1  0  0  0  0
  5  2  1  0  0  0  0
  7  1  1  0  0  0  0
  8 15  1  0  0  0  0
  9 17  2  0  0  0  0
 12 11  1  0  0  0  0
 13 16  2  0  0  0  0
 15 14  1  0  0  0  0
 15 10  2  0  0  0  0
 16  9  1  0  0  0  0
 16 19  1  0  0  0  0
 17 10  1  0  0  0  0
 17 12  1  0  0  0  0
 18  8  2  0  0  0  0
 18  9  1  0  0  0  0
 19 11  1  0  0  0  0
 21 20  3  0  0  0  0
 24 23  1  6  0  0  0
 24 22  1  0  0  0  0
 25 24  1  0  0  0  0
 26 25  1  0  0  0  0
 27 26  1  0  0  0  0
 28 27  1  0  0  0  0
 29 28  1  0  0  0  0
M  END
>  <MODEL>
2

>  <REMARK>
 VINA RESULT:      -5.1      3.116      6.067
  Name = 
  8 active torsions:
  status: ('A' for Active; 'I' for Inactive)
    1  A    between atoms: C_1  and  C_16
    2  A    between atoms: N_9  and  C_27
    3  A    between atoms: N_9  and  C_29
    4  A    between atoms: C_15  and  C_20
    5  A    between atoms: C_15  and  N_24
    6  A    between atoms: C_20  and  C_25
    7  A    between atoms: C_22  and  C_29
    8  A    between atoms: C_25  and  C_27
                            x       y       z     vdW  Elec       q    Type
                         _______ _______ _______ _____ _____    ______ ____

>  <TORSDO>
F 8

$$$$
=
 OpenBabel11042423123D

 29 31  0  0  1  0  0  0  0  0999 V2000
  161.9230  210.3900  150.4220 C   0  0  0  0  0  0  0  0  0  0  0  0
  160.7660  208.4020  152.0710 C   0  0  0  0  0  3  0  0  0  0  0  0
  159.4870  210.0450  153.1170 F   0  0  0  0  0  0  0  0  0  0  0  0
  160.3710  209.6780  152.1600 C   0  0  0  0  0  0  0  0  0  0  0  0
  161.7030  207.9380  150.9680 C   0  0  2  0  0  0  0  0  0  0  0  0
  160.8840  210.6810  151.2100 C   0  0  0  0  0  3  0  0  0  0  0  0
  162.6560  209.0850  150.5880 C   0  0  0  0  0  2  0  0  0  0  0  0
  162.1470  204.7860  145.8820 C   0  0  0  0  0  3  0  0  0  0  0  0
  161.5250  206.2530  147.6970 C   0  0  0  0  0  0  0  0  0  0  0  0
  160.8980  203.9140  147.7720 C   0  0  0  0  0  3  0  0  0  0  0  0
  159.8840  206.6960  149.9100 O   0  0  0  0  0  0  0  0  0  0  0  0
  160.2640  205.4390  149.5730 O   0  0  0  0  0  0  0  0  0  0  0  0
  162.0840  208.5530  147.9520 O   0  0  0  0  0  0  0  0  0  0  0  0
  161.5290  202.4520  145.9590 O   0  0  0  0  0  1  0  0  0  0  0  0
  161.5240  203.7150  146.5370 C   0  0  0  0  0  0  0  0  0  0  0  0
  161.5650  207.5120  148.4380 C   0  0  0  0  0  0  0  0  0  0  0  0
  160.8900  205.1890  148.3440 C   0  0  0  0  0  0  0  0  0  0  0  0
  162.1560  206.0590  146.4640 C   0  0  0  0  0  3  0  0  0  0  0  0
  160.9830  207.4950  149.7540 N   0  0  0  0  0  0  0  0  0  0  0  0
  162.7530  212.1260  148.6850 N   0  0  0  0  0  0  0  0  0  0  0  0
  162.3830  211.3500  149.4600 C   0  0  0  0  0  0  0  0  0  0  0  0
  162.5660  206.7900  151.5030 C   0  0  0  0  0  2  0  0  0  0  0  0
  162.0840  205.9920  153.7560 N   0  0  0  0  0  1  0  0  0  0  0  0
  161.7820  205.7920  152.3480 C   0  0  2  0  0  3  0  0  0  0  0  0
  162.1690  204.3820  151.9400 C   0  0  0  0  0  2  0  0  0  0  0  0
  160.9910  203.5270  151.8970 N   0  0  0  0  0  2  0  0  0  0  0  0
  161.4230  202.2040  151.4740 C   0  0  0  0  0  2  0  0  0  0  0  0
  160.5430  201.7000  150.3430 C   0  0  0  0  0  2  0  0  0  0  0  0
  161.2910  200.9040  149.4770 O   0  0  0  0  0  1  0  0  0  0  0  0
  1  7  1  0  0  0  0
  1  6  2  0  0  0  0
  2  4  2  0  0  0  0
  4  3  1  0  0  0  0
  5 22  1  1  0  0  0
  5  2  1  0  0  0  0
  6  4  1  0  0  0  0
  7  5  1  0  0  0  0
  8 18  2  0  0  0  0
  8 15  1  0  0  0  0
  9 17  2  0  0  0  0
  9 16  1  0  0  0  0
 10 17  1  0  0  0  0
 12 11  1  0  0  0  0
 13 16  2  0  0  0  0
 14 15  1  0  0  0  0
 15 10  2  0  0  0  0
 16 19  1  0  0  0  0
 17 12  1  0  0  0  0
 18  9  1  0  0  0  0
 19 11  1  0  0  0  0
 19  5  1  0  0  0  0
 20 21  3  0  0  0  0
 21  1  1  0  0  0  0
 22 24  1  0  0  0  0
 24 23  1  1  0  0  0
 25 24  1  0  0  0  0
 26 25  1  0  0  0  0
 27 26  1  0  0  0  0
 28 27  1  0  0  0  0
 29 28  1  0  0  0  0
M  END
>  <MODEL>
3

>  <REMARK>
 VINA RESULT:      -5.0      3.326      6.650
  Name = 
  8 active torsions:
  status: ('A' for Active; 'I' for Inactive)
    1  A    between atoms: C_1  and  C_16
    2  A    between atoms: N_9  and  C_27
    3  A    between atoms: N_9  and  C_29
    4  A    between atoms: C_15  and  C_20
    5  A    between atoms: C_15  and  N_24
    6  A    between atoms: C_20  and  C_25
    7  A    between atoms: C_22  and  C_29
    8  A    between atoms: C_25  and  C_27
                            x       y       z     vdW  Elec       q    Type
                         _______ _______ _______ _____ _____    ______ ____

>  <TORSDO>
F 8

$$$$
=
 OpenBabel11042423123D

 29 31  0  0  1  0  0  0  0  0999 V2000
  161.9510  204.9160  144.8870 C   0  0  0  0  0  0  0  0  0  0  0  0
  162.6830  204.0610  147.4840 C   0  0  0  0  0  3  0  0  0  0  0  0
  164.9100  204.5380  146.9900 F   0  0  0  0  0  0  0  0  0  0  0  0
  163.6020  204.5490  146.6420 C   0  0  0  0  0  0  0  0  0  0  0  0
  161.2000  204.1200  147.1590 C   0  0  2  0  0  0  0  0  0  0  0  0
  163.1920  205.1110  145.3420 C   0  0  0  0  0  3  0  0  0  0  0  0
  161.0040  204.0170  145.6360 C   0  0  0  0  0  2  0  0  0  0  0  0
  161.5560  208.6040  151.1300 C   0  0  0  0  0  3  0  0  0  0  0  0
  160.9080  206.9750  149.4680 C   0  0  0  0  0  0  0  0  0  0  0  0
  162.0980  208.9750  148.7930 C   0  0  0  0  0  3  0  0  0  0  0  0
  160.4560  206.4150  146.7710 O   0  0  0  0  0  0  0  0  0  0  0  0
  161.3990  207.3170  147.1410 O   0  0  0  0  0  0  0  0  0  0  0  0
  159.8320  204.8840  149.8360 O   0  0  0  0  0  0  0  0  0  0  0  0
  162.7480  210.5940  150.4610 O   0  0  0  0  0  1  0  0  0  0  0  0
  162.1350  209.3930  150.1280 C   0  0  0  0  0  0  0  0  0  0  0  0
  160.3900  205.6800  149.0330 C   0  0  0  0  0  0  0  0  0  0  0  0
  161.4710  207.7700  148.4660 C   0  0  0  0  0  0  0  0  0  0  0  0
  160.9460  207.3870  150.8040 C   0  0  0  0  0  3  0  0  0  0  0  0
  160.5570  205.3630  147.6390 N   0  0  0  0  0  0  0  0  0  0  0  0
  161.2110  205.9940  142.6500 N   0  0  0  0  0  0  0  0  0  0  0  0
  161.5400  205.5120  143.6490 C   0  0  0  0  0  0  0  0  0  0  0  0
  160.5080  202.9060  147.7880 C   0  0  0  0  0  2  0  0  0  0  0  0
  161.0970  200.7620  146.7860 N   0  0  0  0  0  1  0  0  0  0  0  0
  161.4080  201.6780  147.8710 C   0  0  2  0  0  3  0  0  0  0  0  0
  161.1810  200.9840  149.2030 C   0  0  0  0  0  2  0  0  0  0  0  0
  160.4940  201.8760  150.1260 N   0  0  0  0  0  2  0  0  0  0  0  0
  161.2920  201.9500  151.3410 C   0  0  0  0  0  2  0  0  0  0  0  0
  161.6860  203.3890  151.6240 C   0  0  0  0  0  2  0  0  0  0  0  0
  160.9180  203.8950  152.6720 O   0  0  0  0  0  1  0  0  0  0  0  0
  1  6  2  0  0  0  0
  1  7  1  0  0  0  0
  4  3  1  0  0  0  0
  4  2  2  0  0  0  0
  5  2  1  0  0  0  0
  5 19  1  0  0  0  0
  5 22  1  1  0  0  0
  6  4  1  0  0  0  0
  7  5  1  0  0  0  0
  9 18  2  0  0  0  0
 10 15  1  0  0  0  0
 11 12  1  0  0  0  0
 11 19  1  0  0  0  0
 12 17  1  0  0  0  0
 15 14  1  0  0  0  0
 15  8  2  0  0  0  0
 16  9  1  0  0  0  0
 16 13  2  0  0  0  0
 17 10  2  0  0  0  0
 17  9  1  0  0  0  0
 18  8  1  0  0  0  0
 19 16  1  0  0  0  0
 20 21  3  0  0  0  0
 21  1  1  0  0  0  0
 22 24  1  0  0  0  0
 24 23  1  6  0  0  0
 24 25  1  0  0  0  0
 25 26  1  0  0  0  0
 26 27  1  0  0  0  0
 27 28  1  0  0  0  0
 28 29  1  0  0  0  0
M  END
>  <MODEL>
4

>  <REMARK>
 VINA RESULT:      -4.1      4.987      9.252
  Name = 
  8 active torsions:
  status: ('A' for Active; 'I' for Inactive)
    1  A    between atoms: C_1  and  C_16
    2  A    between atoms: N_9  and  C_27
    3  A    between atoms: N_9  and  C_29
    4  A    between atoms: C_15  and  C_20
    5  A    between atoms: C_15  and  N_24
    6  A    between atoms: C_20  and  C_25
    7  A    between atoms: C_22  and  C_29
    8  A    between atoms: C_25  and  C_27
                            x       y       z     vdW  Elec       q    Type
                         _______ _______ _______ _____ _____    ______ ____

>  <TORSDO>
F 8

$$$$
=
 OpenBabel11042423123D

 29 31  0  0  1  0  0  0  0  0999 V2000
  160.7780  203.7670  145.4310 C   0  0  0  0  0  0  0  0  0  0  0  0
  162.8390  204.1480  147.3330 C   0  0  0  0  0  3  0  0  0  0  0  0
  164.2980  204.7150  145.6070 F   0  0  0  0  0  0  0  0  0  0  0  0
  163.0550  204.3880  146.0340 C   0  0  0  0  0  0  0  0  0  0  0  0
  161.4460  203.8470  147.8610 C   0  0  2  0  0  0  0  0  0  0  0  0
  161.9430  204.3120  145.0710 C   0  0  0  0  0  3  0  0  0  0  0  0
  160.6350  203.1120  146.7790 C   0  0  0  0  0  2  0  0  0  0  0  0
  161.5250  208.6660  151.4360 C   0  0  0  0  0  3  0  0  0  0  0  0
  160.9740  206.8520  149.9390 C   0  0  0  0  0  0  0  0  0  0  0  0
  161.9570  208.8830  149.0570 C   0  0  0  0  0  3  0  0  0  0  0  0
  160.4870  206.0280  147.3170 O   0  0  0  0  0  0  0  0  0  0  0  0
  161.3560  207.0360  147.5740 O   0  0  0  0  0  0  0  0  0  0  0  0
  160.1020  204.7140  150.5180 O   0  0  0  0  0  0  0  0  0  0  0  0
  162.5130  210.6880  150.5590 O   0  0  0  0  0  1  0  0  0  0  0  0
  161.9990  209.4140  150.3510 C   0  0  0  0  0  0  0  0  0  0  0  0
  160.5600  205.4840  149.6320 C   0  0  0  0  0  0  0  0  0  0  0  0
  161.4310  207.6040  148.8540 C   0  0  0  0  0  0  0  0  0  0  0  0
  161.0170  207.3770  151.2340 C   0  0  0  0  0  3  0  0  0  0  0  0
  160.7100  205.0660  148.2630 N   0  0  0  0  0  0  0  0  0  0  0  0
  158.7960  203.7300  143.7610 N   0  0  0  0  0  0  0  0  0  0  0  0
  159.6810  203.7450  144.5060 C   0  0  0  0  0  0  0  0  0  0  0  0
  161.5660  202.8990  149.0590 C   0  0  0  0  0  2  0  0  0  0  0  0
  160.0910  201.3280  150.2010 N   0  0  0  0  0  1  0  0  0  0  0  0
  160.7060  201.6470  148.9230 C   0  0  2  0  0  3  0  0  0  0  0  0
  161.5810  200.4890  148.4770 C   0  0  0  0  0  2  0  0  0  0  0  0
  161.6860  200.4660  147.0250 N   0  0  0  0  0  2  0  0  0  0  0  0
  161.5800  199.0790  146.5980 C   0  0  0  0  0  2  0  0  0  0  0  0
  160.8640  198.9930  145.2610 C   0  0  0  0  0  2  0  0  0  0  0  0
  160.2480  200.2100  144.9740 O   0  0  0  0  0  1  0  0  0  0  0  0
  1  7  1  0  0  0  0
  2  5  1  0  0  0  0
  3  4  1  0  0  0  0
  4  2  2  0  0  0  0
  5 19  1  0  0  0  0
  5 22  1  1  0  0  0
  6  1  2  0  0  0  0
  6  4  1  0  0  0  0
  7  5  1  0  0  0  0
  9 18  2  0  0  0  0
 10 15  1  0  0  0  0
 11 12  1  0  0  0  0
 11 19  1  0  0  0  0
 12 17  1  0  0  0  0
 15 14  1  0  0  0  0
 15  8  2  0  0  0  0
 16  9  1  0  0  0  0
 16 13  2  0  0  0  0
 17 10  2  0  0  0  0
 17  9  1  0  0  0  0
 18  8  1  0  0  0  0
 19 16  1  0  0  0  0
 20 21  3  0  0  0  0
 21  1  1  0  0  0  0
 24 22  1  0  0  0  0
 24 23  1  1  0  0  0
 25 24  1  0  0  0  0
 26 25  1  0  0  0  0
 27 26  1  0  0  0  0
 28 27  1  0  0  0  0
 29 28  1  0  0  0  0
M  END
>  <MODEL>
5

>  <REMARK>
 VINA RESULT:      -3.7      5.579      9.721
  Name = 
  8 active torsions:
  status: ('A' for Active; 'I' for Inactive)
    1  A    between atoms: C_1  and  C_16
    2  A    between atoms: N_9  and  C_27
    3  A    between atoms: N_9  and  C_29
    4  A    between atoms: C_15  and  C_20
    5  A    between atoms: C_15  and  N_24
    6  A    between atoms: C_20  and  C_25
    7  A    between atoms: C_22  and  C_29
    8  A    between atoms: C_25  and  C_27
                            x       y       z     vdW  Elec       q    Type
                         _______ _______ _______ _____ _____    ______ ____

>  <TORSDO>
F 8

$$$$
=
 OpenBabel11042423123D

 29 31  0  0  1  0  0  0  0  0999 V2000
  161.9270  210.1690  150.4890 C   0  0  0  0  0  0  0  0  0  0  0  0
  160.8750  208.2700  152.3050 C   0  0  0  0  0  3  0  0  0  0  0  0
  159.5660  209.9430  153.2630 F   0  0  0  0  0  0  0  0  0  0  0  0
  160.4400  209.5360  152.3120 C   0  0  0  0  0  0  0  0  0  0  0  0
  161.8000  207.7570  151.2140 C   0  0  2  0  0  0  0  0  0  0  0  0
  160.8980  210.4830  151.2800 C   0  0  0  0  0  3  0  0  0  0  0  0
  162.7060  208.9030  150.7290 C   0  0  0  0  0  2  0  0  0  0  0  0
  162.0910  203.9250  146.6060 C   0  0  0  0  0  3  0  0  0  0  0  0
  161.5500  205.6630  148.1940 C   0  0  0  0  0  0  0  0  0  0  0  0
  160.7560  203.4050  148.5650 C   0  0  0  0  0  3  0  0  0  0  0  0
  159.9130  206.5120  150.2890 O   0  0  0  0  0  0  0  0  0  0  0  0
  160.2070  205.1980  150.1310 O   0  0  0  0  0  0  0  0  0  0  0  0
  162.2670  207.9330  148.1530 O   0  0  0  0  0  0  0  0  0  0  0  0
  161.3070  201.6720  146.9790 O   0  0  0  0  0  1  0  0  0  0  0  0
  161.3840  202.9980  147.3830 C   0  0  0  0  0  0  0  0  0  0  0  0
  161.6680  207.0050  148.7610 C   0  0  0  0  0  0  0  0  0  0  0  0
  160.8310  204.7430  148.9610 C   0  0  0  0  0  0  0  0  0  0  0  0
  162.1820  205.2610  147.0130 C   0  0  0  0  0  3  0  0  0  0  0  0
  161.0680  207.2050  150.0540 N   0  0  0  0  0  0  0  0  0  0  0  0
  162.6590  211.7980  148.6110 N   0  0  0  0  0  0  0  0  0  0  0  0
  162.3330  211.0710  149.4500 C   0  0  0  0  0  0  0  0  0  0  0  0
  162.7130  206.6790  151.8080 C   0  0  0  0  0  2  0  0  0  0  0  0
  161.2060  205.0260  152.7780 N   0  0  0  0  0  1  0  0  0  0  0  0
  162.1660  206.0700  153.0940 C   0  0  2  0  0  3  0  0  0  0  0  0
  161.4850  207.1560  153.9080 C   0  0  0  0  0  2  0  0  0  0  0  0
  160.4590  206.5780  154.7640 N   0  0  0  0  0  2  0  0  0  0  0  0
  160.4240  207.3530  155.9950 C   0  0  0  0  0  2  0  0  0  0  0  0
  161.4230  208.4950  155.9260 C   0  0  0  0  0  2  0  0  0  0  0  0
  160.7820  209.7030  156.1970 O   0  0  0  0  0  1  0  0  0  0  0  0
  1  7  1  0  0  0  0
  1  6  2  0  0  0  0
  2  4  2  0  0  0  0
  4  3  1  0  0  0  0
  5 22  1  1  0  0  0
  5  2  1  0  0  0  0
  6  4  1  0  0  0  0
  7  5  1  0  0  0  0
  8 18  2  0  0  0  0
  8 15  1  0  0  0  0
  9 16  1  0  0  0  0
  9 17  2  0  0  0  0
 10 17  1  0  0  0  0
 12 11  1  0  0  0  0
 13 16  2  0  0  0  0
 14 15  1  0  0  0  0
 15 10  2  0  0  0  0
 16 19  1  0  0  0  0
 17 12  1  0  0  0  0
 18  9  1  0  0  0  0
 19 11  1  0  0  0  0
 19  5  1  0  0  0  0
 20 21  3  0  0  0  0
 21  1  1  0  0  0  0
 22 24  1  0  0  0  0
 24 23  1  6  0  0  0
 24 25  1  0  0  0  0
 25 26  1  0  0  0  0
 26 27  1  0  0  0  0
 28 27  1  0  0  0  0
 28 29  1  0  0  0  0
M  END
>  <MODEL>
6

>  <REMARK>
 VINA RESULT:      -3.6      2.820      5.868
  Name = 
  8 active torsions:
  status: ('A' for Active; 'I' for Inactive)
    1  A    between atoms: C_1  and  C_16
    2  A    between atoms: N_9  and  C_27
    3  A    between atoms: N_9  and  C_29
    4  A    between atoms: C_15  and  C_20
    5  A    between atoms: C_15  and  N_24
    6  A    between atoms: C_20  and  C_25
    7  A    between atoms: C_22  and  C_29
    8  A    between atoms: C_25  and  C_27
                            x       y       z     vdW  Elec       q    Type
                         _______ _______ _______ _____ _____    ______ ____

>  <TORSDO>
F 8

$$$$
=
 OpenBabel11042423123D

 29 31  0  0  1  0  0  0  0  0999 V2000
  160.1960  211.3560  152.7830 C   0  0  0  0  0  0  0  0  0  0  0  0
  162.6060  209.9110  152.4390 C   0  0  0  0  0  3  0  0  0  0  0  0
  163.1360  210.3050  154.6740 F   0  0  0  0  0  0  0  0  0  0  0  0
  162.2700  210.4040  153.6370 C   0  0  0  0  0  0  0  0  0  0  0  0
  161.6340  209.9410  151.2710 C   0  0  2  0  0  0  0  0  0  0  0  0
  160.9560  211.0410  153.8360 C   0  0  0  0  0  3  0  0  0  0  0  0
  160.7300  211.1810  151.3870 C   0  0  0  0  0  2  0  0  0  0  0  0
  161.5790  204.0300  150.2390 C   0  0  0  0  0  3  0  0  0  0  0  0
  161.0690  206.3640  150.5950 C   0  0  0  0  0  0  0  0  0  0  0  0
  161.3630  204.8940  152.4970 C   0  0  0  0  0  3  0  0  0  0  0  0
  160.1410  208.3320  152.3430 O   0  0  0  0  0  0  0  0  0  0  0  0
  160.8170  207.2540  152.8120 O   0  0  0  0  0  0  0  0  0  0  0  0
  160.8280  208.0600  148.9410 O   0  0  0  0  0  0  0  0  0  0  0  0
  161.8810  202.5650  152.1350 O   0  0  0  0  0  1  0  0  0  0  0  0
  161.6080  203.8280  151.6250 C   0  0  0  0  0  0  0  0  0  0  0  0
  160.8860  207.7480  150.1610 C   0  0  0  0  0  0  0  0  0  0  0  0
  161.0810  206.1600  151.9770 C   0  0  0  0  0  0  0  0  0  0  0  0
  161.3160  205.3030  149.7180 C   0  0  0  0  0  3  0  0  0  0  0  0
  160.7820  208.7340  151.2040 N   0  0  0  0  0  0  0  0  0  0  0  0
  157.8450  212.3850  153.1440 N   0  0  0  0  0  0  0  0  0  0  0  0
  158.8950  211.9250  152.9840 C   0  0  0  0  0  0  0  0  0  0  0  0
  162.4310  210.0810  149.9690 C   0  0  0  0  0  2  0  0  0  0  0  0
  161.2350  210.7650  147.9570 N   0  0  0  0  0  1  0  0  0  0  0  0
  161.9740  211.2550  149.1090 C   0  0  2  0  0  3  0  0  0  0  0  0
  163.1920  212.0300  148.6380 C   0  0  0  0  0  2  0  0  0  0  0  0
  162.8780  212.7810  147.4310 N   0  0  0  0  0  2  0  0  0  0  0  0
  162.5120  214.1300  147.8350 C   0  0  0  0  0  2  0  0  0  0  0  0
  161.0920  214.4440  147.3960 C   0  0  0  0  0  2  0  0  0  0  0  0
  160.2000  214.1440  148.4250 O   0  0  0  0  0  1  0  0  0  0  0  0
  1 21  1  0  0  0  0
  1  6  2  0  0  0  0
  2  4  2  0  0  0  0
  4  6  1  0  0  0  0
  4  3  1  0  0  0  0
  5 22  1  6  0  0  0
  5  7  1  0  0  0  0
  5  2  1  0  0  0  0
  7  1  1  0  0  0  0
  8 15  1  0  0  0  0
  9 17  2  0  0  0  0
 11 12  1  0  0  0  0
 13 16  2  0  0  0  0
 15 14  1  0  0  0  0
 15 10  2  0  0  0  0
 16  9  1  0  0  0  0
 16 19  1  0  0  0  0
 17 10  1  0  0  0  0
 17 12  1  0  0  0  0
 18  8  2  0  0  0  0
 18  9  1  0  0  0  0
 19  5  1  0  0  0  0
 19 11  1  0  0  0  0
 21 20  3  0  0  0  0
 24 23  1  6  0  0  0
 24 22  1  0  0  0  0
 25 24  1  0  0  0  0
 26 27  1  0  0  0  0
 26 25  1  0  0  0  0
 28 27  1  0  0  0  0
 28 29  1  0  0  0  0
M  END
>  <MODEL>
7

>  <REMARK>
 VINA RESULT:      -3.4      2.401      4.125
  Name = 
  8 active torsions:
  status: ('A' for Active; 'I' for Inactive)
    1  A    between atoms: C_1  and  C_16
    2  A    between atoms: N_9  and  C_27
    3  A    between atoms: N_9  and  C_29
    4  A    between atoms: C_15  and  C_20
    5  A    between atoms: C_15  and  N_24
    6  A    between atoms: C_20  and  C_25
    7  A    between atoms: C_22  and  C_29
    8  A    between atoms: C_25  and  C_27
                            x       y       z     vdW  Elec       q    Type
                         _______ _______ _______ _____ _____    ______ ____

>  <TORSDO>
F 8

$$$$
=
 OpenBabel11042423123D

 29 31  0  0  1  0  0  0  0  0999 V2000
  161.4430  204.8720  150.6840 C   0  0  0  0  0  0  0  0  0  0  0  0
  160.7550  207.3300  149.4610 C   0  0  0  0  0  3  0  0  0  0  0  0
  159.4450  206.1730  147.9210 F   0  0  0  0  0  0  0  0  0  0  0  0
  160.2300  206.1790  149.0240 C   0  0  0  0  0  0  0  0  0  0  0  0
  161.5830  207.3890  150.7350 C   0  0  2  0  0  0  0  0  0  0  0  0
  160.4920  204.9230  149.7470 C   0  0  0  0  0  3  0  0  0  0  0  0
  162.3370  206.0600  150.9180 C   0  0  0  0  0  2  0  0  0  0  0  0
  161.7480  208.6960  156.5880 C   0  0  0  0  0  3  0  0  0  0  0  0
  161.1700  208.0420  154.3360 C   0  0  0  0  0  0  0  0  0  0  0  0
  161.1090  210.3810  154.9620 C   0  0  0  0  0  3  0  0  0  0  0  0
  159.9220  208.7210  151.9340 O   0  0  0  0  0  0  0  0  0  0  0  0
  160.5030  209.6740  152.7030 O   0  0  0  0  0  0  0  0  0  0  0  0
  161.2360  205.8520  153.4050 O   0  0  0  0  0  0  0  0  0  0  0  0
  161.6960  211.0280  157.2120 O   0  0  0  0  0  1  0  0  0  0  0  0
  161.5180  210.0370  156.2560 C   0  0  0  0  0  0  0  0  0  0  0  0
  161.0660  207.0890  153.2330 C   0  0  0  0  0  0  0  0  0  0  0  0
  160.9240  209.3770  154.0080 C   0  0  0  0  0  0  0  0  0  0  0  0
  161.5810  207.6930  155.6260 C   0  0  0  0  0  3  0  0  0  0  0  0
  160.7640  207.6430  151.9390 N   0  0  0  0  0  0  0  0  0  0  0  0
  161.8270  202.6840  152.0190 N   0  0  0  0  0  0  0  0  0  0  0  0
  161.6550  203.6620  151.4240 C   0  0  0  0  0  0  0  0  0  0  0  0
  162.6380  208.4920  150.5870 C   0  0  0  0  0  2  0  0  0  0  0  0
  163.0800  209.1220  148.2740 N   0  0  0  0  0  1  0  0  0  0  0  0
  162.3250  209.4750  149.4640 C   0  0  2  0  0  3  0  0  0  0  0  0
  162.7060  210.8770  149.9100 C   0  0  0  0  0  2  0  0  0  0  0  0
  161.8700  211.8630  149.2410 N   0  0  0  0  0  2  0  0  0  0  0  0
  162.7000  212.5510  148.2630 C   0  0  0  0  0  2  0  0  0  0  0  0
  161.9260  212.7670  146.9750 C   0  0  0  0  0  2  0  0  0  0  0  0
  160.6500  212.2160  147.0900 O   0  0  0  0  0  1  0  0  0  0  0  0
  1  7  1  0  0  0  0
  1 21  1  0  0  0  0
  2  5  1  0  0  0  0
  3  4  1  0  0  0  0
  4  2  2  0  0  0  0
  4  6  1  0  0  0  0
  5 22  1  6  0  0  0
  5  7  1  0  0  0  0
  5 19  1  0  0  0  0
  6  1  2  0  0  0  0
  9 18  1  0  0  0  0
 10 15  2  0  0  0  0
 11 19  1  0  0  0  0
 11 12  1  0  0  0  0
 12 17  1  0  0  0  0
 15  8  1  0  0  0  0
 15 14  1  0  0  0  0
 16 13  2  0  0  0  0
 16  9  1  0  0  0  0
 17  9  2  0  0  0  0
 17 10  1  0  0  0  0
 18  8  2  0  0  0  0
 19 16  1  0  0  0  0
 21 20  3  0  0  0  0
 24 23  1  6  0  0  0
 24 25  1  0  0  0  0
 24 22  1  0  0  0  0
 26 25  1  0  0  0  0
 27 26  1  0  0  0  0
 28 29  1  0  0  0  0
 28 27  1  0  0  0  0
M  END
>  <MODEL>
8

>  <REMARK>
 VINA RESULT:      -3.2      3.202      5.918
  Name = 
  8 active torsions:
  status: ('A' for Active; 'I' for Inactive)
    1  A    between atoms: C_1  and  C_16
    2  A    between atoms: N_9  and  C_27
    3  A    between atoms: N_9  and  C_29
    4  A    between atoms: C_15  and  C_20
    5  A    between atoms: C_15  and  N_24
    6  A    between atoms: C_20  and  C_25
    7  A    between atoms: C_22  and  C_29
    8  A    between atoms: C_25  and  C_27
                            x       y       z     vdW  Elec       q    Type
                         _______ _______ _______ _____ _____    ______ ____

>  <TORSDO>
F 8

$$$$
=
 OpenBabel11042423123D

 29 31  0  0  1  0  0  0  0  0999 V2000
  161.3370  204.6310  152.1350 C   0  0  0  0  0  0  0  0  0  0  0  0
  162.7410  207.0040  151.4980 C   0  0  0  0  0  3  0  0  0  0  0  0
  164.7480  205.8280  151.6360 F   0  0  0  0  0  0  0  0  0  0  0  0
  163.3940  205.8480  151.6660 C   0  0  0  0  0  0  0  0  0  0  0  0
  161.2220  207.0570  151.4560 C   0  0  2  0  0  0  0  0  0  0  0  0
  162.6450  204.5960  151.8680 C   0  0  0  0  0  3  0  0  0  0  0  0
  160.6460  205.9500  152.3570 C   0  0  0  0  0  2  0  0  0  0  0  0
  162.5580  205.5270  145.8090 C   0  0  0  0  0  3  0  0  0  0  0  0
  161.5750  206.3450  147.8590 C   0  0  0  0  0  0  0  0  0  0  0  0
  161.2940  204.0220  147.2330 C   0  0  0  0  0  3  0  0  0  0  0  0
  159.7030  205.9540  149.8920 O   0  0  0  0  0  0  0  0  0  0  0  0
  160.2910  204.8960  149.2820 O   0  0  0  0  0  0  0  0  0  0  0  0
  161.7650  208.5310  148.7820 O   0  0  0  0  0  0  0  0  0  0  0  0
  162.2850  203.2100  145.1880 O   0  0  0  0  0  1  0  0  0  0  0  0
  162.0460  204.2510  146.0750 C   0  0  0  0  0  0  0  0  0  0  0  0
  161.3650  207.3420  148.9070 C   0  0  0  0  0  0  0  0  0  0  0  0
  161.0500  205.0760  148.1170 C   0  0  0  0  0  0  0  0  0  0  0  0
  162.3300  206.5780  146.7050 C   0  0  0  0  0  3  0  0  0  0  0  0
  160.6820  206.8890  150.0890 N   0  0  0  0  0  0  0  0  0  0  0  0
  160.0080  202.4200  152.3880 N   0  0  0  0  0  0  0  0  0  0  0  0
  160.6010  203.4070  152.2760 C   0  0  0  0  0  0  0  0  0  0  0  0
  160.7580  208.3980  152.0330 C   0  0  0  0  0  2  0  0  0  0  0  0
  160.8130  208.5480  154.4660 N   0  0  0  0  0  1  0  0  0  0  0  0
  161.5600  208.8370  153.2530 C   0  0  2  0  0  3  0  0  0  0  0  0
  161.8260  210.3300  153.1630 C   0  0  0  0  0  2  0  0  0  0  0  0
  160.8790  211.0610  153.9940 N   0  0  0  0  0  2  0  0  0  0  0  0
  160.0810  211.9020  153.1140 C   0  0  0  0  0  2  0  0  0  0  0  0
  158.6290  211.4560  153.1360 C   0  0  0  0  0  2  0  0  0  0  0  0
  158.2630  211.0950  154.4320 O   0  0  0  0  0  1  0  0  0  0  0  0
  1 21  1  0  0  0  0
  1  7  1  0  0  0  0
  2  4  2  0  0  0  0
  3  4  1  0  0  0  0
  4  6  1  0  0  0  0
  5  2  1  0  0  0  0
  5 22  1  1  0  0  0
  5  7  1  0  0  0  0
  6  1  2  0  0  0  0
  8 15  2  0  0  0  0
  8 18  1  0  0  0  0
  9 17  1  0  0  0  0
  9 16  1  0  0  0  0
 10 17  2  0  0  0  0
 11 19  1  0  0  0  0
 12 11  1  0  0  0  0
 13 16  2  0  0  0  0
 14 15  1  0  0  0  0
 15 10  1  0  0  0  0
 16 19  1  0  0  0  0
 17 12  1  0  0  0  0
 18  9  2  0  0  0  0
 19  5  1  0  0  0  0
 21 20  3  0  0  0  0
 22 24  1  0  0  0  0
 24 23  1  1  0  0  0
 25 24  1  0  0  0  0
 25 26  1  0  0  0  0
 27 28  1  0  0  0  0
 27 26  1  0  0  0  0
 28 29  1  0  0  0  0
M  END
>  <MODEL>
9

>  <REMARK>
 VINA RESULT:      -3.2      3.130      4.958
  Name = 
  8 active torsions:
  status: ('A' for Active; 'I' for Inactive)
    1  A    between atoms: C_1  and  C_16
    2  A    between atoms: N_9  and  C_27
    3  A    between atoms: N_9  and  C_29
    4  A    between atoms: C_15  and  C_20
    5  A    between atoms: C_15  and  N_24
    6  A    between atoms: C_20  and  C_25
    7  A    between atoms: C_22  and  C_29
    8  A    between atoms: C_25  and  C_27
                            x       y       z     vdW  Elec       q    Type
                         _______ _______ _______ _____ _____    ______ ____

>  <TORSDO>
F 8

$$$$
