=
 OpenBabel11042422413D

 66 72  0  0  1  0  0  0  0  0999 V2000
  157.5670  213.4130  147.7520 C   0  0  0  0  0  3  0  0  0  0  0  0
  161.3820  207.8140  152.9240 O   0  0  0  0  0  0  0  0  0  0  0  0
  162.5920  213.3860  148.4290 C   0  0  0  0  0  0  0  0  0  0  0  0
  160.1700  212.0190  154.5210 C   0  0  0  0  0  0  0  0  0  0  0  0
  162.9490  214.4520  149.0180 O   0  0  0  0  0  0  0  0  0  0  0  0
  161.7380  213.4620  147.3030 O   0  0  0  0  0  0  0  0  0  0  0  0
  161.1650  209.1740  151.0750 N   0  0  0  0  0  0  0  0  0  0  0  0
  157.9250  212.3960  150.0360 C   0  0  0  0  0  0  0  0  0  0  0  0
  162.9310  210.8860  148.2890 C   0  0  0  0  0  2  0  0  0  0  0  0
  162.7000  209.7260  149.2690 C   0  0  0  0  0  2  0  0  0  0  0  0
  162.8990  212.1210  149.0400 N   0  0  0  0  0  2  0  0  0  0  0  0
  161.5430  208.0310  151.5560 C   0  0  0  0  0  0  0  0  0  0  0  0
  161.2430  209.6250  149.6880 C   0  0  0  0  0  2  0  0  0  0  0  0
  158.6800  211.3930  150.6680 C   0  0  0  0  0  3  0  0  0  0  0  0
  159.9730  210.8120  155.4020 C   0  0  0  0  0  2  0  0  0  0  0  0
  158.4650  212.5210  152.7850 C   0  0  0  0  0  0  0  0  0  0  0  0
  160.4880  208.3780  155.0380 C   0  0  0  0  0  2  0  0  0  0  0  0
  160.3410  213.4830  147.4480 C   0  0  0  0  0  0  0  0  0  0  0  0
  158.9810  211.4740  152.0200 C   0  0  0  0  0  3  0  0  0  0  0  0
  161.1000  209.7740  155.2020 C   0  0  2  0  0  3  0  0  0  0  0  0
  162.0320  209.8220  156.2490 O   0  0  0  0  0  1  0  0  0  0  0  0
  161.3410  212.3440  154.1110 O   0  0  0  0  0  0  0  0  0  0  0  0
  158.1320  213.9930  146.5990 C   0  0  0  0  0  0  0  0  0  0  0  0
  159.7650  212.8990  148.5260 N   0  0  0  0  0  0  0  0  0  0  0  0
  157.5020  213.3820  152.2230 C   0  0  0  0  0  3  0  0  0  0  0  0
  157.2400  213.3350  150.8450 C   0  0  0  0  0  3  0  0  0  0  0  0
  159.5310  214.0610  146.4680 C   0  0  0  0  0  3  0  0  0  0  0  0
  159.0270  212.7930  154.0850 N   0  0  0  0  0  0  0  0  0  0  0  0
  158.4060  212.8610  148.7250 C   0  0  0  0  0  0  0  0  0  0  0  0
  160.1800  208.1500  153.5930 C   0  0  0  0  0  2  0  0  0  0  0  0
  162.2180  206.9680  150.7240 C   0  0  1  0  0  3  0  0  0  0  0  0
  162.5850  205.9350  151.5890 O   0  0  0  0  0  1  0  0  0  0  0  0
  161.2010  206.4430  149.7090 C   0  0  0  0  0  2  0  0  0  0  0  0
  161.4000  206.8570  148.2300 C   0  0  1  0  0  3  0  0  0  0  0  0
  161.2700  205.9060  147.0000 C   0  0  2  0  0  3  0  0  0  0  0  0
  160.0330  206.4650  147.6560 C   0  0  0  0  0  2  0  0  0  0  0  0
  160.6030  204.0240  148.4850 C   0  0  0  0  0  2  0  0  0  0  0  0
  161.9630  202.3960  146.6050 C   0  0  0  0  0  2  0  0  0  0  0  0
  161.4000  203.6170  146.2210 O   0  0  0  0  0  0  0  0  0  0  0  0
  160.9090  201.6500  147.3840 C   0  0  1  0  0  3  0  0  0  0  0  0
  161.5470  204.4400  147.3620 C   0  0  1  0  0  3  0  0  0  0  0  0
  161.4100  200.2520  147.7950 C   0  0  0  0  0  1  0  0  0  0  0  0
  160.3300  202.4950  148.5410 C   0  0  1  0  0  3  0  0  0  0  0  0
  159.7310  202.1630  150.8940 O   0  0  0  0  0  0  0  0  0  0  0  0
  160.5950  201.9330  149.8690 N   0  0  0  0  0  0  0  0  0  0  0  0
  160.5110  201.9260  151.9890 N   0  0  0  0  0  2  0  0  0  0  0  0
  161.9030  201.5660  150.3340 C   0  0  0  0  0  3  0  0  0  0  0  0
  161.8500  201.5610  151.6360 C   0  0  0  0  0  3  0  0  0  0  0  0
  159.9010  214.4440  155.5710 F   0  0  0  0  0  0  0  0  0  0  0  0
  158.9060  214.1430  154.6650 C   0  0  2  0  0  3  0  0  0  0  0  0
  157.4810  214.4210  155.2230 C   0  0  0  0  0  2  0  0  0  0  0  0
  157.2580  212.9050  157.0480 O   0  0  0  0  0  1  0  0  0  0  0  0
  155.7630  212.6000  155.3200 O   0  0  0  0  0  0  0  0  0  0  0  0
  156.8430  213.2560  155.9060 C   0  0  0  0  0  0  0  0  0  0  0  0
  157.2980  214.4530  145.5720 O   0  0  0  0  0  0  0  0  0  0  0  0
  157.7520  214.4020  144.2260 C   0  0  0  0  0  2  0  0  0  0  0  0
  158.9070  213.5410  144.1220 N   0  0  0  0  0  2  0  0  0  0  0  0
  159.8590  214.3060  143.3150 C   0  0  0  0  0  2  0  0  0  0  0  0
  159.6320  211.9800  140.5530 C   0  0  0  0  0  0  0  0  0  0  0  0
  161.7630  211.8850  139.4620 C   0  0  0  0  0  3  0  0  0  0  0  0
  160.3530  211.4580  139.5940 C   0  0  0  0  0  3  0  0  0  0  0  0
  159.1000  212.6680  141.5070 C   0  0  0  0  0  3  0  0  0  0  0  0
  159.6650  214.0480  141.8160 C   0  0  2  0  0  3  0  0  0  0  0  0
  162.4370  212.7540  140.2520 C   0  0  0  0  0  3  0  0  0  0  0  0
  161.8720  213.4420  141.4720 C   0  0  0  0  0  2  0  0  0  0  0  0
  160.8520  214.3550  141.1050 O   0  0  0  0  0  0  0  0  0  0  0  0
  1 29  2  0  0  0  0
  2 30  1  0  0  0  0
  3  5  2  0  0  0  0
  3 11  1  0  0  0  0
  4 15  1  0  0  0  0
  6 18  1  0  0  0  0
  6  3  1  0  0  0  0
  7 12  2  0  0  0  0
  8 14  2  0  0  0  0
  8 26  1  0  0  0  0
  9 11  1  0  0  0  0
  9 10  1  0  0  0  0
 10 13  1  0  0  0  0
 12  2  1  0  0  0  0
 13  7  1  0  0  0  0
 14 19  1  0  0  0  0
 16 28  1  0  0  0  0
 17 20  1  0  0  0  0
 18 24  2  0  0  0  0
 19 16  2  0  0  0  0
 20 15  1  0  0  0  0
 20 21  1  1  0  0  0
 22  4  2  0  0  0  0
 23  1  1  0  0  0  0
 24 29  1  0  0  0  0
 25 16  1  0  0  0  0
 26 25  2  0  0  0  0
 27 23  2  0  0  0  0
 27 18  1  0  0  0  0
 28  4  1  0  0  0  0
 28 50  1  0  0  0  0
 29  8  1  0  0  0  0
 30 17  1  0  0  0  0
 31 12  1  0  0  0  0
 31 32  1  1  0  0  0
 33 31  1  0  0  0  0
 34 33  1  1  0  0  0
 35 41  1  0  0  0  0
 35 36  1  1  0  0  0
 35 34  1  0  0  0  0
 36 34  1  0  0  0  0
 38 40  1  0  0  0  0
 39 38  1  0  0  0  0
 39 41  1  0  0  0  0
 40 42  1  1  0  0  0
 40 43  1  0  0  0  0
 41 37  1  1  0  0  0
 43 37  1  1  0  0  0
 43 45  1  0  0  0  0
 44 46  1  0  0  0  0
 45 47  1  0  0  0  0
 45 44  1  0  0  0  0
 47 48  2  0  0  0  0
 48 46  1  0  0  0  0
 50 51  1  0  0  0  0
 50 49  1  1  0  0  0
 51 54  1  0  0  0  0
 53 54  2  0  0  0  0
 54 52  1  0  0  0  0
 55 23  1  0  0  0  0
 56 55  1  0  0  0  0
 57 56  1  0  0  0  0
 58 57  1  0  0  0  0
 59 62  2  0  0  0  0
 60 61  1  0  0  0  0
 60 64  2  0  0  0  0
 61 59  2  0  0  0  0
 62 63  1  0  0  0  0
 63 58  1  1  0  0  0
 64 65  1  0  0  0  0
 66 65  1  0  0  0  0
 66 63  1  0  0  0  0
M  END
>  <MODEL>
1

>  <REMARK>
 VINA RESULT:       1.9      0.000      0.000
  Name = 
  13 active torsions:
  status: ('A' for Active; 'I' for Inactive)
    1  A    between atoms: C_6  and  C_19
    2  A    between atoms: C_6  and  C_37
    3  A    between atoms: C_11  and  C_38
    4  A    between atoms: C_11  and  C_57
    5  A    between atoms: C_19  and  C_30
    6  A    between atoms: N_20  and  C_45
    7  A    between atoms: C_22  and  C_43
    8  A    between atoms: N_29  and  C_34
    9  A    between atoms: N_29  and  C_35
   10  A    between atoms: C_34  and  O_52
   11  A    between atoms: C_35  and  C_53
   12  A    between atoms: C_38  and  N_63
   13  A    between atoms: C_50  and  O_52
                            x       y       z     vdW  Elec       q    Type
                         _______ _______ _______ _____ _____    ______ ____

>  <TORSDO>
F 13

$$$$
=
 OpenBabel11042422413D

 66 72  0  0  1  0  0  0  0  0999 V2000
  157.6780  213.3390  147.3370 C   0  0  0  0  0  3  0  0  0  0  0  0
  161.3620  207.8100  152.6770 O   0  0  0  0  0  0  0  0  0  0  0  0
  162.6760  213.3680  148.1930 C   0  0  0  0  0  0  0  0  0  0  0  0
  160.0520  212.0120  154.2030 C   0  0  0  0  0  0  0  0  0  0  0  0
  163.0010  214.4410  148.7880 O   0  0  0  0  0  0  0  0  0  0  0  0
  161.8620  213.4280  147.0370 O   0  0  0  0  0  0  0  0  0  0  0  0
  161.1980  209.1570  150.8130 N   0  0  0  0  0  0  0  0  0  0  0  0
  157.9650  212.3390  149.6390 C   0  0  0  0  0  0  0  0  0  0  0  0
  163.0450  210.8700  148.0810 C   0  0  0  0  0  2  0  0  0  0  0  0
  162.7910  209.7140  149.0600 C   0  0  0  0  0  2  0  0  0  0  0  0
  162.9730  212.1090  148.8220 N   0  0  0  0  0  2  0  0  0  0  0  0
  161.5700  208.0200  151.3140 C   0  0  0  0  0  0  0  0  0  0  0  0
  161.3210  209.6010  149.4270 C   0  0  0  0  0  2  0  0  0  0  0  0
  158.7060  211.3470  150.3030 C   0  0  0  0  0  3  0  0  0  0  0  0
  159.8360  210.8080  155.0840 C   0  0  0  0  0  2  0  0  0  0  0  0
  158.4050  212.4860  152.4040 C   0  0  0  0  0  0  0  0  0  0  0  0
  160.3870  208.3770  154.7540 C   0  0  0  0  0  2  0  0  0  0  0  0
  160.4600  213.4360  147.1320 C   0  0  0  0  0  0  0  0  0  0  0  0
  158.9580  211.4400  151.6650 C   0  0  0  0  0  3  0  0  0  0  0  0
  160.9790  209.7810  154.9310 C   0  0  2  0  0  3  0  0  0  0  0  0
  161.8730  209.8440  156.0100 O   0  0  0  0  0  1  0  0  0  0  0  0
  161.2330  212.3460  153.8330 O   0  0  0  0  0  0  0  0  0  0  0  0
  158.2780  213.9180  146.2010 C   0  0  0  0  0  0  0  0  0  0  0  0
  159.8520  212.8520  148.1920 N   0  0  0  0  0  0  0  0  0  0  0  0
  157.4540  213.3340  151.8030 C   0  0  0  0  0  3  0  0  0  0  0  0
  157.2410  213.2760  150.4170 C   0  0  0  0  0  3  0  0  0  0  0  0
  159.6800  214.0000  146.1200 C   0  0  0  0  0  3  0  0  0  0  0  0
  158.9180  212.7710  153.7220 N   0  0  0  0  0  0  0  0  0  0  0  0
  158.4870  212.8010  148.3430 C   0  0  0  0  0  0  0  0  0  0  0  0
  160.1340  208.1380  153.3000 C   0  0  0  0  0  2  0  0  0  0  0  0
  162.2850  206.9590  150.5140 C   0  0  1  0  0  3  0  0  0  0  0  0
  162.6600  205.9510  151.4030 O   0  0  0  0  0  1  0  0  0  0  0  0
  161.2990  206.3930  149.4900 C   0  0  0  0  0  2  0  0  0  0  0  0
  161.3240  207.0090  148.0690 C   0  0  1  0  0  3  0  0  0  0  0  0
  161.0960  206.2240  146.7400 C   0  0  2  0  0  3  0  0  0  0  0  0
  159.9170  206.6290  147.5890 C   0  0  0  0  0  2  0  0  0  0  0  0
  160.7550  204.1620  148.0900 C   0  0  0  0  0  2  0  0  0  0  0  0
  161.7600  202.8110  145.8100 C   0  0  0  0  0  2  0  0  0  0  0  0
  161.1140  204.0450  145.6850 O   0  0  0  0  0  0  0  0  0  0  0  0
  160.8860  201.9410  146.6780 C   0  0  1  0  0  3  0  0  0  0  0  0
  161.4610  204.7380  146.8680 C   0  0  1  0  0  3  0  0  0  0  0  0
  161.4790  200.5260  146.8200 C   0  0  0  0  0  1  0  0  0  0  0  0
  160.5240  202.6260  148.0150 C   0  0  1  0  0  3  0  0  0  0  0  0
  160.9250  200.5790  149.3000 O   0  0  0  0  0  0  0  0  0  0  0  0
  161.0460  201.9290  149.1940 N   0  0  0  0  0  0  0  0  0  0  0  0
  161.0600  200.3800  150.6440 N   0  0  0  0  0  2  0  0  0  0  0  0
  161.2440  202.5580  150.4700 C   0  0  0  0  0  3  0  0  0  0  0  0
  161.2530  201.6050  151.3600 C   0  0  0  0  0  3  0  0  0  0  0  0
  159.7380  214.4520  155.2050 F   0  0  0  0  0  0  0  0  0  0  0  0
  158.7620  214.1230  154.2890 C   0  0  2  0  0  3  0  0  0  0  0  0
  157.3250  214.3780  154.8260 C   0  0  0  0  0  2  0  0  0  0  0  0
  157.4070  213.3900  156.9940 O   0  0  0  0  0  1  0  0  0  0  0  0
  155.8020  212.5350  155.5770 O   0  0  0  0  0  0  0  0  0  0  0  0
  156.8620  213.3960  155.8520 C   0  0  0  0  0  0  0  0  0  0  0  0
  157.4770  214.3630  145.1420 O   0  0  0  0  0  0  0  0  0  0  0  0
  158.0080  214.3880  143.8240 C   0  0  0  0  0  2  0  0  0  0  0  0
  156.9890  214.0190  142.8700 N   0  0  0  0  0  2  0  0  0  0  0  0
  157.5330  214.4370  141.5770 C   0  0  0  0  0  2  0  0  0  0  0  0
  159.5180  213.1710  138.8290 C   0  0  0  0  0  0  0  0  0  0  0  0
  158.0490  212.6310  137.0150 C   0  0  0  0  0  3  0  0  0  0  0  0
  159.4020  212.7230  137.6060 C   0  0  0  0  0  3  0  0  0  0  0  0
  159.3890  213.5650  140.0510 C   0  0  0  0  0  3  0  0  0  0  0  0
  158.0950  213.2470  140.7890 C   0  0  2  0  0  3  0  0  0  0  0  0
  156.8750  212.9930  137.5870 C   0  0  0  0  0  3  0  0  0  0  0  0
  156.7270  213.6090  138.9580 C   0  0  0  0  0  2  0  0  0  0  0  0
  157.0890  212.6810  139.9660 O   0  0  0  0  0  0  0  0  0  0  0  0
  1 29  2  0  0  0  0
  2 30  1  0  0  0  0
  3  5  2  0  0  0  0
  3 11  1  0  0  0  0
  4 15  1  0  0  0  0
  6 18  1  0  0  0  0
  6  3  1  0  0  0  0
  7 12  2  0  0  0  0
  8 14  2  0  0  0  0
  8 26  1  0  0  0  0
  9 11  1  0  0  0  0
  9 10  1  0  0  0  0
 10 13  1  0  0  0  0
 12  2  1  0  0  0  0
 13  7  1  0  0  0  0
 14 19  1  0  0  0  0
 16 28  1  0  0  0  0
 17 20  1  0  0  0  0
 18 24  2  0  0  0  0
 19 16  2  0  0  0  0
 20 15  1  0  0  0  0
 20 21  1  1  0  0  0
 22  4  2  0  0  0  0
 23  1  1  0  0  0  0
 24 29  1  0  0  0  0
 25 16  1  0  0  0  0
 26 25  2  0  0  0  0
 27 23  2  0  0  0  0
 27 18  1  0  0  0  0
 28  4  1  0  0  0  0
 28 50  1  0  0  0  0
 29  8  1  0  0  0  0
 30 17  1  0  0  0  0
 31 12  1  0  0  0  0
 31 32  1  1  0  0  0
 33 31  1  0  0  0  0
 34 33  1  1  0  0  0
 35 41  1  0  0  0  0
 35 36  1  1  0  0  0
 35 34  1  0  0  0  0
 36 34  1  0  0  0  0
 38 40  1  0  0  0  0
 39 38  1  0  0  0  0
 39 41  1  0  0  0  0
 40 42  1  1  0  0  0
 40 43  1  0  0  0  0
 41 37  1  1  0  0  0
 43 37  1  6  0  0  0
 43 45  1  0  0  0  0
 44 46  1  0  0  0  0
 45 44  1  0  0  0  0
 45 47  1  0  0  0  0
 46 48  1  0  0  0  0
 47 48  2  0  0  0  0
 50 51  1  0  0  0  0
 50 49  1  1  0  0  0
 51 54  1  0  0  0  0
 53 54  2  0  0  0  0
 54 52  1  0  0  0  0
 55 23  1  0  0  0  0
 56 55  1  0  0  0  0
 57 56  1  0  0  0  0
 58 57  1  0  0  0  0
 59 62  2  0  0  0  0
 60 64  2  0  0  0  0
 60 61  1  0  0  0  0
 61 59  2  0  0  0  0
 62 63  1  0  0  0  0
 63 58  1  6  0  0  0
 64 65  1  0  0  0  0
 65 66  1  0  0  0  0
 66 63  1  0  0  0  0
M  END
>  <MODEL>
2

>  <REMARK>
 VINA RESULT:       2.8      1.284      1.576
  Name = 
  13 active torsions:
  status: ('A' for Active; 'I' for Inactive)
    1  A    between atoms: C_6  and  C_19
    2  A    between atoms: C_6  and  C_37
    3  A    between atoms: C_11  and  C_38
    4  A    between atoms: C_11  and  C_57
    5  A    between atoms: C_19  and  C_30
    6  A    between atoms: N_20  and  C_45
    7  A    between atoms: C_22  and  C_43
    8  A    between atoms: N_29  and  C_34
    9  A    between atoms: N_29  and  C_35
   10  A    between atoms: C_34  and  O_52
   11  A    between atoms: C_35  and  C_53
   12  A    between atoms: C_38  and  N_63
   13  A    between atoms: C_50  and  O_52
                            x       y       z     vdW  Elec       q    Type
                         _______ _______ _______ _____ _____    ______ ____

>  <TORSDO>
F 13

$$$$
=
 OpenBabel11042422413D

 66 72  0  0  1  0  0  0  0  0999 V2000
  157.7850  213.1120  147.6000 C   0  0  0  0  0  3  0  0  0  0  0  0
  161.4750  207.8660  153.2130 O   0  0  0  0  0  0  0  0  0  0  0  0
  162.7450  213.3490  148.6260 C   0  0  0  0  0  0  0  0  0  0  0  0
  159.9610  212.0550  154.5780 C   0  0  0  0  0  0  0  0  0  0  0  0
  163.0100  214.4480  149.2020 O   0  0  0  0  0  0  0  0  0  0  0  0
  161.9710  213.3490  147.4420 O   0  0  0  0  0  0  0  0  0  0  0  0
  161.3290  209.1570  151.3080 N   0  0  0  0  0  0  0  0  0  0  0  0
  158.0260  212.1850  149.9370 C   0  0  0  0  0  0  0  0  0  0  0  0
  163.2070  210.8640  148.5950 C   0  0  0  0  0  2  0  0  0  0  0  0
  162.9610  209.7260  149.5960 C   0  0  0  0  0  2  0  0  0  0  0  0
  163.0650  212.1190  149.2990 N   0  0  0  0  0  2  0  0  0  0  0  0
  161.7240  208.0480  151.8530 C   0  0  0  0  0  0  0  0  0  0  0  0
  161.4840  209.5680  149.9160 C   0  0  0  0  0  2  0  0  0  0  0  0
  158.7790  211.2390  150.6540 C   0  0  0  0  0  3  0  0  0  0  0  0
  159.7580  210.8670  155.4840 C   0  0  0  0  0  2  0  0  0  0  0  0
  158.3630  212.4210  152.7110 C   0  0  0  0  0  0  0  0  0  0  0  0
  160.4090  208.4510  155.2400 C   0  0  0  0  0  2  0  0  0  0  0  0
  160.5670  213.3070  147.4880 C   0  0  0  0  0  0  0  0  0  0  0  0
  158.9800  211.3770  152.0200 C   0  0  0  0  0  3  0  0  0  0  0  0
  160.9430  209.8800  155.3980 C   0  0  2  0  0  3  0  0  0  0  0  0
  161.7950  210.0040  156.5050 O   0  0  0  0  0  1  0  0  0  0  0  0
  161.1430  212.4230  154.2390 O   0  0  0  0  0  0  0  0  0  0  0  0
  158.4030  213.6840  146.4700 C   0  0  0  0  0  0  0  0  0  0  0  0
  159.9440  212.7290  148.5420 N   0  0  0  0  0  0  0  0  0  0  0  0
  157.4040  213.2160  152.0550 C   0  0  0  0  0  3  0  0  0  0  0  0
  157.2430  213.1140  150.6640 C   0  0  0  0  0  3  0  0  0  0  0  0
  159.8030  213.8150  146.4350 C   0  0  0  0  0  3  0  0  0  0  0  0
  158.8180  212.7590  154.0370 N   0  0  0  0  0  0  0  0  0  0  0  0
  158.5770  212.6320  148.6480 C   0  0  0  0  0  0  0  0  0  0  0  0
  160.2150  208.1640  153.7850 C   0  0  0  0  0  2  0  0  0  0  0  0
  162.5040  206.9930  151.1070 C   0  0  1  0  0  3  0  0  0  0  0  0
  162.4930  205.8380  151.8900 O   0  0  0  0  0  1  0  0  0  0  0  0
  161.7860  206.7180  149.7850 C   0  0  0  0  0  2  0  0  0  0  0  0
  162.6530  206.6830  148.5030 C   0  0  1  0  0  3  0  0  0  0  0  0
  162.3960  205.7700  147.2630 C   0  0  2  0  0  3  0  0  0  0  0  0
  161.5920  207.0320  147.4520 C   0  0  0  0  0  2  0  0  0  0  0  0
  161.8490  203.4570  146.5290 C   0  0  0  0  0  2  0  0  0  0  0  0
  161.0790  203.0580  149.2280 C   0  0  0  0  0  2  0  0  0  0  0  0
  162.0420  204.0140  148.8920 O   0  0  0  0  0  0  0  0  0  0  0  0
  161.4610  201.7800  148.5240 C   0  0  1  0  0  3  0  0  0  0  0  0
  161.6270  204.4920  147.6260 C   0  0  1  0  0  3  0  0  0  0  0  0
  160.4950  200.6360  148.8890 C   0  0  0  0  0  1  0  0  0  0  0  0
  161.6720  201.9880  147.0080 C   0  0  1  0  0  3  0  0  0  0  0  0
  160.8760  199.9050  145.9930 O   0  0  0  0  0  0  0  0  0  0  0  0
  160.7240  201.2440  146.1740 N   0  0  0  0  0  0  0  0  0  0  0  0
  160.1620  199.6840  144.8490 N   0  0  0  0  0  2  0  0  0  0  0  0
  159.9280  201.8450  145.1410 C   0  0  0  0  0  3  0  0  0  0  0  0
  159.5830  200.8860  144.3280 C   0  0  0  0  0  3  0  0  0  0  0  0
  159.3200  214.3970  155.7000 F   0  0  0  0  0  0  0  0  0  0  0  0
  158.5940  214.1190  154.5610 C   0  0  2  0  0  3  0  0  0  0  0  0
  157.0830  214.4510  154.7170 C   0  0  0  0  0  2  0  0  0  0  0  0
  155.4500  214.3140  156.4470 O   0  0  0  0  0  1  0  0  0  0  0  0
  156.7740  212.4450  156.1850 O   0  0  0  0  0  0  0  0  0  0  0  0
  156.4040  213.7430  155.8420 C   0  0  0  0  0  0  0  0  0  0  0  0
  157.6250  214.0710  145.3730 O   0  0  0  0  0  0  0  0  0  0  0  0
  158.2620  214.4510  144.1610 C   0  0  0  0  0  2  0  0  0  0  0  0
  158.4870  213.2900  143.3320 N   0  0  0  0  0  2  0  0  0  0  0  0
  159.1450  213.8190  142.1360 C   0  0  0  0  0  2  0  0  0  0  0  0
  160.0790  212.9110  138.7600 C   0  0  0  0  0  0  0  0  0  0  0  0
  158.1140  212.9540  137.3900 C   0  0  0  0  0  3  0  0  0  0  0  0
  159.5680  212.7460  137.5680 C   0  0  0  0  0  3  0  0  0  0  0  0
  160.3470  213.0540  140.0150 C   0  0  0  0  0  3  0  0  0  0  0  0
  159.2560  212.7580  141.0350 C   0  0  2  0  0  3  0  0  0  0  0  0
  157.2170  213.3360  138.3300 C   0  0  0  0  0  3  0  0  0  0  0  0
  157.5460  213.6670  139.7670 C   0  0  0  0  0  2  0  0  0  0  0  0
  157.9840  212.5110  140.4590 O   0  0  0  0  0  0  0  0  0  0  0  0
  1 29  2  0  0  0  0
  2 30  1  0  0  0  0
  3  5  2  0  0  0  0
  3 11  1  0  0  0  0
  4 15  1  0  0  0  0
  6 18  1  0  0  0  0
  6  3  1  0  0  0  0
  7 12  2  0  0  0  0
  8 14  2  0  0  0  0
  8 26  1  0  0  0  0
  9 11  1  0  0  0  0
  9 10  1  0  0  0  0
 10 13  1  0  0  0  0
 12  2  1  0  0  0  0
 13  7  1  0  0  0  0
 14 19  1  0  0  0  0
 16 28  1  0  0  0  0
 17 20  1  0  0  0  0
 18 24  2  0  0  0  0
 19 16  2  0  0  0  0
 20 15  1  0  0  0  0
 20 21  1  1  0  0  0
 22  4  2  0  0  0  0
 23  1  1  0  0  0  0
 24 29  1  0  0  0  0
 25 16  1  0  0  0  0
 26 25  2  0  0  0  0
 27 23  2  0  0  0  0
 27 18  1  0  0  0  0
 28 50  1  0  0  0  0
 28  4  1  0  0  0  0
 29  8  1  0  0  0  0
 30 17  1  0  0  0  0
 31 12  1  0  0  0  0
 31 32  1  1  0  0  0
 33 31  1  0  0  0  0
 34 33  1  1  0  0  0
 35 36  1  6  0  0  0
 35 41  1  0  0  0  0
 35 34  1  0  0  0  0
 36 34  1  0  0  0  0
 37 43  1  0  0  0  0
 39 38  1  0  0  0  0
 40 42  1  6  0  0  0
 40 38  1  0  0  0  0
 41 37  1  6  0  0  0
 41 39  1  0  0  0  0
 43 45  1  6  0  0  0
 43 40  1  0  0  0  0
 44 45  1  0  0  0  0
 46 44  1  0  0  0  0
 47 45  1  0  0  0  0
 48 46  1  0  0  0  0
 48 47  2  0  0  0  0
 50 51  1  0  0  0  0
 50 49  1  1  0  0  0
 51 54  1  0  0  0  0
 54 53  2  0  0  0  0
 54 52  1  0  0  0  0
 55 23  1  0  0  0  0
 56 55  1  0  0  0  0
 57 56  1  0  0  0  0
 58 57  1  0  0  0  0
 59 62  2  0  0  0  0
 60 61  1  0  0  0  0
 60 64  2  0  0  0  0
 61 59  2  0  0  0  0
 62 63  1  0  0  0  0
 63 58  1  1  0  0  0
 64 65  1  0  0  0  0
 65 66  1  0  0  0  0
 66 63  1  0  0  0  0
M  END
>  <MODEL>
3

>  <REMARK>
 VINA RESULT:       2.8      1.563      2.279
  Name = 
  13 active torsions:
  status: ('A' for Active; 'I' for Inactive)
    1  A    between atoms: C_6  and  C_19
    2  A    between atoms: C_6  and  C_37
    3  A    between atoms: C_11  and  C_38
    4  A    between atoms: C_11  and  C_57
    5  A    between atoms: C_19  and  C_30
    6  A    between atoms: N_20  and  C_45
    7  A    between atoms: C_22  and  C_43
    8  A    between atoms: N_29  and  C_34
    9  A    between atoms: N_29  and  C_35
   10  A    between atoms: C_34  and  O_52
   11  A    between atoms: C_35  and  C_53
   12  A    between atoms: C_38  and  N_63
   13  A    between atoms: C_50  and  O_52
                            x       y       z     vdW  Elec       q    Type
                         _______ _______ _______ _____ _____    ______ ____

>  <TORSDO>
F 13

$$$$
