=
 OpenBabel11052411133D

 60 64  0  0  1  0  0  0  0  0999 V2000
  161.1360  211.9870  148.6940 C   0  0  1  0  0  3  0  0  0  0  0  0
  161.1550  208.2630  149.5370 N   0  0  0  0  0  2  0  0  0  0  0  0
  161.3060  205.8340  149.9390 N   0  0  0  0  0  2  0  0  0  0  0  0
  160.7840  210.6780  149.2320 N   0  0  0  0  0  2  0  0  0  0  0  0
  161.5500  209.5080  148.9560 C   0  0  0  0  0  0  0  0  0  0  0  0
  162.5350  206.8740  148.2550 O   0  0  0  0  0  0  0  0  0  0  0  0
  161.7100  206.9870  149.2020 C   0  0  0  0  0  0  0  0  0  0  0  0
  162.5650  209.5780  148.2100 O   0  0  0  0  0  0  0  0  0  0  0  0
  161.8860  203.7170  150.7320 O   0  0  0  0  0  1  0  0  0  0  0  0
  161.7340  204.4890  149.5780 C   0  0  1  0  0  3  0  0  0  0  0  0
  160.7410  203.8470  148.5930 C   0  0  1  0  0  3  0  0  0  0  0  0
  161.1120  202.1780  146.8470 C   0  0  0  0  0  2  0  0  0  0  0  0
  161.4160  203.6130  147.2480 C   0  0  0  0  0  2  0  0  0  0  0  0
  162.0290  200.8420  148.7220 C   0  0  0  0  0  1  0  0  0  0  0  0
  160.2690  202.2160  150.3820 O   0  0  0  0  0  1  0  0  0  0  0  0
  160.7550  201.4330  148.1230 C   0  0  1  0  0  3  0  0  0  0  0  0
  160.1350  202.4990  149.0160 C   0  0  2  0  0  3  0  0  0  0  0  0
  159.4940  212.5830  144.7490 C   0  0  0  0  0  0  0  0  0  0  0  0
  161.3990  212.2900  146.2220 C   0  0  0  0  0  3  0  0  0  0  0  0
  159.1590  212.3170  147.1420 C   0  0  0  0  0  3  0  0  0  0  0  0
  160.5450  212.2010  147.3280 C   0  0  0  0  0  0  0  0  0  0  0  0
  160.8760  212.4820  144.9410 C   0  0  0  0  0  3  0  0  0  0  0  0
  158.6390  212.5040  145.8570 C   0  0  0  0  0  3  0  0  0  0  0  0
  160.6110  212.9780  139.3770 C   0  0  2  0  0  3  0  0  0  0  0  0
  157.4080  214.4480  143.8380 O   0  0  0  0  0  0  0  0  0  0  0  0
  158.4760  212.7460  138.1700 C   0  0  0  0  0  3  0  0  0  0  0  0
  159.8060  212.8260  140.6730 C   0  0  0  0  0  2  0  0  0  0  0  0
  160.4250  212.1200  137.0110 O   0  0  0  0  0  1  0  0  0  0  0  0
  157.8010  213.2240  139.3440 N   0  0  0  0  0  0  0  0  0  0  0  0
  159.8020  212.5780  138.1660 C   0  0  0  0  0  0  0  0  0  0  0  0
  158.0100  213.7350  142.9960 C   0  0  0  0  0  0  0  0  0  0  0  0
  158.3880  213.3160  140.5030 C   0  0  0  0  0  0  0  0  0  0  0  0
  158.9970  212.7790  143.4190 N   0  0  0  0  0  2  0  0  0  0  0  0
  157.6470  213.8420  141.6140 N   0  0  0  0  0  2  0  0  0  0  0  0
  161.9050  212.2280  139.4770 C   0  0  0  0  0  0  0  0  0  0  0  0
  163.3390  210.7060  140.0470 O   0  0  0  0  0  0  0  0  0  0  0  0
  163.1840  212.7010  138.8710 C   0  0  0  0  0  3  0  0  0  0  0  0
  162.0350  211.1200  140.1230 N   0  0  0  0  0  0  0  0  0  0  0  0
  164.1530  211.5900  139.2860 C   0  0  0  0  0  3  0  0  0  0  0  0
  160.8380  213.0990  149.7080 C   0  0  2  0  0  3  0  0  0  0  0  0
  161.4890  214.4530  149.4160 C   0  0  0  0  0  2  0  0  0  0  0  0
  162.8050  214.3290  148.6630 C   0  0  0  0  0  1  0  0  0  0  0  0
  161.0090  212.6380  151.1510 C   0  0  0  0  0  2  0  0  0  0  0  0
  158.6490  213.3620  151.0420 C   0  0  0  0  0  1  0  0  0  0  0  0
  159.6590  212.5560  151.8380 C   0  0  2  0  0  3  0  0  0  0  0  0
  159.7650  213.1010  153.1840 N   0  0  0  0  0  2  0  0  0  0  0  0
  157.8870  211.7220  153.2030 O   0  0  0  0  0  1  0  0  0  0  0  0
  158.5590  212.7230  153.9100 C   0  0  1  0  0  3  0  0  0  0  0  0
  158.9220  212.2210  155.3050 C   0  0  1  0  0  3  0  0  0  0  0  0
  158.5770  210.7460  155.4440 C   0  0  2  0  0  3  0  0  0  0  0  0
  159.8930  209.9460  157.2610 F   0  0  0  0  0  0  0  0  0  0  0  0
  157.5660  210.5720  156.3910 O   0  0  0  0  0  1  0  0  0  0  0  0
  160.8920  211.1340  155.4450 C   0  0  1  0  0  3  0  0  0  0  0  0
  159.8690  210.1030  155.8810 C   0  0  2  0  0  0  0  0  0  0  0  0
  160.3010  212.4030  155.5460 O   0  0  0  0  0  0  0  0  0  0  0  0
  163.3720  210.9160  155.3290 C   0  0  0  0  0  1  0  0  0  0  0  0
  162.1810  211.0670  156.2540 C   0  0  0  0  0  2  0  0  0  0  0  0
  160.0860  208.7380  155.2130 C   0  0  0  0  0  2  0  0  0  0  0  0
  160.8680  208.8040  153.9010 C   0  0  0  0  0  2  0  0  0  0  0  0
  160.7740  207.4870  153.1540 C   0  0  0  0  0  1  0  0  0  0  0  0
  1  4  1  1  0  0  0
  1 40  1  0  0  0  0
  5  4  1  0  0  0  0
  5  2  1  0  0  0  0
  6  7  2  0  0  0  0
  7  2  1  0  0  0  0
  7  3  1  0  0  0  0
  8  5  2  0  0  0  0
 10  3  1  0  0  0  0
 10  9  1  1  0  0  0
 11 17  1  0  0  0  0
 11 10  1  1  0  0  0
 12 13  1  0  0  0  0
 12 16  1  0  0  0  0
 13 11  1  0  0  0  0
 16 14  1  1  0  0  0
 16 17  1  0  0  0  0
 17 15  1  1  0  0  0
 18 22  2  0  0  0  0
 18 23  1  0  0  0  0
 19 21  2  0  0  0  0
 20 21  1  0  0  0  0
 21  1  1  0  0  0  0
 22 19  1  0  0  0  0
 23 20  2  0  0  0  0
 24 35  1  1  0  0  0
 24 27  1  0  0  0  0
 26 29  1  0  0  0  0
 28 30  1  0  0  0  0
 29 32  2  0  0  0  0
 30 26  2  0  0  0  0
 30 24  1  0  0  0  0
 31 33  1  0  0  0  0
 31 25  2  0  0  0  0
 32 27  1  0  0  0  0
 32 34  1  0  0  0  0
 33 18  1  0  0  0  0
 34 31  1  0  0  0  0
 35 38  2  0  0  0  0
 36 38  1  0  0  0  0
 37 39  2  0  0  0  0
 37 35  1  0  0  0  0
 39 36  1  0  0  0  0
 40 41  1  6  0  0  0
 40 43  1  0  0  0  0
 42 41  1  0  0  0  0
 43 45  1  0  0  0  0
 45 44  1  6  0  0  0
 45 46  1  0  0  0  0
 46 48  1  0  0  0  0
 48 47  1  6  0  0  0
 49 48  1  6  0  0  0
 49 50  1  0  0  0  0
 49 55  1  0  0  0  0
 50 54  1  0  0  0  0
 50 52  1  1  0  0  0
 53 55  1  0  0  0  0
 53 54  1  0  0  0  0
 53 57  1  1  0  0  0
 54 51  1  1  0  0  0
 56 57  1  0  0  0  0
 58 54  1  0  0  0  0
 59 58  1  0  0  0  0
 60 59  1  0  0  0  0
M  END
>  <MODEL>
1

>  <REMARK>
 VINA RESULT:      -3.0      0.000      0.000
  Name = 
  16 active torsions:
  status: ('A' for Active; 'I' for Inactive)
    1  A    between atoms: C_1  and  C_58
    2  A    between atoms: C_2  and  C_15
    3  A    between atoms: C_2  and  C_33
    4  A    between atoms: C_2  and  C_41
    5  A    between atoms: C_3  and  C_11
    6  A    between atoms: N_6  and  C_58
    7  A    between atoms: N_8  and  C_15
    8  A    between atoms: C_9  and  C_53
    9  A    between atoms: C_13  and  N_47
   10  A    between atoms: C_15  and  C_35
   11  A    between atoms: C_25  and  C_27
   12  A    between atoms: C_25  and  N_45
   13  A    between atoms: C_30  and  C_46
   14  A    between atoms: C_41  and  C_57
   15  A    between atoms: N_45  and  C_57
   16  A    between atoms: C_50  and  C_53
                            x       y       z     vdW  Elec       q    Type
                         _______ _______ _______ _____ _____    ______ ____

>  <TORSDO>
F 16

$$$$
=
 OpenBabel11052411133D

 60 64  0  0  1  0  0  0  0  0999 V2000
  161.1020  213.0120  148.6480 C   0  0  1  0  0  3  0  0  0  0  0  0
  162.0700  209.3280  148.9210 N   0  0  0  0  0  2  0  0  0  0  0  0
  162.5340  206.9080  148.9850 N   0  0  0  0  0  2  0  0  0  0  0  0
  161.7330  211.7640  149.0610 N   0  0  0  0  0  2  0  0  0  0  0  0
  161.3910  210.5080  148.4800 C   0  0  0  0  0  0  0  0  0  0  0  0
  160.6520  207.7640  147.9130 O   0  0  0  0  0  0  0  0  0  0  0  0
  161.7040  207.9900  148.5690 C   0  0  0  0  0  0  0  0  0  0  0  0
  160.5030  210.4440  147.5880 O   0  0  0  0  0  0  0  0  0  0  0  0
  161.4210  205.0500  149.8580 O   0  0  0  0  0  1  0  0  0  0  0  0
  162.1650  205.5150  148.7690 C   0  0  1  0  0  3  0  0  0  0  0  0
  161.3960  205.3530  147.4470 C   0  0  1  0  0  3  0  0  0  0  0  0
  162.1700  205.5690  145.1390 C   0  0  0  0  0  2  0  0  0  0  0  0
  161.9090  206.3510  146.4170 C   0  0  0  0  0  2  0  0  0  0  0  0
  163.8090  203.8460  145.8320 C   0  0  0  0  0  1  0  0  0  0  0  0
  161.8950  202.9440  147.6380 O   0  0  0  0  0  1  0  0  0  0  0  0
  162.3350  204.1130  145.5420 C   0  0  1  0  0  3  0  0  0  0  0  0
  161.4640  203.9680  146.7830 C   0  0  2  0  0  3  0  0  0  0  0  0
  160.9000  213.3310  144.3500 C   0  0  0  0  0  0  0  0  0  0  0  0
  161.9930  213.8330  146.4560 C   0  0  0  0  0  3  0  0  0  0  0  0
  159.9610  212.5150  146.4390 C   0  0  0  0  0  3  0  0  0  0  0  0
  161.0100  213.1170  147.1510 C   0  0  0  0  0  0  0  0  0  0  0  0
  161.9350  213.9410  145.0650 C   0  0  0  0  0  3  0  0  0  0  0  0
  159.9100  212.6220  145.0450 C   0  0  0  0  0  3  0  0  0  0  0  0
  157.9230  213.2900  139.7250 C   0  0  2  0  0  3  0  0  0  0  0  0
  162.8490  212.3190  142.3910 O   0  0  0  0  0  0  0  0  0  0  0  0
  159.3060  214.3110  137.9600 C   0  0  0  0  0  3  0  0  0  0  0  0
  159.1050  213.5170  140.6740 C   0  0  0  0  0  2  0  0  0  0  0  0
  156.9720  214.4530  137.6970 O   0  0  0  0  0  1  0  0  0  0  0  0
  160.4740  213.9180  138.6970 N   0  0  0  0  0  0  0  0  0  0  0  0
  158.0820  214.0660  138.4380 C   0  0  0  0  0  0  0  0  0  0  0  0
  161.8190  212.9140  141.9870 C   0  0  0  0  0  0  0  0  0  0  0  0
  160.4210  213.5070  139.9310 C   0  0  0  0  0  0  0  0  0  0  0  0
  160.8770  213.4630  142.9230 N   0  0  0  0  0  2  0  0  0  0  0  0
  161.6340  213.0980  140.5780 N   0  0  0  0  0  2  0  0  0  0  0  0
  156.6310  213.5910  140.4220 C   0  0  0  0  0  0  0  0  0  0  0  0
  155.2320  214.4400  141.8440 O   0  0  0  0  0  0  0  0  0  0  0  0
  155.3290  212.9580  140.0590 C   0  0  0  0  0  3  0  0  0  0  0  0
  156.5350  214.4040  141.4180 N   0  0  0  0  0  0  0  0  0  0  0  0
  154.3790  213.5990  141.0760 C   0  0  0  0  0  3  0  0  0  0  0  0
  159.7790  213.2340  149.3930 C   0  0  2  0  0  3  0  0  0  0  0  0
  158.8540  214.2980  148.7960 C   0  0  0  0  0  2  0  0  0  0  0  0
  157.6920  213.7030  148.0160 C   0  0  0  0  0  1  0  0  0  0  0  0
  159.9690  213.3670  150.9000 C   0  0  0  0  0  2  0  0  0  0  0  0
  158.3830  212.0220  152.2340 C   0  0  0  0  0  1  0  0  0  0  0  0
  159.7500  212.0260  151.5750 C   0  0  2  0  0  3  0  0  0  0  0  0
  160.7780  211.8170  152.5850 N   0  0  0  0  0  2  0  0  0  0  0  0
  162.5480  210.6440  151.6290 O   0  0  0  0  0  1  0  0  0  0  0  0
  161.3620  210.5030  152.3560 C   0  0  1  0  0  3  0  0  0  0  0  0
  161.6470  209.8150  153.6880 C   0  0  1  0  0  3  0  0  0  0  0  0
  161.6440  210.8300  154.8200 C   0  0  2  0  0  3  0  0  0  0  0  0
  161.2830  209.5730  156.8100 F   0  0  0  0  0  0  0  0  0  0  0  0
  162.9180  210.9330  155.3820 O   0  0  0  0  0  1  0  0  0  0  0  0
  159.8250  209.3520  154.9310 C   0  0  1  0  0  3  0  0  0  0  0  0
  160.6400  210.2840  155.8050 C   0  0  2  0  0  0  0  0  0  0  0  0
  160.6740  208.8260  153.9440 O   0  0  0  0  0  0  0  0  0  0  0  0
  160.1990  207.3020  156.3010 C   0  0  0  0  0  1  0  0  0  0  0  0
  159.1530  208.2360  155.7220 C   0  0  0  0  0  2  0  0  0  0  0  0
  159.7900  211.3970  156.4350 C   0  0  0  0  0  2  0  0  0  0  0  0
  158.2850  211.2040  156.2580 C   0  0  0  0  0  2  0  0  0  0  0  0
  157.5160  212.0450  157.2610 C   0  0  0  0  0  1  0  0  0  0  0  0
  1  4  1  6  0  0  0
  1 40  1  0  0  0  0
  5  2  1  0  0  0  0
  5  4  1  0  0  0  0
  6  7  2  0  0  0  0
  7  2  1  0  0  0  0
  7  3  1  0  0  0  0
  8  5  2  0  0  0  0
 10  3  1  0  0  0  0
 10  9  1  1  0  0  0
 11 10  1  1  0  0  0
 12 16  1  0  0  0  0
 12 13  1  0  0  0  0
 13 11  1  0  0  0  0
 16 14  1  1  0  0  0
 16 17  1  0  0  0  0
 17 11  1  0  0  0  0
 17 15  1  1  0  0  0
 18 23  2  0  0  0  0
 18 22  1  0  0  0  0
 19 21  1  0  0  0  0
 20 21  2  0  0  0  0
 21  1  1  0  0  0  0
 22 19  2  0  0  0  0
 23 20  1  0  0  0  0
 24 35  1  1  0  0  0
 24 27  1  0  0  0  0
 26 30  2  0  0  0  0
 26 29  1  0  0  0  0
 28 30  1  0  0  0  0
 29 32  2  0  0  0  0
 30 24  1  0  0  0  0
 31 25  2  0  0  0  0
 31 33  1  0  0  0  0
 32 34  1  0  0  0  0
 32 27  1  0  0  0  0
 33 18  1  0  0  0  0
 34 31  1  0  0  0  0
 35 38  2  0  0  0  0
 37 35  1  0  0  0  0
 37 39  2  0  0  0  0
 38 36  1  0  0  0  0
 39 36  1  0  0  0  0
 40 41  1  6  0  0  0
 40 43  1  0  0  0  0
 42 41  1  0  0  0  0
 43 45  1  0  0  0  0
 45 44  1  1  0  0  0
 45 46  1  0  0  0  0
 48 47  1  1  0  0  0
 48 46  1  0  0  0  0
 49 48  1  6  0  0  0
 49 55  1  0  0  0  0
 49 50  1  0  0  0  0
 50 52  1  1  0  0  0
 50 54  1  0  0  0  0
 53 57  1  1  0  0  0
 53 54  1  0  0  0  0
 54 58  1  0  0  0  0
 54 51  1  1  0  0  0
 55 53  1  0  0  0  0
 57 56  1  0  0  0  0
 59 58  1  0  0  0  0
 59 60  1  0  0  0  0
M  END
>  <MODEL>
2

>  <REMARK>
 VINA RESULT:      -1.2      2.086      3.757
  Name = 
  16 active torsions:
  status: ('A' for Active; 'I' for Inactive)
    1  A    between atoms: C_1  and  C_58
    2  A    between atoms: C_2  and  C_15
    3  A    between atoms: C_2  and  C_33
    4  A    between atoms: C_2  and  C_41
    5  A    between atoms: C_3  and  C_11
    6  A    between atoms: N_6  and  C_58
    7  A    between atoms: N_8  and  C_15
    8  A    between atoms: C_9  and  C_53
    9  A    between atoms: C_13  and  N_47
   10  A    between atoms: C_15  and  C_35
   11  A    between atoms: C_25  and  C_27
   12  A    between atoms: C_25  and  N_45
   13  A    between atoms: C_30  and  C_46
   14  A    between atoms: C_41  and  C_57
   15  A    between atoms: N_45  and  C_57
   16  A    between atoms: C_50  and  C_53
                            x       y       z     vdW  Elec       q    Type
                         _______ _______ _______ _____ _____    ______ ____

>  <TORSDO>
F 16

$$$$
