=
 OpenBabel11052410023D

 68 74  0  0  1  0  0  0  0  0999 V2000
  162.5580  206.3520  147.8410 C   0  0  1  0  0  3  0  0  0  0  0  0
  160.0460  205.8390  144.3630 C   0  0  0  0  0  2  0  0  0  0  0  0
  159.3290  205.7990  145.7050 C   0  0  0  0  0  2  0  0  0  0  0  0
  161.3470  205.0140  144.4030 C   0  0  2  0  0  3  0  0  0  0  0  0
  160.1760  206.4750  146.7950 C   0  0  0  0  0  2  0  0  0  0  0  0
  161.9680  204.9600  145.8040 C   0  0  0  0  0  2  0  0  0  0  0  0
  161.6840  206.2460  146.5770 C   0  0  2  0  0  3  0  0  0  0  0  0
  162.3540  205.5980  143.4230 C   0  0  0  0  0  2  0  0  0  0  0  0
  161.8260  206.8390  142.7330 C   0  0  0  0  0  2  0  0  0  0  0  0
  162.5580  207.4580  140.4300 C   0  0  1  0  0  0  0  0  0  0  0  0
  161.6520  206.6020  141.2380 C   0  0  1  0  0  3  0  0  0  0  0  0
  163.4150  208.3620  141.0810 O   0  0  0  0  0  1  0  0  0  0  0  0
  162.8640  206.1140  140.6890 O   0  0  0  0  0  0  0  0  0  0  0  0
  162.1900  207.7180  139.0920 O   0  0  0  0  0  0  0  0  0  0  0  0
  161.2510  208.7750  139.0940 C   0  0  2  0  0  3  0  0  0  0  0  0
  159.1150  209.2520  138.0900 O   0  0  0  0  0  1  0  0  0  0  0  0
  160.1330  208.5030  138.1280 C   0  0  0  0  0  0  0  0  0  0  0  0
  160.2140  207.4060  137.2810 O   0  0  0  0  0  0  0  0  0  0  0  0
  162.8500  210.4450  139.9090 O   0  0  0  0  0  1  0  0  0  0  0  0
  161.9430  210.1490  138.8860 C   0  0  2  0  0  3  0  0  0  0  0  0
  162.5870  213.2700  142.6140 N   0  0  0  0  0  0  0  0  0  0  0  0
  163.2850  214.3950  142.0140 C   0  0  0  0  0  2  0  0  0  0  0  0
  161.3240  212.9820  140.5560 C   0  0  1  0  0  0  0  0  0  0  0  0
  163.6520  213.6490  137.7770 O   0  0  0  0  0  0  0  0  0  0  0  0
  161.6450  212.3590  137.6970 C   0  0  0  0  0  2  0  0  0  0  0  0
  160.4630  211.9650  139.9120 C   0  0  2  0  0  0  0  0  0  0  0  0
  162.4710  213.5440  144.0370 C   0  0  0  0  0  1  0  0  0  0  0  0
  162.6760  213.1740  138.4220 C   0  0  0  0  0  0  0  0  0  0  0  0
  160.9810  211.3200  138.6130 C   0  0  2  0  0  3  0  0  0  0  0  0
  162.5110  213.4750  139.8270 N   0  0  0  0  0  0  0  0  0  0  0  0
  160.1400  213.3390  139.8770 O   0  0  0  0  0  0  0  0  0  0  0  0
  161.2420  213.2630  142.0550 C   0  0  0  0  0  2  0  0  0  0  0  0
  159.5960  211.2500  140.7390 O   0  0  0  0  0  1  0  0  0  0  0  0
  163.6340  214.0810  140.5510 C   0  0  0  0  0  2  0  0  0  0  0  0
  163.3330  207.5300  147.8250 O   0  0  0  0  0  0  0  0  0  0  0  0
  162.4360  208.5740  148.0940 C   0  0  0  0  0  1  0  0  0  0  0  0
  161.8270  206.1740  149.1870 C   0  0  1  0  0  3  0  0  0  0  0  0
  161.8070  204.6980  149.5540 C   0  0  0  0  0  2  0  0  0  0  0  0
  160.5150  204.0670  149.0620 C   0  0  0  0  0  2  0  0  0  0  0  0
  160.5790  202.6200  149.2290 N   0  0  0  0  0  2  0  0  0  0  0  0
  161.1050  201.9040  147.7150 P   0  0  1  0  0  0  0  0  0  0  0  0
  160.3690  201.8030  145.3330 C   0  0  0  0  0  2  0  0  0  0  0  0
  160.2730  200.3140  144.9780 C   0  0  0  0  0  2  0  0  0  0  0  0
  161.6470  199.6910  146.6740 C   0  0  0  0  0  2  0  0  0  0  0  0
  161.4830  200.2470  147.9480 O   0  0  0  0  0  0  0  0  0  0  0  0
  160.3870  199.4620  146.0990 O   0  0  0  0  0  0  0  0  0  0  0  0
  159.8250  202.0590  146.5950 O   0  0  0  0  0  0  0  0  0  0  0  0
  162.3270  202.6540  147.2210 O   0  0  0  0  0  0  0  0  0  0  0  0
  162.4850  206.9720  150.3090 C   0  0  0  0  0  2  0  0  0  0  0  0
  161.9670  206.5140  151.5890 N   0  0  0  0  0  2  0  0  0  0  0  0
  161.0940  207.2960  152.3920 C   0  0  0  0  0  0  0  0  0  0  0  0
  160.7720  206.8620  153.5310 O   0  0  0  0  0  0  0  0  0  0  0  0
  160.5970  208.6040  151.9120 C   0  0  0  0  0  3  0  0  0  0  0  0
  160.4450  209.7170  152.6420 C   0  0  0  0  0  3  0  0  0  0  0  0
  160.7730  209.8240  154.0930 C   0  0  0  0  0  2  0  0  0  0  0  0
  160.4710  211.2300  154.5890 C   0  0  0  0  0  2  0  0  0  0  0  0
  159.1810  211.2410  155.1360 O   0  0  0  0  0  0  0  0  0  0  0  0
  159.0970  213.0120  156.6400 O   0  0  0  0  0  1  0  0  0  0  0  0
  158.7900  212.5840  155.3430 C   0  0  1  0  0  3  0  0  0  0  0  0
  159.3520  213.4440  154.3870 O   0  0  0  0  0  0  0  0  0  0  0  0
  157.3120  214.1240  153.6060 O   0  0  0  0  0  1  0  0  0  0  0  0
  158.4780  213.4170  153.2990 C   0  0  1  0  0  3  0  0  0  0  0  0
  159.1530  214.0720  152.1000 C   0  0  1  0  0  3  0  0  0  0  0  0
  160.0230  213.1560  151.4760 O   0  0  0  0  0  0  0  0  0  0  0  0
  158.7740  213.3730  150.8590 C   0  0  2  0  0  3  0  0  0  0  0  0
  158.9580  214.3010  149.6770 C   0  0  0  0  0  2  0  0  0  0  0  0
  157.6530  214.3990  148.9170 C   0  0  0  0  0  2  0  0  0  0  0  0
  156.6850  213.4750  149.4890 N   0  0  0  0  0  1  0  0  0  0  0  0
  1 35  1  1  0  0  0
  1 37  1  0  0  0  0
  2  4  1  0  0  0  0
  2  3  1  0  0  0  0
  3  5  1  0  0  0  0
  4  8  1  6  0  0  0
  4  6  1  0  0  0  0
  6  7  1  0  0  0  0
  7  5  1  0  0  0  0
  7  1  1  1  0  0  0
  9  8  1  0  0  0  0
 10 13  1  0  0  0  0
 10 12  1  1  0  0  0
 10 11  1  0  0  0  0
 11  9  1  1  0  0  0
 13 11  1  0  0  0  0
 14 15  1  0  0  0  0
 14 10  1  0  0  0  0
 15 17  1  6  0  0  0
 16 17  1  0  0  0  0
 18 17  2  0  0  0  0
 20 15  1  0  0  0  0
 20 19  1  1  0  0  0
 21 27  1  0  0  0  0
 22 21  1  0  0  0  0
 23 32  1  1  0  0  0
 24 28  2  0  0  0  0
 25 28  1  0  0  0  0
 25 29  1  0  0  0  0
 26 23  1  0  0  0  0
 26 33  1  1  0  0  0
 28 30  1  0  0  0  0
 29 20  1  1  0  0  0
 29 26  1  0  0  0  0
 30 34  1  0  0  0  0
 30 23  1  0  0  0  0
 31 26  1  0  0  0  0
 31 23  1  0  0  0  0
 32 21  1  0  0  0  0
 34 22  1  0  0  0  0
 35 36  1  0  0  0  0
 37 38  1  1  0  0  0
 37 49  1  0  0  0  0
 39 40  1  0  0  0  0
 39 38  1  0  0  0  0
 41 48  2  6  0  0  0
 41 45  1  0  0  0  0
 41 40  1  0  0  0  0
 42 47  1  0  0  0  0
 43 42  1  0  0  0  0
 43 46  1  0  0  0  0
 44 45  1  0  0  0  0
 46 44  1  0  0  0  0
 47 41  1  0  0  0  0
 49 50  1  0  0  0  0
 50 51  1  0  0  0  0
 51 52  2  0  0  0  0
 53 51  1  0  0  0  0
 53 54  2  0  0  0  0
 54 55  1  0  0  0  0
 55 56  1  0  0  0  0
 56 57  1  0  0  0  0
 57 59  1  0  0  0  0
 59 58  1  1  0  0  0
 60 59  1  0  0  0  0
 62 61  1  1  0  0  0
 62 60  1  0  0  0  0
 63 62  1  1  0  0  0
 64 63  1  0  0  0  0
 65 66  1  6  0  0  0
 65 64  1  0  0  0  0
 65 63  1  0  0  0  0
 67 68  1  0  0  0  0
 67 66  1  0  0  0  0
M  END
>  <MODEL>
1

>  <REMARK>
 VINA RESULT:      -1.7      0.000      0.000
  Name = 
  27 active torsions:
  status: ('A' for Active; 'I' for Inactive)
    1  A    between atoms: C_1  and  C_48
    2  A    between atoms: P_2  and  N_22
    3  A    between atoms: O_3  and  C_5
    4  A    between atoms: O_3  and  C_62
    5  A    between atoms: C_4  and  C_9
    6  A    between atoms: C_4  and  N_31
    7  A    between atoms: O_8  and  C_66
    8  A    between atoms: C_9  and  C_33
    9  A    between atoms: C_9  and  C_66
   10  A    between atoms: C_10  and  C_49
   11  A    between atoms: C_12  and  C_42
   12  A    between atoms: C_13  and  C_34
   13  A    between atoms: C_17  and  C_34
   14  A    between atoms: N_22  and  C_51
   15  A    between atoms: C_24  and  C_39
   16  A    between atoms: C_28  and  C_44
   17  A    between atoms: C_28  and  C_62
   18  A    between atoms: C_29  and  O_52
   19  A    between atoms: C_29  and  O_56
   20  A    between atoms: C_32  and  C_67
   21  A    between atoms: C_33  and  C_51
   22  A    between atoms: C_37  and  C_62
   23  A    between atoms: C_39  and  C_53
   24  A    between atoms: C_47  and  C_66
   25  A    between atoms: C_48  and  O_52
   26  A    between atoms: C_49  and  C_67
   27  A    between atoms: C_53  and  O_56
                            x       y       z     vdW  Elec       q    Type
                         _______ _______ _______ _____ _____    ______ ____

>  <TORSDO>
F 27

$$$$
=
 OpenBabel11052410023D

 68 74  0  0  1  0  0  0  0  0999 V2000
  160.9110  206.4750  148.2760 C   0  0  1  0  0  3  0  0  0  0  0  0
  160.9960  204.1130  144.6590 C   0  0  0  0  0  2  0  0  0  0  0  0
  160.4300  203.4160  145.8890 C   0  0  0  0  0  2  0  0  0  0  0  0
  162.2790  204.8940  145.0050 C   0  0  2  0  0  3  0  0  0  0  0  0
  159.9800  204.4440  146.9390 C   0  0  0  0  0  2  0  0  0  0  0  0
  162.3000  205.3790  146.4590 C   0  0  0  0  0  2  0  0  0  0  0  0
  160.8890  205.6880  146.9530 C   0  0  2  0  0  3  0  0  0  0  0  0
  162.4200  206.0860  144.0700 C   0  0  0  0  0  2  0  0  0  0  0  0
  162.2100  205.7020  142.6190 C   0  0  0  0  0  2  0  0  0  0  0  0
  162.3570  207.1310  140.5800 C   0  0  1  0  0  0  0  0  0  0  0  0
  161.6030  206.8540  141.8290 C   0  0  1  0  0  3  0  0  0  0  0  0
  163.4980  206.3670  140.2800 O   0  0  0  0  0  1  0  0  0  0  0  0
  161.1680  206.3880  140.5640 O   0  0  0  0  0  0  0  0  0  0  0  0
  162.2390  208.4200  140.0180 O   0  0  0  0  0  0  0  0  0  0  0  0
  161.1220  208.4190  139.1510 C   0  0  2  0  0  3  0  0  0  0  0  0
  160.8730  207.2390  137.0670 O   0  0  0  0  0  0  0  0  0  0  0  0
  161.5310  208.0790  137.7460 C   0  0  0  0  0  0  0  0  0  0  0  0
  162.6550  208.6800  137.1970 O   0  0  0  0  0  1  0  0  0  0  0  0
  158.9420  209.5050  139.4270 O   0  0  0  0  0  1  0  0  0  0  0  0
  160.3120  209.7390  139.2680 C   0  0  2  0  0  3  0  0  0  0  0  0
  157.0700  213.3500  139.9780 N   0  0  0  0  0  0  0  0  0  0  0  0
  157.8760  214.4520  140.4780 C   0  0  0  0  0  2  0  0  0  0  0  0
  158.9110  212.6870  138.5340 C   0  0  1  0  0  0  0  0  0  0  0  0
  162.0130  213.2180  140.4510 O   0  0  0  0  0  0  0  0  0  0  0  0
  161.6980  211.7440  138.6010 C   0  0  0  0  0  2  0  0  0  0  0  0
  159.3230  211.5210  137.7230 C   0  0  2  0  0  0  0  0  0  0  0  0
  155.6840  213.7880  139.9920 C   0  0  0  0  0  1  0  0  0  0  0  0
  161.2030  212.7380  139.6110 C   0  0  0  0  0  0  0  0  0  0  0  0
  160.5950  210.7700  138.1600 C   0  0  2  0  0  3  0  0  0  0  0  0
  159.8310  213.1950  139.5710 N   0  0  0  0  0  0  0  0  0  0  0  0
  159.4740  212.8420  137.2490 O   0  0  0  0  0  0  0  0  0  0  0  0
  157.4550  213.1450  138.5880 C   0  0  0  0  0  2  0  0  0  0  0  0
  158.3200  210.8350  137.0360 O   0  0  0  0  0  1  0  0  0  0  0  0
  159.3250  213.9920  140.6940 C   0  0  0  0  0  2  0  0  0  0  0  0
  160.7860  205.6110  149.3830 O   0  0  0  0  0  0  0  0  0  0  0  0
  161.9310  204.8010  149.3580 C   0  0  0  0  0  1  0  0  0  0  0  0
  162.0800  207.4640  148.4580 C   0  0  1  0  0  3  0  0  0  0  0  0
  161.7290  208.7830  147.7870 C   0  0  0  0  0  2  0  0  0  0  0  0
  161.7550  209.9020  148.8160 C   0  0  0  0  0  2  0  0  0  0  0  0
  162.7450  210.9000  148.4300 N   0  0  0  0  0  2  0  0  0  0  0  0
  161.9120  212.2640  147.7020 P   0  0  1  0  0  0  0  0  0  0  0  0
  159.6760  212.7920  146.7300 C   0  0  0  0  0  2  0  0  0  0  0  0
  159.9410  213.3420  145.3230 C   0  0  0  0  0  2  0  0  0  0  0  0
  162.0920  213.8880  145.8030 C   0  0  0  0  0  2  0  0  0  0  0  0
  162.9030  212.9860  146.5030 O   0  0  0  0  0  0  0  0  0  0  0  0
  161.2800  213.1830  144.9010 O   0  0  0  0  0  0  0  0  0  0  0  0
  160.4730  211.6760  146.9950 O   0  0  0  0  0  0  0  0  0  0  0  0
  161.5880  213.2720  148.7880 O   0  0  0  0  0  0  0  0  0  0  0  0
  162.4040  207.7080  149.9290 C   0  0  0  0  0  2  0  0  0  0  0  0
  161.1620  207.8240  150.6790 N   0  0  0  0  0  2  0  0  0  0  0  0
  160.9860  208.7520  151.7400 C   0  0  0  0  0  0  0  0  0  0  0  0
  159.9100  208.7180  152.3980 O   0  0  0  0  0  0  0  0  0  0  0  0
  162.0520  209.7180  152.0810 C   0  0  0  0  0  3  0  0  0  0  0  0
  162.2720  210.2740  153.2800 C   0  0  0  0  0  3  0  0  0  0  0  0
  161.4630  209.9900  154.5010 C   0  0  0  0  0  2  0  0  0  0  0  0
  162.2120  210.4640  155.7380 C   0  0  0  0  0  2  0  0  0  0  0  0
  161.6760  211.6950  156.1370 O   0  0  0  0  0  0  0  0  0  0  0  0
  159.6440  211.1980  157.1520 O   0  0  0  0  0  1  0  0  0  0  0  0
  160.2710  211.6470  155.9840 C   0  0  1  0  0  3  0  0  0  0  0  0
  159.7470  212.8850  155.5790 O   0  0  0  0  0  0  0  0  0  0  0  0
  157.4610  212.8140  155.6100 O   0  0  0  0  0  1  0  0  0  0  0  0
  158.6040  212.5840  154.8380 C   0  0  1  0  0  3  0  0  0  0  0  0
  158.5590  213.4790  153.6060 C   0  0  1  0  0  3  0  0  0  0  0  0
  159.8620  213.6780  153.1060 O   0  0  0  0  0  0  0  0  0  0  0  0
  159.0510  212.7450  152.4260 C   0  0  2  0  0  3  0  0  0  0  0  0
  158.5070  213.3840  151.1670 C   0  0  0  0  0  2  0  0  0  0  0  0
  156.9940  213.3500  151.2090 C   0  0  0  0  0  2  0  0  0  0  0  0
  156.4620  213.7310  149.9090 N   0  0  0  0  0  1  0  0  0  0  0  0
  1 37  1  0  0  0  0
  1 35  1  1  0  0  0
  2  4  1  0  0  0  0
  2  3  1  0  0  0  0
  3  5  1  0  0  0  0
  4  8  1  6  0  0  0
  4  6  1  0  0  0  0
  5  7  1  0  0  0  0
  6  7  1  0  0  0  0
  7  1  1  1  0  0  0
  9  8  1  0  0  0  0
 10 12  1  6  0  0  0
 10 11  1  0  0  0  0
 11  9  1  1  0  0  0
 13 10  1  0  0  0  0
 13 11  1  0  0  0  0
 14 10  1  0  0  0  0
 15 17  1  6  0  0  0
 15 20  1  0  0  0  0
 15 14  1  0  0  0  0
 16 17  2  0  0  0  0
 18 17  1  0  0  0  0
 20 19  1  6  0  0  0
 21 27  1  0  0  0  0
 21 22  1  0  0  0  0
 22 34  1  0  0  0  0
 23 32  1  1  0  0  0
 23 30  1  0  0  0  0
 25 28  1  0  0  0  0
 26 33  1  6  0  0  0
 26 29  1  0  0  0  0
 26 23  1  0  0  0  0
 28 24  2  0  0  0  0
 29 25  1  0  0  0  0
 29 20  1  1  0  0  0
 30 28  1  0  0  0  0
 30 34  1  0  0  0  0
 31 26  1  0  0  0  0
 31 23  1  0  0  0  0
 32 21  1  0  0  0  0
 36 35  1  0  0  0  0
 37 38  1  1  0  0  0
 37 49  1  0  0  0  0
 38 39  1  0  0  0  0
 40 39  1  0  0  0  0
 41 40  1  0  0  0  0
 41 48  2  1  0  0  0
 42 47  1  0  0  0  0
 43 42  1  0  0  0  0
 44 45  1  0  0  0  0
 45 41  1  0  0  0  0
 46 43  1  0  0  0  0
 46 44  1  0  0  0  0
 47 41  1  0  0  0  0
 49 50  1  0  0  0  0
 50 51  1  0  0  0  0
 51 53  1  0  0  0  0
 51 52  2  0  0  0  0
 53 54  2  0  0  0  0
 54 55  1  0  0  0  0
 55 56  1  0  0  0  0
 56 57  1  0  0  0  0
 59 57  1  0  0  0  0
 59 58  1  1  0  0  0
 60 59  1  0  0  0  0
 62 60  1  0  0  0  0
 62 61  1  1  0  0  0
 63 62  1  1  0  0  0
 64 63  1  0  0  0  0
 65 66  1  6  0  0  0
 65 64  1  0  0  0  0
 65 63  1  0  0  0  0
 66 67  1  0  0  0  0
 68 67  1  0  0  0  0
M  END
>  <MODEL>
2

>  <REMARK>
 VINA RESULT:      -1.2      2.612      5.012
  Name = 
  27 active torsions:
  status: ('A' for Active; 'I' for Inactive)
    1  A    between atoms: C_1  and  C_48
    2  A    between atoms: P_2  and  N_22
    3  A    between atoms: O_3  and  C_5
    4  A    between atoms: O_3  and  C_62
    5  A    between atoms: C_4  and  C_9
    6  A    between atoms: C_4  and  N_31
    7  A    between atoms: O_8  and  C_66
    8  A    between atoms: C_9  and  C_33
    9  A    between atoms: C_9  and  C_66
   10  A    between atoms: C_10  and  C_49
   11  A    between atoms: C_12  and  C_42
   12  A    between atoms: C_13  and  C_34
   13  A    between atoms: C_17  and  C_34
   14  A    between atoms: N_22  and  C_51
   15  A    between atoms: C_24  and  C_39
   16  A    between atoms: C_28  and  C_44
   17  A    between atoms: C_28  and  C_62
   18  A    between atoms: C_29  and  O_52
   19  A    between atoms: C_29  and  O_56
   20  A    between atoms: C_32  and  C_67
   21  A    between atoms: C_33  and  C_51
   22  A    between atoms: C_37  and  C_62
   23  A    between atoms: C_39  and  C_53
   24  A    between atoms: C_47  and  C_66
   25  A    between atoms: C_48  and  O_52
   26  A    between atoms: C_49  and  C_67
   27  A    between atoms: C_53  and  O_56
                            x       y       z     vdW  Elec       q    Type
                         _______ _______ _______ _____ _____    ______ ____

>  <TORSDO>
F 27

$$$$
=
 OpenBabel11052410023D

 68 74  0  0  1  0  0  0  0  0999 V2000
  162.4140  206.5610  148.1930 C   0  0  1  0  0  3  0  0  0  0  0  0
  161.5240  208.4550  151.9730 C   0  0  0  0  0  2  0  0  0  0  0  0
  161.9040  209.3950  150.8380 C   0  0  0  0  0  2  0  0  0  0  0  0
  162.4590  207.2310  152.0170 C   0  0  2  0  0  3  0  0  0  0  0  0
  161.7030  208.7130  149.4760 C   0  0  0  0  0  2  0  0  0  0  0  0
  163.0190  206.8670  150.6370 C   0  0  0  0  0  2  0  0  0  0  0  0
  162.0190  207.2060  149.5340 C   0  0  2  0  0  3  0  0  0  0  0  0
  161.7120  206.0360  152.5920 C   0  0  0  0  0  2  0  0  0  0  0  0
  160.5400  206.4570  153.4560 C   0  0  0  0  0  2  0  0  0  0  0  0
  159.9150  208.0120  155.3040 C   0  0  1  0  0  0  0  0  0  0  0  0
  160.8180  207.7870  154.1450 C   0  0  1  0  0  3  0  0  0  0  0  0
  158.9410  207.0490  155.6150 O   0  0  0  0  0  1  0  0  0  0  0  0
  161.2290  207.5540  155.4810 O   0  0  0  0  0  0  0  0  0  0  0  0
  159.7080  209.3440  155.7200 O   0  0  0  0  0  0  0  0  0  0  0  0
  160.2330  210.2010  154.7260 C   0  0  2  0  0  3  0  0  0  0  0  0
  161.7110  211.1850  156.3530 O   0  0  0  0  0  1  0  0  0  0  0  0
  161.5440  210.7910  155.1630 C   0  0  0  0  0  0  0  0  0  0  0  0
  162.5750  210.9190  154.2420 O   0  0  0  0  0  0  0  0  0  0  0  0
  158.4450  210.8280  153.1700 O   0  0  0  0  0  1  0  0  0  0  0  0
  159.1870  211.2570  154.2760 C   0  0  2  0  0  3  0  0  0  0  0  0
  156.9280  213.0120  150.2920 N   0  0  0  0  0  0  0  0  0  0  0  0
  156.0180  214.0160  150.8180 C   0  0  0  0  0  2  0  0  0  0  0  0
  158.5530  213.6220  151.9960 C   0  0  1  0  0  0  0  0  0  0  0  0
  156.6550  214.3130  155.0780 O   0  0  0  0  0  0  0  0  0  0  0  0
  158.9530  213.6920  154.9100 C   0  0  0  0  0  2  0  0  0  0  0  0
  159.7950  213.0820  152.5910 C   0  0  2  0  0  0  0  0  0  0  0  0
  156.7000  212.9310  148.8590 C   0  0  0  0  0  1  0  0  0  0  0  0
  157.6040  213.9760  154.3170 C   0  0  0  0  0  0  0  0  0  0  0  0
  159.7480  212.6760  154.0770 C   0  0  2  0  0  3  0  0  0  0  0  0
  157.4160  213.9390  152.8840 N   0  0  0  0  0  0  0  0  0  0  0  0
  159.6560  214.4530  152.2830 O   0  0  0  0  0  0  0  0  0  0  0  0
  158.2780  213.5190  150.4970 C   0  0  0  0  0  2  0  0  0  0  0  0
  160.6900  212.4460  151.7310 O   0  0  0  0  0  1  0  0  0  0  0  0
  156.0500  214.0060  152.3540 C   0  0  0  0  0  2  0  0  0  0  0  0
  163.7720  206.1850  148.1900 O   0  0  0  0  0  0  0  0  0  0  0  0
  163.8900  205.2080  147.1910 C   0  0  0  0  0  1  0  0  0  0  0  0
  161.5070  205.4150  147.6990 C   0  0  1  0  0  3  0  0  0  0  0  0
  161.8920  204.1300  148.4150 C   0  0  0  0  0  2  0  0  0  0  0  0
  161.0780  203.9940  149.6920 C   0  0  0  0  0  2  0  0  0  0  0  0
  161.1530  202.6210  150.1790 N   0  0  0  0  0  2  0  0  0  0  0  0
  160.6490  201.5410  148.8890 P   0  0  1  0  0  0  0  0  0  0  0  0
  161.6190  199.7280  147.4760 C   0  0  0  0  0  2  0  0  0  0  0  0
  161.3730  200.1430  146.0200 C   0  0  0  0  0  2  0  0  0  0  0  0
  159.6880  201.5600  146.5760 C   0  0  0  0  0  2  0  0  0  0  0  0
  159.8330  202.4250  147.6670 O   0  0  0  0  0  0  0  0  0  0  0  0
  160.9070  201.4700  145.8860 O   0  0  0  0  0  0  0  0  0  0  0  0
  162.0520  200.8120  148.2440 O   0  0  0  0  0  0  0  0  0  0  0  0
  159.7300  200.4850  149.4710 O   0  0  0  0  0  0  0  0  0  0  0  0
  160.0290  205.7100  147.9330 C   0  0  0  0  0  2  0  0  0  0  0  0
  159.4030  206.0530  146.6650 N   0  0  0  0  0  2  0  0  0  0  0  0
  160.1310  206.1520  145.4480 C   0  0  0  0  0  0  0  0  0  0  0  0
  159.5270  206.5490  144.4150 O   0  0  0  0  0  0  0  0  0  0  0  0
  161.5710  205.8210  145.4020 C   0  0  0  0  0  3  0  0  0  0  0  0
  162.2660  205.4260  144.3270 C   0  0  0  0  0  3  0  0  0  0  0  0
  161.6860  205.2670  142.9620 C   0  0  0  0  0  2  0  0  0  0  0  0
  162.0690  206.4570  142.0950 C   0  0  0  0  0  2  0  0  0  0  0  0
  161.5520  206.2560  140.8090 O   0  0  0  0  0  0  0  0  0  0  0  0
  162.7340  206.7310  138.8650 O   0  0  0  0  0  1  0  0  0  0  0  0
  162.0490  207.2710  139.9590 C   0  0  1  0  0  3  0  0  0  0  0  0
  161.0320  208.1390  139.5340 O   0  0  0  0  0  0  0  0  0  0  0  0
  160.9280  210.0750  138.3190 O   0  0  0  0  0  1  0  0  0  0  0  0
  161.6640  209.3540  139.2630 C   0  0  1  0  0  3  0  0  0  0  0  0
  161.7520  210.1670  140.5490 C   0  0  1  0  0  3  0  0  0  0  0  0
  162.9800  210.8570  140.6010 O   0  0  0  0  0  0  0  0  0  0  0  0
  161.8410  211.6050  140.2350 C   0  0  2  0  0  3  0  0  0  0  0  0
  161.3750  212.4140  141.4270 C   0  0  0  0  0  2  0  0  0  0  0  0
  160.4460  213.5090  140.9470 C   0  0  0  0  0  2  0  0  0  0  0  0
  159.6940  213.0390  139.7940 N   0  0  0  0  0  1  0  0  0  0  0  0
  1 35  1  1  0  0  0
  2  4  1  0  0  0  0
  3  2  1  0  0  0  0
  4  8  1  6  0  0  0
  5  7  1  0  0  0  0
  5  3  1  0  0  0  0
  6  4  1  0  0  0  0
  7  1  1  6  0  0  0
  7  6  1  0  0  0  0
  8  9  1  0  0  0  0
 10 13  1  0  0  0  0
 10 12  1  1  0  0  0
 10 14  1  0  0  0  0
 11  9  1  6  0  0  0
 11 10  1  0  0  0  0
 11 13  1  0  0  0  0
 15 17  1  1  0  0  0
 15 14  1  0  0  0  0
 17 16  1  0  0  0  0
 18 17  2  0  0  0  0
 20 19  1  6  0  0  0
 20 15  1  0  0  0  0
 21 32  1  0  0  0  0
 21 22  1  0  0  0  0
 22 34  1  0  0  0  0
 23 32  1  6  0  0  0
 23 31  1  0  0  0  0
 23 26  1  0  0  0  0
 23 30  1  0  0  0  0
 26 33  1  6  0  0  0
 26 29  1  0  0  0  0
 27 21  1  0  0  0  0
 28 25  1  0  0  0  0
 28 24  2  0  0  0  0
 29 20  1  6  0  0  0
 29 25  1  0  0  0  0
 30 28  1  0  0  0  0
 31 26  1  0  0  0  0
 34 30  1  0  0  0  0
 36 35  1  0  0  0  0
 37 49  1  1  0  0  0
 37  1  1  0  0  0  0
 37 38  1  0  0  0  0
 38 39  1  0  0  0  0
 39 40  1  0  0  0  0
 41 48  2  1  0  0  0
 41 40  1  0  0  0  0
 42 47  1  0  0  0  0
 43 42  1  0  0  0  0
 44 45  1  0  0  0  0
 45 41  1  0  0  0  0
 46 43  1  0  0  0  0
 46 44  1  0  0  0  0
 47 41  1  0  0  0  0
 50 49  1  0  0  0  0
 51 50  1  0  0  0  0
 52 51  2  0  0  0  0
 53 51  1  0  0  0  0
 54 53  2  0  0  0  0
 55 54  1  0  0  0  0
 56 55  1  0  0  0  0
 57 56  1  0  0  0  0
 59 58  1  6  0  0  0
 59 57  1  0  0  0  0
 60 59  1  0  0  0  0
 62 61  1  6  0  0  0
 62 60  1  0  0  0  0
 63 62  1  6  0  0  0
 63 64  1  0  0  0  0
 65 63  1  0  0  0  0
 65 64  1  0  0  0  0
 65 66  1  1  0  0  0
 67 66  1  0  0  0  0
 68 67  1  0  0  0  0
M  END
>  <MODEL>
3

>  <REMARK>
 VINA RESULT:       1.3      1.871     11.330
  Name = 
  27 active torsions:
  status: ('A' for Active; 'I' for Inactive)
    1  A    between atoms: C_1  and  C_48
    2  A    between atoms: P_2  and  N_22
    3  A    between atoms: O_3  and  C_5
    4  A    between atoms: O_3  and  C_62
    5  A    between atoms: C_4  and  C_9
    6  A    between atoms: C_4  and  N_31
    7  A    between atoms: O_8  and  C_66
    8  A    between atoms: C_9  and  C_33
    9  A    between atoms: C_9  and  C_66
   10  A    between atoms: C_10  and  C_49
   11  A    between atoms: C_12  and  C_42
   12  A    between atoms: C_13  and  C_34
   13  A    between atoms: C_17  and  C_34
   14  A    between atoms: N_22  and  C_51
   15  A    between atoms: C_24  and  C_39
   16  A    between atoms: C_28  and  C_44
   17  A    between atoms: C_28  and  C_62
   18  A    between atoms: C_29  and  O_52
   19  A    between atoms: C_29  and  O_56
   20  A    between atoms: C_32  and  C_67
   21  A    between atoms: C_33  and  C_51
   22  A    between atoms: C_37  and  C_62
   23  A    between atoms: C_39  and  C_53
   24  A    between atoms: C_47  and  C_66
   25  A    between atoms: C_48  and  O_52
   26  A    between atoms: C_49  and  C_67
   27  A    between atoms: C_53  and  O_56
                            x       y       z     vdW  Elec       q    Type
                         _______ _______ _______ _____ _____    ______ ____

>  <TORSDO>
F 27

$$$$
