=
 OpenBabel11052412033D

 40 43  0  0  1  0  0  0  0  0999 V2000
  159.4060  213.8640  148.8020 C   0  0  0  0  0  0  0  0  0  0  0  0
  161.3220  211.4550  147.4370 N   0  0  0  0  0  2  0  0  0  0  0  0
  160.2280  213.4840  148.0090 C   0  0  0  0  0  0  0  0  0  0  0  0
  159.0400  212.1520  152.7420 C   0  0  2  0  0  3  0  0  0  0  0  0
  162.3560  209.1510  150.3440 C   0  0  1  0  0  3  0  0  0  0  0  0
  161.4510  209.6810  149.2280 C   0  0  0  0  0  2  0  0  0  0  0  0
  159.5430  212.6580  151.4740 C   0  0  0  0  0  0  0  0  0  0  0  0
  157.5970  211.4910  155.0170 C   0  0  0  0  0  3  0  0  0  0  0  0
  157.0730  212.4340  154.1190 C   0  0  0  0  0  3  0  0  0  0  0  0
  159.5940  211.2070  153.6200 C   0  0  0  0  0  0  0  0  0  0  0  0
  160.9550  209.8420  152.0990 N   0  0  0  0  0  2  0  0  0  0  0  0
  161.9110  210.9880  148.6530 C   0  0  0  0  0  0  0  0  0  0  0  0
  162.2520  209.9550  151.5650 N   0  0  0  0  0  2  0  0  0  0  0  0
  161.2250  212.8750  147.1190 C   0  0  2  0  0  3  0  0  0  0  0  0
  158.4280  214.1640  149.8150 C   0  0  0  0  0  2  0  0  0  0  0  0
  162.7450  211.7090  149.2680 O   0  0  0  0  0  0  0  0  0  0  0  0
  157.8180  212.7480  152.9850 C   0  0  0  0  0  0  0  0  0  0  0  0
  158.4950  213.5860  151.0180 C   0  0  0  0  0  0  0  0  0  0  0  0
  160.9510  210.5930  153.3500 C   0  0  2  0  0  3  0  0  0  0  0  0
  160.8010  212.8580  151.2560 N   0  0  0  0  0  1  0  0  0  0  0  0
  157.4300  213.6650  151.9670 N   0  0  0  0  0  0  0  0  0  0  0  0
  158.8420  210.8840  154.7710 C   0  0  0  0  0  3  0  0  0  0  0  0
  159.3400  212.5510  143.8520 C   0  0  0  0  0  3  0  0  0  0  0  0
  160.8400  213.0640  145.6860 C   0  0  0  0  0  0  0  0  0  0  0  0
  159.7160  212.3970  145.1900 C   0  0  0  0  0  3  0  0  0  0  0  0
  160.0840  213.3710  142.9980 C   0  0  0  0  0  0  0  0  0  0  0  0
  161.5910  213.8860  144.8320 C   0  0  0  0  0  3  0  0  0  0  0  0
  161.2150  214.0390  143.4950 C   0  0  0  0  0  3  0  0  0  0  0  0
  159.8990  212.4900  140.6930 C   0  0  0  0  0  1  0  0  0  0  0  0
  159.6820  213.5040  141.6660 O   0  0  0  0  0  0  0  0  0  0  0  0
  161.4780  209.7530  154.4760 C   0  0  0  0  0  0  0  0  0  0  0  0
  162.1800  210.2780  155.3840 O   0  0  0  0  0  0  0  0  0  0  0  0
  161.2090  208.3840  154.4860 O   0  0  0  0  0  0  0  0  0  0  0  0
  159.7800  207.4010  156.1370 C   0  0  0  0  0  1  0  0  0  0  0  0
  161.2070  207.6310  155.6880 C   0  0  0  0  0  2  0  0  0  0  0  0
  162.0860  207.6760  150.6300 C   0  0  0  0  0  2  0  0  0  0  0  0
  161.4010  207.0050  149.4500 C   0  0  1  0  0  3  0  0  0  0  0  0
  162.3310  206.7760  148.4340 O   0  0  0  0  0  1  0  0  0  0  0  0
  160.8050  205.6860  149.9040 C   0  0  0  0  0  2  0  0  0  0  0  0
  160.8520  204.7240  148.8180 N   0  0  0  0  0  1  0  0  0  0  0  0
  1 15  1  0  0  0  0
  2 12  1  0  0  0  0
  3  1  3  0  0  0  0
  4  7  1  6  0  0  0
  4 17  1  0  0  0  0
  4 10  1  0  0  0  0
  5 36  1  1  0  0  0
  5 13  1  0  0  0  0
  6  5  1  0  0  0  0
  9  8  2  0  0  0  0
 10 22  2  0  0  0  0
 11 19  1  0  0  0  0
 12  6  1  0  0  0  0
 12 16  2  0  0  0  0
 13 11  1  0  0  0  0
 14 24  1  6  0  0  0
 14  2  1  0  0  0  0
 14  3  1  0  0  0  0
 15 18  1  0  0  0  0
 17  9  1  0  0  0  0
 18  7  2  0  0  0  0
 18 21  1  0  0  0  0
 19 10  1  0  0  0  0
 19 31  1  1  0  0  0
 20  7  1  0  0  0  0
 21 17  2  0  0  0  0
 22  8  1  0  0  0  0
 23 25  1  0  0  0  0
 25 24  2  0  0  0  0
 26 28  1  0  0  0  0
 26 23  2  0  0  0  0
 27 24  1  0  0  0  0
 28 27  2  0  0  0  0
 29 30  1  0  0  0  0
 30 26  1  0  0  0  0
 31 33  1  0  0  0  0
 31 32  2  0  0  0  0
 33 35  1  0  0  0  0
 35 34  1  0  0  0  0
 37 38  1  6  0  0  0
 37 39  1  0  0  0  0
 37 36  1  0  0  0  0
 40 39  1  0  0  0  0
M  END
>  <MODEL>
1

>  <REMARK>
 VINA RESULT:      -6.2      0.000      0.000
  Name = 
  8 active torsions:
  status: ('A' for Active; 'I' for Inactive)
    1  A    between atoms: C_1  and  O_28
    2  A    between atoms: C_1  and  C_33
    3  A    between atoms: C_4  and  C_7
    4  A    between atoms: C_4  and  C_10
    5  A    between atoms: C_7  and  C_19
    6  A    between atoms: C_16  and  C_25
    7  A    between atoms: C_23  and  O_34
    8  A    between atoms: C_27  and  O_28
                            x       y       z     vdW  Elec       q    Type
                         _______ _______ _______ _____ _____    ______ ____

>  <TORSDO>
F 8

$$$$
=
 OpenBabel11052412033D

 40 43  0  0  1  0  0  0  0  0999 V2000
  159.1930  214.0540  147.5810 C   0  0  0  0  0  0  0  0  0  0  0  0
  161.4090  211.6110  146.9010 N   0  0  0  0  0  2  0  0  0  0  0  0
  160.1310  213.6120  146.9700 C   0  0  0  0  0  0  0  0  0  0  0  0
  158.4290  213.0130  151.6950 C   0  0  2  0  0  3  0  0  0  0  0  0
  162.1990  209.9280  150.2730 C   0  0  1  0  0  3  0  0  0  0  0  0
  161.4140  210.1850  148.9830 C   0  0  0  0  0  2  0  0  0  0  0  0
  159.0590  213.3350  150.4240 C   0  0  0  0  0  0  0  0  0  0  0  0
  156.7470  212.6340  153.8690 C   0  0  0  0  0  3  0  0  0  0  0  0
  156.2870  213.3640  152.7630 C   0  0  0  0  0  3  0  0  0  0  0  0
  158.9210  212.2800  152.7860 C   0  0  0  0  0  0  0  0  0  0  0  0
  160.5450  210.7910  151.7020 N   0  0  0  0  0  2  0  0  0  0  0  0
  161.8640  211.4080  148.2410 C   0  0  0  0  0  0  0  0  0  0  0  0
  161.8910  210.9170  151.3100 N   0  0  0  0  0  2  0  0  0  0  0  0
  161.2690  212.9440  146.3250 C   0  0  2  0  0  3  0  0  0  0  0  0
  158.0770  214.4400  148.4040 C   0  0  0  0  0  2  0  0  0  0  0  0
  162.5670  212.2890  148.8080 O   0  0  0  0  0  0  0  0  0  0  0  0
  157.1520  213.5400  151.6850 C   0  0  0  0  0  0  0  0  0  0  0  0
  158.0230  214.0840  149.6900 C   0  0  0  0  0  0  0  0  0  0  0  0
  160.3350  211.7410  152.7890 C   0  0  2  0  0  3  0  0  0  0  0  0
  160.3200  213.5970  150.3200 N   0  0  0  0  0  1  0  0  0  0  0  0
  156.8430  214.2350  150.4810 N   0  0  0  0  0  0  0  0  0  0  0  0
  158.0480  212.0970  153.8820 C   0  0  0  0  0  3  0  0  0  0  0  0
  161.9640  213.0370  142.6040 C   0  0  0  0  0  3  0  0  0  0  0  0
  161.0600  212.8550  144.8460 C   0  0  0  0  0  0  0  0  0  0  0  0
  162.1360  213.1070  143.9900 C   0  0  0  0  0  3  0  0  0  0  0  0
  160.7150  212.7170  142.0610 C   0  0  0  0  0  0  0  0  0  0  0  0
  159.8050  212.5350  144.3060 C   0  0  0  0  0  3  0  0  0  0  0  0
  159.6330  212.4670  142.9210 C   0  0  0  0  0  3  0  0  0  0  0  0
  160.1950  211.4680  139.9900 C   0  0  0  0  0  1  0  0  0  0  0  0
  160.5760  212.6550  140.6720 O   0  0  0  0  0  0  0  0  0  0  0  0
  160.7630  211.1510  154.1010 C   0  0  0  0  0  0  0  0  0  0  0  0
  160.8810  211.8880  155.1190 O   0  0  0  0  0  0  0  0  0  0  0  0
  161.0580  209.7900  154.1680 O   0  0  0  0  0  0  0  0  0  0  0  0
  160.4080  207.7870  155.3110 C   0  0  0  0  0  1  0  0  0  0  0  0
  161.1480  209.1040  155.4080 C   0  0  0  0  0  2  0  0  0  0  0  0
  161.9830  208.5070  150.7850 C   0  0  0  0  0  2  0  0  0  0  0  0
  161.6100  207.5660  149.6510 C   0  0  1  0  0  3  0  0  0  0  0  0
  162.7620  207.1720  148.9680 O   0  0  0  0  0  1  0  0  0  0  0  0
  160.9130  206.3460  150.2240 C   0  0  0  0  0  2  0  0  0  0  0  0
  161.0130  205.2370  149.2910 N   0  0  0  0  0  1  0  0  0  0  0  0
  1 15  1  0  0  0  0
  2 12  1  0  0  0  0
  3  1  3  0  0  0  0
  4  7  1  6  0  0  0
  4 10  1  0  0  0  0
  5 36  1  1  0  0  0
  5 13  1  0  0  0  0
  6  5  1  0  0  0  0
  8 22  1  0  0  0  0
  9  8  2  0  0  0  0
 10 19  1  0  0  0  0
 10 22  2  0  0  0  0
 11 19  1  0  0  0  0
 12 16  2  0  0  0  0
 12  6  1  0  0  0  0
 13 11  1  0  0  0  0
 14 24  1  6  0  0  0
 14  2  1  0  0  0  0
 14  3  1  0  0  0  0
 15 18  1  0  0  0  0
 17  4  1  0  0  0  0
 17  9  1  0  0  0  0
 18  7  2  0  0  0  0
 18 21  1  0  0  0  0
 19 31  1  1  0  0  0
 20  7  1  0  0  0  0
 21 17  2  0  0  0  0
 23 25  1  0  0  0  0
 25 24  2  0  0  0  0
 26 23  2  0  0  0  0
 26 28  1  0  0  0  0
 27 24  1  0  0  0  0
 28 27  2  0  0  0  0
 29 30  1  0  0  0  0
 30 26  1  0  0  0  0
 31 33  1  0  0  0  0
 31 32  2  0  0  0  0
 33 35  1  0  0  0  0
 34 35  1  0  0  0  0
 37 38  1  1  0  0  0
 37 39  1  0  0  0  0
 37 36  1  0  0  0  0
 40 39  1  0  0  0  0
M  END
>  <MODEL>
2

>  <REMARK>
 VINA RESULT:      -4.9      1.102      1.471
  Name = 
  8 active torsions:
  status: ('A' for Active; 'I' for Inactive)
    1  A    between atoms: C_1  and  O_28
    2  A    between atoms: C_1  and  C_33
    3  A    between atoms: C_4  and  C_7
    4  A    between atoms: C_4  and  C_10
    5  A    between atoms: C_7  and  C_19
    6  A    between atoms: C_16  and  C_25
    7  A    between atoms: C_23  and  O_34
    8  A    between atoms: C_27  and  O_28
                            x       y       z     vdW  Elec       q    Type
                         _______ _______ _______ _____ _____    ______ ____

>  <TORSDO>
F 8

$$$$
=
 OpenBabel11052412033D

 40 43  0  0  1  0  0  0  0  0999 V2000
  161.7620  209.1540  148.6010 C   0  0  0  0  0  0  0  0  0  0  0  0
  161.3550  206.3840  150.4720 N   0  0  0  0  0  2  0  0  0  0  0  0
  162.0280  208.0140  148.8810 C   0  0  0  0  0  0  0  0  0  0  0  0
  160.5900  212.0430  151.5790 C   0  0  0  0  0  0  0  0  0  0  0  0
  160.6960  207.6170  154.0600 C   0  0  1  0  0  3  0  0  0  0  0  0
  160.3390  207.2350  152.6200 C   0  0  0  0  0  2  0  0  0  0  0  0
  161.2110  210.9370  150.8660 C   0  0  0  0  0  0  0  0  0  0  0  0
  159.2610  214.3370  152.3990 C   0  0  0  0  0  3  0  0  0  0  0  0
  159.4800  214.1200  151.0300 C   0  0  0  0  0  2  0  0  0  0  0  0
  160.3900  212.2300  152.9560 C   0  0  0  0  0  0  0  0  0  0  0  0
  160.3020  209.9160  153.7720 N   0  0  0  0  0  2  0  0  0  0  0  0
  161.5370  207.0040  151.7470 C   0  0  0  0  0  0  0  0  0  0  0  0
  161.2690  208.9640  154.1450 N   0  0  0  0  0  2  0  0  0  0  0  0
  162.2530  206.6410  149.3510 C   0  0  2  0  0  3  0  0  0  0  0  0
  161.3450  210.5170  148.4020 C   0  0  0  0  0  2  0  0  0  0  0  0
  162.6780  207.4200  152.0880 O   0  0  0  0  0  0  0  0  0  0  0  0
  160.1500  212.9610  150.6450 C   0  0  0  0  0  0  0  0  0  0  0  0
  161.0760  211.3060  149.4460 C   0  0  0  0  0  0  0  0  0  0  0  0
  160.9110  211.2270  153.9630 C   0  0  2  0  0  3  0  0  0  0  0  0
  162.2320  210.2970  151.3310 N   0  0  0  0  0  1  0  0  0  0  0  0
  160.4380  212.5770  149.3040 N   0  0  0  0  0  0  0  0  0  0  0  0
  159.7100  213.4030  153.3510 C   0  0  0  0  0  3  0  0  0  0  0  0
  161.3500  203.4280  147.5620 C   0  0  0  0  0  3  0  0  0  0  0  0
  162.0070  205.6580  148.2500 C   0  0  0  0  0  0  0  0  0  0  0  0
  161.5780  204.3670  148.5730 C   0  0  0  0  0  3  0  0  0  0  0  0
  161.5480  203.7700  146.2210 C   0  0  0  0  0  0  0  0  0  0  0  0
  162.2100  206.0050  146.9060 C   0  0  0  0  0  3  0  0  0  0  0  0
  161.9820  205.0660  145.8960 C   0  0  0  0  0  3  0  0  0  0  0  0
  160.3540  201.7690  145.3900 C   0  0  0  0  0  1  0  0  0  0  0  0
  161.3110  202.8080  145.2350 O   0  0  0  0  0  0  0  0  0  0  0  0
  160.7830  211.6700  155.3910 C   0  0  0  0  0  0  0  0  0  0  0  0
  161.7560  211.5410  156.1840 O   0  0  0  0  0  0  0  0  0  0  0  0
  159.5680  212.1940  155.8330 O   0  0  0  0  0  0  0  0  0  0  0  0
  157.3020  211.4410  155.6560 C   0  0  0  0  0  1  0  0  0  0  0  0
  158.5860  211.3820  156.4560 C   0  0  0  0  0  2  0  0  0  0  0  0
  159.4960  207.4680  154.9920 C   0  0  0  0  0  2  0  0  0  0  0  0
  159.9360  207.0790  156.3940 C   0  0  1  0  0  3  0  0  0  0  0  0
  161.0930  206.3010  156.3260 O   0  0  0  0  0  1  0  0  0  0  0  0
  160.2120  208.3360  157.1970 C   0  0  0  0  0  2  0  0  0  0  0  0
  161.6420  208.5760  157.2610 N   0  0  0  0  0  1  0  0  0  0  0  0
  1  3  3  0  0  0  0
  2 12  1  0  0  0  0
  3 14  1  0  0  0  0
  4 10  2  0  0  0  0
  5 13  1  0  0  0  0
  5 36  1  1  0  0  0
  6  5  1  0  0  0  0
  7 20  1  0  0  0  0
  7  4  1  0  0  0  0
  8 22  2  0  0  0  0
  9  8  1  0  0  0  0
 10 22  1  0  0  0  0
 10 19  1  0  0  0  0
 11 19  1  0  0  0  0
 11 13  1  0  0  0  0
 12 16  2  0  0  0  0
 12  6  1  0  0  0  0
 14 24  1  6  0  0  0
 14  2  1  0  0  0  0
 15  1  1  0  0  0  0
 15 18  1  0  0  0  0
 17  9  1  0  0  0  0
 17  4  1  0  0  0  0
 18  7  2  0  0  0  0
 19 31  1  1  0  0  0
 21 18  1  0  0  0  0
 21 17  2  0  0  0  0
 23 25  1  0  0  0  0
 24 25  2  0  0  0  0
 26 23  2  0  0  0  0
 27 24  1  0  0  0  0
 28 26  1  0  0  0  0
 28 27  2  0  0  0  0
 30 29  1  0  0  0  0
 30 26  1  0  0  0  0
 31 33  1  0  0  0  0
 31 32  2  0  0  0  0
 33 35  1  0  0  0  0
 34 35  1  0  0  0  0
 36 37  1  0  0  0  0
 37 38  1  6  0  0  0
 37 39  1  0  0  0  0
 39 40  1  0  0  0  0
M  END
>  <MODEL>
3

>  <REMARK>
 VINA RESULT:      -3.4      3.522      6.129
  Name = 
  8 active torsions:
  status: ('A' for Active; 'I' for Inactive)
    1  A    between atoms: C_1  and  O_28
    2  A    between atoms: C_1  and  C_33
    3  A    between atoms: C_4  and  C_7
    4  A    between atoms: C_4  and  C_10
    5  A    between atoms: C_7  and  C_19
    6  A    between atoms: C_16  and  C_25
    7  A    between atoms: C_23  and  O_34
    8  A    between atoms: C_27  and  O_28
                            x       y       z     vdW  Elec       q    Type
                         _______ _______ _______ _____ _____    ______ ____

>  <TORSDO>
F 8

$$$$
