=
 OpenBabel11042420133D

 25 27  0  0  0  0  0  0  0  0999 V2000
  161.7160  208.4020  149.1350 C   0  0  0  0  0  3  0  0  0  0  0  0
  161.0780  207.1690  149.2570 C   0  0  0  0  0  0  0  0  0  0  0  0
  161.0480  206.5360  150.5110 C   0  0  0  0  0  0  0  0  0  0  0  0
  162.2860  208.3710  151.4100 N   0  0  0  0  0  0  0  0  0  0  0  0
  161.6770  207.1720  151.5990 C   0  0  0  0  0  0  0  0  0  0  0  0
  162.3030  208.9700  150.2180 N   0  0  0  0  0  0  0  0  0  0  0  0
  160.4470  206.5570  148.0500 C   0  0  0  0  0  2  0  0  0  0  0  0
  161.1970  206.8640  146.9140 O   0  0  0  0  0  1  0  0  0  0  0  0
  160.3620  205.2060  150.6780 C   0  0  0  0  0  2  0  0  0  0  0  0
  161.3550  204.0480  150.6380 C   0  0  0  0  0  2  0  0  0  0  0  0
  160.6410  201.9150  149.5320 C   0  0  0  0  0  3  0  0  0  0  0  0
  160.8580  201.6180  147.1360 C   0  0  0  0  0  0  0  0  0  0  0  0
  160.4820  201.1230  148.3910 C   0  0  0  0  0  3  0  0  0  0  0  0
  161.1680  203.2070  149.4200 C   0  0  0  0  0  0  0  0  0  0  0  0
  161.5380  203.7040  148.1650 C   0  0  0  0  0  3  0  0  0  0  0  0
  161.3800  202.9110  147.0240 C   0  0  0  0  0  3  0  0  0  0  0  0
  159.9730  201.5070  144.9550 O   0  0  0  0  0  1  0  0  0  0  0  0
  160.6690  200.7830  145.9210 C   0  0  0  0  0  2  0  0  0  0  0  0
  161.7250  206.5430  152.9560 C   0  0  0  0  0  2  0  0  0  0  0  0
  159.7570  209.0110  155.8240 C   0  0  0  0  0  3  0  0  0  0  0  0
  160.9500  208.7790  153.7830 C   0  0  0  0  0  3  0  0  0  0  0  0
  159.8120  207.6310  156.0380 C   0  0  0  0  0  3  0  0  0  0  0  0
  160.4510  206.8200  155.0980 C   0  0  0  0  0  3  0  0  0  0  0  0
  160.3220  209.5520  154.7110 N   0  0  0  0  0  0  0  0  0  0  0  0
  161.0210  207.3940  153.9580 C   0  0  0  0  0  0  0  0  0  0  0  0
  1  2  2  0  0  0  0
  1  6  1  0  0  0  0
  2  3  1  0  0  0  0
  3  9  1  0  0  0  0
  3  5  2  0  0  0  0
  4  5  1  0  0  0  0
  5 19  1  0  0  0  0
  6  4  2  0  0  0  0
  7  2  1  0  0  0  0
  8  7  1  0  0  0  0
 10  9  1  0  0  0  0
 12 13  1  0  0  0  0
 13 11  2  0  0  0  0
 14 11  1  0  0  0  0
 14 10  1  0  0  0  0
 15 14  2  0  0  0  0
 16 12  2  0  0  0  0
 16 15  1  0  0  0  0
 17 18  1  0  0  0  0
 18 12  1  0  0  0  0
 19 25  1  0  0  0  0
 20 22  1  0  0  0  0
 21 25  2  0  0  0  0
 21 24  1  0  0  0  0
 23 22  2  0  0  0  0
 24 20  2  0  0  0  0
 25 23  1  0  0  0  0
M  END
>  <MODEL>
1

>  <REMARK>
 VINA RESULT:      -8.6      0.000      0.000
  Name = 
  7 active torsions:
  status: ('A' for Active; 'I' for Inactive)
    1  A    between atoms: C_6  and  C_22
    2  A    between atoms: C_8  and  C_18
    3  A    between atoms: C_9  and  C_13
    4  A    between atoms: C_9  and  C_17
    5  A    between atoms: C_11  and  C_16
    6  A    between atoms: C_11  and  C_21
    7  A    between atoms: C_15  and  C_17
                            x       y       z     vdW  Elec       q    Type
                         _______ _______ _______ _____ _____    ______ ____

>  <TORSDO>
F 7

$$$$
=
 OpenBabel11042420133D

 25 27  0  0  0  0  0  0  0  0999 V2000
  162.0790  209.8370  148.5270 C   0  0  0  0  0  3  0  0  0  0  0  0
  162.2340  208.5930  149.1370 C   0  0  0  0  0  0  0  0  0  0  0  0
  162.2270  208.5140  150.5400 C   0  0  0  0  0  0  0  0  0  0  0  0
  161.9320  210.8830  150.6220 N   0  0  0  0  0  0  0  0  0  0  0  0
  162.0720  209.7020  151.2790 C   0  0  0  0  0  0  0  0  0  0  0  0
  161.9310  210.9490  149.2900 N   0  0  0  0  0  0  0  0  0  0  0  0
  162.4060  207.3820  148.2800 C   0  0  0  0  0  2  0  0  0  0  0  0
  161.3060  207.2390  147.4340 O   0  0  0  0  0  1  0  0  0  0  0  0
  162.3870  207.1850  151.2290 C   0  0  0  0  0  2  0  0  0  0  0  0
  161.0380  206.5430  151.5420 C   0  0  0  0  0  2  0  0  0  0  0  0
  161.1850  204.0980  152.0730 C   0  0  0  0  0  3  0  0  0  0  0  0
  160.9760  202.4270  150.3300 C   0  0  0  0  0  0  0  0  0  0  0  0
  161.1680  202.7570  151.6770 C   0  0  0  0  0  3  0  0  0  0  0  0
  161.0020  205.1110  151.1250 C   0  0  0  0  0  0  0  0  0  0  0  0
  160.8030  204.7800  149.7790 C   0  0  0  0  0  3  0  0  0  0  0  0
  160.7870  203.4400  149.3840 C   0  0  0  0  0  3  0  0  0  0  0  0
  161.4350  200.8750  148.6160 O   0  0  0  0  0  1  0  0  0  0  0  0
  160.9370  201.0010  149.9120 C   0  0  0  0  0  2  0  0  0  0  0  0
  162.0970  209.7060  152.7760 C   0  0  0  0  0  2  0  0  0  0  0  0
  158.8700  211.9870  154.3810 C   0  0  0  0  0  3  0  0  0  0  0  0
  161.1130  211.2170  154.5180 C   0  0  0  0  0  3  0  0  0  0  0  0
  158.6820  211.2910  153.1840 C   0  0  0  0  0  3  0  0  0  0  0  0
  159.7390  210.5490  152.6530 C   0  0  0  0  0  3  0  0  0  0  0  0
  160.0720  211.9360  155.0180 N   0  0  0  0  0  0  0  0  0  0  0  0
  160.9670  210.5120  153.3190 C   0  0  0  0  0  0  0  0  0  0  0  0
  1  2  2  0  0  0  0
  1  6  1  0  0  0  0
  2  3  1  0  0  0  0
  3  9  1  0  0  0  0
  3  5  2  0  0  0  0
  4  5  1  0  0  0  0
  5 19  1  0  0  0  0
  6  4  2  0  0  0  0
  7  2  1  0  0  0  0
  8  7  1  0  0  0  0
  9 10  1  0  0  0  0
 12 13  2  0  0  0  0
 13 11  1  0  0  0  0
 14 10  1  0  0  0  0
 14 11  2  0  0  0  0
 15 14  1  0  0  0  0
 16 15  2  0  0  0  0
 16 12  1  0  0  0  0
 17 18  1  0  0  0  0
 18 12  1  0  0  0  0
 19 25  1  0  0  0  0
 20 24  1  0  0  0  0
 21 24  2  0  0  0  0
 22 20  2  0  0  0  0
 23 22  1  0  0  0  0
 23 25  2  0  0  0  0
 25 21  1  0  0  0  0
M  END
>  <MODEL>
2

>  <REMARK>
 VINA RESULT:      -8.6      2.293      2.989
  Name = 
  7 active torsions:
  status: ('A' for Active; 'I' for Inactive)
    1  A    between atoms: C_6  and  C_22
    2  A    between atoms: C_8  and  C_18
    3  A    between atoms: C_9  and  C_13
    4  A    between atoms: C_9  and  C_17
    5  A    between atoms: C_11  and  C_16
    6  A    between atoms: C_11  and  C_21
    7  A    between atoms: C_15  and  C_17
                            x       y       z     vdW  Elec       q    Type
                         _______ _______ _______ _____ _____    ______ ____

>  <TORSDO>
F 7

$$$$
=
 OpenBabel11042420133D

 25 27  0  0  0  0  0  0  0  0999 V2000
  161.8860  210.3420  149.9280 C   0  0  0  0  0  3  0  0  0  0  0  0
  161.9760  209.3180  150.8690 C   0  0  0  0  0  0  0  0  0  0  0  0
  162.2970  208.0200  150.4390 C   0  0  0  0  0  0  0  0  0  0  0  0
  162.3990  208.8420  148.1980 N   0  0  0  0  0  0  0  0  0  0  0  0
  162.5080  207.8000  149.0640 C   0  0  0  0  0  0  0  0  0  0  0  0
  162.1020  210.0740  148.6150 N   0  0  0  0  0  0  0  0  0  0  0  0
  161.7250  209.6320  152.3080 C   0  0  0  0  0  2  0  0  0  0  0  0
  160.3550  209.6060  152.5680 O   0  0  0  0  0  1  0  0  0  0  0  0
  162.4080  206.8930  151.4310 C   0  0  0  0  0  2  0  0  0  0  0  0
  161.0530  206.2450  151.7050 C   0  0  0  0  0  2  0  0  0  0  0  0
  160.6330  204.5710  149.8880 C   0  0  0  0  0  3  0  0  0  0  0  0
  160.8830  202.1950  150.2970 C   0  0  0  0  0  0  0  0  0  0  0  0
  160.5750  203.2510  149.4310 C   0  0  0  0  0  3  0  0  0  0  0  0
  161.0070  204.8380  151.2100 C   0  0  0  0  0  0  0  0  0  0  0  0
  161.3210  203.7830  152.0740 C   0  0  0  0  0  3  0  0  0  0  0  0
  161.2620  202.4630  151.6170 C   0  0  0  0  0  3  0  0  0  0  0  0
  161.3020  200.7410  148.4900 O   0  0  0  0  0  1  0  0  0  0  0  0
  160.8410  200.7930  149.8050 C   0  0  0  0  0  2  0  0  0  0  0  0
  162.8120  206.4390  148.5220 C   0  0  0  0  0  2  0  0  0  0  0  0
  160.7160  205.7630  144.8690 C   0  0  0  0  0  3  0  0  0  0  0  0
  160.7660  206.6220  147.0840 C   0  0  0  0  0  3  0  0  0  0  0  0
  162.0410  205.3330  144.9830 C   0  0  0  0  0  3  0  0  0  0  0  0
  162.7310  205.5580  146.1760 C   0  0  0  0  0  3  0  0  0  0  0  0
  160.1110  206.3940  145.9130 N   0  0  0  0  0  0  0  0  0  0  0  0
  162.0940  206.2110  147.2350 C   0  0  0  0  0  0  0  0  0  0  0  0
  1  2  1  0  0  0  0
  2  7  1  0  0  0  0
  3  2  2  0  0  0  0
  3  9  1  0  0  0  0
  4  6  1  0  0  0  0
  4  5  2  0  0  0  0
  5  3  1  0  0  0  0
  6  1  2  0  0  0  0
  7  8  1  0  0  0  0
  9 10  1  0  0  0  0
 11 14  1  0  0  0  0
 12 16  2  0  0  0  0
 13 11  2  0  0  0  0
 13 12  1  0  0  0  0
 14 10  1  0  0  0  0
 14 15  2  0  0  0  0
 16 15  1  0  0  0  0
 17 18  1  0  0  0  0
 18 12  1  0  0  0  0
 19  5  1  0  0  0  0
 20 22  2  0  0  0  0
 20 24  1  0  0  0  0
 21 25  1  0  0  0  0
 22 23  1  0  0  0  0
 23 25  2  0  0  0  0
 24 21  2  0  0  0  0
 25 19  1  0  0  0  0
M  END
>  <MODEL>
3

>  <REMARK>
 VINA RESULT:      -8.6      2.941      5.560
  Name = 
  7 active torsions:
  status: ('A' for Active; 'I' for Inactive)
    1  A    between atoms: C_6  and  C_22
    2  A    between atoms: C_8  and  C_18
    3  A    between atoms: C_9  and  C_13
    4  A    between atoms: C_9  and  C_17
    5  A    between atoms: C_11  and  C_16
    6  A    between atoms: C_11  and  C_21
    7  A    between atoms: C_15  and  C_17
                            x       y       z     vdW  Elec       q    Type
                         _______ _______ _______ _____ _____    ______ ____

>  <TORSDO>
F 7

$$$$
=
 OpenBabel11042420133D

 25 27  0  0  0  0  0  0  0  0999 V2000
  162.3300  206.2320  146.5490 C   0  0  0  0  0  3  0  0  0  0  0  0
  161.6550  206.3610  147.7620 C   0  0  0  0  0  0  0  0  0  0  0  0
  161.2170  205.2030  148.4270 C   0  0  0  0  0  0  0  0  0  0  0  0
  162.1290  203.8970  146.6470 N   0  0  0  0  0  0  0  0  0  0  0  0
  161.4710  203.9510  147.8340 C   0  0  0  0  0  0  0  0  0  0  0  0
  162.5490  205.0000  146.0260 N   0  0  0  0  0  0  0  0  0  0  0  0
  161.4140  207.7270  148.3160 C   0  0  0  0  0  2  0  0  0  0  0  0
  162.6300  208.3860  148.4990 O   0  0  0  0  0  1  0  0  0  0  0  0
  160.4900  205.3080  149.7410 C   0  0  0  0  0  2  0  0  0  0  0  0
  161.4160  205.0380  150.9240 C   0  0  0  0  0  2  0  0  0  0  0  0
  161.2790  205.7280  153.3300 C   0  0  0  0  0  3  0  0  0  0  0  0
  160.9810  208.0520  153.9470 C   0  0  0  0  0  0  0  0  0  0  0  0
  161.1340  206.7100  154.3140 C   0  0  0  0  0  3  0  0  0  0  0  0
  161.2800  206.0870  151.9770 C   0  0  0  0  0  0  0  0  0  0  0  0
  161.1330  207.4290  151.6110 C   0  0  0  0  0  3  0  0  0  0  0  0
  160.9870  208.4110  152.5950 C   0  0  0  0  0  3  0  0  0  0  0  0
  161.6860  208.8010  156.0680 O   0  0  0  0  0  1  0  0  0  0  0  0
  160.8480  209.0990  154.9950 C   0  0  0  0  0  2  0  0  0  0  0  0
  161.0000  202.6750  148.4590 C   0  0  0  0  0  2  0  0  0  0  0  0
  160.9620  199.5250  145.5840 C   0  0  0  0  0  3  0  0  0  0  0  0
  161.5980  200.3560  147.7170 C   0  0  0  0  0  3  0  0  0  0  0  0
  160.3250  200.7310  145.2800 C   0  0  0  0  0  3  0  0  0  0  0  0
  160.3310  201.7620  146.2220 C   0  0  0  0  0  3  0  0  0  0  0  0
  161.5800  199.3630  146.7860 N   0  0  0  0  0  0  0  0  0  0  0  0
  160.9670  201.5760  147.4530 C   0  0  0  0  0  0  0  0  0  0  0  0
  1  2  1  0  0  0  0
  2  7  1  0  0  0  0
  2  3  2  0  0  0  0
  3  9  1  0  0  0  0
  4  5  2  0  0  0  0
  5  3  1  0  0  0  0
  5 19  1  0  0  0  0
  6  1  2  0  0  0  0
  6  4  1  0  0  0  0
  7  8  1  0  0  0  0
  9 10  1  0  0  0  0
 10 14  1  0  0  0  0
 11 13  1  0  0  0  0
 12 13  2  0  0  0  0
 12 18  1  0  0  0  0
 14 11  2  0  0  0  0
 15 14  1  0  0  0  0
 15 16  2  0  0  0  0
 16 12  1  0  0  0  0
 18 17  1  0  0  0  0
 20 24  1  0  0  0  0
 22 20  2  0  0  0  0
 22 23  1  0  0  0  0
 23 25  2  0  0  0  0
 24 21  2  0  0  0  0
 25 21  1  0  0  0  0
 25 19  1  0  0  0  0
M  END
>  <MODEL>
4

>  <REMARK>
 VINA RESULT:      -8.6      3.446      8.007
  Name = 
  7 active torsions:
  status: ('A' for Active; 'I' for Inactive)
    1  A    between atoms: C_6  and  C_22
    2  A    between atoms: C_8  and  C_18
    3  A    between atoms: C_9  and  C_13
    4  A    between atoms: C_9  and  C_17
    5  A    between atoms: C_11  and  C_16
    6  A    between atoms: C_11  and  C_21
    7  A    between atoms: C_15  and  C_17
                            x       y       z     vdW  Elec       q    Type
                         _______ _______ _______ _____ _____    ______ ____

>  <TORSDO>
F 7

$$$$
=
 OpenBabel11042420133D

 25 27  0  0  0  0  0  0  0  0999 V2000
  162.4300  208.0310  151.3650 C   0  0  0  0  0  3  0  0  0  0  0  0
  161.7550  206.8260  151.5510 C   0  0  0  0  0  0  0  0  0  0  0  0
  160.9840  206.3040  150.4990 C   0  0  0  0  0  0  0  0  0  0  0  0
  161.5930  208.2000  149.1800 N   0  0  0  0  0  0  0  0  0  0  0  0
  160.9150  207.0280  149.2930 C   0  0  0  0  0  0  0  0  0  0  0  0
  162.3300  208.6850  150.1800 N   0  0  0  0  0  0  0  0  0  0  0  0
  161.8700  206.1260  152.8660 C   0  0  0  0  0  2  0  0  0  0  0  0
  160.8340  206.5270  153.7090 O   0  0  0  0  0  1  0  0  0  0  0  0
  160.2470  205.0020  150.6660 C   0  0  0  0  0  2  0  0  0  0  0  0
  161.1980  203.8480  150.9740 C   0  0  0  0  0  2  0  0  0  0  0  0
  161.1970  201.4630  150.2050 C   0  0  0  0  0  3  0  0  0  0  0  0
  161.2170  200.9120  147.8450 C   0  0  0  0  0  0  0  0  0  0  0  0
  161.2060  200.5070  149.1850 C   0  0  0  0  0  3  0  0  0  0  0  0
  161.1900  202.8260  149.8870 C   0  0  0  0  0  0  0  0  0  0  0  0
  161.1940  203.2300  148.5470 C   0  0  0  0  0  3  0  0  0  0  0  0
  161.2050  202.2740  147.5280 C   0  0  0  0  0  3  0  0  0  0  0  0
  160.7660  200.4770  145.5730 O   0  0  0  0  0  1  0  0  0  0  0  0
  161.2060  199.8950  146.7600 C   0  0  0  0  0  2  0  0  0  0  0  0
  160.0820  206.5610  148.1410 C   0  0  0  0  0  2  0  0  0  0  0  0
  162.5110  205.3940  144.8350 C   0  0  0  0  0  3  0  0  0  0  0  0
  160.4460  206.2030  145.6860 C   0  0  0  0  0  3  0  0  0  0  0  0
  163.0450  205.3370  146.1260 C   0  0  0  0  0  3  0  0  0  0  0  0
  162.2540  205.7240  147.2090 C   0  0  0  0  0  3  0  0  0  0  0  0
  161.2340  205.8230  144.6440 N   0  0  0  0  0  0  0  0  0  0  0  0
  160.9450  206.1650  146.9920 C   0  0  0  0  0  0  0  0  0  0  0  0
  1  2  1  0  0  0  0
  2  7  1  0  0  0  0
  3  9  1  0  0  0  0
  3  2  2  0  0  0  0
  4  5  2  0  0  0  0
  4  6  1  0  0  0  0
  5  3  1  0  0  0  0
  6  1  2  0  0  0  0
  7  8  1  0  0  0  0
  9 10  1  0  0  0  0
 12 13  1  0  0  0  0
 13 11  2  0  0  0  0
 14 11  1  0  0  0  0
 14 10  1  0  0  0  0
 15 14  2  0  0  0  0
 16 12  2  0  0  0  0
 16 15  1  0  0  0  0
 17 18  1  0  0  0  0
 18 12  1  0  0  0  0
 19  5  1  0  0  0  0
 20 22  1  0  0  0  0
 21 25  2  0  0  0  0
 22 23  2  0  0  0  0
 24 20  2  0  0  0  0
 24 21  1  0  0  0  0
 25 23  1  0  0  0  0
 25 19  1  0  0  0  0
M  END
>  <MODEL>
5

>  <REMARK>
 VINA RESULT:      -8.4      2.356      5.256
  Name = 
  7 active torsions:
  status: ('A' for Active; 'I' for Inactive)
    1  A    between atoms: C_6  and  C_22
    2  A    between atoms: C_8  and  C_18
    3  A    between atoms: C_9  and  C_13
    4  A    between atoms: C_9  and  C_17
    5  A    between atoms: C_11  and  C_16
    6  A    between atoms: C_11  and  C_21
    7  A    between atoms: C_15  and  C_17
                            x       y       z     vdW  Elec       q    Type
                         _______ _______ _______ _____ _____    ______ ____

>  <TORSDO>
F 7

$$$$
=
 OpenBabel11042420133D

 25 27  0  0  0  0  0  0  0  0999 V2000
  161.9420  209.4640  150.5320 C   0  0  0  0  0  3  0  0  0  0  0  0
  162.0410  208.0760  150.4570 C   0  0  0  0  0  0  0  0  0  0  0  0
  161.7840  207.3100  151.6060 C   0  0  0  0  0  0  0  0  0  0  0  0
  161.3710  209.3350  152.8030 N   0  0  0  0  0  0  0  0  0  0  0  0
  161.4440  207.9780  152.7970 C   0  0  0  0  0  0  0  0  0  0  0  0
  161.6080  210.0550  151.7060 N   0  0  0  0  0  0  0  0  0  0  0  0
  162.4210  207.4460  149.1570 C   0  0  0  0  0  2  0  0  0  0  0  0
  161.3710  207.5670  148.2460 O   0  0  0  0  0  1  0  0  0  0  0  0
  161.8770  205.8080  151.5570 C   0  0  0  0  0  2  0  0  0  0  0  0
  160.5500  205.1700  151.1530 C   0  0  0  0  0  2  0  0  0  0  0  0
  161.0300  204.1590  148.9110 C   0  0  0  0  0  3  0  0  0  0  0  0
  161.1020  201.7550  148.6160 C   0  0  0  0  0  0  0  0  0  0  0  0
  161.2070  203.0450  148.0840 C   0  0  0  0  0  3  0  0  0  0  0  0
  160.7570  203.9840  150.2720 C   0  0  0  0  0  0  0  0  0  0  0  0
  160.6590  202.6940  150.8050 C   0  0  0  0  0  3  0  0  0  0  0  0
  160.8340  201.5810  149.9770 C   0  0  0  0  0  3  0  0  0  0  0  0
  160.9330  200.8790  146.4340 O   0  0  0  0  0  1  0  0  0  0  0  0
  161.3100  200.5710  147.7400 C   0  0  0  0  0  2  0  0  0  0  0  0
  161.1970  207.2350  154.0730 C   0  0  0  0  0  2  0  0  0  0  0  0
  160.5310  209.9890  157.2610 C   0  0  0  0  0  3  0  0  0  0  0  0
  159.7870  208.9280  155.2700 C   0  0  0  0  0  3  0  0  0  0  0  0
  161.7270  209.2690  157.2230 C   0  0  0  0  0  3  0  0  0  0  0  0
  161.9450  208.3620  156.1840 C   0  0  0  0  0  3  0  0  0  0  0  0
  159.5930  209.8060  156.2920 N   0  0  0  0  0  0  0  0  0  0  0  0
  160.9680  208.1840  155.2000 C   0  0  0  0  0  0  0  0  0  0  0  0
  1  6  1  0  0  0  0
  2  1  2  0  0  0  0
  2  3  1  0  0  0  0
  3  5  2  0  0  0  0
  5  4  1  0  0  0  0
  5 19  1  0  0  0  0
  6  4  2  0  0  0  0
  7  2  1  0  0  0  0
  8  7  1  0  0  0  0
  9  3  1  0  0  0  0
 10  9  1  0  0  0  0
 11 14  1  0  0  0  0
 12 16  2  0  0  0  0
 13 12  1  0  0  0  0
 13 11  2  0  0  0  0
 14 15  2  0  0  0  0
 14 10  1  0  0  0  0
 16 15  1  0  0  0  0
 17 18  1  0  0  0  0
 18 12  1  0  0  0  0
 19 25  1  0  0  0  0
 21 24  1  0  0  0  0
 22 20  1  0  0  0  0
 23 22  2  0  0  0  0
 24 20  2  0  0  0  0
 25 21  2  0  0  0  0
 25 23  1  0  0  0  0
M  END
>  <MODEL>
6

>  <REMARK>
 VINA RESULT:      -8.4      1.423      2.007
  Name = 
  7 active torsions:
  status: ('A' for Active; 'I' for Inactive)
    1  A    between atoms: C_6  and  C_22
    2  A    between atoms: C_8  and  C_18
    3  A    between atoms: C_9  and  C_13
    4  A    between atoms: C_9  and  C_17
    5  A    between atoms: C_11  and  C_16
    6  A    between atoms: C_11  and  C_21
    7  A    between atoms: C_15  and  C_17
                            x       y       z     vdW  Elec       q    Type
                         _______ _______ _______ _____ _____    ______ ____

>  <TORSDO>
F 7

$$$$
=
 OpenBabel11042420133D

 25 27  0  0  0  0  0  0  0  0999 V2000
  161.0990  209.6250  152.7250 C   0  0  0  0  0  3  0  0  0  0  0  0
  161.3920  208.4650  152.0100 C   0  0  0  0  0  0  0  0  0  0  0  0
  161.8180  208.5750  150.6750 C   0  0  0  0  0  0  0  0  0  0  0  0
  161.6160  210.9480  150.8570 N   0  0  0  0  0  0  0  0  0  0  0  0
  161.9230  209.8580  150.1060 C   0  0  0  0  0  0  0  0  0  0  0  0
  161.2210  210.8370  152.1270 N   0  0  0  0  0  0  0  0  0  0  0  0
  161.2420  207.1410  152.6830 C   0  0  0  0  0  2  0  0  0  0  0  0
  160.8170  207.3230  153.9990 O   0  0  0  0  0  1  0  0  0  0  0  0
  162.1470  207.3410  149.8770 C   0  0  0  0  0  2  0  0  0  0  0  0
  160.9240  206.7960  149.1450 C   0  0  0  0  0  2  0  0  0  0  0  0
  160.5710  204.6190  150.3340 C   0  0  0  0  0  3  0  0  0  0  0  0
  160.8870  202.5060  149.1900 C   0  0  0  0  0  0  0  0  0  0  0  0
  160.5630  203.2200  150.3490 C   0  0  0  0  0  3  0  0  0  0  0  0
  160.8960  205.3050  149.1590 C   0  0  0  0  0  0  0  0  0  0  0  0
  161.2140  204.5890  147.9980 C   0  0  0  0  0  3  0  0  0  0  0  0
  161.2060  203.1920  148.0140 C   0  0  0  0  0  3  0  0  0  0  0  0
  161.2620  200.5310  147.9590 O   0  0  0  0  0  1  0  0  0  0  0  0
  160.8570  201.0190  149.2010 C   0  0  0  0  0  2  0  0  0  0  0  0
  162.3290  210.0560  148.6790 C   0  0  0  0  0  2  0  0  0  0  0  0
  161.5310  214.0390  147.3800 C   0  0  0  0  0  3  0  0  0  0  0  0
  160.7920  211.8150  147.7700 C   0  0  0  0  0  3  0  0  0  0  0  0
  162.8100  213.7160  147.8390 C   0  0  0  0  0  3  0  0  0  0  0  0
  163.0730  212.4150  148.2710 C   0  0  0  0  0  3  0  0  0  0  0  0
  160.5560  213.0890  147.3550 N   0  0  0  0  0  0  0  0  0  0  0  0
  162.0570  211.4550  148.2420 C   0  0  0  0  0  0  0  0  0  0  0  0
  2  7  1  0  0  0  0
  2  1  2  0  0  0  0
  3  2  1  0  0  0  0
  4  6  2  0  0  0  0
  5  3  2  0  0  0  0
  5  4  1  0  0  0  0
  6  1  1  0  0  0  0
  7  8  1  0  0  0  0
  9  3  1  0  0  0  0
 10 14  1  0  0  0  0
 10  9  1  0  0  0  0
 11 13  1  0  0  0  0
 12 18  1  0  0  0  0
 12 13  2  0  0  0  0
 14 11  2  0  0  0  0
 15 16  2  0  0  0  0
 15 14  1  0  0  0  0
 16 12  1  0  0  0  0
 17 18  1  0  0  0  0
 19  5  1  0  0  0  0
 20 22  1  0  0  0  0
 21 25  2  0  0  0  0
 22 23  2  0  0  0  0
 24 20  2  0  0  0  0
 24 21  1  0  0  0  0
 25 23  1  0  0  0  0
 25 19  1  0  0  0  0
M  END
>  <MODEL>
7

>  <REMARK>
 VINA RESULT:      -8.2      3.061      5.241
  Name = 
  7 active torsions:
  status: ('A' for Active; 'I' for Inactive)
    1  A    between atoms: C_6  and  C_22
    2  A    between atoms: C_8  and  C_18
    3  A    between atoms: C_9  and  C_13
    4  A    between atoms: C_9  and  C_17
    5  A    between atoms: C_11  and  C_16
    6  A    between atoms: C_11  and  C_21
    7  A    between atoms: C_15  and  C_17
                            x       y       z     vdW  Elec       q    Type
                         _______ _______ _______ _____ _____    ______ ____

>  <TORSDO>
F 7

$$$$
=
 OpenBabel11042420133D

 25 27  0  0  0  0  0  0  0  0999 V2000
  161.1000  206.0970  154.2620 C   0  0  0  0  0  3  0  0  0  0  0  0
  161.5120  206.1440  152.9320 C   0  0  0  0  0  0  0  0  0  0  0  0
  161.5590  207.3850  152.2740 C   0  0  0  0  0  0  0  0  0  0  0  0
  160.7810  208.4210  154.2810 N   0  0  0  0  0  0  0  0  0  0  0  0
  161.1780  208.5380  152.9870 C   0  0  0  0  0  0  0  0  0  0  0  0
  160.7470  207.2400  154.9010 N   0  0  0  0  0  0  0  0  0  0  0  0
  161.8880  204.8720  152.2430 C   0  0  0  0  0  2  0  0  0  0  0  0
  160.8450  203.9510  152.3460 O   0  0  0  0  0  1  0  0  0  0  0  0
  162.0050  207.4700  150.8380 C   0  0  0  0  0  2  0  0  0  0  0  0
  160.8310  207.3330  149.8720 C   0  0  0  0  0  2  0  0  0  0  0  0
  161.5880  206.8210  147.5380 C   0  0  0  0  0  3  0  0  0  0  0  0
  161.6540  204.5420  146.7190 C   0  0  0  0  0  0  0  0  0  0  0  0
  161.8520  205.9110  146.5100 C   0  0  0  0  0  3  0  0  0  0  0  0
  161.1320  206.3630  148.7790 C   0  0  0  0  0  0  0  0  0  0  0  0
  160.9390  204.9920  148.9890 C   0  0  0  0  0  3  0  0  0  0  0  0
  161.2030  204.0830  147.9610 C   0  0  0  0  0  3  0  0  0  0  0  0
  161.0540  202.5100  145.6840 O   0  0  0  0  0  1  0  0  0  0  0  0
  161.9550  203.5720  145.6320 C   0  0  0  0  0  2  0  0  0  0  0  0
  161.1610  209.8900  152.3450 C   0  0  0  0  0  2  0  0  0  0  0  0
  158.7630  212.5690  154.6380 C   0  0  0  0  0  3  0  0  0  0  0  0
  160.8300  211.4570  154.2740 C   0  0  0  0  0  3  0  0  0  0  0  0
  158.2140  211.9640  153.5040 C   0  0  0  0  0  3  0  0  0  0  0  0
  158.9990  211.0920  152.7490 C   0  0  0  0  0  3  0  0  0  0  0  0
  160.0490  212.3050  154.9960 N   0  0  0  0  0  0  0  0  0  0  0  0
  160.3190  210.8360  153.1300 C   0  0  0  0  0  0  0  0  0  0  0  0
  1  6  1  0  0  0  0
  2  1  2  0  0  0  0
  3  2  1  0  0  0  0
  3  5  2  0  0  0  0
  4  6  2  0  0  0  0
  5  4  1  0  0  0  0
  7  8  1  0  0  0  0
  7  2  1  0  0  0  0
  9  3  1  0  0  0  0
 10  9  1  0  0  0  0
 11 14  1  0  0  0  0
 12 16  2  0  0  0  0
 13 12  1  0  0  0  0
 13 11  2  0  0  0  0
 14 15  2  0  0  0  0
 14 10  1  0  0  0  0
 16 15  1  0  0  0  0
 18 17  1  0  0  0  0
 18 12  1  0  0  0  0
 19  5  1  0  0  0  0
 19 25  1  0  0  0  0
 20 24  1  0  0  0  0
 21 24  2  0  0  0  0
 22 20  2  0  0  0  0
 23 25  2  0  0  0  0
 23 22  1  0  0  0  0
 25 21  1  0  0  0  0
M  END
>  <MODEL>
8

>  <REMARK>
 VINA RESULT:      -7.9      2.340      3.877
  Name = 
  7 active torsions:
  status: ('A' for Active; 'I' for Inactive)
    1  A    between atoms: C_6  and  C_22
    2  A    between atoms: C_8  and  C_18
    3  A    between atoms: C_9  and  C_13
    4  A    between atoms: C_9  and  C_17
    5  A    between atoms: C_11  and  C_16
    6  A    between atoms: C_11  and  C_21
    7  A    between atoms: C_15  and  C_17
                            x       y       z     vdW  Elec       q    Type
                         _______ _______ _______ _____ _____    ______ ____

>  <TORSDO>
F 7

$$$$
=
 OpenBabel11042420133D

 25 27  0  0  0  0  0  0  0  0999 V2000
  160.8870  208.8880  152.7280 C   0  0  0  0  0  3  0  0  0  0  0  0
  161.1930  207.5310  152.8150 C   0  0  0  0  0  0  0  0  0  0  0  0
  161.9390  206.9310  151.7880 C   0  0  0  0  0  0  0  0  0  0  0  0
  162.0090  209.0420  150.6730 N   0  0  0  0  0  0  0  0  0  0  0  0
  162.3450  207.7260  150.6990 C   0  0  0  0  0  0  0  0  0  0  0  0
  161.3070  209.6070  151.6560 N   0  0  0  0  0  0  0  0  0  0  0  0
  160.7130  206.7550  153.9990 C   0  0  0  0  0  2  0  0  0  0  0  0
  160.2560  207.6280  154.9860 O   0  0  0  0  0  1  0  0  0  0  0  0
  162.2900  205.4680  151.8560 C   0  0  0  0  0  2  0  0  0  0  0  0
  161.0440  204.5880  151.9010 C   0  0  0  0  0  2  0  0  0  0  0  0
  161.0680  203.9010  149.4920 C   0  0  0  0  0  3  0  0  0  0  0  0
  161.0930  201.5610  148.8610 C   0  0  0  0  0  0  0  0  0  0  0  0
  161.0810  202.9140  148.5010 C   0  0  0  0  0  3  0  0  0  0  0  0
  161.0760  203.5370  150.8430 C   0  0  0  0  0  0  0  0  0  0  0  0
  161.0950  202.1840  151.2020 C   0  0  0  0  0  3  0  0  0  0  0  0
  161.1070  201.1980  150.2110 C   0  0  0  0  0  3  0  0  0  0  0  0
  160.9650  201.0980  146.5530 O   0  0  0  0  0  1  0  0  0  0  0  0
  161.1280  200.5120  147.8070 C   0  0  0  0  0  2  0  0  0  0  0  0
  163.1070  207.1510  149.5460 C   0  0  0  0  0  2  0  0  0  0  0  0
  160.4960  206.1440  146.3280 C   0  0  0  0  0  3  0  0  0  0  0  0
  162.6950  206.3930  147.1930 C   0  0  0  0  0  3  0  0  0  0  0  0
  159.9480  206.5400  147.5510 C   0  0  0  0  0  3  0  0  0  0  0  0
  160.8000  206.8640  148.6080 C   0  0  0  0  0  3  0  0  0  0  0  0
  161.8470  206.0790  146.1750 N   0  0  0  0  0  0  0  0  0  0  0  0
  162.1850  206.7870  148.4330 C   0  0  0  0  0  0  0  0  0  0  0  0
  1  2  1  0  0  0  0
  2  7  1  0  0  0  0
  3  9  1  0  0  0  0
  3  2  2  0  0  0  0
  4  5  2  0  0  0  0
  4  6  1  0  0  0  0
  5  3  1  0  0  0  0
  6  1  2  0  0  0  0
  7  8  1  0  0  0  0
  9 10  1  0  0  0  0
 11 14  1  0  0  0  0
 12 16  2  0  0  0  0
 13 12  1  0  0  0  0
 13 11  2  0  0  0  0
 14 15  2  0  0  0  0
 14 10  1  0  0  0  0
 16 15  1  0  0  0  0
 17 18  1  0  0  0  0
 18 12  1  0  0  0  0
 19  5  1  0  0  0  0
 20 22  1  0  0  0  0
 21 25  2  0  0  0  0
 22 23  2  0  0  0  0
 24 20  2  0  0  0  0
 24 21  1  0  0  0  0
 25 23  1  0  0  0  0
 25 19  1  0  0  0  0
M  END
>  <MODEL>
9

>  <REMARK>
 VINA RESULT:      -7.9      2.290      4.858
  Name = 
  7 active torsions:
  status: ('A' for Active; 'I' for Inactive)
    1  A    between atoms: C_6  and  C_22
    2  A    between atoms: C_8  and  C_18
    3  A    between atoms: C_9  and  C_13
    4  A    between atoms: C_9  and  C_17
    5  A    between atoms: C_11  and  C_16
    6  A    between atoms: C_11  and  C_21
    7  A    between atoms: C_15  and  C_17
                            x       y       z     vdW  Elec       q    Type
                         _______ _______ _______ _____ _____    ______ ____

>  <TORSDO>
F 7

$$$$
