=
 OpenBabel11042423073D

 37 41  0  0  1  0  0  0  0  0999 V2000
  161.7510  208.1100  149.3690 C   0  0  0  0  0  0  0  0  0  0  0  0
  161.6880  207.0560  150.3150 C   0  0  0  0  0  0  0  0  0  0  0  0
  160.9480  204.2350  148.0510 N   0  0  0  0  0  0  0  0  0  0  0  0
  161.3130  206.5420  147.5640 C   0  0  0  0  0  3  0  0  0  0  0  0
  161.5700  207.8400  148.0070 C   0  0  0  0  0  3  0  0  0  0  0  0
  161.0470  203.3820  150.2390 C   0  0  0  0  0  0  0  0  0  0  0  0
  160.9380  202.2240  151.1640 C   0  0  0  0  0  1  0  0  0  0  0  0
  161.3240  204.6570  150.7360 C   0  0  0  0  0  3  0  0  0  0  0  0
  161.4160  205.7410  149.8590 C   0  0  0  0  0  0  0  0  0  0  0  0
  160.8590  203.2100  148.9030 N   0  0  0  0  0  0  0  0  0  0  0  0
  161.2290  205.4970  148.4800 C   0  0  0  0  0  0  0  0  0  0  0  0
  161.8860  208.8010  152.1910 C   0  0  0  0  0  2  0  0  0  0  0  0
  160.6650  207.9670  152.5470 C   0  0  1  0  0  3  0  0  0  0  0  0
  161.8360  207.3410  151.7940 C   0  0  1  0  0  0  0  0  0  0  0  0
  162.7090  206.5330  152.5250 O   0  0  0  0  0  1  0  0  0  0  0  0
  160.6990  207.6420  154.0350 C   0  0  0  0  0  2  0  0  0  0  0  0
  161.8950  208.5120  155.9270 O   0  0  0  0  0  1  0  0  0  0  0  0
  161.0330  208.8680  154.8880 C   0  0  2  0  0  3  0  0  0  0  0  0
  159.7840  209.5360  155.4540 C   0  0  0  0  0  2  0  0  0  0  0  0
  160.3890  211.4030  153.9160 N   0  0  0  0  0  2  0  0  0  0  0  0
  159.4430  210.7270  154.6950 N   0  0  0  0  0  0  0  0  0  0  0  0
  158.1740  212.4420  153.7030 C   0  0  0  0  0  2  0  0  0  0  0  0
  159.8460  212.5710  151.8400 C   0  0  0  0  0  1  0  0  0  0  0  0
  157.1690  210.9570  155.3320 N   0  0  0  0  0  2  0  0  0  0  0  0
  158.1420  211.2370  154.5320 C   0  0  0  0  0  0  0  0  0  0  0  0
  159.6640  212.5490  153.3470 C   0  0  2  0  0  3  0  0  0  0  0  0
  161.9850  209.5280  149.7740 C   0  0  0  0  0  2  0  0  0  0  0  0
  161.8910  210.3920  148.6120 N   0  0  0  0  0  2  0  0  0  0  0  0
  163.0300  212.4260  147.9200 C   0  0  0  0  0  2  0  0  0  0  0  0
  162.2870  211.7270  149.0460 C   0  0  1  0  0  3  0  0  0  0  0  0
  161.6060  212.8460  148.2400 C   0  0  2  0  0  3  0  0  0  0  0  0
  160.6480  212.3460  147.1630 C   0  0  2  0  0  3  0  0  0  0  0  0
  161.2000  212.5740  145.9020 O   0  0  0  0  0  1  0  0  0  0  0  0
  159.0020  214.4530  146.0320 C   0  0  0  0  0  1  0  0  0  0  0  0
  158.9700  213.8530  148.6430 O   0  0  0  0  0  0  0  0  0  0  0  0
  157.9490  212.2360  147.1040 O   0  0  0  0  0  0  0  0  0  0  0  0
  159.0860  213.2040  147.2910 S   0  0  0  0  0  0  0  0  0  0  0  0
  1 27  1  0  0  0  0
  1  2  1  0  0  0  0
  2 14  1  0  0  0  0
  3 11  1  0  0  0  0
  3 10  2  0  0  0  0
  4  5  1  0  0  0  0
  4 11  2  0  0  0  0
  5  1  2  0  0  0  0
  6  8  2  0  0  0  0
  6  7  1  0  0  0  0
  9  2  2  0  0  0  0
  9  8  1  0  0  0  0
 10  6  1  0  0  0  0
 11  9  1  0  0  0  0
 12 13  1  0  0  0  0
 13 16  1  1  0  0  0
 14 12  1  0  0  0  0
 14 15  1  1  0  0  0
 14 13  1  0  0  0  0
 16 18  1  0  0  0  0
 18 19  1  0  0  0  0
 18 17  1  1  0  0  0
 20 21  1  0  0  0  0
 21 19  1  0  0  0  0
 22 25  1  0  0  0  0
 25 21  1  0  0  0  0
 25 24  2  0  0  0  0
 26 23  1  6  0  0  0
 26 22  1  0  0  0  0
 26 20  1  0  0  0  0
 28 27  1  0  0  0  0
 29 31  1  0  0  0  0
 29 30  1  0  0  0  0
 30 28  1  6  0  0  0
 31 32  1  6  0  0  0
 31 30  1  0  0  0  0
 32 33  1  6  0  0  0
 32 37  1  0  0  0  0
 34 37  1  0  0  0  0
 36 37  2  0  0  0  0
 37 35  2  0  0  0  0
M  END
>  <MODEL>
1

>  <REMARK>
 VINA RESULT:      -7.9      0.000      0.000
  Name = 
  10 active torsions:
  status: ('A' for Active; 'I' for Inactive)
    1  A    between atoms: C_2  and  S_30
    2  A    between atoms: C_2  and  C_33
    3  A    between atoms: C_3  and  C_11
    4  A    between atoms: C_5  and  C_22
    5  A    between atoms: N_6  and  C_13
    6  A    between atoms: C_11  and  N_27
    7  A    between atoms: C_12  and  C_15
    8  A    between atoms: C_13  and  C_36
    9  A    between atoms: C_15  and  C_36
   10  A    between atoms: N_27  and  C_29
                            x       y       z     vdW  Elec       q    Type
                         _______ _______ _______ _____ _____    ______ ____

>  <TORSDO>
F 10

$$$$
=
 OpenBabel11042423073D

 37 41  0  0  1  0  0  0  0  0999 V2000
  161.3880  205.4180  151.7100 C   0  0  0  0  0  0  0  0  0  0  0  0
  161.3620  205.1800  150.3130 C   0  0  0  0  0  0  0  0  0  0  0  0
  160.7380  201.5410  150.3160 N   0  0  0  0  0  0  0  0  0  0  0  0
  160.9430  203.0670  152.1390 C   0  0  0  0  0  3  0  0  0  0  0  0
  161.1720  204.3630  152.6050 C   0  0  0  0  0  3  0  0  0  0  0  0
  160.8990  202.2310  148.0750 C   0  0  0  0  0  0  0  0  0  0  0  0
  160.8800  201.8890  146.6290 C   0  0  0  0  0  1  0  0  0  0  0  0
  161.1150  203.5480  148.4840 C   0  0  0  0  0  3  0  0  0  0  0  0
  161.1390  203.8590  149.8470 C   0  0  0  0  0  0  0  0  0  0  0  0
  160.7220  201.2590  149.0110 N   0  0  0  0  0  0  0  0  0  0  0  0
  160.9320  202.8110  150.7700 C   0  0  0  0  0  0  0  0  0  0  0  0
  160.4390  206.8570  148.5990 C   0  0  0  0  0  2  0  0  0  0  0  0
  161.1280  207.7040  149.6570 C   0  0  1  0  0  3  0  0  0  0  0  0
  161.6390  206.3030  149.3360 C   0  0  1  0  0  0  0  0  0  0  0  0
  162.7860  206.2050  148.5460 O   0  0  0  0  0  1  0  0  0  0  0  0
  161.9510  208.7880  148.9730 C   0  0  0  0  0  2  0  0  0  0  0  0
  162.5300  209.4290  151.2140 O   0  0  0  0  0  1  0  0  0  0  0  0
  162.3160  209.9270  149.9270 C   0  0  2  0  0  3  0  0  0  0  0  0
  161.2490  211.0170  149.9620 C   0  0  0  0  0  2  0  0  0  0  0  0
  162.5970  212.0210  148.1200 N   0  0  0  0  0  2  0  0  0  0  0  0
  161.6270  212.1400  149.1220 N   0  0  0  0  0  0  0  0  0  0  0  0
  161.6280  214.2770  148.1370 C   0  0  0  0  0  2  0  0  0  0  0  0
  162.5430  213.2800  146.0270 C   0  0  0  0  0  1  0  0  0  0  0  0
  160.2600  213.8240  150.0840 N   0  0  0  0  0  2  0  0  0  0  0  0
  160.9850  213.3910  149.1080 C   0  0  0  0  0  0  0  0  0  0  0  0
  162.7060  213.3650  147.5350 C   0  0  2  0  0  3  0  0  0  0  0  0
  161.6650  206.7700  152.2800 C   0  0  0  0  0  2  0  0  0  0  0  0
  161.6310  206.7070  153.7300 N   0  0  0  0  0  2  0  0  0  0  0  0
  160.0880  206.8180  155.6060 C   0  0  0  0  0  2  0  0  0  0  0  0
  160.3050  207.1560  154.1400 C   0  0  1  0  0  3  0  0  0  0  0  0
  160.3510  208.2600  155.2100 C   0  0  2  0  0  3  0  0  0  0  0  0
  161.7610  208.6770  155.6190 C   0  0  2  0  0  3  0  0  0  0  0  0
  162.0210  208.2400  156.9190 O   0  0  0  0  0  1  0  0  0  0  0  0
  161.1790  211.0460  154.0450 C   0  0  0  0  0  1  0  0  0  0  0  0
  163.3730  210.8390  155.5710 O   0  0  0  0  0  0  0  0  0  0  0  0
  161.2180  211.0820  156.7230 O   0  0  0  0  0  0  0  0  0  0  0  0
  161.9180  210.4550  155.5480 S   0  0  0  0  0  0  0  0  0  0  0  0
  1 27  1  0  0  0  0
  1  5  1  0  0  0  0
  2  1  2  0  0  0  0
  3 11  1  0  0  0  0
  4  5  2  0  0  0  0
  6  8  2  0  0  0  0
  6 10  1  0  0  0  0
  7  6  1  0  0  0  0
  8  9  1  0  0  0  0
  9  2  1  0  0  0  0
  9 11  2  0  0  0  0
 10  3  2  0  0  0  0
 11  4  1  0  0  0  0
 12 14  1  0  0  0  0
 12 13  1  0  0  0  0
 13 16  1  6  0  0  0
 14 15  1  6  0  0  0
 14 13  1  0  0  0  0
 14  2  1  0  0  0  0
 16 18  1  0  0  0  0
 18 19  1  0  0  0  0
 18 17  1  1  0  0  0
 20 21  1  0  0  0  0
 21 19  1  0  0  0  0
 22 25  1  0  0  0  0
 25 21  1  0  0  0  0
 25 24  2  0  0  0  0
 26 23  1  6  0  0  0
 26 20  1  0  0  0  0
 26 22  1  0  0  0  0
 27 28  1  0  0  0  0
 30 28  1  1  0  0  0
 30 31  1  0  0  0  0
 30 29  1  0  0  0  0
 31 29  1  0  0  0  0
 31 32  1  1  0  0  0
 32 33  1  1  0  0  0
 34 37  1  0  0  0  0
 37 35  2  0  0  0  0
 37 32  1  0  0  0  0
 37 36  2  0  0  0  0
M  END
>  <MODEL>
2

>  <REMARK>
 VINA RESULT:      -7.9      3.265      6.273
  Name = 
  10 active torsions:
  status: ('A' for Active; 'I' for Inactive)
    1  A    between atoms: C_2  and  S_30
    2  A    between atoms: C_2  and  C_33
    3  A    between atoms: C_3  and  C_11
    4  A    between atoms: C_5  and  C_22
    5  A    between atoms: N_6  and  C_13
    6  A    between atoms: C_11  and  N_27
    7  A    between atoms: C_12  and  C_15
    8  A    between atoms: C_13  and  C_36
    9  A    between atoms: C_15  and  C_36
   10  A    between atoms: N_27  and  C_29
                            x       y       z     vdW  Elec       q    Type
                         _______ _______ _______ _____ _____    ______ ____

>  <TORSDO>
F 10

$$$$
=
 OpenBabel11042423073D

 37 41  0  0  1  0  0  0  0  0999 V2000
  161.2280  206.7750  153.4590 C   0  0  0  0  0  0  0  0  0  0  0  0
  161.1360  207.3370  152.1610 C   0  0  0  0  0  0  0  0  0  0  0  0
  160.9650  204.2390  150.1590 N   0  0  0  0  0  0  0  0  0  0  0  0
  161.1060  204.5360  152.5220 C   0  0  0  0  0  3  0  0  0  0  0  0
  161.2050  205.3850  153.6250 C   0  0  0  0  0  3  0  0  0  0  0  0
  160.8870  206.0530  148.6670 C   0  0  0  0  0  0  0  0  0  0  0  0
  160.8110  206.5560  147.2700 C   0  0  0  0  0  1  0  0  0  0  0  0
  160.9660  206.9500  149.7340 C   0  0  0  0  0  3  0  0  0  0  0  0
  161.0450  206.4670  151.0440 C   0  0  0  0  0  0  0  0  0  0  0  0
  160.8960  204.7160  148.9130 N   0  0  0  0  0  0  0  0  0  0  0  0
  161.0330  205.0680  151.2380 C   0  0  0  0  0  0  0  0  0  0  0  0
  162.3990  209.5340  152.5800 C   0  0  0  0  0  2  0  0  0  0  0  0
  162.2970  209.4130  151.0680 C   0  0  1  0  0  3  0  0  0  0  0  0
  161.2050  208.8360  151.9650 C   0  0  1  0  0  0  0  0  0  0  0  0
  160.0160  209.5590  152.0740 O   0  0  0  0  0  1  0  0  0  0  0  0
  161.9060  210.7640  150.4830 C   0  0  0  0  0  2  0  0  0  0  0  0
  162.4800  209.6460  148.4370 O   0  0  0  0  0  1  0  0  0  0  0  0
  161.7500  210.7140  148.9610 C   0  0  2  0  0  3  0  0  0  0  0  0
  162.1800  212.0160  148.2920 C   0  0  0  0  0  2  0  0  0  0  0  0
  160.5820  212.4740  146.4330 N   0  0  0  0  0  2  0  0  0  0  0  0
  161.0350  212.7150  147.7350 N   0  0  0  0  0  0  0  0  0  0  0  0
  159.1360  214.0950  147.5770 C   0  0  0  0  0  2  0  0  0  0  0  0
  158.2340  212.6110  145.7700 C   0  0  0  0  0  1  0  0  0  0  0  0
  160.5260  214.1430  149.5610 N   0  0  0  0  0  2  0  0  0  0  0  0
  160.1830  213.5720  148.4550 C   0  0  0  0  0  0  0  0  0  0  0  0
  159.4470  213.3890  146.2500 C   0  0  2  0  0  3  0  0  0  0  0  0
  161.3750  207.6210  154.6810 C   0  0  0  0  0  2  0  0  0  0  0  0
  160.0630  207.9480  155.2110 N   0  0  0  0  0  2  0  0  0  0  0  0
  161.3660  209.4940  156.5610 C   0  0  0  0  0  2  0  0  0  0  0  0
  160.2690  208.4430  156.5680 C   0  0  1  0  0  3  0  0  0  0  0  0
  159.9220  209.9340  156.7190 C   0  0  2  0  0  3  0  0  0  0  0  0
  159.4210  210.5930  155.4380 C   0  0  2  0  0  3  0  0  0  0  0  0
  160.4160  211.4220  154.9170 O   0  0  0  0  0  1  0  0  0  0  0  0
  158.0870  213.1230  154.9410 C   0  0  0  0  0  1  0  0  0  0  0  0
  157.8450  211.8040  157.2610 O   0  0  0  0  0  0  0  0  0  0  0  0
  156.7340  210.8380  155.2960 O   0  0  0  0  0  0  0  0  0  0  0  0
  157.9610  211.5630  155.7800 S   0  0  0  0  0  0  0  0  0  0  0  0
  1  5  1  0  0  0  0
  1 27  1  0  0  0  0
  2  1  2  0  0  0  0
  3 11  1  0  0  0  0
  4  5  2  0  0  0  0
  6 10  1  0  0  0  0
  6  8  2  0  0  0  0
  7  6  1  0  0  0  0
  8  9  1  0  0  0  0
  9 11  2  0  0  0  0
  9  2  1  0  0  0  0
 10  3  2  0  0  0  0
 11  4  1  0  0  0  0
 13 16  1  6  0  0  0
 13 14  1  0  0  0  0
 13 12  1  0  0  0  0
 14 15  1  1  0  0  0
 14  2  1  0  0  0  0
 14 12  1  0  0  0  0
 18 17  1  6  0  0  0
 18 16  1  0  0  0  0
 19 18  1  0  0  0  0
 20 21  1  0  0  0  0
 21 19  1  0  0  0  0
 21 25  1  0  0  0  0
 22 25  1  0  0  0  0
 25 24  2  0  0  0  0
 26 23  1  1  0  0  0
 26 20  1  0  0  0  0
 26 22  1  0  0  0  0
 27 28  1  0  0  0  0
 29 30  1  0  0  0  0
 29 31  1  0  0  0  0
 30 28  1  6  0  0  0
 30 31  1  0  0  0  0
 31 32  1  6  0  0  0
 32 33  1  1  0  0  0
 32 37  1  0  0  0  0
 34 37  1  0  0  0  0
 36 37  2  0  0  0  0
 37 35  2  0  0  0  0
M  END
>  <MODEL>
3

>  <REMARK>
 VINA RESULT:      -7.8      2.771      6.362
  Name = 
  10 active torsions:
  status: ('A' for Active; 'I' for Inactive)
    1  A    between atoms: C_2  and  S_30
    2  A    between atoms: C_2  and  C_33
    3  A    between atoms: C_3  and  C_11
    4  A    between atoms: C_5  and  C_22
    5  A    between atoms: N_6  and  C_13
    6  A    between atoms: C_11  and  N_27
    7  A    between atoms: C_12  and  C_15
    8  A    between atoms: C_13  and  C_36
    9  A    between atoms: C_15  and  C_36
   10  A    between atoms: N_27  and  C_29
                            x       y       z     vdW  Elec       q    Type
                         _______ _______ _______ _____ _____    ______ ____

>  <TORSDO>
F 10

$$$$
=
 OpenBabel11042423073D

 37 41  0  0  1  0  0  0  0  0999 V2000
  161.7240  207.5000  148.7420 C   0  0  0  0  0  0  0  0  0  0  0  0
  161.5110  206.2880  149.4470 C   0  0  0  0  0  0  0  0  0  0  0  0
  161.3860  203.9350  146.6040 N   0  0  0  0  0  0  0  0  0  0  0  0
  161.7420  206.2940  146.6320 C   0  0  0  0  0  3  0  0  0  0  0  0
  161.8440  207.4880  147.3480 C   0  0  0  0  0  3  0  0  0  0  0  0
  161.0620  202.6900  148.5710 C   0  0  0  0  0  0  0  0  0  0  0  0
  160.8140  201.3790  149.2260 C   0  0  0  0  0  1  0  0  0  0  0  0
  161.1730  203.8500  149.3380 C   0  0  0  0  0  3  0  0  0  0  0  0
  161.3990  205.0800  148.7120 C   0  0  0  0  0  0  0  0  0  0  0  0
  161.1660  202.7680  147.2170 N   0  0  0  0  0  0  0  0  0  0  0  0
  161.5140  205.0960  147.3040 C   0  0  0  0  0  0  0  0  0  0  0  0
  162.5910  206.0940  151.7690 C   0  0  0  0  0  2  0  0  0  0  0  0
  161.9090  207.4530  151.7570 C   0  0  1  0  0  3  0  0  0  0  0  0
  161.3340  206.2930  150.9500 C   0  0  1  0  0  0  0  0  0  0  0  0
  160.2160  205.6400  151.4720 O   0  0  0  0  0  1  0  0  0  0  0  0
  161.1740  207.6560  153.0760 C   0  0  0  0  0  2  0  0  0  0  0  0
  161.8060  209.9560  152.7950 O   0  0  0  0  0  1  0  0  0  0  0  0
  160.8160  209.1240  153.3200 C   0  0  2  0  0  3  0  0  0  0  0  0
  160.6090  209.4310  154.8000 C   0  0  0  0  0  2  0  0  0  0  0  0
  158.9770  211.2230  154.2120 N   0  0  0  0  0  2  0  0  0  0  0  0
  160.0520  210.7610  154.9800 N   0  0  0  0  0  0  0  0  0  0  0  0
  159.6420  212.8940  155.8830 C   0  0  0  0  0  2  0  0  0  0  0  0
  157.2820  212.7710  155.0490 C   0  0  0  0  0  1  0  0  0  0  0  0
  161.5150  211.5710  156.6630 N   0  0  0  0  0  2  0  0  0  0  0  0
  160.4060  211.6530  156.0080 C   0  0  0  0  0  0  0  0  0  0  0  0
  158.7430  212.5990  154.6740 C   0  0  2  0  0  3  0  0  0  0  0  0
  161.8050  208.8180  149.4380 C   0  0  0  0  0  2  0  0  0  0  0  0
  161.7940  209.8910  148.4600 N   0  0  0  0  0  2  0  0  0  0  0  0
  163.0130  211.9790  148.2060 C   0  0  0  0  0  2  0  0  0  0  0  0
  162.2170  211.1010  149.1570 C   0  0  1  0  0  3  0  0  0  0  0  0
  161.5930  212.3780  148.5690 C   0  0  2  0  0  3  0  0  0  0  0  0
  160.6530  212.1320  147.3940 C   0  0  2  0  0  3  0  0  0  0  0  0
  161.3120  212.4190  146.1970 O   0  0  0  0  0  1  0  0  0  0  0  0
  159.0300  213.6920  149.2280 C   0  0  0  0  0  1  0  0  0  0  0  0
  157.9830  212.4030  147.1250 O   0  0  0  0  0  0  0  0  0  0  0  0
  159.3550  214.3860  146.6610 O   0  0  0  0  0  0  0  0  0  0  0  0
  159.2080  213.1730  147.5390 S   0  0  0  0  0  0  0  0  0  0  0  0
  1 27  1  0  0  0  0
  1  2  1  0  0  0  0
  2 14  1  0  0  0  0
  3 10  2  0  0  0  0
  3 11  1  0  0  0  0
  4 11  2  0  0  0  0
  4  5  1  0  0  0  0
  5  1  2  0  0  0  0
  6  7  1  0  0  0  0
  6  8  2  0  0  0  0
  9  8  1  0  0  0  0
  9  2  2  0  0  0  0
 10  6  1  0  0  0  0
 11  9  1  0  0  0  0
 13 12  1  0  0  0  0
 13 16  1  1  0  0  0
 14 15  1  1  0  0  0
 14 13  1  0  0  0  0
 14 12  1  0  0  0  0
 16 18  1  0  0  0  0
 18 17  1  1  0  0  0
 18 19  1  0  0  0  0
 19 21  1  0  0  0  0
 20 26  1  0  0  0  0
 20 21  1  0  0  0  0
 21 25  1  0  0  0  0
 22 25  1  0  0  0  0
 25 24  2  0  0  0  0
 26 23  1  1  0  0  0
 26 22  1  0  0  0  0
 28 27  1  0  0  0  0
 29 31  1  0  0  0  0
 29 30  1  0  0  0  0
 30 28  1  6  0  0  0
 31 32  1  6  0  0  0
 31 30  1  0  0  0  0
 32 33  1  6  0  0  0
 32 37  1  0  0  0  0
 35 37  2  0  0  0  0
 36 37  2  0  0  0  0
 37 34  1  0  0  0  0
M  END
>  <MODEL>
4

>  <REMARK>
 VINA RESULT:      -7.6      1.523      1.969
  Name = 
  10 active torsions:
  status: ('A' for Active; 'I' for Inactive)
    1  A    between atoms: C_2  and  S_30
    2  A    between atoms: C_2  and  C_33
    3  A    between atoms: C_3  and  C_11
    4  A    between atoms: C_5  and  C_22
    5  A    between atoms: N_6  and  C_13
    6  A    between atoms: C_11  and  N_27
    7  A    between atoms: C_12  and  C_15
    8  A    between atoms: C_13  and  C_36
    9  A    between atoms: C_15  and  C_36
   10  A    between atoms: N_27  and  C_29
                            x       y       z     vdW  Elec       q    Type
                         _______ _______ _______ _____ _____    ______ ____

>  <TORSDO>
F 10

$$$$
=
 OpenBabel11042423073D

 37 41  0  0  1  0  0  0  0  0999 V2000
  161.2520  207.4250  151.6230 C   0  0  0  0  0  0  0  0  0  0  0  0
  161.1370  206.4400  150.6090 C   0  0  0  0  0  0  0  0  0  0  0  0
  161.0720  203.4010  152.7040 N   0  0  0  0  0  0  0  0  0  0  0  0
  161.2070  205.6990  153.3330 C   0  0  0  0  0  3  0  0  0  0  0  0
  161.2780  207.0440  152.9700 C   0  0  0  0  0  3  0  0  0  0  0  0
  160.9260  202.7180  150.4610 C   0  0  0  0  0  0  0  0  0  0  0  0
  160.8300  201.6210  149.4630 C   0  0  0  0  0  1  0  0  0  0  0  0
  160.9770  204.0490  150.0400 C   0  0  0  0  0  3  0  0  0  0  0  0
  161.0750  205.0740  150.9860 C   0  0  0  0  0  0  0  0  0  0  0  0
  160.9830  202.4320  151.7890 N   0  0  0  0  0  0  0  0  0  0  0  0
  161.1120  204.7160  152.3510 C   0  0  0  0  0  0  0  0  0  0  0  0
  161.9450  208.0770  148.8020 C   0  0  0  0  0  2  0  0  0  0  0  0
  162.4580  206.7140  148.3650 C   0  0  1  0  0  3  0  0  0  0  0  0
  161.1540  206.8350  149.1480 C   0  0  1  0  0  0  0  0  0  0  0  0
  159.9620  206.7120  148.4310 O   0  0  0  0  0  1  0  0  0  0  0  0
  162.2180  206.5440  146.8700 C   0  0  0  0  0  2  0  0  0  0  0  0
  163.4570  204.7030  145.9520 O   0  0  0  0  0  1  0  0  0  0  0  0
  162.2060  205.0730  146.4490 C   0  0  2  0  0  3  0  0  0  0  0  0
  161.1270  204.7770  145.4120 C   0  0  0  0  0  2  0  0  0  0  0  0
  161.6660  202.4100  145.9800 N   0  0  0  0  0  2  0  0  0  0  0  0
  160.8520  203.3530  145.3410 N   0  0  0  0  0  0  0  0  0  0  0  0
  159.7570  201.3210  144.8860 C   0  0  0  0  0  2  0  0  0  0  0  0
  160.8310  200.3120  146.9130 C   0  0  0  0  0  1  0  0  0  0  0  0
  158.9500  203.3930  143.9230 N   0  0  0  0  0  2  0  0  0  0  0  0
  159.6990  202.7790  144.7770 C   0  0  0  0  0  0  0  0  0  0  0  0
  161.0750  201.1070  145.6420 C   0  0  2  0  0  3  0  0  0  0  0  0
  161.3710  208.8790  151.3060 C   0  0  0  0  0  2  0  0  0  0  0  0
  161.9740  209.5770  152.4270 N   0  0  0  0  0  2  0  0  0  0  0  0
  159.7640  210.5020  152.8460 C   0  0  0  0  0  2  0  0  0  0  0  0
  161.2290  210.8200  152.5990 C   0  0  1  0  0  3  0  0  0  0  0  0
  160.6270  210.9670  154.0060 C   0  0  2  0  0  3  0  0  0  0  0  0
  160.9340  209.8030  154.9430 C   0  0  2  0  0  3  0  0  0  0  0  0
  159.7480  209.3260  155.5030 O   0  0  0  0  0  1  0  0  0  0  0  0
  161.2550  211.6570  157.1550 C   0  0  0  0  0  1  0  0  0  0  0  0
  163.3200  210.8420  155.6540 O   0  0  0  0  0  0  0  0  0  0  0  0
  162.3210  209.2000  157.1820 O   0  0  0  0  0  0  0  0  0  0  0  0
  162.0300  210.3420  156.2470 S   0  0  0  0  0  0  0  0  0  0  0  0
  1  5  1  0  0  0  0
  2  9  1  0  0  0  0
  2  1  2  0  0  0  0
  5  4  2  0  0  0  0
  6 10  1  0  0  0  0
  7  6  1  0  0  0  0
  8  6  2  0  0  0  0
  8  9  1  0  0  0  0
  9 11  2  0  0  0  0
 10  3  2  0  0  0  0
 11  3  1  0  0  0  0
 11  4  1  0  0  0  0
 12 14  1  0  0  0  0
 13 16  1  6  0  0  0
 13 12  1  0  0  0  0
 13 14  1  0  0  0  0
 14 15  1  6  0  0  0
 14  2  1  0  0  0  0
 18 17  1  6  0  0  0
 18 16  1  0  0  0  0
 19 18  1  0  0  0  0
 21 19  1  0  0  0  0
 21 20  1  0  0  0  0
 22 26  1  0  0  0  0
 24 25  2  0  0  0  0
 25 22  1  0  0  0  0
 25 21  1  0  0  0  0
 26 20  1  0  0  0  0
 26 23  1  1  0  0  0
 27  1  1  0  0  0  0
 27 28  1  0  0  0  0
 29 31  1  0  0  0  0
 30 28  1  1  0  0  0
 30 29  1  0  0  0  0
 30 31  1  0  0  0  0
 31 32  1  1  0  0  0
 32 33  1  1  0  0  0
 32 37  1  0  0  0  0
 35 37  2  0  0  0  0
 37 34  1  0  0  0  0
 37 36  2  0  0  0  0
M  END
>  <MODEL>
5

>  <REMARK>
 VINA RESULT:      -7.5      3.744      8.240
  Name = 
  10 active torsions:
  status: ('A' for Active; 'I' for Inactive)
    1  A    between atoms: C_2  and  S_30
    2  A    between atoms: C_2  and  C_33
    3  A    between atoms: C_3  and  C_11
    4  A    between atoms: C_5  and  C_22
    5  A    between atoms: N_6  and  C_13
    6  A    between atoms: C_11  and  N_27
    7  A    between atoms: C_12  and  C_15
    8  A    between atoms: C_13  and  C_36
    9  A    between atoms: C_15  and  C_36
   10  A    between atoms: N_27  and  C_29
                            x       y       z     vdW  Elec       q    Type
                         _______ _______ _______ _____ _____    ______ ____

>  <TORSDO>
F 10

$$$$
=
 OpenBabel11042423073D

 37 41  0  0  1  0  0  0  0  0999 V2000
  161.8970  209.5580  150.0380 C   0  0  0  0  0  0  0  0  0  0  0  0
  161.7660  208.1490  150.1220 C   0  0  0  0  0  0  0  0  0  0  0  0
  161.0510  207.8100  153.7280 N   0  0  0  0  0  0  0  0  0  0  0  0
  161.4230  209.7650  152.4120 C   0  0  0  0  0  3  0  0  0  0  0  0
  161.7170  210.3480  151.1790 C   0  0  0  0  0  3  0  0  0  0  0  0
  161.0710  205.6500  152.8020 C   0  0  0  0  0  0  0  0  0  0  0  0
  160.9420  204.1800  152.9850 C   0  0  0  0  0  1  0  0  0  0  0  0
  161.3490  206.1800  151.5410 C   0  0  0  0  0  3  0  0  0  0  0  0
  161.4770  207.5630  151.3800 C   0  0  0  0  0  0  0  0  0  0  0  0
  160.9360  206.4860  153.8660 N   0  0  0  0  0  0  0  0  0  0  0  0
  161.3090  208.3810  152.5190 C   0  0  0  0  0  0  0  0  0  0  0  0
  161.5290  205.8470  149.0070 C   0  0  0  0  0  2  0  0  0  0  0  0
  160.8020  206.8150  148.0860 C   0  0  1  0  0  3  0  0  0  0  0  0
  162.0030  207.2810  148.9050 C   0  0  1  0  0  0  0  0  0  0  0  0
  163.2190  207.4220  148.2360 O   0  0  0  0  0  1  0  0  0  0  0  0
  161.1760  206.5060  146.6410 C   0  0  0  0  0  2  0  0  0  0  0  0
  163.0080  205.2740  145.6950 O   0  0  0  0  0  1  0  0  0  0  0  0
  161.8740  205.1520  146.5000 C   0  0  2  0  0  3  0  0  0  0  0  0
  160.9480  204.0800  145.9340 C   0  0  0  0  0  2  0  0  0  0  0  0
  161.4530  202.8570  148.0470 N   0  0  0  0  0  2  0  0  0  0  0  0
  161.0330  202.8560  146.7120 N   0  0  0  0  0  0  0  0  0  0  0  0
  160.8210  200.5960  147.3280 C   0  0  0  0  0  2  0  0  0  0  0  0
  160.6200  201.2910  149.7280 C   0  0  0  0  0  1  0  0  0  0  0  0
  160.3980  201.2900  145.0460 N   0  0  0  0  0  2  0  0  0  0  0  0
  160.5780  201.5950  146.2870 C   0  0  0  0  0  0  0  0  0  0  0  0
  161.4310  201.4440  148.4530 C   0  0  2  0  0  3  0  0  0  0  0  0
  162.2470  210.2480  148.7600 C   0  0  0  0  0  2  0  0  0  0  0  0
  161.1300  211.0640  148.3210 N   0  0  0  0  0  2  0  0  0  0  0  0
  162.2870  212.7610  147.0180 C   0  0  0  0  0  2  0  0  0  0  0  0
  161.5900  212.4490  148.3320 C   0  0  1  0  0  3  0  0  0  0  0  0
  160.8970  213.3180  147.2700 C   0  0  2  0  0  3  0  0  0  0  0  0
  159.8630  212.5740  146.4300 C   0  0  2  0  0  3  0  0  0  0  0  0
  160.2280  212.6260  145.0830 O   0  0  0  0  0  1  0  0  0  0  0  0
  158.2630  214.3300  148.0990 C   0  0  0  0  0  1  0  0  0  0  0  0
  157.2080  212.2500  146.7790 O   0  0  0  0  0  0  0  0  0  0  0  0
  157.9270  214.1820  145.4460 O   0  0  0  0  0  0  0  0  0  0  0  0
  158.2540  213.3230  146.6370 S   0  0  0  0  0  0  0  0  0  0  0  0
  1  2  2  0  0  0  0
  1  5  1  0  0  0  0
  2  9  1  0  0  0  0
  3 10  1  0  0  0  0
  4 11  1  0  0  0  0
  5  4  2  0  0  0  0
  6  7  1  0  0  0  0
  6 10  2  0  0  0  0
  8  6  1  0  0  0  0
  9  8  2  0  0  0  0
  9 11  1  0  0  0  0
 11  3  2  0  0  0  0
 13 16  1  6  0  0  0
 13 14  1  0  0  0  0
 13 12  1  0  0  0  0
 14 15  1  6  0  0  0
 14 12  1  0  0  0  0
 14  2  1  0  0  0  0
 18 17  1  6  0  0  0
 18 16  1  0  0  0  0
 19 18  1  0  0  0  0
 19 21  1  0  0  0  0
 20 26  1  0  0  0  0
 21 20  1  0  0  0  0
 22 26  1  0  0  0  0
 24 25  2  0  0  0  0
 25 21  1  0  0  0  0
 25 22  1  0  0  0  0
 26 23  1  1  0  0  0
 27  1  1  0  0  0  0
 28 27  1  0  0  0  0
 29 31  1  0  0  0  0
 29 30  1  0  0  0  0
 30 28  1  6  0  0  0
 31 32  1  6  0  0  0
 31 30  1  0  0  0  0
 32 33  1  6  0  0  0
 32 37  1  0  0  0  0
 36 37  2  0  0  0  0
 37 35  2  0  0  0  0
 37 34  1  0  0  0  0
M  END
>  <MODEL>
6

>  <REMARK>
 VINA RESULT:      -7.3      2.631      6.877
  Name = 
  10 active torsions:
  status: ('A' for Active; 'I' for Inactive)
    1  A    between atoms: C_2  and  S_30
    2  A    between atoms: C_2  and  C_33
    3  A    between atoms: C_3  and  C_11
    4  A    between atoms: C_5  and  C_22
    5  A    between atoms: N_6  and  C_13
    6  A    between atoms: C_11  and  N_27
    7  A    between atoms: C_12  and  C_15
    8  A    between atoms: C_13  and  C_36
    9  A    between atoms: C_15  and  C_36
   10  A    between atoms: N_27  and  C_29
                            x       y       z     vdW  Elec       q    Type
                         _______ _______ _______ _____ _____    ______ ____

>  <TORSDO>
F 10

$$$$
=
 OpenBabel11042423073D

 37 41  0  0  1  0  0  0  0  0999 V2000
  161.5310  206.5050  151.5670 C   0  0  0  0  0  0  0  0  0  0  0  0
  161.5300  206.0210  150.2350 C   0  0  0  0  0  0  0  0  0  0  0  0
  160.6100  202.5000  150.8560 N   0  0  0  0  0  0  0  0  0  0  0  0
  160.8830  204.3110  152.3860 C   0  0  0  0  0  3  0  0  0  0  0  0
  161.2020  205.6480  152.6240 C   0  0  0  0  0  3  0  0  0  0  0  0
  160.8980  202.7590  148.5380 C   0  0  0  0  0  0  0  0  0  0  0  0
  160.8970  202.1640  147.1760 C   0  0  0  0  0  1  0  0  0  0  0  0
  161.2080  204.1090  148.7160 C   0  0  0  0  0  3  0  0  0  0  0  0
  161.2140  204.6590  150.0020 C   0  0  0  0  0  0  0  0  0  0  0  0
  160.6130  201.9890  149.6220 N   0  0  0  0  0  0  0  0  0  0  0  0
  160.8940  203.8120  151.0860 C   0  0  0  0  0  0  0  0  0  0  0  0
  160.8310  207.2820  148.1080 C   0  0  0  0  0  2  0  0  0  0  0  0
  161.3790  208.3480  149.0440 C   0  0  1  0  0  3  0  0  0  0  0  0
  161.9280  206.9250  149.0880 C   0  0  1  0  0  0  0  0  0  0  0  0
  163.1660  206.6970  148.4840 O   0  0  0  0  0  1  0  0  0  0  0  0
  162.2810  209.2890  148.2560 C   0  0  0  0  0  2  0  0  0  0  0  0
  162.3390  210.7210  150.1830 O   0  0  0  0  0  1  0  0  0  0  0  0
  162.2320  210.7220  148.7910 C   0  0  2  0  0  3  0  0  0  0  0  0
  160.9620  211.4540  148.3680 C   0  0  0  0  0  2  0  0  0  0  0  0
  162.5030  212.8390  146.9810 N   0  0  0  0  0  2  0  0  0  0  0  0
  161.2230  212.3400  147.2470 N   0  0  0  0  0  0  0  0  0  0  0  0
  160.9020  213.5790  145.2730 C   0  0  0  0  0  2  0  0  0  0  0  0
  163.3330  213.3040  144.7300 C   0  0  0  0  0  1  0  0  0  0  0  0
  159.0170  212.5510  146.3960 N   0  0  0  0  0  2  0  0  0  0  0  0
  160.2940  212.6680  146.2430 C   0  0  0  0  0  0  0  0  0  0  0  0
  162.3370  213.7040  145.8040 C   0  0  2  0  0  3  0  0  0  0  0  0
  161.8990  207.9130  151.9000 C   0  0  0  0  0  2  0  0  0  0  0  0
  160.7630  208.5890  152.5000 N   0  0  0  0  0  2  0  0  0  0  0  0
  161.9990  210.3280  153.6640 C   0  0  0  0  0  2  0  0  0  0  0  0
  161.1930  209.0500  153.8160 C   0  0  1  0  0  3  0  0  0  0  0  0
  160.5820  210.4060  154.2040 C   0  0  2  0  0  3  0  0  0  0  0  0
  159.6430  210.9930  153.1540 C   0  0  2  0  0  3  0  0  0  0  0  0
  160.3680  211.7960  152.2730 O   0  0  0  0  0  1  0  0  0  0  0  0
  159.1030  212.8970  155.2780 C   0  0  0  0  0  1  0  0  0  0  0  0
  157.3030  211.0730  154.4940 O   0  0  0  0  0  0  0  0  0  0  0  0
  157.7690  212.9290  152.9550 O   0  0  0  0  0  0  0  0  0  0  0  0
  158.3770  211.9740  153.9460 S   0  0  0  0  0  0  0  0  0  0  0  0
  1 27  1  0  0  0  0
  1  5  1  0  0  0  0
  2  1  2  0  0  0  0
  3 11  1  0  0  0  0
  4  5  2  0  0  0  0
  6  8  2  0  0  0  0
  6 10  1  0  0  0  0
  7  6  1  0  0  0  0
  8  9  1  0  0  0  0
  9  2  1  0  0  0  0
  9 11  2  0  0  0  0
 10  3  2  0  0  0  0
 11  4  1  0  0  0  0
 12 13  1  0  0  0  0
 12 14  1  0  0  0  0
 13 16  1  6  0  0  0
 13 14  1  0  0  0  0
 14 15  1  6  0  0  0
 14  2  1  0  0  0  0
 16 18  1  0  0  0  0
 18 17  1  1  0  0  0
 19 18  1  0  0  0  0
 20 21  1  0  0  0  0
 21 19  1  0  0  0  0
 22 26  1  0  0  0  0
 22 25  1  0  0  0  0
 25 24  2  0  0  0  0
 25 21  1  0  0  0  0
 26 23  1  6  0  0  0
 26 20  1  0  0  0  0
 27 28  1  0  0  0  0
 29 30  1  0  0  0  0
 29 31  1  0  0  0  0
 30 28  1  6  0  0  0
 30 31  1  0  0  0  0
 31 32  1  6  0  0  0
 32 33  1  6  0  0  0
 32 37  1  0  0  0  0
 36 37  2  0  0  0  0
 37 35  2  0  0  0  0
 37 34  1  0  0  0  0
M  END
>  <MODEL>
7

>  <REMARK>
 VINA RESULT:      -7.3      2.742      5.837
  Name = 
  10 active torsions:
  status: ('A' for Active; 'I' for Inactive)
    1  A    between atoms: C_2  and  S_30
    2  A    between atoms: C_2  and  C_33
    3  A    between atoms: C_3  and  C_11
    4  A    between atoms: C_5  and  C_22
    5  A    between atoms: N_6  and  C_13
    6  A    between atoms: C_11  and  N_27
    7  A    between atoms: C_12  and  C_15
    8  A    between atoms: C_13  and  C_36
    9  A    between atoms: C_15  and  C_36
   10  A    between atoms: N_27  and  C_29
                            x       y       z     vdW  Elec       q    Type
                         _______ _______ _______ _____ _____    ______ ____

>  <TORSDO>
F 10

$$$$
=
 OpenBabel11042423073D

 37 41  0  0  1  0  0  0  0  0999 V2000
  161.3470  205.2860  152.3270 C   0  0  0  0  0  0  0  0  0  0  0  0
  161.5370  205.4970  150.9380 C   0  0  0  0  0  0  0  0  0  0  0  0
  160.6090  202.1550  149.6740 N   0  0  0  0  0  0  0  0  0  0  0  0
  160.6340  203.0020  151.9040 C   0  0  0  0  0  3  0  0  0  0  0  0
  160.8920  204.0470  152.7920 C   0  0  0  0  0  3  0  0  0  0  0  0
  161.2050  203.4730  147.8220 C   0  0  0  0  0  0  0  0  0  0  0  0
  161.4020  203.5990  146.3540 C   0  0  0  0  0  1  0  0  0  0  0  0
  161.4620  204.5580  148.6620 C   0  0  0  0  0  3  0  0  0  0  0  0
  161.2820  204.4270  150.0430 C   0  0  0  0  0  0  0  0  0  0  0  0
  160.7900  202.2940  148.3580 N   0  0  0  0  0  0  0  0  0  0  0  0
  160.8330  203.1830  150.5380 C   0  0  0  0  0  0  0  0  0  0  0  0
  161.4520  207.3350  149.1460 C   0  0  0  0  0  2  0  0  0  0  0  0
  161.1640  208.0440  150.4600 C   0  0  1  0  0  3  0  0  0  0  0  0
  162.0710  206.8180  150.4260 C   0  0  1  0  0  0  0  0  0  0  0  0
  163.4470  207.0350  150.5110 O   0  0  0  0  0  1  0  0  0  0  0  0
  161.9570  209.3440  150.5110 C   0  0  0  0  0  2  0  0  0  0  0  0
  162.7050  209.7240  148.2610 O   0  0  0  0  0  1  0  0  0  0  0  0
  161.8030  210.1670  149.2310 C   0  0  2  0  0  3  0  0  0  0  0  0
  161.9950  211.6610  149.4750 C   0  0  0  0  0  2  0  0  0  0  0  0
  161.0990  212.2910  147.2350 N   0  0  0  0  0  2  0  0  0  0  0  0
  161.1130  212.4430  148.6270 N   0  0  0  0  0  0  0  0  0  0  0  0
  159.4100  213.9210  147.9560 C   0  0  0  0  0  2  0  0  0  0  0  0
  159.0970  212.5770  145.8640 C   0  0  0  0  0  1  0  0  0  0  0  0
  160.0830  213.7990  150.2800 N   0  0  0  0  0  2  0  0  0  0  0  0
  160.1000  213.3030  149.0880 C   0  0  0  0  0  0  0  0  0  0  0  0
  160.1120  213.2690  146.7560 C   0  0  2  0  0  3  0  0  0  0  0  0
  161.6390  206.3470  153.3370 C   0  0  0  0  0  2  0  0  0  0  0  0
  160.4550  207.1600  153.5510 N   0  0  0  0  0  2  0  0  0  0  0  0
  161.5840  207.9680  155.5470 C   0  0  0  0  0  2  0  0  0  0  0  0
  160.3190  207.3350  154.9930 C   0  0  1  0  0  3  0  0  0  0  0  0
  160.3290  208.8130  155.4190 C   0  0  2  0  0  3  0  0  0  0  0  0
  160.4640  209.7970  154.2620 C   0  0  2  0  0  3  0  0  0  0  0  0
  161.7660  210.2970  154.2200 O   0  0  0  0  0  1  0  0  0  0  0  0
  158.6740  211.6250  152.8890 C   0  0  0  0  0  1  0  0  0  0  0  0
  160.0240  212.3250  155.0940 O   0  0  0  0  0  0  0  0  0  0  0  0
  158.1790  210.7280  155.3640 O   0  0  0  0  0  0  0  0  0  0  0  0
  159.3170  211.1510  154.4740 S   0  0  0  0  0  0  0  0  0  0  0  0
  1  5  1  0  0  0  0
  1 27  1  0  0  0  0
  2  1  2  0  0  0  0
  3 11  1  0  0  0  0
  4  5  2  0  0  0  0
  6 10  1  0  0  0  0
  6  8  2  0  0  0  0
  7  6  1  0  0  0  0
  8  9  1  0  0  0  0
  9 11  2  0  0  0  0
  9  2  1  0  0  0  0
 10  3  2  0  0  0  0
 11  4  1  0  0  0  0
 12 14  1  0  0  0  0
 12 13  1  0  0  0  0
 13 16  1  6  0  0  0
 14 13  1  0  0  0  0
 14 15  1  1  0  0  0
 14  2  1  0  0  0  0
 18 17  1  6  0  0  0
 18 19  1  0  0  0  0
 18 16  1  0  0  0  0
 20 21  1  0  0  0  0
 21 25  1  0  0  0  0
 21 19  1  0  0  0  0
 22 25  1  0  0  0  0
 25 24  2  0  0  0  0
 26 23  1  6  0  0  0
 26 20  1  0  0  0  0
 26 22  1  0  0  0  0
 27 28  1  0  0  0  0
 30 28  1  6  0  0  0
 30 31  1  0  0  0  0
 30 29  1  0  0  0  0
 31 32  1  6  0  0  0
 31 29  1  0  0  0  0
 32 33  1  1  0  0  0
 32 37  1  0  0  0  0
 34 37  1  0  0  0  0
 37 35  2  0  0  0  0
 37 36  2  0  0  0  0
M  END
>  <MODEL>
8

>  <REMARK>
 VINA RESULT:      -7.3      2.653      5.781
  Name = 
  10 active torsions:
  status: ('A' for Active; 'I' for Inactive)
    1  A    between atoms: C_2  and  S_30
    2  A    between atoms: C_2  and  C_33
    3  A    between atoms: C_3  and  C_11
    4  A    between atoms: C_5  and  C_22
    5  A    between atoms: N_6  and  C_13
    6  A    between atoms: C_11  and  N_27
    7  A    between atoms: C_12  and  C_15
    8  A    between atoms: C_13  and  C_36
    9  A    between atoms: C_15  and  C_36
   10  A    between atoms: N_27  and  C_29
                            x       y       z     vdW  Elec       q    Type
                         _______ _______ _______ _____ _____    ______ ____

>  <TORSDO>
F 10

$$$$
=
 OpenBabel11042423073D

 37 41  0  0  1  0  0  0  0  0999 V2000
  161.1980  206.9400  152.6220 C   0  0  0  0  0  0  0  0  0  0  0  0
  161.5020  206.1190  151.5070 C   0  0  0  0  0  0  0  0  0  0  0  0
  161.6050  208.6890  148.8580 N   0  0  0  0  0  0  0  0  0  0  0  0
  161.2100  208.9110  151.2000 C   0  0  0  0  0  3  0  0  0  0  0  0
  161.0630  208.3240  152.4580 C   0  0  0  0  0  3  0  0  0  0  0  0
  162.0430  206.6120  147.8490 C   0  0  0  0  0  0  0  0  0  0  0  0
  162.3360  205.8240  146.6230 C   0  0  0  0  0  1  0  0  0  0  0  0
  161.9250  205.9730  149.0850 C   0  0  0  0  0  3  0  0  0  0  0  0
  161.6410  206.7220  150.2310 C   0  0  0  0  0  0  0  0  0  0  0  0
  161.8720  207.9590  147.7710 N   0  0  0  0  0  0  0  0  0  0  0  0
  161.4900  208.1190  150.0900 C   0  0  0  0  0  0  0  0  0  0  0  0
  160.4530  203.9390  152.3710 C   0  0  0  0  0  2  0  0  0  0  0  0
  160.6490  203.7260  150.8780 C   0  0  1  0  0  3  0  0  0  0  0  0
  161.6070  204.6170  151.6630 C   0  0  1  0  0  0  0  0  0  0  0  0
  162.8550  204.0860  151.9910 O   0  0  0  0  0  1  0  0  0  0  0  0
  161.2220  202.3330  150.6430 C   0  0  0  0  0  2  0  0  0  0  0  0
  159.6370  200.5780  150.2270 O   0  0  0  0  0  1  0  0  0  0  0  0
  160.4230  201.5470  149.6010 C   0  0  2  0  0  3  0  0  0  0  0  0
  161.3220  200.8920  148.5570 C   0  0  0  0  0  2  0  0  0  0  0  0
  160.2350  202.3780  146.8760 N   0  0  0  0  0  2  0  0  0  0  0  0
  160.8380  201.1610  147.2140 N   0  0  0  0  0  0  0  0  0  0  0  0
  160.4230  200.9180  144.9110 C   0  0  0  0  0  2  0  0  0  0  0  0
  160.4190  203.4130  144.6700 C   0  0  0  0  0  1  0  0  0  0  0  0
  161.3330  199.0760  146.1950 N   0  0  0  0  0  2  0  0  0  0  0  0
  161.0450  200.3310  146.0980 C   0  0  0  0  0  0  0  0  0  0  0  0
  159.8660  202.2390  145.4590 C   0  0  2  0  0  3  0  0  0  0  0  0
  160.9900  206.3770  153.9890 C   0  0  0  0  0  2  0  0  0  0  0  0
  161.2940  207.3860  154.9870 N   0  0  0  0  0  2  0  0  0  0  0  0
  160.5170  208.0770  157.1850 C   0  0  0  0  0  2  0  0  0  0  0  0
  160.1130  207.5080  155.8360 C   0  0  1  0  0  3  0  0  0  0  0  0
  159.7840  208.9660  156.1970 C   0  0  2  0  0  3  0  0  0  0  0  0
  160.7380  209.9910  155.5920 C   0  0  2  0  0  3  0  0  0  0  0  0
  161.6890  210.3650  156.5420 O   0  0  0  0  0  1  0  0  0  0  0  0
  160.2650  211.8200  153.3870 C   0  0  0  0  0  1  0  0  0  0  0  0
  160.1730  212.6050  155.9480 O   0  0  0  0  0  0  0  0  0  0  0  0
  158.3490  211.1710  155.1420 O   0  0  0  0  0  0  0  0  0  0  0  0
  159.8280  211.4360  155.0640 S   0  0  0  0  0  0  0  0  0  0  0  0
  1 27  1  0  0  0  0
  2 14  1  0  0  0  0
  2  1  2  0  0  0  0
  3 11  1  0  0  0  0
  4  5  2  0  0  0  0
  5  1  1  0  0  0  0
  6  8  2  0  0  0  0
  7  6  1  0  0  0  0
  8  9  1  0  0  0  0
  9  2  1  0  0  0  0
 10  6  1  0  0  0  0
 10  3  2  0  0  0  0
 11  9  2  0  0  0  0
 11  4  1  0  0  0  0
 13 16  1  1  0  0  0
 13 14  1  0  0  0  0
 13 12  1  0  0  0  0
 14 15  1  1  0  0  0
 14 12  1  0  0  0  0
 18 17  1  1  0  0  0
 18 16  1  0  0  0  0
 19 18  1  0  0  0  0
 20 21  1  0  0  0  0
 21 19  1  0  0  0  0
 22 26  1  0  0  0  0
 22 25  1  0  0  0  0
 25 24  2  0  0  0  0
 25 21  1  0  0  0  0
 26 23  1  6  0  0  0
 26 20  1  0  0  0  0
 27 28  1  0  0  0  0
 30 28  1  6  0  0  0
 30 31  1  0  0  0  0
 30 29  1  0  0  0  0
 31 32  1  6  0  0  0
 31 29  1  0  0  0  0
 32 33  1  1  0  0  0
 34 37  1  0  0  0  0
 37 36  2  0  0  0  0
 37 32  1  0  0  0  0
 37 35  2  0  0  0  0
M  END
>  <MODEL>
9

>  <REMARK>
 VINA RESULT:      -7.1      3.842      8.382
  Name = 
  10 active torsions:
  status: ('A' for Active; 'I' for Inactive)
    1  A    between atoms: C_2  and  S_30
    2  A    between atoms: C_2  and  C_33
    3  A    between atoms: C_3  and  C_11
    4  A    between atoms: C_5  and  C_22
    5  A    between atoms: N_6  and  C_13
    6  A    between atoms: C_11  and  N_27
    7  A    between atoms: C_12  and  C_15
    8  A    between atoms: C_13  and  C_36
    9  A    between atoms: C_15  and  C_36
   10  A    between atoms: N_27  and  C_29
                            x       y       z     vdW  Elec       q    Type
                         _______ _______ _______ _____ _____    ______ ____

>  <TORSDO>
F 10

$$$$
