=
 OpenBabel11042420443D

 27 31  0  0  1  0  0  0  0  0999 V2000
  162.7290  205.4520  145.9000 C   0  0  0  0  0  2  0  0  0  0  0  0
  160.4450  202.5450  148.7850 C   0  0  0  0  0  3  0  0  0  0  0  0
  160.5090  205.7750  148.9630 C   0  0  2  0  0  3  0  0  0  0  0  0
  161.0720  203.8880  146.7650 C   0  0  2  0  0  3  0  0  0  0  0  0
  161.8510  204.9840  144.7680 C   0  0  0  0  0  2  0  0  0  0  0  0
  161.9360  205.0460  150.9020 C   0  0  2  0  0  3  0  0  0  0  0  0
  161.5320  207.9620  149.3050 C   0  0  1  0  0  3  0  0  0  0  0  0
  161.1540  201.4700  146.8260 O   0  0  0  0  0  1  0  0  0  0  0  0
  161.1140  205.9340  151.7890 C   0  0  0  0  0  0  0  0  0  0  0  0
  161.3440  202.6240  147.5890 C   0  0  2  0  0  3  0  0  0  0  0  0
  161.3020  206.1320  147.7790 N   0  0  1  0  0  0  0  0  0  0  0  0
  161.1020  205.7870  153.2750 C   0  0  0  0  0  1  0  0  0  0  0  0
  162.2530  207.1230  148.2670 C   0  0  0  0  0  2  0  0  0  0  0  0
  160.3810  203.4520  149.7590 C   0  0  0  0  0  3  0  0  0  0  0  0
  160.3860  206.8430  151.2350 N   0  0  0  0  0  0  0  0  0  0  0  0
  160.3820  207.0730  149.7930 C   0  0  2  0  0  3  0  0  0  0  0  0
  161.1220  204.6780  149.7390 N   0  0  0  0  0  0  0  0  0  0  0  0
  161.2700  203.6850  145.2710 C   0  0  0  0  0  2  0  0  0  0  0  0
  162.0350  205.0060  147.1830 C   0  0  2  0  0  3  0  0  0  0  0  0
  162.5630  203.8480  151.6070 C   0  0  0  0  0  2  0  0  0  0  0  0
  161.5010  202.8530  151.9430 C   0  0  0  0  0  3  0  0  0  0  0  0
  161.7700  201.6020  151.9150 N   0  0  0  0  0  2  0  0  0  0  0  0
  162.5040  208.4260  150.3860 C   0  0  0  0  0  2  0  0  0  0  0  0
  162.6600  210.0390  152.2480 C   0  0  0  0  0  2  0  0  0  0  0  0
  160.4300  211.0820  152.0530 C   0  0  0  0  0  1  0  0  0  0  0  0
  162.1790  209.8400  150.8280 C   0  0  2  0  0  3  0  0  0  0  0  0
  161.1950  209.7740  151.9730 C   0  0  1  0  0  3  0  0  0  0  0  0
  2 14  2  0  0  0  0
  3 17  1  1  0  0  0
  3 16  1  0  0  0  0
  4 18  1  6  0  0  0
  4 19  1  0  0  0  0
  4 10  1  0  0  0  0
  5 18  1  0  0  0  0
  5  1  1  0  0  0  0
  6 20  1  1  0  0  0
  6  9  1  0  0  0  0
  7 16  1  0  0  0  0
  7 23  1  1  0  0  0
  9 12  1  0  0  0  0
 10  8  1  6  0  0  0
 10  2  1  0  0  0  0
 11 13  1  1  0  0  0
 11  3  1  0  0  0  0
 13  7  1  0  0  0  0
 15  9  2  0  0  0  0
 16 15  1  1  0  0  0
 17 14  1  0  0  0  0
 17  6  1  0  0  0  0
 19  1  1  6  0  0  0
 19 11  1  0  0  0  0
 20 21  1  0  0  0  0
 22 21  2  0  0  0  0
 26 23  1  1  0  0  0
 26 27  1  0  0  0  0
 26 24  1  0  0  0  0
 27 25  1  6  0  0  0
 27 24  1  0  0  0  0
M  END
>  <MODEL>
1

>  <REMARK>
 VINA RESULT:      -6.0      0.000      0.000
  Name = 
  4 active torsions:
  status: ('A' for Active; 'I' for Inactive)
    1  A    between atoms: C_5  and  C_8
    2  A    between atoms: C_8  and  C_9
    3  A    between atoms: C_10  and  C_18
    4  A    between atoms: C_18  and  C_20
                            x       y       z     vdW  Elec       q    Type
                         _______ _______ _______ _____ _____    ______ ____

>  <TORSDO>
F 4

$$$$
=
 OpenBabel11042420443D

 27 31  0  0  1  0  0  0  0  0999 V2000
  159.7600  202.2700  149.9850 C   0  0  0  0  0  2  0  0  0  0  0  0
  162.3790  204.1730  146.5930 C   0  0  0  0  0  3  0  0  0  0  0  0
  162.3450  205.0380  149.7100 C   0  0  2  0  0  3  0  0  0  0  0  0
  161.5090  202.5750  148.3150 C   0  0  2  0  0  3  0  0  0  0  0  0
  160.4890  200.9660  149.7880 C   0  0  0  0  0  2  0  0  0  0  0  0
  161.1680  206.9370  148.5540 C   0  0  2  0  0  3  0  0  0  0  0  0
  161.3760  205.9580  151.7510 C   0  0  1  0  0  3  0  0  0  0  0  0
  161.4310  202.1310  145.9370 O   0  0  0  0  0  1  0  0  0  0  0  0
  162.0970  207.8850  149.2560 C   0  0  0  0  0  0  0  0  0  0  0  0
  161.3390  203.1390  146.9000 C   0  0  2  0  0  3  0  0  0  0  0  0
  161.4110  204.0620  150.2890 N   0  0  1  0  0  0  0  0  0  0  0  0
  162.2930  209.2930  148.8000 C   0  0  0  0  0  1  0  0  0  0  0  0
  160.5300  204.8610  151.1310 C   0  0  0  0  0  2  0  0  0  0  0  0
  162.5660  205.3010  147.2760 C   0  0  0  0  0  3  0  0  0  0  0  0
  162.7510  207.4510  150.2780 N   0  0  0  0  0  0  0  0  0  0  0  0
  162.5760  206.1010  150.8070 C   0  0  2  0  0  3  0  0  0  0  0  0
  161.8310  205.6320  148.4600 N   0  0  0  0  0  0  0  0  0  0  0  0
  161.1250  201.1070  148.4270 C   0  0  0  0  0  2  0  0  0  0  0  0
  160.6070  203.3340  149.2960 C   0  0  2  0  0  3  0  0  0  0  0  0
  160.6320  207.4430  147.2200 C   0  0  0  0  0  2  0  0  0  0  0  0
  159.9860  206.3190  146.4810 C   0  0  0  0  0  3  0  0  0  0  0  0
  160.0370  206.2850  145.2020 N   0  0  0  0  0  2  0  0  0  0  0  0
  160.5470  207.2230  151.9520 C   0  0  0  0  0  2  0  0  0  0  0  0
  161.8220  206.9700  154.0500 C   0  0  0  0  0  2  0  0  0  0  0  0
  160.0450  207.5460  155.6650 C   0  0  0  0  0  1  0  0  0  0  0  0
  160.7970  207.8140  153.3260 C   0  0  2  0  0  3  0  0  0  0  0  0
  160.3510  206.8160  154.3700 C   0  0  1  0  0  3  0  0  0  0  0  0
  2 10  1  0  0  0  0
  2 14  2  0  0  0  0
  3 17  1  6  0  0  0
  3 11  1  0  0  0  0
  3 16  1  0  0  0  0
  4 18  1  6  0  0  0
  4 19  1  0  0  0  0
  5  1  1  0  0  0  0
  6 20  1  6  0  0  0
  6  9  1  0  0  0  0
  7 23  1  6  0  0  0
  9 15  2  0  0  0  0
 10  8  1  6  0  0  0
 10  4  1  0  0  0  0
 11 13  1  1  0  0  0
 12  9  1  0  0  0  0
 13  7  1  0  0  0  0
 14 17  1  0  0  0  0
 16 15  1  6  0  0  0
 16  7  1  0  0  0  0
 17  6  1  0  0  0  0
 18  5  1  0  0  0  0
 19  1  1  1  0  0  0
 19 11  1  0  0  0  0
 21 20  1  0  0  0  0
 22 21  2  0  0  0  0
 24 27  1  0  0  0  0
 26 23  1  6  0  0  0
 26 24  1  0  0  0  0
 26 27  1  0  0  0  0
 27 25  1  1  0  0  0
M  END
>  <MODEL>
2

>  <REMARK>
 VINA RESULT:      -5.9      1.776      4.188
  Name = 
  4 active torsions:
  status: ('A' for Active; 'I' for Inactive)
    1  A    between atoms: C_5  and  C_8
    2  A    between atoms: C_8  and  C_9
    3  A    between atoms: C_10  and  C_18
    4  A    between atoms: C_18  and  C_20
                            x       y       z     vdW  Elec       q    Type
                         _______ _______ _______ _____ _____    ______ ____

>  <TORSDO>
F 4

$$$$
=
 OpenBabel11042420443D

 27 31  0  0  1  0  0  0  0  0999 V2000
  159.7770  202.5340  149.6730 C   0  0  0  0  0  2  0  0  0  0  0  0
  162.5810  205.5140  147.3820 C   0  0  0  0  0  3  0  0  0  0  0  0
  162.3820  205.1400  150.5900 C   0  0  2  0  0  3  0  0  0  0  0  0
  161.6140  203.4050  148.3290 C   0  0  2  0  0  3  0  0  0  0  0  0
  160.5110  201.3840  149.0330 C   0  0  0  0  0  2  0  0  0  0  0  0
  161.2760  207.3610  150.1810 C   0  0  2  0  0  3  0  0  0  0  0  0
  161.3080  205.2450  152.7770 C   0  0  1  0  0  3  0  0  0  0  0  0
  161.6620  203.8930  145.9580 O   0  0  0  0  0  1  0  0  0  0  0  0
  162.1680  207.9530  151.2330 C   0  0  0  0  0  0  0  0  0  0  0  0
  161.5220  204.4650  147.2250 C   0  0  2  0  0  3  0  0  0  0  0  0
  161.4150  204.0400  150.7110 N   0  0  1  0  0  0  0  0  0  0  0  0
  162.3940  209.4240  151.3530 C   0  0  0  0  0  1  0  0  0  0  0  0
  160.4930  204.4820  151.7490 C   0  0  0  0  0  2  0  0  0  0  0  0
  162.7340  206.2960  148.4490 C   0  0  0  0  0  3  0  0  0  0  0  0
  162.7660  207.1510  152.0470 N   0  0  0  0  0  0  0  0  0  0  0  0
  162.5580  205.7050  152.0170 C   0  0  2  0  0  3  0  0  0  0  0  0
  161.9380  206.1730  149.6330 N   0  0  0  0  0  0  0  0  0  0  0  0
  161.2200  202.0130  147.8590 C   0  0  0  0  0  2  0  0  0  0  0  0
  160.6640  203.7590  149.4790 C   0  0  2  0  0  3  0  0  0  0  0  0
  160.8140  208.3460  149.1130 C   0  0  0  0  0  2  0  0  0  0  0  0
  161.9730  209.1670  148.6540 C   0  0  0  0  0  3  0  0  0  0  0  0
  161.7940  210.3890  148.3170 N   0  0  0  0  0  2  0  0  0  0  0  0
  160.4740  206.3590  153.4010 C   0  0  0  0  0  2  0  0  0  0  0  0
  160.0120  207.1510  155.6930 C   0  0  0  0  0  2  0  0  0  0  0  0
  161.6990  208.9480  155.8370 C   0  0  0  0  0  1  0  0  0  0  0  0
  161.1040  206.8400  154.6940 C   0  0  2  0  0  3  0  0  0  0  0  0
  160.6860  208.2730  154.9320 C   0  0  1  0  0  3  0  0  0  0  0  0
  2 14  2  0  0  0  0
  3 17  1  6  0  0  0
  3 11  1  0  0  0  0
  3 16  1  0  0  0  0
  4 18  1  6  0  0  0
  4 19  1  0  0  0  0
  5  1  1  0  0  0  0
  6 20  1  6  0  0  0
  6  9  1  0  0  0  0
  7 23  1  6  0  0  0
  9 12  1  0  0  0  0
  9 15  2  0  0  0  0
 10  8  1  6  0  0  0
 10  2  1  0  0  0  0
 10  4  1  0  0  0  0
 11 13  1  1  0  0  0
 13  7  1  0  0  0  0
 14 17  1  0  0  0  0
 16 15  1  6  0  0  0
 16  7  1  0  0  0  0
 17  6  1  0  0  0  0
 18  5  1  0  0  0  0
 19  1  1  1  0  0  0
 19 11  1  0  0  0  0
 21 20  1  0  0  0  0
 22 21  2  0  0  0  0
 26 23  1  6  0  0  0
 26 27  1  0  0  0  0
 26 24  1  0  0  0  0
 27 24  1  0  0  0  0
 27 25  1  1  0  0  0
M  END
>  <MODEL>
3

>  <REMARK>
 VINA RESULT:      -5.5      1.832      4.352
  Name = 
  4 active torsions:
  status: ('A' for Active; 'I' for Inactive)
    1  A    between atoms: C_5  and  C_8
    2  A    between atoms: C_8  and  C_9
    3  A    between atoms: C_10  and  C_18
    4  A    between atoms: C_18  and  C_20
                            x       y       z     vdW  Elec       q    Type
                         _______ _______ _______ _____ _____    ______ ____

>  <TORSDO>
F 4

$$$$
=
 OpenBabel11042420443D

 27 31  0  0  1  0  0  0  0  0999 V2000
  160.8200  210.8210  151.1560 C   0  0  0  0  0  2  0  0  0  0  0  0
  157.6740  214.1710  152.0930 C   0  0  0  0  0  3  0  0  0  0  0  0
  159.6810  212.7710  154.2090 C   0  0  2  0  0  3  0  0  0  0  0  0
  159.7290  212.9980  151.2670 C   0  0  2  0  0  3  0  0  0  0  0  0
  161.5540  211.7890  150.2650 C   0  0  0  0  0  2  0  0  0  0  0  0
  157.4310  211.8200  154.8070 C   0  0  2  0  0  3  0  0  0  0  0  0
  160.5760  210.9360  155.5450 C   0  0  1  0  0  3  0  0  0  0  0  0
  158.0530  213.9330  149.7910 O   0  0  0  0  0  1  0  0  0  0  0  0
  157.6870  212.2160  156.2320 C   0  0  0  0  0  0  0  0  0  0  0  0
  158.2450  213.2950  151.0190 C   0  0  2  0  0  3  0  0  0  0  0  0
  160.4620  211.8750  153.3450 N   0  0  1  0  0  0  0  0  0  0  0  0
  156.5910  212.3210  157.2410 C   0  0  0  0  0  1  0  0  0  0  0  0
  160.4870  210.6090  154.0660 C   0  0  0  0  0  2  0  0  0  0  0  0
  157.6420  213.8720  153.3900 C   0  0  0  0  0  3  0  0  0  0  0  0
  158.8990  212.4870  156.5800 N   0  0  0  0  0  0  0  0  0  0  0  0
  160.0260  212.3630  155.6600 C   0  0  2  0  0  3  0  0  0  0  0  0
  158.2320  212.6880  153.9380 N   0  0  0  0  0  0  0  0  0  0  0  0
  160.5380  212.8690  149.9850 C   0  0  0  0  0  2  0  0  0  0  0  0
  159.8810  211.6660  152.0110 C   0  0  2  0  0  3  0  0  0  0  0  0
  155.9580  211.7650  154.4190 C   0  0  0  0  0  2  0  0  0  0  0  0
  155.4730  210.3550  154.4910 C   0  0  0  0  0  3  0  0  0  0  0  0
  154.9110  209.9280  155.5600 N   0  0  0  0  0  2  0  0  0  0  0  0
  159.8430  209.8830  156.3710 C   0  0  0  0  0  2  0  0  0  0  0  0
  159.6940  207.4210  156.4660 C   0  0  0  0  0  2  0  0  0  0  0  0
  160.9040  206.8720  154.3850 C   0  0  0  0  0  1  0  0  0  0  0  0
  159.6150  208.6260  155.5540 C   0  0  2  0  0  3  0  0  0  0  0  0
  160.8740  207.7900  155.5930 C   0  0  1  0  0  3  0  0  0  0  0  0
  2 14  2  0  0  0  0
  3 17  1  6  0  0  0
  3 16  1  0  0  0  0
  4 18  1  6  0  0  0
  4 19  1  0  0  0  0
  5  1  1  0  0  0  0
  6 20  1  6  0  0  0
  6  9  1  0  0  0  0
  7 16  1  0  0  0  0
  7 23  1  1  0  0  0
  9 15  2  0  0  0  0
  9 12  1  0  0  0  0
 10  8  1  6  0  0  0
 10  4  1  0  0  0  0
 10  2  1  0  0  0  0
 11 13  1  1  0  0  0
 11  3  1  0  0  0  0
 13  7  1  0  0  0  0
 14 17  1  0  0  0  0
 16 15  1  1  0  0  0
 17  6  1  0  0  0  0
 18  5  1  0  0  0  0
 19  1  1  6  0  0  0
 19 11  1  0  0  0  0
 20 21  1  0  0  0  0
 21 22  2  0  0  0  0
 26 27  1  0  0  0  0
 26 23  1  1  0  0  0
 26 24  1  0  0  0  0
 27 25  1  6  0  0  0
 27 24  1  0  0  0  0
M  END
>  <MODEL>
4

>  <REMARK>
 VINA RESULT:      -5.3      6.388      9.009
  Name = 
  4 active torsions:
  status: ('A' for Active; 'I' for Inactive)
    1  A    between atoms: C_5  and  C_8
    2  A    between atoms: C_8  and  C_9
    3  A    between atoms: C_10  and  C_18
    4  A    between atoms: C_18  and  C_20
                            x       y       z     vdW  Elec       q    Type
                         _______ _______ _______ _____ _____    ______ ____

>  <TORSDO>
F 4

$$$$
=
 OpenBabel11042420443D

 27 31  0  0  1  0  0  0  0  0999 V2000
  163.0220  205.0630  145.9930 C   0  0  0  0  0  2  0  0  0  0  0  0
  160.3530  202.7270  149.0610 C   0  0  0  0  0  3  0  0  0  0  0  0
  160.6300  205.9410  148.8080 C   0  0  2  0  0  3  0  0  0  0  0  0
  161.2060  203.7360  146.9320 C   0  0  2  0  0  3  0  0  0  0  0  0
  162.1910  204.4950  144.8710 C   0  0  0  0  0  2  0  0  0  0  0  0
  161.8700  205.4040  150.9300 C   0  0  2  0  0  3  0  0  0  0  0  0
  161.7790  208.0890  148.9300 C   0  0  1  0  0  3  0  0  0  0  0  0
  161.1140  201.3490  147.3240 O   0  0  0  0  0  1  0  0  0  0  0  0
  161.0540  206.4550  151.6240 C   0  0  0  0  0  0  0  0  0  0  0  0
  161.3330  202.5850  147.9370 C   0  0  2  0  0  3  0  0  0  0  0  0
  161.5240  206.0820  147.6510 N   0  0  1  0  0  0  0  0  0  0  0  0
  160.9330  206.5160  153.1110 C   0  0  0  0  0  1  0  0  0  0  0  0
  162.5070  207.0710  148.0710 C   0  0  0  0  0  2  0  0  0  0  0  0
  160.2880  203.7630  149.8960 C   0  0  0  0  0  3  0  0  0  0  0  0
  160.4310  207.3190  150.9000 N   0  0  0  0  0  0  0  0  0  0  0  0
  160.5390  207.3470  149.4440 C   0  0  2  0  0  3  0  0  0  0  0  0
  161.1120  204.9270  149.7680 N   0  0  0  0  0  0  0  0  0  0  0  0
  161.4890  203.3160  145.4980 C   0  0  0  0  0  2  0  0  0  0  0  0
  162.2140  204.8410  147.2680 C   0  0  2  0  0  3  0  0  0  0  0  0
  162.3630  204.2800  151.8350 C   0  0  0  0  0  2  0  0  0  0  0  0
  161.2070  203.6860  152.5700 C   0  0  0  0  0  3  0  0  0  0  0  0
  160.8980  202.4580  152.3850 N   0  0  0  0  0  2  0  0  0  0  0  0
  162.7060  208.6390  150.0090 C   0  0  0  0  0  2  0  0  0  0  0  0
  161.5470  210.8010  150.2810 C   0  0  0  0  0  2  0  0  0  0  0  0
  162.3790  211.9510  148.2610 C   0  0  0  0  0  1  0  0  0  0  0  0
  162.8480  210.1430  149.8780 C   0  0  2  0  0  3  0  0  0  0  0  0
  161.8870  210.6280  148.8160 C   0  0  1  0  0  3  0  0  0  0  0  0
  2 14  2  0  0  0  0
  3 16  1  0  0  0  0
  3 17  1  1  0  0  0
  4 18  1  6  0  0  0
  4 19  1  0  0  0  0
  4 10  1  0  0  0  0
  5 18  1  0  0  0  0
  5  1  1  0  0  0  0
  6  9  1  0  0  0  0
  6 20  1  1  0  0  0
  7 16  1  0  0  0  0
  7 23  1  1  0  0  0
  9 12  1  0  0  0  0
 10  8  1  6  0  0  0
 10  2  1  0  0  0  0
 11 13  1  1  0  0  0
 11  3  1  0  0  0  0
 13  7  1  0  0  0  0
 15  9  2  0  0  0  0
 16 15  1  1  0  0  0
 17 14  1  0  0  0  0
 17  6  1  0  0  0  0
 19  1  1  6  0  0  0
 19 11  1  0  0  0  0
 20 21  1  0  0  0  0
 22 21  2  0  0  0  0
 26 23  1  1  0  0  0
 26 24  1  0  0  0  0
 27 25  1  6  0  0  0
 27 26  1  0  0  0  0
 27 24  1  0  0  0  0
M  END
>  <MODEL>
5

>  <REMARK>
 VINA RESULT:      -5.2      0.982      1.282
  Name = 
  4 active torsions:
  status: ('A' for Active; 'I' for Inactive)
    1  A    between atoms: C_5  and  C_8
    2  A    between atoms: C_8  and  C_9
    3  A    between atoms: C_10  and  C_18
    4  A    between atoms: C_18  and  C_20
                            x       y       z     vdW  Elec       q    Type
                         _______ _______ _______ _____ _____    ______ ____

>  <TORSDO>
F 4

$$$$
=
 OpenBabel11042420443D

 27 31  0  0  1  0  0  0  0  0999 V2000
  157.4700  212.2090  152.6240 C   0  0  0  0  0  2  0  0  0  0  0  0
  158.1100  211.9160  157.2610 C   0  0  0  0  0  3  0  0  0  0  0  0
  160.4030  211.7200  154.9860 C   0  0  2  0  0  3  0  0  0  0  0  0
  157.6700  212.8350  154.9710 C   0  0  2  0  0  3  0  0  0  0  0  0
  156.9950  213.6280  152.8010 C   0  0  0  0  0  2  0  0  0  0  0  0
  160.1970  209.3580  155.8250 C   0  0  2  0  0  3  0  0  0  0  0  0
  161.5810  210.7230  153.0980 C   0  0  1  0  0  3  0  0  0  0  0  0
  155.9900  212.7530  156.7130 O   0  0  0  0  0  1  0  0  0  0  0  0
  161.6860  209.3410  156.0190 C   0  0  0  0  0  0  0  0  0  0  0  0
  157.0910  212.0820  156.1760 C   0  0  2  0  0  3  0  0  0  0  0  0
  159.6350  211.9520  153.7550 N   0  0  1  0  0  0  0  0  0  0  0  0
  162.3660  208.3310  156.8840 C   0  0  0  0  0  1  0  0  0  0  0  0
  160.0980  210.9180  152.8400 C   0  0  0  0  0  2  0  0  0  0  0  0
  159.2770  211.2870  157.1280 C   0  0  0  0  0  3  0  0  0  0  0  0
  162.3880  210.2430  155.4230 N   0  0  0  0  0  0  0  0  0  0  0  0
  161.7960  211.2330  154.5270 C   0  0  2  0  0  3  0  0  0  0  0  0
  159.7430  210.7520  155.8840 N   0  0  0  0  0  0  0  0  0  0  0  0
  156.6500  213.7170  154.2680 C   0  0  0  0  0  2  0  0  0  0  0  0
  158.1790  211.8380  153.9230 C   0  0  2  0  0  3  0  0  0  0  0  0
  159.4250  208.4290  156.7550 C   0  0  0  0  0  2  0  0  0  0  0  0
  159.3690  207.0600  156.1600 C   0  0  0  0  0  3  0  0  0  0  0  0
  159.9550  206.8250  155.0470 N   0  0  0  0  0  2  0  0  0  0  0  0
  161.9790  209.2700  152.8540 C   0  0  0  0  0  2  0  0  0  0  0  0
  161.2710  207.1870  151.7350 C   0  0  0  0  0  2  0  0  0  0  0  0
  161.6320  207.8580  149.3870 C   0  0  0  0  0  1  0  0  0  0  0  0
  161.2190  208.6970  151.6730 C   0  0  2  0  0  3  0  0  0  0  0  0
  162.1890  207.9400  150.7960 C   0  0  1  0  0  3  0  0  0  0  0  0
  1  5  1  0  0  0  0
  3 17  1  1  0  0  0
  4 18  1  6  0  0  0
  4 10  1  0  0  0  0
  5 18  1  0  0  0  0
  6 17  1  0  0  0  0
  6  9  1  0  0  0  0
  6 20  1  1  0  0  0
  7 23  1  1  0  0  0
  7 16  1  0  0  0  0
  9 12  1  0  0  0  0
 10  8  1  1  0  0  0
 10  2  1  0  0  0  0
 11 13  1  6  0  0  0
 11 19  1  0  0  0  0
 11  3  1  0  0  0  0
 13  7  1  0  0  0  0
 14  2  2  0  0  0  0
 15  9  2  0  0  0  0
 16  3  1  0  0  0  0
 16 15  1  1  0  0  0
 17 14  1  0  0  0  0
 19  1  1  6  0  0  0
 19  4  1  0  0  0  0
 21 20  1  0  0  0  0
 22 21  2  0  0  0  0
 26 24  1  0  0  0  0
 26 23  1  1  0  0  0
 27 25  1  6  0  0  0
 27 26  1  0  0  0  0
 27 24  1  0  0  0  0
M  END
>  <MODEL>
6

>  <REMARK>
 VINA RESULT:      -5.1      4.927      8.824
  Name = 
  4 active torsions:
  status: ('A' for Active; 'I' for Inactive)
    1  A    between atoms: C_5  and  C_8
    2  A    between atoms: C_8  and  C_9
    3  A    between atoms: C_10  and  C_18
    4  A    between atoms: C_18  and  C_20
                            x       y       z     vdW  Elec       q    Type
                         _______ _______ _______ _____ _____    ______ ____

>  <TORSDO>
F 4

$$$$
=
 OpenBabel11042420443D

 27 31  0  0  1  0  0  0  0  0999 V2000
  159.9410  210.6090  153.5830 C   0  0  0  0  0  2  0  0  0  0  0  0
  161.6080  206.2580  153.0510 C   0  0  0  0  0  3  0  0  0  0  0  0
  162.3710  208.8430  151.2600 C   0  0  2  0  0  3  0  0  0  0  0  0
  161.2060  208.5590  153.9570 C   0  0  2  0  0  3  0  0  0  0  0  0
  160.5950  210.6710  154.9390 C   0  0  0  0  0  2  0  0  0  0  0  0
  160.9400  207.4580  149.7240 C   0  0  2  0  0  3  0  0  0  0  0  0
  161.9560  210.6490  149.6750 C   0  0  1  0  0  3  0  0  0  0  0  0
  160.5220  206.5430  155.1090 O   0  0  0  0  0  1  0  0  0  0  0  0
  162.0170  207.5720  148.6850 C   0  0  0  0  0  0  0  0  0  0  0  0
  160.6800  207.1220  153.8480 C   0  0  2  0  0  3  0  0  0  0  0  0
  161.6160  209.9120  151.9270 N   0  0  1  0  0  0  0  0  0  0  0  0
  162.0910  206.6540  147.5090 C   0  0  0  0  0  1  0  0  0  0  0  0
  160.9790  210.6390  150.8370 C   0  0  0  0  0  2  0  0  0  0  0  0
  161.9640  206.4760  151.7860 C   0  0  0  0  0  3  0  0  0  0  0  0
  162.9110  208.4890  148.8320 N   0  0  0  0  0  0  0  0  0  0  0  0
  162.8760  209.4490  149.9320 C   0  0  2  0  0  3  0  0  0  0  0  0
  161.5550  207.6310  151.0440 N   0  0  0  0  0  0  0  0  0  0  0  0
  160.8630  209.2250  155.2810 C   0  0  0  0  0  2  0  0  0  0  0  0
  160.5850  209.4310  152.8590 C   0  0  2  0  0  3  0  0  0  0  0  0
  160.0810  206.2030  149.6150 C   0  0  0  0  0  2  0  0  0  0  0  0
  160.9510  205.0240  149.3280 C   0  0  0  0  0  3  0  0  0  0  0  0
  160.6490  203.8770  149.8090 N   0  0  0  0  0  2  0  0  0  0  0  0
  161.2070  210.6270  148.3460 C   0  0  0  0  0  2  0  0  0  0  0  0
  162.8060  212.4500  147.8860 C   0  0  0  0  0  2  0  0  0  0  0  0
  161.2480  214.3650  147.9410 C   0  0  0  0  0  1  0  0  0  0  0  0
  161.4190  211.9250  147.5910 C   0  0  2  0  0  3  0  0  0  0  0  0
  161.6050  213.0420  148.5930 C   0  0  1  0  0  3  0  0  0  0  0  0
  1  5  1  0  0  0  0
  2 10  1  0  0  0  0
  3 17  1  6  0  0  0
  3 11  1  0  0  0  0
  4 18  1  1  0  0  0
  5 18  1  0  0  0  0
  6 20  1  1  0  0  0
  6 17  1  0  0  0  0
  7 23  1  6  0  0  0
  7 16  1  0  0  0  0
  7 13  1  0  0  0  0
  9 15  2  0  0  0  0
  9  6  1  0  0  0  0
 10  4  1  0  0  0  0
 10  8  1  1  0  0  0
 11 13  1  6  0  0  0
 11 19  1  0  0  0  0
 12  9  1  0  0  0  0
 14  2  2  0  0  0  0
 16 15  1  6  0  0  0
 16  3  1  0  0  0  0
 17 14  1  0  0  0  0
 19  1  1  1  0  0  0
 19  4  1  0  0  0  0
 21 20  1  0  0  0  0
 21 22  2  0  0  0  0
 24 27  1  0  0  0  0
 26 24  1  0  0  0  0
 26 23  1  1  0  0  0
 26 27  1  0  0  0  0
 27 25  1  6  0  0  0
M  END
>  <MODEL>
7

>  <REMARK>
 VINA RESULT:      -5.1      3.007      6.099
  Name = 
  4 active torsions:
  status: ('A' for Active; 'I' for Inactive)
    1  A    between atoms: C_5  and  C_8
    2  A    between atoms: C_8  and  C_9
    3  A    between atoms: C_10  and  C_18
    4  A    between atoms: C_18  and  C_20
                            x       y       z     vdW  Elec       q    Type
                         _______ _______ _______ _____ _____    ______ ____

>  <TORSDO>
F 4

$$$$
=
 OpenBabel11042420443D

 27 31  0  0  1  0  0  0  0  0999 V2000
  161.7400  208.5930  156.3430 C   0  0  0  0  0  2  0  0  0  0  0  0
  160.0850  211.5570  153.1080 C   0  0  0  0  0  3  0  0  0  0  0  0
  160.2800  208.3380  152.8480 C   0  0  2  0  0  3  0  0  0  0  0  0
  160.2770  210.1530  155.1750 C   0  0  2  0  0  3  0  0  0  0  0  0
  160.6160  209.0000  157.2610 C   0  0  0  0  0  2  0  0  0  0  0  0
  162.0870  209.1680  151.3070 C   0  0  2  0  0  3  0  0  0  0  0  0
  161.4170  206.1860  152.6790 C   0  0  1  0  0  3  0  0  0  0  0  0
  160.3010  212.5740  155.2090 O   0  0  0  0  0  1  0  0  0  0  0  0
  161.5110  208.2960  150.2290 C   0  0  0  0  0  0  0  0  0  0  0  0
  160.6920  211.4520  154.4730 C   0  0  2  0  0  3  0  0  0  0  0  0
  160.7950  207.9530  154.1690 N   0  0  1  0  0  0  0  0  0  0  0  0
  161.8320  208.4970  148.7850 C   0  0  0  0  0  1  0  0  0  0  0  0
  161.8600  207.0020  153.8790 C   0  0  0  0  0  2  0  0  0  0  0  0
  160.2680  210.6850  152.1180 C   0  0  0  0  0  3  0  0  0  0  0  0
  160.7040  207.3520  150.5750 N   0  0  0  0  0  0  0  0  0  0  0  0
  160.3810  207.0690  151.9710 C   0  0  2  0  0  3  0  0  0  0  0  0
  161.0210  209.4750  152.2660 N   0  0  0  0  0  0  0  0  0  0  0  0
  160.1270  210.3050  156.6810 C   0  0  0  0  0  2  0  0  0  0  0  0
  161.3420  209.0720  154.9510 C   0  0  2  0  0  3  0  0  0  0  0  0
  162.8220  210.4030  150.8000 C   0  0  0  0  0  2  0  0  0  0  0  0
  161.9300  211.1760  149.8850 C   0  0  0  0  0  3  0  0  0  0  0  0
  162.4270  211.7840  148.8740 N   0  0  0  0  0  2  0  0  0  0  0  0
  162.6210  205.7840  151.8320 C   0  0  0  0  0  2  0  0  0  0  0  0
  161.3310  204.3640  150.2780 C   0  0  0  0  0  2  0  0  0  0  0  0
  161.0860  202.3540  151.6900 C   0  0  0  0  0  1  0  0  0  0  0  0
  162.4500  204.3760  151.2950 C   0  0  2  0  0  3  0  0  0  0  0  0
  161.0800  203.8720  151.6870 C   0  0  1  0  0  3  0  0  0  0  0  0
  1  5  1  0  0  0  0
  2 10  1  0  0  0  0
  3 17  1  6  0  0  0
  3 11  1  0  0  0  0
  4 18  1  1  0  0  0
  6 20  1  6  0  0  0
  6 17  1  0  0  0  0
  7 23  1  6  0  0  0
  7 13  1  0  0  0  0
  9 15  2  0  0  0  0
  9  6  1  0  0  0  0
 10  4  1  0  0  0  0
 10  8  1  1  0  0  0
 11 13  1  6  0  0  0
 11 19  1  0  0  0  0
 12  9  1  0  0  0  0
 14 17  1  0  0  0  0
 14  2  2  0  0  0  0
 16 15  1  6  0  0  0
 16  7  1  0  0  0  0
 16  3  1  0  0  0  0
 18  5  1  0  0  0  0
 19  4  1  0  0  0  0
 19  1  1  1  0  0  0
 21 20  1  0  0  0  0
 22 21  2  0  0  0  0
 24 26  1  0  0  0  0
 24 27  1  0  0  0  0
 26 27  1  0  0  0  0
 26 23  1  1  0  0  0
 27 25  1  6  0  0  0
M  END
>  <MODEL>
8

>  <REMARK>
 VINA RESULT:      -4.9      3.762      8.062
  Name = 
  4 active torsions:
  status: ('A' for Active; 'I' for Inactive)
    1  A    between atoms: C_5  and  C_8
    2  A    between atoms: C_8  and  C_9
    3  A    between atoms: C_10  and  C_18
    4  A    between atoms: C_18  and  C_20
                            x       y       z     vdW  Elec       q    Type
                         _______ _______ _______ _____ _____    ______ ____

>  <TORSDO>
F 4

$$$$
=
 OpenBabel11042420443D

 27 31  0  0  1  0  0  0  0  0999 V2000
  161.7060  210.3920  148.5140 C   0  0  0  0  0  2  0  0  0  0  0  0
  160.0960  213.7850  151.3230 C   0  0  0  0  0  3  0  0  0  0  0  0
  161.6290  211.0880  152.2460 C   0  0  2  0  0  3  0  0  0  0  0  0
  161.5000  212.5270  149.6720 C   0  0  2  0  0  3  0  0  0  0  0  0
  162.6630  211.3820  147.9020 C   0  0  0  0  0  2  0  0  0  0  0  0
  159.2470  210.6880  152.9500 C   0  0  2  0  0  3  0  0  0  0  0  0
  161.9040  208.6860  152.5610 C   0  0  1  0  0  3  0  0  0  0  0  0
  160.1610  214.4530  149.0770 O   0  0  0  0  0  1  0  0  0  0  0  0
  159.7540  210.3410  154.3200 C   0  0  0  0  0  0  0  0  0  0  0  0
  160.2120  213.3270  149.9010 C   0  0  2  0  0  3  0  0  0  0  0  0
  161.9500  210.4610  150.9570 N   0  0  1  0  0  0  0  0  0  0  0  0
  158.8630  210.3240  155.5190 C   0  0  0  0  0  1  0  0  0  0  0  0
  161.5730  209.0650  151.1300 C   0  0  0  0  0  2  0  0  0  0  0  0
  160.0700  212.9840  152.3870 C   0  0  0  0  0  3  0  0  0  0  0  0
  161.0050  210.0640  154.4540 N   0  0  0  0  0  0  0  0  0  0  0  0
  161.9250  210.0180  153.3210 C   0  0  2  0  0  3  0  0  0  0  0  0
  160.2320  211.5630  152.3050 N   0  0  0  0  0  0  0  0  0  0  0  0
  162.0920  212.7250  148.2850 C   0  0  0  0  0  2  0  0  0  0  0  0
  161.2190  211.0260  149.8130 C   0  0  2  0  0  3  0  0  0  0  0  0
  157.8280  211.2450  152.9190 C   0  0  0  0  0  2  0  0  0  0  0  0
  157.7210  212.3950  153.8660 C   0  0  0  0  0  3  0  0  0  0  0  0
  156.5680  212.8020  154.2440 N   0  0  0  0  0  2  0  0  0  0  0  0
  160.9110  207.6510  153.0830 C   0  0  0  0  0  2  0  0  0  0  0  0
  162.5610  206.1750  151.9910 C   0  0  0  0  0  2  0  0  0  0  0  0
  161.2800  204.0640  152.0160 C   0  0  0  0  0  1  0  0  0  0  0  0
  161.5370  206.2700  153.1000 C   0  0  2  0  0  3  0  0  0  0  0  0
  161.1870  205.5650  151.8090 C   0  0  1  0  0  3  0  0  0  0  0  0
  2 14  2  0  0  0  0
  3 17  1  6  0  0  0
  3 16  1  0  0  0  0
  4 18  1  6  0  0  0
  4 19  1  0  0  0  0
  4 10  1  0  0  0  0
  5 18  1  0  0  0  0
  5  1  1  0  0  0  0
  6 20  1  1  0  0  0
  6  9  1  0  0  0  0
  7 23  1  1  0  0  0
  7 16  1  0  0  0  0
  9 15  2  0  0  0  0
  9 12  1  0  0  0  0
 10  8  1  6  0  0  0
 10  2  1  0  0  0  0
 11 13  1  1  0  0  0
 11  3  1  0  0  0  0
 13  7  1  0  0  0  0
 16 15  1  1  0  0  0
 17 14  1  0  0  0  0
 17  6  1  0  0  0  0
 19  1  1  6  0  0  0
 19 11  1  0  0  0  0
 20 21  1  0  0  0  0
 21 22  2  0  0  0  0
 24 26  1  0  0  0  0
 26 23  1  6  0  0  0
 27 24  1  0  0  0  0
 27 25  1  1  0  0  0
 27 26  1  0  0  0  0
M  END
>  <MODEL>
9

>  <REMARK>
 VINA RESULT:      -4.0      4.677      7.650
  Name = 
  4 active torsions:
  status: ('A' for Active; 'I' for Inactive)
    1  A    between atoms: C_5  and  C_8
    2  A    between atoms: C_8  and  C_9
    3  A    between atoms: C_10  and  C_18
    4  A    between atoms: C_18  and  C_20
                            x       y       z     vdW  Elec       q    Type
                         _______ _______ _______ _____ _____    ______ ____

>  <TORSDO>
F 4

$$$$
