=
 OpenBabel11052410413D

 53 56  0  0  1  0  0  0  0  0999 V2000
  161.8200  209.8610  155.3360 C   0  0  0  0  0  2  0  0  0  0  0  0
  162.1940  210.3960  153.9550 C   0  0  2  0  0  3  0  0  0  0  0  0
  162.9030  209.8450  148.7030 C   0  0  0  0  0  2  0  0  0  0  0  0
  162.0320  209.3610  152.9100 N   0  0  2  0  0  0  0  0  0  0  0  0
  161.8610  204.7330  152.8090 C   0  0  0  0  0  3  0  0  0  0  0  0
  161.6850  207.6750  148.3380 C   0  0  2  0  0  3  0  0  0  0  0  0
  160.7780  212.9150  149.3560 C   0  0  0  0  0  0  0  0  0  0  0  0
  160.7140  207.2910  150.5250 C   0  0  0  0  0  0  0  0  0  0  0  0
  160.6750  212.8970  150.7520 C   0  0  0  0  0  3  0  0  0  0  0  0
  162.6670  209.7500  151.6330 C   0  0  0  0  0  2  0  0  0  0  0  0
  160.6100  209.0780  152.6880 C   0  0  0  0  0  2  0  0  0  0  0  0
  160.5880  207.8100  149.3350 C   0  0  0  0  0  3  0  0  0  0  0  0
  160.3130  209.7710  155.5040 C   0  0  1  0  0  3  0  0  0  0  0  0
  158.3730  207.9310  155.1850 O   0  0  0  0  0  0  0  0  0  0  0  0
  160.4790  205.7660  154.5250 C   0  0  0  0  0  2  0  0  0  0  0  0
  160.7530  207.1730  154.2590 N   0  0  1  0  0  0  0  0  0  0  0  0
  160.2950  207.5830  152.9070 C   0  0  2  0  0  3  0  0  0  0  0  0
  159.8450  208.0410  155.4750 S   0  0  0  0  0  0  0  0  0  0  0  0
  161.4950  211.9080  148.7080 C   0  0  0  0  0  3  0  0  0  0  0  0
  161.2730  211.8720  151.4860 C   0  0  0  0  0  3  0  0  0  0  0  0
  160.8210  206.7480  151.7200 C   0  0  0  0  0  0  0  0  0  0  0  0
  160.8880  205.2250  151.7790 C   0  0  1  0  0  3  0  0  0  0  0  0
  162.0910  210.8680  149.4350 C   0  0  0  0  0  0  0  0  0  0  0  0
  161.9670  210.8360  150.8390 C   0  0  0  0  0  0  0  0  0  0  0  0
  160.1240  207.4480  156.8300 O   0  0  0  0  0  0  0  0  0  0  0  0
  161.6570  204.9590  154.1030 C   0  0  0  0  0  3  0  0  0  0  0  0
  162.0420  209.0300  147.7480 C   0  0  0  0  0  2  0  0  0  0  0  0
  164.0870  211.3220  155.1980 C   0  0  0  0  0  2  0  0  0  0  0  0
  164.4270  210.8840  152.9170 O   0  0  0  0  0  1  0  0  0  0  0  0
  163.6090  210.8920  154.0400 C   0  0  0  0  0  0  0  0  0  0  0  0
  160.9430  203.0480  150.5400 C   0  0  0  0  0  1  0  0  0  0  0  0
  161.1900  204.5420  150.4420 C   0  0  0  0  0  2  0  0  0  0  0  0
  158.6670  209.8970  157.2480 O   0  0  0  0  0  1  0  0  0  0  0  0
  159.8560  210.4690  156.7900 C   0  0  2  0  0  3  0  0  0  0  0  0
  159.5890  212.5850  154.7830 C   0  0  0  0  0  1  0  0  0  0  0  0
  158.2680  212.6310  157.1180 O   0  0  0  0  0  0  0  0  0  0  0  0
  159.5860  212.2190  156.5240 S   0  0  0  0  0  0  0  0  0  0  0  0
  160.6900  212.9990  157.1810 O   0  0  0  0  0  0  0  0  0  0  0  0
  160.9030  206.0830  146.4080 N   0  0  0  0  0  0  0  0  0  0  0  0
  161.2470  206.7860  147.2600 C   0  0  0  0  0  0  0  0  0  0  0  0
  160.1740  213.9530  148.5820 N   0  0  0  0  0  2  0  0  0  0  0  0
  160.5530  214.2300  147.2000 C   0  0  0  0  0  2  0  0  0  0  0  0
  159.5350  213.6440  146.2180 C   0  0  1  0  0  0  0  0  0  0  0  0
  159.8240  212.1440  146.0730 C   0  0  0  0  0  1  0  0  0  0  0  0
  157.6800  212.7500  147.4680 F   0  0  0  0  0  0  0  0  0  0  0  0
  158.1120  213.8760  146.7870 C   0  0  2  0  0  3  0  0  0  0  0  0
  157.0770  214.2500  145.7290 C   0  0  0  0  0  2  0  0  0  0  0  0
  155.7180  214.4530  146.3690 C   0  0  0  0  0  1  0  0  0  0  0  0
  159.6990  214.3140  144.9770 O   0  0  0  0  0  0  0  0  0  0  0  0
  160.7920  213.7740  144.2710 C   0  0  0  0  0  2  0  0  0  0  0  0
  160.9830  212.3370  142.3780 O   0  0  0  0  0  1  0  0  0  0  0  0
  160.4010  213.5230  142.8270 C   0  0  1  0  0  3  0  0  0  0  0  0
  158.8940  213.4120  142.7270 C   0  0  0  0  0  1  0  0  0  0  0  0
  1 13  1  0  0  0  0
  2 30  1  1  0  0  0
  2  1  1  0  0  0  0
  3 23  1  0  0  0  0
  4 10  1  6  0  0  0
  4  2  1  0  0  0  0
  5 26  2  0  0  0  0
  6 40  1  6  0  0  0
  6 12  1  0  0  0  0
  7  9  1  0  0  0  0
  8 21  2  0  0  0  0
  9 20  2  0  0  0  0
 11  4  1  0  0  0  0
 12  8  2  0  0  0  0
 13 34  1  1  0  0  0
 14 18  2  0  0  0  0
 16 15  1  1  0  0  0
 16 18  1  0  0  0  0
 17 11  1  6  0  0  0
 17 16  1  0  0  0  0
 18 13  1  0  0  0  0
 18 25  2  0  0  0  0
 19  7  2  0  0  0  0
 19 23  1  0  0  0  0
 21 22  1  0  0  0  0
 21 17  1  0  0  0  0
 22 32  1  6  0  0  0
 22  5  1  0  0  0  0
 23 24  2  0  0  0  0
 24 20  1  0  0  0  0
 24 10  1  0  0  0  0
 26 15  1  0  0  0  0
 27  6  1  0  0  0  0
 27  3  1  0  0  0  0
 29 30  1  0  0  0  0
 30 28  2  0  0  0  0
 32 31  1  0  0  0  0
 34 33  1  6  0  0  0
 35 37  1  0  0  0  0
 37 34  1  0  0  0  0
 37 36  2  0  0  0  0
 37 38  2  0  0  0  0
 39 40  3  0  0  0  0
 41  7  1  0  0  0  0
 42 41  1  0  0  0  0
 43 44  1  6  0  0  0
 43 46  1  0  0  0  0
 43 42  1  0  0  0  0
 46 45  1  6  0  0  0
 47 48  1  0  0  0  0
 47 46  1  0  0  0  0
 49 43  1  0  0  0  0
 50 49  1  0  0  0  0
 51 52  1  0  0  0  0
 52 53  1  1  0  0  0
 52 50  1  0  0  0  0
M  END
>  <MODEL>
1

>  <REMARK>
 VINA RESULT:       2.6      0.000      0.000
  Name = 
  13 active torsions:
  status: ('A' for Active; 'I' for Inactive)
    1  A    between atoms: C_3  and  C_38
    2  A    between atoms: C_6  and  C_43
    3  A    between atoms: C_8  and  C_38
    4  A    between atoms: C_8  and  C_42
    5  A    between atoms: C_8  and  O_49
    6  A    between atoms: C_9  and  C_27
    7  A    between atoms: C_9  and  S_28
    8  A    between atoms: C_15  and  C_44
    9  A    between atoms: C_16  and  O_49
   10  A    between atoms: C_16  and  C_50
   11  A    between atoms: N_17  and  C_19
   12  A    between atoms: N_17  and  C_42
   13  A    between atoms: C_31  and  C_41
                            x       y       z     vdW  Elec       q    Type
                         _______ _______ _______ _____ _____    ______ ____

>  <TORSDO>
F 13

$$$$
=
 OpenBabel11052410413D

 53 56  0  0  1  0  0  0  0  0999 V2000
  159.7520  213.4360  147.9950 C   0  0  0  0  0  2  0  0  0  0  0  0
  160.8230  212.4740  148.5050 C   0  0  2  0  0  3  0  0  0  0  0  0
  163.0420  209.4380  152.2790 C   0  0  0  0  0  2  0  0  0  0  0  0
  160.5630  212.0640  149.9030 N   0  0  2  0  0  0  0  0  0  0  0  0
  158.1420  213.7560  153.4720 C   0  0  0  0  0  3  0  0  0  0  0  0
  161.1360  209.3390  153.9160 C   0  0  2  0  0  3  0  0  0  0  0  0
  162.6810  207.4050  149.1000 C   0  0  0  0  0  0  0  0  0  0  0  0
  159.3750  210.4510  152.6770 C   0  0  0  0  0  0  0  0  0  0  0  0
  162.0750  208.3290  148.2400 C   0  0  0  0  0  3  0  0  0  0  0  0
  161.7270  211.3870  150.5140 C   0  0  0  0  0  2  0  0  0  0  0  0
  159.3910  211.1830  149.9670 C   0  0  0  0  0  2  0  0  0  0  0  0
  159.9770  209.3350  152.9810 C   0  0  0  0  0  3  0  0  0  0  0  0
  158.4660  212.7010  147.6560 C   0  0  1  0  0  3  0  0  0  0  0  0
  156.1430  212.0740  148.8660 O   0  0  0  0  0  0  0  0  0  0  0  0
  156.9470  213.7260  151.3530 C   0  0  0  0  0  2  0  0  0  0  0  0
  157.9650  213.1350  150.4940 N   0  0  1  0  0  0  0  0  0  0  0  0
  158.3130  211.7540  150.9140 C   0  0  2  0  0  3  0  0  0  0  0  0
  157.2420  213.1010  148.9020 S   0  0  0  0  0  0  0  0  0  0  0  0
  162.9760  207.7800  150.4120 C   0  0  0  0  0  3  0  0  0  0  0  0
  161.7570  209.6080  148.6980 C   0  0  0  0  0  3  0  0  0  0  0  0
  158.7440  211.5700  152.3840 C   0  0  0  0  0  0  0  0  0  0  0  0
  158.0090  212.2630  153.5270 C   0  0  1  0  0  3  0  0  0  0  0  0
  162.6500  209.0590  150.8840 C   0  0  0  0  0  0  0  0  0  0  0  0
  162.0180  209.9820  150.0260 C   0  0  0  0  0  0  0  0  0  0  0  0
  156.6610  214.4530  148.5860 O   0  0  0  0  0  0  0  0  0  0  0  0
  157.6180  214.4500  152.4670 C   0  0  0  0  0  3  0  0  0  0  0  0
  162.3120  208.5900  153.3120 C   0  0  0  0  0  2  0  0  0  0  0  0
  162.2530  214.4530  148.6630 C   0  0  0  0  0  2  0  0  0  0  0  0
  163.2670  212.4670  147.9290 O   0  0  0  0  0  1  0  0  0  0  0  0
  162.1460  213.1680  148.3600 C   0  0  0  0  0  0  0  0  0  0  0  0
  157.2520  211.0110  155.5610 C   0  0  0  0  0  1  0  0  0  0  0  0
  158.3970  211.7800  154.9280 C   0  0  0  0  0  2  0  0  0  0  0  0
  157.0930  212.0760  145.7880 O   0  0  0  0  0  1  0  0  0  0  0  0
  157.9830  213.0500  146.2440 C   0  0  2  0  0  3  0  0  0  0  0  0
  158.7470  213.3100  143.4280 C   0  0  0  0  0  1  0  0  0  0  0  0
  160.2030  214.3560  145.4250 O   0  0  0  0  0  0  0  0  0  0  0  0
  159.3520  213.1610  145.0940 S   0  0  0  0  0  0  0  0  0  0  0  0
  160.1880  211.9160  145.1920 O   0  0  0  0  0  0  0  0  0  0  0  0
  160.4360  208.1670  156.1550 N   0  0  0  0  0  0  0  0  0  0  0  0
  160.7450  208.6830  155.1660 C   0  0  0  0  0  0  0  0  0  0  0  0
  163.0160  206.0890  148.6570 N   0  0  0  0  0  2  0  0  0  0  0  0
  162.6050  204.8860  149.3710 C   0  0  0  0  0  2  0  0  0  0  0  0
  161.2420  204.3890  148.8830 C   0  0  1  0  0  0  0  0  0  0  0  0
  161.2090  202.8630  149.0360 C   0  0  0  0  0  1  0  0  0  0  0  0
  159.7330  206.2460  149.1720 F   0  0  0  0  0  0  0  0  0  0  0  0
  160.1380  205.0520  149.7470 C   0  0  2  0  0  3  0  0  0  0  0  0
  160.5560  205.3080  151.1920 C   0  0  0  0  0  2  0  0  0  0  0  0
  160.2860  204.0840  152.0450 C   0  0  0  0  0  1  0  0  0  0  0  0
  161.1090  204.7650  147.5190 O   0  0  0  0  0  0  0  0  0  0  0  0
  161.5770  203.7340  146.6810 C   0  0  0  0  0  2  0  0  0  0  0  0
  160.4100  203.0820  144.7060 O   0  0  0  0  0  1  0  0  0  0  0  0
  161.2540  204.0590  145.2350 C   0  0  1  0  0  3  0  0  0  0  0  0
  160.5690  205.4070  145.1630 C   0  0  0  0  0  1  0  0  0  0  0  0
  1  2  1  0  0  0  0
  2 30  1  1  0  0  0
  2  4  1  0  0  0  0
  3 27  1  0  0  0  0
  4 11  1  6  0  0  0
  4 10  1  0  0  0  0
  5 22  1  0  0  0  0
  6 40  1  1  0  0  0
  7 19  1  0  0  0  0
  8 12  2  0  0  0  0
  9 20  1  0  0  0  0
  9  7  2  0  0  0  0
 12  6  1  0  0  0  0
 13 34  1  6  0  0  0
 13  1  1  0  0  0  0
 13 18  1  0  0  0  0
 14 18  2  0  0  0  0
 15 26  1  0  0  0  0
 16 17  1  0  0  0  0
 16 15  1  1  0  0  0
 17 11  1  6  0  0  0
 17 21  1  0  0  0  0
 18 16  1  0  0  0  0
 19 23  2  0  0  0  0
 20 24  2  0  0  0  0
 21  8  2  0  0  0  0
 21 22  1  0  0  0  0
 22 32  1  1  0  0  0
 23  3  1  0  0  0  0
 24 10  1  0  0  0  0
 24 23  1  0  0  0  0
 25 18  2  0  0  0  0
 26  5  2  0  0  0  0
 27  6  1  0  0  0  0
 29 30  1  0  0  0  0
 30 28  2  0  0  0  0
 32 31  1  0  0  0  0
 34 33  1  6  0  0  0
 35 37  1  0  0  0  0
 37 38  2  0  0  0  0
 37 36  2  0  0  0  0
 37 34  1  0  0  0  0
 40 39  3  0  0  0  0
 41  7  1  0  0  0  0
 41 42  1  0  0  0  0
 43 44  1  1  0  0  0
 43 42  1  0  0  0  0
 43 46  1  0  0  0  0
 46 45  1  6  0  0  0
 46 47  1  0  0  0  0
 47 48  1  0  0  0  0
 49 43  1  0  0  0  0
 50 49  1  0  0  0  0
 51 52  1  0  0  0  0
 52 53  1  1  0  0  0
 52 50  1  0  0  0  0
M  END
>  <MODEL>
2

>  <REMARK>
 VINA RESULT:       2.7      3.834      8.348
  Name = 
  13 active torsions:
  status: ('A' for Active; 'I' for Inactive)
    1  A    between atoms: C_3  and  C_38
    2  A    between atoms: C_6  and  C_43
    3  A    between atoms: C_8  and  C_38
    4  A    between atoms: C_8  and  C_42
    5  A    between atoms: C_8  and  O_49
    6  A    between atoms: C_9  and  C_27
    7  A    between atoms: C_9  and  S_28
    8  A    between atoms: C_15  and  C_44
    9  A    between atoms: C_16  and  O_49
   10  A    between atoms: C_16  and  C_50
   11  A    between atoms: N_17  and  C_19
   12  A    between atoms: N_17  and  C_42
   13  A    between atoms: C_31  and  C_41
                            x       y       z     vdW  Elec       q    Type
                         _______ _______ _______ _____ _____    ______ ____

>  <TORSDO>
F 13

$$$$
=
 OpenBabel11052410413D

 53 56  0  0  1  0  0  0  0  0999 V2000
  160.6560  212.5230  149.9330 C   0  0  0  0  0  2  0  0  0  0  0  0
  161.3460  211.1770  150.1470 C   0  0  2  0  0  3  0  0  0  0  0  0
  162.7190  206.9890  153.1410 C   0  0  0  0  0  2  0  0  0  0  0  0
  161.1240  210.6660  151.5170 N   0  0  2  0  0  0  0  0  0  0  0  0
  159.9630  212.5020  155.6090 C   0  0  0  0  0  3  0  0  0  0  0  0
  161.1270  207.3040  155.0620 C   0  0  2  0  0  3  0  0  0  0  0  0
  161.2410  205.7540  149.8750 C   0  0  0  0  0  0  0  0  0  0  0  0
  159.7700  209.1490  154.2690 C   0  0  0  0  0  0  0  0  0  0  0  0
  160.9230  206.9570  149.2350 C   0  0  0  0  0  3  0  0  0  0  0  0
  162.0180  209.5340  151.8440 C   0  0  0  0  0  2  0  0  0  0  0  0
  159.7260  210.2550  151.6900 C   0  0  0  0  0  2  0  0  0  0  0  0
  159.9460  207.8590  154.3460 C   0  0  0  0  0  3  0  0  0  0  0  0
  159.1580  212.3520  149.7460 C   0  0  1  0  0  3  0  0  0  0  0  0
  156.9350  212.3960  151.2660 O   0  0  0  0  0  0  0  0  0  0  0  0
  158.5930  213.2360  153.7370 C   0  0  0  0  0  2  0  0  0  0  0  0
  159.2050  212.4710  152.6570 N   0  0  1  0  0  0  0  0  0  0  0  0
  159.0620  211.0070  152.8630 C   0  0  2  0  0  3  0  0  0  0  0  0
  158.3330  212.9510  151.2200 S   0  0  0  0  0  0  0  0  0  0  0  0
  161.8130  205.7840  151.1490 C   0  0  0  0  0  3  0  0  0  0  0  0
  161.1620  208.1760  149.8730 C   0  0  0  0  0  3  0  0  0  0  0  0
  159.5700  210.4490  154.2090 C   0  0  0  0  0  0  0  0  0  0  0  0
  159.2910  211.1630  155.5290 C   0  0  1  0  0  3  0  0  0  0  0  0
  162.0470  207.0030  151.8020 C   0  0  0  0  0  0  0  0  0  0  0  0
  161.7040  208.2140  151.1670 C   0  0  0  0  0  0  0  0  0  0  0  0
  158.2630  214.4530  151.1520 O   0  0  0  0  0  0  0  0  0  0  0  0
  159.6160  213.4880  154.7880 C   0  0  0  0  0  3  0  0  0  0  0  0
  161.8580  206.2970  154.1880 C   0  0  0  0  0  2  0  0  0  0  0  0
  163.1830  211.7650  148.6410 C   0  0  0  0  0  2  0  0  0  0  0  0
  163.7590  211.1740  150.8390 O   0  0  0  0  0  1  0  0  0  0  0  0
  162.8040  211.3760  149.8500 C   0  0  0  0  0  0  0  0  0  0  0  0
  161.0960  210.5580  157.1580 C   0  0  0  0  0  1  0  0  0  0  0  0
  159.6390  210.3560  156.7830 C   0  0  0  0  0  2  0  0  0  0  0  0
  157.4850  212.4920  148.0280 O   0  0  0  0  0  1  0  0  0  0  0  0
  158.6710  213.0720  148.4830 C   0  0  2  0  0  3  0  0  0  0  0  0
  161.1370  214.2340  147.4130 C   0  0  0  0  0  1  0  0  0  0  0  0
  160.5360  211.6310  147.1590 O   0  0  0  0  0  0  0  0  0  0  0  0
  159.8900  212.9890  147.1730 S   0  0  0  0  0  0  0  0  0  0  0  0
  159.2180  213.2290  145.8510 O   0  0  0  0  0  0  0  0  0  0  0  0
  160.3230  206.1070  157.2520 N   0  0  0  0  0  0  0  0  0  0  0  0
  160.6770  206.6360  156.2850 C   0  0  0  0  0  0  0  0  0  0  0  0
  161.0070  204.4940  149.2450 N   0  0  0  0  0  2  0  0  0  0  0  0
  161.9510  203.8890  148.3120 C   0  0  0  0  0  2  0  0  0  0  0  0
  161.2240  203.2090  147.1490 C   0  0  1  0  0  0  0  0  0  0  0  0
  162.2720  202.8040  146.1040 C   0  0  0  0  0  1  0  0  0  0  0  0
  159.5110  202.3430  148.6050 F   0  0  0  0  0  0  0  0  0  0  0  0
  160.4830  201.9610  147.6950 C   0  0  2  0  0  3  0  0  0  0  0  0
  161.4030  200.9320  148.3460 C   0  0  0  0  0  2  0  0  0  0  0  0
  161.4700  199.6750  147.5010 C   0  0  0  0  0  1  0  0  0  0  0  0
  160.3040  204.1460  146.6080 O   0  0  0  0  0  0  0  0  0  0  0  0
  160.9560  205.3630  146.3260 C   0  0  0  0  0  2  0  0  0  0  0  0
  162.1760  205.6790  144.3020 O   0  0  0  0  0  1  0  0  0  0  0  0
  160.8880  205.6510  144.8380 C   0  0  1  0  0  3  0  0  0  0  0  0
  160.0810  204.5690  144.1520 C   0  0  0  0  0  1  0  0  0  0  0  0
  1  2  1  0  0  0  0
  2 30  1  1  0  0  0
  2  4  1  0  0  0  0
  3 27  1  0  0  0  0
  4 11  1  6  0  0  0
  4 10  1  0  0  0  0
  6 40  1  1  0  0  0
  7 19  1  0  0  0  0
  8 12  2  0  0  0  0
  9 20  1  0  0  0  0
  9  7  2  0  0  0  0
 12  6  1  0  0  0  0
 13 34  1  6  0  0  0
 13  1  1  0  0  0  0
 13 18  1  0  0  0  0
 15 26  1  0  0  0  0
 16 17  1  0  0  0  0
 16 15  1  1  0  0  0
 17 11  1  6  0  0  0
 17 21  1  0  0  0  0
 18 14  2  0  0  0  0
 18 16  1  0  0  0  0
 19 23  2  0  0  0  0
 20 24  2  0  0  0  0
 21  8  2  0  0  0  0
 21 22  1  0  0  0  0
 22  5  1  0  0  0  0
 22 32  1  1  0  0  0
 23  3  1  0  0  0  0
 24 23  1  0  0  0  0
 24 10  1  0  0  0  0
 25 18  2  0  0  0  0
 26  5  2  0  0  0  0
 27  6  1  0  0  0  0
 28 30  2  0  0  0  0
 30 29  1  0  0  0  0
 32 31  1  0  0  0  0
 34 33  1  6  0  0  0
 36 37  2  0  0  0  0
 37 35  1  0  0  0  0
 37 34  1  0  0  0  0
 38 37  2  0  0  0  0
 40 39  3  0  0  0  0
 41  7  1  0  0  0  0
 42 41  1  0  0  0  0
 43 44  1  6  0  0  0
 43 46  1  0  0  0  0
 43 42  1  0  0  0  0
 46 47  1  0  0  0  0
 46 45  1  1  0  0  0
 48 47  1  0  0  0  0
 49 43  1  0  0  0  0
 50 49  1  0  0  0  0
 51 52  1  0  0  0  0
 52 53  1  6  0  0  0
 52 50  1  0  0  0  0
M  END
>  <MODEL>
3

>  <REMARK>
 VINA RESULT:       3.1      3.592      8.058
  Name = 
  13 active torsions:
  status: ('A' for Active; 'I' for Inactive)
    1  A    between atoms: C_3  and  C_38
    2  A    between atoms: C_6  and  C_43
    3  A    between atoms: C_8  and  C_38
    4  A    between atoms: C_8  and  C_42
    5  A    between atoms: C_8  and  O_49
    6  A    between atoms: C_9  and  C_27
    7  A    between atoms: C_9  and  S_28
    8  A    between atoms: C_15  and  C_44
    9  A    between atoms: C_16  and  O_49
   10  A    between atoms: C_16  and  C_50
   11  A    between atoms: N_17  and  C_19
   12  A    between atoms: N_17  and  C_42
   13  A    between atoms: C_31  and  C_41
                            x       y       z     vdW  Elec       q    Type
                         _______ _______ _______ _____ _____    ______ ____

>  <TORSDO>
F 13

$$$$
=
 OpenBabel11052410413D

 53 56  0  0  1  0  0  0  0  0999 V2000
  159.1430  213.7460  148.5520 C   0  0  0  0  0  2  0  0  0  0  0  0
  160.3100  212.8820  149.0270 C   0  0  2  0  0  3  0  0  0  0  0  0
  162.8650  209.9930  152.7040 C   0  0  0  0  0  2  0  0  0  0  0  0
  160.1100  212.4170  150.4170 N   0  0  2  0  0  0  0  0  0  0  0  0
  157.5840  213.7840  154.0520 C   0  0  0  0  0  3  0  0  0  0  0  0
  160.9980  209.6710  154.3590 C   0  0  2  0  0  3  0  0  0  0  0  0
  162.6600  208.0070  149.4810 C   0  0  0  0  0  0  0  0  0  0  0  0
  159.1220  210.6340  153.1660 C   0  0  0  0  0  0  0  0  0  0  0  0
  161.9560  208.8860  148.6500 C   0  0  0  0  0  3  0  0  0  0  0  0
  161.3420  211.8440  150.9990 C   0  0  0  0  0  2  0  0  0  0  0  0
  159.0300  211.4250  150.4740 C   0  0  0  0  0  2  0  0  0  0  0  0
  159.8340  209.5750  153.4360 C   0  0  0  0  0  3  0  0  0  0  0  0
  157.9310  212.8970  148.2100 C   0  0  1  0  0  3  0  0  0  0  0  0
  155.6970  212.0190  149.4300 O   0  0  0  0  0  0  0  0  0  0  0  0
  156.3680  213.6850  151.9470 C   0  0  0  0  0  2  0  0  0  0  0  0
  157.4280  213.2160  151.0630 N   0  0  1  0  0  0  0  0  0  0  0  0
  157.9150  211.8660  151.4460 C   0  0  2  0  0  3  0  0  0  0  0  0
  156.6910  213.1480  149.4780 S   0  0  0  0  0  0  0  0  0  0  0  0
  162.9350  208.3790  150.7980 C   0  0  0  0  0  3  0  0  0  0  0  0
  161.5210  210.1180  149.1410 C   0  0  0  0  0  3  0  0  0  0  0  0
  158.3810  211.6920  152.9060 C   0  0  0  0  0  0  0  0  0  0  0  0
  157.5970  212.2840  154.0740 C   0  0  1  0  0  3  0  0  0  0  0  0
  162.4930  209.6090  151.3040 C   0  0  0  0  0  0  0  0  0  0  0  0
  161.7630  210.4850  150.4750 C   0  0  0  0  0  0  0  0  0  0  0  0
  155.9770  214.4430  149.2010 O   0  0  0  0  0  0  0  0  0  0  0  0
  156.9810  214.4460  153.0700 C   0  0  0  0  0  3  0  0  0  0  0  0
  162.2340  209.0540  153.7240 C   0  0  0  0  0  2  0  0  0  0  0  0
  162.1900  213.7450  147.7210 C   0  0  0  0  0  2  0  0  0  0  0  0
  162.0420  214.4430  149.9570 O   0  0  0  0  0  1  0  0  0  0  0  0
  161.5580  213.7050  148.8840 C   0  0  0  0  0  0  0  0  0  0  0  0
  158.9990  212.8160  156.0810 C   0  0  0  0  0  1  0  0  0  0  0  0
  158.0490  211.8100  155.4580 C   0  0  0  0  0  2  0  0  0  0  0  0
  156.6040  212.1820  146.3400 O   0  0  0  0  0  1  0  0  0  0  0  0
  157.3980  213.2290  146.8110 C   0  0  2  0  0  3  0  0  0  0  0  0
  158.1030  214.1880  144.1360 C   0  0  0  0  0  1  0  0  0  0  0  0
  159.7410  214.4500  146.2440 O   0  0  0  0  0  0  0  0  0  0  0  0
  158.7340  213.5040  145.6510 S   0  0  0  0  0  0  0  0  0  0  0  0
  159.4060  212.1960  145.3450 O   0  0  0  0  0  0  0  0  0  0  0  0
  160.4490  208.3850  156.5770 N   0  0  0  0  0  0  0  0  0  0  0  0
  160.6900  208.9520  155.5970 C   0  0  0  0  0  0  0  0  0  0  0  0
  163.1170  206.7410  149.0030 N   0  0  0  0  0  2  0  0  0  0  0  0
  162.7690  206.2220  147.6850 C   0  0  0  0  0  2  0  0  0  0  0  0
  161.5680  205.2760  147.7600 C   0  0  1  0  0  0  0  0  0  0  0  0
  160.3040  206.1260  147.9420 C   0  0  0  0  0  1  0  0  0  0  0  0
  162.7620  204.3400  145.8880 F   0  0  0  0  0  0  0  0  0  0  0  0
  161.4980  204.4640  146.4410 C   0  0  2  0  0  3  0  0  0  0  0  0
  160.5520  205.0560  145.4000 C   0  0  0  0  0  2  0  0  0  0  0  0
  161.3340  205.5690  144.2070 C   0  0  0  0  0  1  0  0  0  0  0  0
  161.7650  204.4160  148.8730 O   0  0  0  0  0  0  0  0  0  0  0  0
  160.6570  203.5610  149.0320 C   0  0  0  0  0  2  0  0  0  0  0  0
  160.2670  203.3920  151.3780 O   0  0  0  0  0  1  0  0  0  0  0  0
  160.8250  202.7260  150.2870 C   0  0  1  0  0  3  0  0  0  0  0  0
  160.1300  201.3940  150.1020 C   0  0  0  0  0  1  0  0  0  0  0  0
  1  2  1  0  0  0  0
  2 30  1  1  0  0  0
  2  4  1  0  0  0  0
  3 27  1  0  0  0  0
  4 11  1  6  0  0  0
  4 10  1  0  0  0  0
  5 22  1  0  0  0  0
  6 40  1  1  0  0  0
  7 19  1  0  0  0  0
  8 12  2  0  0  0  0
  9 20  1  0  0  0  0
  9  7  2  0  0  0  0
 12  6  1  0  0  0  0
 13 34  1  6  0  0  0
 13  1  1  0  0  0  0
 13 18  1  0  0  0  0
 14 18  2  0  0  0  0
 15 26  1  0  0  0  0
 16 17  1  0  0  0  0
 16 15  1  1  0  0  0
 17 11  1  6  0  0  0
 17 21  1  0  0  0  0
 18 16  1  0  0  0  0
 19 23  2  0  0  0  0
 20 24  2  0  0  0  0
 21  8  2  0  0  0  0
 21 22  1  0  0  0  0
 22 32  1  1  0  0  0
 23  3  1  0  0  0  0
 24 10  1  0  0  0  0
 24 23  1  0  0  0  0
 25 18  2  0  0  0  0
 26  5  2  0  0  0  0
 27  6  1  0  0  0  0
 28 30  2  0  0  0  0
 30 29  1  0  0  0  0
 32 31  1  0  0  0  0
 34 33  1  6  0  0  0
 35 37  1  0  0  0  0
 37 36  2  0  0  0  0
 37 34  1  0  0  0  0
 38 37  2  0  0  0  0
 40 39  3  0  0  0  0
 41  7  1  0  0  0  0
 42 43  1  0  0  0  0
 42 41  1  0  0  0  0
 43 44  1  1  0  0  0
 43 49  1  0  0  0  0
 46 45  1  6  0  0  0
 46 43  1  0  0  0  0
 47 46  1  0  0  0  0
 48 47  1  0  0  0  0
 49 50  1  0  0  0  0
 50 52  1  0  0  0  0
 52 53  1  6  0  0  0
 52 51  1  0  0  0  0
M  END
>  <MODEL>
4

>  <REMARK>
 VINA RESULT:       3.1      3.750      8.553
  Name = 
  13 active torsions:
  status: ('A' for Active; 'I' for Inactive)
    1  A    between atoms: C_3  and  C_38
    2  A    between atoms: C_6  and  C_43
    3  A    between atoms: C_8  and  C_38
    4  A    between atoms: C_8  and  C_42
    5  A    between atoms: C_8  and  O_49
    6  A    between atoms: C_9  and  C_27
    7  A    between atoms: C_9  and  S_28
    8  A    between atoms: C_15  and  C_44
    9  A    between atoms: C_16  and  O_49
   10  A    between atoms: C_16  and  C_50
   11  A    between atoms: N_17  and  C_19
   12  A    between atoms: N_17  and  C_42
   13  A    between atoms: C_31  and  C_41
                            x       y       z     vdW  Elec       q    Type
                         _______ _______ _______ _____ _____    ______ ____

>  <TORSDO>
F 13

$$$$
=
 OpenBabel11052410413D

 53 56  0  0  1  0  0  0  0  0999 V2000
  161.9170  209.9800  155.1230 C   0  0  0  0  0  2  0  0  0  0  0  0
  162.3240  210.4080  153.7140 C   0  0  2  0  0  3  0  0  0  0  0  0
  163.1140  209.4660  148.5300 C   0  0  0  0  0  2  0  0  0  0  0  0
  162.1610  209.3030  152.7440 N   0  0  2  0  0  0  0  0  0  0  0  0
  161.9030  204.6830  152.9720 C   0  0  0  0  0  3  0  0  0  0  0  0
  161.8610  207.2970  148.2990 C   0  0  2  0  0  3  0  0  0  0  0  0
  161.0360  212.6120  148.9210 C   0  0  0  0  0  0  0  0  0  0  0  0
  160.8450  207.0900  150.4890 C   0  0  0  0  0  0  0  0  0  0  0  0
  160.9090  212.6970  150.3120 C   0  0  0  0  0  3  0  0  0  0  0  0
  162.8250  209.5870  151.4540 C   0  0  0  0  0  2  0  0  0  0  0  0
  160.7370  209.0300  152.5160 C   0  0  0  0  0  2  0  0  0  0  0  0
  160.7490  207.5240  149.2630 C   0  0  0  0  0  3  0  0  0  0  0  0
  160.4060  209.9290  155.2690 C   0  0  1  0  0  3  0  0  0  0  0  0
  158.4360  208.1060  155.0470 O   0  0  0  0  0  0  0  0  0  0  0  0
  160.5120  205.8620  154.5830 C   0  0  0  0  0  2  0  0  0  0  0  0
  160.8170  207.2410  154.2220 N   0  0  1  0  0  0  0  0  0  0  0  0
  160.3910  207.5600  152.8360 C   0  0  2  0  0  3  0  0  0  0  0  0
  159.9050  208.2110  155.3560 S   0  0  0  0  0  0  0  0  0  0  0  0
  161.7460  211.5490  148.3600 C   0  0  0  0  0  3  0  0  0  0  0  0
  161.4750  211.7170  151.1290 C   0  0  0  0  0  3  0  0  0  0  0  0
  160.9210  206.6330  151.7220 C   0  0  0  0  0  0  0  0  0  0  0  0
  160.9570  205.1160  151.8920 C   0  0  1  0  0  3  0  0  0  0  0  0
  162.3080  210.5540  149.1710 C   0  0  0  0  0  0  0  0  0  0  0  0
  162.1600  210.6260  150.5710 C   0  0  0  0  0  0  0  0  0  0  0  0
  160.1490  207.7110  156.7550 O   0  0  0  0  0  0  0  0  0  0  0  0
  161.6800  205.0050  154.2420 C   0  0  0  0  0  3  0  0  0  0  0  0
  162.2530  208.5990  147.6200 C   0  0  0  0  0  2  0  0  0  0  0  0
  164.2320  211.3290  154.9390 C   0  0  0  0  0  2  0  0  0  0  0  0
  164.5650  210.8390  152.6680 O   0  0  0  0  0  1  0  0  0  0  0  0
  163.7470  210.8830  153.7900 C   0  0  0  0  0  0  0  0  0  0  0  0
  160.7470  202.9130  150.7190 C   0  0  0  0  0  1  0  0  0  0  0  0
  161.2690  204.3340  150.6130 C   0  0  0  0  0  2  0  0  0  0  0  0
  158.9700  210.0050  157.1930 O   0  0  0  0  0  1  0  0  0  0  0  0
  159.9400  210.7260  156.4930 C   0  0  2  0  0  3  0  0  0  0  0  0
  160.1010  213.6280  156.8500 C   0  0  0  0  0  1  0  0  0  0  0  0
  159.3690  212.4950  154.5310 O   0  0  0  0  0  0  0  0  0  0  0  0
  159.2480  212.3080  156.0180 S   0  0  0  0  0  0  0  0  0  0  0  0
  157.7960  212.3540  156.4040 O   0  0  0  0  0  0  0  0  0  0  0  0
  161.0820  205.5840  146.4730 N   0  0  0  0  0  0  0  0  0  0  0  0
  161.4250  206.3410  147.2800 C   0  0  0  0  0  0  0  0  0  0  0  0
  160.4670  213.6020  148.0630 N   0  0  0  0  0  2  0  0  0  0  0  0
  161.0550  213.9690  146.7800 C   0  0  0  0  0  2  0  0  0  0  0  0
  160.3220  213.2930  145.6190 C   0  0  1  0  0  0  0  0  0  0  0  0
  159.7750  214.3910  144.6980 C   0  0  0  0  0  1  0  0  0  0  0  0
  162.3140  213.1660  144.2690 F   0  0  0  0  0  0  0  0  0  0  0  0
  161.3290  212.3910  144.8600 C   0  0  2  0  0  3  0  0  0  0  0  0
  160.6860  211.5040  143.7980 C   0  0  0  0  0  2  0  0  0  0  0  0
  161.0360  212.0030  142.4100 C   0  0  0  0  0  1  0  0  0  0  0  0
  159.2660  212.5190  146.1690 O   0  0  0  0  0  0  0  0  0  0  0  0
  158.0200  213.0820  145.8290 C   0  0  0  0  0  2  0  0  0  0  0  0
  157.7300  212.8100  148.1800 O   0  0  0  0  0  1  0  0  0  0  0  0
  157.0390  212.8920  146.9710 C   0  0  1  0  0  3  0  0  0  0  0  0
  156.0850  214.0670  147.0150 C   0  0  0  0  0  1  0  0  0  0  0  0
  1 13  1  0  0  0  0
  2 30  1  1  0  0  0
  2  1  1  0  0  0  0
  3 23  1  0  0  0  0
  4 10  1  6  0  0  0
  4  2  1  0  0  0  0
  5 26  2  0  0  0  0
  6 40  1  6  0  0  0
  6 12  1  0  0  0  0
  7  9  1  0  0  0  0
  8 21  2  0  0  0  0
  9 20  2  0  0  0  0
 11  4  1  0  0  0  0
 12  8  2  0  0  0  0
 13 18  1  0  0  0  0
 13 34  1  1  0  0  0
 14 18  2  0  0  0  0
 16 15  1  1  0  0  0
 16 18  1  0  0  0  0
 17 11  1  6  0  0  0
 17 16  1  0  0  0  0
 18 25  2  0  0  0  0
 19  7  2  0  0  0  0
 19 23  1  0  0  0  0
 21 22  1  0  0  0  0
 21 17  1  0  0  0  0
 22 32  1  6  0  0  0
 22  5  1  0  0  0  0
 23 24  2  0  0  0  0
 24 20  1  0  0  0  0
 24 10  1  0  0  0  0
 26 15  1  0  0  0  0
 27  6  1  0  0  0  0
 27  3  1  0  0  0  0
 29 30  1  0  0  0  0
 30 28  2  0  0  0  0
 32 31  1  0  0  0  0
 34 33  1  6  0  0  0
 36 37  2  0  0  0  0
 37 38  2  0  0  0  0
 37 34  1  0  0  0  0
 37 35  1  0  0  0  0
 39 40  3  0  0  0  0
 41  7  1  0  0  0  0
 42 41  1  0  0  0  0
 43 44  1  6  0  0  0
 43 49  1  0  0  0  0
 43 42  1  0  0  0  0
 46 45  1  6  0  0  0
 46 43  1  0  0  0  0
 47 46  1  0  0  0  0
 48 47  1  0  0  0  0
 50 49  1  0  0  0  0
 50 52  1  0  0  0  0
 52 53  1  1  0  0  0
 52 51  1  0  0  0  0
M  END
>  <MODEL>
5

>  <REMARK>
 VINA RESULT:       3.6      1.322      2.276
  Name = 
  13 active torsions:
  status: ('A' for Active; 'I' for Inactive)
    1  A    between atoms: C_3  and  C_38
    2  A    between atoms: C_6  and  C_43
    3  A    between atoms: C_8  and  C_38
    4  A    between atoms: C_8  and  C_42
    5  A    between atoms: C_8  and  O_49
    6  A    between atoms: C_9  and  C_27
    7  A    between atoms: C_9  and  S_28
    8  A    between atoms: C_15  and  C_44
    9  A    between atoms: C_16  and  O_49
   10  A    between atoms: C_16  and  C_50
   11  A    between atoms: N_17  and  C_19
   12  A    between atoms: N_17  and  C_42
   13  A    between atoms: C_31  and  C_41
                            x       y       z     vdW  Elec       q    Type
                         _______ _______ _______ _____ _____    ______ ____

>  <TORSDO>
F 13

$$$$
=
 OpenBabel11052410413D

 53 56  0  0  1  0  0  0  0  0999 V2000
  159.8270  213.5250  148.0760 C   0  0  0  0  0  2  0  0  0  0  0  0
  160.8910  212.5920  148.6520 C   0  0  2  0  0  3  0  0  0  0  0  0
  162.9460  209.5990  152.5520 C   0  0  0  0  0  2  0  0  0  0  0  0
  160.5510  212.1650  150.0270 N   0  0  2  0  0  0  0  0  0  0  0  0
  157.8470  213.7590  153.4350 C   0  0  0  0  0  3  0  0  0  0  0  0
  160.9390  209.4310  154.0570 C   0  0  2  0  0  3  0  0  0  0  0  0
  162.8600  207.5790  149.3460 C   0  0  0  0  0  0  0  0  0  0  0  0
  159.2310  210.4980  152.7080 C   0  0  0  0  0  0  0  0  0  0  0  0
  162.2850  208.4890  148.4520 C   0  0  0  0  0  3  0  0  0  0  0  0
  161.6920  211.5200  150.7110 C   0  0  0  0  0  2  0  0  0  0  0  0
  159.4050  211.2490  150.0090 C   0  0  0  0  0  2  0  0  0  0  0  0
  159.8460  209.3980  153.0460 C   0  0  0  0  0  3  0  0  0  0  0  0
  158.5900  212.7540  147.6490 C   0  0  1  0  0  3  0  0  0  0  0  0
  156.2130  212.0490  148.6970 O   0  0  0  0  0  0  0  0  0  0  0  0
  156.7970  213.7070  151.2410 C   0  0  0  0  0  2  0  0  0  0  0  0
  157.8880  213.1530  150.4490 N   0  0  1  0  0  0  0  0  0  0  0  0
  158.2500  211.7800  150.8840 C   0  0  2  0  0  3  0  0  0  0  0  0
  157.2740  213.1080  148.8120 S   0  0  0  0  0  0  0  0  0  0  0  0
  163.0560  207.9530  150.6760 C   0  0  0  0  0  3  0  0  0  0  0  0
  161.8980  209.7550  148.8930 C   0  0  0  0  0  3  0  0  0  0  0  0
  158.5870  211.5990  152.3790 C   0  0  0  0  0  0  0  0  0  0  0  0
  157.7570  212.2620  153.4740 C   0  0  1  0  0  3  0  0  0  0  0  0
  162.6600  209.2180  151.1320 C   0  0  0  0  0  0  0  0  0  0  0  0
  162.0590  210.1270  150.2370 C   0  0  0  0  0  0  0  0  0  0  0  0
  156.6750  214.4440  148.4640 O   0  0  0  0  0  0  0  0  0  0  0  0
  157.3700  214.4430  152.4000 C   0  0  0  0  0  3  0  0  0  0  0  0
  162.1760  208.7230  153.5290 C   0  0  0  0  0  2  0  0  0  0  0  0
  162.3780  214.4080  149.3440 C   0  0  0  0  0  2  0  0  0  0  0  0
  163.2330  212.8700  147.7900 O   0  0  0  0  0  1  0  0  0  0  0  0
  162.2000  213.3270  148.5990 C   0  0  0  0  0  0  0  0  0  0  0  0
  157.3600  212.6550  155.9160 C   0  0  0  0  0  1  0  0  0  0  0  0
  158.0650  211.7820  154.8950 C   0  0  0  0  0  2  0  0  0  0  0  0
  157.2290  212.1980  145.7500 O   0  0  0  0  0  1  0  0  0  0  0  0
  158.1920  213.0980  146.2090 C   0  0  2  0  0  3  0  0  0  0  0  0
  159.0640  212.9330  143.4180 C   0  0  0  0  0  1  0  0  0  0  0  0
  160.4450  214.2720  145.2870 O   0  0  0  0  0  0  0  0  0  0  0  0
  159.6040  213.0390  145.1080 S   0  0  0  0  0  0  0  0  0  0  0  0
  160.4330  211.8260  145.4250 O   0  0  0  0  0  0  0  0  0  0  0  0
  160.1280  208.2200  156.2370 N   0  0  0  0  0  0  0  0  0  0  0  0
  160.4860  208.7560  155.2750 C   0  0  0  0  0  0  0  0  0  0  0  0
  163.2650  206.2770  148.9200 N   0  0  0  0  0  2  0  0  0  0  0  0
  162.4790  205.4680  147.9940 C   0  0  0  0  0  2  0  0  0  0  0  0
  161.4450  204.6190  148.7390 C   0  0  1  0  0  0  0  0  0  0  0  0
  160.0480  205.0960  148.3220 C   0  0  0  0  0  1  0  0  0  0  0  0
  161.3290  202.9360  147.0190 F   0  0  0  0  0  0  0  0  0  0  0  0
  161.6570  203.1330  148.3510 C   0  0  2  0  0  3  0  0  0  0  0  0
  160.8680  202.1510  149.2120 C   0  0  0  0  0  2  0  0  0  0  0  0
  161.7450  200.9820  149.6180 C   0  0  0  0  0  1  0  0  0  0  0  0
  161.6520  204.8120  150.1310 O   0  0  0  0  0  0  0  0  0  0  0  0
  160.4230  205.0350  150.7820 C   0  0  0  0  0  2  0  0  0  0  0  0
  160.8230  203.0690  152.0710 O   0  0  0  0  0  1  0  0  0  0  0  0
  160.4490  204.4100  152.1630 C   0  0  1  0  0  3  0  0  0  0  0  0
  161.4450  205.1510  153.0310 C   0  0  0  0  0  1  0  0  0  0  0  0
  1  2  1  0  0  0  0
  2 30  1  1  0  0  0
  2  4  1  0  0  0  0
  3 27  1  0  0  0  0
  4 11  1  6  0  0  0
  4 10  1  0  0  0  0
  5 22  1  0  0  0  0
  6 40  1  1  0  0  0
  7 19  1  0  0  0  0
  8 12  2  0  0  0  0
  9 20  1  0  0  0  0
  9  7  2  0  0  0  0
 12  6  1  0  0  0  0
 13 34  1  6  0  0  0
 13  1  1  0  0  0  0
 13 18  1  0  0  0  0
 14 18  2  0  0  0  0
 15 26  1  0  0  0  0
 16 17  1  0  0  0  0
 16 15  1  1  0  0  0
 17 11  1  6  0  0  0
 17 21  1  0  0  0  0
 18 16  1  0  0  0  0
 19 23  2  0  0  0  0
 20 24  2  0  0  0  0
 21  8  2  0  0  0  0
 21 22  1  0  0  0  0
 22 32  1  1  0  0  0
 23  3  1  0  0  0  0
 24 10  1  0  0  0  0
 24 23  1  0  0  0  0
 25 18  2  0  0  0  0
 26  5  2  0  0  0  0
 27  6  1  0  0  0  0
 29 30  1  0  0  0  0
 30 28  2  0  0  0  0
 32 31  1  0  0  0  0
 34 33  1  6  0  0  0
 35 37  1  0  0  0  0
 37 36  2  0  0  0  0
 37 38  2  0  0  0  0
 37 34  1  0  0  0  0
 40 39  3  0  0  0  0
 41  7  1  0  0  0  0
 42 43  1  0  0  0  0
 42 41  1  0  0  0  0
 43 44  1  6  0  0  0
 43 49  1  0  0  0  0
 46 45  1  6  0  0  0
 46 43  1  0  0  0  0
 46 47  1  0  0  0  0
 47 48  1  0  0  0  0
 49 50  1  0  0  0  0
 50 52  1  0  0  0  0
 51 52  1  0  0  0  0
 52 53  1  1  0  0  0
M  END
>  <MODEL>
6

>  <REMARK>
 VINA RESULT:       3.8      3.787      8.899
  Name = 
  13 active torsions:
  status: ('A' for Active; 'I' for Inactive)
    1  A    between atoms: C_3  and  C_38
    2  A    between atoms: C_6  and  C_43
    3  A    between atoms: C_8  and  C_38
    4  A    between atoms: C_8  and  C_42
    5  A    between atoms: C_8  and  O_49
    6  A    between atoms: C_9  and  C_27
    7  A    between atoms: C_9  and  S_28
    8  A    between atoms: C_15  and  C_44
    9  A    between atoms: C_16  and  O_49
   10  A    between atoms: C_16  and  C_50
   11  A    between atoms: N_17  and  C_19
   12  A    between atoms: N_17  and  C_42
   13  A    between atoms: C_31  and  C_41
                            x       y       z     vdW  Elec       q    Type
                         _______ _______ _______ _____ _____    ______ ____

>  <TORSDO>
F 13

$$$$
=
 OpenBabel11052410413D

 53 56  0  0  1  0  0  0  0  0999 V2000
  160.8090  212.9880  149.4190 C   0  0  0  0  0  2  0  0  0  0  0  0
  161.5560  211.6670  149.2500 C   0  0  2  0  0  3  0  0  0  0  0  0
  163.3240  206.9700  151.0410 C   0  0  0  0  0  2  0  0  0  0  0  0
  161.4760  210.8380  150.4730 N   0  0  2  0  0  0  0  0  0  0  0  0
  160.6340  211.6030  154.9640 C   0  0  0  0  0  3  0  0  0  0  0  0
  161.9040  206.7440  153.1050 C   0  0  2  0  0  3  0  0  0  0  0  0
  161.5950  206.4600  147.7070 C   0  0  0  0  0  0  0  0  0  0  0  0
  160.4240  208.6510  152.8860 C   0  0  0  0  0  0  0  0  0  0  0  0
  161.1830  207.7620  147.3980 C   0  0  0  0  0  3  0  0  0  0  0  0
  162.4300  209.7090  150.4480 C   0  0  0  0  0  2  0  0  0  0  0  0
  160.1130  210.3270  150.6560 C   0  0  0  0  0  2  0  0  0  0  0  0
  160.6460  207.3900  152.6390 C   0  0  0  0  0  3  0  0  0  0  0  0
  159.3060  212.7890  149.3190 C   0  0  1  0  0  3  0  0  0  0  0  0
  157.2300  212.3610  150.9790 O   0  0  0  0  0  0  0  0  0  0  0  0
  159.0780  212.6840  153.4370 C   0  0  0  0  0  2  0  0  0  0  0  0
  159.6130  212.2250  152.1610 N   0  0  1  0  0  0  0  0  0  0  0  0
  159.5350  210.7480  152.0240 C   0  0  2  0  0  3  0  0  0  0  0  0
  158.6000  212.9830  150.9540 S   0  0  0  0  0  0  0  0  0  0  0  0
  162.2790  206.2210  148.9000 C   0  0  0  0  0  3  0  0  0  0  0  0
  161.4410  208.8070  148.2860 C   0  0  0  0  0  3  0  0  0  0  0  0
  160.1800  209.9170  153.1530 C   0  0  0  0  0  0  0  0  0  0  0  0
  160.0000  210.2870  154.6220 C   0  0  1  0  0  3  0  0  0  0  0  0
  162.5330  207.2620  149.8030 C   0  0  0  0  0  0  0  0  0  0  0  0
  162.0970  208.5690  149.5040 C   0  0  0  0  0  0  0  0  0  0  0  0
  158.4780  214.4530  151.2520 O   0  0  0  0  0  0  0  0  0  0  0  0
  160.1840  212.7350  154.4320 C   0  0  0  0  0  3  0  0  0  0  0  0
  162.5830  206.0090  151.9610 C   0  0  0  0  0  2  0  0  0  0  0  0
  163.2430  212.5660  147.7230 C   0  0  0  0  0  2  0  0  0  0  0  0
  164.0080  211.7500  149.7870 O   0  0  0  0  0  1  0  0  0  0  0  0
  162.9750  212.0040  148.8920 C   0  0  0  0  0  0  0  0  0  0  0  0
  160.5690  209.8100  157.0150 C   0  0  0  0  0  1  0  0  0  0  0  0
  160.4850  209.2280  155.6160 C   0  0  0  0  0  2  0  0  0  0  0  0
  157.5670  214.3820  148.8640 O   0  0  0  0  0  1  0  0  0  0  0  0
  158.6850  213.7580  148.3060 C   0  0  2  0  0  3  0  0  0  0  0  0
  159.5950  212.1830  146.0110 C   0  0  0  0  0  1  0  0  0  0  0  0
  157.1880  211.8310  147.1440 O   0  0  0  0  0  0  0  0  0  0  0  0
  158.1830  212.9090  146.8110 S   0  0  0  0  0  0  0  0  0  0  0  0
  157.5490  213.8930  145.8680 O   0  0  0  0  0  0  0  0  0  0  0  0
  161.3360  205.0270  155.0030 N   0  0  0  0  0  0  0  0  0  0  0  0
  161.5870  205.7860  154.1660 C   0  0  0  0  0  0  0  0  0  0  0  0
  161.3430  205.3720  146.8150 N   0  0  0  0  0  2  0  0  0  0  0  0
  160.5140  204.2290  147.1790 C   0  0  0  0  0  2  0  0  0  0  0  0
  161.3720  203.0120  147.5350 C   0  0  1  0  0  0  0  0  0  0  0  0
  162.8080  203.2920  147.0730 C   0  0  0  0  0  1  0  0  0  0  0  0
  160.9960  201.4900  149.3640 F   0  0  0  0  0  0  0  0  0  0  0  0
  161.3190  202.8040  149.0700 C   0  0  2  0  0  3  0  0  0  0  0  0
  160.3420  203.7330  149.7860 C   0  0  0  0  0  2  0  0  0  0  0  0
  160.5810  203.6970  151.2830 C   0  0  0  0  0  1  0  0  0  0  0  0
  160.8310  201.8890  146.8540 O   0  0  0  0  0  0  0  0  0  0  0  0
  160.8460  202.1070  145.4620 C   0  0  0  0  0  2  0  0  0  0  0  0
  160.7200  199.7720  144.9980 O   0  0  0  0  0  1  0  0  0  0  0  0
  160.0930  200.9950  144.7580 C   0  0  1  0  0  3  0  0  0  0  0  0
  158.6720  200.9420  145.2770 C   0  0  0  0  0  1  0  0  0  0  0  0
  2 30  1  1  0  0  0
  2  1  1  0  0  0  0
  2  4  1  0  0  0  0
  3 27  1  0  0  0  0
  4 10  1  6  0  0  0
  4 11  1  0  0  0  0
  6 40  1  1  0  0  0
  7 19  1  0  0  0  0
  8 21  2  0  0  0  0
  9  7  2  0  0  0  0
  9 20  1  0  0  0  0
 12  8  2  0  0  0  0
 12  6  1  0  0  0  0
 13 34  1  6  0  0  0
 13  1  1  0  0  0  0
 13 18  1  0  0  0  0
 15 26  1  0  0  0  0
 16 15  1  1  0  0  0
 17 11  1  6  0  0  0
 17 16  1  0  0  0  0
 17 21  1  0  0  0  0
 18 14  2  0  0  0  0
 18 25  2  0  0  0  0
 18 16  1  0  0  0  0
 19 23  2  0  0  0  0
 20 24  2  0  0  0  0
 21 22  1  0  0  0  0
 22  5  1  0  0  0  0
 22 32  1  1  0  0  0
 23  3  1  0  0  0  0
 24 23  1  0  0  0  0
 24 10  1  0  0  0  0
 26  5  2  0  0  0  0
 27  6  1  0  0  0  0
 28 30  2  0  0  0  0
 30 29  1  0  0  0  0
 32 31  1  0  0  0  0
 34 33  1  1  0  0  0
 35 37  1  0  0  0  0
 37 36  2  0  0  0  0
 37 34  1  0  0  0  0
 38 37  2  0  0  0  0
 40 39  3  0  0  0  0
 41 42  1  0  0  0  0
 41  7  1  0  0  0  0
 42 43  1  0  0  0  0
 43 44  1  6  0  0  0
 43 46  1  0  0  0  0
 46 45  1  6  0  0  0
 46 47  1  0  0  0  0
 47 48  1  0  0  0  0
 49 43  1  0  0  0  0
 50 49  1  0  0  0  0
 52 51  1  0  0  0  0
 52 53  1  1  0  0  0
 52 50  1  0  0  0  0
M  END
>  <MODEL>
7

>  <REMARK>
 VINA RESULT:       3.9      4.114      8.121
  Name = 
  13 active torsions:
  status: ('A' for Active; 'I' for Inactive)
    1  A    between atoms: C_3  and  C_38
    2  A    between atoms: C_6  and  C_43
    3  A    between atoms: C_8  and  C_38
    4  A    between atoms: C_8  and  C_42
    5  A    between atoms: C_8  and  O_49
    6  A    between atoms: C_9  and  C_27
    7  A    between atoms: C_9  and  S_28
    8  A    between atoms: C_15  and  C_44
    9  A    between atoms: C_16  and  O_49
   10  A    between atoms: C_16  and  C_50
   11  A    between atoms: N_17  and  C_19
   12  A    between atoms: N_17  and  C_42
   13  A    between atoms: C_31  and  C_41
                            x       y       z     vdW  Elec       q    Type
                         _______ _______ _______ _____ _____    ______ ____

>  <TORSDO>
F 13

$$$$
=
 OpenBabel11052410413D

 53 56  0  0  1  0  0  0  0  0999 V2000
  160.7070  213.1870  149.5670 C   0  0  0  0  0  2  0  0  0  0  0  0
  161.4750  211.9000  149.2730 C   0  0  2  0  0  3  0  0  0  0  0  0
  163.3890  207.1180  150.6360 C   0  0  0  0  0  2  0  0  0  0  0  0
  161.4490  210.9760  150.4280 N   0  0  2  0  0  0  0  0  0  0  0  0
  160.7270  211.3670  154.9880 C   0  0  0  0  0  3  0  0  0  0  0  0
  162.0370  206.6990  152.7150 C   0  0  2  0  0  3  0  0  0  0  0  0
  161.5720  206.8320  147.3220 C   0  0  0  0  0  0  0  0  0  0  0  0
  160.5130  208.5830  152.6890 C   0  0  0  0  0  0  0  0  0  0  0  0
  161.1250  208.1450  147.1290 C   0  0  0  0  0  3  0  0  0  0  0  0
  162.4240  209.8730  150.2870 C   0  0  0  0  0  2  0  0  0  0  0  0
  160.1020  210.4220  150.6080 C   0  0  0  0  0  2  0  0  0  0  0  0
  160.7530  207.3500  152.3370 C   0  0  0  0  0  3  0  0  0  0  0  0
  159.2060  212.9620  149.4940 C   0  0  1  0  0  3  0  0  0  0  0  0
  157.1900  212.3600  151.1740 O   0  0  0  0  0  0  0  0  0  0  0  0
  159.1040  212.5290  153.5960 C   0  0  0  0  0  2  0  0  0  0  0  0
  159.6100  212.1840  152.2730 N   0  0  1  0  0  0  0  0  0  0  0  0
  159.5570  210.7210  152.0210 C   0  0  2  0  0  3  0  0  0  0  0  0
  158.5460  213.0120  151.1590 S   0  0  0  0  0  0  0  0  0  0  0  0
  162.2950  206.5150  148.4730 C   0  0  0  0  0  3  0  0  0  0  0  0
  161.3880  209.1230  148.0890 C   0  0  0  0  0  3  0  0  0  0  0  0
  160.2520  209.8190  153.0630 C   0  0  0  0  0  0  0  0  0  0  0  0
  160.1090  210.0680  154.5610 C   0  0  1  0  0  3  0  0  0  0  0  0
  162.5560  207.4880  149.4480 C   0  0  0  0  0  0  0  0  0  0  0  0
  162.0850  208.8040  149.2660 C   0  0  0  0  0  0  0  0  0  0  0  0
  158.4030  214.4510  151.5750 O   0  0  0  0  0  0  0  0  0  0  0  0
  160.2380  212.5270  154.5600 C   0  0  0  0  0  3  0  0  0  0  0  0
  162.6960  206.0710  151.4970 C   0  0  0  0  0  2  0  0  0  0  0  0
  163.8930  211.8910  149.6470 C   0  0  0  0  0  2  0  0  0  0  0  0
  163.1140  213.0670  147.7710 O   0  0  0  0  0  1  0  0  0  0  0  0
  162.8750  212.2950  148.9020 C   0  0  0  0  0  0  0  0  0  0  0  0
  160.0740  209.0620  156.8550 C   0  0  0  0  0  1  0  0  0  0  0  0
  160.6440  208.9450  155.4540 C   0  0  0  0  0  2  0  0  0  0  0  0
  157.1650  214.0440  148.8380 O   0  0  0  0  0  1  0  0  0  0  0  0
  158.5360  213.9940  148.5790 C   0  0  2  0  0  3  0  0  0  0  0  0
  157.3270  214.0040  145.9120 C   0  0  0  0  0  1  0  0  0  0  0  0
  159.9580  214.3550  146.3090 O   0  0  0  0  0  0  0  0  0  0  0  0
  158.7800  213.5920  146.8510 S   0  0  0  0  0  0  0  0  0  0  0  0
  159.0400  212.1190  146.7140 O   0  0  0  0  0  0  0  0  0  0  0  0
  161.5610  204.8280  154.4900 N   0  0  0  0  0  0  0  0  0  0  0  0
  161.7710  205.6530  153.7050 C   0  0  0  0  0  0  0  0  0  0  0  0
  161.3150  205.8130  146.3550 N   0  0  0  0  0  2  0  0  0  0  0  0
  162.0840  204.5750  146.2880 C   0  0  0  0  0  2  0  0  0  0  0  0
  161.2580  203.3810  146.7720 C   0  0  1  0  0  0  0  0  0  0  0  0
  159.8710  203.8960  147.1790 C   0  0  0  0  0  1  0  0  0  0  0  0
  160.2320  202.8050  144.6690 F   0  0  0  0  0  0  0  0  0  0  0  0
  161.1440  202.3590  145.6110 C   0  0  2  0  0  3  0  0  0  0  0  0
  160.7540  200.9540  146.0610 C   0  0  0  0  0  2  0  0  0  0  0  0
  159.6890  200.3830  145.1450 C   0  0  0  0  0  1  0  0  0  0  0  0
  161.9340  202.8110  147.8830 O   0  0  0  0  0  0  0  0  0  0  0  0
  161.1530  202.9400  149.0480 C   0  0  0  0  0  2  0  0  0  0  0  0
  161.4920  201.9210  151.1770 O   0  0  0  0  0  1  0  0  0  0  0  0
  161.1930  201.6480  149.8420 C   0  0  1  0  0  3  0  0  0  0  0  0
  159.8440  200.9640  149.7590 C   0  0  0  0  0  1  0  0  0  0  0  0
  2 30  1  1  0  0  0
  2  1  1  0  0  0  0
  2  4  1  0  0  0  0
  3 27  1  0  0  0  0
  4 10  1  6  0  0  0
  4 11  1  0  0  0  0
  6 40  1  1  0  0  0
  7 19  1  0  0  0  0
  8 21  2  0  0  0  0
  9  7  2  0  0  0  0
  9 20  1  0  0  0  0
 12  8  2  0  0  0  0
 12  6  1  0  0  0  0
 13 34  1  6  0  0  0
 13  1  1  0  0  0  0
 13 18  1  0  0  0  0
 15 26  1  0  0  0  0
 16 15  1  1  0  0  0
 17 11  1  6  0  0  0
 17 16  1  0  0  0  0
 17 21  1  0  0  0  0
 18 14  2  0  0  0  0
 18 25  2  0  0  0  0
 18 16  1  0  0  0  0
 19 23  2  0  0  0  0
 20 24  2  0  0  0  0
 21 22  1  0  0  0  0
 22  5  1  0  0  0  0
 22 32  1  1  0  0  0
 23  3  1  0  0  0  0
 24 23  1  0  0  0  0
 24 10  1  0  0  0  0
 26  5  2  0  0  0  0
 27  6  1  0  0  0  0
 29 30  1  0  0  0  0
 30 28  2  0  0  0  0
 32 31  1  0  0  0  0
 34 33  1  1  0  0  0
 35 37  1  0  0  0  0
 36 37  2  0  0  0  0
 37 34  1  0  0  0  0
 38 37  2  0  0  0  0
 40 39  3  0  0  0  0
 41  7  1  0  0  0  0
 42 41  1  0  0  0  0
 42 43  1  0  0  0  0
 43 44  1  1  0  0  0
 43 49  1  0  0  0  0
 46 45  1  6  0  0  0
 46 47  1  0  0  0  0
 46 43  1  0  0  0  0
 48 47  1  0  0  0  0
 49 50  1  0  0  0  0
 50 52  1  0  0  0  0
 52 53  1  1  0  0  0
 52 51  1  0  0  0  0
M  END
>  <MODEL>
8

>  <REMARK>
 VINA RESULT:       4.7      3.703      8.181
  Name = 
  13 active torsions:
  status: ('A' for Active; 'I' for Inactive)
    1  A    between atoms: C_3  and  C_38
    2  A    between atoms: C_6  and  C_43
    3  A    between atoms: C_8  and  C_38
    4  A    between atoms: C_8  and  C_42
    5  A    between atoms: C_8  and  O_49
    6  A    between atoms: C_9  and  C_27
    7  A    between atoms: C_9  and  S_28
    8  A    between atoms: C_15  and  C_44
    9  A    between atoms: C_16  and  O_49
   10  A    between atoms: C_16  and  C_50
   11  A    between atoms: N_17  and  C_19
   12  A    between atoms: N_17  and  C_42
   13  A    between atoms: C_31  and  C_41
                            x       y       z     vdW  Elec       q    Type
                         _______ _______ _______ _____ _____    ______ ____

>  <TORSDO>
F 13

$$$$
=
 OpenBabel11052410413D

 53 56  0  0  1  0  0  0  0  0999 V2000
  160.5150  212.5340  149.5150 C   0  0  0  0  0  2  0  0  0  0  0  0
  161.2620  211.2270  149.7810 C   0  0  2  0  0  3  0  0  0  0  0  0
  162.9060  207.2830  152.9630 C   0  0  0  0  0  2  0  0  0  0  0  0
  161.1150  210.7950  151.1880 N   0  0  2  0  0  0  0  0  0  0  0  0
  160.0520  212.8430  155.2050 C   0  0  0  0  0  3  0  0  0  0  0  0
  161.3820  207.6640  154.9280 C   0  0  2  0  0  3  0  0  0  0  0  0
  161.3450  205.7980  149.8450 C   0  0  0  0  0  0  0  0  0  0  0  0
  159.9280  209.4080  154.0820 C   0  0  0  0  0  0  0  0  0  0  0  0
  160.9570  206.9470  149.1460 C   0  0  0  0  0  3  0  0  0  0  0  0
  162.0610  209.7170  151.5450 C   0  0  0  0  0  2  0  0  0  0  0  0
  159.7400  210.3490  151.4440 C   0  0  0  0  0  2  0  0  0  0  0  0
  160.1530  208.1320  154.2290 C   0  0  0  0  0  3  0  0  0  0  0  0
  159.0180  212.3000  149.4020 C   0  0  1  0  0  3  0  0  0  0  0  0
  156.8580  212.3640  151.0080 O   0  0  0  0  0  0  0  0  0  0  0  0
  158.5820  213.4120  153.3510 C   0  0  0  0  0  2  0  0  0  0  0  0
  159.1780  212.6030  152.2960 N   0  0  1  0  0  0  0  0  0  0  0  0
  159.0970  211.1500  152.5960 C   0  0  2  0  0  3  0  0  0  0  0  0
  158.2320  212.9620  150.8700 S   0  0  0  0  0  0  0  0  0  0  0  0
  161.9650  205.9270  151.0890 C   0  0  0  0  0  3  0  0  0  0  0  0
  161.1770  208.2100  149.6980 C   0  0  0  0  0  3  0  0  0  0  0  0
  159.6780  210.6950  153.9510 C   0  0  0  0  0  0  0  0  0  0  0  0
  159.4270  211.4800  155.2350 C   0  0  1  0  0  3  0  0  0  0  0  0
  162.1800  207.1900  151.6560 C   0  0  0  0  0  0  0  0  0  0  0  0
  161.7680  208.3470  150.9640 C   0  0  0  0  0  0  0  0  0  0  0  0
  158.1050  214.4530  150.7140 O   0  0  0  0  0  0  0  0  0  0  0  0
  159.6360  213.7640  154.3410 C   0  0  0  0  0  3  0  0  0  0  0  0
  162.1130  206.6300  154.0870 C   0  0  0  0  0  2  0  0  0  0  0  0
  163.0180  211.7450  148.1580 C   0  0  0  0  0  2  0  0  0  0  0  0
  163.6950  211.3880  150.3770 O   0  0  0  0  0  1  0  0  0  0  0  0
  162.6990  211.4560  149.4100 C   0  0  0  0  0  0  0  0  0  0  0  0
  161.2520  211.1920  156.9270 C   0  0  0  0  0  1  0  0  0  0  0  0
  159.8540  210.7640  156.5200 C   0  0  0  0  0  2  0  0  0  0  0  0
  157.1630  212.4510  147.8850 O   0  0  0  0  0  1  0  0  0  0  0  0
  158.4560  212.9230  148.1180 C   0  0  2  0  0  3  0  0  0  0  0  0
  160.6360  213.8430  146.3930 C   0  0  0  0  0  1  0  0  0  0  0  0
  160.2250  211.2500  146.9460 O   0  0  0  0  0  0  0  0  0  0  0  0
  159.4760  212.5300  146.7000 S   0  0  0  0  0  0  0  0  0  0  0  0
  158.6030  212.3660  145.4880 O   0  0  0  0  0  0  0  0  0  0  0  0
  160.7090  206.5770  157.2170 N   0  0  0  0  0  0  0  0  0  0  0  0
  161.0050  207.0580  156.2070 C   0  0  0  0  0  0  0  0  0  0  0  0
  161.1310  204.4940  149.3020 N   0  0  0  0  0  2  0  0  0  0  0  0
  162.0860  203.8410  148.4130 C   0  0  0  0  0  2  0  0  0  0  0  0
  161.4630  203.5550  147.0440 C   0  0  1  0  0  0  0  0  0  0  0  0
  159.9530  203.8060  147.1470 C   0  0  0  0  0  1  0  0  0  0  0  0
  163.4210  204.7760  146.3510 F   0  0  0  0  0  0  0  0  0  0  0  0
  162.1080  204.5060  146.0030 C   0  0  2  0  0  3  0  0  0  0  0  0
  161.3570  205.8230  145.8200 C   0  0  0  0  0  2  0  0  0  0  0  0
  160.6010  205.8210  144.5070 C   0  0  0  0  0  1  0  0  0  0  0  0
  161.7320  202.1980  146.7230 O   0  0  0  0  0  0  0  0  0  0  0  0
  160.7370  201.3620  147.2670 C   0  0  0  0  0  2  0  0  0  0  0  0
  159.8250  200.3110  145.3310 O   0  0  0  0  0  1  0  0  0  0  0  0
  160.6300  200.0890  146.4490 C   0  0  1  0  0  3  0  0  0  0  0  0
  162.0110  199.6630  145.9980 C   0  0  0  0  0  1  0  0  0  0  0  0
  1  2  1  0  0  0  0
  2 30  1  1  0  0  0
  2  4  1  0  0  0  0
  3 27  1  0  0  0  0
  4 11  1  6  0  0  0
  4 10  1  0  0  0  0
  5 22  1  0  0  0  0
  6 40  1  1  0  0  0
  7 19  1  0  0  0  0
  8 12  2  0  0  0  0
  9 20  1  0  0  0  0
  9  7  2  0  0  0  0
 12  6  1  0  0  0  0
 13 34  1  6  0  0  0
 13  1  1  0  0  0  0
 13 18  1  0  0  0  0
 15 26  1  0  0  0  0
 16 17  1  0  0  0  0
 16 15  1  1  0  0  0
 17 11  1  6  0  0  0
 17 21  1  0  0  0  0
 18 14  2  0  0  0  0
 18 16  1  0  0  0  0
 19 23  2  0  0  0  0
 20 24  2  0  0  0  0
 21  8  2  0  0  0  0
 21 22  1  0  0  0  0
 22 32  1  1  0  0  0
 23  3  1  0  0  0  0
 24 10  1  0  0  0  0
 24 23  1  0  0  0  0
 25 18  2  0  0  0  0
 26  5  2  0  0  0  0
 27  6  1  0  0  0  0
 28 30  2  0  0  0  0
 30 29  1  0  0  0  0
 32 31  1  0  0  0  0
 34 33  1  6  0  0  0
 35 37  1  0  0  0  0
 37 36  2  0  0  0  0
 37 34  1  0  0  0  0
 38 37  2  0  0  0  0
 40 39  3  0  0  0  0
 41  7  1  0  0  0  0
 42 41  1  0  0  0  0
 43 44  1  1  0  0  0
 43 42  1  0  0  0  0
 46 45  1  1  0  0  0
 46 43  1  0  0  0  0
 47 46  1  0  0  0  0
 48 47  1  0  0  0  0
 49 43  1  0  0  0  0
 49 50  1  0  0  0  0
 51 52  1  0  0  0  0
 52 53  1  6  0  0  0
 52 50  1  0  0  0  0
M  END
>  <MODEL>
9

>  <REMARK>
 VINA RESULT:       4.8      4.001      8.332
  Name = 
  13 active torsions:
  status: ('A' for Active; 'I' for Inactive)
    1  A    between atoms: C_3  and  C_38
    2  A    between atoms: C_6  and  C_43
    3  A    between atoms: C_8  and  C_38
    4  A    between atoms: C_8  and  C_42
    5  A    between atoms: C_8  and  O_49
    6  A    between atoms: C_9  and  C_27
    7  A    between atoms: C_9  and  S_28
    8  A    between atoms: C_15  and  C_44
    9  A    between atoms: C_16  and  O_49
   10  A    between atoms: C_16  and  C_50
   11  A    between atoms: N_17  and  C_19
   12  A    between atoms: N_17  and  C_42
   13  A    between atoms: C_31  and  C_41
                            x       y       z     vdW  Elec       q    Type
                         _______ _______ _______ _____ _____    ______ ____

>  <TORSDO>
F 13

$$$$
