=
 OpenBabel11052409433D

 49 52  0  0  1  0  0  0  0  0999 V2000
  159.2060  213.7880  153.6240 C   0  0  2  0  0  3  0  0  0  0  0  0
  158.5780  213.8560  152.2390 C   0  0  0  0  0  2  0  0  0  0  0  0
  160.4530  212.3410  152.1550 C   0  0  2  0  0  3  0  0  0  0  0  0
  160.0700  212.5180  153.6310 C   0  0  2  0  0  3  0  0  0  0  0  0
  159.4440  213.0620  151.3920 N   0  0  0  0  0  0  0  0  0  0  0  0
  158.6600  213.6740  147.7740 C   0  0  0  0  0  0  0  0  0  0  0  0
  157.2110  212.9310  149.6170 N   0  0  0  0  0  1  0  0  0  0  0  0
  160.8510  213.7580  149.5250 C   0  0  0  0  0  3  0  0  0  0  0  0
  159.9240  214.0810  147.3040 C   0  0  0  0  0  0  0  0  0  0  0  0
  159.5970  213.3670  150.0030 C   0  0  0  0  0  0  0  0  0  0  0  0
  161.0130  214.1130  148.1870 C   0  0  0  0  0  3  0  0  0  0  0  0
  158.4950  213.3240  149.1280 C   0  0  0  0  0  0  0  0  0  0  0  0
  157.5340  213.6290  146.8680 C   0  0  0  0  0  0  0  0  0  0  0  0
  156.6310  213.5960  146.1400 N   0  0  0  0  0  0  0  0  0  0  0  0
  160.0930  214.4530  145.9300 N   0  0  0  0  0  2  0  0  0  0  0  0
  160.9080  213.7060  144.9790 C   0  0  0  0  0  2  0  0  0  0  0  0
  160.8280  212.0710  143.2760 F   0  0  0  0  0  0  0  0  0  0  0  0
  158.9260  213.1750  143.7670 F   0  0  0  0  0  0  0  0  0  0  0  0
  160.0810  212.6290  144.2950 C   0  0  0  0  0  0  0  0  0  0  0  0
  159.7460  211.6440  145.2020 F   0  0  0  0  0  0  0  0  0  0  0  0
  161.2510  210.7300  150.3360 C   0  0  0  0  0  2  0  0  0  0  0  0
  162.3280  209.1500  151.8160 C   0  0  2  0  0  3  0  0  0  0  0  0
  161.4970  210.1010  152.6640 C   0  0  0  0  0  2  0  0  0  0  0  0
  161.9340  209.3830  150.3700 C   0  0  0  0  0  2  0  0  0  0  0  0
  160.6150  210.8770  151.7060 C   0  0  1  0  0  3  0  0  0  0  0  0
  161.2400  207.1120  151.5020 N   0  0  0  0  0  0  0  0  0  0  0  0
  162.0420  207.7870  152.1740 N   0  0  0  0  0  0  0  0  0  0  0  0
  160.9540  205.7440  151.8540 C   0  0  0  0  0  2  0  0  0  0  0  0
  161.1700  205.4180  149.3740 C   0  0  0  0  0  3  0  0  0  0  0  0
  160.8130  203.4920  150.7850 C   0  0  0  0  0  3  0  0  0  0  0  0
  160.9880  204.8680  150.6450 C   0  0  0  0  0  0  0  0  0  0  0  0
  161.1760  204.5820  148.2490 C   0  0  0  0  0  0  0  0  0  0  0  0
  160.8260  202.6850  149.6490 C   0  0  0  0  0  3  0  0  0  0  0  0
  161.0040  203.2390  148.4200 N   0  0  0  0  0  0  0  0  0  0  0  0
  161.3560  205.1230  146.9280 N   0  0  0  0  0  0  0  0  0  0  0  0
  161.2970  206.5670  146.7100 C   0  0  0  0  0  1  0  0  0  0  0  0
  160.8860  204.2870  144.7010 C   0  0  0  0  0  2  0  0  0  0  0  0
  161.5910  204.2310  145.8270 C   0  0  0  0  0  3  0  0  0  0  0  0
  158.1640  213.8630  154.7560 C   0  0  2  0  0  3  0  0  0  0  0  0
  158.7900  214.0640  156.1370 C   0  0  0  0  0  1  0  0  0  0  0  0
  157.2350  212.7960  154.7370 O   0  0  0  0  0  0  0  0  0  0  0  0
  156.3530  212.9300  155.8230 C   0  0  0  0  0  2  0  0  0  0  0  0
  155.3840  211.9270  155.7600 O   0  0  0  0  0  1  0  0  0  0  0  0
  159.3270  211.4220  154.1010 O   0  0  0  0  0  0  0  0  0  0  0  0
  160.9790  211.7160  155.6560 O   0  0  0  0  0  1  0  0  0  0  0  0
  160.1600  210.7760  155.0230 C   0  0  1  0  0  3  0  0  0  0  0  0
  159.3330  210.0630  156.0390 C   0  0  0  0  0  0  0  0  0  0  0  0
  157.9810  209.8480  155.8020 O   0  0  0  0  0  0  0  0  0  0  0  0
  159.8460  209.6700  157.1190 O   0  0  0  0  0  1  0  0  0  0  0  0
  1  4  1  0  0  0  0
  1 39  1  1  0  0  0
  2  1  1  0  0  0  0
  3  5  1  6  0  0  0
  3  4  1  0  0  0  0
  4 44  1  6  0  0  0
  5  2  1  0  0  0  0
  6 12  1  0  0  0  0
  8 10  1  0  0  0  0
  9  6  2  0  0  0  0
  9 11  1  0  0  0  0
 10  5  1  0  0  0  0
 11  8  2  0  0  0  0
 12  7  1  0  0  0  0
 12 10  2  0  0  0  0
 13  6  1  0  0  0  0
 14 13  3  0  0  0  0
 15  9  1  0  0  0  0
 16 15  1  0  0  0  0
 17 19  1  0  0  0  0
 18 19  1  0  0  0  0
 19 16  1  0  0  0  0
 19 20  1  0  0  0  0
 21 24  1  0  0  0  0
 22 27  1  1  0  0  0
 22 23  1  0  0  0  0
 24 22  1  0  0  0  0
 25 21  1  6  0  0  0
 25  3  1  0  0  0  0
 25 23  1  0  0  0  0
 26 28  1  0  0  0  0
 26 27  2  0  0  0  0
 29 31  1  0  0  0  0
 31 30  2  0  0  0  0
 31 28  1  0  0  0  0
 32 34  1  0  0  0  0
 32 29  2  0  0  0  0
 33 30  1  0  0  0  0
 34 33  2  0  0  0  0
 35 32  1  0  0  0  0
 36 35  1  0  0  0  0
 37 38  2  0  0  0  0
 38 35  1  0  0  0  0
 39 40  1  1  0  0  0
 41 39  1  0  0  0  0
 41 42  1  0  0  0  0
 43 42  1  0  0  0  0
 44 46  1  0  0  0  0
 46 45  1  1  0  0  0
 46 47  1  0  0  0  0
 47 49  1  0  0  0  0
 48 47  2  0  0  0  0
M  END
>  <MODEL>
1

>  <REMARK>
 VINA RESULT:      -5.7      0.000      0.000
  Name = 
  17 active torsions:
  status: ('A' for Active; 'I' for Inactive)
    1  A    between atoms: C_2  and  N_48
    2  A    between atoms: C_5  and  O_6
    3  A    between atoms: C_5  and  C_7
    4  A    between atoms: O_6  and  C_25
    5  A    between atoms: N_9  and  C_13
    6  A    between atoms: N_9  and  C_31
    7  A    between atoms: C_12  and  C_20
    8  A    between atoms: C_14  and  C_45
    9  A    between atoms: C_15  and  O_32
   10  A    between atoms: N_21  and  C_46
   11  A    between atoms: N_23  and  C_40
   12  A    between atoms: C_24  and  C_44
   13  A    between atoms: C_27  and  C_49
   14  A    between atoms: C_29  and  C_46
   15  A    between atoms: O_32  and  C_44
   16  A    between atoms: C_38  and  N_42
   17  A    between atoms: N_42  and  C_49
                            x       y       z     vdW  Elec       q    Type
                         _______ _______ _______ _____ _____    ______ ____

>  <TORSDO>
F 17

$$$$
=
 OpenBabel11052409433D

 49 52  0  0  1  0  0  0  0  0999 V2000
  161.6930  205.3860  150.1160 C   0  0  2  0  0  3  0  0  0  0  0  0
  160.8940  205.9070  151.3020 C   0  0  0  0  0  2  0  0  0  0  0  0
  161.9860  207.7750  150.2350 C   0  0  2  0  0  3  0  0  0  0  0  0
  161.9830  206.6100  149.2350 C   0  0  2  0  0  3  0  0  0  0  0  0
  161.2120  207.3180  151.3800 N   0  0  0  0  0  0  0  0  0  0  0  0
  160.9090  208.0220  155.0530 C   0  0  0  0  0  0  0  0  0  0  0  0
  160.4570  205.9670  153.7800 N   0  0  0  0  0  1  0  0  0  0  0  0
  161.6090  209.3440  152.6800 C   0  0  0  0  0  3  0  0  0  0  0  0
  161.3260  209.3670  155.0910 C   0  0  0  0  0  0  0  0  0  0  0  0
  161.2090  208.0050  152.6350 C   0  0  0  0  0  0  0  0  0  0  0  0
  161.6670  210.0190  153.8970 C   0  0  0  0  0  3  0  0  0  0  0  0
  160.8580  207.3380  153.8240 C   0  0  0  0  0  0  0  0  0  0  0  0
  160.5450  207.3450  156.2790 C   0  0  0  0  0  0  0  0  0  0  0  0
  160.2500  206.8020  157.2610 N   0  0  0  0  0  0  0  0  0  0  0  0
  161.3930  210.0620  156.3430 N   0  0  0  0  0  2  0  0  0  0  0  0
  160.9530  211.4390  156.5330 C   0  0  0  0  0  2  0  0  0  0  0  0
  158.9010  210.3650  157.0010 F   0  0  0  0  0  0  0  0  0  0  0  0
  159.0070  211.6880  155.1810 F   0  0  0  0  0  0  0  0  0  0  0  0
  159.4360  211.5290  156.4850 C   0  0  0  0  0  0  0  0  0  0  0  0
  159.0030  212.6010  157.2400 F   0  0  0  0  0  0  0  0  0  0  0  0
  161.7710  210.3030  150.5580 C   0  0  0  0  0  2  0  0  0  0  0  0
  162.3710  210.9240  148.3000 C   0  0  2  0  0  3  0  0  0  0  0  0
  162.1340  209.4210  148.3290 C   0  0  0  0  0  2  0  0  0  0  0  0
  161.8660  211.4800  149.6170 C   0  0  0  0  0  2  0  0  0  0  0  0
  161.4830  209.1120  149.6630 C   0  0  1  0  0  3  0  0  0  0  0  0
  161.1390  212.6550  147.3420 N   0  0  0  0  0  0  0  0  0  0  0  0
  161.6360  211.5210  147.2180 N   0  0  0  0  0  0  0  0  0  0  0  0
  160.4060  213.2600  146.2570 C   0  0  0  0  0  2  0  0  0  0  0  0
  160.7500  212.8350  143.8070 C   0  0  0  0  0  3  0  0  0  0  0  0
  162.5320  213.8410  145.0870 C   0  0  0  0  0  3  0  0  0  0  0  0
  161.2410  213.3190  145.0220 C   0  0  0  0  0  0  0  0  0  0  0  0
  161.5590  212.8780  142.6630 C   0  0  0  0  0  0  0  0  0  0  0  0
  163.3130  213.8740  143.9320 C   0  0  0  0  0  3  0  0  0  0  0  0
  162.8170  213.3970  142.7590 N   0  0  0  0  0  0  0  0  0  0  0  0
  161.0800  212.3810  141.4010 N   0  0  0  0  0  0  0  0  0  0  0  0
  161.1560  210.9530  141.0950 C   0  0  0  0  0  1  0  0  0  0  0  0
  159.5740  214.1700  140.7630 C   0  0  0  0  0  2  0  0  0  0  0  0
  160.5280  213.2990  140.4450 C   0  0  0  0  0  3  0  0  0  0  0  0
  160.9920  204.2220  149.3890 C   0  0  2  0  0  3  0  0  0  0  0  0
  160.3150  203.2370  150.3430 C   0  0  0  0  0  1  0  0  0  0  0  0
  161.8190  203.5720  148.4430 O   0  0  0  0  0  0  0  0  0  0  0  0
  161.2280  202.3520  148.0720 C   0  0  0  0  0  2  0  0  0  0  0  0
  160.8410  202.4120  146.7310 O   0  0  0  0  0  1  0  0  0  0  0  0
  160.9750  206.7680  148.2680 O   0  0  0  0  0  0  0  0  0  0  0  0
  162.9410  206.3180  147.1880 O   0  0  0  0  0  1  0  0  0  0  0  0
  161.6440  206.8170  147.0390 C   0  0  1  0  0  3  0  0  0  0  0  0
  160.9050  206.0060  146.0280 C   0  0  0  0  0  0  0  0  0  0  0  0
  159.5430  206.2080  145.8430 O   0  0  0  0  0  1  0  0  0  0  0  0
  161.5020  205.1260  145.3550 O   0  0  0  0  0  0  0  0  0  0  0  0
  1 39  1  6  0  0  0
  1  2  1  0  0  0  0
  2  5  1  0  0  0  0
  3  5  1  1  0  0  0
  4 44  1  6  0  0  0
  4  1  1  0  0  0  0
  4  3  1  0  0  0  0
  5 10  1  0  0  0  0
  6  9  1  0  0  0  0
  6 13  1  0  0  0  0
  7 12  1  0  0  0  0
  8 11  1  0  0  0  0
  9 15  1  0  0  0  0
 10  8  2  0  0  0  0
 10 12  1  0  0  0  0
 11  9  2  0  0  0  0
 12  6  2  0  0  0  0
 13 14  3  0  0  0  0
 15 16  1  0  0  0  0
 18 19  1  0  0  0  0
 19 16  1  0  0  0  0
 19 17  1  0  0  0  0
 19 20  1  0  0  0  0
 22 27  1  6  0  0  0
 22 23  1  0  0  0  0
 22 24  1  0  0  0  0
 24 21  1  0  0  0  0
 25 23  1  6  0  0  0
 25  3  1  0  0  0  0
 25 21  1  0  0  0  0
 27 26  2  0  0  0  0
 28 26  1  0  0  0  0
 29 31  1  0  0  0  0
 31 30  2  0  0  0  0
 31 28  1  0  0  0  0
 32 34  1  0  0  0  0
 32 29  2  0  0  0  0
 33 30  1  0  0  0  0
 34 33  2  0  0  0  0
 35 32  1  0  0  0  0
 36 35  1  0  0  0  0
 38 37  2  0  0  0  0
 38 35  1  0  0  0  0
 39 40  1  1  0  0  0
 41 39  1  0  0  0  0
 42 41  1  0  0  0  0
 43 42  1  0  0  0  0
 46 45  1  1  0  0  0
 46 44  1  0  0  0  0
 47 46  1  0  0  0  0
 48 47  1  0  0  0  0
 49 47  2  0  0  0  0
M  END
>  <MODEL>
2

>  <REMARK>
 VINA RESULT:      -4.7      5.020      9.805
  Name = 
  17 active torsions:
  status: ('A' for Active; 'I' for Inactive)
    1  A    between atoms: C_2  and  N_48
    2  A    between atoms: C_5  and  O_6
    3  A    between atoms: C_5  and  C_7
    4  A    between atoms: O_6  and  C_25
    5  A    between atoms: N_9  and  C_13
    6  A    between atoms: N_9  and  C_31
    7  A    between atoms: C_12  and  C_20
    8  A    between atoms: C_14  and  C_45
    9  A    between atoms: C_15  and  O_32
   10  A    between atoms: N_21  and  C_46
   11  A    between atoms: N_23  and  C_40
   12  A    between atoms: C_24  and  C_44
   13  A    between atoms: C_27  and  C_49
   14  A    between atoms: C_29  and  C_46
   15  A    between atoms: O_32  and  C_44
   16  A    between atoms: C_38  and  N_42
   17  A    between atoms: N_42  and  C_49
                            x       y       z     vdW  Elec       q    Type
                         _______ _______ _______ _____ _____    ______ ____

>  <TORSDO>
F 17

$$$$
=
 OpenBabel11052409433D

 49 52  0  0  1  0  0  0  0  0999 V2000
  161.6060  202.5320  149.2050 C   0  0  2  0  0  3  0  0  0  0  0  0
  161.0010  203.8630  149.6290 C   0  0  0  0  0  2  0  0  0  0  0  0
  161.8480  204.0880  147.3810 C   0  0  2  0  0  3  0  0  0  0  0  0
  161.7120  202.5870  147.6740 C   0  0  2  0  0  3  0  0  0  0  0  0
  161.2870  204.7710  148.5380 N   0  0  0  0  0  0  0  0  0  0  0  0
  161.3480  208.1190  150.2320 C   0  0  0  0  0  0  0  0  0  0  0  0
  160.5120  205.9450  151.0230 N   0  0  0  0  0  1  0  0  0  0  0  0
  162.0660  206.9560  147.7820 C   0  0  0  0  0  3  0  0  0  0  0  0
  161.9590  208.9000  149.2320 C   0  0  0  0  0  0  0  0  0  0  0  0
  161.4730  206.1700  148.7740 C   0  0  0  0  0  0  0  0  0  0  0  0
  162.3080  208.3090  148.0090 C   0  0  0  0  0  3  0  0  0  0  0  0
  161.1120  206.7500  150.0050 C   0  0  0  0  0  0  0  0  0  0  0  0
  160.9760  208.7230  151.4930 C   0  0  0  0  0  0  0  0  0  0  0  0
  160.6800  209.2100  152.5030 N   0  0  0  0  0  0  0  0  0  0  0  0
  162.2150  210.2910  149.4650 N   0  0  0  0  0  2  0  0  0  0  0  0
  162.6740  211.2170  148.4360 C   0  0  0  0  0  2  0  0  0  0  0  0
  162.1230  213.2170  147.3050 F   0  0  0  0  0  0  0  0  0  0  0  0
  161.0650  212.7780  149.2450 F   0  0  0  0  0  0  0  0  0  0  0  0
  161.5830  212.2190  148.0920 C   0  0  0  0  0  0  0  0  0  0  0  0
  160.5690  211.5920  147.3950 F   0  0  0  0  0  0  0  0  0  0  0  0
  160.3270  205.7590  146.1850 C   0  0  0  0  0  2  0  0  0  0  0  0
  161.7500  206.1040  144.2610 C   0  0  2  0  0  3  0  0  0  0  0  0
  162.2840  204.9080  145.0360 C   0  0  0  0  0  2  0  0  0  0  0  0
  160.3840  206.4320  144.8340 C   0  0  0  0  0  2  0  0  0  0  0  0
  161.2200  204.5400  146.0510 C   0  0  1  0  0  3  0  0  0  0  0  0
  162.0760  206.5270  141.9920 N   0  0  0  0  0  0  0  0  0  0  0  0
  161.6150  205.7720  142.8680 N   0  0  0  0  0  0  0  0  0  0  0  0
  161.9480  206.1960  140.5940 C   0  0  0  0  0  2  0  0  0  0  0  0
  162.0580  208.6910  140.3470 C   0  0  0  0  0  3  0  0  0  0  0  0
  161.7910  207.3260  138.3740 C   0  0  0  0  0  3  0  0  0  0  0  0
  161.9410  207.4310  139.7560 C   0  0  0  0  0  0  0  0  0  0  0  0
  162.0260  209.8410  139.5450 C   0  0  0  0  0  0  0  0  0  0  0  0
  161.7650  208.4860  137.6020 C   0  0  0  0  0  3  0  0  0  0  0  0
  161.8810  209.7040  138.1950 N   0  0  0  0  0  0  0  0  0  0  0  0
  162.1390  211.1510  140.1280 N   0  0  0  0  0  0  0  0  0  0  0  0
  162.9180  212.1910  139.4570 C   0  0  0  0  0  1  0  0  0  0  0  0
  160.2840  212.0020  141.4370 C   0  0  0  0  0  2  0  0  0  0  0  0
  161.4820  211.4270  141.3750 C   0  0  0  0  0  3  0  0  0  0  0  0
  160.8280  201.3200  149.7530 C   0  0  2  0  0  3  0  0  0  0  0  0
  159.3220  201.4090  149.5030 C   0  0  0  0  0  1  0  0  0  0  0  0
  161.1320  201.0210  151.1020 O   0  0  0  0  0  0  0  0  0  0  0  0
  161.7200  202.1460  151.7050 C   0  0  0  0  0  2  0  0  0  0  0  0
  160.7750  202.7890  152.5090 O   0  0  0  0  0  1  0  0  0  0  0  0
  160.5550  202.0530  147.0830 O   0  0  0  0  0  0  0  0  0  0  0  0
  161.2180  199.9240  146.5720 O   0  0  0  0  0  1  0  0  0  0  0  0
  161.0130  201.2100  146.0630 C   0  0  1  0  0  3  0  0  0  0  0  0
  160.0120  201.1620  144.9580 C   0  0  0  0  0  0  0  0  0  0  0  0
  159.3720  202.3270  144.5560 O   0  0  0  0  0  1  0  0  0  0  0  0
  159.7280  200.0690  144.4010 O   0  0  0  0  0  0  0  0  0  0  0  0
  1  2  1  0  0  0  0
  1 39  1  6  0  0  0
  3  4  1  0  0  0  0
  3  5  1  1  0  0  0
  4 44  1  6  0  0  0
  4  1  1  0  0  0  0
  5 10  1  0  0  0  0
  5  2  1  0  0  0  0
  6 13  1  0  0  0  0
  8 11  2  0  0  0  0
  8 10  1  0  0  0  0
  9 15  1  0  0  0  0
  9  6  2  0  0  0  0
 10 12  2  0  0  0  0
 11  9  1  0  0  0  0
 12  6  1  0  0  0  0
 12  7  1  0  0  0  0
 13 14  3  0  0  0  0
 16 15  1  0  0  0  0
 17 19  1  0  0  0  0
 19 16  1  0  0  0  0
 19 18  1  0  0  0  0
 20 19  1  0  0  0  0
 22 27  1  6  0  0  0
 22 24  1  0  0  0  0
 22 23  1  0  0  0  0
 24 21  1  0  0  0  0
 25 23  1  6  0  0  0
 25 21  1  0  0  0  0
 25  3  1  0  0  0  0
 26 27  2  0  0  0  0
 28 26  1  0  0  0  0
 30 31  2  0  0  0  0
 31 29  1  0  0  0  0
 31 28  1  0  0  0  0
 32 35  1  0  0  0  0
 32 29  2  0  0  0  0
 33 34  2  0  0  0  0
 33 30  1  0  0  0  0
 34 32  1  0  0  0  0
 35 38  1  0  0  0  0
 36 35  1  0  0  0  0
 38 37  2  0  0  0  0
 39 40  1  1  0  0  0
 39 41  1  0  0  0  0
 41 42  1  0  0  0  0
 42 43  1  0  0  0  0
 46 45  1  1  0  0  0
 46 44  1  0  0  0  0
 47 46  1  0  0  0  0
 48 47  1  0  0  0  0
 49 47  2  0  0  0  0
M  END
>  <MODEL>
3

>  <REMARK>
 VINA RESULT:      -4.6      5.558     10.047
  Name = 
  17 active torsions:
  status: ('A' for Active; 'I' for Inactive)
    1  A    between atoms: C_2  and  N_48
    2  A    between atoms: C_5  and  O_6
    3  A    between atoms: C_5  and  C_7
    4  A    between atoms: O_6  and  C_25
    5  A    between atoms: N_9  and  C_13
    6  A    between atoms: N_9  and  C_31
    7  A    between atoms: C_12  and  C_20
    8  A    between atoms: C_14  and  C_45
    9  A    between atoms: C_15  and  O_32
   10  A    between atoms: N_21  and  C_46
   11  A    between atoms: N_23  and  C_40
   12  A    between atoms: C_24  and  C_44
   13  A    between atoms: C_27  and  C_49
   14  A    between atoms: C_29  and  C_46
   15  A    between atoms: O_32  and  C_44
   16  A    between atoms: C_38  and  N_42
   17  A    between atoms: N_42  and  C_49
                            x       y       z     vdW  Elec       q    Type
                         _______ _______ _______ _____ _____    ______ ____

>  <TORSDO>
F 17

$$$$
=
 OpenBabel11052409433D

 49 52  0  0  1  0  0  0  0  0999 V2000
  161.9050  206.9910  151.3940 C   0  0  2  0  0  3  0  0  0  0  0  0
  160.8060  207.5990  152.2540 C   0  0  0  0  0  2  0  0  0  0  0  0
  161.8160  209.3580  150.9470 C   0  0  2  0  0  3  0  0  0  0  0  0
  162.1950  208.0210  150.2920 C   0  0  2  0  0  3  0  0  0  0  0  0
  160.8920  209.0260  152.0210 N   0  0  0  0  0  0  0  0  0  0  0  0
  160.9730  211.1050  155.1440 C   0  0  0  0  0  0  0  0  0  0  0  0
  162.5140  209.3620  154.3480 N   0  0  0  0  0  1  0  0  0  0  0  0
  159.3710  210.7330  152.8710 C   0  0  0  0  0  3  0  0  0  0  0  0
  159.8170  211.8890  154.9600 C   0  0  0  0  0  0  0  0  0  0  0  0
  160.5240  209.9610  153.0390 C   0  0  0  0  0  0  0  0  0  0  0  0
  159.0200  211.6890  153.8230 C   0  0  0  0  0  3  0  0  0  0  0  0
  161.3310  210.1460  154.1790 C   0  0  0  0  0  0  0  0  0  0  0  0
  161.7950  211.2980  156.3190 C   0  0  0  0  0  0  0  0  0  0  0  0
  162.4560  211.4540  157.2590 N   0  0  0  0  0  0  0  0  0  0  0  0
  159.4580  212.8780  155.9330 N   0  0  0  0  0  2  0  0  0  0  0  0
  158.4010  213.8640  155.7390 C   0  0  0  0  0  2  0  0  0  0  0  0
  156.6150  214.1390  157.2610 F   0  0  0  0  0  0  0  0  0  0  0  0
  157.2190  212.0390  156.7140 F   0  0  0  0  0  0  0  0  0  0  0  0
  157.0690  213.3290  156.2390 C   0  0  0  0  0  0  0  0  0  0  0  0
  156.1440  213.3310  155.2140 F   0  0  0  0  0  0  0  0  0  0  0  0
  161.2430  211.8170  150.5470 C   0  0  0  0  0  2  0  0  0  0  0  0
  162.1360  211.9510  148.3040 C   0  0  2  0  0  3  0  0  0  0  0  0
  162.0830  210.4840  148.7050 C   0  0  0  0  0  2  0  0  0  0  0  0
  161.3510  212.7250  149.3450 C   0  0  0  0  0  2  0  0  0  0  0  0
  161.2580  210.4120  149.9750 C   0  0  1  0  0  3  0  0  0  0  0  0
  160.8460  213.1480  146.7760 N   0  0  0  0  0  0  0  0  0  0  0  0
  161.5270  212.1340  147.0140 N   0  0  0  0  0  0  0  0  0  0  0  0
  160.2380  213.3390  145.4820 C   0  0  0  0  0  2  0  0  0  0  0  0
  160.9760  212.8340  143.1360 C   0  0  0  0  0  3  0  0  0  0  0  0
  162.5520  213.8170  144.6790 C   0  0  0  0  0  3  0  0  0  0  0  0
  161.2730  213.3360  144.4060 C   0  0  0  0  0  0  0  0  0  0  0  0
  161.9690  212.8190  142.1460 C   0  0  0  0  0  0  0  0  0  0  0  0
  163.5180  213.7920  143.6740 C   0  0  0  0  0  3  0  0  0  0  0  0
  163.2100  213.2990  142.4440 N   0  0  0  0  0  0  0  0  0  0  0  0
  161.6920  212.3030  140.8320 N   0  0  0  0  0  0  0  0  0  0  0  0
  162.1100  210.9490  140.4700 C   0  0  0  0  0  1  0  0  0  0  0  0
  161.1330  214.4530  139.8630 C   0  0  0  0  0  2  0  0  0  0  0  0
  161.0040  213.1290  139.8800 C   0  0  0  0  0  3  0  0  0  0  0  0
  161.5510  205.5820  150.8800 C   0  0  2  0  0  3  0  0  0  0  0  0
  160.0450  205.3360  150.7890 C   0  0  0  0  0  1  0  0  0  0  0  0
  162.2240  204.5470  151.5710 O   0  0  0  0  0  0  0  0  0  0  0  0
  161.2980  203.5560  151.9380 C   0  0  0  0  0  2  0  0  0  0  0  0
  161.9220  202.3080  151.9230 O   0  0  0  0  0  1  0  0  0  0  0  0
  161.4040  207.7640  149.1600 O   0  0  0  0  0  0  0  0  0  0  0  0
  163.5630  207.2010  148.6580 O   0  0  0  0  0  1  0  0  0  0  0  0
  162.3090  207.5100  148.1230 C   0  0  1  0  0  3  0  0  0  0  0  0
  161.8210  206.3710  147.2920 C   0  0  0  0  0  0  0  0  0  0  0  0
  160.5170  206.3740  146.8160 O   0  0  0  0  0  0  0  0  0  0  0  0
  162.5770  205.3980  147.0360 O   0  0  0  0  0  1  0  0  0  0  0  0
  1 39  1  6  0  0  0
  1  2  1  0  0  0  0
  3  5  1  1  0  0  0
  4 44  1  6  0  0  0
  4  3  1  0  0  0  0
  4  1  1  0  0  0  0
  5  2  1  0  0  0  0
  5 10  1  0  0  0  0
  6 13  1  0  0  0  0
  8 10  2  0  0  0  0
  8 11  1  0  0  0  0
  9  6  1  0  0  0  0
  9 15  1  0  0  0  0
 10 12  1  0  0  0  0
 11  9  2  0  0  0  0
 12  7  1  0  0  0  0
 12  6  2  0  0  0  0
 13 14  3  0  0  0  0
 16 15  1  0  0  0  0
 16 19  1  0  0  0  0
 19 18  1  0  0  0  0
 19 17  1  0  0  0  0
 20 19  1  0  0  0  0
 22 27  1  6  0  0  0
 22 23  1  0  0  0  0
 22 24  1  0  0  0  0
 24 21  1  0  0  0  0
 25 23  1  6  0  0  0
 25 21  1  0  0  0  0
 25  3  1  0  0  0  0
 26 27  2  0  0  0  0
 28 26  1  0  0  0  0
 29 31  1  0  0  0  0
 31 30  2  0  0  0  0
 31 28  1  0  0  0  0
 32 34  1  0  0  0  0
 32 29  2  0  0  0  0
 33 30  1  0  0  0  0
 34 33  2  0  0  0  0
 35 32  1  0  0  0  0
 36 35  1  0  0  0  0
 37 38  2  0  0  0  0
 38 35  1  0  0  0  0
 39 40  1  1  0  0  0
 39 41  1  0  0  0  0
 41 42  1  0  0  0  0
 43 42  1  0  0  0  0
 46 45  1  1  0  0  0
 46 44  1  0  0  0  0
 47 46  1  0  0  0  0
 48 47  2  0  0  0  0
 49 47  1  0  0  0  0
M  END
>  <MODEL>
4

>  <REMARK>
 VINA RESULT:      -4.6      4.784      9.200
  Name = 
  17 active torsions:
  status: ('A' for Active; 'I' for Inactive)
    1  A    between atoms: C_2  and  N_48
    2  A    between atoms: C_5  and  O_6
    3  A    between atoms: C_5  and  C_7
    4  A    between atoms: O_6  and  C_25
    5  A    between atoms: N_9  and  C_13
    6  A    between atoms: N_9  and  C_31
    7  A    between atoms: C_12  and  C_20
    8  A    between atoms: C_14  and  C_45
    9  A    between atoms: C_15  and  O_32
   10  A    between atoms: N_21  and  C_46
   11  A    between atoms: N_23  and  C_40
   12  A    between atoms: C_24  and  C_44
   13  A    between atoms: C_27  and  C_49
   14  A    between atoms: C_29  and  C_46
   15  A    between atoms: O_32  and  C_44
   16  A    between atoms: C_38  and  N_42
   17  A    between atoms: N_42  and  C_49
                            x       y       z     vdW  Elec       q    Type
                         _______ _______ _______ _____ _____    ______ ____

>  <TORSDO>
F 17

$$$$
=
 OpenBabel11052409433D

 49 52  0  0  1  0  0  0  0  0999 V2000
  160.9360  211.4120  153.9060 C   0  0  2  0  0  3  0  0  0  0  0  0
  160.2840  211.7340  152.5690 C   0  0  0  0  0  2  0  0  0  0  0  0
  162.0760  210.1650  152.1880 C   0  0  2  0  0  3  0  0  0  0  0  0
  161.7330  210.1180  153.6840 C   0  0  2  0  0  3  0  0  0  0  0  0
  161.0900  211.0470  151.5810 N   0  0  0  0  0  0  0  0  0  0  0  0
  160.4170  212.9290  148.4050 C   0  0  0  0  0  0  0  0  0  0  0  0
  159.0500  212.6840  150.4340 N   0  0  0  0  0  1  0  0  0  0  0  0
  162.3930  211.2860  149.5330 C   0  0  0  0  0  3  0  0  0  0  0  0
  161.5990  212.6530  147.6890 C   0  0  0  0  0  0  0  0  0  0  0  0
  161.2300  211.5660  150.2550 C   0  0  0  0  0  0  0  0  0  0  0  0
  162.5760  211.8250  148.2600 C   0  0  0  0  0  3  0  0  0  0  0  0
  160.2360  212.3910  149.6930 C   0  0  0  0  0  0  0  0  0  0  0  0
  159.3990  213.7730  147.8180 C   0  0  0  0  0  0  0  0  0  0  0  0
  158.5860  214.4510  147.3460 N   0  0  0  0  0  0  0  0  0  0  0  0
  161.7930  213.2110  146.3830 N   0  0  0  0  0  2  0  0  0  0  0  0
  162.9840  212.9870  145.5720 C   0  0  0  0  0  2  0  0  0  0  0  0
  161.8190  214.4170  144.0960 F   0  0  0  0  0  0  0  0  0  0  0  0
  162.2210  212.3050  143.4200 F   0  0  0  0  0  0  0  0  0  0  0  0
  162.7300  213.3800  144.1260 C   0  0  0  0  0  0  0  0  0  0  0  0
  163.9070  213.7950  143.5360 F   0  0  0  0  0  0  0  0  0  0  0  0
  161.1440  207.7890  152.0360 C   0  0  0  0  0  2  0  0  0  0  0  0
  161.0970  207.6610  149.6230 C   0  0  2  0  0  3  0  0  0  0  0  0
  161.8940  208.8960  150.0150 C   0  0  0  0  0  2  0  0  0  0  0  0
  160.8900  206.8460  150.8840 C   0  0  0  0  0  2  0  0  0  0  0  0
  162.1540  208.7880  151.5040 C   0  0  1  0  0  3  0  0  0  0  0  0
  161.5130  206.8870  147.4630 N   0  0  0  0  0  0  0  0  0  0  0  0
  161.8340  206.8790  148.6660 N   0  0  0  0  0  0  0  0  0  0  0  0
  162.2520  206.1090  146.5000 C   0  0  0  0  0  2  0  0  0  0  0  0
  161.6030  203.8940  147.4880 C   0  0  0  0  0  3  0  0  0  0  0  0
  161.2350  204.2830  145.1340 C   0  0  0  0  0  3  0  0  0  0  0  0
  161.6780  204.7360  146.3760 C   0  0  0  0  0  0  0  0  0  0  0  0
  161.0820  202.6000  147.3460 C   0  0  0  0  0  0  0  0  0  0  0  0
  160.7190  202.9930  145.0240 C   0  0  0  0  0  3  0  0  0  0  0  0
  160.6550  202.1880  146.1180 N   0  0  0  0  0  0  0  0  0  0  0  0
  160.9990  201.7110  148.4740 N   0  0  0  0  0  0  0  0  0  0  0  0
  161.3620  200.3020  148.3290 C   0  0  0  0  0  1  0  0  0  0  0  0
  160.9670  201.7090  150.8980 C   0  0  0  0  0  2  0  0  0  0  0  0
  160.5540  202.2190  149.7410 C   0  0  0  0  0  3  0  0  0  0  0  0
  159.9230  211.3520  155.0660 C   0  0  2  0  0  3  0  0  0  0  0  0
  158.4730  211.5170  154.6080 C   0  0  0  0  0  1  0  0  0  0  0  0
  160.2490  212.2120  156.1410 O   0  0  0  0  0  0  0  0  0  0  0  0
  159.1680  213.0760  156.3870 C   0  0  0  0  0  2  0  0  0  0  0  0
  159.4640  214.3450  155.8860 O   0  0  0  0  0  1  0  0  0  0  0  0
  160.9450  208.9970  153.9920 O   0  0  0  0  0  0  0  0  0  0  0  0
  162.1600  209.4350  155.8810 O   0  0  0  0  0  1  0  0  0  0  0  0
  161.5280  208.4350  155.1350 C   0  0  1  0  0  3  0  0  0  0  0  0
  160.4810  207.7730  155.9650 C   0  0  0  0  0  0  0  0  0  0  0  0
  159.3830  207.1850  155.3500 O   0  0  0  0  0  0  0  0  0  0  0  0
  160.5740  207.7600  157.2200 O   0  0  0  0  0  1  0  0  0  0  0  0
  1 39  1  1  0  0  0
  2  1  1  0  0  0  0
  3  5  1  6  0  0  0
  3  4  1  0  0  0  0
  4  1  1  0  0  0  0
  4 44  1  6  0  0  0
  5  2  1  0  0  0  0
  6 12  1  0  0  0  0
  8 10  1  0  0  0  0
  9 11  1  0  0  0  0
  9  6  2  0  0  0  0
 10  5  1  0  0  0  0
 11  8  2  0  0  0  0
 12 10  2  0  0  0  0
 12  7  1  0  0  0  0
 13  6  1  0  0  0  0
 14 13  3  0  0  0  0
 15  9  1  0  0  0  0
 16 15  1  0  0  0  0
 17 19  1  0  0  0  0
 18 19  1  0  0  0  0
 19 16  1  0  0  0  0
 20 19  1  0  0  0  0
 22 27  1  6  0  0  0
 22 23  1  0  0  0  0
 22 24  1  0  0  0  0
 24 21  1  0  0  0  0
 25 23  1  6  0  0  0
 25 21  1  0  0  0  0
 25  3  1  0  0  0  0
 26 27  2  0  0  0  0
 28 26  1  0  0  0  0
 30 31  1  0  0  0  0
 31 28  1  0  0  0  0
 31 29  2  0  0  0  0
 32 29  1  0  0  0  0
 32 35  1  0  0  0  0
 33 30  2  0  0  0  0
 33 34  1  0  0  0  0
 34 32  2  0  0  0  0
 35 38  1  0  0  0  0
 36 35  1  0  0  0  0
 38 37  2  0  0  0  0
 39 40  1  6  0  0  0
 39 41  1  0  0  0  0
 41 42  1  0  0  0  0
 43 42  1  0  0  0  0
 44 46  1  0  0  0  0
 46 45  1  1  0  0  0
 46 47  1  0  0  0  0
 47 49  1  0  0  0  0
 48 47  2  0  0  0  0
M  END
>  <MODEL>
5

>  <REMARK>
 VINA RESULT:      -4.5      1.989      3.405
  Name = 
  17 active torsions:
  status: ('A' for Active; 'I' for Inactive)
    1  A    between atoms: C_2  and  N_48
    2  A    between atoms: C_5  and  O_6
    3  A    between atoms: C_5  and  C_7
    4  A    between atoms: O_6  and  C_25
    5  A    between atoms: N_9  and  C_13
    6  A    between atoms: N_9  and  C_31
    7  A    between atoms: C_12  and  C_20
    8  A    between atoms: C_14  and  C_45
    9  A    between atoms: C_15  and  O_32
   10  A    between atoms: N_21  and  C_46
   11  A    between atoms: N_23  and  C_40
   12  A    between atoms: C_24  and  C_44
   13  A    between atoms: C_27  and  C_49
   14  A    between atoms: C_29  and  C_46
   15  A    between atoms: O_32  and  C_44
   16  A    between atoms: C_38  and  N_42
   17  A    between atoms: N_42  and  C_49
                            x       y       z     vdW  Elec       q    Type
                         _______ _______ _______ _____ _____    ______ ____

>  <TORSDO>
F 17

$$$$
=
 OpenBabel11052409433D

 49 52  0  0  1  0  0  0  0  0999 V2000
  161.5730  205.2260  147.1690 C   0  0  2  0  0  3  0  0  0  0  0  0
  162.3580  206.2990  147.9110 C   0  0  0  0  0  2  0  0  0  0  0  0
  160.4630  205.6650  149.2630 C   0  0  2  0  0  3  0  0  0  0  0  0
  160.6790  204.5560  148.2230 C   0  0  2  0  0  3  0  0  0  0  0  0
  161.5720  206.5920  149.0920 N   0  0  0  0  0  0  0  0  0  0  0  0
  161.9200  210.3040  149.5180 C   0  0  0  0  0  0  0  0  0  0  0  0
  162.3610  208.8730  147.5660 N   0  0  0  0  0  1  0  0  0  0  0  0
  161.1870  208.0450  151.0120 C   0  0  0  0  0  3  0  0  0  0  0  0
  161.5000  210.4480  150.8550 C   0  0  0  0  0  0  0  0  0  0  0  0
  161.5890  207.8940  149.6820 C   0  0  0  0  0  0  0  0  0  0  0  0
  161.1420  209.3110  151.5940 C   0  0  0  0  0  3  0  0  0  0  0  0
  161.9570  209.0260  148.9290 C   0  0  0  0  0  0  0  0  0  0  0  0
  162.3010  211.4700  148.7510 C   0  0  0  0  0  0  0  0  0  0  0  0
  162.6070  212.4030  148.1340 N   0  0  0  0  0  0  0  0  0  0  0  0
  161.4460  211.7490  151.4530 N   0  0  0  0  0  2  0  0  0  0  0  0
  160.3770  212.1930  152.3410 C   0  0  0  0  0  2  0  0  0  0  0  0
  159.0640  214.1440  152.5640 F   0  0  0  0  0  0  0  0  0  0  0  0
  158.3840  212.5770  151.0940 F   0  0  0  0  0  0  0  0  0  0  0  0
  159.4860  213.2060  151.6420 C   0  0  0  0  0  0  0  0  0  0  0  0
  160.1910  213.8430  150.6390 F   0  0  0  0  0  0  0  0  0  0  0  0
  160.7900  203.7400  150.9140 C   0  0  0  0  0  2  0  0  0  0  0  0
  161.6780  205.0740  152.7250 C   0  0  2  0  0  3  0  0  0  0  0  0
  161.1120  206.0200  151.6740 C   0  0  0  0  0  2  0  0  0  0  0  0
  161.2120  203.6770  152.3630 C   0  0  0  0  0  2  0  0  0  0  0  0
  160.3120  205.1660  150.7110 C   0  0  1  0  0  3  0  0  0  0  0  0
  160.8440  206.5940  154.2830 N   0  0  0  0  0  0  0  0  0  0  0  0
  161.1750  205.4220  154.0260 N   0  0  0  0  0  0  0  0  0  0  0  0
  160.3340  206.9470  155.5850 C   0  0  0  0  0  2  0  0  0  0  0  0
  159.7770  209.3900  155.7210 C   0  0  0  0  0  3  0  0  0  0  0  0
  161.9550  208.6390  156.4430 C   0  0  0  0  0  3  0  0  0  0  0  0
  160.6910  208.3540  155.9300 C   0  0  0  0  0  0  0  0  0  0  0  0
  160.1400  210.7100  156.0300 C   0  0  0  0  0  0  0  0  0  0  0  0
  162.2870  209.9600  156.7430 C   0  0  0  0  0  3  0  0  0  0  0  0
  161.3840  210.9550  156.5320 N   0  0  0  0  0  0  0  0  0  0  0  0
  159.2210  211.7960  155.8200 N   0  0  0  0  0  0  0  0  0  0  0  0
  159.6800  213.1800  155.9240 C   0  0  0  0  0  1  0  0  0  0  0  0
  157.3890  211.4950  154.2600 C   0  0  0  0  0  2  0  0  0  0  0  0
  157.8490  211.5080  155.5080 C   0  0  0  0  0  3  0  0  0  0  0  0
  162.4790  204.2570  146.3850 C   0  0  2  0  0  3  0  0  0  0  0  0
  163.9500  204.6760  146.3840 C   0  0  0  0  0  1  0  0  0  0  0  0
  162.0010  203.9690  145.0850 O   0  0  0  0  0  0  0  0  0  0  0  0
  161.0480  204.9350  144.7180 C   0  0  0  0  0  2  0  0  0  0  0  0
  161.5460  205.7000  143.6610 O   0  0  0  0  0  1  0  0  0  0  0  0
  161.3320  203.4470  148.7870 O   0  0  0  0  0  0  0  0  0  0  0  0
  160.2870  202.3060  147.1020 O   0  0  0  0  0  1  0  0  0  0  0  0
  160.5250  202.3440  148.4780 C   0  0  1  0  0  3  0  0  0  0  0  0
  161.2020  201.0860  148.9080 C   0  0  0  0  0  0  0  0  0  0  0  0
  161.4260  200.8490  150.2580 O   0  0  0  0  0  1  0  0  0  0  0  0
  161.5900  200.2460  148.0540 O   0  0  0  0  0  0  0  0  0  0  0  0
  1 39  1  1  0  0  0
  1  2  1  0  0  0  0
  1  4  1  0  0  0  0
  2  5  1  0  0  0  0
  3  5  1  1  0  0  0
  3 25  1  0  0  0  0
  4 44  1  1  0  0  0
  4  3  1  0  0  0  0
  5 10  1  0  0  0  0
  6  9  1  0  0  0  0
  7 12  1  0  0  0  0
  8 11  1  0  0  0  0
  9 15  1  0  0  0  0
  9 11  2  0  0  0  0
 10  8  2  0  0  0  0
 12  6  2  0  0  0  0
 12 10  1  0  0  0  0
 13  6  1  0  0  0  0
 14 13  3  0  0  0  0
 15 16  1  0  0  0  0
 18 19  1  0  0  0  0
 19 16  1  0  0  0  0
 19 17  1  0  0  0  0
 20 19  1  0  0  0  0
 21 24  1  0  0  0  0
 22 27  1  1  0  0  0
 23 22  1  0  0  0  0
 24 22  1  0  0  0  0
 25 21  1  6  0  0  0
 25 23  1  0  0  0  0
 26 28  1  0  0  0  0
 27 26  2  0  0  0  0
 28 31  1  0  0  0  0
 29 31  2  0  0  0  0
 29 32  1  0  0  0  0
 30 33  2  0  0  0  0
 31 30  1  0  0  0  0
 32 34  2  0  0  0  0
 34 33  1  0  0  0  0
 35 36  1  0  0  0  0
 35 32  1  0  0  0  0
 37 38  2  0  0  0  0
 38 35  1  0  0  0  0
 39 40  1  6  0  0  0
 41 39  1  0  0  0  0
 42 41  1  0  0  0  0
 43 42  1  0  0  0  0
 46 45  1  6  0  0  0
 46 44  1  0  0  0  0
 46 47  1  0  0  0  0
 47 48  1  0  0  0  0
 49 47  2  0  0  0  0
M  END
>  <MODEL>
6

>  <REMARK>
 VINA RESULT:      -4.0      4.827      9.174
  Name = 
  17 active torsions:
  status: ('A' for Active; 'I' for Inactive)
    1  A    between atoms: C_2  and  N_48
    2  A    between atoms: C_5  and  O_6
    3  A    between atoms: C_5  and  C_7
    4  A    between atoms: O_6  and  C_25
    5  A    between atoms: N_9  and  C_13
    6  A    between atoms: N_9  and  C_31
    7  A    between atoms: C_12  and  C_20
    8  A    between atoms: C_14  and  C_45
    9  A    between atoms: C_15  and  O_32
   10  A    between atoms: N_21  and  C_46
   11  A    between atoms: N_23  and  C_40
   12  A    between atoms: C_24  and  C_44
   13  A    between atoms: C_27  and  C_49
   14  A    between atoms: C_29  and  C_46
   15  A    between atoms: O_32  and  C_44
   16  A    between atoms: C_38  and  N_42
   17  A    between atoms: N_42  and  C_49
                            x       y       z     vdW  Elec       q    Type
                         _______ _______ _______ _____ _____    ______ ____

>  <TORSDO>
F 17

$$$$
=
 OpenBabel11052409433D

 49 52  0  0  1  0  0  0  0  0999 V2000
  160.2540  208.7350  154.8870 C   0  0  2  0  0  3  0  0  0  0  0  0
  161.0580  207.7200  154.0860 C   0  0  0  0  0  2  0  0  0  0  0  0
  160.4760  209.5540  152.6310 C   0  0  2  0  0  3  0  0  0  0  0  0
  160.3000  210.0390  154.0770 C   0  0  2  0  0  3  0  0  0  0  0  0
  161.0470  208.2180  152.7260 N   0  0  0  0  0  0  0  0  0  0  0  0
  161.1790  205.0640  150.6980 C   0  0  0  0  0  0  0  0  0  0  0  0
  161.2170  205.3970  153.1350 N   0  0  0  0  0  1  0  0  0  0  0  0
  161.0530  207.8410  150.3170 C   0  0  0  0  0  3  0  0  0  0  0  0
  161.1110  205.5950  149.3950 C   0  0  0  0  0  0  0  0  0  0  0  0
  161.1070  207.3220  151.6130 C   0  0  0  0  0  0  0  0  0  0  0  0
  161.0540  206.9850  149.2170 C   0  0  0  0  0  3  0  0  0  0  0  0
  161.1690  205.9290  151.8090 C   0  0  0  0  0  0  0  0  0  0  0  0
  161.2480  203.6320  150.8910 C   0  0  0  0  0  0  0  0  0  0  0  0
  161.3000  202.4840  151.0480 N   0  0  0  0  0  0  0  0  0  0  0  0
  161.1050  204.7170  148.2620 N   0  0  0  0  0  2  0  0  0  0  0  0
  162.3100  204.1580  147.6600 C   0  0  0  0  0  2  0  0  0  0  0  0
  163.8600  204.7420  145.9760 F   0  0  0  0  0  0  0  0  0  0  0  0
  161.9850  205.9780  146.1570 F   0  0  0  0  0  0  0  0  0  0  0  0
  162.5080  204.7020  146.2550 C   0  0  0  0  0  0  0  0  0  0  0  0
  161.8810  203.8820  145.3380 F   0  0  0  0  0  0  0  0  0  0  0  0
  162.7200  210.0270  151.4990 C   0  0  0  0  0  2  0  0  0  0  0  0
  161.8160  210.7130  149.3640 C   0  0  2  0  0  3  0  0  0  0  0  0
  160.6680  210.6380  150.3610 C   0  0  0  0  0  2  0  0  0  0  0  0
  163.1030  210.6080  150.1580 C   0  0  0  0  0  2  0  0  0  0  0  0
  161.2960  210.4970  151.7330 C   0  0  1  0  0  3  0  0  0  0  0  0
  161.0290  212.1380  147.6950 N   0  0  0  0  0  0  0  0  0  0  0  0
  161.7860  211.9720  148.6690 N   0  0  0  0  0  0  0  0  0  0  0  0
  160.9920  213.4000  146.9980 C   0  0  0  0  0  2  0  0  0  0  0  0
  160.7540  212.9030  144.5490 C   0  0  0  0  0  3  0  0  0  0  0  0
  162.9290  213.4770  145.4270 C   0  0  0  0  0  3  0  0  0  0  0  0
  161.5660  213.2640  145.6270 C   0  0  0  0  0  0  0  0  0  0  0  0
  161.3180  212.7580  143.2730 C   0  0  0  0  0  0  0  0  0  0  0  0
  163.4600  213.3290  144.1460 C   0  0  0  0  0  3  0  0  0  0  0  0
  162.6540  212.9760  143.1090 N   0  0  0  0  0  0  0  0  0  0  0  0
  160.5060  212.3810  142.1470 N   0  0  0  0  0  0  0  0  0  0  0  0
  159.2180  213.0340  141.9160 C   0  0  0  0  0  1  0  0  0  0  0  0
  161.4320  211.6300  140.0360 C   0  0  0  0  0  2  0  0  0  0  0  0
  160.9710  211.3580  141.2540 C   0  0  0  0  0  3  0  0  0  0  0  0
  160.7380  208.8650  156.3440 C   0  0  2  0  0  3  0  0  0  0  0  0
  162.2380  208.6160  156.5040 C   0  0  0  0  0  1  0  0  0  0  0  0
  159.9670  208.1120  157.2600 O   0  0  0  0  0  0  0  0  0  0  0  0
  159.8760  206.7840  156.8080 C   0  0  0  0  0  2  0  0  0  0  0  0
  158.6440  206.5910  156.1800 O   0  0  0  0  0  1  0  0  0  0  0  0
  161.3860  210.8320  154.4860 O   0  0  0  0  0  0  0  0  0  0  0  0
  159.7030  212.3230  154.0640 O   0  0  0  0  0  1  0  0  0  0  0  0
  160.8300  212.0650  154.8500 C   0  0  1  0  0  3  0  0  0  0  0  0
  160.4440  212.0410  156.2910 C   0  0  0  0  0  0  0  0  0  0  0  0
  159.1580  211.6630  156.6550 O   0  0  0  0  0  0  0  0  0  0  0  0
  161.2700  212.3790  157.1780 O   0  0  0  0  0  1  0  0  0  0  0  0
  1 39  1  1  0  0  0
  2  1  1  0  0  0  0
  3  5  1  1  0  0  0
  3  4  1  0  0  0  0
  4 44  1  1  0  0  0
  4  1  1  0  0  0  0
  5  2  1  0  0  0  0
  6 13  1  0  0  0  0
  6 12  1  0  0  0  0
  8 10  1  0  0  0  0
  9  6  2  0  0  0  0
 10 12  2  0  0  0  0
 10  5  1  0  0  0  0
 11  9  1  0  0  0  0
 11  8  2  0  0  0  0
 12  7  1  0  0  0  0
 13 14  3  0  0  0  0
 15  9  1  0  0  0  0
 16 15  1  0  0  0  0
 17 19  1  0  0  0  0
 18 19  1  0  0  0  0
 19 16  1  0  0  0  0
 20 19  1  0  0  0  0
 21 25  1  0  0  0  0
 22 27  1  1  0  0  0
 22 24  1  0  0  0  0
 22 23  1  0  0  0  0
 24 21  1  0  0  0  0
 25 23  1  6  0  0  0
 25  3  1  0  0  0  0
 26 27  2  0  0  0  0
 28 26  1  0  0  0  0
 29 31  1  0  0  0  0
 30 31  2  0  0  0  0
 31 28  1  0  0  0  0
 32 29  2  0  0  0  0
 33 30  1  0  0  0  0
 34 32  1  0  0  0  0
 34 33  2  0  0  0  0
 35 32  1  0  0  0  0
 36 35  1  0  0  0  0
 37 38  2  0  0  0  0
 38 35  1  0  0  0  0
 39 40  1  6  0  0  0
 39 41  1  0  0  0  0
 42 41  1  0  0  0  0
 43 42  1  0  0  0  0
 44 46  1  0  0  0  0
 46 45  1  6  0  0  0
 46 47  1  0  0  0  0
 47 48  2  0  0  0  0
 47 49  1  0  0  0  0
M  END
>  <MODEL>
7

>  <REMARK>
 VINA RESULT:      -3.7      2.854      7.451
  Name = 
  17 active torsions:
  status: ('A' for Active; 'I' for Inactive)
    1  A    between atoms: C_2  and  N_48
    2  A    between atoms: C_5  and  O_6
    3  A    between atoms: C_5  and  C_7
    4  A    between atoms: O_6  and  C_25
    5  A    between atoms: N_9  and  C_13
    6  A    between atoms: N_9  and  C_31
    7  A    between atoms: C_12  and  C_20
    8  A    between atoms: C_14  and  C_45
    9  A    between atoms: C_15  and  O_32
   10  A    between atoms: N_21  and  C_46
   11  A    between atoms: N_23  and  C_40
   12  A    between atoms: C_24  and  C_44
   13  A    between atoms: C_27  and  C_49
   14  A    between atoms: C_29  and  C_46
   15  A    between atoms: O_32  and  C_44
   16  A    between atoms: C_38  and  N_42
   17  A    between atoms: N_42  and  C_49
                            x       y       z     vdW  Elec       q    Type
                         _______ _______ _______ _____ _____    ______ ____

>  <TORSDO>
F 17

$$$$
=
 OpenBabel11052409433D

 49 52  0  0  1  0  0  0  0  0999 V2000
  161.4920  205.3980  147.3620 C   0  0  2  0  0  3  0  0  0  0  0  0
  162.3500  206.6290  147.6180 C   0  0  0  0  0  2  0  0  0  0  0  0
  160.7350  206.4380  149.4000 C   0  0  2  0  0  3  0  0  0  0  0  0
  160.8140  205.0730  148.7010 C   0  0  2  0  0  3  0  0  0  0  0  0
  161.7640  207.2610  148.7830 N   0  0  0  0  0  0  0  0  0  0  0  0
  161.3870  210.9470  148.1900 C   0  0  0  0  0  0  0  0  0  0  0  0
  160.8320  209.0340  146.7470 N   0  0  0  0  0  1  0  0  0  0  0  0
  162.3340  209.1910  150.1610 C   0  0  0  0  0  3  0  0  0  0  0  0
  161.8830  211.4540  149.4070 C   0  0  0  0  0  0  0  0  0  0  0  0
  161.8310  208.6790  148.9620 C   0  0  0  0  0  0  0  0  0  0  0  0
  162.3590  210.5670  150.3820 C   0  0  0  0  0  3  0  0  0  0  0  0
  161.3540  209.5570  147.9710 C   0  0  0  0  0  0  0  0  0  0  0  0
  160.9020  211.8560  147.1740 C   0  0  0  0  0  0  0  0  0  0  0  0
  160.5110  212.5870  146.3620 N   0  0  0  0  0  0  0  0  0  0  0  0
  161.9030  212.8680  149.6400 N   0  0  0  0  0  2  0  0  0  0  0  0
  160.7280  213.7260  149.5400 C   0  0  0  0  0  2  0  0  0  0  0  0
  160.0490  212.2430  151.2490 F   0  0  0  0  0  0  0  0  0  0  0  0
  158.4740  213.5370  150.2890 F   0  0  0  0  0  0  0  0  0  0  0  0
  159.7890  213.4880  150.7120 C   0  0  0  0  0  0  0  0  0  0  0  0
  159.9910  214.4510  151.6810 F   0  0  0  0  0  0  0  0  0  0  0  0
  162.2430  206.0420  151.4270 C   0  0  0  0  0  2  0  0  0  0  0  0
  161.4350  207.9010  152.7440 C   0  0  2  0  0  3  0  0  0  0  0  0
  160.4930  207.7130  151.5630 C   0  0  0  0  0  2  0  0  0  0  0  0
  162.3380  206.6840  152.7900 C   0  0  0  0  0  2  0  0  0  0  0  0
  160.8490  206.3810  150.9340 C   0  0  1  0  0  3  0  0  0  0  0  0
  161.2050  208.4520  154.9980 N   0  0  0  0  0  0  0  0  0  0  0  0
  160.6840  207.9840  153.9680 N   0  0  0  0  0  0  0  0  0  0  0  0
  160.4550  208.5420  156.2260 C   0  0  0  0  0  2  0  0  0  0  0  0
  158.6430  210.1980  155.7010 C   0  0  0  0  0  3  0  0  0  0  0  0
  160.4560  210.8600  157.1510 C   0  0  0  0  0  3  0  0  0  0  0  0
  159.8320  209.8920  156.3670 C   0  0  0  0  0  0  0  0  0  0  0  0
  158.0860  211.4790  155.8270 C   0  0  0  0  0  0  0  0  0  0  0  0
  159.8770  212.1240  157.2610 C   0  0  0  0  0  3  0  0  0  0  0  0
  158.7190  212.4040  156.6040 N   0  0  0  0  0  0  0  0  0  0  0  0
  156.8650  211.8230  155.1480 N   0  0  0  0  0  0  0  0  0  0  0  0
  155.6170  211.1420  155.4870 C   0  0  0  0  0  1  0  0  0  0  0  0
  157.8030  213.8030  154.1080 C   0  0  0  0  0  2  0  0  0  0  0  0
  156.8860  212.8390  154.1330 C   0  0  0  0  0  3  0  0  0  0  0  0
  162.2890  204.2330  146.7460 C   0  0  2  0  0  3  0  0  0  0  0  0
  163.6690  204.6500  146.2350 C   0  0  0  0  0  1  0  0  0  0  0  0
  161.5570  203.5010  145.7800 O   0  0  0  0  0  0  0  0  0  0  0  0
  161.2220  204.3500  144.7120 C   0  0  0  0  0  2  0  0  0  0  0  0
  160.0720  203.8720  144.0810 O   0  0  0  0  0  1  0  0  0  0  0  0
  161.5940  204.1660  149.4390 O   0  0  0  0  0  0  0  0  0  0  0  0
  160.7820  202.1010  148.8810 O   0  0  0  0  0  1  0  0  0  0  0  0
  160.7160  203.1410  149.8130 C   0  0  1  0  0  3  0  0  0  0  0  0
  161.0840  202.6290  151.1650 C   0  0  0  0  0  0  0  0  0  0  0  0
  160.5200  203.2040  152.2970 O   0  0  0  0  0  1  0  0  0  0  0  0
  161.9160  201.6930  151.2900 O   0  0  0  0  0  0  0  0  0  0  0  0
  1 39  1  1  0  0  0
  1  2  1  0  0  0  0
  1  4  1  0  0  0  0
  2  5  1  0  0  0  0
  3  5  1  6  0  0  0
  3 25  1  0  0  0  0
  4  3  1  0  0  0  0
  4 44  1  1  0  0  0
  5 10  1  0  0  0  0
  6  9  1  0  0  0  0
  7 12  1  0  0  0  0
  8 11  1  0  0  0  0
  9 15  1  0  0  0  0
  9 11  2  0  0  0  0
 10  8  2  0  0  0  0
 12  6  2  0  0  0  0
 12 10  1  0  0  0  0
 13  6  1  0  0  0  0
 14 13  3  0  0  0  0
 16 15  1  0  0  0  0
 16 19  1  0  0  0  0
 18 19  1  0  0  0  0
 19 17  1  0  0  0  0
 19 20  1  0  0  0  0
 21 24  1  0  0  0  0
 22 24  1  0  0  0  0
 22 27  1  1  0  0  0
 23 22  1  0  0  0  0
 25 21  1  6  0  0  0
 25 23  1  0  0  0  0
 26 28  1  0  0  0  0
 27 26  2  0  0  0  0
 28 31  1  0  0  0  0
 29 32  2  0  0  0  0
 29 31  1  0  0  0  0
 30 33  1  0  0  0  0
 31 30  2  0  0  0  0
 32 34  1  0  0  0  0
 34 33  2  0  0  0  0
 35 36  1  0  0  0  0
 35 32  1  0  0  0  0
 37 38  2  0  0  0  0
 38 35  1  0  0  0  0
 39 40  1  6  0  0  0
 41 39  1  0  0  0  0
 42 41  1  0  0  0  0
 43 42  1  0  0  0  0
 44 46  1  0  0  0  0
 46 45  1  6  0  0  0
 46 47  1  0  0  0  0
 47 49  2  0  0  0  0
 47 48  1  0  0  0  0
M  END
>  <MODEL>
8

>  <REMARK>
 VINA RESULT:      -3.1      4.400      8.738
  Name = 
  17 active torsions:
  status: ('A' for Active; 'I' for Inactive)
    1  A    between atoms: C_2  and  N_48
    2  A    between atoms: C_5  and  O_6
    3  A    between atoms: C_5  and  C_7
    4  A    between atoms: O_6  and  C_25
    5  A    between atoms: N_9  and  C_13
    6  A    between atoms: N_9  and  C_31
    7  A    between atoms: C_12  and  C_20
    8  A    between atoms: C_14  and  C_45
    9  A    between atoms: C_15  and  O_32
   10  A    between atoms: N_21  and  C_46
   11  A    between atoms: N_23  and  C_40
   12  A    between atoms: C_24  and  C_44
   13  A    between atoms: C_27  and  C_49
   14  A    between atoms: C_29  and  C_46
   15  A    between atoms: O_32  and  C_44
   16  A    between atoms: C_38  and  N_42
   17  A    between atoms: N_42  and  C_49
                            x       y       z     vdW  Elec       q    Type
                         _______ _______ _______ _____ _____    ______ ____

>  <TORSDO>
F 17

$$$$
=
 OpenBabel11052409433D

 49 52  0  0  1  0  0  0  0  0999 V2000
  158.2580  212.6390  154.9470 C   0  0  2  0  0  3  0  0  0  0  0  0
  157.6150  212.5120  153.5740 C   0  0  0  0  0  2  0  0  0  0  0  0
  160.0030  212.2760  153.3250 C   0  0  2  0  0  3  0  0  0  0  0  0
  159.6690  212.0490  154.8070 C   0  0  2  0  0  3  0  0  0  0  0  0
  158.7230  212.4160  152.6460 N   0  0  0  0  0  0  0  0  0  0  0  0
  159.6170  213.7210  149.2440 C   0  0  0  0  0  0  0  0  0  0  0  0
  161.0430  213.2130  151.1820 N   0  0  0  0  0  1  0  0  0  0  0  0
  157.3470  212.9720  150.7110 C   0  0  0  0  0  3  0  0  0  0  0  0
  158.3430  213.7690  148.6450 C   0  0  0  0  0  0  0  0  0  0  0  0
  158.6090  212.9090  151.3080 C   0  0  0  0  0  0  0  0  0  0  0  0
  157.2150  213.3970  149.3900 C   0  0  0  0  0  3  0  0  0  0  0  0
  159.7510  213.2840  150.5750 C   0  0  0  0  0  0  0  0  0  0  0  0
  160.7860  214.1120  148.4850 C   0  0  0  0  0  0  0  0  0  0  0  0
  161.7220  214.4290  147.8780 N   0  0  0  0  0  0  0  0  0  0  0  0
  158.2050  214.1990  147.2850 N   0  0  0  0  0  2  0  0  0  0  0  0
  157.0900  213.8260  146.4230 C   0  0  0  0  0  2  0  0  0  0  0  0
  156.4570  211.6860  145.6490 F   0  0  0  0  0  0  0  0  0  0  0  0
  158.6500  212.0800  145.9830 F   0  0  0  0  0  0  0  0  0  0  0  0
  157.4570  212.6330  145.5560 C   0  0  0  0  0  0  0  0  0  0  0  0
  157.5850  213.0290  144.2390 F   0  0  0  0  0  0  0  0  0  0  0  0
  162.0420  210.7580  153.6000 C   0  0  0  0  0  2  0  0  0  0  0  0
  161.0320  208.7650  152.6760 C   0  0  2  0  0  3  0  0  0  0  0  0
  160.1160  209.9420  152.3740 C   0  0  0  0  0  2  0  0  0  0  0  0
  162.3420  209.3380  153.1810 C   0  0  0  0  0  2  0  0  0  0  0  0
  160.9030  211.1970  152.6990 C   0  0  1  0  0  3  0  0  0  0  0  0
  160.6160  206.9780  151.2380 N   0  0  0  0  0  0  0  0  0  0  0  0
  161.2740  208.0070  151.4780 N   0  0  0  0  0  0  0  0  0  0  0  0
  160.8520  206.2170  150.0350 C   0  0  0  0  0  2  0  0  0  0  0  0
  160.5680  203.7930  149.4480 C   0  0  0  0  0  3  0  0  0  0  0  0
  161.5740  204.3800  151.5630 C   0  0  0  0  0  3  0  0  0  0  0  0
  161.0070  204.7660  150.3490 C   0  0  0  0  0  0  0  0  0  0  0  0
  160.7010  202.4350  149.7720 C   0  0  0  0  0  0  0  0  0  0  0  0
  161.6960  203.0230  151.8560 C   0  0  0  0  0  3  0  0  0  0  0  0
  161.2620  202.0900  150.9660 N   0  0  0  0  0  0  0  0  0  0  0  0
  160.2520  201.4130  148.8640 N   0  0  0  0  0  0  0  0  0  0  0  0
  158.8220  201.1690  148.6800 C   0  0  0  0  0  1  0  0  0  0  0  0
  161.2950  200.6430  146.8160 C   0  0  0  0  0  2  0  0  0  0  0  0
  161.2200  200.6350  148.1440 C   0  0  0  0  0  3  0  0  0  0  0  0
  157.4060  212.0100  156.0660 C   0  0  2  0  0  3  0  0  0  0  0  0
  156.0660  211.4670  155.5700 C   0  0  0  0  0  1  0  0  0  0  0  0
  157.2610  212.8460  157.1990 O   0  0  0  0  0  0  0  0  0  0  0  0
  156.4930  213.9700  156.8500 C   0  0  0  0  0  2  0  0  0  0  0  0
  155.1370  213.6610  156.9710 O   0  0  0  0  0  1  0  0  0  0  0  0
  159.6620  210.6810  155.1260 O   0  0  0  0  0  0  0  0  0  0  0  0
  160.3550  211.2160  157.2400 O   0  0  0  0  0  1  0  0  0  0  0  0
  160.6790  210.5160  156.0740 C   0  0  1  0  0  3  0  0  0  0  0  0
  160.8490  209.0670  156.3880 C   0  0  0  0  0  0  0  0  0  0  0  0
  161.8540  208.6620  157.2560 O   0  0  0  0  0  1  0  0  0  0  0  0
  160.1000  208.2070  155.8550 O   0  0  0  0  0  0  0  0  0  0  0  0
  1 39  1  1  0  0  0
  2  1  1  0  0  0  0
  3  5  1  6  0  0  0
  3  4  1  0  0  0  0
  4  1  1  0  0  0  0
  4 44  1  6  0  0  0
  5  2  1  0  0  0  0
  6 12  1  0  0  0  0
  8 10  1  0  0  0  0
  9  6  2  0  0  0  0
  9 11  1  0  0  0  0
 10  5  1  0  0  0  0
 11  8  2  0  0  0  0
 12  7  1  0  0  0  0
 12 10  2  0  0  0  0
 13  6  1  0  0  0  0
 14 13  3  0  0  0  0
 15  9  1  0  0  0  0
 16 15  1  0  0  0  0
 19 17  1  0  0  0  0
 19 18  1  0  0  0  0
 19 16  1  0  0  0  0
 20 19  1  0  0  0  0
 22 27  1  6  0  0  0
 22 24  1  0  0  0  0
 23 22  1  0  0  0  0
 24 21  1  0  0  0  0
 25 23  1  1  0  0  0
 25  3  1  0  0  0  0
 25 21  1  0  0  0  0
 26 27  2  0  0  0  0
 28 31  1  0  0  0  0
 28 26  1  0  0  0  0
 29 32  2  0  0  0  0
 29 31  1  0  0  0  0
 30 33  1  0  0  0  0
 31 30  2  0  0  0  0
 32 34  1  0  0  0  0
 34 33  2  0  0  0  0
 35 32  1  0  0  0  0
 36 35  1  0  0  0  0
 37 38  2  0  0  0  0
 38 35  1  0  0  0  0
 39 40  1  6  0  0  0
 39 41  1  0  0  0  0
 42 43  1  0  0  0  0
 42 41  1  0  0  0  0
 44 46  1  0  0  0  0
 46 47  1  0  0  0  0
 46 45  1  1  0  0  0
 47 48  1  0  0  0  0
 49 47  2  0  0  0  0
M  END
>  <MODEL>
9

>  <REMARK>
 VINA RESULT:      -3.0      1.994      2.871
  Name = 
  17 active torsions:
  status: ('A' for Active; 'I' for Inactive)
    1  A    between atoms: C_2  and  N_48
    2  A    between atoms: C_5  and  O_6
    3  A    between atoms: C_5  and  C_7
    4  A    between atoms: O_6  and  C_25
    5  A    between atoms: N_9  and  C_13
    6  A    between atoms: N_9  and  C_31
    7  A    between atoms: C_12  and  C_20
    8  A    between atoms: C_14  and  C_45
    9  A    between atoms: C_15  and  O_32
   10  A    between atoms: N_21  and  C_46
   11  A    between atoms: N_23  and  C_40
   12  A    between atoms: C_24  and  C_44
   13  A    between atoms: C_27  and  C_49
   14  A    between atoms: C_29  and  C_46
   15  A    between atoms: O_32  and  C_44
   16  A    between atoms: C_38  and  N_42
   17  A    between atoms: N_42  and  C_49
                            x       y       z     vdW  Elec       q    Type
                         _______ _______ _______ _____ _____    ______ ____

>  <TORSDO>
F 17

$$$$
