=
 OpenBabel11042420393D

 45 50  0  0  1  0  0  0  0  0999 V2000
  162.7200  207.6420  150.1660 C   0  0  0  0  0  2  0  0  0  0  0  0
  161.0080  208.0010  154.0700 C   0  0  0  0  0  0  0  0  0  0  0  0
  161.9910  209.5430  148.2640 O   0  0  0  0  0  0  0  0  0  0  0  0
  162.1900  206.4270  150.9150 C   0  0  1  0  0  3  0  0  0  0  0  0
  162.1430  211.3310  149.8240 C   0  0  2  0  0  3  0  0  0  0  0  0
  162.0430  209.8850  149.4790 C   0  0  0  0  0  0  0  0  0  0  0  0
  161.0320  207.3610  156.4870 C   0  0  0  0  0  2  0  0  0  0  0  0
  160.2640  209.2150  154.4720 C   0  0  0  0  0  0  0  0  0  0  0  0
  160.7580  211.8260  150.1420 C   0  0  0  0  0  2  0  0  0  0  0  0
  162.2540  206.6650  152.4150 C   0  0  0  0  0  2  0  0  0  0  0  0
  159.7250  209.3320  155.6900 C   0  0  0  0  0  3  0  0  0  0  0  0
  159.6820  212.2060  152.2830 N   0  0  0  0  0  0  0  0  0  0  0  0
  160.2000  210.2700  153.5200 N   0  0  0  0  0  0  0  0  0  0  0  0
  160.7630  210.1740  152.2250 C   0  0  0  0  0  0  0  0  0  0  0  0
  158.8780  211.9730  154.4950 O   0  0  0  0  0  0  0  0  0  0  0  0
  161.4450  209.0660  151.8370 C   0  0  0  0  0  0  0  0  0  0  0  0
  161.5360  207.9230  152.8230 C   0  0  0  0  0  0  0  0  0  0  0  0
  159.5320  211.5190  153.5200 C   0  0  0  0  0  0  0  0  0  0  0  0
  162.0030  208.8770  150.5030 N   0  0  0  0  0  0  0  0  0  0  0  0
  160.4040  211.4320  151.5290 C   0  0  0  0  0  0  0  0  0  0  0  0
  159.7680  208.1980  156.6760 C   0  0  0  0  0  2  0  0  0  0  0  0
  161.1070  206.8540  155.0470 C   0  0  0  0  0  2  0  0  0  0  0  0
  160.8310  205.9900  150.4410 C   0  0  0  0  0  0  0  0  0  0  0  0
  160.1990  206.6600  149.6380 O   0  0  0  0  0  0  0  0  0  0  0  0
  160.1080  204.4800  151.0950 S   0  0  0  0  0  0  0  0  0  0  0  0
  160.8170  203.3540  148.6580 C   0  0  1  0  0  3  0  0  0  0  0  0
  160.7350  201.9760  148.2120 N   0  0  0  0  0  2  0  0  0  0  0  0
  160.9540  201.9530  150.5780 N   0  0  0  0  0  2  0  0  0  0  0  0
  161.1450  203.3180  150.1320 C   0  0  2  0  0  3  0  0  0  0  0  0
  161.0670  201.1540  149.3690 C   0  0  0  0  0  2  0  0  0  0  0  0
  161.9070  204.0780  147.8840 C   0  0  0  0  0  2  0  0  0  0  0  0
  161.2970  204.9790  146.8270 C   0  0  0  0  0  1  0  0  0  0  0  0
  162.6700  212.0630  148.7560 O   0  0  0  0  0  0  0  0  0  0  0  0
  161.6610  212.9630  148.4030 C   0  0  0  0  0  2  0  0  0  0  0  0
  161.6520  213.1690  146.9000 C   0  0  0  0  0  2  0  0  0  0  0  0
  160.2300  213.3820  146.4080 C   0  0  0  0  0  2  0  0  0  0  0  0
  159.9390  212.4710  145.2290 C   0  0  0  0  0  2  0  0  0  0  0  0
  160.2880  213.1390  143.9840 N   0  0  0  0  0  2  0  0  0  0  0  0
  161.2210  212.2760  143.2740 C   0  0  2  0  0  3  0  0  0  0  0  0
  162.5000  213.0020  143.0010 C   0  0  0  0  0  0  0  0  0  0  0  0
  162.7210  213.5510  141.7460 O   0  0  0  0  0  0  0  0  0  0  0  0
  163.3680  213.1350  143.9050 O   0  0  0  0  0  1  0  0  0  0  0  0
  161.1220  210.6570  141.4130 F   0  0  0  0  0  0  0  0  0  0  0  0
  160.6080  211.7640  142.0050 C   0  0  0  0  0  0  0  0  0  0  0  0
  159.6510  212.3310  141.5010 O   0  0  0  0  0  0  0  0  0  0  0  0
  1 19  1  0  0  0  0
  1  4  1  0  0  0  0
  2  8  1  0  0  0  0
  2 22  1  0  0  0  0
  3  6  2  0  0  0  0
  4 23  1  6  0  0  0
  4 10  1  0  0  0  0
  5 33  1  6  0  0  0
  5  9  1  0  0  0  0
  6  5  1  0  0  0  0
  6 19  1  0  0  0  0
  7 21  1  0  0  0  0
  8 11  2  0  0  0  0
  9 20  1  0  0  0  0
 10 17  1  0  0  0  0
 11 21  1  0  0  0  0
 12 18  1  0  0  0  0
 13  8  1  0  0  0  0
 14 13  1  0  0  0  0
 16 14  2  0  0  0  0
 16 17  1  0  0  0  0
 17  2  2  0  0  0  0
 18 13  1  0  0  0  0
 18 15  2  0  0  0  0
 19 16  1  0  0  0  0
 20 14  1  0  0  0  0
 20 12  2  0  0  0  0
 22  7  1  0  0  0  0
 23 25  1  0  0  0  0
 24 23  2  0  0  0  0
 26 31  1  6  0  0  0
 26 29  1  0  0  0  0
 27 26  1  0  0  0  0
 27 30  1  0  0  0  0
 29 28  1  0  0  0  0
 29 25  1  1  0  0  0
 30 28  1  0  0  0  0
 32 31  1  0  0  0  0
 34 33  1  0  0  0  0
 35 34  1  0  0  0  0
 36 35  1  0  0  0  0
 37 36  1  0  0  0  0
 38 37  1  0  0  0  0
 39 44  1  6  0  0  0
 39 38  1  0  0  0  0
 40 39  1  0  0  0  0
 40 42  1  0  0  0  0
 41 40  2  0  0  0  0
 43 44  1  0  0  0  0
 45 44  2  0  0  0  0
M  END
>  <MODEL>
1

>  <REMARK>
 VINA RESULT:      -6.7      0.000      0.000
  Name = 
  13 active torsions:
  status: ('A' for Active; 'I' for Inactive)
    1  A    between atoms: CA_2  and  C_13
    2  A    between atoms: CA_2  and  N_41
    3  A    between atoms: CA_2  and  C_42
    4  A    between atoms: S_4  and  C_14
    5  A    between atoms: S_4  and  C_20
    6  A    between atoms: C_5  and  C_30
    7  A    between atoms: C_8  and  C_14
    8  A    between atoms: C_9  and  O_18
    9  A    between atoms: C_9  and  C_38
   10  A    between atoms: C_10  and  O_18
   11  A    between atoms: C_12  and  C_34
   12  A    between atoms: C_12  and  N_41
   13  A    between atoms: C_34  and  C_38
                            x       y       z     vdW  Elec       q    Type
                         _______ _______ _______ _____ _____    ______ ____

>  <TORSDO>
F 13

$$$$
=
 OpenBabel11042420393D

 45 50  0  0  1  0  0  0  0  0999 V2000
  162.8010  210.5930  150.6210 C   0  0  0  0  0  2  0  0  0  0  0  0
  159.7900  211.1350  153.6110 C   0  0  0  0  0  0  0  0  0  0  0  0
  162.2610  211.5610  148.0650 O   0  0  0  0  0  0  0  0  0  0  0  0
  162.4300  209.4750  151.5850 C   0  0  1  0  0  3  0  0  0  0  0  0
  161.3040  213.5710  148.9020 C   0  0  2  0  0  3  0  0  0  0  0  0
  161.7730  212.1650  149.0610 C   0  0  0  0  0  0  0  0  0  0  0  0
  159.1440  211.1300  156.0270 C   0  0  0  0  0  2  0  0  0  0  0  0
  158.6240  212.0140  153.3750 C   0  0  0  0  0  0  0  0  0  0  0  0
  159.8170  213.5380  148.6770 C   0  0  0  0  0  2  0  0  0  0  0  0
  161.8820  210.0560  152.8790 C   0  0  0  0  0  2  0  0  0  0  0  0
  157.6790  212.1860  154.3050 C   0  0  0  0  0  3  0  0  0  0  0  0
  157.9890  213.9440  150.2200 N   0  0  0  0  0  0  0  0  0  0  0  0
  158.5890  212.7090  152.1340 N   0  0  0  0  0  0  0  0  0  0  0  0
  159.5760  212.5490  151.1330 C   0  0  0  0  0  0  0  0  0  0  0  0
  156.5610  213.9270  152.1060 O   0  0  0  0  0  0  0  0  0  0  0  0
  160.6510  211.7420  151.3310 C   0  0  0  0  0  0  0  0  0  0  0  0
  160.7240  210.9870  152.6390 C   0  0  0  0  0  0  0  0  0  0  0  0
  157.6230  213.5580  151.5400 C   0  0  0  0  0  0  0  0  0  0  0  0
  161.6760  211.4880  150.3250 N   0  0  0  0  0  0  0  0  0  0  0  0
  159.1290  213.3660  149.9810 C   0  0  0  0  0  0  0  0  0  0  0  0
  157.7070  211.4190  155.5980 C   0  0  0  0  0  2  0  0  0  0  0  0
  159.8750  210.3770  154.9150 C   0  0  0  0  0  2  0  0  0  0  0  0
  161.5280  208.4420  150.9700 C   0  0  0  0  0  0  0  0  0  0  0  0
  161.3290  208.4180  149.7650 O   0  0  0  0  0  0  0  0  0  0  0  0
  160.6970  207.2490  152.0270 S   0  0  0  0  0  0  0  0  0  0  0  0
  160.5970  205.0990  150.2740 C   0  0  1  0  0  3  0  0  0  0  0  0
  160.6160  203.6740  150.5490 N   0  0  0  0  0  2  0  0  0  0  0  0
  161.7460  204.7650  152.3330 N   0  0  0  0  0  2  0  0  0  0  0  0
  161.4770  205.7560  151.3110 C   0  0  2  0  0  3  0  0  0  0  0  0
  161.5300  203.4890  151.6700 C   0  0  0  0  0  2  0  0  0  0  0  0
  161.1310  205.3570  148.8760 C   0  0  0  0  0  2  0  0  0  0  0  0
  161.3830  204.0460  148.1540 C   0  0  0  0  0  1  0  0  0  0  0  0
  161.9310  214.1840  147.8130 O   0  0  0  0  0  0  0  0  0  0  0  0
  160.9330  214.3000  146.8420 C   0  0  0  0  0  2  0  0  0  0  0  0
  161.5620  214.4510  145.4680 C   0  0  0  0  0  2  0  0  0  0  0  0
  162.5320  213.3120  145.2070 C   0  0  0  0  0  2  0  0  0  0  0  0
  163.2580  213.5310  143.8910 C   0  0  0  0  0  2  0  0  0  0  0  0
  162.2970  213.7910  142.8290 N   0  0  0  0  0  2  0  0  0  0  0  0
  162.3220  212.6460  141.9310 C   0  0  2  0  0  3  0  0  0  0  0  0
  162.5230  213.0940  140.5180 C   0  0  0  0  0  0  0  0  0  0  0  0
  163.6640  213.8100  140.1830 O   0  0  0  0  0  1  0  0  0  0  0  0
  161.6770  212.8120  139.6280 O   0  0  0  0  0  0  0  0  0  0  0  0
  160.9880  210.6160  141.4820 F   0  0  0  0  0  0  0  0  0  0  0  0
  161.0660  211.8380  142.0680 C   0  0  0  0  0  0  0  0  0  0  0  0
  160.1150  212.2660  142.7030 O   0  0  0  0  0  0  0  0  0  0  0  0
  1  4  1  0  0  0  0
  2 22  1  0  0  0  0
  3  6  2  0  0  0  0
  4 23  1  6  0  0  0
  4 10  1  0  0  0  0
  5 33  1  6  0  0  0
  5  6  1  0  0  0  0
  6 19  1  0  0  0  0
  8  2  1  0  0  0  0
  8 11  2  0  0  0  0
  9  5  1  0  0  0  0
  9 20  1  0  0  0  0
 11 21  1  0  0  0  0
 12 18  1  0  0  0  0
 13  8  1  0  0  0  0
 14 16  2  0  0  0  0
 14 13  1  0  0  0  0
 16 17  1  0  0  0  0
 17 10  1  0  0  0  0
 17  2  2  0  0  0  0
 18 15  2  0  0  0  0
 18 13  1  0  0  0  0
 19  1  1  0  0  0  0
 19 16  1  0  0  0  0
 20 12  2  0  0  0  0
 20 14  1  0  0  0  0
 21  7  1  0  0  0  0
 22  7  1  0  0  0  0
 23 25  1  0  0  0  0
 24 23  2  0  0  0  0
 26 31  1  6  0  0  0
 26 27  1  0  0  0  0
 26 29  1  0  0  0  0
 27 30  1  0  0  0  0
 29 25  1  1  0  0  0
 29 28  1  0  0  0  0
 30 28  1  0  0  0  0
 32 31  1  0  0  0  0
 34 33  1  0  0  0  0
 35 34  1  0  0  0  0
 36 35  1  0  0  0  0
 37 36  1  0  0  0  0
 38 37  1  0  0  0  0
 39 40  1  6  0  0  0
 39 44  1  0  0  0  0
 39 38  1  0  0  0  0
 41 40  1  0  0  0  0
 42 40  2  0  0  0  0
 43 44  1  0  0  0  0
 44 45  2  0  0  0  0
M  END
>  <MODEL>
2

>  <REMARK>
 VINA RESULT:      -6.0      2.003      2.879
  Name = 
  13 active torsions:
  status: ('A' for Active; 'I' for Inactive)
    1  A    between atoms: CA_2  and  C_13
    2  A    between atoms: CA_2  and  N_41
    3  A    between atoms: CA_2  and  C_42
    4  A    between atoms: S_4  and  C_14
    5  A    between atoms: S_4  and  C_20
    6  A    between atoms: C_5  and  C_30
    7  A    between atoms: C_8  and  C_14
    8  A    between atoms: C_9  and  O_18
    9  A    between atoms: C_9  and  C_38
   10  A    between atoms: C_10  and  O_18
   11  A    between atoms: C_12  and  C_34
   12  A    between atoms: C_12  and  N_41
   13  A    between atoms: C_34  and  C_38
                            x       y       z     vdW  Elec       q    Type
                         _______ _______ _______ _____ _____    ______ ____

>  <TORSDO>
F 13

$$$$
=
 OpenBabel11042420393D

 45 50  0  0  1  0  0  0  0  0999 V2000
  161.9560  208.0990  153.7900 C   0  0  0  0  0  2  0  0  0  0  0  0
  161.9560  210.1750  150.0500 C   0  0  0  0  0  0  0  0  0  0  0  0
  160.8090  205.5610  153.8510 O   0  0  0  0  0  0  0  0  0  0  0  0
  161.5990  209.5770  153.7030 C   0  0  1  0  0  3  0  0  0  0  0  0
  161.7930  204.9400  151.7760 C   0  0  2  0  0  3  0  0  0  0  0  0
  161.3740  205.9490  152.7900 C   0  0  0  0  0  0  0  0  0  0  0  0
  162.8290  212.0440  148.6370 C   0  0  0  0  0  2  0  0  0  0  0  0
  161.5970  209.4860  148.7910 C   0  0  0  0  0  0  0  0  0  0  0  0
  160.7190  204.8700  150.7240 C   0  0  0  0  0  2  0  0  0  0  0  0
  162.2710  210.2090  152.4940 C   0  0  0  0  0  2  0  0  0  0  0  0
  161.5930  210.1300  147.6190 C   0  0  0  0  0  3  0  0  0  0  0  0
  160.6180  205.8740  148.5180 N   0  0  0  0  0  0  0  0  0  0  0  0
  161.3100  208.0960  148.8830 N   0  0  0  0  0  0  0  0  0  0  0  0
  161.3090  207.3880  150.1080 C   0  0  0  0  0  0  0  0  0  0  0  0
  160.7120  207.3910  146.7050 O   0  0  0  0  0  0  0  0  0  0  0  0
  161.6320  208.0050  151.2740 C   0  0  0  0  0  0  0  0  0  0  0  0
  161.9440  209.4840  151.2170 C   0  0  0  0  0  0  0  0  0  0  0  0
  160.8700  207.1450  147.9300 C   0  0  0  0  0  0  0  0  0  0  0  0
  161.5990  207.3530  152.5780 N   0  0  0  0  0  0  0  0  0  0  0  0
  160.8810  206.0080  149.7840 C   0  0  0  0  0  0  0  0  0  0  0  0
  161.8610  211.6070  147.5380 C   0  0  0  0  0  2  0  0  0  0  0  0
  162.2710  211.6510  150.0050 C   0  0  0  0  0  2  0  0  0  0  0  0
  160.1180  209.8300  153.7580 C   0  0  0  0  0  0  0  0  0  0  0  0
  159.5130  210.2370  152.7770 O   0  0  0  0  0  0  0  0  0  0  0  0
  159.2300  209.5660  155.2980 S   0  0  0  0  0  0  0  0  0  0  0  0
  157.3520  211.4880  154.5990 C   0  0  1  0  0  3  0  0  0  0  0  0
  157.5320  212.7610  153.9280 N   0  0  0  0  0  2  0  0  0  0  0  0
  159.5640  212.2480  155.0480 N   0  0  0  0  0  2  0  0  0  0  0  0
  158.5770  211.2690  155.4560 C   0  0  2  0  0  3  0  0  0  0  0  0
  158.7900  213.3080  154.4220 C   0  0  0  0  0  2  0  0  0  0  0  0
  156.0990  211.5340  155.4570 C   0  0  0  0  0  2  0  0  0  0  0  0
  155.2470  210.3010  155.2200 C   0  0  0  0  0  1  0  0  0  0  0  0
  161.9580  203.6830  152.3640 O   0  0  0  0  0  0  0  0  0  0  0  0
  160.9960  202.8720  151.7560 C   0  0  0  0  0  2  0  0  0  0  0  0
  161.6730  201.7780  150.9510 C   0  0  0  0  0  2  0  0  0  0  0  0
  160.6540  201.0560  150.0860 C   0  0  0  0  0  2  0  0  0  0  0  0
  160.1890  201.9570  148.9560 C   0  0  0  0  0  2  0  0  0  0  0  0
  161.3130  202.3010  148.0980 N   0  0  0  0  0  2  0  0  0  0  0  0
  160.7730  202.6290  146.7860 C   0  0  2  0  0  3  0  0  0  0  0  0
  160.6350  201.3940  145.9540 C   0  0  0  0  0  0  0  0  0  0  0  0
  159.8010  201.4040  144.8450 O   0  0  0  0  0  0  0  0  0  0  0  0
  161.2830  200.3510  146.2400 O   0  0  0  0  0  1  0  0  0  0  0  0
  162.6860  204.1900  146.7600 F   0  0  0  0  0  0  0  0  0  0  0  0
  161.6310  203.6500  146.1000 C   0  0  0  0  0  0  0  0  0  0  0  0
  161.3910  203.9980  144.9540 O   0  0  0  0  0  0  0  0  0  0  0  0
  2 17  2  0  0  0  0
  4 23  1  6  0  0  0
  4  1  1  0  0  0  0
  5 33  1  1  0  0  0
  5  6  1  0  0  0  0
  6  3  2  0  0  0  0
  7 22  1  0  0  0  0
  8 13  1  0  0  0  0
  8  2  1  0  0  0  0
  9  5  1  0  0  0  0
 10  4  1  0  0  0  0
 11  8  2  0  0  0  0
 12 20  2  0  0  0  0
 13 14  1  0  0  0  0
 14 16  2  0  0  0  0
 15 18  2  0  0  0  0
 16 19  1  0  0  0  0
 17 16  1  0  0  0  0
 17 10  1  0  0  0  0
 18 12  1  0  0  0  0
 18 13  1  0  0  0  0
 19  6  1  0  0  0  0
 19  1  1  0  0  0  0
 20 14  1  0  0  0  0
 20  9  1  0  0  0  0
 21 11  1  0  0  0  0
 21  7  1  0  0  0  0
 22  2  1  0  0  0  0
 23 25  1  0  0  0  0
 24 23  2  0  0  0  0
 26 29  1  0  0  0  0
 26 31  1  1  0  0  0
 27 30  1  0  0  0  0
 27 26  1  0  0  0  0
 28 29  1  0  0  0  0
 29 25  1  6  0  0  0
 30 28  1  0  0  0  0
 32 31  1  0  0  0  0
 34 33  1  0  0  0  0
 35 34  1  0  0  0  0
 36 35  1  0  0  0  0
 37 36  1  0  0  0  0
 38 37  1  0  0  0  0
 39 40  1  6  0  0  0
 39 38  1  0  0  0  0
 40 42  1  0  0  0  0
 41 40  2  0  0  0  0
 44 43  1  0  0  0  0
 44 39  1  0  0  0  0
 45 44  2  0  0  0  0
M  END
>  <MODEL>
3

>  <REMARK>
 VINA RESULT:      -5.2      3.572      8.829
  Name = 
  13 active torsions:
  status: ('A' for Active; 'I' for Inactive)
    1  A    between atoms: CA_2  and  C_13
    2  A    between atoms: CA_2  and  N_41
    3  A    between atoms: CA_2  and  C_42
    4  A    between atoms: S_4  and  C_14
    5  A    between atoms: S_4  and  C_20
    6  A    between atoms: C_5  and  C_30
    7  A    between atoms: C_8  and  C_14
    8  A    between atoms: C_9  and  O_18
    9  A    between atoms: C_9  and  C_38
   10  A    between atoms: C_10  and  O_18
   11  A    between atoms: C_12  and  C_34
   12  A    between atoms: C_12  and  N_41
   13  A    between atoms: C_34  and  C_38
                            x       y       z     vdW  Elec       q    Type
                         _______ _______ _______ _____ _____    ______ ____

>  <TORSDO>
F 13

$$$$
=
 OpenBabel11042420393D

 45 50  0  0  1  0  0  0  0  0999 V2000
  162.6290  206.3020  150.8500 C   0  0  0  0  0  2  0  0  0  0  0  0
  160.9460  207.3960  154.6260 C   0  0  0  0  0  0  0  0  0  0  0  0
  162.0930  207.9600  148.6760 O   0  0  0  0  0  0  0  0  0  0  0  0
  161.9810  205.2660  151.7590 C   0  0  1  0  0  3  0  0  0  0  0  0
  162.4120  209.9370  149.9580 C   0  0  2  0  0  3  0  0  0  0  0  0
  162.1750  208.4720  149.8270 C   0  0  0  0  0  0  0  0  0  0  0  0
  160.8990  207.1220  157.1120 C   0  0  0  0  0  2  0  0  0  0  0  0
  160.3210  208.7210  154.8320 C   0  0  0  0  0  0  0  0  0  0  0  0
  161.0800  210.6030  150.1750 C   0  0  0  0  0  2  0  0  0  0  0  0
  162.0620  205.7170  153.2090 C   0  0  0  0  0  2  0  0  0  0  0  0
  159.7920  209.0680  156.0100 C   0  0  0  0  0  3  0  0  0  0  0  0
  160.0380  211.3960  152.2170 N   0  0  0  0  0  0  0  0  0  0  0  0
  160.3620  209.6250  153.7340 N   0  0  0  0  0  0  0  0  0  0  0  0
  160.9180  209.2850  152.4780 C   0  0  0  0  0  0  0  0  0  0  0  0
  159.2070  211.5710  154.4250 O   0  0  0  0  0  0  0  0  0  0  0  0
  161.4920  208.0720  152.2700 C   0  0  0  0  0  0  0  0  0  0  0  0
  161.4680  207.0840  153.4150 C   0  0  0  0  0  0  0  0  0  0  0  0
  159.8190  210.9180  153.5380 C   0  0  0  0  0  0  0  0  0  0  0  0
  162.0330  207.6360  150.9880 N   0  0  0  0  0  0  0  0  0  0  0  0
  160.6850  210.4540  151.5980 C   0  0  0  0  0  0  0  0  0  0  0  0
  159.7200  208.0940  157.1530 C   0  0  0  0  0  2  0  0  0  0  0  0
  160.9300  206.4020  155.7640 C   0  0  0  0  0  2  0  0  0  0  0  0
  160.5880  204.8950  151.3310 C   0  0  0  0  0  0  0  0  0  0  0  0
  159.7950  204.4090  152.1230 O   0  0  0  0  0  0  0  0  0  0  0  0
  160.0940  205.1330  149.6200 S   0  0  0  0  0  0  0  0  0  0  0  0
  161.4210  204.0980  147.4110 C   0  0  1  0  0  3  0  0  0  0  0  0
  161.3240  202.7850  146.8000 N   0  0  0  0  0  2  0  0  0  0  0  0
  160.7540  202.5530  149.0960 N   0  0  0  0  0  2  0  0  0  0  0  0
  161.2420  203.9020  148.8980 C   0  0  2  0  0  3  0  0  0  0  0  0
  161.1600  201.8380  147.8960 C   0  0  0  0  0  2  0  0  0  0  0  0
  162.7810  204.7030  147.1100 C   0  0  0  0  0  2  0  0  0  0  0  0
  162.6760  205.7080  145.9780 C   0  0  0  0  0  1  0  0  0  0  0  0
  163.0120  210.4490  148.8030 O   0  0  0  0  0  0  0  0  0  0  0  0
  162.0090  211.1950  148.1770 C   0  0  0  0  0  2  0  0  0  0  0  0
  162.6280  212.3210  147.3690 C   0  0  0  0  0  2  0  0  0  0  0  0
  162.0430  213.6560  147.7950 C   0  0  0  0  0  2  0  0  0  0  0  0
  161.6020  214.4500  146.5790 C   0  0  0  0  0  2  0  0  0  0  0  0
  160.2910  214.0000  146.1370 N   0  0  0  0  0  2  0  0  0  0  0  0
  160.1850  214.2980  144.7160 C   0  0  2  0  0  3  0  0  0  0  0  0
  158.9060  213.7560  144.1620 C   0  0  0  0  0  0  0  0  0  0  0  0
  158.7400  213.6600  142.7880 O   0  0  0  0  0  0  0  0  0  0  0  0
  157.9870  213.3680  144.9320 O   0  0  0  0  0  1  0  0  0  0  0  0
  161.8770  214.4530  142.9230 F   0  0  0  0  0  0  0  0  0  0  0  0
  161.3690  213.7570  143.9710 C   0  0  0  0  0  0  0  0  0  0  0  0
  161.8820  212.6980  144.3000 O   0  0  0  0  0  0  0  0  0  0  0  0
  1 19  1  0  0  0  0
  1  4  1  0  0  0  0
  2  8  1  0  0  0  0
  2 22  1  0  0  0  0
  3  6  2  0  0  0  0
  4 23  1  6  0  0  0
  4 10  1  0  0  0  0
  5 33  1  6  0  0  0
  5  9  1  0  0  0  0
  6  5  1  0  0  0  0
  6 19  1  0  0  0  0
  7 21  1  0  0  0  0
  8 11  2  0  0  0  0
  9 20  1  0  0  0  0
 10 17  1  0  0  0  0
 11 21  1  0  0  0  0
 12 18  1  0  0  0  0
 13  8  1  0  0  0  0
 14 13  1  0  0  0  0
 16 14  2  0  0  0  0
 16 17  1  0  0  0  0
 17  2  2  0  0  0  0
 18 13  1  0  0  0  0
 18 15  2  0  0  0  0
 19 16  1  0  0  0  0
 20 12  2  0  0  0  0
 20 14  1  0  0  0  0
 22  7  1  0  0  0  0
 23 24  2  0  0  0  0
 25 23  1  0  0  0  0
 26 31  1  1  0  0  0
 26 29  1  0  0  0  0
 27 26  1  0  0  0  0
 27 30  1  0  0  0  0
 29 28  1  0  0  0  0
 29 25  1  6  0  0  0
 30 28  1  0  0  0  0
 32 31  1  0  0  0  0
 34 33  1  0  0  0  0
 35 36  1  0  0  0  0
 35 34  1  0  0  0  0
 37 36  1  0  0  0  0
 38 37  1  0  0  0  0
 39 44  1  6  0  0  0
 39 38  1  0  0  0  0
 40 39  1  0  0  0  0
 40 42  1  0  0  0  0
 41 40  2  0  0  0  0
 43 44  1  0  0  0  0
 44 45  2  0  0  0  0
M  END
>  <MODEL>
4

>  <REMARK>
 VINA RESULT:      -4.1      1.578      2.073
  Name = 
  13 active torsions:
  status: ('A' for Active; 'I' for Inactive)
    1  A    between atoms: CA_2  and  C_13
    2  A    between atoms: CA_2  and  N_41
    3  A    between atoms: CA_2  and  C_42
    4  A    between atoms: S_4  and  C_14
    5  A    between atoms: S_4  and  C_20
    6  A    between atoms: C_5  and  C_30
    7  A    between atoms: C_8  and  C_14
    8  A    between atoms: C_9  and  O_18
    9  A    between atoms: C_9  and  C_38
   10  A    between atoms: C_10  and  O_18
   11  A    between atoms: C_12  and  C_34
   12  A    between atoms: C_12  and  N_41
   13  A    between atoms: C_34  and  C_38
                            x       y       z     vdW  Elec       q    Type
                         _______ _______ _______ _____ _____    ______ ____

>  <TORSDO>
F 13

$$$$
