=
 OpenBabel11052409483D

 26 30  0  0  1  0  0  0  0  0999 V2000
  161.6730  208.5470  149.7030 C   0  0  0  0  0  0  0  0  0  0  0  0
  161.1440  207.6400  151.8710 C   0  0  0  0  0  0  0  0  0  0  0  0
  161.4020  207.2900  149.1460 C   0  0  0  0  0  0  0  0  0  0  0  0
  161.0150  206.2730  149.9630 N   0  0  0  0  0  0  0  0  0  0  0  0
  161.5430  208.7180  151.0800 C   0  0  0  0  0  3  0  0  0  0  0  0
  162.0990  209.7060  148.8670 C   0  0  0  0  0  1  0  0  0  0  0  0
  160.8910  206.4420  151.2810 N   0  0  0  0  0  0  0  0  0  0  0  0
  160.9680  208.5860  155.2280 C   0  0  0  0  0  0  0  0  0  0  0  0
  160.9930  209.2480  156.3900 N   0  0  0  0  0  0  0  0  0  0  0  0
  160.9980  207.7910  153.3250 C   0  0  0  0  0  0  0  0  0  0  0  0
  160.6130  206.7660  154.1490 N   0  0  0  0  0  0  0  0  0  0  0  0
  160.3690  207.0380  156.5900 C   0  0  0  0  0  3  0  0  0  0  0  0
  160.6220  207.3520  155.3220 N   0  0  0  0  0  0  0  0  0  0  0  0
  161.2350  208.9790  153.9760 N   0  0  0  0  0  2  0  0  0  0  0  0
  160.6110  208.2580  157.2610 C   0  0  0  0  0  3  0  0  0  0  0  0
  160.4970  206.0400  147.2040 C   0  0  0  0  0  2  0  0  0  0  0  0
  162.8450  206.5490  147.3380 N   0  0  0  0  0  2  0  0  0  0  0  0
  161.2320  205.1660  146.2140 C   0  0  1  0  0  3  0  0  0  0  0  0
  162.6570  205.6860  146.1810 C   0  0  0  0  0  2  0  0  0  0  0  0
  161.5200  207.0540  147.6700 C   0  0  2  0  0  3  0  0  0  0  0  0
  160.8990  201.1890  147.5380 O   0  0  0  0  0  0  0  0  0  0  0  0
  161.1570  202.2150  148.4550 C   0  0  0  0  0  3  0  0  0  0  0  0
  161.1950  203.7700  146.6350 N   0  0  0  0  0  0  0  0  0  0  0  0
  161.2800  203.4740  148.0350 C   0  0  0  0  0  3  0  0  0  0  0  0
  161.2430  202.6770  145.6580 C   0  0  0  0  0  2  0  0  0  0  0  0
  160.4830  201.4690  146.2000 C   0  0  0  0  0  2  0  0  0  0  0  0
  1  5  1  0  0  0  0
  2 10  1  0  0  0  0
  3  1  2  0  0  0  0
  3  4  1  0  0  0  0
  4  7  2  0  0  0  0
  5  2  2  0  0  0  0
  6  1  1  0  0  0  0
  7  2  1  0  0  0  0
  8 13  1  0  0  0  0
  8  9  2  0  0  0  0
  9 15  1  0  0  0  0
 10 14  1  0  0  0  0
 10 11  2  0  0  0  0
 11 13  1  0  0  0  0
 12 15  2  0  0  0  0
 13 12  1  0  0  0  0
 14  8  1  0  0  0  0
 16 20  1  0  0  0  0
 17 20  1  0  0  0  0
 18 19  1  1  0  0  0
 18 23  1  0  0  0  0
 18 16  1  0  0  0  0
 19 17  1  0  0  0  0
 20  3  1  1  0  0  0
 21 22  1  0  0  0  0
 23 24  1  0  0  0  0
 24 22  2  0  0  0  0
 25 26  1  0  0  0  0
 25 23  1  0  0  0  0
 26 21  1  0  0  0  0
M  END
>  <MODEL>
1

>  <REMARK>
 VINA RESULT:      -7.9      0.000      0.000
  Name = 
  3 active torsions:
  status: ('A' for Active; 'I' for Inactive)
    1  A    between atoms: C_6  and  C_10
    2  A    between atoms: C_7  and  C_26
    3  A    between atoms: N_11  and  C_14
                            x       y       z     vdW  Elec       q    Type
                         _______ _______ _______ _____ _____    ______ ____

>  <TORSDO>
F 3

$$$$
=
 OpenBabel11052409483D

 26 30  0  0  1  0  0  0  0  0999 V2000
  161.6250  208.3300  149.6330 C   0  0  0  0  0  0  0  0  0  0  0  0
  161.2370  205.9730  149.9470 C   0  0  0  0  0  0  0  0  0  0  0  0
  161.3870  208.5190  151.0020 C   0  0  0  0  0  0  0  0  0  0  0  0
  161.0900  207.4410  151.7780 N   0  0  0  0  0  0  0  0  0  0  0  0
  161.5470  207.0430  149.1060 C   0  0  0  0  0  3  0  0  0  0  0  0
  161.9580  209.4650  148.7260 C   0  0  0  0  0  1  0  0  0  0  0  0
  161.0160  206.2100  151.2680 N   0  0  0  0  0  0  0  0  0  0  0  0
  161.1690  202.9810  148.1480 C   0  0  0  0  0  0  0  0  0  0  0  0
  161.2260  202.0370  147.2010 N   0  0  0  0  0  0  0  0  0  0  0  0
  161.1480  204.6050  149.4190 C   0  0  0  0  0  0  0  0  0  0  0  0
  160.8420  203.5210  150.1990 N   0  0  0  0  0  0  0  0  0  0  0  0
  160.7000  201.2280  149.2950 C   0  0  0  0  0  3  0  0  0  0  0  0
  160.8760  202.5470  149.3210 N   0  0  0  0  0  0  0  0  0  0  0  0
  161.3670  204.3050  148.0940 N   0  0  0  0  0  2  0  0  0  0  0  0
  160.9260  200.9170  147.9360 C   0  0  0  0  0  3  0  0  0  0  0  0
  162.3870  209.8750  152.8220 C   0  0  0  0  0  2  0  0  0  0  0  0
  160.1480  210.3190  152.0610 N   0  0  0  0  0  2  0  0  0  0  0  0
  161.6940  210.7310  153.8560 C   0  0  1  0  0  3  0  0  0  0  0  0
  160.3840  211.1630  153.2230 C   0  0  0  0  0  2  0  0  0  0  0  0
  161.4660  209.8820  151.6210 C   0  0  2  0  0  3  0  0  0  0  0  0
  161.1060  208.3350  157.2610 O   0  0  0  0  0  0  0  0  0  0  0  0
  160.2850  208.1740  156.1380 C   0  0  0  0  0  3  0  0  0  0  0  0
  161.4580  209.9720  155.0780 N   0  0  0  0  0  0  0  0  0  0  0  0
  160.4580  208.9450  155.0650 C   0  0  0  0  0  3  0  0  0  0  0  0
  162.0950  210.3480  156.3460 C   0  0  0  0  0  2  0  0  0  0  0  0
  162.3100  209.1040  157.2020 C   0  0  0  0  0  2  0  0  0  0  0  0
  1  3  1  0  0  0  0
  2  7  2  0  0  0  0
  3  4  2  0  0  0  0
  5  1  2  0  0  0  0
  5  2  1  0  0  0  0
  6  1  1  0  0  0  0
  7  4  1  0  0  0  0
  8 13  1  0  0  0  0
  9 15  1  0  0  0  0
  9  8  2  0  0  0  0
 10  2  1  0  0  0  0
 10 11  2  0  0  0  0
 12 13  1  0  0  0  0
 13 11  1  0  0  0  0
 14  8  1  0  0  0  0
 14 10  1  0  0  0  0
 15 12  2  0  0  0  0
 17 19  1  0  0  0  0
 18 16  1  6  0  0  0
 18 23  1  0  0  0  0
 19 18  1  0  0  0  0
 20  3  1  1  0  0  0
 20 17  1  0  0  0  0
 20 16  1  0  0  0  0
 22 21  1  0  0  0  0
 23 25  1  0  0  0  0
 24 23  1  0  0  0  0
 24 22  2  0  0  0  0
 25 26  1  0  0  0  0
 26 21  1  0  0  0  0
M  END
>  <MODEL>
2

>  <REMARK>
 VINA RESULT:      -7.8      2.941      8.122
  Name = 
  3 active torsions:
  status: ('A' for Active; 'I' for Inactive)
    1  A    between atoms: C_6  and  C_10
    2  A    between atoms: C_7  and  C_26
    3  A    between atoms: N_11  and  C_14
                            x       y       z     vdW  Elec       q    Type
                         _______ _______ _______ _____ _____    ______ ____

>  <TORSDO>
F 3

$$$$
=
 OpenBabel11052409483D

 26 30  0  0  1  0  0  0  0  0999 V2000
  161.2960  206.8990  152.6090 C   0  0  0  0  0  0  0  0  0  0  0  0
  161.5210  206.9880  150.2120 C   0  0  0  0  0  0  0  0  0  0  0  0
  161.3070  208.3010  152.6300 C   0  0  0  0  0  0  0  0  0  0  0  0
  161.4210  208.9800  151.4560 N   0  0  0  0  0  0  0  0  0  0  0  0
  161.4050  206.2420  151.3860 C   0  0  0  0  0  3  0  0  0  0  0  0
  161.1710  206.0930  153.8570 C   0  0  0  0  0  1  0  0  0  0  0  0
  161.5250  208.3450  150.2870 N   0  0  0  0  0  0  0  0  0  0  0  0
  162.0290  205.9440  146.9190 C   0  0  0  0  0  0  0  0  0  0  0  0
  162.3420  205.8590  145.6210 N   0  0  0  0  0  0  0  0  0  0  0  0
  161.6380  206.3210  148.9080 C   0  0  0  0  0  0  0  0  0  0  0  0
  161.2620  205.0200  148.6970 N   0  0  0  0  0  0  0  0  0  0  0  0
  161.4700  203.9140  146.5000 C   0  0  0  0  0  3  0  0  0  0  0  0
  161.5410  204.8690  147.4250 N   0  0  0  0  0  0  0  0  0  0  0  0
  162.1370  206.9530  147.7930 N   0  0  0  0  0  2  0  0  0  0  0  0
  161.9830  204.5610  145.3540 C   0  0  0  0  0  3  0  0  0  0  0  0
  159.7350  209.3670  154.2250 C   0  0  0  0  0  2  0  0  0  0  0  0
  161.9110  210.3180  153.8410 N   0  0  0  0  0  2  0  0  0  0  0  0
  159.7370  210.7820  154.7550 C   0  0  1  0  0  3  0  0  0  0  0  0
  161.1810  211.2450  154.6930 C   0  0  0  0  0  2  0  0  0  0  0  0
  161.1850  209.0580  153.9180 C   0  0  2  0  0  3  0  0  0  0  0  0
  157.3800  213.4490  152.5150 O   0  0  0  0  0  0  0  0  0  0  0  0
  157.1600  213.3020  153.8910 C   0  0  0  0  0  3  0  0  0  0  0  0
  158.8800  211.6370  153.9410 N   0  0  0  0  0  0  0  0  0  0  0  0
  157.8940  212.4440  154.5980 C   0  0  0  0  0  3  0  0  0  0  0  0
  158.8930  211.5580  152.4760 C   0  0  0  0  0  2  0  0  0  0  0  0
  158.5490  212.9220  151.8850 C   0  0  0  0  0  2  0  0  0  0  0  0
  1  3  1  0  0  0  0
  1  6  1  0  0  0  0
  2  7  2  0  0  0  0
  2  5  1  0  0  0  0
  4  3  2  0  0  0  0
  5  1  2  0  0  0  0
  7  4  1  0  0  0  0
  8 13  1  0  0  0  0
  8 14  1  0  0  0  0
  9  8  2  0  0  0  0
 10  2  1  0  0  0  0
 11 10  2  0  0  0  0
 12 13  1  0  0  0  0
 13 11  1  0  0  0  0
 14 10  1  0  0  0  0
 15  9  1  0  0  0  0
 15 12  2  0  0  0  0
 16 18  1  0  0  0  0
 17 20  1  0  0  0  0
 17 19  1  0  0  0  0
 18 23  1  6  0  0  0
 19 18  1  0  0  0  0
 20  3  1  6  0  0  0
 20 16  1  0  0  0  0
 21 22  1  0  0  0  0
 22 24  2  0  0  0  0
 23 24  1  0  0  0  0
 25 23  1  0  0  0  0
 26 25  1  0  0  0  0
 26 21  1  0  0  0  0
M  END
>  <MODEL>
3

>  <REMARK>
 VINA RESULT:      -7.7      3.741      8.804
  Name = 
  3 active torsions:
  status: ('A' for Active; 'I' for Inactive)
    1  A    between atoms: C_6  and  C_10
    2  A    between atoms: C_7  and  C_26
    3  A    between atoms: N_11  and  C_14
                            x       y       z     vdW  Elec       q    Type
                         _______ _______ _______ _____ _____    ______ ____

>  <TORSDO>
F 3

$$$$
=
 OpenBabel11052409483D

 26 30  0  0  1  0  0  0  0  0999 V2000
  162.0190  209.2550  150.8130 C   0  0  0  0  0  0  0  0  0  0  0  0
  161.5700  207.1450  149.7400 C   0  0  0  0  0  0  0  0  0  0  0  0
  162.0080  209.8630  149.5500 C   0  0  0  0  0  0  0  0  0  0  0  0
  161.7790  209.0980  148.4480 N   0  0  0  0  0  0  0  0  0  0  0  0
  161.7990  207.8820  150.9030 C   0  0  0  0  0  3  0  0  0  0  0  0
  162.2610  210.0330  152.0620 C   0  0  0  0  0  1  0  0  0  0  0  0
  161.5680  207.7830  148.5400 N   0  0  0  0  0  0  0  0  0  0  0  0
  161.0680  203.7750  150.5070 C   0  0  0  0  0  0  0  0  0  0  0  0
  160.9150  202.5940  151.1170 N   0  0  0  0  0  0  0  0  0  0  0  0
  161.3350  205.6960  149.8050 C   0  0  0  0  0  0  0  0  0  0  0  0
  161.1210  204.9230  148.6950 N   0  0  0  0  0  0  0  0  0  0  0  0
  160.7220  202.4900  148.8220 C   0  0  0  0  0  3  0  0  0  0  0  0
  160.9650  203.7350  149.2270 N   0  0  0  0  0  0  0  0  0  0  0  0
  161.3090  205.0000  150.9920 N   0  0  0  0  0  2  0  0  0  0  0  0
  160.6940  201.7730  150.0390 C   0  0  0  0  0  3  0  0  0  0  0  0
  160.9270  212.0950  149.5150 C   0  0  0  0  0  2  0  0  0  0  0  0
  162.8150  211.6340  148.0960 N   0  0  0  0  0  2  0  0  0  0  0  0
  160.9950  213.1640  148.4490 C   0  0  1  0  0  3  0  0  0  0  0  0
  162.3180  212.9530  147.7350 C   0  0  0  0  0  2  0  0  0  0  0  0
  162.2330  211.3380  149.3980 C   0  0  2  0  0  3  0  0  0  0  0  0
  157.8140  212.5470  145.7700 O   0  0  0  0  0  0  0  0  0  0  0  0
  159.1370  212.4300  145.3270 C   0  0  0  0  0  3  0  0  0  0  0  0
  159.8760  213.0370  147.5220 N   0  0  0  0  0  0  0  0  0  0  0  0
  160.1460  212.6430  146.1700 C   0  0  0  0  0  3  0  0  0  0  0  0
  158.5230  213.4640  147.8960 C   0  0  0  0  0  2  0  0  0  0  0  0
  157.4930  212.6110  147.1610 C   0  0  0  0  0  2  0  0  0  0  0  0
  1  5  1  0  0  0  0
  1  6  1  0  0  0  0
  2 10  1  0  0  0  0
  2  5  2  0  0  0  0
  3  1  2  0  0  0  0
  4  7  2  0  0  0  0
  4  3  1  0  0  0  0
  7  2  1  0  0  0  0
  8 14  1  0  0  0  0
  8  9  2  0  0  0  0
 10 14  1  0  0  0  0
 11 13  1  0  0  0  0
 11 10  2  0  0  0  0
 12 13  1  0  0  0  0
 12 15  2  0  0  0  0
 13  8  1  0  0  0  0
 15  9  1  0  0  0  0
 17 20  1  0  0  0  0
 18 23  1  6  0  0  0
 18 16  1  0  0  0  0
 19 17  1  0  0  0  0
 19 18  1  0  0  0  0
 20 16  1  0  0  0  0
 20  3  1  6  0  0  0
 21 26  1  0  0  0  0
 22 21  1  0  0  0  0
 22 24  2  0  0  0  0
 23 25  1  0  0  0  0
 24 23  1  0  0  0  0
 26 25  1  0  0  0  0
M  END
>  <MODEL>
4

>  <REMARK>
 VINA RESULT:      -7.6      4.031      7.282
  Name = 
  3 active torsions:
  status: ('A' for Active; 'I' for Inactive)
    1  A    between atoms: C_6  and  C_10
    2  A    between atoms: C_7  and  C_26
    3  A    between atoms: N_11  and  C_14
                            x       y       z     vdW  Elec       q    Type
                         _______ _______ _______ _____ _____    ______ ____

>  <TORSDO>
F 3

$$$$
=
 OpenBabel11052409483D

 26 30  0  0  1  0  0  0  0  0999 V2000
  161.2740  206.8200  152.6140 C   0  0  0  0  0  0  0  0  0  0  0  0
  161.4790  206.9180  150.2160 C   0  0  0  0  0  0  0  0  0  0  0  0
  161.2150  208.2210  152.6340 C   0  0  0  0  0  0  0  0  0  0  0  0
  161.2860  208.9040  151.4590 N   0  0  0  0  0  0  0  0  0  0  0  0
  161.4090  206.1680  151.3900 C   0  0  0  0  0  3  0  0  0  0  0  0
  161.1990  206.0090  153.8630 C   0  0  0  0  0  1  0  0  0  0  0  0
  161.4150  208.2740  150.2900 N   0  0  0  0  0  0  0  0  0  0  0  0
  162.0190  205.8980  146.9190 C   0  0  0  0  0  0  0  0  0  0  0  0
  162.3280  205.8270  145.6200 N   0  0  0  0  0  0  0  0  0  0  0  0
  161.6200  206.2570  148.9110 C   0  0  0  0  0  0  0  0  0  0  0  0
  161.3060  204.9400  148.7020 N   0  0  0  0  0  0  0  0  0  0  0  0
  161.5540  203.8440  146.5040 C   0  0  0  0  0  3  0  0  0  0  0  0
  161.5850  204.8020  147.4280 N   0  0  0  0  0  0  0  0  0  0  0  0
  162.0830  206.9110  147.7930 N   0  0  0  0  0  2  0  0  0  0  0  0
  162.0300  204.5140  145.3550 C   0  0  0  0  0  3  0  0  0  0  0  0
  159.7090  209.6440  153.9980 C   0  0  0  0  0  2  0  0  0  0  0  0
  162.0890  210.0000  154.0380 N   0  0  0  0  0  2  0  0  0  0  0  0
  159.9780  211.0050  154.5960 C   0  0  1  0  0  3  0  0  0  0  0  0
  161.4800  211.0760  154.8050 C   0  0  0  0  0  2  0  0  0  0  0  0
  161.0640  208.9710  153.9230 C   0  0  2  0  0  3  0  0  0  0  0  0
  158.5620  213.8670  151.8610 O   0  0  0  0  0  0  0  0  0  0  0  0
  159.6130  213.0140  151.5030 C   0  0  0  0  0  3  0  0  0  0  0  0
  159.5240  212.0610  153.6980 N   0  0  0  0  0  0  0  0  0  0  0  0
  160.0740  212.1180  152.3750 C   0  0  0  0  0  3  0  0  0  0  0  0
  158.6590  213.1460  154.1710 C   0  0  0  0  0  2  0  0  0  0  0  0
  157.7720  213.6320  153.0290 C   0  0  0  0  0  2  0  0  0  0  0  0
  1  3  1  0  0  0  0
  1  6  1  0  0  0  0
  2  7  2  0  0  0  0
  2  5  1  0  0  0  0
  4  3  2  0  0  0  0
  5  1  2  0  0  0  0
  7  4  1  0  0  0  0
  8 13  1  0  0  0  0
  8 14  1  0  0  0  0
  9  8  2  0  0  0  0
 10  2  1  0  0  0  0
 11 10  2  0  0  0  0
 12 13  1  0  0  0  0
 13 11  1  0  0  0  0
 14 10  1  0  0  0  0
 15  9  1  0  0  0  0
 15 12  2  0  0  0  0
 16 18  1  0  0  0  0
 17 19  1  0  0  0  0
 18 23  1  6  0  0  0
 18 19  1  0  0  0  0
 20  3  1  6  0  0  0
 20 16  1  0  0  0  0
 20 17  1  0  0  0  0
 21 26  1  0  0  0  0
 22 21  1  0  0  0  0
 22 24  2  0  0  0  0
 23 25  1  0  0  0  0
 24 23  1  0  0  0  0
 26 25  1  0  0  0  0
M  END
>  <MODEL>
5

>  <REMARK>
 VINA RESULT:      -7.6      3.722      8.827
  Name = 
  3 active torsions:
  status: ('A' for Active; 'I' for Inactive)
    1  A    between atoms: C_6  and  C_10
    2  A    between atoms: C_7  and  C_26
    3  A    between atoms: N_11  and  C_14
                            x       y       z     vdW  Elec       q    Type
                         _______ _______ _______ _____ _____    ______ ____

>  <TORSDO>
F 3

$$$$
=
 OpenBabel11052409483D

 26 30  0  0  1  0  0  0  0  0999 V2000
  161.8870  209.4420  149.9310 C   0  0  0  0  0  0  0  0  0  0  0  0
  161.4460  209.2840  152.2940 C   0  0  0  0  0  0  0  0  0  0  0  0
  161.5040  208.1000  149.8020 C   0  0  0  0  0  0  0  0  0  0  0  0
  161.1090  207.4140  150.9090 N   0  0  0  0  0  0  0  0  0  0  0  0
  161.8570  210.0350  151.1910 C   0  0  0  0  0  3  0  0  0  0  0  0
  162.3270  210.2530  148.7590 C   0  0  0  0  0  1  0  0  0  0  0  0
  161.0830  207.9870  152.1150 N   0  0  0  0  0  0  0  0  0  0  0  0
  161.0370  211.1680  155.2060 C   0  0  0  0  0  0  0  0  0  0  0  0
  160.7170  212.0980  156.1130 N   0  0  0  0  0  0  0  0  0  0  0  0
  161.4050  209.8830  153.6350 C   0  0  0  0  0  0  0  0  0  0  0  0
  161.9630  209.2900  154.7360 N   0  0  0  0  0  0  0  0  0  0  0  0
  161.8800  210.3080  156.9840 C   0  0  0  0  0  3  0  0  0  0  0  0
  161.6860  210.1630  155.6750 N   0  0  0  0  0  0  0  0  0  0  0  0
  160.7980  211.0910  153.8900 N   0  0  0  0  0  2  0  0  0  0  0  0
  161.2570  211.5480  157.2490 C   0  0  0  0  0  3  0  0  0  0  0  0
  160.4340  206.3540  148.4020 C   0  0  0  0  0  2  0  0  0  0  0  0
  162.7960  206.7760  148.2290 N   0  0  0  0  0  2  0  0  0  0  0  0
  161.0760  205.1860  147.6890 C   0  0  1  0  0  3  0  0  0  0  0  0
  162.5060  205.6090  147.4100 C   0  0  0  0  0  2  0  0  0  0  0  0
  161.5100  207.4170  148.4670 C   0  0  2  0  0  3  0  0  0  0  0  0
  160.7280  201.8060  150.1660 O   0  0  0  0  0  0  0  0  0  0  0  0
  160.8660  203.0790  150.7310 C   0  0  0  0  0  3  0  0  0  0  0  0
  161.0380  203.9910  148.5240 N   0  0  0  0  0  0  0  0  0  0  0  0
  160.9940  204.1500  149.9480 C   0  0  0  0  0  3  0  0  0  0  0  0
  161.2110  202.6520  147.9480 C   0  0  0  0  0  2  0  0  0  0  0  0
  160.4370  201.6320  148.7770 C   0  0  0  0  0  2  0  0  0  0  0  0
  1  5  1  0  0  0  0
  2 10  1  0  0  0  0
  3  1  2  0  0  0  0
  3  4  1  0  0  0  0
  4  7  2  0  0  0  0
  5  2  2  0  0  0  0
  6  1  1  0  0  0  0
  7  2  1  0  0  0  0
  8 13  1  0  0  0  0
  8  9  2  0  0  0  0
  9 15  1  0  0  0  0
 10 14  1  0  0  0  0
 10 11  2  0  0  0  0
 11 13  1  0  0  0  0
 12 15  2  0  0  0  0
 13 12  1  0  0  0  0
 14  8  1  0  0  0  0
 16 20  1  0  0  0  0
 17 20  1  0  0  0  0
 18 19  1  1  0  0  0
 18 16  1  0  0  0  0
 18 23  1  0  0  0  0
 19 17  1  0  0  0  0
 20  3  1  1  0  0  0
 21 22  1  0  0  0  0
 23 24  1  0  0  0  0
 24 22  2  0  0  0  0
 25 23  1  0  0  0  0
 25 26  1  0  0  0  0
 26 21  1  0  0  0  0
M  END
>  <MODEL>
6

>  <REMARK>
 VINA RESULT:      -7.5      1.774      2.137
  Name = 
  3 active torsions:
  status: ('A' for Active; 'I' for Inactive)
    1  A    between atoms: C_6  and  C_10
    2  A    between atoms: C_7  and  C_26
    3  A    between atoms: N_11  and  C_14
                            x       y       z     vdW  Elec       q    Type
                         _______ _______ _______ _____ _____    ______ ____

>  <TORSDO>
F 3

$$$$
=
 OpenBabel11052409483D

 26 30  0  0  1  0  0  0  0  0999 V2000
  161.7300  208.0420  149.5950 C   0  0  0  0  0  0  0  0  0  0  0  0
  161.1080  207.1910  151.7610 C   0  0  0  0  0  0  0  0  0  0  0  0
  161.5710  206.7490  149.0760 C   0  0  0  0  0  0  0  0  0  0  0  0
  161.1890  205.7440  149.9100 N   0  0  0  0  0  0  0  0  0  0  0  0
  161.4960  208.2590  150.9510 C   0  0  0  0  0  3  0  0  0  0  0  0
  162.1430  209.1900  148.7380 C   0  0  0  0  0  1  0  0  0  0  0  0
  160.9660  205.9570  151.2090 N   0  0  0  0  0  0  0  0  0  0  0  0
  160.5390  207.0480  155.2040 C   0  0  0  0  0  0  0  0  0  0  0  0
  160.3550  206.6620  156.4710 N   0  0  0  0  0  0  0  0  0  0  0  0
  160.8540  207.3910  153.1940 C   0  0  0  0  0  0  0  0  0  0  0  0
  160.6810  208.6280  153.7580 N   0  0  0  0  0  0  0  0  0  0  0  0
  160.2600  208.9450  156.1700 C   0  0  0  0  0  3  0  0  0  0  0  0
  160.4880  208.3180  155.0180 N   0  0  0  0  0  0  0  0  0  0  0  0
  160.7720  206.3470  154.0870 N   0  0  0  0  0  2  0  0  0  0  0  0
  160.1760  207.8750  157.0880 C   0  0  0  0  0  3  0  0  0  0  0  0
  160.7090  205.5750  147.0690 C   0  0  0  0  0  2  0  0  0  0  0  0
  163.0780  205.7850  147.4340 N   0  0  0  0  0  2  0  0  0  0  0  0
  161.4190  204.5890  146.1710 C   0  0  1  0  0  3  0  0  0  0  0  0
  162.8960  204.9240  146.2760 C   0  0  0  0  0  2  0  0  0  0  0  0
  161.8030  206.4630  147.6240 C   0  0  2  0  0  3  0  0  0  0  0  0
  160.8960  200.5750  147.3080 O   0  0  0  0  0  0  0  0  0  0  0  0
  160.7560  200.9490  145.9660 C   0  0  0  0  0  3  0  0  0  0  0  0
  161.1610  203.2210  146.6040 N   0  0  0  0  0  0  0  0  0  0  0  0
  160.9040  202.2230  145.6070 C   0  0  0  0  0  3  0  0  0  0  0  0
  160.9940  202.8870  148.0230 C   0  0  0  0  0  2  0  0  0  0  0  0
  161.4690  201.4590  148.2740 C   0  0  0  0  0  2  0  0  0  0  0  0
  1  5  1  0  0  0  0
  2 10  1  0  0  0  0
  3  1  2  0  0  0  0
  3  4  1  0  0  0  0
  4  7  2  0  0  0  0
  5  2  2  0  0  0  0
  6  1  1  0  0  0  0
  7  2  1  0  0  0  0
  8  9  2  0  0  0  0
  9 15  1  0  0  0  0
 10 11  2  0  0  0  0
 10 14  1  0  0  0  0
 11 13  1  0  0  0  0
 12 15  2  0  0  0  0
 13  8  1  0  0  0  0
 13 12  1  0  0  0  0
 14  8  1  0  0  0  0
 16 20  1  0  0  0  0
 17 20  1  0  0  0  0
 18 19  1  1  0  0  0
 18 23  1  0  0  0  0
 18 16  1  0  0  0  0
 19 17  1  0  0  0  0
 20  3  1  1  0  0  0
 21 26  1  0  0  0  0
 22 21  1  0  0  0  0
 23 25  1  0  0  0  0
 24 22  2  0  0  0  0
 24 23  1  0  0  0  0
 25 26  1  0  0  0  0
M  END
>  <MODEL>
7

>  <REMARK>
 VINA RESULT:      -7.4      0.749      1.486
  Name = 
  3 active torsions:
  status: ('A' for Active; 'I' for Inactive)
    1  A    between atoms: C_6  and  C_10
    2  A    between atoms: C_7  and  C_26
    3  A    between atoms: N_11  and  C_14
                            x       y       z     vdW  Elec       q    Type
                         _______ _______ _______ _____ _____    ______ ____

>  <TORSDO>
F 3

$$$$
=
 OpenBabel11052409483D

 26 30  0  0  1  0  0  0  0  0999 V2000
  161.8910  209.1890  149.3590 C   0  0  0  0  0  0  0  0  0  0  0  0
  161.5210  206.8210  149.1160 C   0  0  0  0  0  0  0  0  0  0  0  0
  161.6260  209.0580  150.7290 C   0  0  0  0  0  0  0  0  0  0  0  0
  161.3250  207.8290  151.2310 N   0  0  0  0  0  0  0  0  0  0  0  0
  161.8360  208.0570  148.5490 C   0  0  0  0  0  3  0  0  0  0  0  0
  162.2300  210.5040  148.7430 C   0  0  0  0  0  1  0  0  0  0  0  0
  161.2730  206.7470  150.4510 N   0  0  0  0  0  0  0  0  0  0  0  0
  161.4810  204.3270  146.6710 C   0  0  0  0  0  0  0  0  0  0  0  0
  161.5330  203.6310  145.5300 N   0  0  0  0  0  0  0  0  0  0  0  0
  161.4550  205.6100  148.2860 C   0  0  0  0  0  0  0  0  0  0  0  0
  161.2140  204.3630  148.8000 N   0  0  0  0  0  0  0  0  0  0  0  0
  161.1110  202.3390  147.3910 C   0  0  0  0  0  3  0  0  0  0  0  0
  161.2460  203.6220  147.7190 N   0  0  0  0  0  0  0  0  0  0  0  0
  161.6340  205.6340  146.9230 N   0  0  0  0  0  2  0  0  0  0  0  0
  161.2950  202.3610  145.9910 C   0  0  0  0  0  3  0  0  0  0  0  0
  162.4360  209.9080  152.9140 C   0  0  0  0  0  2  0  0  0  0  0  0
  160.3340  210.6620  152.0170 N   0  0  0  0  0  2  0  0  0  0  0  0
  161.6500  210.5620  154.0260 C   0  0  1  0  0  3  0  0  0  0  0  0
  160.4510  211.2120  153.3590 C   0  0  0  0  0  2  0  0  0  0  0  0
  161.6790  210.2430  151.6460 C   0  0  2  0  0  3  0  0  0  0  0  0
  160.1980  207.8130  156.8570 O   0  0  0  0  0  0  0  0  0  0  0  0
  160.4240  209.1450  157.2240 C   0  0  0  0  0  3  0  0  0  0  0  0
  161.2260  209.5700  155.0090 N   0  0  0  0  0  0  0  0  0  0  0  0
  160.9010  210.0130  156.3330 C   0  0  0  0  0  3  0  0  0  0  0  0
  161.2900  208.1330  154.7190 C   0  0  0  0  0  2  0  0  0  0  0  0
  160.1910  207.4050  155.4870 C   0  0  0  0  0  2  0  0  0  0  0  0
  1  3  1  0  0  0  0
  2  7  2  0  0  0  0
  3  4  2  0  0  0  0
  5  2  1  0  0  0  0
  5  1  2  0  0  0  0
  6  1  1  0  0  0  0
  7  4  1  0  0  0  0
  8 14  1  0  0  0  0
  8 13  1  0  0  0  0
  9 15  1  0  0  0  0
  9  8  2  0  0  0  0
 10 11  2  0  0  0  0
 10  2  1  0  0  0  0
 12 13  1  0  0  0  0
 13 11  1  0  0  0  0
 14 10  1  0  0  0  0
 15 12  2  0  0  0  0
 17 19  1  0  0  0  0
 18 16  1  6  0  0  0
 18 23  1  0  0  0  0
 19 18  1  0  0  0  0
 20  3  1  6  0  0  0
 20 17  1  0  0  0  0
 20 16  1  0  0  0  0
 21 22  1  0  0  0  0
 23 24  1  0  0  0  0
 24 22  2  0  0  0  0
 25 23  1  0  0  0  0
 25 26  1  0  0  0  0
 26 21  1  0  0  0  0
M  END
>  <MODEL>
8

>  <REMARK>
 VINA RESULT:      -7.3      2.710      8.185
  Name = 
  3 active torsions:
  status: ('A' for Active; 'I' for Inactive)
    1  A    between atoms: C_6  and  C_10
    2  A    between atoms: C_7  and  C_26
    3  A    between atoms: N_11  and  C_14
                            x       y       z     vdW  Elec       q    Type
                         _______ _______ _______ _____ _____    ______ ____

>  <TORSDO>
F 3

$$$$
=
 OpenBabel11052409483D

 26 30  0  0  1  0  0  0  0  0999 V2000
  160.6870  207.6250  154.3630 C   0  0  0  0  0  0  0  0  0  0  0  0
  160.9520  207.4330  151.9770 C   0  0  0  0  0  0  0  0  0  0  0  0
  160.6540  209.0190  154.2160 C   0  0  0  0  0  0  0  0  0  0  0  0
  160.7670  209.5560  152.9700 N   0  0  0  0  0  0  0  0  0  0  0  0
  160.8390  206.8290  153.2300 C   0  0  0  0  0  3  0  0  0  0  0  0
  160.5650  206.9700  155.6970 C   0  0  0  0  0  1  0  0  0  0  0  0
  160.9130  208.7890  151.8880 N   0  0  0  0  0  0  0  0  0  0  0  0
  161.4730  206.0350  148.8190 C   0  0  0  0  0  0  0  0  0  0  0  0
  161.7410  205.8200  147.5260 N   0  0  0  0  0  0  0  0  0  0  0  0
  161.1130  206.6190  150.7640 C   0  0  0  0  0  0  0  0  0  0  0  0
  160.9280  205.2610  150.7450 N   0  0  0  0  0  0  0  0  0  0  0  0
  161.2070  203.9090  148.6990 C   0  0  0  0  0  3  0  0  0  0  0  0
  161.1730  204.9800  149.4880 N   0  0  0  0  0  0  0  0  0  0  0  0
  161.4650  207.1590  149.5490 N   0  0  0  0  0  2  0  0  0  0  0  0
  161.5700  204.4600  147.4500 C   0  0  0  0  0  3  0  0  0  0  0  0
  159.0240  210.2510  155.6220 C   0  0  0  0  0  2  0  0  0  0  0  0
  161.2080  211.1690  155.2010 N   0  0  0  0  0  2  0  0  0  0  0  0
  159.0020  211.7180  155.9820 C   0  0  1  0  0  3  0  0  0  0  0  0
  160.4460  212.1820  155.9140 C   0  0  0  0  0  2  0  0  0  0  0  0
  160.4850  209.9200  155.4010 C   0  0  2  0  0  3  0  0  0  0  0  0
  156.5760  213.6550  153.1460 O   0  0  0  0  0  0  0  0  0  0  0  0
  157.8870  213.2900  152.8160 C   0  0  0  0  0  3  0  0  0  0  0  0
  158.1690  212.4640  155.0460 N   0  0  0  0  0  0  0  0  0  0  0  0
  158.6630  212.6930  153.7200 C   0  0  0  0  0  3  0  0  0  0  0  0
  156.9310  213.1200  155.4810 C   0  0  0  0  0  2  0  0  0  0  0  0
  155.9360  213.1600  154.3250 C   0  0  0  0  0  2  0  0  0  0  0  0
  1  6  1  0  0  0  0
  2  5  1  0  0  0  0
  3  1  1  0  0  0  0
  4  3  2  0  0  0  0
  5  1  2  0  0  0  0
  7  2  2  0  0  0  0
  7  4  1  0  0  0  0
  8 13  1  0  0  0  0
  8 14  1  0  0  0  0
  9  8  2  0  0  0  0
 10  2  1  0  0  0  0
 11 10  2  0  0  0  0
 12 13  1  0  0  0  0
 13 11  1  0  0  0  0
 14 10  1  0  0  0  0
 15  9  1  0  0  0  0
 15 12  2  0  0  0  0
 16 18  1  0  0  0  0
 17 20  1  0  0  0  0
 17 19  1  0  0  0  0
 18 23  1  6  0  0  0
 19 18  1  0  0  0  0
 20  3  1  6  0  0  0
 20 16  1  0  0  0  0
 21 26  1  0  0  0  0
 22 21  1  0  0  0  0
 22 24  2  0  0  0  0
 23 25  1  0  0  0  0
 24 23  1  0  0  0  0
 26 25  1  0  0  0  0
M  END
>  <MODEL>
9

>  <REMARK>
 VINA RESULT:      -7.3      4.096      9.131
  Name = 
  3 active torsions:
  status: ('A' for Active; 'I' for Inactive)
    1  A    between atoms: C_6  and  C_10
    2  A    between atoms: C_7  and  C_26
    3  A    between atoms: N_11  and  C_14
                            x       y       z     vdW  Elec       q    Type
                         _______ _______ _______ _____ _____    ______ ____

>  <TORSDO>
F 3

$$$$
