=
 OpenBabel11042421513D

 47 52  0  0  1  0  0  0  0  0999 V2000
  162.0580  208.5840  151.5580 C   0  0  1  0  0  3  0  0  0  0  0  0
  160.5540  208.7640  153.1800 O   0  0  0  0  0  0  0  0  0  0  0  0
  161.3650  209.8050  150.9220 C   0  0  1  0  0  3  0  0  0  0  0  0
  160.4150  210.1750  153.2280 C   0  0  2  0  0  3  0  0  0  0  0  0
  161.8380  208.4980  152.9590 O   0  0  0  0  0  0  0  0  0  0  0  0
  161.0710  210.8350  152.0130 C   0  0  0  0  0  2  0  0  0  0  0  0
  160.6310  204.8420  149.4800 C   0  0  1  0  0  3  0  0  0  0  0  0
  161.1920  206.1070  151.6460 C   0  0  0  0  0  2  0  0  0  0  0  0
  161.2530  207.3970  149.3870 C   0  0  1  0  0  3  0  0  0  0  0  0
  161.2110  204.7740  150.9010 C   0  0  0  0  0  2  0  0  0  0  0  0
  161.7590  207.2710  150.8220 C   0  0  1  0  0  0  0  0  0  0  0  0
  162.6880  206.9410  149.6610 C   0  0  0  0  0  2  0  0  0  0  0  0
  160.2820  206.2600  149.0020 C   0  0  0  0  0  2  0  0  0  0  0  0
  161.5790  204.1850  148.4900 C   0  0  0  0  0  2  0  0  0  0  0  0
  161.4650  204.0440  145.9480 C   0  0  1  0  0  0  0  0  0  0  0  0
  160.5160  204.0650  144.7660 C   0  0  0  0  0  1  0  0  0  0  0  0
  160.8270  203.6440  147.2770 C   0  0  1  0  0  3  0  0  0  0  0  0
  161.7120  202.6610  146.5140 C   0  0  0  0  0  2  0  0  0  0  0  0
  162.4600  206.3350  145.8450 O   0  0  0  0  0  0  0  0  0  0  0  0
  162.6530  204.9620  145.9270 C   0  0  0  0  0  0  0  0  0  0  0  0
  163.8250  204.5000  145.9800 O   0  0  0  0  0  1  0  0  0  0  0  0
  162.2690  210.4400  149.8770 C   0  0  0  0  0  2  0  0  0  0  0  0
  161.6870  211.7350  149.3060 C   0  0  0  0  0  2  0  0  0  0  0  0
  163.5850  212.3960  147.9980 O   0  0  0  0  0  1  0  0  0  0  0  0
  162.2200  212.0950  147.9160 C   0  0  2  0  0  3  0  0  0  0  0  0
  160.6470  213.9520  148.0050 C   0  0  0  0  0  2  0  0  0  0  0  0
  161.4760  213.2260  147.2680 C   0  0  0  0  0  0  0  0  0  0  0  0
  160.8390  212.7670  144.8780 N   0  0  0  0  0  0  0  0  0  0  0  0
  159.3890  212.7250  145.0200 C   0  0  0  0  0  2  0  0  0  0  0  0
  159.2430  213.3030  142.6060 C   0  0  0  0  0  2  0  0  0  0  0  0
  162.3700  214.4500  145.4320 O   0  0  0  0  0  0  0  0  0  0  0  0
  158.7780  213.6880  144.0100 C   0  0  0  0  0  2  0  0  0  0  0  0
  160.7750  213.3450  142.5050 C   0  0  1  0  0  3  0  0  0  0  0  0
  161.3900  212.4280  143.5700 C   0  0  0  0  0  2  0  0  0  0  0  0
  161.6010  213.5240  145.8270 C   0  0  0  0  0  0  0  0  0  0  0  0
  161.2290  212.9130  141.1130 C   0  0  0  0  0  3  0  0  0  0  0  0
  161.4250  211.5300  141.0840 O   0  0  0  0  0  1  0  0  0  0  0  0
  160.2640  213.2590  140.1680 O   0  0  0  0  0  1  0  0  0  0  0  0
  161.0130  210.7550  154.5110 C   0  0  0  0  0  2  0  0  0  0  0  0
  160.8550  209.9830  156.7760 O   0  0  0  0  0  0  0  0  0  0  0  0
  160.2500  210.3720  155.7430 C   0  0  0  0  0  0  0  0  0  0  0  0
  158.8650  210.5580  155.7560 O   0  0  0  0  0  0  0  0  0  0  0  0
  158.2400  211.6580  156.4120 C   0  0  0  0  0  2  0  0  0  0  0  0
  156.2670  213.1820  156.1030 O   0  0  0  0  0  1  0  0  0  0  0  0
  156.1060  210.9570  155.0830 C   0  0  0  0  0  2  0  0  0  0  0  0
  156.9560  212.0480  155.6940 C   0  0  0  0  0  0  0  0  0  0  0  0
  156.9680  211.8520  154.2020 C   0  0  0  0  0  2  0  0  0  0  0  0
  1  5  1  1  0  0  0
  2  4  1  0  0  0  0
  3 22  1  6  0  0  0
  3  1  1  0  0  0  0
  3  6  1  0  0  0  0
  4 39  1  1  0  0  0
  5  2  1  0  0  0  0
  6  4  1  0  0  0  0
  7 14  1  6  0  0  0
  7 10  1  0  0  0  0
  9 13  1  1  0  0  0
  9 12  1  0  0  0  0
  9 11  1  0  0  0  0
 10  8  1  0  0  0  0
 11 12  1  6  0  0  0
 11  1  1  0  0  0  0
 11  8  1  0  0  0  0
 13  7  1  0  0  0  0
 15 16  1  6  0  0  0
 15 18  1  0  0  0  0
 15 17  1  0  0  0  0
 17 14  1  1  0  0  0
 18 17  1  0  0  0  0
 19 20  2  0  0  0  0
 20 15  1  0  0  0  0
 20 21  1  0  0  0  0
 23 22  1  0  0  0  0
 25 24  1  1  0  0  0
 25 23  1  0  0  0  0
 27 25  1  0  0  0  0
 27 26  2  0  0  0  0
 28 29  1  0  0  0  0
 28 35  1  0  0  0  0
 30 32  1  0  0  0  0
 31 35  2  0  0  0  0
 32 29  1  0  0  0  0
 33 36  1  6  0  0  0
 33 30  1  0  0  0  0
 33 34  1  0  0  0  0
 34 28  1  0  0  0  0
 35 27  1  0  0  0  0
 37 36  1  0  0  0  0
 38 36  1  0  0  0  0
 39 41  1  0  0  0  0
 41 42  1  0  0  0  0
 41 40  2  0  0  0  0
 42 43  1  0  0  0  0
 45 46  1  0  0  0  0
 46 44  1  0  0  0  0
 46 43  1  0  0  0  0
 47 45  1  0  0  0  0
 47 46  1  0  0  0  0
M  END
>  <MODEL>
1

>  <REMARK>
 VINA RESULT:      -7.3      0.000      0.000
  Name = 
  15 active torsions:
  status: ('A' for Active; 'I' for Inactive)
    1  A    between atoms: C_1  and  C_30
    2  A    between atoms: C_4  and  C_32
    3  A    between atoms: C_8  and  C_18
    4  A    between atoms: C_10  and  C_22
    5  A    between atoms: C_15  and  C_19
    6  A    between atoms: C_15  and  C_34
    7  A    between atoms: C_23  and  C_44
    8  A    between atoms: O_24  and  C_40
    9  A    between atoms: O_24  and  C_47
   10  A    between atoms: C_29  and  C_39
   11  A    between atoms: C_29  and  C_42
   12  A    between atoms: C_32  and  C_35
   13  A    between atoms: C_34  and  C_42
   14  A    between atoms: C_40  and  C_41
   15  A    between atoms: C_44  and  C_47
                            x       y       z     vdW  Elec       q    Type
                         _______ _______ _______ _____ _____    ______ ____

>  <TORSDO>
F 15

$$$$
=
 OpenBabel11042421513D

 47 52  0  0  1  0  0  0  0  0999 V2000
  162.1010  206.4250  150.9450 C   0  0  1  0  0  3  0  0  0  0  0  0
  160.8450  205.0930  149.6920 O   0  0  0  0  0  0  0  0  0  0  0  0
  161.0710  206.1700  152.0640 C   0  0  1  0  0  3  0  0  0  0  0  0
  160.4070  204.1720  150.6770 C   0  0  2  0  0  3  0  0  0  0  0  0
  162.1100  205.3980  149.9650 O   0  0  0  0  0  0  0  0  0  0  0  0
  160.7180  204.6820  152.0860 C   0  0  0  0  0  2  0  0  0  0  0  0
  162.3550  210.5650  149.1670 C   0  0  1  0  0  3  0  0  0  0  0  0
  162.4100  209.0180  151.2190 C   0  0  0  0  0  2  0  0  0  0  0  0
  162.2970  207.9530  148.8480 C   0  0  1  0  0  3  0  0  0  0  0  0
  161.9910  210.3710  150.6470 C   0  0  0  0  0  2  0  0  0  0  0  0
  161.9940  207.8310  150.3390 C   0  0  1  0  0  0  0  0  0  0  0  0
  160.8540  208.0380  149.3510 C   0  0  0  0  0  2  0  0  0  0  0  0
  162.9290  209.3140  148.4830 C   0  0  0  0  0  2  0  0  0  0  0  0
  161.1500  211.0680  148.3880 C   0  0  0  0  0  2  0  0  0  0  0  0
  160.8260  213.5110  147.7370 C   0  0  1  0  0  0  0  0  0  0  0  0
  160.6950  214.4520  146.5560 C   0  0  0  0  0  1  0  0  0  0  0  0
  161.5370  212.1940  147.4330 C   0  0  1  0  0  3  0  0  0  0  0  0
  162.2530  213.3030  148.2020 C   0  0  0  0  0  2  0  0  0  0  0  0
  158.4550  213.3460  148.5130 O   0  0  0  0  0  0  0  0  0  0  0  0
  159.7890  213.5760  148.8220 C   0  0  0  0  0  0  0  0  0  0  0  0
  160.1170  213.8400  150.0110 O   0  0  0  0  0  1  0  0  0  0  0  0
  161.6520  206.5580  153.4140 C   0  0  0  0  0  2  0  0  0  0  0  0
  160.8380  207.6500  154.1120 C   0  0  0  0  0  2  0  0  0  0  0  0
  160.7890  207.3530  156.4910 O   0  0  0  0  0  1  0  0  0  0  0  0
  161.4080  208.0790  155.4670 C   0  0  2  0  0  3  0  0  0  0  0  0
  162.3580  210.2270  156.1130 C   0  0  0  0  0  2  0  0  0  0  0  0
  161.2830  209.5530  155.7260 C   0  0  0  0  0  0  0  0  0  0  0  0
  159.9270  211.4880  154.8670 N   0  0  0  0  0  0  0  0  0  0  0  0
  160.3620  211.4880  153.4760 C   0  0  0  0  0  2  0  0  0  0  0  0
  158.2270  212.6360  152.9200 C   0  0  0  0  0  2  0  0  0  0  0  0
  158.9540  209.7920  156.1550 O   0  0  0  0  0  0  0  0  0  0  0  0
  159.1260  211.4460  152.5850 C   0  0  0  0  0  2  0  0  0  0  0  0
  157.8060  212.6070  154.3970 C   0  0  1  0  0  3  0  0  0  0  0  0
  159.0520  212.5770  155.2900 C   0  0  0  0  0  2  0  0  0  0  0  0
  159.9950  210.2640  155.6090 C   0  0  0  0  0  0  0  0  0  0  0  0
  156.9490  213.8250  154.7300 C   0  0  0  0  0  3  0  0  0  0  0  0
  155.7870  213.8150  153.9540 O   0  0  0  0  0  1  0  0  0  0  0  0
  156.5990  213.8090  156.0800 O   0  0  0  0  0  1  0  0  0  0  0  0
  161.0420  202.7940  150.4800 C   0  0  0  0  0  2  0  0  0  0  0  0
  159.7380  201.4670  148.9660 O   0  0  0  0  0  0  0  0  0  0  0  0
  160.7500  202.1970  149.1370 C   0  0  0  0  0  0  0  0  0  0  0  0
  161.5610  202.5530  148.0560 O   0  0  0  0  0  0  0  0  0  0  0  0
  161.0380  203.0750  146.8370 C   0  0  0  0  0  2  0  0  0  0  0  0
  163.0620  204.5610  146.8960 O   0  0  0  0  0  1  0  0  0  0  0  0
  160.9530  205.6060  146.2080 C   0  0  0  0  0  2  0  0  0  0  0  0
  161.7650  204.3530  146.4480 C   0  0  0  0  0  0  0  0  0  0  0  0
  161.5300  204.8220  145.0360 C   0  0  0  0  0  2  0  0  0  0  0  0
  1  5  1  6  0  0  0
  1  3  1  0  0  0  0
  2  5  1  0  0  0  0
  2  4  1  0  0  0  0
  3  6  1  0  0  0  0
  3 22  1  1  0  0  0
  4 39  1  6  0  0  0
  4  6  1  0  0  0  0
  7 14  1  6  0  0  0
  7 10  1  0  0  0  0
  9 13  1  1  0  0  0
  9 12  1  0  0  0  0
  9 11  1  0  0  0  0
 10  8  1  0  0  0  0
 11 12  1  6  0  0  0
 11  1  1  0  0  0  0
 11  8  1  0  0  0  0
 13  7  1  0  0  0  0
 15 16  1  6  0  0  0
 15 18  1  0  0  0  0
 15 20  1  0  0  0  0
 17 15  1  0  0  0  0
 17 18  1  0  0  0  0
 17 14  1  1  0  0  0
 19 20  2  0  0  0  0
 20 21  1  0  0  0  0
 22 23  1  0  0  0  0
 23 25  1  0  0  0  0
 25 27  1  0  0  0  0
 25 24  1  1  0  0  0
 27 26  2  0  0  0  0
 28 34  1  0  0  0  0
 28 35  1  0  0  0  0
 29 28  1  0  0  0  0
 30 33  1  0  0  0  0
 32 30  1  0  0  0  0
 32 29  1  0  0  0  0
 33 36  1  1  0  0  0
 33 34  1  0  0  0  0
 35 27  1  0  0  0  0
 35 31  2  0  0  0  0
 36 38  1  0  0  0  0
 37 36  1  0  0  0  0
 40 41  2  0  0  0  0
 41 39  1  0  0  0  0
 42 41  1  0  0  0  0
 43 42  1  0  0  0  0
 45 46  1  0  0  0  0
 46 43  1  0  0  0  0
 46 44  1  0  0  0  0
 47 45  1  0  0  0  0
 47 46  1  0  0  0  0
M  END
>  <MODEL>
2

>  <REMARK>
 VINA RESULT:      -6.9      3.167      9.519
  Name = 
  15 active torsions:
  status: ('A' for Active; 'I' for Inactive)
    1  A    between atoms: C_1  and  C_30
    2  A    between atoms: C_4  and  C_32
    3  A    between atoms: C_8  and  C_18
    4  A    between atoms: C_10  and  C_22
    5  A    between atoms: C_15  and  C_19
    6  A    between atoms: C_15  and  C_34
    7  A    between atoms: C_23  and  C_44
    8  A    between atoms: O_24  and  C_40
    9  A    between atoms: O_24  and  C_47
   10  A    between atoms: C_29  and  C_39
   11  A    between atoms: C_29  and  C_42
   12  A    between atoms: C_32  and  C_35
   13  A    between atoms: C_34  and  C_42
   14  A    between atoms: C_40  and  C_41
   15  A    between atoms: C_44  and  C_47
                            x       y       z     vdW  Elec       q    Type
                         _______ _______ _______ _____ _____    ______ ____

>  <TORSDO>
F 15

$$$$
=
 OpenBabel11042421513D

 47 52  0  0  1  0  0  0  0  0999 V2000
  162.3380  209.4600  151.6570 C   0  0  1  0  0  3  0  0  0  0  0  0
  161.3220  210.8810  150.2890 O   0  0  0  0  0  0  0  0  0  0  0  0
  161.8530  208.3540  150.7000 C   0  0  1  0  0  3  0  0  0  0  0  0
  161.5560  210.2350  149.0480 C   0  0  2  0  0  3  0  0  0  0  0  0
  162.4160  210.7310  151.0290 O   0  0  0  0  0  0  0  0  0  0  0  0
  162.0750  208.8100  149.2570 C   0  0  0  0  0  2  0  0  0  0  0  0
  160.5670  209.5730  155.8060 C   0  0  1  0  0  3  0  0  0  0  0  0
  161.6420  208.2510  153.8810 C   0  0  0  0  0  2  0  0  0  0  0  0
  161.4880  210.8420  153.6920 C   0  0  1  0  0  3  0  0  0  0  0  0
  160.6150  208.2590  155.0120 C   0  0  0  0  0  2  0  0  0  0  0  0
  161.5630  209.4920  152.9820 C   0  0  1  0  0  0  0  0  0  0  0  0
  160.2620  210.2840  152.9650 C   0  0  0  0  0  2  0  0  0  0  0  0
  161.4400  210.6980  155.2290 C   0  0  0  0  0  2  0  0  0  0  0  0
  159.1320  210.0560  155.9420 C   0  0  0  0  0  2  0  0  0  0  0  0
  158.0250  212.3490  155.8230 C   0  0  1  0  0  0  0  0  0  0  0  0
  158.2950  213.8390  155.8940 C   0  0  0  0  0  1  0  0  0  0  0  0
  159.0750  211.4740  156.5060 C   0  0  1  0  0  3  0  0  0  0  0  0
  157.7190  211.7150  157.1650 C   0  0  0  0  0  2  0  0  0  0  0  0
  156.1260  211.0230  154.8830 O   0  0  0  0  0  1  0  0  0  0  0  0
  157.2420  211.8180  154.6570 C   0  0  0  0  0  0  0  0  0  0  0  0
  157.5880  212.0840  153.4740 O   0  0  0  0  0  0  0  0  0  0  0  0
  162.6350  207.0710  150.9360 C   0  0  0  0  0  2  0  0  0  0  0  0
  162.1960  206.3410  152.2070 C   0  0  0  0  0  2  0  0  0  0  0  0
  160.5750  204.9200  153.2580 O   0  0  0  0  0  1  0  0  0  0  0  0
  160.9360  205.4880  152.0310 C   0  0  2  0  0  3  0  0  0  0  0  0
  161.4010  203.1910  151.3680 C   0  0  0  0  0  2  0  0  0  0  0  0
  161.0820  204.4210  150.9860 C   0  0  0  0  0  0  0  0  0  0  0  0
  161.6500  203.9190  148.5880 N   0  0  0  0  0  0  0  0  0  0  0  0
  161.4750  202.4720  148.5970 C   0  0  0  0  0  2  0  0  0  0  0  0
  161.0910  202.6100  146.1440 C   0  0  0  0  0  2  0  0  0  0  0  0
  160.1590  205.6330  149.1570 O   0  0  0  0  0  0  0  0  0  0  0  0
  160.5250  202.0950  147.4670 C   0  0  0  0  0  2  0  0  0  0  0  0
  161.2760  204.1350  146.1840 C   0  0  1  0  0  3  0  0  0  0  0  0
  162.1750  204.5180  147.3650 C   0  0  0  0  0  2  0  0  0  0  0  0
  160.9290  204.7050  149.5460 C   0  0  0  0  0  0  0  0  0  0  0  0
  161.8860  204.6310  144.8750 C   0  0  0  0  0  3  0  0  0  0  0  0
  160.8730  204.9110  143.9540 O   0  0  0  0  0  1  0  0  0  0  0  0
  162.6310  205.7870  145.1040 O   0  0  0  0  0  1  0  0  0  0  0  0
  162.5480  211.0180  148.1850 C   0  0  0  0  0  2  0  0  0  0  0  0
  162.5900  213.4150  148.2540 O   0  0  0  0  0  0  0  0  0  0  0  0
  162.0470  212.3760  147.7960 C   0  0  0  0  0  0  0  0  0  0  0  0
  161.0370  212.4640  146.8340 O   0  0  0  0  0  0  0  0  0  0  0  0
  159.7080  212.8730  147.1460 C   0  0  0  0  0  2  0  0  0  0  0  0
  159.2960  212.1150  144.7870 O   0  0  0  0  0  1  0  0  0  0  0  0
  157.7500  213.7940  145.6860 C   0  0  0  0  0  2  0  0  0  0  0  0
  158.8080  212.7400  145.9260 C   0  0  0  0  0  0  0  0  0  0  0  0
  157.3670  212.4200  146.2230 C   0  0  0  0  0  2  0  0  0  0  0  0
  1  5  1  6  0  0  0
  1 11  1  0  0  0  0
  2  5  1  0  0  0  0
  3 22  1  1  0  0  0
  3  1  1  0  0  0  0
  4 39  1  6  0  0  0
  4  6  1  0  0  0  0
  4  2  1  0  0  0  0
  6  3  1  0  0  0  0
  7 14  1  6  0  0  0
  8 10  1  0  0  0  0
  9 12  1  6  0  0  0
  9 13  1  0  0  0  0
 10  7  1  0  0  0  0
 11 12  1  6  0  0  0
 11  9  1  0  0  0  0
 11  8  1  0  0  0  0
 13  7  1  0  0  0  0
 15 16  1  1  0  0  0
 15 17  1  0  0  0  0
 15 18  1  0  0  0  0
 17 14  1  6  0  0  0
 17 18  1  0  0  0  0
 20 19  1  0  0  0  0
 20 15  1  0  0  0  0
 21 20  2  0  0  0  0
 22 23  1  0  0  0  0
 25 23  1  0  0  0  0
 25 24  1  1  0  0  0
 27 26  2  0  0  0  0
 27 25  1  0  0  0  0
 28 29  1  0  0  0  0
 28 35  1  0  0  0  0
 30 33  1  0  0  0  0
 30 32  1  0  0  0  0
 31 35  2  0  0  0  0
 32 29  1  0  0  0  0
 33 36  1  6  0  0  0
 33 34  1  0  0  0  0
 34 28  1  0  0  0  0
 35 27  1  0  0  0  0
 36 38  1  0  0  0  0
 37 36  1  0  0  0  0
 41 39  1  0  0  0  0
 41 40  2  0  0  0  0
 42 43  1  0  0  0  0
 42 41  1  0  0  0  0
 44 46  1  0  0  0  0
 45 46  1  0  0  0  0
 45 47  1  0  0  0  0
 46 47  1  0  0  0  0
 46 43  1  0  0  0  0
M  END
>  <MODEL>
3

>  <REMARK>
 VINA RESULT:      -6.3      2.632      9.084
  Name = 
  15 active torsions:
  status: ('A' for Active; 'I' for Inactive)
    1  A    between atoms: C_1  and  C_30
    2  A    between atoms: C_4  and  C_32
    3  A    between atoms: C_8  and  C_18
    4  A    between atoms: C_10  and  C_22
    5  A    between atoms: C_15  and  C_19
    6  A    between atoms: C_15  and  C_34
    7  A    between atoms: C_23  and  C_44
    8  A    between atoms: O_24  and  C_40
    9  A    between atoms: O_24  and  C_47
   10  A    between atoms: C_29  and  C_39
   11  A    between atoms: C_29  and  C_42
   12  A    between atoms: C_32  and  C_35
   13  A    between atoms: C_34  and  C_42
   14  A    between atoms: C_40  and  C_41
   15  A    between atoms: C_44  and  C_47
                            x       y       z     vdW  Elec       q    Type
                         _______ _______ _______ _____ _____    ______ ____

>  <TORSDO>
F 15

$$$$
=
 OpenBabel11042421513D

 47 52  0  0  1  0  0  0  0  0999 V2000
  162.0780  209.8490  150.3650 C   0  0  1  0  0  3  0  0  0  0  0  0
  161.2400  208.0860  149.3090 O   0  0  0  0  0  0  0  0  0  0  0  0
  160.9980  209.5900  151.4340 C   0  0  1  0  0  3  0  0  0  0  0  0
  160.8770  207.2850  150.4210 C   0  0  2  0  0  3  0  0  0  0  0  0
  162.3870  208.6880  149.6080 O   0  0  0  0  0  0  0  0  0  0  0  0
  160.9310  208.0900  151.7220 C   0  0  0  0  0  2  0  0  0  0  0  0
  161.6270  213.6970  148.0530 C   0  0  1  0  0  3  0  0  0  0  0  0
  161.2070  212.3190  150.1810 C   0  0  0  0  0  2  0  0  0  0  0  0
  162.7230  211.3190  148.3170 C   0  0  1  0  0  3  0  0  0  0  0  0
  160.6660  213.3600  149.2030 C   0  0  0  0  0  2  0  0  0  0  0  0
  161.7760  211.0730  149.4890 C   0  0  1  0  0  0  0  0  0  0  0  0
  161.3160  210.7690  148.0690 C   0  0  0  0  0  2  0  0  0  0  0  0
  162.8880  212.8210  147.9980 C   0  0  0  0  0  2  0  0  0  0  0  0
  160.8990  213.6330  146.7200 C   0  0  0  0  0  2  0  0  0  0  0  0
  161.1660  213.2070  144.2210 C   0  0  1  0  0  0  0  0  0  0  0  0
  161.8690  212.3330  143.2000 C   0  0  0  0  0  1  0  0  0  0  0  0
  161.8560  213.2860  145.5820 C   0  0  1  0  0  3  0  0  0  0  0  0
  161.9400  214.4530  144.6000 C   0  0  0  0  0  2  0  0  0  0  0  0
  158.8440  212.3140  144.4690 O   0  0  0  0  0  1  0  0  0  0  0  0
  159.6760  213.3690  144.1190 C   0  0  0  0  0  0  0  0  0  0  0  0
  159.1730  214.4510  143.7150 O   0  0  0  0  0  0  0  0  0  0  0  0
  161.3430  210.3230  152.7210 C   0  0  0  0  0  2  0  0  0  0  0  0
  160.2280  210.2330  153.7650 C   0  0  0  0  0  2  0  0  0  0  0  0
  160.1150  209.2260  155.9390 O   0  0  0  0  0  1  0  0  0  0  0  0
  160.7300  210.2530  155.2130 C   0  0  2  0  0  3  0  0  0  0  0  0
  161.1580  211.8090  157.0360 C   0  0  0  0  0  2  0  0  0  0  0  0
  160.5210  211.5720  155.8970 C   0  0  0  0  0  0  0  0  0  0  0  0
  158.3810  212.1820  154.7250 N   0  0  0  0  0  0  0  0  0  0  0  0
  157.4540  211.3290  155.4580 C   0  0  0  0  0  2  0  0  0  0  0  0
  155.6490  212.9090  154.8020 C   0  0  0  0  0  2  0  0  0  0  0  0
  159.8640  213.8240  155.4920 O   0  0  0  0  0  0  0  0  0  0  0  0
  156.3130  212.1940  155.9790 C   0  0  0  0  0  2  0  0  0  0  0  0
  156.6630  213.7820  154.0480 C   0  0  1  0  0  3  0  0  0  0  0  0
  157.8460  212.9220  153.5870 C   0  0  0  0  0  2  0  0  0  0  0  0
  159.5940  212.5920  155.3690 C   0  0  0  0  0  0  0  0  0  0  0  0
  156.0000  214.4530  152.8480 C   0  0  0  0  0  3  0  0  0  0  0  0
  156.4280  213.8440  151.6660 O   0  0  0  0  0  1  0  0  0  0  0  0
  154.6130  214.3420  152.9450 O   0  0  0  0  0  1  0  0  0  0  0  0
  161.7780  206.0540  150.5440 C   0  0  0  0  0  2  0  0  0  0  0  0
  160.8300  203.8720  150.8580 O   0  0  0  0  0  0  0  0  0  0  0  0
  161.1260  204.7960  150.0540 C   0  0  0  0  0  0  0  0  0  0  0  0
  160.7590  204.7140  148.7090 O   0  0  0  0  0  0  0  0  0  0  0  0
  161.4760  203.9310  147.7590 C   0  0  0  0  0  2  0  0  0  0  0  0
  162.1130  204.0800  145.3330 O   0  0  0  0  0  1  0  0  0  0  0  0
  162.2960  206.1450  146.6450 C   0  0  0  0  0  2  0  0  0  0  0  0
  161.7540  204.7410  146.5000 C   0  0  0  0  0  0  0  0  0  0  0  0
  160.8370  205.9140  146.2750 C   0  0  0  0  0  2  0  0  0  0  0  0
  1  5  1  6  0  0  0
  1  3  1  0  0  0  0
  2  5  1  0  0  0  0
  2  4  1  0  0  0  0
  3  6  1  0  0  0  0
  3 22  1  1  0  0  0
  4 39  1  1  0  0  0
  4  6  1  0  0  0  0
  7 14  1  6  0  0  0
  7 10  1  0  0  0  0
  9 13  1  6  0  0  0
  9 11  1  0  0  0  0
 10  8  1  0  0  0  0
 11 12  1  6  0  0  0
 11  8  1  0  0  0  0
 11  1  1  0  0  0  0
 12  9  1  0  0  0  0
 13  7  1  0  0  0  0
 15 16  1  6  0  0  0
 15 18  1  0  0  0  0
 15 17  1  0  0  0  0
 17 14  1  1  0  0  0
 18 17  1  0  0  0  0
 20 15  1  0  0  0  0
 20 19  1  0  0  0  0
 21 20  2  0  0  0  0
 22 23  1  0  0  0  0
 23 25  1  0  0  0  0
 25 27  1  0  0  0  0
 25 24  1  1  0  0  0
 27 26  2  0  0  0  0
 28 35  1  0  0  0  0
 28 29  1  0  0  0  0
 29 32  1  0  0  0  0
 30 32  1  0  0  0  0
 33 36  1  6  0  0  0
 33 30  1  0  0  0  0
 34 33  1  0  0  0  0
 34 28  1  0  0  0  0
 35 31  2  0  0  0  0
 35 27  1  0  0  0  0
 36 38  1  0  0  0  0
 37 36  1  0  0  0  0
 41 39  1  0  0  0  0
 41 40  2  0  0  0  0
 42 41  1  0  0  0  0
 43 42  1  0  0  0  0
 44 46  1  0  0  0  0
 46 45  1  0  0  0  0
 46 43  1  0  0  0  0
 47 46  1  0  0  0  0
 47 45  1  0  0  0  0
M  END
>  <MODEL>
4

>  <REMARK>
 VINA RESULT:      -6.0      2.575      9.230
  Name = 
  15 active torsions:
  status: ('A' for Active; 'I' for Inactive)
    1  A    between atoms: C_1  and  C_30
    2  A    between atoms: C_4  and  C_32
    3  A    between atoms: C_8  and  C_18
    4  A    between atoms: C_10  and  C_22
    5  A    between atoms: C_15  and  C_19
    6  A    between atoms: C_15  and  C_34
    7  A    between atoms: C_23  and  C_44
    8  A    between atoms: O_24  and  C_40
    9  A    between atoms: O_24  and  C_47
   10  A    between atoms: C_29  and  C_39
   11  A    between atoms: C_29  and  C_42
   12  A    between atoms: C_32  and  C_35
   13  A    between atoms: C_34  and  C_42
   14  A    between atoms: C_40  and  C_41
   15  A    between atoms: C_44  and  C_47
                            x       y       z     vdW  Elec       q    Type
                         _______ _______ _______ _____ _____    ______ ____

>  <TORSDO>
F 15

$$$$
=
 OpenBabel11042421513D

 47 52  0  0  1  0  0  0  0  0999 V2000
  161.0650  207.5320  148.9680 C   0  0  1  0  0  3  0  0  0  0  0  0
  162.2690  209.2480  148.2410 O   0  0  0  0  0  0  0  0  0  0  0  0
  162.0200  207.5080  150.1780 C   0  0  1  0  0  3  0  0  0  0  0  0
  162.5890  209.8630  149.4790 C   0  0  2  0  0  3  0  0  0  0  0  0
  161.0200  208.8000  148.3310 O   0  0  0  0  0  0  0  0  0  0  0  0
  162.2550  208.9420  150.6550 C   0  0  0  0  0  2  0  0  0  0  0  0
  162.1460  204.4770  145.8280 C   0  0  1  0  0  3  0  0  0  0  0  0
  160.8030  206.5480  146.5490 C   0  0  0  0  0  2  0  0  0  0  0  0
  162.6090  205.5970  148.1640 C   0  0  1  0  0  3  0  0  0  0  0  0
  160.8210  205.2490  145.7430 C   0  0  0  0  0  2  0  0  0  0  0  0
  161.3070  206.3760  147.9880 C   0  0  1  0  0  0  0  0  0  0  0  0
  161.2760  204.9790  148.5960 C   0  0  0  0  0  2  0  0  0  0  0  0
  163.1600  205.0590  146.8260 C   0  0  0  0  0  2  0  0  0  0  0  0
  161.8870  203.0150  146.1530 C   0  0  0  0  0  2  0  0  0  0  0  0
  160.3820  201.0160  145.6670 C   0  0  1  0  0  0  0  0  0  0  0  0
  159.7540  200.2040  144.5510 C   0  0  0  0  0  1  0  0  0  0  0  0
  160.7710  202.4430  145.2830 C   0  0  1  0  0  3  0  0  0  0  0  0
  159.5320  202.1790  146.1350 C   0  0  0  0  0  2  0  0  0  0  0  0
  161.1020  200.7570  148.0470 O   0  0  0  0  0  1  0  0  0  0  0  0
  161.1410  200.2900  146.7400 C   0  0  0  0  0  0  0  0  0  0  0  0
  161.8170  199.2610  146.4660 O   0  0  0  0  0  0  0  0  0  0  0  0
  161.4120  206.7050  151.3160 C   0  0  0  0  0  2  0  0  0  0  0  0
  160.7830  207.5930  152.3920 C   0  0  0  0  0  2  0  0  0  0  0  0
  160.4430  206.2640  154.3590 O   0  0  0  0  0  1  0  0  0  0  0  0
  161.2510  207.2690  153.8140 C   0  0  2  0  0  3  0  0  0  0  0  0
  161.4100  208.2770  156.0260 C   0  0  0  0  0  2  0  0  0  0  0  0
  161.2740  208.4660  154.7200 C   0  0  0  0  0  0  0  0  0  0  0  0
  159.7880  210.4010  154.1120 N   0  0  0  0  0  0  0  0  0  0  0  0
  158.9590  210.4530  155.3100 C   0  0  0  0  0  2  0  0  0  0  0  0
  158.5250  212.8430  154.7760 C   0  0  0  0  0  2  0  0  0  0  0  0
  162.1140  210.5240  153.8680 O   0  0  0  0  0  0  0  0  0  0  0  0
  158.9970  211.8740  155.8600 C   0  0  0  0  0  2  0  0  0  0  0  0
  159.4140  212.7430  153.5270 C   0  0  1  0  0  3  0  0  0  0  0  0
  159.4320  211.2970  153.0170 C   0  0  0  0  0  2  0  0  0  0  0  0
  161.1040  209.8400  154.2100 C   0  0  0  0  0  0  0  0  0  0  0  0
  158.9040  213.6810  152.4350 C   0  0  0  0  0  3  0  0  0  0  0  0
  159.6010  213.4500  151.2460 O   0  0  0  0  0  1  0  0  0  0  0  0
  157.5440  213.4660  152.2180 O   0  0  0  0  0  1  0  0  0  0  0  0
  161.8590  211.1960  149.6500 C   0  0  0  0  0  2  0  0  0  0  0  0
  163.3310  212.3400  148.1400 O   0  0  0  0  0  0  0  0  0  0  0  0
  162.1530  212.1740  148.5530 C   0  0  0  0  0  0  0  0  0  0  0  0
  161.0820  212.8180  147.9270 O   0  0  0  0  0  0  0  0  0  0  0  0
  160.3230  212.2140  146.8830 C   0  0  0  0  0  2  0  0  0  0  0  0
  159.3530  213.0820  144.7350 O   0  0  0  0  0  1  0  0  0  0  0  0
  161.7940  213.1730  144.9530 C   0  0  0  0  0  2  0  0  0  0  0  0
  160.4360  213.0260  145.6010 C   0  0  0  0  0  0  0  0  0  0  0  0
  161.1780  214.3300  145.7290 C   0  0  0  0  0  2  0  0  0  0  0  0
  1  5  1  6  0  0  0
  1  3  1  0  0  0  0
  2  5  1  0  0  0  0
  2  4  1  0  0  0  0
  3  6  1  0  0  0  0
  3 22  1  1  0  0  0
  4 39  1  1  0  0  0
  4  6  1  0  0  0  0
  7 14  1  1  0  0  0
  7 13  1  0  0  0  0
  9 13  1  6  0  0  0
  9 12  1  0  0  0  0
 10  7  1  0  0  0  0
 10  8  1  0  0  0  0
 11  8  1  6  0  0  0
 11  9  1  0  0  0  0
 11 12  1  0  0  0  0
 11  1  1  0  0  0  0
 15 16  1  6  0  0  0
 15 18  1  0  0  0  0
 15 20  1  0  0  0  0
 17 15  1  0  0  0  0
 17 18  1  0  0  0  0
 17 14  1  1  0  0  0
 20 19  1  0  0  0  0
 21 20  2  0  0  0  0
 22 23  1  0  0  0  0
 23 25  1  0  0  0  0
 25 24  1  1  0  0  0
 25 27  1  0  0  0  0
 27 26  2  0  0  0  0
 28 35  1  0  0  0  0
 28 29  1  0  0  0  0
 29 32  1  0  0  0  0
 30 32  1  0  0  0  0
 31 35  2  0  0  0  0
 33 36  1  6  0  0  0
 33 30  1  0  0  0  0
 34 33  1  0  0  0  0
 34 28  1  0  0  0  0
 35 27  1  0  0  0  0
 37 36  1  0  0  0  0
 38 36  1  0  0  0  0
 40 41  2  0  0  0  0
 41 39  1  0  0  0  0
 42 41  1  0  0  0  0
 43 42  1  0  0  0  0
 44 46  1  0  0  0  0
 45 46  1  0  0  0  0
 45 47  1  0  0  0  0
 46 47  1  0  0  0  0
 46 43  1  0  0  0  0
M  END
>  <MODEL>
5

>  <REMARK>
 VINA RESULT:      -6.0      2.748      7.729
  Name = 
  15 active torsions:
  status: ('A' for Active; 'I' for Inactive)
    1  A    between atoms: C_1  and  C_30
    2  A    between atoms: C_4  and  C_32
    3  A    between atoms: C_8  and  C_18
    4  A    between atoms: C_10  and  C_22
    5  A    between atoms: C_15  and  C_19
    6  A    between atoms: C_15  and  C_34
    7  A    between atoms: C_23  and  C_44
    8  A    between atoms: O_24  and  C_40
    9  A    between atoms: O_24  and  C_47
   10  A    between atoms: C_29  and  C_39
   11  A    between atoms: C_29  and  C_42
   12  A    between atoms: C_32  and  C_35
   13  A    between atoms: C_34  and  C_42
   14  A    between atoms: C_40  and  C_41
   15  A    between atoms: C_44  and  C_47
                            x       y       z     vdW  Elec       q    Type
                         _______ _______ _______ _____ _____    ______ ____

>  <TORSDO>
F 15

$$$$
=
 OpenBabel11042421513D

 47 52  0  0  1  0  0  0  0  0999 V2000
  159.5650  212.4910  146.9910 C   0  0  1  0  0  3  0  0  0  0  0  0
  158.5530  214.1830  148.0070 O   0  0  0  0  0  0  0  0  0  0  0  0
  160.7190  212.7180  147.9880 C   0  0  1  0  0  3  0  0  0  0  0  0
  158.9960  213.9700  149.3380 C   0  0  2  0  0  3  0  0  0  0  0  0
  158.3250  212.9900  147.4670 O   0  0  0  0  0  0  0  0  0  0  0  0
  160.1350  212.9480  149.3820 C   0  0  0  0  0  2  0  0  0  0  0  0
  160.6100  214.3970  143.0370 C   0  0  1  0  0  3  0  0  0  0  0  0
  158.8850  213.8830  144.8720 C   0  0  0  0  0  2  0  0  0  0  0  0
  161.3710  213.2220  145.2650 C   0  0  1  0  0  3  0  0  0  0  0  0
  159.1520  214.0530  143.3770 C   0  0  0  0  0  2  0  0  0  0  0  0
  159.8970  212.9640  145.5690 C   0  0  1  0  0  0  0  0  0  0  0  0
  160.6760  211.9750  144.7110 C   0  0  0  0  0  2  0  0  0  0  0  0
  161.5720  214.3540  144.2350 C   0  0  0  0  0  2  0  0  0  0  0  0
  161.1250  213.4860  141.9340 C   0  0  0  0  0  2  0  0  0  0  0  0
  160.1450  212.2950  139.9040 C   0  0  1  0  0  0  0  0  0  0  0  0
  158.8460  211.9330  139.2100 C   0  0  0  0  0  1  0  0  0  0  0  0
  160.0170  212.5820  141.3990 C   0  0  1  0  0  3  0  0  0  0  0  0
  160.6130  211.2640  140.9110 C   0  0  0  0  0  2  0  0  0  0  0  0
  162.4950  212.3950  139.0570 O   0  0  0  0  0  1  0  0  0  0  0  0
  161.2260  212.9570  139.0980 C   0  0  0  0  0  0  0  0  0  0  0  0
  160.9940  214.0200  138.4610 O   0  0  0  0  0  0  0  0  0  0  0  0
  161.6290  211.5010  148.0300 C   0  0  0  0  0  2  0  0  0  0  0  0
  161.8480  210.9800  149.4520 C   0  0  0  0  0  2  0  0  0  0  0  0
  162.1860  208.9250  148.2630 O   0  0  0  0  0  1  0  0  0  0  0  0
  162.3490  209.5340  149.5130 C   0  0  2  0  0  3  0  0  0  0  0  0
  160.9190  209.3340  151.4740 C   0  0  0  0  0  2  0  0  0  0  0  0
  161.6800  208.7170  150.5800 C   0  0  0  0  0  0  0  0  0  0  0  0
  160.8840  206.3640  150.1870 N   0  0  0  0  0  0  0  0  0  0  0  0
  160.4940  206.4740  148.7870 C   0  0  0  0  0  2  0  0  0  0  0  0
  160.8190  204.0140  148.6160 C   0  0  0  0  0  2  0  0  0  0  0  0
  162.9340  206.8010  151.2320 O   0  0  0  0  0  0  0  0  0  0  0  0
  161.1900  205.3660  148.0060 C   0  0  0  0  0  2  0  0  0  0  0  0
  161.2310  203.9480  150.0940 C   0  0  1  0  0  3  0  0  0  0  0  0
  160.5860  205.1070  150.8640 C   0  0  0  0  0  2  0  0  0  0  0  0
  161.8820  207.2590  150.6950 C   0  0  0  0  0  0  0  0  0  0  0  0
  160.8120  202.6120  150.7040 C   0  0  0  0  0  3  0  0  0  0  0  0
  161.3090  201.5600  149.9310 O   0  0  0  0  0  1  0  0  0  0  0  0
  161.3110  202.5030  152.0020 O   0  0  0  0  0  1  0  0  0  0  0  0
  157.8540  213.5030  150.2420 C   0  0  0  0  0  2  0  0  0  0  0  0
  157.1990  214.4530  152.3450 O   0  0  0  0  0  0  0  0  0  0  0  0
  158.0750  213.8320  151.6880 C   0  0  0  0  0  0  0  0  0  0  0  0
  159.2230  213.3420  152.3170 O   0  0  0  0  0  0  0  0  0  0  0  0
  159.2630  212.0770  152.9720 C   0  0  0  0  0  2  0  0  0  0  0  0
  158.9880  213.4830  155.0350 O   0  0  0  0  0  1  0  0  0  0  0  0
  160.3590  211.4610  155.2590 C   0  0  0  0  0  2  0  0  0  0  0  0
  159.3370  212.2590  154.4810 C   0  0  0  0  0  0  0  0  0  0  0  0
  158.8860  211.0750  155.2940 C   0  0  0  0  0  2  0  0  0  0  0  0
  1  5  1  1  0  0  0
  1  3  1  0  0  0  0
  2  4  1  0  0  0  0
  3 22  1  1  0  0  0
  3  6  1  0  0  0  0
  4  6  1  0  0  0  0
  4 39  1  1  0  0  0
  5  2  1  0  0  0  0
  7 14  1  6  0  0  0
  7 10  1  0  0  0  0
  7 13  1  0  0  0  0
  8 11  1  0  0  0  0
  9 13  1  6  0  0  0
  9 11  1  0  0  0  0
 10  8  1  0  0  0  0
 11 12  1  6  0  0  0
 11  1  1  0  0  0  0
 12  9  1  0  0  0  0
 15 16  1  6  0  0  0
 15 18  1  0  0  0  0
 15 17  1  0  0  0  0
 17 14  1  6  0  0  0
 18 17  1  0  0  0  0
 19 20  1  0  0  0  0
 20 15  1  0  0  0  0
 21 20  2  0  0  0  0
 22 23  1  0  0  0  0
 23 25  1  0  0  0  0
 25 24  1  6  0  0  0
 25 27  1  0  0  0  0
 27 35  1  0  0  0  0
 27 26  2  0  0  0  0
 28 35  1  0  0  0  0
 28 34  1  0  0  0  0
 29 28  1  0  0  0  0
 30 33  1  0  0  0  0
 32 30  1  0  0  0  0
 32 29  1  0  0  0  0
 33 36  1  1  0  0  0
 33 34  1  0  0  0  0
 35 31  2  0  0  0  0
 36 38  1  0  0  0  0
 37 36  1  0  0  0  0
 39 41  1  0  0  0  0
 41 42  1  0  0  0  0
 41 40  2  0  0  0  0
 42 43  1  0  0  0  0
 43 46  1  0  0  0  0
 45 47  1  0  0  0  0
 46 44  1  0  0  0  0
 46 45  1  0  0  0  0
 46 47  1  0  0  0  0
M  END
>  <MODEL>
6

>  <REMARK>
 VINA RESULT:      -6.0      2.735      8.567
  Name = 
  15 active torsions:
  status: ('A' for Active; 'I' for Inactive)
    1  A    between atoms: C_1  and  C_30
    2  A    between atoms: C_4  and  C_32
    3  A    between atoms: C_8  and  C_18
    4  A    between atoms: C_10  and  C_22
    5  A    between atoms: C_15  and  C_19
    6  A    between atoms: C_15  and  C_34
    7  A    between atoms: C_23  and  C_44
    8  A    between atoms: O_24  and  C_40
    9  A    between atoms: O_24  and  C_47
   10  A    between atoms: C_29  and  C_39
   11  A    between atoms: C_29  and  C_42
   12  A    between atoms: C_32  and  C_35
   13  A    between atoms: C_34  and  C_42
   14  A    between atoms: C_40  and  C_41
   15  A    between atoms: C_44  and  C_47
                            x       y       z     vdW  Elec       q    Type
                         _______ _______ _______ _____ _____    ______ ____

>  <TORSDO>
F 15

$$$$
=
 OpenBabel11042421513D

 47 52  0  0  1  0  0  0  0  0999 V2000
  160.7720  207.9660  152.7480 C   0  0  1  0  0  3  0  0  0  0  0  0
  162.1630  206.2910  153.1760 O   0  0  0  0  0  0  0  0  0  0  0  0
  161.8000  208.4100  151.6880 C   0  0  1  0  0  3  0  0  0  0  0  0
  162.6630  206.0480  151.8710 C   0  0  2  0  0  3  0  0  0  0  0  0
  160.8710  206.5840  153.0600 O   0  0  0  0  0  0  0  0  0  0  0  0
  162.2820  207.1810  150.9160 C   0  0  0  0  0  2  0  0  0  0  0  0
  161.3170  210.5660  156.3950 C   0  0  1  0  0  3  0  0  0  0  0  0
  161.1840  208.2320  155.3270 C   0  0  0  0  0  2  0  0  0  0  0  0
  161.1590  210.3240  153.7790 C   0  0  1  0  0  3  0  0  0  0  0  0
  160.8610  209.1060  156.5370 C   0  0  0  0  0  2  0  0  0  0  0  0
  160.7650  208.8640  153.9930 C   0  0  1  0  0  0  0  0  0  0  0  0
  159.6940  209.9470  154.0170 C   0  0  0  0  0  2  0  0  0  0  0  0
  161.8720  210.9280  155.0080 C   0  0  0  0  0  2  0  0  0  0  0  0
  160.1830  211.5120  156.7570 C   0  0  0  0  0  2  0  0  0  0  0  0
  158.7560  213.2950  155.6270 C   0  0  1  0  0  0  0  0  0  0  0  0
  158.5670  214.0710  154.3380 C   0  0  0  0  0  1  0  0  0  0  0  0
  160.1590  212.7280  155.8340 C   0  0  1  0  0  3  0  0  0  0  0  0
  159.6970  213.9590  156.6110 C   0  0  0  0  0  2  0  0  0  0  0  0
  156.8650  213.2130  157.2600 O   0  0  0  0  0  1  0  0  0  0  0  0
  157.5650  212.6040  156.2270 C   0  0  0  0  0  0  0  0  0  0  0  0
  157.1960  211.4750  155.8050 O   0  0  0  0  0  0  0  0  0  0  0  0
  161.1640  209.3870  150.7120 C   0  0  0  0  0  2  0  0  0  0  0  0
  162.0980  210.5420  150.3450 C   0  0  0  0  0  2  0  0  0  0  0  0
  163.2230  211.0630  148.2920 O   0  0  0  0  0  1  0  0  0  0  0  0
  161.9610  211.0140  148.8940 C   0  0  2  0  0  3  0  0  0  0  0  0
  160.7560  212.9040  149.8470 C   0  0  0  0  0  2  0  0  0  0  0  0
  161.2690  212.3400  148.7620 C   0  0  0  0  0  0  0  0  0  0  0  0
  159.9930  212.6580  146.6180 N   0  0  0  0  0  0  0  0  0  0  0  0
  158.6440  212.7700  147.1560 C   0  0  0  0  0  2  0  0  0  0  0  0
  158.0390  214.0170  145.0910 C   0  0  0  0  0  2  0  0  0  0  0  0
  161.9230  213.8990  147.0860 O   0  0  0  0  0  0  0  0  0  0  0  0
  158.0160  214.0510  146.6190 C   0  0  0  0  0  2  0  0  0  0  0  0
  159.4770  213.8810  144.5670 C   0  0  1  0  0  3  0  0  0  0  0  0
  160.1300  212.6300  145.1660 C   0  0  0  0  0  2  0  0  0  0  0  0
  161.1000  213.0110  147.4580 C   0  0  0  0  0  0  0  0  0  0  0  0
  159.4820  213.8000  143.0430 C   0  0  0  0  0  3  0  0  0  0  0  0
  159.9130  212.5360  142.6340 O   0  0  0  0  0  1  0  0  0  0  0  0
  158.1990  214.0300  142.5480 O   0  0  0  0  0  1  0  0  0  0  0  0
  162.1550  204.7170  151.3140 C   0  0  0  0  0  2  0  0  0  0  0  0
  160.0810  205.4750  150.3780 O   0  0  0  0  0  0  0  0  0  0  0  0
  161.1760  204.8830  150.1910 C   0  0  0  0  0  0  0  0  0  0  0  0
  161.5490  204.4640  148.9110 O   0  0  0  0  0  0  0  0  0  0  0  0
  161.6190  205.3510  147.7980 C   0  0  0  0  0  2  0  0  0  0  0  0
  161.2160  203.3570  146.3240 O   0  0  0  0  0  1  0  0  0  0  0  0
  163.1850  204.7260  145.8060 C   0  0  0  0  0  2  0  0  0  0  0  0
  161.8550  204.5750  146.5100 C   0  0  0  0  0  0  0  0  0  0  0  0
  161.9390  205.4130  145.2620 C   0  0  0  0  0  2  0  0  0  0  0  0
  1  5  1  1  0  0  0
  1 11  1  0  0  0  0
  3 22  1  6  0  0  0
  3  1  1  0  0  0  0
  4 39  1  6  0  0  0
  4  2  1  0  0  0  0
  5  2  1  0  0  0  0
  6  3  1  0  0  0  0
  6  4  1  0  0  0  0
  7 10  1  0  0  0  0
  7 14  1  6  0  0  0
  8 10  1  0  0  0  0
  9 11  1  0  0  0  0
  9 12  1  1  0  0  0
  9 13  1  0  0  0  0
 11 12  1  1  0  0  0
 11  8  1  0  0  0  0
 13  7  1  0  0  0  0
 15 16  1  6  0  0  0
 15 17  1  0  0  0  0
 15 20  1  0  0  0  0
 15 18  1  0  0  0  0
 17 18  1  0  0  0  0
 17 14  1  1  0  0  0
 20 19  1  0  0  0  0
 21 20  2  0  0  0  0
 23 22  1  0  0  0  0
 25 24  1  1  0  0  0
 25 23  1  0  0  0  0
 27 25  1  0  0  0  0
 27 26  2  0  0  0  0
 28 29  1  0  0  0  0
 28 35  1  0  0  0  0
 30 32  1  0  0  0  0
 31 35  2  0  0  0  0
 32 29  1  0  0  0  0
 33 36  1  6  0  0  0
 33 30  1  0  0  0  0
 33 34  1  0  0  0  0
 34 28  1  0  0  0  0
 35 27  1  0  0  0  0
 37 36  1  0  0  0  0
 38 36  1  0  0  0  0
 41 40  2  0  0  0  0
 41 39  1  0  0  0  0
 42 41  1  0  0  0  0
 43 42  1  0  0  0  0
 44 46  1  0  0  0  0
 45 46  1  0  0  0  0
 46 43  1  0  0  0  0
 47 45  1  0  0  0  0
 47 46  1  0  0  0  0
M  END
>  <MODEL>
7

>  <REMARK>
 VINA RESULT:      -5.9      1.815      7.996
  Name = 
  15 active torsions:
  status: ('A' for Active; 'I' for Inactive)
    1  A    between atoms: C_1  and  C_30
    2  A    between atoms: C_4  and  C_32
    3  A    between atoms: C_8  and  C_18
    4  A    between atoms: C_10  and  C_22
    5  A    between atoms: C_15  and  C_19
    6  A    between atoms: C_15  and  C_34
    7  A    between atoms: C_23  and  C_44
    8  A    between atoms: O_24  and  C_40
    9  A    between atoms: O_24  and  C_47
   10  A    between atoms: C_29  and  C_39
   11  A    between atoms: C_29  and  C_42
   12  A    between atoms: C_32  and  C_35
   13  A    between atoms: C_34  and  C_42
   14  A    between atoms: C_40  and  C_41
   15  A    between atoms: C_44  and  C_47
                            x       y       z     vdW  Elec       q    Type
                         _______ _______ _______ _____ _____    ______ ____

>  <TORSDO>
F 15

$$$$
=
 OpenBabel11042421513D

 47 52  0  0  1  0  0  0  0  0999 V2000
  162.0790  209.9770  150.6370 C   0  0  1  0  0  3  0  0  0  0  0  0
  161.7470  208.0030  149.6790 O   0  0  0  0  0  0  0  0  0  0  0  0
  160.8080  209.6760  151.4560 C   0  0  1  0  0  3  0  0  0  0  0  0
  161.2210  207.2820  150.7810 C   0  0  2  0  0  3  0  0  0  0  0  0
  162.7040  208.8000  150.1450 O   0  0  0  0  0  0  0  0  0  0  0  0
  160.8540  208.2230  151.9310 C   0  0  0  0  0  2  0  0  0  0  0  0
  161.7070  213.4530  147.7840 C   0  0  1  0  0  3  0  0  0  0  0  0
  160.8880  212.1850  149.8650 C   0  0  0  0  0  2  0  0  0  0  0  0
  163.0670  211.3880  148.6870 C   0  0  1  0  0  3  0  0  0  0  0  0
  160.5080  213.0090  148.6360 C   0  0  0  0  0  2  0  0  0  0  0  0
  161.8580  211.0380  149.5510 C   0  0  1  0  0  0  0  0  0  0  0  0
  161.9320  210.5360  148.1150 C   0  0  0  0  0  2  0  0  0  0  0  0
  163.0560  212.8620  148.2250 C   0  0  0  0  0  2  0  0  0  0  0  0
  161.4620  213.1330  146.3190 C   0  0  0  0  0  2  0  0  0  0  0  0
  159.7860  213.4090  144.4180 C   0  0  1  0  0  0  0  0  0  0  0  0
  158.5820  214.2090  143.9590 C   0  0  0  0  0  1  0  0  0  0  0  0
  160.0090  213.3960  145.9300 C   0  0  1  0  0  3  0  0  0  0  0  0
  159.4330  212.1730  145.2200 C   0  0  0  0  0  2  0  0  0  0  0  0
  161.3190  212.0110  143.0250 O   0  0  0  0  0  0  0  0  0  0  0  0
  160.9510  213.2700  143.4810 C   0  0  0  0  0  0  0  0  0  0  0  0
  161.6010  214.2830  143.1070 O   0  0  0  0  0  1  0  0  0  0  0  0
  160.7340  210.5880  152.6700 C   0  0  0  0  0  2  0  0  0  0  0  0
  161.3750  209.9660  153.9130 C   0  0  0  0  0  2  0  0  0  0  0  0
  163.3760  210.6980  155.0150 O   0  0  0  0  0  1  0  0  0  0  0  0
  162.0150  210.9880  154.8580 C   0  0  2  0  0  3  0  0  0  0  0  0
  162.0670  211.3820  157.2610 C   0  0  0  0  0  2  0  0  0  0  0  0
  161.3420  211.0630  156.1970 C   0  0  0  0  0  0  0  0  0  0  0  0
  158.9460  211.8070  156.3760 N   0  0  0  0  0  0  0  0  0  0  0  0
  158.8850  212.6980  155.2240 C   0  0  0  0  0  2  0  0  0  0  0  0
  156.4280  212.3140  155.1950 C   0  0  0  0  0  2  0  0  0  0  0  0
  159.5360  209.5450  156.5180 O   0  0  0  0  0  0  0  0  0  0  0  0
  157.7050  212.2800  154.3550 C   0  0  0  0  0  2  0  0  0  0  0  0
  156.5420  211.3760  156.4050 C   0  0  1  0  0  3  0  0  0  0  0  0
  157.7710  211.7540  157.2400 C   0  0  0  0  0  2  0  0  0  0  0  0
  159.9110  210.7470  156.3750 C   0  0  0  0  0  0  0  0  0  0  0  0
  155.2800  211.4560  157.2610 C   0  0  0  0  0  3  0  0  0  0  0  0
  154.7310  212.7380  157.1810 O   0  0  0  0  0  1  0  0  0  0  0  0
  154.3410  210.5260  156.8150 O   0  0  0  0  0  1  0  0  0  0  0  0
  162.2050  206.2220  151.2810 C   0  0  0  0  0  2  0  0  0  0  0  0
  161.1620  204.6480  152.7600 O   0  0  0  0  0  0  0  0  0  0  0  0
  161.5500  204.9100  151.5920 C   0  0  0  0  0  0  0  0  0  0  0  0
  161.2840  204.0310  150.5390 O   0  0  0  0  0  0  0  0  0  0  0  0
  160.7420  202.7280  150.7390 C   0  0  0  0  0  2  0  0  0  0  0  0
  159.0940  201.5920  149.2220 O   0  0  0  0  0  1  0  0  0  0  0  0
  161.4610  201.4050  148.6080 C   0  0  0  0  0  2  0  0  0  0  0  0
  160.3760  202.0910  149.4070 C   0  0  0  0  0  0  0  0  0  0  0  0
  160.9410  202.7750  148.1910 C   0  0  0  0  0  2  0  0  0  0  0  0
  1  5  1  6  0  0  0
  1  3  1  0  0  0  0
  2  5  1  0  0  0  0
  2  4  1  0  0  0  0
  3  6  1  0  0  0  0
  3 22  1  1  0  0  0
  4 39  1  1  0  0  0
  4  6  1  0  0  0  0
  7 14  1  6  0  0  0
  7 13  1  0  0  0  0
  7 10  1  0  0  0  0
  9 12  1  6  0  0  0
  9 11  1  0  0  0  0
 10  8  1  0  0  0  0
 11 12  1  6  0  0  0
 11  8  1  0  0  0  0
 11  1  1  0  0  0  0
 13  9  1  0  0  0  0
 15 16  1  6  0  0  0
 15 18  1  0  0  0  0
 15 17  1  0  0  0  0
 17 14  1  6  0  0  0
 18 17  1  0  0  0  0
 19 20  2  0  0  0  0
 20 15  1  0  0  0  0
 21 20  1  0  0  0  0
 22 23  1  0  0  0  0
 23 25  1  0  0  0  0
 25 24  1  1  0  0  0
 25 27  1  0  0  0  0
 27 35  1  0  0  0  0
 27 26  2  0  0  0  0
 28 34  1  0  0  0  0
 29 28  1  0  0  0  0
 30 33  1  0  0  0  0
 32 30  1  0  0  0  0
 32 29  1  0  0  0  0
 33 34  1  0  0  0  0
 33 36  1  1  0  0  0
 35 28  1  0  0  0  0
 35 31  2  0  0  0  0
 37 36  1  0  0  0  0
 38 36  1  0  0  0  0
 39 41  1  0  0  0  0
 41 40  2  0  0  0  0
 42 43  1  0  0  0  0
 42 41  1  0  0  0  0
 44 46  1  0  0  0  0
 45 46  1  0  0  0  0
 46 43  1  0  0  0  0
 47 45  1  0  0  0  0
 47 46  1  0  0  0  0
M  END
>  <MODEL>
8

>  <REMARK>
 VINA RESULT:      -5.8      2.681      9.738
  Name = 
  15 active torsions:
  status: ('A' for Active; 'I' for Inactive)
    1  A    between atoms: C_1  and  C_30
    2  A    between atoms: C_4  and  C_32
    3  A    between atoms: C_8  and  C_18
    4  A    between atoms: C_10  and  C_22
    5  A    between atoms: C_15  and  C_19
    6  A    between atoms: C_15  and  C_34
    7  A    between atoms: C_23  and  C_44
    8  A    between atoms: O_24  and  C_40
    9  A    between atoms: O_24  and  C_47
   10  A    between atoms: C_29  and  C_39
   11  A    between atoms: C_29  and  C_42
   12  A    between atoms: C_32  and  C_35
   13  A    between atoms: C_34  and  C_42
   14  A    between atoms: C_40  and  C_41
   15  A    between atoms: C_44  and  C_47
                            x       y       z     vdW  Elec       q    Type
                         _______ _______ _______ _____ _____    ______ ____

>  <TORSDO>
F 15

$$$$
=
 OpenBabel11042421513D

 47 52  0  0  1  0  0  0  0  0999 V2000
  160.8240  208.4490  150.3080 C   0  0  1  0  0  3  0  0  0  0  0  0
  161.8780  206.5460  149.8710 O   0  0  0  0  0  0  0  0  0  0  0  0
  161.9660  209.1380  149.5350 C   0  0  1  0  0  3  0  0  0  0  0  0
  162.3940  206.8430  148.5830 C   0  0  2  0  0  3  0  0  0  0  0  0
  160.6650  207.0840  149.9480 O   0  0  0  0  0  0  0  0  0  0  0  0
  162.2650  208.3350  148.2680 C   0  0  0  0  0  2  0  0  0  0  0  0
  161.6270  208.9520  154.7190 C   0  0  1  0  0  3  0  0  0  0  0  0
  161.1470  207.4290  152.7050 C   0  0  0  0  0  2  0  0  0  0  0  0
  161.5590  209.9650  152.2910 C   0  0  1  0  0  3  0  0  0  0  0  0
  160.9200  207.6940  154.1920 C   0  0  0  0  0  2  0  0  0  0  0  0
  160.9100  208.6630  151.8250 C   0  0  1  0  0  0  0  0  0  0  0  0
  160.0410  209.7840  152.3820 C   0  0  0  0  0  2  0  0  0  0  0  0
  162.3040  209.8050  153.6340 C   0  0  0  0  0  2  0  0  0  0  0  0
  160.6570  209.8100  155.5150 C   0  0  0  0  0  2  0  0  0  0  0  0
  159.4450  212.0320  155.2160 C   0  0  1  0  0  0  0  0  0  0  0  0
  159.3480  213.2590  154.3310 C   0  0  0  0  0  1  0  0  0  0  0  0
  160.7730  211.2820  155.1300 C   0  0  1  0  0  3  0  0  0  0  0  0
  160.4540  212.1610  156.3380 C   0  0  0  0  0  2  0  0  0  0  0  0
  157.9570  210.8810  156.8630 O   0  0  0  0  0  1  0  0  0  0  0  0
  158.1820  211.2940  155.5560 C   0  0  0  0  0  0  0  0  0  0  0  0
  157.3240  211.0410  154.6670 O   0  0  0  0  0  0  0  0  0  0  0  0
  161.5590  210.5480  149.1380 C   0  0  0  0  0  2  0  0  0  0  0  0
  162.7380  211.5250  149.1510 C   0  0  0  0  0  2  0  0  0  0  0  0
  164.0840  213.0660  147.9010 O   0  0  0  0  0  1  0  0  0  0  0  0
  162.9110  212.3050  147.8440 C   0  0  2  0  0  3  0  0  0  0  0  0
  161.3320  214.0710  148.4120 C   0  0  0  0  0  2  0  0  0  0  0  0
  161.7370  213.1820  147.5150 C   0  0  0  0  0  0  0  0  0  0  0  0
  161.3530  213.8730  145.1270 N   0  0  0  0  0  0  0  0  0  0  0  0
  162.7260  213.8270  144.6400 C   0  0  0  0  0  2  0  0  0  0  0  0
  161.7910  213.5160  142.3570 C   0  0  0  0  0  2  0  0  0  0  0  0
  160.0460  212.2180  146.1450 O   0  0  0  0  0  0  0  0  0  0  0  0
  162.7640  212.9530  143.3920 C   0  0  0  0  0  2  0  0  0  0  0  0
  160.3620  213.5630  142.9170 C   0  0  1  0  0  3  0  0  0  0  0  0
  160.3380  214.3840  144.2120 C   0  0  0  0  0  2  0  0  0  0  0  0
  160.9930  213.0540  146.2470 C   0  0  0  0  0  0  0  0  0  0  0  0
  159.4080  214.1710  141.8910 C   0  0  0  0  0  3  0  0  0  0  0  0
  159.2830  213.3160  140.7930 O   0  0  0  0  0  1  0  0  0  0  0  0
  158.1520  214.3680  142.4640 O   0  0  0  0  0  1  0  0  0  0  0  0
  161.6910  206.0280  147.4960 C   0  0  0  0  0  2  0  0  0  0  0  0
  163.3410  204.7740  146.2870 O   0  0  0  0  0  0  0  0  0  0  0  0
  162.4180  204.7650  147.1430 C   0  0  0  0  0  0  0  0  0  0  0  0
  162.1230  203.6020  147.8600 O   0  0  0  0  0  0  0  0  0  0  0  0
  160.7920  203.2200  148.1960 C   0  0  0  0  0  2  0  0  0  0  0  0
  160.9750  203.1160  150.6990 O   0  0  0  0  0  1  0  0  0  0  0  0
  161.2160  200.9940  149.4920 C   0  0  0  0  0  2  0  0  0  0  0  0
  160.7740  202.4400  149.5030 C   0  0  0  0  0  0  0  0  0  0  0  0
  159.7380  201.3510  149.5880 C   0  0  0  0  0  2  0  0  0  0  0  0
  1  5  1  1  0  0  0
  1 11  1  0  0  0  0
  2  5  1  0  0  0  0
  3 22  1  6  0  0  0
  3  1  1  0  0  0  0
  4 39  1  6  0  0  0
  4  2  1  0  0  0  0
  6  4  1  0  0  0  0
  6  3  1  0  0  0  0
  7 14  1  6  0  0  0
  8 10  1  0  0  0  0
  9 12  1  1  0  0  0
  9 13  1  0  0  0  0
 10  7  1  0  0  0  0
 11  9  1  0  0  0  0
 11 12  1  1  0  0  0
 11  8  1  0  0  0  0
 13  7  1  0  0  0  0
 15 16  1  6  0  0  0
 15 20  1  0  0  0  0
 15 18  1  0  0  0  0
 17 15  1  0  0  0  0
 17 14  1  1  0  0  0
 17 18  1  0  0  0  0
 20 19  1  0  0  0  0
 21 20  2  0  0  0  0
 22 23  1  0  0  0  0
 25 24  1  1  0  0  0
 25 23  1  0  0  0  0
 27 25  1  0  0  0  0
 27 26  2  0  0  0  0
 28 35  1  0  0  0  0
 29 28  1  0  0  0  0
 30 33  1  0  0  0  0
 30 32  1  0  0  0  0
 31 35  2  0  0  0  0
 32 29  1  0  0  0  0
 33 36  1  6  0  0  0
 33 34  1  0  0  0  0
 34 28  1  0  0  0  0
 35 27  1  0  0  0  0
 36 38  1  0  0  0  0
 37 36  1  0  0  0  0
 40 41  2  0  0  0  0
 41 39  1  0  0  0  0
 41 42  1  0  0  0  0
 42 43  1  0  0  0  0
 43 46  1  0  0  0  0
 45 46  1  0  0  0  0
 45 47  1  0  0  0  0
 46 47  1  0  0  0  0
 46 44  1  0  0  0  0
M  END
>  <MODEL>
9

>  <REMARK>
 VINA RESULT:      -5.8      2.023      7.590
  Name = 
  15 active torsions:
  status: ('A' for Active; 'I' for Inactive)
    1  A    between atoms: C_1  and  C_30
    2  A    between atoms: C_4  and  C_32
    3  A    between atoms: C_8  and  C_18
    4  A    between atoms: C_10  and  C_22
    5  A    between atoms: C_15  and  C_19
    6  A    between atoms: C_15  and  C_34
    7  A    between atoms: C_23  and  C_44
    8  A    between atoms: O_24  and  C_40
    9  A    between atoms: O_24  and  C_47
   10  A    between atoms: C_29  and  C_39
   11  A    between atoms: C_29  and  C_42
   12  A    between atoms: C_32  and  C_35
   13  A    between atoms: C_34  and  C_42
   14  A    between atoms: C_40  and  C_41
   15  A    between atoms: C_44  and  C_47
                            x       y       z     vdW  Elec       q    Type
                         _______ _______ _______ _____ _____    ______ ____

>  <TORSDO>
F 15

$$$$
