=
 OpenBabel11042422053D

 59 64  0  0  1  0  0  0  0  0999 V2000
  164.3460  211.9190  146.6140 C   0  0  0  0  0  3  0  0  0  0  0  0
  162.6380  211.2770  148.1700 C   0  0  0  0  0  0  0  0  0  0  0  0
  161.8950  212.3820  147.8310 C   0  0  0  0  0  0  0  0  0  0  0  0
  159.6470  213.4370  148.8080 C   0  0  0  0  0  2  0  0  0  0  0  0
  163.5850  213.0470  146.2560 C   0  0  0  0  0  3  0  0  0  0  0  0
  159.4030  212.3230  147.8030 C   0  0  0  0  0  2  0  0  0  0  0  0
  163.8730  211.0210  147.5790 C   0  0  0  0  0  3  0  0  0  0  0  0
  162.3450  213.3030  146.8740 C   0  0  0  0  0  0  0  0  0  0  0  0
  160.6560  212.3210  148.6470 C   0  0  0  0  0  0  0  0  0  0  0  0
  162.0080  210.4590  149.1490 N   0  0  0  0  0  2  0  0  0  0  0  0
  160.7340  211.0750  149.5310 C   0  0  1  0  0  3  0  0  0  0  0  0
  160.8300  211.7310  152.1190 C   0  0  0  0  0  0  0  0  0  0  0  0
  160.7870  211.4460  150.9490 C   0  0  0  0  0  0  0  0  0  0  0  0
  160.8870  212.0570  153.5490 C   0  0  2  0  0  3  0  0  0  0  0  0
  161.5430  210.9360  154.3570 C   0  0  0  0  0  2  0  0  0  0  0  0
  162.3400  209.9770  153.4790 C   0  0  0  0  0  2  0  0  0  0  0  0
  161.5970  208.6550  153.3290 C   0  0  0  0  0  2  0  0  0  0  0  0
  163.0550  208.3540  151.4240 O   0  0  0  0  0  1  0  0  0  0  0  0
  161.8250  207.9780  151.9720 C   0  0  1  0  0  3  0  0  0  0  0  0
  161.6830  206.4510  151.9830 C   0  0  1  0  0  3  0  0  0  0  0  0
  161.8170  205.9220  153.2690 O   0  0  0  0  0  1  0  0  0  0  0  0
  160.3940  205.9700  151.3280 C   0  0  0  0  0  2  0  0  0  0  0  0
  160.4720  206.0710  149.9130 O   0  0  0  0  0  0  0  0  0  0  0  0
  161.4640  205.2350  148.0060 O   0  0  0  0  0  0  0  0  0  0  0  0
  160.7770  203.6200  149.5980 C   0  0  0  0  0  1  0  0  0  0  0  0
  160.9300  205.0180  149.1220 C   0  0  0  0  0  0  0  0  0  0  0  0
  159.5050  212.3990  154.0840 C   0  0  0  0  0  2  0  0  0  0  0  0
  158.7960  211.1420  154.5510 C   0  0  0  0  0  2  0  0  0  0  0  0
  157.3320  211.1700  154.1440 C   0  0  0  0  0  2  0  0  0  0  0  0
  156.4960  210.4130  155.1610 C   0  0  0  0  0  2  0  0  0  0  0  0
  155.1540  211.0950  155.3700 C   0  0  0  0  0  2  0  0  0  0  0  0
  154.4930  213.3970  156.0170 C   0  0  0  0  0  3  0  0  0  0  0  0
  155.3480  212.3680  156.0440 N   0  0  0  0  0  0  0  0  0  0  0  0
  156.4350  212.7240  156.7460 C   0  0  0  0  0  3  0  0  0  0  0  0
  156.2700  214.0190  157.1950 C   0  0  0  0  0  3  0  0  0  0  0  0
  155.0360  214.4460  156.7340 C   0  0  0  0  0  3  0  0  0  0  0  0
  161.4790  214.4470  146.4300 C   0  0  0  0  0  2  0  0  0  0  0  0
  160.3980  214.0140  145.6540 O   0  0  0  0  0  0  0  0  0  0  0  0
  159.9260  212.8900  143.5870 C   0  0  0  0  0  0  0  0  0  0  0  0
  160.9750  213.4290  144.5210 C   0  0  1  0  0  3  0  0  0  0  0  0
  162.4210  213.8600  142.5270 C   0  0  0  0  0  2  0  0  0  0  0  0
  161.8620  214.4520  143.8140 C   0  0  0  0  0  2  0  0  0  0  0  0
  158.8720  212.3700  144.0460 O   0  0  0  0  0  0  0  0  0  0  0  0
  161.2820  213.5850  141.5460 C   0  0  2  0  0  3  0  0  0  0  0  0
  160.1850  212.8420  142.1800 N   0  0  0  0  0  2  0  0  0  0  0  0
  161.4250  211.4710  140.2810 C   0  0  1  0  0  3  0  0  0  0  0  0
  161.4720  213.6510  139.1140 C   0  0  1  0  0  3  0  0  0  0  0  0
  161.7960  212.9030  140.3480 N   0  0  1  0  0  0  0  0  0  0  0  0
  161.5280  210.9460  138.8790 C   0  0  0  0  0  0  0  0  0  0  0  0
  162.2030  213.1000  138.0380 O   0  0  0  0  0  0  0  0  0  0  0  0
  161.2920  209.7340  138.6300 O   0  0  0  0  0  0  0  0  0  0  0  0
  161.7700  211.8360  137.8300 O   0  0  0  0  0  0  0  0  0  0  0  0
  162.3240  210.6500  141.2030 C   0  0  0  0  0  1  0  0  0  0  0  0
  159.9540  213.7670  138.8210 C   0  0  1  0  0  3  0  0  0  0  0  0
  159.7410  214.4510  137.4820 C   0  0  0  0  0  1  0  0  0  0  0  0
  159.2640  212.4050  138.7780 C   0  0  0  0  0  2  0  0  0  0  0  0
  158.0730  212.3620  139.7270 C   0  0  0  0  0  3  0  0  0  0  0  0
  157.0990  211.2830  139.2940 C   0  0  0  0  0  1  0  0  0  0  0  0
  157.3650  213.7020  139.6930 C   0  0  0  0  0  1  0  0  0  0  0  0
  1  7  1  0  0  0  0
  2 10  1  0  0  0  0
  3  2  1  0  0  0  0
  3  9  1  0  0  0  0
  5  1  2  0  0  0  0
  5  8  1  0  0  0  0
  6  9  1  0  0  0  0
  6  4  1  0  0  0  0
  7  2  2  0  0  0  0
  8  3  2  0  0  0  0
  9  4  1  0  0  0  0
  9 11  1  0  0  0  0
 10 11  1  0  0  0  0
 11 13  1  1  0  0  0
 13 12  3  0  0  0  0
 14 12  1  6  0  0  0
 14 27  1  0  0  0  0
 14 15  1  0  0  0  0
 16 15  1  0  0  0  0
 17 16  1  0  0  0  0
 19 18  1  1  0  0  0
 19 20  1  0  0  0  0
 19 17  1  0  0  0  0
 20 21  1  1  0  0  0
 22 20  1  0  0  0  0
 23 22  1  0  0  0  0
 24 26  2  0  0  0  0
 26 25  1  0  0  0  0
 26 23  1  0  0  0  0
 27 28  1  0  0  0  0
 29 28  1  0  0  0  0
 29 30  1  0  0  0  0
 30 31  1  0  0  0  0
 31 33  1  0  0  0  0
 32 33  1  0  0  0  0
 32 36  2  0  0  0  0
 33 34  1  0  0  0  0
 34 35  2  0  0  0  0
 36 35  1  0  0  0  0
 37  8  1  0  0  0  0
 38 37  1  0  0  0  0
 39 43  2  0  0  0  0
 39 40  1  0  0  0  0
 40 38  1  1  0  0  0
 41 42  1  0  0  0  0
 42 40  1  0  0  0  0
 44 45  1  0  0  0  0
 44 41  1  1  0  0  0
 45 39  1  0  0  0  0
 46 48  1  0  0  0  0
 46 53  1  1  0  0  0
 47 54  1  6  0  0  0
 47 48  1  0  0  0  0
 48 44  1  1  0  0  0
 49 46  1  0  0  0  0
 50 47  1  0  0  0  0
 51 49  2  0  0  0  0
 52 50  1  0  0  0  0
 52 49  1  0  0  0  0
 54 55  1  6  0  0  0
 56 54  1  0  0  0  0
 56 57  1  0  0  0  0
 58 57  1  0  0  0  0
 59 57  1  0  0  0  0
M  END
>  <MODEL>
1

>  <REMARK>
 VINA RESULT:       0.3      0.000      0.000
  Name = 
  23 active torsions:
  status: ('A' for Active; 'I' for Inactive)
    1  A    between atoms: C_3  and  C_30
    2  A    between atoms: C_3  and  C_40
    3  A    between atoms: C_6  and  C_26
    4  A    between atoms: C_6  and  O_46
    5  A    between atoms: C_8  and  C_40
    6  A    between atoms: C_8  and  C_42
    7  A    between atoms: C_9  and  O_46
    8  A    between atoms: C_14  and  C_22
    9  A    between atoms: C_15  and  C_27
   10  A    between atoms: C_15  and  O_49
   11  A    between atoms: N_16  and  C_31
   12  A    between atoms: C_22  and  C_47
   13  A    between atoms: C_25  and  C_47
   14  A    between atoms: C_27  and  C_53
   15  A    between atoms: C_30  and  N_33
   16  A    between atoms: C_35  and  C_36
   17  A    between atoms: C_35  and  C_41
   18  A    between atoms: C_36  and  C_53
   19  A    between atoms: C_41  and  C_44
   20  A    between atoms: C_42  and  C_44
   21  A    between atoms: C_44  and  C_50
   22  A    between atoms: C_45  and  C_51
   23  A    between atoms: O_49  and  C_57
                            x       y       z     vdW  Elec       q    Type
                         _______ _______ _______ _____ _____    ______ ____

>  <TORSDO>
F 23

$$$$
=
 OpenBabel11042422053D

 59 64  0  0  1  0  0  0  0  0999 V2000
  163.0220  207.0610  150.9540 C   0  0  0  0  0  3  0  0  0  0  0  0
  162.1490  209.0280  152.0130 C   0  0  0  0  0  0  0  0  0  0  0  0
  161.4400  208.2530  152.8990 C   0  0  0  0  0  0  0  0  0  0  0  0
  159.6240  208.8210  154.7700 C   0  0  0  0  0  2  0  0  0  0  0  0
  162.3050  206.2630  151.8650 C   0  0  0  0  0  3  0  0  0  0  0  0
  161.0570  208.9760  155.2530 C   0  0  0  0  0  2  0  0  0  0  0  0
  162.9480  208.4580  151.0240 C   0  0  0  0  0  3  0  0  0  0  0  0
  161.4870  206.8520  152.8490 C   0  0  0  0  0  0  0  0  0  0  0  0
  160.7210  209.1920  153.7970 C   0  0  0  0  0  0  0  0  0  0  0  0
  161.9800  210.4240  152.2320 N   0  0  0  0  0  2  0  0  0  0  0  0
  161.0520  210.6180  153.3500 C   0  0  1  0  0  3  0  0  0  0  0  0
  158.8620  211.8520  152.4460 C   0  0  0  0  0  0  0  0  0  0  0  0
  159.8500  211.3020  152.8620 C   0  0  0  0  0  0  0  0  0  0  0  0
  157.6560  212.5050  151.9230 C   0  0  2  0  0  3  0  0  0  0  0  0
  157.7090  212.6510  150.4020 C   0  0  0  0  0  2  0  0  0  0  0  0
  157.9560  214.0910  149.9650 C   0  0  0  0  0  2  0  0  0  0  0  0
  158.9680  214.1320  148.8250 C   0  0  0  0  0  2  0  0  0  0  0  0
  157.5400  214.4530  146.9010 O   0  0  0  0  0  1  0  0  0  0  0  0
  158.4270  213.5610  147.5090 C   0  0  1  0  0  3  0  0  0  0  0  0
  159.5020  213.1070  146.5140 C   0  0  1  0  0  3  0  0  0  0  0  0
  160.3130  214.1680  146.1010 O   0  0  0  0  0  1  0  0  0  0  0  0
  160.3440  211.9500  147.0380 C   0  0  0  0  0  2  0  0  0  0  0  0
  161.2630  212.3940  148.0260 O   0  0  0  0  0  0  0  0  0  0  0  0
  162.6970  210.5910  148.1500 O   0  0  0  0  0  0  0  0  0  0  0  0
  163.7150  212.7240  148.3110 C   0  0  0  0  0  1  0  0  0  0  0  0
  162.5350  211.8360  148.1560 C   0  0  0  0  0  0  0  0  0  0  0  0
  157.4240  213.8440  152.6070 C   0  0  0  0  0  2  0  0  0  0  0  0
  156.0890  213.8410  153.3280 C   0  0  0  0  0  2  0  0  0  0  0  0
  156.2730  213.4840  154.7940 C   0  0  0  0  0  2  0  0  0  0  0  0
  156.1790  211.9790  154.9780 C   0  0  0  0  0  2  0  0  0  0  0  0
  156.6550  211.5760  156.3640 C   0  0  0  0  0  2  0  0  0  0  0  0
  158.9410  211.2210  157.2610 C   0  0  0  0  0  3  0  0  0  0  0  0
  158.0630  211.9030  156.5160 N   0  0  0  0  0  0  0  0  0  0  0  0
  158.6810  212.9680  155.9810 C   0  0  0  0  0  3  0  0  0  0  0  0
  160.0010  212.9640  156.3830 C   0  0  0  0  0  3  0  0  0  0  0  0
  160.1670  211.8550  157.1950 C   0  0  0  0  0  3  0  0  0  0  0  0
  160.7970  206.0140  153.8870 C   0  0  0  0  0  2  0  0  0  0  0  0
  160.5900  204.7020  153.4470 O   0  0  0  0  0  0  0  0  0  0  0  0
  161.8450  203.4170  151.8550 C   0  0  0  0  0  0  0  0  0  0  0  0
  161.0750  204.6800  152.1340 C   0  0  1  0  0  3  0  0  0  0  0  0
  160.4110  204.7170  149.7240 C   0  0  0  0  0  2  0  0  0  0  0  0
  159.9120  204.8360  151.1570 C   0  0  0  0  0  2  0  0  0  0  0  0
  162.5580  202.8950  152.7550 O   0  0  0  0  0  0  0  0  0  0  0  0
  160.9420  203.3060  149.4760 C   0  0  2  0  0  3  0  0  0  0  0  0
  161.8780  202.8840  150.5270 N   0  0  0  0  0  2  0  0  0  0  0  0
  160.6910  202.4800  147.1630 C   0  0  1  0  0  3  0  0  0  0  0  0
  161.9790  204.5360  147.6410 C   0  0  1  0  0  3  0  0  0  0  0  0
  161.5370  203.2140  148.1330 N   0  0  1  0  0  0  0  0  0  0  0  0
  161.0660  202.8150  145.7500 C   0  0  0  0  0  0  0  0  0  0  0  0
  162.7670  204.3550  146.4830 O   0  0  0  0  0  0  0  0  0  0  0  0
  160.4850  202.2560  144.7830 O   0  0  0  0  0  0  0  0  0  0  0  0
  161.9830  203.8420  145.5080 O   0  0  0  0  0  0  0  0  0  0  0  0
  160.8200  200.9750  147.3850 C   0  0  0  0  0  1  0  0  0  0  0  0
  160.8300  205.5580  147.4410 C   0  0  1  0  0  3  0  0  0  0  0  0
  160.8190  206.5490  148.5910 C   0  0  0  0  0  1  0  0  0  0  0  0
  160.9690  206.3400  146.1360 C   0  0  0  0  0  2  0  0  0  0  0  0
  160.5790  205.4840  144.9380 C   0  0  0  0  0  3  0  0  0  0  0  0
  161.1470  206.0790  143.6640 C   0  0  0  0  0  1  0  0  0  0  0  0
  159.0680  205.4460  144.8280 C   0  0  0  0  0  1  0  0  0  0  0  0
  1  7  2  0  0  0  0
  1  5  1  0  0  0  0
  2 10  1  0  0  0  0
  2  3  2  0  0  0  0
  3  9  1  0  0  0  0
  4  6  1  0  0  0  0
  5  8  2  0  0  0  0
  7  2  1  0  0  0  0
  8  3  1  0  0  0  0
  8 37  1  0  0  0  0
  9  4  1  0  0  0  0
  9  6  1  0  0  0  0
 10 11  1  0  0  0  0
 11 13  1  6  0  0  0
 11  9  1  0  0  0  0
 12 13  3  0  0  0  0
 14 15  1  6  0  0  0
 14 12  1  0  0  0  0
 14 27  1  0  0  0  0
 16 15  1  0  0  0  0
 17 16  1  0  0  0  0
 19 18  1  6  0  0  0
 19 17  1  0  0  0  0
 20 21  1  1  0  0  0
 20 22  1  0  0  0  0
 20 19  1  0  0  0  0
 22 23  1  0  0  0  0
 23 26  1  0  0  0  0
 24 26  2  0  0  0  0
 26 25  1  0  0  0  0
 27 28  1  0  0  0  0
 28 29  1  0  0  0  0
 29 30  1  0  0  0  0
 30 31  1  0  0  0  0
 31 33  1  0  0  0  0
 33 32  1  0  0  0  0
 34 35  2  0  0  0  0
 34 33  1  0  0  0  0
 35 36  1  0  0  0  0
 36 32  2  0  0  0  0
 38 37  1  0  0  0  0
 39 40  1  0  0  0  0
 39 43  2  0  0  0  0
 40 38  1  1  0  0  0
 41 42  1  0  0  0  0
 42 40  1  0  0  0  0
 44 41  1  1  0  0  0
 44 45  1  0  0  0  0
 45 39  1  0  0  0  0
 46 53  1  6  0  0  0
 46 48  1  0  0  0  0
 47 54  1  6  0  0  0
 47 48  1  0  0  0  0
 48 44  1  1  0  0  0
 49 46  1  0  0  0  0
 50 47  1  0  0  0  0
 51 49  2  0  0  0  0
 52 49  1  0  0  0  0
 52 50  1  0  0  0  0
 54 55  1  1  0  0  0
 56 54  1  0  0  0  0
 57 56  1  0  0  0  0
 58 57  1  0  0  0  0
 59 57  1  0  0  0  0
M  END
>  <MODEL>
2

>  <REMARK>
 VINA RESULT:       0.3      4.600      8.711
  Name = 
  23 active torsions:
  status: ('A' for Active; 'I' for Inactive)
    1  A    between atoms: C_3  and  C_30
    2  A    between atoms: C_3  and  C_40
    3  A    between atoms: C_6  and  C_26
    4  A    between atoms: C_6  and  O_46
    5  A    between atoms: C_8  and  C_40
    6  A    between atoms: C_8  and  C_42
    7  A    between atoms: C_9  and  O_46
    8  A    between atoms: C_14  and  C_22
    9  A    between atoms: C_15  and  C_27
   10  A    between atoms: C_15  and  O_49
   11  A    between atoms: N_16  and  C_31
   12  A    between atoms: C_22  and  C_47
   13  A    between atoms: C_25  and  C_47
   14  A    between atoms: C_27  and  C_53
   15  A    between atoms: C_30  and  N_33
   16  A    between atoms: C_35  and  C_36
   17  A    between atoms: C_35  and  C_41
   18  A    between atoms: C_36  and  C_53
   19  A    between atoms: C_41  and  C_44
   20  A    between atoms: C_42  and  C_44
   21  A    between atoms: C_44  and  C_50
   22  A    between atoms: C_45  and  C_51
   23  A    between atoms: O_49  and  C_57
                            x       y       z     vdW  Elec       q    Type
                         _______ _______ _______ _____ _____    ______ ____

>  <TORSDO>
F 23

$$$$
=
 OpenBabel11042422053D

 59 65  0  0  1  0  0  0  0  0999 V2000
  162.8450  206.6590  150.3540 C   0  0  0  0  0  3  0  0  0  0  0  0
  162.3220  208.7610  151.3850 C   0  0  0  0  0  0  0  0  0  0  0  0
  161.6410  208.1150  152.3890 C   0  0  0  0  0  0  0  0  0  0  0  0
  160.1310  208.9740  154.4130 C   0  0  0  0  0  2  0  0  0  0  0  0
  162.1570  205.9920  151.3840 C   0  0  0  0  0  0  0  0  0  0  0  0
  161.6180  208.9850  154.7240 C   0  0  0  0  0  2  0  0  0  0  0  0
  162.9320  208.0570  150.3490 C   0  0  0  0  0  3  0  0  0  0  0  0
  161.5290  206.7170  152.4170 C   0  0  0  0  0  0  0  0  0  0  0  0
  161.1390  209.1710  153.3040 C   0  0  0  0  0  0  0  0  0  0  0  0
  162.3330  210.1750  151.5380 N   0  0  0  0  0  2  0  0  0  0  0  0
  161.5700  210.5260  152.7390 C   0  0  1  0  0  3  0  0  0  0  0  0
  159.4350  211.9610  152.0130 C   0  0  0  0  0  0  0  0  0  0  0  0
  160.4010  211.3210  152.3490 C   0  0  0  0  0  0  0  0  0  0  0  0
  158.2540  212.7230  151.5910 C   0  0  2  0  0  3  0  0  0  0  0  0
  158.2040  212.8890  150.0720 C   0  0  0  0  0  2  0  0  0  0  0  0
  157.9740  214.3370  149.6530 C   0  0  0  0  0  2  0  0  0  0  0  0
  157.9620  214.4530  148.1330 C   0  0  0  0  0  2  0  0  0  0  0  0
  157.1690  212.5430  146.8800 O   0  0  0  0  0  1  0  0  0  0  0  0
  158.3110  213.1420  147.4190 C   0  0  1  0  0  3  0  0  0  0  0  0
  159.4100  213.2620  146.3560 C   0  0  1  0  0  3  0  0  0  0  0  0
  160.1330  212.0740  146.2150 O   0  0  0  0  0  1  0  0  0  0  0  0
  158.8830  213.7420  145.0090 C   0  0  0  0  0  2  0  0  0  0  0  0
  159.9510  214.0230  144.1140 O   0  0  0  0  0  0  0  0  0  0  0  0
  161.0690  212.7610  142.5400 O   0  0  0  0  0  0  0  0  0  0  0  0
  158.9270  213.5430  141.8960 C   0  0  0  0  0  1  0  0  0  0  0  0
  160.0450  213.4130  142.8630 C   0  0  0  0  0  0  0  0  0  0  0  0
  158.1910  214.0650  152.3050 C   0  0  0  0  0  2  0  0  0  0  0  0
  156.7660  214.3700  152.7240 C   0  0  0  0  0  2  0  0  0  0  0  0
  156.6580  214.4450  154.2380 C   0  0  0  0  0  2  0  0  0  0  0  0
  155.9570  213.2070  154.7710 C   0  0  0  0  0  2  0  0  0  0  0  0
  156.9460  212.0690  154.9630 C   0  0  0  0  0  2  0  0  0  0  0  0
  158.0350  213.5810  156.6000 C   0  0  0  0  0  3  0  0  0  0  0  0
  158.0510  212.5120  155.7960 N   0  0  0  0  0  0  0  0  0  0  0  0
  159.2690  211.9500  155.8430 C   0  0  0  0  0  3  0  0  0  0  0  0
  160.0590  212.6730  156.7140 C   0  0  0  0  0  3  0  0  0  0  0  0
  159.2760  213.7080  157.1960 C   0  0  0  0  0  3  0  0  0  0  0  0
  160.8790  206.0130  153.5740 C   0  0  0  0  0  2  0  0  0  0  0  0
  160.6350  204.6640  153.2940 O   0  0  0  0  0  0  0  0  0  0  0  0
  161.6090  203.0550  151.8030 C   0  0  0  0  0  0  0  0  0  0  0  0
  161.1270  204.4670  151.9990 C   0  0  2  0  0  0  0  0  0  0  0  0
  160.5320  204.5190  149.5710 C   0  0  0  0  0  2  0  0  0  0  0  0
  160.0440  204.8190  150.9810 C   0  0  0  0  0  2  0  0  0  0  0  0
  162.1750  202.4390  152.7490 O   0  0  0  0  0  0  0  0  0  0  0  0
  160.7480  203.0150  149.4070 C   0  0  2  0  0  3  0  0  0  0  0  0
  161.5490  202.4580  150.5050 N   0  0  0  0  0  2  0  0  0  0  0  0
  160.5310  201.7740  147.2850 C   0  0  1  0  0  3  0  0  0  0  0  0
  161.6740  203.9650  147.3590 C   0  0  1  0  0  3  0  0  0  0  0  0
  161.3330  202.7250  148.0880 N   0  0  1  0  0  0  0  0  0  0  0  0
  160.8660  201.8750  145.8260 C   0  0  0  0  0  0  0  0  0  0  0  0
  162.4600  203.6340  146.2330 O   0  0  0  0  0  0  0  0  0  0  0  0
  160.3150  201.1130  144.9870 O   0  0  0  0  0  0  0  0  0  0  0  0
  161.7040  202.9020  145.3840 O   0  0  0  0  0  0  0  0  0  0  0  0
  160.7690  200.3450  147.7670 C   0  0  0  0  0  1  0  0  0  0  0  0
  160.4530  204.8540  147.0070 C   0  0  1  0  0  3  0  0  0  0  0  0
  160.6100  206.2210  147.6500 C   0  0  0  0  0  1  0  0  0  0  0  0
  160.2900  205.0480  145.5010 C   0  0  0  0  0  2  0  0  0  0  0  0
  161.6070  205.4600  144.8550 C   0  0  0  0  0  3  0  0  0  0  0  0
  162.2500  206.5810  145.6480 C   0  0  0  0  0  1  0  0  0  0  0  0
  161.3350  205.9520  143.4470 C   0  0  0  0  0  1  0  0  0  0  0  0
  1  5  1  0  0  0  0
  2 10  1  0  0  0  0
  2  3  2  0  0  0  0
  3  8  1  0  0  0  0
  3  9  1  0  0  0  0
  4  6  1  0  0  0  0
  5 40  1  0  0  0  0
  5  8  2  0  0  0  0
  7  1  2  0  0  0  0
  7  2  1  0  0  0  0
  8 37  1  0  0  0  0
  9  4  1  0  0  0  0
  9  6  1  0  0  0  0
 10 11  1  0  0  0  0
 11 13  1  6  0  0  0
 11  9  1  0  0  0  0
 12 13  3  0  0  0  0
 14 15  1  6  0  0  0
 14 12  1  0  0  0  0
 14 27  1  0  0  0  0
 16 15  1  0  0  0  0
 17 16  1  0  0  0  0
 19 18  1  6  0  0  0
 19 17  1  0  0  0  0
 20 21  1  6  0  0  0
 20 19  1  0  0  0  0
 22 20  1  0  0  0  0
 23 22  1  0  0  0  0
 24 26  2  0  0  0  0
 25 26  1  0  0  0  0
 26 23  1  0  0  0  0
 27 28  1  0  0  0  0
 28 29  1  0  0  0  0
 29 30  1  0  0  0  0
 30 31  1  0  0  0  0
 31 33  1  0  0  0  0
 32 36  2  0  0  0  0
 33 34  1  0  0  0  0
 33 32  1  0  0  0  0
 34 35  2  0  0  0  0
 35 36  1  0  0  0  0
 38 37  1  0  0  0  0
 39 40  1  0  0  0  0
 39 43  2  0  0  0  0
 40 42  1  6  0  0  0
 40 38  1  0  0  0  0
 41 42  1  0  0  0  0
 44 41  1  1  0  0  0
 44 45  1  0  0  0  0
 45 39  1  0  0  0  0
 46 53  1  1  0  0  0
 46 48  1  0  0  0  0
 47 54  1  6  0  0  0
 47 48  1  0  0  0  0
 48 44  1  1  0  0  0
 49 46  1  0  0  0  0
 50 47  1  0  0  0  0
 51 49  2  0  0  0  0
 52 49  1  0  0  0  0
 52 50  1  0  0  0  0
 54 55  1  1  0  0  0
 56 54  1  0  0  0  0
 57 56  1  0  0  0  0
 57 58  1  0  0  0  0
 59 57  1  0  0  0  0
M  END
>  <MODEL>
3

>  <REMARK>
 VINA RESULT:       0.4      3.418      9.050
  Name = 
  23 active torsions:
  status: ('A' for Active; 'I' for Inactive)
    1  A    between atoms: C_3  and  C_30
    2  A    between atoms: C_3  and  C_40
    3  A    between atoms: C_6  and  C_26
    4  A    between atoms: C_6  and  O_46
    5  A    between atoms: C_8  and  C_40
    6  A    between atoms: C_8  and  C_42
    7  A    between atoms: C_9  and  O_46
    8  A    between atoms: C_14  and  C_22
    9  A    between atoms: C_15  and  C_27
   10  A    between atoms: C_15  and  O_49
   11  A    between atoms: N_16  and  C_31
   12  A    between atoms: C_22  and  C_47
   13  A    between atoms: C_25  and  C_47
   14  A    between atoms: C_27  and  C_53
   15  A    between atoms: C_30  and  N_33
   16  A    between atoms: C_35  and  C_36
   17  A    between atoms: C_35  and  C_41
   18  A    between atoms: C_36  and  C_53
   19  A    between atoms: C_41  and  C_44
   20  A    between atoms: C_42  and  C_44
   21  A    between atoms: C_44  and  C_50
   22  A    between atoms: C_45  and  C_51
   23  A    between atoms: O_49  and  C_57
                            x       y       z     vdW  Elec       q    Type
                         _______ _______ _______ _____ _____    ______ ____

>  <TORSDO>
F 23

$$$$
=
 OpenBabel11042422053D

 59 64  0  0  1  0  0  0  0  0999 V2000
  164.8630  211.9460  146.4210 C   0  0  0  0  0  3  0  0  0  0  0  0
  163.0650  211.2360  147.8420 C   0  0  0  0  0  0  0  0  0  0  0  0
  162.3320  212.3440  147.4920 C   0  0  0  0  0  0  0  0  0  0  0  0
  160.0140  213.3430  148.3550 C   0  0  0  0  0  2  0  0  0  0  0  0
  164.1130  213.0780  146.0530 C   0  0  0  0  0  3  0  0  0  0  0  0
  159.8490  212.2630  147.3000 C   0  0  0  0  0  2  0  0  0  0  0  0
  164.3390  211.0120  147.3240 C   0  0  0  0  0  3  0  0  0  0  0  0
  162.8320  213.3020  146.5970 C   0  0  0  0  0  0  0  0  0  0  0  0
  161.0440  212.2440  148.2230 C   0  0  0  0  0  0  0  0  0  0  0  0
  162.3830  210.3790  148.7500 N   0  0  0  0  0  2  0  0  0  0  0  0
  161.0800  210.9690  149.0680 C   0  0  1  0  0  3  0  0  0  0  0  0
  161.0010  211.5380  151.6780 C   0  0  0  0  0  0  0  0  0  0  0  0
  161.0360  211.2920  150.4980 C   0  0  0  0  0  0  0  0  0  0  0  0
  160.9600  211.8160  153.1180 C   0  0  2  0  0  3  0  0  0  0  0  0
  161.6430  210.7100  153.9250 C   0  0  0  0  0  2  0  0  0  0  0  0
  160.9070  209.3790  153.8240 C   0  0  0  0  0  2  0  0  0  0  0  0
  161.3210  208.6390  152.5580 C   0  0  0  0  0  2  0  0  0  0  0  0
  160.7480  206.7310  153.9280 O   0  0  0  0  0  1  0  0  0  0  0  0
  161.3420  207.1140  152.7230 C   0  0  1  0  0  3  0  0  0  0  0  0
  160.7380  206.3320  151.5500 C   0  0  1  0  0  3  0  0  0  0  0  0
  160.7810  207.0600  150.3580 O   0  0  0  0  0  1  0  0  0  0  0  0
  161.3640  204.9540  151.3700 C   0  0  0  0  0  2  0  0  0  0  0  0
  160.6340  204.1810  150.4280 O   0  0  0  0  0  0  0  0  0  0  0  0
  161.3610  202.4180  149.1320 O   0  0  0  0  0  0  0  0  0  0  0  0
  161.7260  204.5760  148.2250 C   0  0  0  0  0  1  0  0  0  0  0  0
  161.2300  203.6580  149.2810 C   0  0  0  0  0  0  0  0  0  0  0  0
  159.5330  212.0510  153.5860 C   0  0  0  0  0  2  0  0  0  0  0  0
  159.5240  212.9110  154.8350 C   0  0  0  0  0  2  0  0  0  0  0  0
  158.1370  212.9420  155.4550 C   0  0  0  0  0  2  0  0  0  0  0  0
  157.3720  214.1560  154.9570 C   0  0  0  0  0  2  0  0  0  0  0  0
  156.1990  213.7340  154.0890 C   0  0  0  0  0  2  0  0  0  0  0  0
  157.7380  214.0490  152.1690 C   0  0  0  0  0  3  0  0  0  0  0  0
  156.5080  213.9790  152.6900 N   0  0  0  0  0  0  0  0  0  0  0  0
  155.6110  214.2280  151.7230 C   0  0  0  0  0  3  0  0  0  0  0  0
  156.2840  214.4530  150.5390 C   0  0  0  0  0  3  0  0  0  0  0  0
  157.6350  214.3380  150.8210 C   0  0  0  0  0  3  0  0  0  0  0  0
  161.9830  214.4520  146.1360 C   0  0  0  0  0  2  0  0  0  0  0  0
  160.9500  214.0330  145.2910 O   0  0  0  0  0  0  0  0  0  0  0  0
  160.6020  212.3910  143.5750 C   0  0  0  0  0  0  0  0  0  0  0  0
  161.5800  213.2830  144.2910 C   0  0  1  0  0  3  0  0  0  0  0  0
  162.8870  213.4290  142.1640 C   0  0  0  0  0  2  0  0  0  0  0  0
  162.2780  214.2240  143.3110 C   0  0  0  0  0  2  0  0  0  0  0  0
  159.6540  211.8500  144.2070 O   0  0  0  0  0  0  0  0  0  0  0  0
  161.7790  212.7670  141.3470 C   0  0  2  0  0  3  0  0  0  0  0  0
  160.8270  212.0470  142.2040 N   0  0  0  0  0  2  0  0  0  0  0  0
  161.5540  210.6860  140.0380 C   0  0  1  0  0  3  0  0  0  0  0  0
  162.7010  212.6620  139.0900 C   0  0  1  0  0  3  0  0  0  0  0  0
  162.3600  211.8990  140.3100 N   0  0  1  0  0  0  0  0  0  0  0  0
  161.8850  210.1020  138.6960 C   0  0  0  0  0  0  0  0  0  0  0  0
  163.4830  211.8460  138.2430 O   0  0  0  0  0  0  0  0  0  0  0  0
  161.3310  209.0410  138.3050 O   0  0  0  0  0  0  0  0  0  0  0  0
  162.7230  210.8070  137.8290 O   0  0  0  0  0  0  0  0  0  0  0  0
  161.7920  209.6410  141.1250 C   0  0  0  0  0  1  0  0  0  0  0  0
  161.4800  213.2910  138.3700 C   0  0  1  0  0  3  0  0  0  0  0  0
  161.2910  212.6370  137.0140 C   0  0  0  0  0  1  0  0  0  0  0  0
  160.1870  213.1260  139.1670 C   0  0  0  0  0  2  0  0  0  0  0  0
  158.9780  213.0560  138.2430 C   0  0  0  0  0  3  0  0  0  0  0  0
  158.4000  214.4430  138.0330 C   0  0  0  0  0  1  0  0  0  0  0  0
  157.9190  212.1770  138.8790 C   0  0  0  0  0  1  0  0  0  0  0  0
  1  7  1  0  0  0  0
  2 10  1  0  0  0  0
  3  2  1  0  0  0  0
  3  9  1  0  0  0  0
  5  1  2  0  0  0  0
  5  8  1  0  0  0  0
  6  9  1  0  0  0  0
  6  4  1  0  0  0  0
  7  2  2  0  0  0  0
  8  3  2  0  0  0  0
  9  4  1  0  0  0  0
  9 11  1  0  0  0  0
 10 11  1  0  0  0  0
 11 13  1  1  0  0  0
 13 12  3  0  0  0  0
 14 12  1  6  0  0  0
 14 27  1  0  0  0  0
 14 15  1  0  0  0  0
 16 15  1  0  0  0  0
 17 19  1  0  0  0  0
 17 16  1  0  0  0  0
 19 18  1  1  0  0  0
 20 21  1  6  0  0  0
 20 19  1  0  0  0  0
 22 20  1  0  0  0  0
 23 22  1  0  0  0  0
 24 26  2  0  0  0  0
 25 26  1  0  0  0  0
 26 23  1  0  0  0  0
 27 28  1  0  0  0  0
 28 29  1  0  0  0  0
 30 29  1  0  0  0  0
 31 30  1  0  0  0  0
 32 33  1  0  0  0  0
 33 31  1  0  0  0  0
 34 33  1  0  0  0  0
 35 36  1  0  0  0  0
 35 34  2  0  0  0  0
 36 32  2  0  0  0  0
 37  8  1  0  0  0  0
 38 37  1  0  0  0  0
 39 43  2  0  0  0  0
 39 40  1  0  0  0  0
 40 38  1  1  0  0  0
 41 42  1  0  0  0  0
 42 40  1  0  0  0  0
 44 41  1  1  0  0  0
 44 45  1  0  0  0  0
 45 39  1  0  0  0  0
 46 48  1  0  0  0  0
 46 53  1  1  0  0  0
 47 54  1  6  0  0  0
 47 48  1  0  0  0  0
 48 44  1  1  0  0  0
 49 46  1  0  0  0  0
 50 47  1  0  0  0  0
 51 49  2  0  0  0  0
 52 50  1  0  0  0  0
 52 49  1  0  0  0  0
 54 55  1  6  0  0  0
 54 56  1  0  0  0  0
 57 59  1  0  0  0  0
 57 56  1  0  0  0  0
 58 57  1  0  0  0  0
M  END
>  <MODEL>
4

>  <REMARK>
 VINA RESULT:       0.5      1.553      2.234
  Name = 
  23 active torsions:
  status: ('A' for Active; 'I' for Inactive)
    1  A    between atoms: C_3  and  C_30
    2  A    between atoms: C_3  and  C_40
    3  A    between atoms: C_6  and  C_26
    4  A    between atoms: C_6  and  O_46
    5  A    between atoms: C_8  and  C_40
    6  A    between atoms: C_8  and  C_42
    7  A    between atoms: C_9  and  O_46
    8  A    between atoms: C_14  and  C_22
    9  A    between atoms: C_15  and  C_27
   10  A    between atoms: C_15  and  O_49
   11  A    between atoms: N_16  and  C_31
   12  A    between atoms: C_22  and  C_47
   13  A    between atoms: C_25  and  C_47
   14  A    between atoms: C_27  and  C_53
   15  A    between atoms: C_30  and  N_33
   16  A    between atoms: C_35  and  C_36
   17  A    between atoms: C_35  and  C_41
   18  A    between atoms: C_36  and  C_53
   19  A    between atoms: C_41  and  C_44
   20  A    between atoms: C_42  and  C_44
   21  A    between atoms: C_44  and  C_50
   22  A    between atoms: C_45  and  C_51
   23  A    between atoms: O_49  and  C_57
                            x       y       z     vdW  Elec       q    Type
                         _______ _______ _______ _____ _____    ______ ____

>  <TORSDO>
F 23

$$$$
=
 OpenBabel11042422053D

 59 64  0  0  1  0  0  0  0  0999 V2000
  163.7890  203.6170  145.2930 C   0  0  0  0  0  3  0  0  0  0  0  0
  162.3810  204.8620  146.7820 C   0  0  0  0  0  0  0  0  0  0  0  0
  161.8810  205.5860  145.7270 C   0  0  0  0  0  0  0  0  0  0  0  0
  160.2570  207.6970  145.5700 C   0  0  0  0  0  2  0  0  0  0  0  0
  163.2740  204.3490  144.2070 C   0  0  0  0  0  3  0  0  0  0  0  0
  159.5170  206.3750  145.6850 C   0  0  0  0  0  2  0  0  0  0  0  0
  163.3410  203.8710  146.5960 C   0  0  0  0  0  3  0  0  0  0  0  0
  162.3150  205.3610  144.4120 C   0  0  0  0  0  0  0  0  0  0  0  0
  160.8880  206.5310  146.2980 C   0  0  0  0  0  0  0  0  0  0  0  0
  161.8080  205.2300  148.0320 N   0  0  0  0  0  2  0  0  0  0  0  0
  160.8530  206.3190  147.8120 C   0  0  1  0  0  3  0  0  0  0  0  0
  161.7270  208.4950  149.0940 C   0  0  0  0  0  0  0  0  0  0  0  0
  161.3220  207.5170  148.5160 C   0  0  0  0  0  0  0  0  0  0  0  0
  162.2390  209.6790  149.7940 C   0  0  2  0  0  3  0  0  0  0  0  0
  162.2460  209.4770  151.3100 C   0  0  0  0  0  2  0  0  0  0  0  0
  161.0160  208.7210  151.8000 C   0  0  0  0  0  2  0  0  0  0  0  0
  161.2020  208.2920  153.2510 C   0  0  0  0  0  2  0  0  0  0  0  0
  160.0020  208.2700  155.3500 O   0  0  0  0  0  1  0  0  0  0  0  0
  160.3020  209.0530  154.2320 C   0  0  1  0  0  3  0  0  0  0  0  0
  160.8350  210.4250  154.6620 C   0  0  1  0  0  3  0  0  0  0  0  0
  162.2310  210.4770  154.6320 O   0  0  0  0  0  1  0  0  0  0  0  0
  160.2300  211.5740  153.8620 C   0  0  0  0  0  2  0  0  0  0  0  0
  158.9010  211.8450  154.2850 O   0  0  0  0  0  0  0  0  0  0  0  0
  158.8440  213.9390  153.3210 O   0  0  0  0  0  0  0  0  0  0  0  0
  156.8370  213.2350  154.3660 C   0  0  0  0  0  1  0  0  0  0  0  0
  158.2490  213.0330  153.9550 C   0  0  0  0  0  0  0  0  0  0  0  0
  161.4630  210.9240  149.3960 C   0  0  0  0  0  2  0  0  0  0  0  0
  162.4070  211.9850  148.8650 C   0  0  0  0  0  2  0  0  0  0  0  0
  161.6560  213.2750  148.5800 C   0  0  0  0  0  2  0  0  0  0  0  0
  160.7750  213.1040  147.3540 C   0  0  0  0  0  2  0  0  0  0  0  0
  159.8590  214.3030  147.1770 C   0  0  0  0  0  2  0  0  0  0  0  0
  159.9330  214.1740  144.7010 C   0  0  0  0  0  3  0  0  0  0  0  0
  159.2610  214.2750  145.8530 N   0  0  0  0  0  0  0  0  0  0  0  0
  157.9520  214.4030  145.5840 C   0  0  0  0  0  3  0  0  0  0  0  0
  157.7750  214.3700  144.2160 C   0  0  0  0  0  3  0  0  0  0  0  0
  159.0320  214.2240  143.6540 C   0  0  0  0  0  3  0  0  0  0  0  0
  161.6850  206.0790  143.2520 C   0  0  0  0  0  2  0  0  0  0  0  0
  162.2030  205.6460  142.0260 O   0  0  0  0  0  0  0  0  0  0  0  0
  162.5740  206.4450  139.7940 C   0  0  0  0  0  0  0  0  0  0  0  0
  162.2140  206.7860  141.2150 C   0  0  1  0  0  3  0  0  0  0  0  0
  160.8190  208.6630  140.3300 C   0  0  0  0  0  2  0  0  0  0  0  0
  160.8530  207.4750  141.2820 C   0  0  0  0  0  2  0  0  0  0  0  0
  163.4210  205.5400  139.5520 O   0  0  0  0  0  0  0  0  0  0  0  0
  160.9390  208.1730  138.8870 C   0  0  2  0  0  3  0  0  0  0  0  0
  162.0600  207.2390  138.7210 N   0  0  0  0  0  2  0  0  0  0  0  0
  159.7810  210.1150  137.8960 C   0  0  1  0  0  3  0  0  0  0  0  0
  162.2310  210.1360  138.2290 C   0  0  1  0  0  3  0  0  0  0  0  0
  161.0280  209.3180  137.9670 N   0  0  1  0  0  0  0  0  0  0  0  0
  160.0440  211.4930  137.3640 C   0  0  0  0  0  0  0  0  0  0  0  0
  162.4040  211.0520  137.1670 O   0  0  0  0  0  0  0  0  0  0  0  0
  159.0970  212.3050  137.1910 O   0  0  0  0  0  0  0  0  0  0  0  0
  161.3620  211.9140  137.1730 O   0  0  0  0  0  0  0  0  0  0  0  0
  158.7550  209.4110  137.0110 C   0  0  0  0  0  1  0  0  0  0  0  0
  162.2510  210.8120  139.6240 C   0  0  1  0  0  3  0  0  0  0  0  0
  163.4350  210.3020  140.4260 C   0  0  0  0  0  1  0  0  0  0  0  0
  162.3550  212.3330  139.5310 C   0  0  0  0  0  2  0  0  0  0  0  0
  161.6810  213.0040  140.7210 C   0  0  0  0  0  3  0  0  0  0  0  0
  162.6220  213.0270  141.9100 C   0  0  0  0  0  1  0  0  0  0  0  0
  160.4400  212.2160  141.0950 C   0  0  0  0  0  1  0  0  0  0  0  0
  1  7  1  0  0  0  0
  2 10  1  0  0  0  0
  3  9  1  0  0  0  0
  3  2  1  0  0  0  0
  4  6  1  0  0  0  0
  4  9  1  0  0  0  0
  5  8  1  0  0  0  0
  5  1  2  0  0  0  0
  6  9  1  0  0  0  0
  7  2  2  0  0  0  0
  8  3  2  0  0  0  0
  9 11  1  0  0  0  0
 11 10  1  0  0  0  0
 11 13  1  1  0  0  0
 13 12  3  0  0  0  0
 14 12  1  6  0  0  0
 14 15  1  0  0  0  0
 15 16  1  0  0  0  0
 16 17  1  0  0  0  0
 17 19  1  0  0  0  0
 19 20  1  0  0  0  0
 19 18  1  1  0  0  0
 20 21  1  6  0  0  0
 22 23  1  0  0  0  0
 22 20  1  0  0  0  0
 24 26  2  0  0  0  0
 26 23  1  0  0  0  0
 26 25  1  0  0  0  0
 27 14  1  0  0  0  0
 28 27  1  0  0  0  0
 29 28  1  0  0  0  0
 30 29  1  0  0  0  0
 31 30  1  0  0  0  0
 32 33  1  0  0  0  0
 33 31  1  0  0  0  0
 34 33  1  0  0  0  0
 35 34  2  0  0  0  0
 36 35  1  0  0  0  0
 36 32  2  0  0  0  0
 37  8  1  0  0  0  0
 38 37  1  0  0  0  0
 39 40  1  0  0  0  0
 40 42  1  0  0  0  0
 40 38  1  1  0  0  0
 41 42  1  0  0  0  0
 43 39  2  0  0  0  0
 44 41  1  1  0  0  0
 45 44  1  0  0  0  0
 45 39  1  0  0  0  0
 46 53  1  6  0  0  0
 46 48  1  0  0  0  0
 47 54  1  1  0  0  0
 48 47  1  0  0  0  0
 48 44  1  1  0  0  0
 49 46  1  0  0  0  0
 50 52  1  0  0  0  0
 50 47  1  0  0  0  0
 51 49  2  0  0  0  0
 52 49  1  0  0  0  0
 54 55  1  1  0  0  0
 56 54  1  0  0  0  0
 56 57  1  0  0  0  0
 57 59  1  0  0  0  0
 57 58  1  0  0  0  0
M  END
>  <MODEL>
5

>  <REMARK>
 VINA RESULT:       0.7      3.253      7.126
  Name = 
  23 active torsions:
  status: ('A' for Active; 'I' for Inactive)
    1  A    between atoms: C_3  and  C_30
    2  A    between atoms: C_3  and  C_40
    3  A    between atoms: C_6  and  C_26
    4  A    between atoms: C_6  and  O_46
    5  A    between atoms: C_8  and  C_40
    6  A    between atoms: C_8  and  C_42
    7  A    between atoms: C_9  and  O_46
    8  A    between atoms: C_14  and  C_22
    9  A    between atoms: C_15  and  C_27
   10  A    between atoms: C_15  and  O_49
   11  A    between atoms: N_16  and  C_31
   12  A    between atoms: C_22  and  C_47
   13  A    between atoms: C_25  and  C_47
   14  A    between atoms: C_27  and  C_53
   15  A    between atoms: C_30  and  N_33
   16  A    between atoms: C_35  and  C_36
   17  A    between atoms: C_35  and  C_41
   18  A    between atoms: C_36  and  C_53
   19  A    between atoms: C_41  and  C_44
   20  A    between atoms: C_42  and  C_44
   21  A    between atoms: C_44  and  C_50
   22  A    between atoms: C_45  and  C_51
   23  A    between atoms: O_49  and  C_57
                            x       y       z     vdW  Elec       q    Type
                         _______ _______ _______ _____ _____    ______ ____

>  <TORSDO>
F 23

$$$$
=
 OpenBabel11042422053D

 59 64  0  0  1  0  0  0  0  0999 V2000
  163.8680  203.6630  145.2770 C   0  0  0  0  0  3  0  0  0  0  0  0
  162.4030  204.7290  146.8480 C   0  0  0  0  0  0  0  0  0  0  0  0
  161.9280  205.5610  145.8620 C   0  0  0  0  0  0  0  0  0  0  0  0
  160.2890  207.6660  145.8840 C   0  0  0  0  0  2  0  0  0  0  0  0
  163.3790  204.5060  144.2620 C   0  0  0  0  0  3  0  0  0  0  0  0
  159.5590  206.3340  145.8310 C   0  0  0  0  0  2  0  0  0  0  0  0
  163.3780  203.7710  146.5850 C   0  0  0  0  0  3  0  0  0  0  0  0
  162.4040  205.4830  144.5450 C   0  0  0  0  0  0  0  0  0  0  0  0
  160.9090  206.4320  146.5000 C   0  0  0  0  0  0  0  0  0  0  0  0
  161.7880  204.9550  148.1120 N   0  0  0  0  0  2  0  0  0  0  0  0
  160.8290  206.0550  147.9810 C   0  0  1  0  0  3  0  0  0  0  0  0
  161.6380  208.0800  149.5270 C   0  0  0  0  0  0  0  0  0  0  0  0
  161.2650  207.1730  148.8260 C   0  0  0  0  0  0  0  0  0  0  0  0
  162.1100  209.1720  150.3850 C   0  0  2  0  0  3  0  0  0  0  0  0
  161.6660  208.9810  151.8360 C   0  0  0  0  0  2  0  0  0  0  0  0
  160.1540  209.0880  151.9990 C   0  0  0  0  0  2  0  0  0  0  0  0
  159.8110  209.9220  153.2280 C   0  0  0  0  0  2  0  0  0  0  0  0
  160.4500  212.2040  153.7060 O   0  0  0  0  0  1  0  0  0  0  0  0
  160.9260  210.8920  153.6370 C   0  0  1  0  0  3  0  0  0  0  0  0
  161.6630  210.5170  154.9280 C   0  0  1  0  0  3  0  0  0  0  0  0
  161.9780  211.6410  155.6960 O   0  0  0  0  0  1  0  0  0  0  0  0
  160.9150  209.4810  155.7590 C   0  0  0  0  0  2  0  0  0  0  0  0
  161.4500  208.1800  155.5550 O   0  0  0  0  0  0  0  0  0  0  0  0
  161.3550  206.0020  156.3070 O   0  0  0  0  0  0  0  0  0  0  0  0
  159.2680  207.0110  155.8170 C   0  0  0  0  0  1  0  0  0  0  0  0
  160.7490  207.0290  155.9120 C   0  0  0  0  0  0  0  0  0  0  0  0
  161.6730  210.5220  149.8380 C   0  0  0  0  0  2  0  0  0  0  0  0
  162.7470  211.0960  148.9350 C   0  0  0  0  0  2  0  0  0  0  0  0
  162.2490  212.3540  148.2430 C   0  0  0  0  0  2  0  0  0  0  0  0
  160.7360  212.4400  148.3470 C   0  0  0  0  0  2  0  0  0  0  0  0
  160.2220  213.7100  147.6890 C   0  0  0  0  0  2  0  0  0  0  0  0
  159.4300  214.1220  145.3750 C   0  0  0  0  0  3  0  0  0  0  0  0
  160.2900  213.5790  146.2440 N   0  0  0  0  0  0  0  0  0  0  0  0
  161.1900  212.8490  145.5660 C   0  0  0  0  0  3  0  0  0  0  0  0
  160.9080  212.9350  144.2180 C   0  0  0  0  0  3  0  0  0  0  0  0
  159.7910  213.7440  144.0950 C   0  0  0  0  0  3  0  0  0  0  0  0
  161.8040  206.3190  143.4510 C   0  0  0  0  0  2  0  0  0  0  0  0
  162.0940  205.8050  142.1820 O   0  0  0  0  0  0  0  0  0  0  0  0
  162.4240  206.5270  139.9170 C   0  0  0  0  0  0  0  0  0  0  0  0
  162.1490  206.9240  141.3420 C   0  0  1  0  0  3  0  0  0  0  0  0
  160.8480  208.8720  140.4680 C   0  0  0  0  0  2  0  0  0  0  0  0
  160.8420  207.7060  141.4480 C   0  0  0  0  0  2  0  0  0  0  0  0
  163.1960  205.5620  139.6630 O   0  0  0  0  0  0  0  0  0  0  0  0
  160.8730  208.3440  139.0350 C   0  0  2  0  0  3  0  0  0  0  0  0
  161.9200  207.3310  138.8460 N   0  0  0  0  0  2  0  0  0  0  0  0
  159.7540  210.2460  137.9280 C   0  0  1  0  0  3  0  0  0  0  0  0
  162.1860  210.2930  138.3760 C   0  0  1  0  0  3  0  0  0  0  0  0
  161.0000  209.4600  138.0830 N   0  0  1  0  0  0  0  0  0  0  0  0
  160.0360  211.6080  137.3650 C   0  0  0  0  0  0  0  0  0  0  0  0
  162.4050  211.1750  137.2950 O   0  0  0  0  0  0  0  0  0  0  0  0
  159.0940  212.4080  137.1210 O   0  0  0  0  0  0  0  0  0  0  0  0
  161.3600  212.0310  137.2230 O   0  0  0  0  0  0  0  0  0  0  0  0
  158.7750  209.5070  137.0180 C   0  0  0  0  0  1  0  0  0  0  0  0
  162.1350  211.0130  139.7480 C   0  0  1  0  0  3  0  0  0  0  0  0
  163.4410  210.7950  140.4910 C   0  0  0  0  0  1  0  0  0  0  0  0
  161.9110  212.5180  139.6060 C   0  0  0  0  0  2  0  0  0  0  0  0
  163.0490  213.3050  140.2420 C   0  0  0  0  0  3  0  0  0  0  0  0
  162.4950  214.3620  141.1780 C   0  0  0  0  0  1  0  0  0  0  0  0
  163.8470  213.9900  139.1500 C   0  0  0  0  0  1  0  0  0  0  0  0
  1  7  1  0  0  0  0
  2 10  1  0  0  0  0
  3  9  1  0  0  0  0
  3  2  1  0  0  0  0
  4  9  1  0  0  0  0
  5  8  1  0  0  0  0
  5  1  2  0  0  0  0
  6  4  1  0  0  0  0
  6  9  1  0  0  0  0
  7  2  2  0  0  0  0
  8  3  2  0  0  0  0
  9 11  1  0  0  0  0
 11 10  1  0  0  0  0
 11 13  1  1  0  0  0
 13 12  3  0  0  0  0
 14 12  1  6  0  0  0
 14 15  1  0  0  0  0
 15 16  1  0  0  0  0
 16 17  1  0  0  0  0
 17 19  1  0  0  0  0
 19 18  1  1  0  0  0
 19 20  1  0  0  0  0
 20 21  1  1  0  0  0
 20 22  1  0  0  0  0
 23 22  1  0  0  0  0
 23 26  1  0  0  0  0
 25 26  1  0  0  0  0
 26 24  2  0  0  0  0
 27 14  1  0  0  0  0
 28 27  1  0  0  0  0
 29 30  1  0  0  0  0
 29 28  1  0  0  0  0
 31 30  1  0  0  0  0
 32 33  1  0  0  0  0
 33 31  1  0  0  0  0
 34 33  1  0  0  0  0
 35 34  2  0  0  0  0
 36 35  1  0  0  0  0
 36 32  2  0  0  0  0
 37  8  1  0  0  0  0
 38 37  1  0  0  0  0
 39 40  1  0  0  0  0
 40 42  1  0  0  0  0
 40 38  1  1  0  0  0
 41 42  1  0  0  0  0
 43 39  2  0  0  0  0
 44 41  1  1  0  0  0
 45 44  1  0  0  0  0
 45 39  1  0  0  0  0
 46 53  1  6  0  0  0
 46 48  1  0  0  0  0
 47 54  1  1  0  0  0
 48 47  1  0  0  0  0
 48 44  1  1  0  0  0
 49 46  1  0  0  0  0
 50 47  1  0  0  0  0
 51 49  2  0  0  0  0
 52 50  1  0  0  0  0
 52 49  1  0  0  0  0
 54 55  1  6  0  0  0
 56 54  1  0  0  0  0
 56 57  1  0  0  0  0
 57 58  1  0  0  0  0
 59 57  1  0  0  0  0
M  END
>  <MODEL>
6

>  <REMARK>
 VINA RESULT:       2.2      3.636      6.925
  Name = 
  23 active torsions:
  status: ('A' for Active; 'I' for Inactive)
    1  A    between atoms: C_3  and  C_30
    2  A    between atoms: C_3  and  C_40
    3  A    between atoms: C_6  and  C_26
    4  A    between atoms: C_6  and  O_46
    5  A    between atoms: C_8  and  C_40
    6  A    between atoms: C_8  and  C_42
    7  A    between atoms: C_9  and  O_46
    8  A    between atoms: C_14  and  C_22
    9  A    between atoms: C_15  and  C_27
   10  A    between atoms: C_15  and  O_49
   11  A    between atoms: N_16  and  C_31
   12  A    between atoms: C_22  and  C_47
   13  A    between atoms: C_25  and  C_47
   14  A    between atoms: C_27  and  C_53
   15  A    between atoms: C_30  and  N_33
   16  A    between atoms: C_35  and  C_36
   17  A    between atoms: C_35  and  C_41
   18  A    between atoms: C_36  and  C_53
   19  A    between atoms: C_41  and  C_44
   20  A    between atoms: C_42  and  C_44
   21  A    between atoms: C_44  and  C_50
   22  A    between atoms: C_45  and  C_51
   23  A    between atoms: O_49  and  C_57
                            x       y       z     vdW  Elec       q    Type
                         _______ _______ _______ _____ _____    ______ ____

>  <TORSDO>
F 23

$$$$
=
 OpenBabel11042422053D

 59 64  0  0  1  0  0  0  0  0999 V2000
  164.9150  211.9130  146.3960 C   0  0  0  0  0  3  0  0  0  0  0  0
  163.1730  210.9510  147.7340 C   0  0  0  0  0  0  0  0  0  0  0  0
  162.4180  212.0910  147.5950 C   0  0  0  0  0  0  0  0  0  0  0  0
  160.1190  212.8990  148.6820 C   0  0  0  0  0  2  0  0  0  0  0  0
  164.1430  213.0790  146.2430 C   0  0  0  0  0  3  0  0  0  0  0  0
  159.9300  212.0050  147.4690 C   0  0  0  0  0  2  0  0  0  0  0  0
  164.4310  210.8350  147.1470 C   0  0  0  0  0  3  0  0  0  0  0  0
  162.8790  213.1900  146.8560 C   0  0  0  0  0  0  0  0  0  0  0  0
  161.1550  211.8520  148.3390 C   0  0  0  0  0  0  0  0  0  0  0  0
  162.5290  209.9460  148.5090 N   0  0  0  0  0  2  0  0  0  0  0  0
  161.2310  210.4560  148.9600 C   0  0  1  0  0  3  0  0  0  0  0  0
  161.2300  210.5850  151.6290 C   0  0  0  0  0  0  0  0  0  0  0  0
  161.2320  210.5380  150.4250 C   0  0  0  0  0  0  0  0  0  0  0  0
  161.2280  210.6210  153.0960 C   0  0  2  0  0  3  0  0  0  0  0  0
  161.7200  209.3020  153.6930 C   0  0  0  0  0  2  0  0  0  0  0  0
  160.7460  208.1550  153.4460 C   0  0  0  0  0  2  0  0  0  0  0  0
  161.1080  207.4190  152.1610 C   0  0  0  0  0  2  0  0  0  0  0  0
  161.9030  205.7910  153.7610 O   0  0  0  0  0  1  0  0  0  0  0  0
  161.8730  206.1120  152.4020 C   0  0  1  0  0  3  0  0  0  0  0  0
  161.3800  204.9180  151.5760 C   0  0  1  0  0  3  0  0  0  0  0  0
  161.2770  203.7560  152.3450 O   0  0  0  0  0  1  0  0  0  0  0  0
  160.0750  205.2020  150.8420 C   0  0  0  0  0  2  0  0  0  0  0  0
  160.3080  205.9530  149.6580 O   0  0  0  0  0  0  0  0  0  0  0  0
  161.2220  206.1100  147.5470 O   0  0  0  0  0  0  0  0  0  0  0  0
  161.8160  204.1770  148.7810 C   0  0  0  0  0  1  0  0  0  0  0  0
  161.1040  205.4690  148.6210 C   0  0  0  0  0  0  0  0  0  0  0  0
  159.8550  211.0010  153.6290 C   0  0  0  0  0  2  0  0  0  0  0  0
  159.8590  212.4360  154.1190 C   0  0  0  0  0  2  0  0  0  0  0  0
  159.2670  212.5260  155.5160 C   0  0  0  0  0  2  0  0  0  0  0  0
  158.5840  211.2180  155.8760 C   0  0  0  0  0  2  0  0  0  0  0  0
  159.1040  210.6850  157.2010 C   0  0  0  0  0  2  0  0  0  0  0  0
  161.4760  210.3510  156.5550 C   0  0  0  0  0  3  0  0  0  0  0  0
  160.2950  209.8840  156.9760 N   0  0  0  0  0  0  0  0  0  0  0  0
  160.3750  208.5490  157.1010 C   0  0  0  0  0  3  0  0  0  0  0  0
  161.6520  208.1470  156.7630 C   0  0  0  0  0  3  0  0  0  0  0  0
  162.3520  209.2910  156.4170 C   0  0  0  0  0  3  0  0  0  0  0  0
  162.0040  214.3880  146.6170 C   0  0  0  0  0  2  0  0  0  0  0  0
  160.8920  214.0740  145.8270 O   0  0  0  0  0  0  0  0  0  0  0  0
  160.3450  212.7120  143.9280 C   0  0  0  0  0  0  0  0  0  0  0  0
  161.4180  213.4310  144.7010 C   0  0  1  0  0  3  0  0  0  0  0  0
  162.6290  213.7840  142.5420 C   0  0  0  0  0  2  0  0  0  0  0  0
  162.1350  214.4510  143.8180 C   0  0  0  0  0  2  0  0  0  0  0  0
  159.3920  212.1510  144.5360 O   0  0  0  0  0  0  0  0  0  0  0  0
  161.4370  213.3150  141.7080 C   0  0  2  0  0  3  0  0  0  0  0  0
  160.4780  212.5470  142.5130 N   0  0  0  0  0  2  0  0  0  0  0  0
  161.6900  211.1030  140.6440 C   0  0  1  0  0  3  0  0  0  0  0  0
  161.3770  213.1380  139.2750 C   0  0  1  0  0  3  0  0  0  0  0  0
  161.9030  212.5640  140.5310 N   0  0  1  0  0  0  0  0  0  0  0  0
  161.7120  210.4430  139.2960 C   0  0  0  0  0  0  0  0  0  0  0  0
  162.0550  212.5520  138.1830 O   0  0  0  0  0  0  0  0  0  0  0  0
  161.5890  209.1940  139.1920 O   0  0  0  0  0  0  0  0  0  0  0  0
  161.7480  211.2360  138.1460 O   0  0  0  0  0  0  0  0  0  0  0  0
  162.7620  210.4810  141.5360 C   0  0  0  0  0  1  0  0  0  0  0  0
  159.8340  213.0690  139.1400 C   0  0  1  0  0  3  0  0  0  0  0  0
  159.1840  213.5850  140.4110 C   0  0  0  0  0  1  0  0  0  0  0  0
  159.3150  213.8970  137.9660 C   0  0  0  0  0  2  0  0  0  0  0  0
  158.2800  213.1220  137.1610 C   0  0  0  0  0  3  0  0  0  0  0  0
  156.9090  213.7480  137.3320 C   0  0  0  0  0  1  0  0  0  0  0  0
  158.2310  211.6920  137.6650 C   0  0  0  0  0  1  0  0  0  0  0  0
  1  7  1  0  0  0  0
  2 10  1  0  0  0  0
  3  2  1  0  0  0  0
  3  9  1  0  0  0  0
  5  1  2  0  0  0  0
  5  8  1  0  0  0  0
  6  9  1  0  0  0  0
  6  4  1  0  0  0  0
  7  2  2  0  0  0  0
  8  3  2  0  0  0  0
  9  4  1  0  0  0  0
  9 11  1  0  0  0  0
 10 11  1  0  0  0  0
 11 13  1  1  0  0  0
 13 12  3  0  0  0  0
 14 12  1  6  0  0  0
 14 27  1  0  0  0  0
 14 15  1  0  0  0  0
 16 15  1  0  0  0  0
 17 19  1  0  0  0  0
 17 16  1  0  0  0  0
 19 18  1  1  0  0  0
 20 21  1  1  0  0  0
 20 19  1  0  0  0  0
 22 20  1  0  0  0  0
 23 22  1  0  0  0  0
 24 26  2  0  0  0  0
 26 25  1  0  0  0  0
 26 23  1  0  0  0  0
 27 28  1  0  0  0  0
 28 29  1  0  0  0  0
 29 30  1  0  0  0  0
 30 31  1  0  0  0  0
 32 33  1  0  0  0  0
 33 34  1  0  0  0  0
 33 31  1  0  0  0  0
 35 34  2  0  0  0  0
 36 32  2  0  0  0  0
 36 35  1  0  0  0  0
 37  8  1  0  0  0  0
 38 37  1  0  0  0  0
 39 43  2  0  0  0  0
 39 40  1  0  0  0  0
 40 38  1  1  0  0  0
 41 42  1  0  0  0  0
 42 40  1  0  0  0  0
 44 45  1  0  0  0  0
 44 41  1  1  0  0  0
 45 39  1  0  0  0  0
 46 53  1  1  0  0  0
 47 54  1  6  0  0  0
 47 48  1  0  0  0  0
 48 46  1  0  0  0  0
 48 44  1  1  0  0  0
 49 46  1  0  0  0  0
 50 47  1  0  0  0  0
 51 49  2  0  0  0  0
 52 50  1  0  0  0  0
 52 49  1  0  0  0  0
 54 55  1  1  0  0  0
 56 54  1  0  0  0  0
 57 58  1  0  0  0  0
 57 59  1  0  0  0  0
 57 56  1  0  0  0  0
M  END
>  <MODEL>
7

>  <REMARK>
 VINA RESULT:       2.3      1.716      2.611
  Name = 
  23 active torsions:
  status: ('A' for Active; 'I' for Inactive)
    1  A    between atoms: C_3  and  C_30
    2  A    between atoms: C_3  and  C_40
    3  A    between atoms: C_6  and  C_26
    4  A    between atoms: C_6  and  O_46
    5  A    between atoms: C_8  and  C_40
    6  A    between atoms: C_8  and  C_42
    7  A    between atoms: C_9  and  O_46
    8  A    between atoms: C_14  and  C_22
    9  A    between atoms: C_15  and  C_27
   10  A    between atoms: C_15  and  O_49
   11  A    between atoms: N_16  and  C_31
   12  A    between atoms: C_22  and  C_47
   13  A    between atoms: C_25  and  C_47
   14  A    between atoms: C_27  and  C_53
   15  A    between atoms: C_30  and  N_33
   16  A    between atoms: C_35  and  C_36
   17  A    between atoms: C_35  and  C_41
   18  A    between atoms: C_36  and  C_53
   19  A    between atoms: C_41  and  C_44
   20  A    between atoms: C_42  and  C_44
   21  A    between atoms: C_44  and  C_50
   22  A    between atoms: C_45  and  C_51
   23  A    between atoms: O_49  and  C_57
                            x       y       z     vdW  Elec       q    Type
                         _______ _______ _______ _____ _____    ______ ____

>  <TORSDO>
F 23

$$$$
=
 OpenBabel11042422053D

 59 64  0  0  1  0  0  0  0  0999 V2000
  161.5140  202.9160  151.2010 C   0  0  0  0  0  3  0  0  0  0  0  0
  162.2940  203.9580  149.1870 C   0  0  0  0  0  0  0  0  0  0  0  0
  161.7120  205.1460  149.5600 C   0  0  0  0  0  0  0  0  0  0  0  0
  161.3820  207.4840  148.3170 C   0  0  0  0  0  2  0  0  0  0  0  0
  160.9240  204.1330  151.5920 C   0  0  0  0  0  3  0  0  0  0  0  0
  162.7400  207.3430  148.9850 C   0  0  0  0  0  2  0  0  0  0  0  0
  162.2080  202.8220  149.9880 C   0  0  0  0  0  3  0  0  0  0  0  0
  161.0050  205.2700  150.7640 C   0  0  0  0  0  0  0  0  0  0  0  0
  162.0130  206.1190  148.4790 C   0  0  0  0  0  0  0  0  0  0  0  0
  162.9750  204.0370  147.9400 N   0  0  0  0  0  2  0  0  0  0  0  0
  162.8220  205.3920  147.4030 C   0  0  1  0  0  3  0  0  0  0  0  0
  161.4700  205.2750  145.1000 C   0  0  0  0  0  0  0  0  0  0  0  0
  162.0700  205.3260  146.1450 C   0  0  0  0  0  0  0  0  0  0  0  0
  160.7580  205.2130  143.8180 C   0  0  2  0  0  3  0  0  0  0  0  0
  159.9460  203.9240  143.6860 C   0  0  0  0  0  2  0  0  0  0  0  0
  159.3930  203.4470  145.0250 C   0  0  0  0  0  2  0  0  0  0  0  0
  160.2180  202.2780  145.5520 C   0  0  0  0  0  2  0  0  0  0  0  0
  158.7810  201.3710  147.2720 O   0  0  0  0  0  1  0  0  0  0  0  0
  160.0040  202.0070  147.0470 C   0  0  1  0  0  3  0  0  0  0  0  0
  161.1440  201.2430  147.7310 C   0  0  1  0  0  3  0  0  0  0  0  0
  160.6890  200.4800  148.8100 O   0  0  0  0  0  1  0  0  0  0  0  0
  161.9520  200.3890  146.7620 C   0  0  0  0  0  2  0  0  0  0  0  0
  161.4580  199.0570  146.7210 O   0  0  0  0  0  0  0  0  0  0  0  0
  161.9030  197.4080  145.1710 O   0  0  0  0  0  0  0  0  0  0  0  0
  160.1220  198.8730  144.6280 C   0  0  0  0  0  1  0  0  0  0  0  0
  161.2110  198.3970  145.5180 C   0  0  0  0  0  0  0  0  0  0  0  0
  161.7200  205.3930  142.6540 C   0  0  0  0  0  2  0  0  0  0  0  0
  161.2940  206.5700  141.7980 C   0  0  0  0  0  2  0  0  0  0  0  0
  162.2990  206.8130  140.6840 C   0  0  0  0  0  2  0  0  0  0  0  0
  161.9100  208.0510  139.8940 C   0  0  0  0  0  2  0  0  0  0  0  0
  161.1420  209.0290  140.7670 C   0  0  0  0  0  2  0  0  0  0  0  0
  160.1620  210.1900  138.8070 C   0  0  0  0  0  3  0  0  0  0  0  0
  160.7820  210.2040  139.9920 N   0  0  0  0  0  0  0  0  0  0  0  0
  161.0670  211.4740  140.3200 C   0  0  0  0  0  3  0  0  0  0  0  0
  160.6040  212.3050  139.3200 C   0  0  0  0  0  3  0  0  0  0  0  0
  160.0280  211.4910  138.3590 C   0  0  0  0  0  3  0  0  0  0  0  0
  160.4660  206.5970  151.2160 C   0  0  0  0  0  2  0  0  0  0  0  0
  161.2650  207.1740  152.2100 O   0  0  0  0  0  0  0  0  0  0  0  0
  160.9600  208.4160  154.2420 C   0  0  0  0  0  0  0  0  0  0  0  0
  160.4210  208.0670  152.8800 C   0  0  1  0  0  3  0  0  0  0  0  0
  159.3900  210.3440  152.7900 C   0  0  0  0  0  2  0  0  0  0  0  0
  160.2280  209.3230  152.0320 C   0  0  0  0  0  2  0  0  0  0  0  0
  161.5610  207.5460  154.9290 O   0  0  0  0  0  0  0  0  0  0  0  0
  160.1490  210.8210  154.0270 C   0  0  2  0  0  3  0  0  0  0  0  0
  160.6690  209.6940  154.8140 N   0  0  0  0  0  2  0  0  0  0  0  0
  160.0540  212.4720  155.8590 C   0  0  1  0  0  3  0  0  0  0  0  0
  158.4530  212.5740  153.9770 C   0  0  1  0  0  3  0  0  0  0  0  0
  159.3020  211.7170  154.8310 N   0  0  1  0  0  0  0  0  0  0  0  0
  159.2940  213.6860  156.3080 C   0  0  0  0  0  0  0  0  0  0  0  0
  157.4870  213.2140  154.7850 O   0  0  0  0  0  0  0  0  0  0  0  0
  159.7550  214.4330  157.2110 O   0  0  0  0  0  0  0  0  0  0  0  0
  158.1270  214.0520  155.6320 O   0  0  0  0  0  0  0  0  0  0  0  0
  160.3460  211.5770  157.0620 C   0  0  0  0  0  1  0  0  0  0  0  0
  159.2440  213.5610  153.0790 C   0  0  1  0  0  3  0  0  0  0  0  0
  160.1480  212.7860  152.1370 C   0  0  0  0  0  1  0  0  0  0  0  0
  158.3250  214.4470  152.2400 C   0  0  0  0  0  2  0  0  0  0  0  0
  157.7510  213.6790  151.0570 C   0  0  0  0  0  3  0  0  0  0  0  0
  158.0200  214.4290  149.7670 C   0  0  0  0  0  1  0  0  0  0  0  0
  156.2520  213.5400  151.2380 C   0  0  0  0  0  1  0  0  0  0  0  0
  1  5  1  0  0  0  0
  2  3  2  0  0  0  0
  2  7  1  0  0  0  0
  3  8  1  0  0  0  0
  4  9  1  0  0  0  0
  4  6  1  0  0  0  0
  7  1  2  0  0  0  0
  8 37  1  0  0  0  0
  8  5  2  0  0  0  0
  9  6  1  0  0  0  0
  9  3  1  0  0  0  0
 10  2  1  0  0  0  0
 11 13  1  6  0  0  0
 11 10  1  0  0  0  0
 11  9  1  0  0  0  0
 12 13  3  0  0  0  0
 14 27  1  6  0  0  0
 14 12  1  0  0  0  0
 15 14  1  0  0  0  0
 15 16  1  0  0  0  0
 16 17  1  0  0  0  0
 17 19  1  0  0  0  0
 19 18  1  6  0  0  0
 19 20  1  0  0  0  0
 20 21  1  1  0  0  0
 22 20  1  0  0  0  0
 23 22  1  0  0  0  0
 24 26  2  0  0  0  0
 25 26  1  0  0  0  0
 26 23  1  0  0  0  0
 28 27  1  0  0  0  0
 29 28  1  0  0  0  0
 30 29  1  0  0  0  0
 30 31  1  0  0  0  0
 32 33  1  0  0  0  0
 33 34  1  0  0  0  0
 33 31  1  0  0  0  0
 35 34  2  0  0  0  0
 36 32  2  0  0  0  0
 36 35  1  0  0  0  0
 37 38  1  0  0  0  0
 39 45  1  0  0  0  0
 39 43  2  0  0  0  0
 40 38  1  6  0  0  0
 40 39  1  0  0  0  0
 42 41  1  0  0  0  0
 42 40  1  0  0  0  0
 44 41  1  6  0  0  0
 44 45  1  0  0  0  0
 46 49  1  0  0  0  0
 46 53  1  1  0  0  0
 47 54  1  1  0  0  0
 47 50  1  0  0  0  0
 47 48  1  0  0  0  0
 48 44  1  6  0  0  0
 48 46  1  0  0  0  0
 49 51  2  0  0  0  0
 50 52  1  0  0  0  0
 52 49  1  0  0  0  0
 54 55  1  6  0  0  0
 56 54  1  0  0  0  0
 57 59  1  0  0  0  0
 57 56  1  0  0  0  0
 58 57  1  0  0  0  0
M  END
>  <MODEL>
8

>  <REMARK>
 VINA RESULT:       2.6      4.774     12.387
  Name = 
  23 active torsions:
  status: ('A' for Active; 'I' for Inactive)
    1  A    between atoms: C_3  and  C_30
    2  A    between atoms: C_3  and  C_40
    3  A    between atoms: C_6  and  C_26
    4  A    between atoms: C_6  and  O_46
    5  A    between atoms: C_8  and  C_40
    6  A    between atoms: C_8  and  C_42
    7  A    between atoms: C_9  and  O_46
    8  A    between atoms: C_14  and  C_22
    9  A    between atoms: C_15  and  C_27
   10  A    between atoms: C_15  and  O_49
   11  A    between atoms: N_16  and  C_31
   12  A    between atoms: C_22  and  C_47
   13  A    between atoms: C_25  and  C_47
   14  A    between atoms: C_27  and  C_53
   15  A    between atoms: C_30  and  N_33
   16  A    between atoms: C_35  and  C_36
   17  A    between atoms: C_35  and  C_41
   18  A    between atoms: C_36  and  C_53
   19  A    between atoms: C_41  and  C_44
   20  A    between atoms: C_42  and  C_44
   21  A    between atoms: C_44  and  C_50
   22  A    between atoms: C_45  and  C_51
   23  A    between atoms: O_49  and  C_57
                            x       y       z     vdW  Elec       q    Type
                         _______ _______ _______ _____ _____    ______ ____

>  <TORSDO>
F 23

$$$$
=
 OpenBabel11042422053D

 59 64  0  0  1  0  0  0  0  0999 V2000
  163.4450  206.5200  151.2810 C   0  0  0  0  0  3  0  0  0  0  0  0
  162.5710  208.4080  152.4740 C   0  0  0  0  0  0  0  0  0  0  0  0
  161.6430  207.6050  153.0930 C   0  0  0  0  0  0  0  0  0  0  0  0
  159.5700  208.1120  154.6940 C   0  0  0  0  0  2  0  0  0  0  0  0
  162.5030  205.6920  151.9180 C   0  0  0  0  0  3  0  0  0  0  0  0
  160.8960  208.0300  155.4320 C   0  0  0  0  0  2  0  0  0  0  0  0
  163.4850  207.8930  151.5580 C   0  0  0  0  0  3  0  0  0  0  0  0
  161.5730  206.2290  152.8300 C   0  0  0  0  0  0  0  0  0  0  0  0
  160.8570  208.4850  153.9930 C   0  0  0  0  0  0  0  0  0  0  0  0
  162.4900  209.7690  152.8810 N   0  0  0  0  0  2  0  0  0  0  0  0
  161.3920  209.9110  153.8410 C   0  0  1  0  0  3  0  0  0  0  0  0
  159.5240  211.5050  152.7870 C   0  0  0  0  0  0  0  0  0  0  0  0
  160.3670  210.7930  153.2720 C   0  0  0  0  0  0  0  0  0  0  0  0
  158.4940  212.3570  152.1810 C   0  0  2  0  0  3  0  0  0  0  0  0
  158.7070  212.5140  150.6750 C   0  0  0  0  0  2  0  0  0  0  0  0
  160.0320  213.1920  150.3440 C   0  0  0  0  0  2  0  0  0  0  0  0
  160.0910  213.5460  148.8620 C   0  0  0  0  0  2  0  0  0  0  0  0
  160.1510  211.5540  147.4940 O   0  0  0  0  0  1  0  0  0  0  0  0
  160.9390  212.5710  148.0360 C   0  0  1  0  0  3  0  0  0  0  0  0
  161.7970  213.2290  146.9480 C   0  0  1  0  0  3  0  0  0  0  0  0
  163.1070  213.4530  147.3780 O   0  0  0  0  0  1  0  0  0  0  0  0
  161.7790  212.4580  145.6330 C   0  0  0  0  0  2  0  0  0  0  0  0
  160.5700  212.6880  144.9220 O   0  0  0  0  0  0  0  0  0  0  0  0
  159.4630  213.6110  143.1220 O   0  0  0  0  0  0  0  0  0  0  0  0
  161.8290  213.7170  143.0360 C   0  0  0  0  0  1  0  0  0  0  0  0
  160.5500  213.3410  143.6910 C   0  0  0  0  0  0  0  0  0  0  0  0
  158.4240  213.7050  152.8820 C   0  0  0  0  0  2  0  0  0  0  0  0
  157.1630  213.7970  153.7200 C   0  0  0  0  0  2  0  0  0  0  0  0
  157.5010  213.7550  155.2010 C   0  0  0  0  0  2  0  0  0  0  0  0
  156.9980  212.4590  155.8120 C   0  0  0  0  0  2  0  0  0  0  0  0
  157.5520  212.2740  157.2150 C   0  0  0  0  0  2  0  0  0  0  0  0
  159.3120  210.5260  157.1800 C   0  0  0  0  0  3  0  0  0  0  0  0
  158.9260  211.8060  157.1440 N   0  0  0  0  0  0  0  0  0  0  0  0
  160.0160  212.5880  157.0890 C   0  0  0  0  0  3  0  0  0  0  0  0
  161.1390  211.7850  157.0770 C   0  0  0  0  0  3  0  0  0  0  0  0
  160.6930  210.4750  157.1330 C   0  0  0  0  0  3  0  0  0  0  0  0
  160.6300  205.3390  153.5890 C   0  0  0  0  0  2  0  0  0  0  0  0
  160.3540  204.1560  152.8950 O   0  0  0  0  0  0  0  0  0  0  0  0
  160.9720  203.0800  150.8400 C   0  0  0  0  0  0  0  0  0  0  0  0
  160.8430  204.3720  151.6010 C   0  0  1  0  0  3  0  0  0  0  0  0
  160.3940  205.5200  149.4260 C   0  0  0  0  0  2  0  0  0  0  0  0
  159.9290  205.3490  150.8660 C   0  0  0  0  0  2  0  0  0  0  0  0
  161.3240  202.0240  151.4350 O   0  0  0  0  0  0  0  0  0  0  0  0
  160.2400  204.2000  148.6730 C   0  0  2  0  0  3  0  0  0  0  0  0
  160.8280  203.0770  149.4170 N   0  0  0  0  0  2  0  0  0  0  0  0
  162.2770  204.2640  147.2800 C   0  0  1  0  0  3  0  0  0  0  0  0
  160.1520  203.3790  146.3770 C   0  0  1  0  0  3  0  0  0  0  0  0
  160.7970  204.3200  147.3160 N   0  0  1  0  0  0  0  0  0  0  0  0
  162.7760  203.9030  145.9120 C   0  0  0  0  0  0  0  0  0  0  0  0
  160.5310  203.7140  145.0580 O   0  0  0  0  0  0  0  0  0  0  0  0
  164.0110  203.8470  145.6740 O   0  0  0  0  0  0  0  0  0  0  0  0
  161.8620  203.5100  144.9300 O   0  0  0  0  0  0  0  0  0  0  0  0
  162.8660  205.6080  147.7030 C   0  0  0  0  0  1  0  0  0  0  0  0
  160.3850  201.8830  146.7140 C   0  0  1  0  0  3  0  0  0  0  0  0
  159.1580  201.3160  147.4060 C   0  0  0  0  0  1  0  0  0  0  0  0
  160.6630  201.0430  145.4680 C   0  0  0  0  0  2  0  0  0  0  0  0
  160.7870  199.5660  145.8180 C   0  0  0  0  0  3  0  0  0  0  0  0
  162.1470  199.2860  146.4290 C   0  0  0  0  0  1  0  0  0  0  0  0
  160.6410  198.7440  144.5530 C   0  0  0  0  0  1  0  0  0  0  0  0
  1  7  2  0  0  0  0
  1  5  1  0  0  0  0
  2 10  1  0  0  0  0
  2  3  2  0  0  0  0
  3  9  1  0  0  0  0
  4  6  1  0  0  0  0
  5  8  2  0  0  0  0
  7  2  1  0  0  0  0
  8  3  1  0  0  0  0
  8 37  1  0  0  0  0
  9  4  1  0  0  0  0
  9  6  1  0  0  0  0
 10 11  1  0  0  0  0
 11 13  1  6  0  0  0
 11  9  1  0  0  0  0
 12 13  3  0  0  0  0
 14 15  1  6  0  0  0
 14 12  1  0  0  0  0
 14 27  1  0  0  0  0
 16 15  1  0  0  0  0
 17 16  1  0  0  0  0
 19 18  1  6  0  0  0
 19 17  1  0  0  0  0
 20 21  1  1  0  0  0
 20 19  1  0  0  0  0
 22 20  1  0  0  0  0
 23 22  1  0  0  0  0
 24 26  2  0  0  0  0
 25 26  1  0  0  0  0
 26 23  1  0  0  0  0
 27 28  1  0  0  0  0
 28 29  1  0  0  0  0
 29 30  1  0  0  0  0
 30 31  1  0  0  0  0
 33 32  1  0  0  0  0
 33 31  1  0  0  0  0
 34 33  1  0  0  0  0
 35 34  2  0  0  0  0
 35 36  1  0  0  0  0
 36 32  2  0  0  0  0
 38 37  1  0  0  0  0
 39 43  2  0  0  0  0
 39 40  1  0  0  0  0
 40 38  1  1  0  0  0
 41 42  1  0  0  0  0
 42 40  1  0  0  0  0
 44 45  1  0  0  0  0
 44 41  1  1  0  0  0
 45 39  1  0  0  0  0
 46 48  1  0  0  0  0
 46 53  1  6  0  0  0
 47 54  1  1  0  0  0
 47 48  1  0  0  0  0
 48 44  1  1  0  0  0
 49 46  1  0  0  0  0
 50 47  1  0  0  0  0
 51 49  2  0  0  0  0
 52 50  1  0  0  0  0
 52 49  1  0  0  0  0
 54 55  1  6  0  0  0
 56 57  1  0  0  0  0
 56 54  1  0  0  0  0
 57 58  1  0  0  0  0
 59 57  1  0  0  0  0
M  END
>  <MODEL>
9

>  <REMARK>
 VINA RESULT:       2.9      3.585      9.280
  Name = 
  23 active torsions:
  status: ('A' for Active; 'I' for Inactive)
    1  A    between atoms: C_3  and  C_30
    2  A    between atoms: C_3  and  C_40
    3  A    between atoms: C_6  and  C_26
    4  A    between atoms: C_6  and  O_46
    5  A    between atoms: C_8  and  C_40
    6  A    between atoms: C_8  and  C_42
    7  A    between atoms: C_9  and  O_46
    8  A    between atoms: C_14  and  C_22
    9  A    between atoms: C_15  and  C_27
   10  A    between atoms: C_15  and  O_49
   11  A    between atoms: N_16  and  C_31
   12  A    between atoms: C_22  and  C_47
   13  A    between atoms: C_25  and  C_47
   14  A    between atoms: C_27  and  C_53
   15  A    between atoms: C_30  and  N_33
   16  A    between atoms: C_35  and  C_36
   17  A    between atoms: C_35  and  C_41
   18  A    between atoms: C_36  and  C_53
   19  A    between atoms: C_41  and  C_44
   20  A    between atoms: C_42  and  C_44
   21  A    between atoms: C_44  and  C_50
   22  A    between atoms: C_45  and  C_51
   23  A    between atoms: O_49  and  C_57
                            x       y       z     vdW  Elec       q    Type
                         _______ _______ _______ _____ _____    ______ ____

>  <TORSDO>
F 23

$$$$
