=
 OpenBabel11052411163D

 26 28  0  0  1  0  0  0  0  0999 V2000
  161.1890  209.5090  152.9010 C   0  0  0  0  0  3  0  0  0  0  0  0
  161.9540  208.9230  150.6420 C   0  0  0  0  0  0  0  0  0  0  0  0
  161.1660  204.6920  151.7710 C   0  0  0  0  0  3  0  0  0  0  0  0
  161.9950  208.0280  149.6290 N   0  0  0  0  0  0  0  0  0  0  0  0
  161.1090  207.2260  152.2610 C   0  0  0  0  0  0  0  0  0  0  0  0
  161.7930  206.6080  149.8630 C   0  0  0  0  0  0  0  0  0  0  0  0
  161.3780  204.3500  148.6270 C   0  0  0  0  0  0  0  0  0  0  0  0
  160.8530  203.5120  149.5400 C   0  0  0  0  0  3  0  0  0  0  0  0
  160.8950  203.5930  151.0440 C   0  0  0  0  0  3  0  0  0  0  0  0
  161.6870  205.8400  148.7660 C   0  0  0  0  0  3  0  0  0  0  0  0
  161.3160  208.5350  151.8980 C   0  0  0  0  0  0  0  0  0  0  0  0
  160.8450  206.9050  153.5480 N   0  0  0  0  0  0  0  0  0  0  0  0
  160.8420  209.1860  154.2370 C   0  0  0  0  0  3  0  0  0  0  0  0
  161.1890  206.1350  151.2000 C   0  0  1  0  0  3  0  0  0  0  0  0
  160.6730  207.8280  154.5390 C   0  0  0  0  0  0  0  0  0  0  0  0
  160.1110  206.8950  156.9380 N   0  0  0  0  0  0  0  0  0  0  0  0
  160.3650  207.3180  155.8390 C   0  0  0  0  0  0  0  0  0  0  0  0
  161.3260  204.0760  147.1210 C   0  0  0  0  0  2  0  0  0  0  0  0
  162.2040  204.9040  146.1960 C   0  0  0  0  0  2  0  0  0  0  0  0
  161.4190  205.0940  144.9550 N   0  0  0  0  0  2  0  0  0  0  0  0
  160.3520  206.0740  145.2140 C   0  0  0  0  0  1  0  0  0  0  0  0
  161.9760  210.3820  150.3320 C   0  0  0  0  0  2  0  0  0  0  0  0
  162.0310  210.5800  148.8220 C   0  0  0  0  0  2  0  0  0  0  0  0
  161.1460  212.8400  147.9670 O   0  0  0  0  0  1  0  0  0  0  0  0
  163.4420  212.4820  147.9650 O   0  0  0  0  0  0  0  0  0  0  0  0
  162.2920  212.0130  148.2720 C   0  0  0  0  0  0  0  0  0  0  0  0
  1 13  1  0  0  0  0
  2 11  1  0  0  0  0
  4  6  1  0  0  0  0
  4  2  2  0  0  0  0
  5 12  2  0  0  0  0
  6 14  1  0  0  0  0
  7 10  1  0  0  0  0
  7  8  2  0  0  0  0
  8  9  1  0  0  0  0
  9  3  2  0  0  0  0
 10  6  2  0  0  0  0
 11  5  1  0  0  0  0
 11  1  2  0  0  0  0
 12 15  1  0  0  0  0
 13 15  2  0  0  0  0
 14  3  1  1  0  0  0
 14  5  1  0  0  0  0
 15 17  1  0  0  0  0
 17 16  3  0  0  0  0
 18  7  1  0  0  0  0
 19 18  1  0  0  0  0
 20 21  1  0  0  0  0
 20 19  1  0  0  0  0
 22  2  1  0  0  0  0
 23 22  1  0  0  0  0
 24 26  1  0  0  0  0
 25 26  2  0  0  0  0
 26 23  1  0  0  0  0
M  END
>  <MODEL>
1

>  <REMARK>
 VINA RESULT:      -8.6      0.000      0.000
  Name = 
  7 active torsions:
  status: ('A' for Active; 'I' for Inactive)
    1  A    between atoms: C_1  and  C_11
    2  A    between atoms: C_1  and  C_13
    3  A    between atoms: C_3  and  C_17
    4  A    between atoms: C_3  and  C_24
    5  A    between atoms: C_5  and  C_26
    6  A    between atoms: C_6  and  C_17
    7  A    between atoms: N_9  and  C_11
                            x       y       z     vdW  Elec       q    Type
                         _______ _______ _______ _____ _____    ______ ____

>  <TORSDO>
F 7

$$$$
=
 OpenBabel11052411163D

 26 28  0  0  0  0  0  0  0  0999 V2000
  162.1120  208.8180  151.7150 C   0  0  0  0  0  3  0  0  0  0  0  0
  161.4510  206.4570  151.8630 C   0  0  0  0  0  0  0  0  0  0  0  0
  161.1440  206.5490  147.4260 C   0  0  0  0  0  3  0  0  0  0  0  0
  161.3040  205.2560  151.2620 N   0  0  0  0  0  2  0  0  0  0  0  0
  161.7300  207.6430  149.6890 C   0  0  0  0  0  0  0  0  0  0  0  0
  161.1540  205.1430  149.8200 C   0  0  0  0  0  0  0  0  0  0  0  0
  161.1590  203.4100  147.8720 C   0  0  0  0  0  0  0  0  0  0  0  0
  161.3900  204.1110  146.7460 C   0  0  0  0  0  3  0  0  0  0  0  0
  161.2250  205.5860  146.4900 C   0  0  0  0  0  3  0  0  0  0  0  0
  161.1860  203.8970  149.3200 C   0  0  0  0  0  3  0  0  0  0  0  0
  161.8620  207.6040  151.0560 C   0  0  0  0  0  0  0  0  0  0  0  0
  161.7910  208.8220  149.0290 N   0  0  0  0  0  0  0  0  0  0  0  0
  162.2480  210.0470  151.0220 C   0  0  0  0  0  3  0  0  0  0  0  0
  161.5050  206.3460  148.9220 C   0  0  0  0  0  0  0  0  0  0  0  0
  162.0730  210.0150  149.6310 C   0  0  0  0  0  0  0  0  0  0  0  0
  162.1810  212.1330  148.0690 N   0  0  0  0  0  0  0  0  0  0  0  0
  162.1320  211.1610  148.7790 C   0  0  0  0  0  0  0  0  0  0  0  0
  161.2890  201.8860  147.9450 C   0  0  0  0  0  2  0  0  0  0  0  0
  160.8340  201.0560  146.7550 C   0  0  0  0  0  2  0  0  0  0  0  0
  161.5910  199.7850  146.8350 N   0  0  0  0  0  2  0  0  0  0  0  0
  161.2330  198.9470  145.6800 C   0  0  0  0  0  1  0  0  0  0  0  0
  161.7920  206.5120  153.3160 C   0  0  0  0  0  2  0  0  0  0  0  0
  160.5150  206.6690  154.1310 C   0  0  0  0  0  2  0  0  0  0  0  0
  159.9150  207.0510  156.6050 O   0  0  0  0  0  1  0  0  0  0  0  0
  161.0250  208.7440  155.4650 O   0  0  0  0  0  0  0  0  0  0  0  0
  160.5570  207.5540  155.4120 C   0  0  0  0  0  0  0  0  0  0  0  0
  2 22  1  0  0  0  0
  3 14  1  0  0  0  0
  4  2  1  0  0  0  0
  5 11  1  0  0  0  0
  6  4  1  0  0  0  0
  7 18  1  0  0  0  0
  7 10  1  0  0  0  0
  8  7  2  0  0  0  0
  9  8  1  0  0  0  0
  9  3  2  0  0  0  0
 10  6  2  0  0  0  0
 11  1  1  0  0  0  0
 11  2  2  0  0  0  0
 12 15  2  0  0  0  0
 12  5  1  0  0  0  0
 13  1  2  0  0  0  0
 14  5  2  0  0  0  0
 14  6  1  0  0  0  0
 15 13  1  0  0  0  0
 16 17  3  0  0  0  0
 17 15  1  0  0  0  0
 19 20  1  0  0  0  0
 19 18  1  0  0  0  0
 21 20  1  0  0  0  0
 22 23  1  0  0  0  0
 23 26  1  0  0  0  0
 26 25  2  0  0  0  0
 26 24  1  0  0  0  0
M  END
>  <MODEL>
2

>  <REMARK>
 VINA RESULT:      -7.9      3.419      5.484
  Name = 
  7 active torsions:
  status: ('A' for Active; 'I' for Inactive)
    1  A    between atoms: C_1  and  C_11
    2  A    between atoms: C_1  and  C_13
    3  A    between atoms: C_3  and  C_17
    4  A    between atoms: C_3  and  C_24
    5  A    between atoms: C_5  and  C_26
    6  A    between atoms: C_6  and  C_17
    7  A    between atoms: N_9  and  C_11
                            x       y       z     vdW  Elec       q    Type
                         _______ _______ _______ _____ _____    ______ ____

>  <TORSDO>
F 7

$$$$
=
 OpenBabel11052411163D

 26 28  0  0  0  0  0  0  0  0999 V2000
  161.9720  206.9330  146.9570 C   0  0  0  0  0  3  0  0  0  0  0  0
  161.6010  208.2180  149.0160 C   0  0  0  0  0  0  0  0  0  0  0  0
  160.6410  204.3260  150.9460 C   0  0  0  0  0  3  0  0  0  0  0  0
  161.4990  208.2420  150.3640 N   0  0  0  0  0  2  0  0  0  0  0  0
  161.4290  205.7330  148.9310 C   0  0  0  0  0  0  0  0  0  0  0  0
  161.1530  207.0490  151.1200 C   0  0  0  0  0  0  0  0  0  0  0  0
  161.0620  206.0930  153.5440 C   0  0  0  0  0  0  0  0  0  0  0  0
  161.0490  204.7530  153.4190 C   0  0  0  0  0  3  0  0  0  0  0  0
  160.6890  203.9090  152.2240 C   0  0  0  0  0  3  0  0  0  0  0  0
  161.2470  207.1500  152.4560 C   0  0  0  0  0  3  0  0  0  0  0  0
  161.7620  206.9300  148.3450 C   0  0  0  0  0  0  0  0  0  0  0  0
  161.2640  204.6230  148.1750 N   0  0  0  0  0  0  0  0  0  0  0  0
  161.8710  205.7590  146.1690 C   0  0  0  0  0  3  0  0  0  0  0  0
  161.2360  205.6680  150.4410 C   0  0  0  0  0  0  0  0  0  0  0  0
  161.5000  204.5800  146.8310 C   0  0  0  0  0  0  0  0  0  0  0  0
  161.1470  202.2470  145.6590 N   0  0  0  0  0  0  0  0  0  0  0  0
  161.3090  203.3150  146.1900 C   0  0  0  0  0  0  0  0  0  0  0  0
  161.3660  206.8020  154.8660 C   0  0  0  0  0  2  0  0  0  0  0  0
  160.9680  208.2610  155.0230 C   0  0  0  0  0  2  0  0  0  0  0  0
  159.9030  208.2810  156.0520 N   0  0  0  0  0  2  0  0  0  0  0  0
  160.2040  207.2590  157.0670 C   0  0  0  0  0  1  0  0  0  0  0  0
  162.1410  209.4120  148.3020 C   0  0  0  0  0  2  0  0  0  0  0  0
  162.0920  210.6220  149.2260 C   0  0  0  0  0  2  0  0  0  0  0  0
  163.4170  212.4340  147.9670 O   0  0  0  0  0  0  0  0  0  0  0  0
  161.2600  212.9340  148.6720 O   0  0  0  0  0  1  0  0  0  0  0  0
  162.1730  212.0420  148.5920 C   0  0  0  0  0  0  0  0  0  0  0  0
  1 11  1  0  0  0  0
  2  4  1  0  0  0  0
  3  9  2  0  0  0  0
  4  6  1  0  0  0  0
  5 14  2  0  0  0  0
  6 10  2  0  0  0  0
  7 18  1  0  0  0  0
  8  7  2  0  0  0  0
  9  8  1  0  0  0  0
 10  7  1  0  0  0  0
 11  5  1  0  0  0  0
 11  2  2  0  0  0  0
 12  5  1  0  0  0  0
 13 15  1  0  0  0  0
 13  1  2  0  0  0  0
 14  3  1  0  0  0  0
 14  6  1  0  0  0  0
 15 12  2  0  0  0  0
 16 17  3  0  0  0  0
 17 15  1  0  0  0  0
 18 19  1  0  0  0  0
 19 20  1  0  0  0  0
 20 21  1  0  0  0  0
 22  2  1  0  0  0  0
 22 23  1  0  0  0  0
 24 26  2  0  0  0  0
 26 25  1  0  0  0  0
 26 23  1  0  0  0  0
M  END
>  <MODEL>
3

>  <REMARK>
 VINA RESULT:      -7.4      1.408      6.310
  Name = 
  7 active torsions:
  status: ('A' for Active; 'I' for Inactive)
    1  A    between atoms: C_1  and  C_11
    2  A    between atoms: C_1  and  C_13
    3  A    between atoms: C_3  and  C_17
    4  A    between atoms: C_3  and  C_24
    5  A    between atoms: C_5  and  C_26
    6  A    between atoms: C_6  and  C_17
    7  A    between atoms: N_9  and  C_11
                            x       y       z     vdW  Elec       q    Type
                         _______ _______ _______ _____ _____    ______ ____

>  <TORSDO>
F 7

$$$$
=
 OpenBabel11052411163D

 26 28  0  0  1  0  0  0  0  0999 V2000
  160.9910  205.0910  153.5110 C   0  0  0  0  0  3  0  0  0  0  0  0
  160.7850  204.0480  151.2970 C   0  0  0  0  0  0  0  0  0  0  0  0
  161.3760  208.1270  149.6230 C   0  0  0  0  0  3  0  0  0  0  0  0
  160.9990  204.1080  149.9640 N   0  0  0  0  0  0  0  0  0  0  0  0
  161.2650  206.4740  151.6030 C   0  0  0  0  0  0  0  0  0  0  0  0
  161.1710  205.3800  149.2810 C   0  0  0  0  0  0  0  0  0  0  0  0
  161.9080  206.4190  147.0060 C   0  0  0  0  0  0  0  0  0  0  0  0
  162.2240  207.7020  147.2640 C   0  0  0  0  0  3  0  0  0  0  0  0
  161.8320  208.5640  148.4360 C   0  0  0  0  0  3  0  0  0  0  0  0
  161.5450  205.3100  147.9920 C   0  0  0  0  0  3  0  0  0  0  0  0
  161.1210  205.2090  152.1180 C   0  0  0  0  0  0  0  0  0  0  0  0
  161.2290  207.5540  152.4170 N   0  0  0  0  0  0  0  0  0  0  0  0
  161.0240  206.2130  154.3770 C   0  0  0  0  0  3  0  0  0  0  0  0
  161.4570  206.6520  150.1020 C   0  0  1  0  0  3  0  0  0  0  0  0
  161.1460  207.4740  153.7780 C   0  0  0  0  0  0  0  0  0  0  0  0
  161.1660  209.7620  155.0850 N   0  0  0  0  0  0  0  0  0  0  0  0
  161.1540  208.7140  154.4910 C   0  0  0  0  0  0  0  0  0  0  0  0
  162.3140  205.7070  145.7130 C   0  0  0  0  0  2  0  0  0  0  0  0
  162.3120  204.1870  145.6830 C   0  0  0  0  0  2  0  0  0  0  0  0
  161.0430  203.7970  145.0280 N   0  0  0  0  0  2  0  0  0  0  0  0
  160.7060  202.4210  145.4290 C   0  0  0  0  0  1  0  0  0  0  0  0
  160.8050  202.7220  151.9820 C   0  0  0  0  0  2  0  0  0  0  0  0
  161.4890  201.6970  151.0870 C   0  0  0  0  0  2  0  0  0  0  0  0
  161.5010  200.7270  148.7030 O   0  0  0  0  0  0  0  0  0  0  0  0
  159.4530  201.2180  149.6840 O   0  0  0  0  0  1  0  0  0  0  0  0
  160.7220  201.1780  149.8340 C   0  0  0  0  0  0  0  0  0  0  0  0
  1 13  1  0  0  0  0
  2 22  1  0  0  0  0
  2 11  1  0  0  0  0
  4  2  2  0  0  0  0
  5 11  1  0  0  0  0
  5 12  2  0  0  0  0
  6  4  1  0  0  0  0
  6 14  1  0  0  0  0
  7  8  2  0  0  0  0
  7 10  1  0  0  0  0
  8  9  1  0  0  0  0
  9  3  2  0  0  0  0
 10  6  2  0  0  0  0
 11  1  2  0  0  0  0
 12 15  1  0  0  0  0
 14  3  1  6  0  0  0
 14  5  1  0  0  0  0
 15 13  2  0  0  0  0
 15 17  1  0  0  0  0
 17 16  3  0  0  0  0
 18  7  1  0  0  0  0
 19 18  1  0  0  0  0
 20 21  1  0  0  0  0
 20 19  1  0  0  0  0
 23 22  1  0  0  0  0
 24 26  2  0  0  0  0
 25 26  1  0  0  0  0
 26 23  1  0  0  0  0
M  END
>  <MODEL>
4

>  <REMARK>
 VINA RESULT:      -7.0      3.723      5.451
  Name = 
  7 active torsions:
  status: ('A' for Active; 'I' for Inactive)
    1  A    between atoms: C_1  and  C_11
    2  A    between atoms: C_1  and  C_13
    3  A    between atoms: C_3  and  C_17
    4  A    between atoms: C_3  and  C_24
    5  A    between atoms: C_5  and  C_26
    6  A    between atoms: C_6  and  C_17
    7  A    between atoms: N_9  and  C_11
                            x       y       z     vdW  Elec       q    Type
                         _______ _______ _______ _____ _____    ______ ____

>  <TORSDO>
F 7

$$$$
=
 OpenBabel11052411163D

 26 28  0  0  0  0  0  0  0  0999 V2000
  160.8720  204.0460  152.6890 C   0  0  0  0  0  3  0  0  0  0  0  0
  161.6070  206.3650  153.0230 C   0  0  0  0  0  0  0  0  0  0  0  0
  161.9950  206.5910  148.5960 C   0  0  0  0  0  3  0  0  0  0  0  0
  161.8050  207.6030  152.5150 N   0  0  0  0  0  2  0  0  0  0  0  0
  161.3300  205.3530  150.7620 C   0  0  0  0  0  0  0  0  0  0  0  0
  161.9860  207.8160  151.0880 C   0  0  0  0  0  0  0  0  0  0  0  0
  162.0750  209.6870  149.2750 C   0  0  0  0  0  0  0  0  0  0  0  0
  161.8410  209.0800  148.0960 C   0  0  0  0  0  3  0  0  0  0  0  0
  161.9620  207.6230  147.7340 C   0  0  0  0  0  3  0  0  0  0  0  0
  162.0040  209.0960  150.6820 C   0  0  0  0  0  3  0  0  0  0  0  0
  161.1740  205.2960  152.1260 C   0  0  0  0  0  0  0  0  0  0  0  0
  161.2440  204.2290  150.0150 N   0  0  0  0  0  0  0  0  0  0  0  0
  160.7090  202.8770  151.9030 C   0  0  0  0  0  3  0  0  0  0  0  0
  161.6130  206.6960  150.0980 C   0  0  0  0  0  0  0  0  0  0  0  0
  160.9110  203.0060  150.5220 C   0  0  0  0  0  0  0  0  0  0  0  0
  160.7680  201.0240  148.7920 N   0  0  0  0  0  0  0  0  0  0  0  0
  160.8300  201.9280  149.5860 C   0  0  0  0  0  0  0  0  0  0  0  0
  161.9930  211.2050  149.4580 C   0  0  0  0  0  2  0  0  0  0  0  0
  162.2620  212.1020  148.2610 C   0  0  0  0  0  2  0  0  0  0  0  0
  161.0030  212.8450  148.0210 N   0  0  0  0  0  2  0  0  0  0  0  0
  160.3730  212.3280  146.7950 C   0  0  0  0  0  1  0  0  0  0  0  0
  161.2380  206.2150  154.4610 C   0  0  0  0  0  2  0  0  0  0  0  0
  160.5010  207.4640  154.9290 C   0  0  0  0  0  2  0  0  0  0  0  0
  161.1090  209.8730  155.6000 O   0  0  0  0  0  0  0  0  0  0  0  0
  162.0680  208.1210  156.7880 O   0  0  0  0  0  1  0  0  0  0  0  0
  161.2500  208.4590  155.8650 C   0  0  0  0  0  0  0  0  0  0  0  0
  2 22  1  0  0  0  0
  3 14  1  0  0  0  0
  4  2  1  0  0  0  0
  5 11  1  0  0  0  0
  6  4  1  0  0  0  0
  7 18  1  0  0  0  0
  7 10  1  0  0  0  0
  8  7  2  0  0  0  0
  9  8  1  0  0  0  0
  9  3  2  0  0  0  0
 10  6  2  0  0  0  0
 11  1  1  0  0  0  0
 11  2  2  0  0  0  0
 12 15  2  0  0  0  0
 12  5  1  0  0  0  0
 13  1  2  0  0  0  0
 14  5  2  0  0  0  0
 14  6  1  0  0  0  0
 15 13  1  0  0  0  0
 16 17  3  0  0  0  0
 17 15  1  0  0  0  0
 19 18  1  0  0  0  0
 20 19  1  0  0  0  0
 21 20  1  0  0  0  0
 22 23  1  0  0  0  0
 23 26  1  0  0  0  0
 24 26  2  0  0  0  0
 26 25  1  0  0  0  0
M  END
>  <MODEL>
5

>  <REMARK>
 VINA RESULT:      -6.8      3.241      6.239
  Name = 
  7 active torsions:
  status: ('A' for Active; 'I' for Inactive)
    1  A    between atoms: C_1  and  C_11
    2  A    between atoms: C_1  and  C_13
    3  A    between atoms: C_3  and  C_17
    4  A    between atoms: C_3  and  C_24
    5  A    between atoms: C_5  and  C_26
    6  A    between atoms: C_6  and  C_17
    7  A    between atoms: N_9  and  C_11
                            x       y       z     vdW  Elec       q    Type
                         _______ _______ _______ _____ _____    ______ ____

>  <TORSDO>
F 7

$$$$
=
 OpenBabel11052411163D

 26 28  0  0  0  0  0  0  0  0999 V2000
  161.9500  210.2310  151.3130 C   0  0  0  0  0  3  0  0  0  0  0  0
  161.2250  207.9770  151.9650 C   0  0  0  0  0  0  0  0  0  0  0  0
  161.3050  206.9930  147.6270 C   0  0  0  0  0  3  0  0  0  0  0  0
  161.1030  206.6650  151.6600 N   0  0  0  0  0  2  0  0  0  0  0  0
  161.7180  208.6010  149.6030 C   0  0  0  0  0  0  0  0  0  0  0  0
  161.0760  206.2080  150.2800 C   0  0  0  0  0  0  0  0  0  0  0  0
  161.2090  204.0550  148.8160 C   0  0  0  0  0  0  0  0  0  0  0  0
  161.5530  204.4630  147.5790 C   0  0  0  0  0  3  0  0  0  0  0  0
  161.4450  205.8330  146.9620 C   0  0  0  0  0  3  0  0  0  0  0  0
  161.1220  204.8780  150.1000 C   0  0  0  0  0  3  0  0  0  0  0  0
  161.7300  208.8940  150.9460 C   0  0  0  0  0  0  0  0  0  0  0  0
  161.8630  209.5850  148.6870 N   0  0  0  0  0  0  0  0  0  0  0  0
  162.1740  211.2550  150.3590 C   0  0  0  0  0  3  0  0  0  0  0  0
  161.5310  207.1570  149.1550 C   0  0  0  0  0  0  0  0  0  0  0  0
  162.1190  210.8880  149.0070 C   0  0  0  0  0  0  0  0  0  0  0  0
  162.4200  212.5560  146.9900 N   0  0  0  0  0  0  0  0  0  0  0  0
  162.2780  211.7950  147.9130 C   0  0  0  0  0  0  0  0  0  0  0  0
  161.2980  202.5940  149.2640 C   0  0  0  0  0  2  0  0  0  0  0  0
  160.3500  201.5800  148.6450 C   0  0  0  0  0  2  0  0  0  0  0  0
  161.2100  200.5770  147.9760 N   0  0  0  0  0  2  0  0  0  0  0  0
  161.1090  200.7620  146.5190 C   0  0  0  0  0  1  0  0  0  0  0  0
  161.4400  208.3800  153.3860 C   0  0  0  0  0  2  0  0  0  0  0  0
  160.1280  208.8820  153.9760 C   0  0  0  0  0  2  0  0  0  0  0  0
  160.8940  211.2140  154.7480 O   0  0  0  0  0  0  0  0  0  0  0  0
  159.7350  209.8790  156.2550 O   0  0  0  0  0  1  0  0  0  0  0  0
  160.1820  209.9970  155.0630 C   0  0  0  0  0  0  0  0  0  0  0  0
  2 22  1  0  0  0  0
  3 14  1  0  0  0  0
  4  2  1  0  0  0  0
  5 11  1  0  0  0  0
  6  4  1  0  0  0  0
  7 18  1  0  0  0  0
  7 10  1  0  0  0  0
  8  7  2  0  0  0  0
  9  8  1  0  0  0  0
  9  3  2  0  0  0  0
 10  6  2  0  0  0  0
 11  1  1  0  0  0  0
 11  2  2  0  0  0  0
 12 15  2  0  0  0  0
 12  5  1  0  0  0  0
 13  1  2  0  0  0  0
 14  5  2  0  0  0  0
 14  6  1  0  0  0  0
 15 13  1  0  0  0  0
 16 17  3  0  0  0  0
 17 15  1  0  0  0  0
 19 18  1  0  0  0  0
 20 19  1  0  0  0  0
 21 20  1  0  0  0  0
 22 23  1  0  0  0  0
 23 26  1  0  0  0  0
 24 26  2  0  0  0  0
 26 25  1  0  0  0  0
M  END
>  <MODEL>
6

>  <REMARK>
 VINA RESULT:      -6.7      2.954      5.290
  Name = 
  7 active torsions:
  status: ('A' for Active; 'I' for Inactive)
    1  A    between atoms: C_1  and  C_11
    2  A    between atoms: C_1  and  C_13
    3  A    between atoms: C_3  and  C_17
    4  A    between atoms: C_3  and  C_24
    5  A    between atoms: C_5  and  C_26
    6  A    between atoms: C_6  and  C_17
    7  A    between atoms: N_9  and  C_11
                            x       y       z     vdW  Elec       q    Type
                         _______ _______ _______ _____ _____    ______ ____

>  <TORSDO>
F 7

$$$$
=
 OpenBabel11052411163D

 26 28  0  0  0  0  0  0  0  0999 V2000
  161.1690  208.6530  151.1100 C   0  0  0  0  0  3  0  0  0  0  0  0
  161.5430  207.2830  149.1060 C   0  0  0  0  0  0  0  0  0  0  0  0
  161.4500  203.7650  151.8280 C   0  0  0  0  0  3  0  0  0  0  0  0
  161.4850  206.0760  148.5010 N   0  0  0  0  0  0  0  0  0  0  0  0
  161.2150  206.2950  151.3700 C   0  0  0  0  0  0  0  0  0  0  0  0
  161.4870  204.8420  149.2690 C   0  0  0  0  0  0  0  0  0  0  0  0
  161.0880  202.2740  149.0530 C   0  0  0  0  0  0  0  0  0  0  0  0
  160.8430  201.8260  150.2990 C   0  0  0  0  0  3  0  0  0  0  0  0
  161.1640  202.4670  151.6240 C   0  0  0  0  0  2  0  0  0  0  0  0
  161.2550  203.7150  148.5750 C   0  0  0  0  0  3  0  0  0  0  0  0
  161.2050  207.3770  150.5240 C   0  0  0  0  0  0  0  0  0  0  0  0
  161.2400  206.4730  152.7100 N   0  0  0  0  0  0  0  0  0  0  0  0
  161.1230  208.8450  152.5140 C   0  0  0  0  0  3  0  0  0  0  0  0
  161.2060  204.8880  150.7840 C   0  0  0  0  0  0  0  0  0  0  0  0
  161.1630  207.6950  153.3140 C   0  0  0  0  0  0  0  0  0  0  0  0
  161.1650  207.7130  155.9490 N   0  0  0  0  0  0  0  0  0  0  0  0
  161.1690  207.7020  154.7440 C   0  0  0  0  0  0  0  0  0  0  0  0
  160.7780  201.4540  147.7980 C   0  0  0  0  0  2  0  0  0  0  0  0
  159.9700  202.0990  146.6840 C   0  0  0  0  0  2  0  0  0  0  0  0
  160.8760  202.1670  145.5150 N   0  0  0  0  0  2  0  0  0  0  0  0
  161.0440  203.5760  145.1250 C   0  0  0  0  0  1  0  0  0  0  0  0
  161.3480  208.5200  148.2930 C   0  0  0  0  0  2  0  0  0  0  0  0
  162.3200  209.5950  148.7610 C   0  0  0  0  0  2  0  0  0  0  0  0
  163.0750  212.0530  148.6450 O   0  0  0  0  0  1  0  0  0  0  0  0
  161.0130  211.4870  147.7340 O   0  0  0  0  0  0  0  0  0  0  0  0
  162.0780  211.0630  148.3010 C   0  0  0  0  0  0  0  0  0  0  0  0
  1 13  1  0  0  0  0
  2 11  1  0  0  0  0
  4  2  2  0  0  0  0
  4  6  1  0  0  0  0
  5 12  2  0  0  0  0
  6 14  1  0  0  0  0
  7  8  2  0  0  0  0
  8  9  1  0  0  0  0
  9  3  1  0  0  0  0
 10  7  1  0  0  0  0
 10  6  2  0  0  0  0
 11  1  2  0  0  0  0
 11  5  1  0  0  0  0
 12 15  1  0  0  0  0
 13 15  2  0  0  0  0
 14  5  1  0  0  0  0
 14  3  2  0  0  0  0
 15 17  1  0  0  0  0
 17 16  3  0  0  0  0
 18  7  1  0  0  0  0
 19 18  1  0  0  0  0
 20 19  1  0  0  0  0
 21 20  1  0  0  0  0
 22 23  1  0  0  0  0
 22  2  1  0  0  0  0
 25 26  2  0  0  0  0
 26 24  1  0  0  0  0
 26 23  1  0  0  0  0
M  END
>  <MODEL>
7

>  <REMARK>
 VINA RESULT:      -6.7      1.523      2.049
  Name = 
  7 active torsions:
  status: ('A' for Active; 'I' for Inactive)
    1  A    between atoms: C_1  and  C_11
    2  A    between atoms: C_1  and  C_13
    3  A    between atoms: C_3  and  C_17
    4  A    between atoms: C_3  and  C_24
    5  A    between atoms: C_5  and  C_26
    6  A    between atoms: C_6  and  C_17
    7  A    between atoms: N_9  and  C_11
                            x       y       z     vdW  Elec       q    Type
                         _______ _______ _______ _____ _____    ______ ____

>  <TORSDO>
F 7

$$$$
=
 OpenBabel11052411163D

 26 28  0  0  0  0  0  0  0  0999 V2000
  161.9360  206.7730  147.7990 C   0  0  0  0  0  3  0  0  0  0  0  0
  161.5990  208.5950  149.4100 C   0  0  0  0  0  0  0  0  0  0  0  0
  160.7140  205.4210  152.3990 C   0  0  0  0  0  3  0  0  0  0  0  0
  161.5260  209.0060  150.6960 N   0  0  0  0  0  2  0  0  0  0  0  0
  161.4460  206.1910  150.0460 C   0  0  0  0  0  0  0  0  0  0  0  0
  161.2070  208.0800  151.7700 C   0  0  0  0  0  0  0  0  0  0  0  0
  161.1770  207.8630  154.3680 C   0  0  0  0  0  0  0  0  0  0  0  0
  161.1720  206.5430  154.6350 C   0  0  0  0  0  3  0  0  0  0  0  0
  160.7940  205.3910  153.7410 C   0  0  0  0  0  3  0  0  0  0  0  0
  161.3290  208.5620  153.0180 C   0  0  0  0  0  3  0  0  0  0  0  0
  161.7560  207.1690  149.1330 C   0  0  0  0  0  0  0  0  0  0  0  0
  161.2740  204.9100  149.6460 N   0  0  0  0  0  0  0  0  0  0  0  0
  161.8270  205.4210  147.3850 C   0  0  0  0  0  3  0  0  0  0  0  0
  161.2870  206.5620  151.5150 C   0  0  0  0  0  0  0  0  0  0  0  0
  161.4810  204.4820  148.3660 C   0  0  0  0  0  0  0  0  0  0  0  0
  161.1170  201.9110  147.9200 N   0  0  0  0  0  0  0  0  0  0  0  0
  161.2870  203.0870  148.1210 C   0  0  0  0  0  0  0  0  0  0  0  0
  161.5040  208.9230  155.4230 C   0  0  0  0  0  2  0  0  0  0  0  0
  160.4180  209.9030  155.8370 C   0  0  0  0  0  2  0  0  0  0  0  0
  160.9580  211.2510  155.5480 N   0  0  0  0  0  2  0  0  0  0  0  0
  160.1960  211.8390  154.4350 C   0  0  0  0  0  1  0  0  0  0  0  0
  162.1130  209.5340  148.3700 C   0  0  0  0  0  2  0  0  0  0  0  0
  162.1850  210.9420  148.9470 C   0  0  0  0  0  2  0  0  0  0  0  0
  160.8540  212.1390  147.0970 O   0  0  0  0  0  0  0  0  0  0  0  0
  162.8370  213.1030  147.8290 O   0  0  0  0  0  1  0  0  0  0  0  0
  161.9980  212.1500  147.9800 C   0  0  0  0  0  0  0  0  0  0  0  0
  1 11  1  0  0  0  0
  2  4  1  0  0  0  0
  3  9  2  0  0  0  0
  4  6  1  0  0  0  0
  5 14  2  0  0  0  0
  6 10  2  0  0  0  0
  7  8  2  0  0  0  0
  7 18  1  0  0  0  0
  9  8  1  0  0  0  0
 10  7  1  0  0  0  0
 11  2  2  0  0  0  0
 11  5  1  0  0  0  0
 12  5  1  0  0  0  0
 13  1  2  0  0  0  0
 13 15  1  0  0  0  0
 14  6  1  0  0  0  0
 14  3  1  0  0  0  0
 15 12  2  0  0  0  0
 16 17  3  0  0  0  0
 17 15  1  0  0  0  0
 18 19  1  0  0  0  0
 20 19  1  0  0  0  0
 21 20  1  0  0  0  0
 22 23  1  0  0  0  0
 22  2  1  0  0  0  0
 24 26  2  0  0  0  0
 25 26  1  0  0  0  0
 26 23  1  0  0  0  0
M  END
>  <MODEL>
8

>  <REMARK>
 VINA RESULT:      -6.7      1.877      6.153
  Name = 
  7 active torsions:
  status: ('A' for Active; 'I' for Inactive)
    1  A    between atoms: C_1  and  C_11
    2  A    between atoms: C_1  and  C_13
    3  A    between atoms: C_3  and  C_17
    4  A    between atoms: C_3  and  C_24
    5  A    between atoms: C_5  and  C_26
    6  A    between atoms: C_6  and  C_17
    7  A    between atoms: N_9  and  C_11
                            x       y       z     vdW  Elec       q    Type
                         _______ _______ _______ _____ _____    ______ ____

>  <TORSDO>
F 7

$$$$
=
 OpenBabel11052411163D

 26 28  0  0  0  0  0  0  0  0999 V2000
  160.8300  203.8960  148.3450 C   0  0  0  0  0  3  0  0  0  0  0  0
  161.2150  204.7500  150.6150 C   0  0  0  0  0  0  0  0  0  0  0  0
  162.3200  208.6020  148.6840 C   0  0  0  0  0  3  0  0  0  0  0  0
  161.3470  205.8060  151.4490 N   0  0  0  0  0  2  0  0  0  0  0  0
  161.4500  206.1740  148.5830 C   0  0  0  0  0  0  0  0  0  0  0  0
  161.7410  207.1160  150.9560 C   0  0  0  0  0  0  0  0  0  0  0  0
  161.9130  209.6210  151.6580 C   0  0  0  0  0  0  0  0  0  0  0  0
  161.9580  210.3300  150.5150 C   0  0  0  0  0  3  0  0  0  0  0  0
  162.3120  209.8730  149.1230 C   0  0  0  0  0  3  0  0  0  0  0  0
  161.6750  208.1230  151.8420 C   0  0  0  0  0  3  0  0  0  0  0  0
  161.0720  204.9970  149.1820 C   0  0  0  0  0  0  0  0  0  0  0  0
  161.6260  206.2350  147.2440 N   0  0  0  0  0  0  0  0  0  0  0  0
  160.9440  203.9730  146.9340 C   0  0  0  0  0  3  0  0  0  0  0  0
  161.6790  207.4100  149.4440 C   0  0  0  0  0  0  0  0  0  0  0  0
  161.3610  205.1990  146.3960 C   0  0  0  0  0  0  0  0  0  0  0  0
  161.7500  205.6430  143.8290 N   0  0  0  0  0  0  0  0  0  0  0  0
  161.5700  205.4440  145.0030 C   0  0  0  0  0  0  0  0  0  0  0  0
  161.6200  210.2580  153.0200 C   0  0  0  0  0  2  0  0  0  0  0  0
  160.6470  209.5630  153.9580 C   0  0  0  0  0  2  0  0  0  0  0  0
  161.1180  209.8690  155.3290 N   0  0  0  0  0  2  0  0  0  0  0  0
  162.3260  210.7050  155.2390 C   0  0  0  0  0  1  0  0  0  0  0  0
  160.6270  203.4790  151.1320 C   0  0  0  0  0  2  0  0  0  0  0  0
  161.4640  202.3000  150.6530 C   0  0  0  0  0  2  0  0  0  0  0  0
  161.5920  200.5760  148.7460 O   0  0  0  0  0  0  0  0  0  0  0  0
  159.5360  200.9440  149.7650 O   0  0  0  0  0  1  0  0  0  0  0  0
  160.7840  201.2250  149.7540 C   0  0  0  0  0  0  0  0  0  0  0  0
  1 11  1  0  0  0  0
  2 22  1  0  0  0  0
  2  4  1  0  0  0  0
  3  9  2  0  0  0  0
  3 14  1  0  0  0  0
  5 11  1  0  0  0  0
  5 14  2  0  0  0  0
  6  4  1  0  0  0  0
  6 10  2  0  0  0  0
  7 10  1  0  0  0  0
  7 18  1  0  0  0  0
  8  7  2  0  0  0  0
  9  8  1  0  0  0  0
 11  2  2  0  0  0  0
 12  5  1  0  0  0  0
 13  1  2  0  0  0  0
 14  6  1  0  0  0  0
 15 13  1  0  0  0  0
 15 12  2  0  0  0  0
 16 17  3  0  0  0  0
 17 15  1  0  0  0  0
 18 19  1  0  0  0  0
 19 20  1  0  0  0  0
 21 20  1  0  0  0  0
 23 22  1  0  0  0  0
 24 26  2  0  0  0  0
 26 25  1  0  0  0  0
 26 23  1  0  0  0  0
M  END
>  <MODEL>
9

>  <REMARK>
 VINA RESULT:      -6.4      3.684      8.193
  Name = 
  7 active torsions:
  status: ('A' for Active; 'I' for Inactive)
    1  A    between atoms: C_1  and  C_11
    2  A    between atoms: C_1  and  C_13
    3  A    between atoms: C_3  and  C_17
    4  A    between atoms: C_3  and  C_24
    5  A    between atoms: C_5  and  C_26
    6  A    between atoms: C_6  and  C_17
    7  A    between atoms: N_9  and  C_11
                            x       y       z     vdW  Elec       q    Type
                         _______ _______ _______ _____ _____    ______ ____

>  <TORSDO>
F 7

$$$$
