=
 OpenBabel11042423113D

 29 33  0  0  1  0  0  0  0  0999 V2000
  161.7140  210.2380  152.2260 C   0  0  0  0  0  3  0  0  0  0  0  0
  161.2230  209.7950  154.5220 N   0  0  0  0  0  0  0  0  0  0  0  0
  161.1960  207.9280  152.9340 C   0  0  0  0  0  0  0  0  0  0  0  0
  162.2200  210.4800  149.6940 C   0  0  0  0  0  3  0  0  0  0  0  0
  161.3570  207.4740  151.5960 C   0  0  0  0  0  0  0  0  0  0  0  0
  161.6800  208.4420  150.6310 C   0  0  0  0  0  0  0  0  0  0  0  0
  161.8520  209.7510  150.9320 C   0  0  0  0  0  0  0  0  0  0  0  0
  162.2550  209.4580  148.6260 N   0  0  0  0  0  0  0  0  0  0  0  0
  160.3630  207.8660  157.2400 C   0  0  0  0  0  3  0  0  0  0  0  0
  160.3660  206.8800  156.2930 N   0  0  0  0  0  0  0  0  0  0  0  0
  160.8910  208.8970  155.4740 C   0  0  0  0  0  0  0  0  0  0  0  0
  161.3800  209.3350  153.2430 C   0  0  1  0  0  3  0  0  0  0  0  0
  160.8460  207.0530  153.9310 N   0  0  0  0  0  2  0  0  0  0  0  0
  161.9240  208.2410  149.2580 N   0  0  0  0  0  0  0  0  0  0  0  0
  160.7010  207.5410  155.1810 C   0  0  0  0  0  0  0  0  0  0  0  0
  160.6780  209.1130  156.7760 N   0  0  0  0  0  0  0  0  0  0  0  0
  161.1980  206.0470  151.2180 C   0  0  0  0  0  0  0  0  0  0  0  0
  160.8900  203.3410  150.5170 C   0  0  0  0  0  0  0  0  0  0  0  0
  161.7750  205.0360  152.0030 C   0  0  0  0  0  3  0  0  0  0  0  0
  161.6210  203.6910  151.6560 C   0  0  0  0  0  3  0  0  0  0  0  0
  160.3040  204.3390  149.7330 C   0  0  0  0  0  3  0  0  0  0  0  0
  160.4580  205.6840  150.0830 C   0  0  0  0  0  3  0  0  0  0  0  0
  160.7100  201.9080  150.1570 C   0  0  0  0  0  2  0  0  0  0  0  0
  159.9010  201.7890  148.8790 C   0  0  0  0  0  2  0  0  0  0  0  0
  161.8130  200.2610  147.6750 O   0  0  0  0  0  1  0  0  0  0  0  0
  162.0730  202.8420  147.3370 O   0  0  0  0  0  0  0  0  0  0  0  0
  161.0150  201.5300  147.4680 P   0  0  2  0  0  0  0  0  0  0  0  0
  160.5690  202.3090  145.1260 O   0  0  0  0  0  1  0  0  0  0  0  0
  160.0760  201.3960  145.9960 N   0  0  0  0  0  2  0  0  0  0  0  0
  2 11  2  0  0  0  0
  3 12  1  0  0  0  0
  3 13  1  0  0  0  0
  4  7  1  0  0  0  0
  5  3  2  0  0  0  0
  6  7  1  0  0  0  0
  6  5  1  0  0  0  0
  7  1  2  0  0  0  0
  8 14  1  0  0  0  0
  8  4  2  0  0  0  0
 10  9  1  0  0  0  0
 11 16  1  0  0  0  0
 12  1  1  6  0  0  0
 12  2  1  0  0  0  0
 13 15  1  0  0  0  0
 14  6  2  0  0  0  0
 15 11  1  0  0  0  0
 15 10  2  0  0  0  0
 16  9  2  0  0  0  0
 17  5  1  0  0  0  0
 17 19  1  0  0  0  0
 18 20  1  0  0  0  0
 20 19  2  0  0  0  0
 21 22  1  0  0  0  0
 21 18  2  0  0  0  0
 22 17  2  0  0  0  0
 23 18  1  0  0  0  0
 24 23  1  0  0  0  0
 27 26  2  6  0  0  0
 27 25  1  0  0  0  0
 27 24  1  0  0  0  0
 28 29  1  0  0  0  0
 29 27  1  0  0  0  0
M  END
>  <MODEL>
1

>  <REMARK>
 VINA RESULT:      -8.8      0.000      0.000
  Name = 
  5 active torsions:
  status: ('A' for Active; 'I' for Inactive)
    1  A    between atoms: C_2  and  C_6
    2  A    between atoms: C_7  and  C_28
    3  A    between atoms: C_13  and  P_17
    4  A    between atoms: C_13  and  C_28
    5  A    between atoms: P_17  and  N_26
                            x       y       z     vdW  Elec       q    Type
                         _______ _______ _______ _____ _____    ______ ____

>  <TORSDO>
F 5

$$$$
=
 OpenBabel11042423113D

 29 33  0  0  1  0  0  0  0  0999 V2000
  161.6430  210.3080  152.2630 C   0  0  0  0  0  3  0  0  0  0  0  0
  161.1480  209.8490  154.5550 N   0  0  0  0  0  0  0  0  0  0  0  0
  161.1520  207.9880  152.9580 C   0  0  0  0  0  0  0  0  0  0  0  0
  162.1580  210.5660  149.7340 C   0  0  0  0  0  3  0  0  0  0  0  0
  161.3250  207.5420  151.6200 C   0  0  0  0  0  0  0  0  0  0  0  0
  161.6400  208.5180  150.6600 C   0  0  0  0  0  0  0  0  0  0  0  0
  161.7930  209.8270  150.9670 C   0  0  0  0  0  0  0  0  0  0  0  0
  162.2100  209.5490  148.6620 N   0  0  0  0  0  0  0  0  0  0  0  0
  160.2990  207.8990  157.2610 C   0  0  0  0  0  3  0  0  0  0  0  0
  160.3200  206.9160  156.3090 N   0  0  0  0  0  0  0  0  0  0  0  0
  160.8220  208.9430  155.5020 C   0  0  0  0  0  0  0  0  0  0  0  0
  161.3160  209.3960  153.2740 C   0  0  1  0  0  3  0  0  0  0  0  0
  160.8080  207.1050  153.9500 N   0  0  0  0  0  2  0  0  0  0  0  0
  161.8930  208.3260  149.2880 N   0  0  0  0  0  0  0  0  0  0  0  0
  160.6510  207.5850  155.2020 C   0  0  0  0  0  0  0  0  0  0  0  0
  160.6010  209.1510  156.8030 N   0  0  0  0  0  0  0  0  0  0  0  0
  161.1860  206.1140  151.2360 C   0  0  0  0  0  0  0  0  0  0  0  0
  160.9310  203.4140  150.4940 C   0  0  0  0  0  0  0  0  0  0  0  0
  160.5290  205.7600  150.0460 C   0  0  0  0  0  3  0  0  0  0  0  0
  160.4040  204.4180  149.6760 C   0  0  0  0  0  3  0  0  0  0  0  0
  161.5940  203.7560  151.6760 C   0  0  0  0  0  3  0  0  0  0  0  0
  161.7200  205.0990  152.0440 C   0  0  0  0  0  3  0  0  0  0  0  0
  160.8130  201.9860  150.0910 C   0  0  0  0  0  2  0  0  0  0  0  0
  159.8910  201.8570  148.8930 C   0  0  0  0  0  2  0  0  0  0  0  0
  159.9450  201.3250  146.2190 O   0  0  0  0  0  0  0  0  0  0  0  0
  161.8450  200.1960  147.6180 O   0  0  0  0  0  1  0  0  0  0  0  0
  160.8700  201.5590  147.3920 P   0  0  2  0  0  0  0  0  0  0  0  0
  161.6190  203.3490  145.8030 O   0  0  0  0  0  1  0  0  0  0  0  0
  161.8860  202.9490  147.0690 N   0  0  0  0  0  2  0  0  0  0  0  0
  2 11  2  0  0  0  0
  3 12  1  0  0  0  0
  3 13  1  0  0  0  0
  4  7  1  0  0  0  0
  5  3  2  0  0  0  0
  6  7  1  0  0  0  0
  6  5  1  0  0  0  0
  7  1  2  0  0  0  0
  8 14  1  0  0  0  0
  8  4  2  0  0  0  0
 10  9  1  0  0  0  0
 11 16  1  0  0  0  0
 12  1  1  6  0  0  0
 12  2  1  0  0  0  0
 13 15  1  0  0  0  0
 14  6  2  0  0  0  0
 15 11  1  0  0  0  0
 15 10  2  0  0  0  0
 16  9  2  0  0  0  0
 17  5  1  0  0  0  0
 17 22  1  0  0  0  0
 18 21  1  0  0  0  0
 19 17  2  0  0  0  0
 20 19  1  0  0  0  0
 20 18  2  0  0  0  0
 21 22  2  0  0  0  0
 23 18  1  0  0  0  0
 24 23  1  0  0  0  0
 27 25  2  6  0  0  0
 27 26  1  0  0  0  0
 27 24  1  0  0  0  0
 28 29  1  0  0  0  0
 29 27  1  0  0  0  0
M  END
>  <MODEL>
2

>  <REMARK>
 VINA RESULT:      -8.7      0.655      1.272
  Name = 
  5 active torsions:
  status: ('A' for Active; 'I' for Inactive)
    1  A    between atoms: C_2  and  C_6
    2  A    between atoms: C_7  and  C_28
    3  A    between atoms: C_13  and  P_17
    4  A    between atoms: C_13  and  C_28
    5  A    between atoms: P_17  and  N_26
                            x       y       z     vdW  Elec       q    Type
                         _______ _______ _______ _____ _____    ______ ____

>  <TORSDO>
F 5

$$$$
=
 OpenBabel11042423113D

 29 33  0  0  0  0  0  0  0  0999 V2000
  161.0510  209.7600  153.7530 C   0  0  0  0  0  3  0  0  0  0  0  0
  161.5750  210.7870  151.6610 N   0  0  0  0  0  0  0  0  0  0  0  0
  161.3040  208.3520  151.7390 C   0  0  0  0  0  0  0  0  0  0  0  0
  160.4770  208.4330  155.9060 C   0  0  0  0  0  3  0  0  0  0  0  0
  161.0330  207.1880  152.5090 C   0  0  0  0  0  0  0  0  0  0  0  0
  160.7950  207.3750  153.8810 C   0  0  0  0  0  0  0  0  0  0  0  0
  160.8010  208.5950  154.4680 C   0  0  0  0  0  0  0  0  0  0  0  0
  160.2710  206.9820  156.1070 N   0  0  0  0  0  2  0  0  0  0  0  0
  162.2970  210.8830  148.2970 C   0  0  0  0  0  3  0  0  0  0  0  0
  162.1320  209.5310  148.4230 N   0  0  0  0  0  0  0  0  0  0  0  0
  161.8310  210.6450  150.3420 C   0  0  0  0  0  0  0  0  0  0  0  0
  161.3100  209.6540  152.3810 C   0  0  0  0  0  0  0  0  0  0  0  0
  161.5810  208.2530  150.3990 N   0  0  0  0  0  2  0  0  0  0  0  0
  160.4710  206.3950  154.8400 N   0  0  0  0  0  0  0  0  0  0  0  0
  161.8370  209.3900  149.7190 C   0  0  0  0  0  0  0  0  0  0  0  0
  162.1220  211.5960  149.4500 N   0  0  0  0  0  0  0  0  0  0  0  0
  160.9960  205.8300  151.9090 C   0  0  0  0  0  0  0  0  0  0  0  0
  160.9150  203.2550  150.7830 C   0  0  0  0  0  0  0  0  0  0  0  0
  161.2180  204.6950  152.7060 C   0  0  0  0  0  3  0  0  0  0  0  0
  161.1760  203.4150  152.1470 C   0  0  0  0  0  3  0  0  0  0  0  0
  160.6840  204.3770  149.9820 C   0  0  0  0  0  3  0  0  0  0  0  0
  160.7250  205.6570  150.5430 C   0  0  0  0  0  3  0  0  0  0  0  0
  160.8530  201.8900  150.1910 C   0  0  0  0  0  2  0  0  0  0  0  0
  159.9280  201.8860  148.9880 C   0  0  0  0  0  2  0  0  0  0  0  0
  159.9530  201.4430  146.2980 O   0  0  0  0  0  0  0  0  0  0  0  0
  161.8080  200.1900  147.6500 O   0  0  0  0  0  1  0  0  0  0  0  0
  160.8900  201.5990  147.4740 P   0  0  2  0  0  0  0  0  0  0  0  0
  161.6010  203.5080  146.0110 O   0  0  0  0  0  1  0  0  0  0  0  0
  161.9620  202.9550  147.1940 N   0  0  0  0  0  2  0  0  0  0  0  0
  1  7  1  0  0  0  0
  2 12  1  0  0  0  0
  3 12  1  0  0  0  0
  3  5  2  0  0  0  0
  4  8  1  0  0  0  0
  5  6  1  0  0  0  0
  6  7  1  0  0  0  0
  6 14  2  0  0  0  0
  7  4  2  0  0  0  0
  9 10  1  0  0  0  0
  9 16  2  0  0  0  0
 10 15  2  0  0  0  0
 11  2  2  0  0  0  0
 12  1  2  0  0  0  0
 13  3  1  0  0  0  0
 14  8  1  0  0  0  0
 15 11  1  0  0  0  0
 15 13  1  0  0  0  0
 16 11  1  0  0  0  0
 17  5  1  0  0  0  0
 17 19  1  0  0  0  0
 18 20  1  0  0  0  0
 20 19  2  0  0  0  0
 21 22  1  0  0  0  0
 21 18  2  0  0  0  0
 22 17  2  0  0  0  0
 23 18  1  0  0  0  0
 24 23  1  0  0  0  0
 27 25  2  6  0  0  0
 27 26  1  0  0  0  0
 27 24  1  0  0  0  0
 28 29  1  0  0  0  0
 29 27  1  0  0  0  0
M  END
>  <MODEL>
3

>  <REMARK>
 VINA RESULT:      -7.9      1.207      4.255
  Name = 
  5 active torsions:
  status: ('A' for Active; 'I' for Inactive)
    1  A    between atoms: C_2  and  C_6
    2  A    between atoms: C_7  and  C_28
    3  A    between atoms: C_13  and  P_17
    4  A    between atoms: C_13  and  C_28
    5  A    between atoms: P_17  and  N_26
                            x       y       z     vdW  Elec       q    Type
                         _______ _______ _______ _____ _____    ______ ____

>  <TORSDO>
F 5

$$$$
=
 OpenBabel11042423113D

 29 33  0  0  0  0  0  0  0  0999 V2000
  161.1000  203.5450  150.4020 C   0  0  0  0  0  3  0  0  0  0  0  0
  161.1490  203.1350  148.0490 N   0  0  0  0  0  0  0  0  0  0  0  0
  161.3780  205.4430  148.8440 C   0  0  0  0  0  0  0  0  0  0  0  0
  161.0820  204.2260  152.9050 C   0  0  0  0  0  3  0  0  0  0  0  0
  161.4320  206.3450  149.9410 C   0  0  0  0  0  0  0  0  0  0  0  0
  161.3020  205.7930  151.2250 C   0  0  0  0  0  0  0  0  0  0  0  0
  161.1480  204.4660  151.4420 C   0  0  0  0  0  0  0  0  0  0  0  0
  161.2210  205.5590  153.5320 N   0  0  0  0  0  2  0  0  0  0  0  0
  161.3370  203.9640  144.7140 C   0  0  0  0  0  3  0  0  0  0  0  0
  161.4560  205.2230  145.2360 N   0  0  0  0  0  0  0  0  0  0  0  0
  161.2480  203.6310  146.7970 C   0  0  0  0  0  0  0  0  0  0  0  0
  161.2100  204.0220  149.0900 C   0  0  0  0  0  0  0  0  0  0  0  0
  161.4620  205.9040  147.5550 N   0  0  0  0  0  2  0  0  0  0  0  0
  161.3570  206.4670  152.4620 N   0  0  0  0  0  0  0  0  0  0  0  0
  161.3990  205.0020  146.5530 C   0  0  0  0  0  0  0  0  0  0  0  0
  161.2060  202.9660  145.6390 N   0  0  0  0  0  0  0  0  0  0  0  0
  161.6180  207.8070  149.7560 C   0  0  0  0  0  0  0  0  0  0  0  0
  161.9850  210.5740  149.4160 C   0  0  0  0  0  0  0  0  0  0  0  0
  161.7530  208.6520  150.8700 C   0  0  0  0  0  3  0  0  0  0  0  0
  161.9370  210.0270  150.7010 C   0  0  0  0  0  3  0  0  0  0  0  0
  161.8600  209.7420  148.3000 C   0  0  0  0  0  3  0  0  0  0  0  0
  161.6780  208.3660  148.4700 C   0  0  0  0  0  3  0  0  0  0  0  0
  162.1980  212.0360  149.2350 C   0  0  0  0  0  2  0  0  0  0  0  0
  162.8450  212.3060  147.8890 C   0  0  0  0  0  2  0  0  0  0  0  0
  162.7070  214.3250  146.0620 O   0  0  0  0  0  0  0  0  0  0  0  0
  160.9530  214.4530  147.9980 O   0  0  0  0  0  1  0  0  0  0  0  0
  161.8220  213.4650  146.9360 P   0  0  2  0  0  0  0  0  0  0  0  0
  159.6680  212.1960  146.7260 O   0  0  0  0  0  1  0  0  0  0  0  0
  160.7000  212.5700  145.9330 N   0  0  0  0  0  2  0  0  0  0  0  0
  1  7  1  0  0  0  0
  2 12  1  0  0  0  0
  3 12  1  0  0  0  0
  3  5  2  0  0  0  0
  4  8  1  0  0  0  0
  5  6  1  0  0  0  0
  6  7  1  0  0  0  0
  6 14  2  0  0  0  0
  7  4  2  0  0  0  0
  9 10  1  0  0  0  0
  9 16  2  0  0  0  0
 10 15  2  0  0  0  0
 11  2  2  0  0  0  0
 12  1  2  0  0  0  0
 13  3  1  0  0  0  0
 14  8  1  0  0  0  0
 15 11  1  0  0  0  0
 15 13  1  0  0  0  0
 16 11  1  0  0  0  0
 17  5  1  0  0  0  0
 17 19  1  0  0  0  0
 18 20  1  0  0  0  0
 20 19  2  0  0  0  0
 21 22  1  0  0  0  0
 21 18  2  0  0  0  0
 22 17  2  0  0  0  0
 23 18  1  0  0  0  0
 24 23  1  0  0  0  0
 27 25  2  6  0  0  0
 27 24  1  0  0  0  0
 27 26  1  0  0  0  0
 29 28  1  0  0  0  0
 29 27  1  0  0  0  0
M  END
>  <MODEL>
4

>  <REMARK>
 VINA RESULT:      -7.8      4.792      8.571
  Name = 
  5 active torsions:
  status: ('A' for Active; 'I' for Inactive)
    1  A    between atoms: C_2  and  C_6
    2  A    between atoms: C_7  and  C_28
    3  A    between atoms: C_13  and  P_17
    4  A    between atoms: C_13  and  C_28
    5  A    between atoms: P_17  and  N_26
                            x       y       z     vdW  Elec       q    Type
                         _______ _______ _______ _____ _____    ______ ____

>  <TORSDO>
F 5

$$$$
=
 OpenBabel11042423113D

 29 33  0  0  0  0  0  0  0  0999 V2000
  161.1580  202.3550  148.6630 C   0  0  0  0  0  3  0  0  0  0  0  0
  161.1730  203.2120  146.4330 N   0  0  0  0  0  0  0  0  0  0  0  0
  161.2440  204.7980  148.3010 C   0  0  0  0  0  0  0  0  0  0  0  0
  161.1570  201.6560  151.1600 C   0  0  0  0  0  3  0  0  0  0  0  0
  161.2580  205.0130  149.7060 C   0  0  0  0  0  0  0  0  0  0  0  0
  161.2070  203.8730  150.5240 C   0  0  0  0  0  0  0  0  0  0  0  0
  161.1630  202.6140  150.0280 C   0  0  0  0  0  0  0  0  0  0  0  0
  161.2090  202.4860  152.3840 N   0  0  0  0  0  2  0  0  0  0  0  0
  161.2020  205.6440  143.9970 C   0  0  0  0  0  3  0  0  0  0  0  0
  161.2380  206.4630  145.0910 N   0  0  0  0  0  0  0  0  0  0  0  0
  161.1970  204.2850  145.6130 C   0  0  0  0  0  0  0  0  0  0  0  0
  161.1930  203.4430  147.7820 C   0  0  0  0  0  0  0  0  0  0  0  0
  161.2550  205.8590  147.4310 N   0  0  0  0  0  2  0  0  0  0  0  0
  161.2440  203.8210  151.9320 N   0  0  0  0  0  0  0  0  0  0  0  0
  161.2350  205.5960  146.1080 C   0  0  0  0  0  0  0  0  0  0  0  0
  161.1750  204.3060  144.2770 N   0  0  0  0  0  0  0  0  0  0  0  0
  161.3240  206.3730  150.2990 C   0  0  0  0  0  0  0  0  0  0  0  0
  161.4590  208.9420  151.4350 C   0  0  0  0  0  0  0  0  0  0  0  0
  160.8320  206.6080  151.5930 C   0  0  0  0  0  3  0  0  0  0  0  0
  160.9000  207.8840  152.1590 C   0  0  0  0  0  3  0  0  0  0  0  0
  161.9600  208.7170  150.1500 C   0  0  0  0  0  3  0  0  0  0  0  0
  161.8920  207.4400  149.5860 C   0  0  0  0  0  3  0  0  0  0  0  0
  161.5490  210.2970  152.0440 C   0  0  0  0  0  2  0  0  0  0  0  0
  160.2560  210.6300  152.7660 C   0  0  0  0  0  2  0  0  0  0  0  0
  160.1300  212.2520  154.9550 O   0  0  0  0  0  1  0  0  0  0  0  0
  162.2430  210.7150  154.8270 O   0  0  0  0  0  0  0  0  0  0  0  0
  160.5840  210.8710  154.5360 P   0  0  2  0  0  0  0  0  0  0  0  0
  160.5250  208.5800  155.5550 O   0  0  0  0  0  1  0  0  0  0  0  0
  159.7190  209.6640  155.4640 N   0  0  0  0  0  2  0  0  0  0  0  0
  1  7  1  0  0  0  0
  2 12  1  0  0  0  0
  3  5  2  0  0  0  0
  4  8  1  0  0  0  0
  5 17  1  0  0  0  0
  5  6  1  0  0  0  0
  6 14  2  0  0  0  0
  7  6  1  0  0  0  0
  7  4  2  0  0  0  0
  9 16  2  0  0  0  0
  9 10  1  0  0  0  0
 10 15  2  0  0  0  0
 11 15  1  0  0  0  0
 11  2  2  0  0  0  0
 12  3  1  0  0  0  0
 12  1  2  0  0  0  0
 13  3  1  0  0  0  0
 14  8  1  0  0  0  0
 15 13  1  0  0  0  0
 16 11  1  0  0  0  0
 17 19  1  0  0  0  0
 18 23  1  0  0  0  0
 18 20  1  0  0  0  0
 19 20  2  0  0  0  0
 21 18  2  0  0  0  0
 22 21  1  0  0  0  0
 22 17  2  0  0  0  0
 23 24  1  0  0  0  0
 24 27  1  0  0  0  0
 27 26  2  1  0  0  0
 27 25  1  0  0  0  0
 27 29  1  0  0  0  0
 29 28  1  0  0  0  0
M  END
>  <MODEL>
5

>  <REMARK>
 VINA RESULT:      -7.6      4.873      8.873
  Name = 
  5 active torsions:
  status: ('A' for Active; 'I' for Inactive)
    1  A    between atoms: C_2  and  C_6
    2  A    between atoms: C_7  and  C_28
    3  A    between atoms: C_13  and  P_17
    4  A    between atoms: C_13  and  C_28
    5  A    between atoms: P_17  and  N_26
                            x       y       z     vdW  Elec       q    Type
                         _______ _______ _______ _____ _____    ______ ____

>  <TORSDO>
F 5

$$$$
=
 OpenBabel11042423113D

 29 33  0  0  0  0  0  0  0  0999 V2000
  159.4170  210.7790  156.0480 C   0  0  0  0  0  3  0  0  0  0  0  0
  158.2500  212.4840  154.8470 N   0  0  0  0  0  0  0  0  0  0  0  0
  159.5710  210.8510  153.5820 C   0  0  0  0  0  0  0  0  0  0  0  0
  160.7570  208.8430  157.1340 C   0  0  0  0  0  3  0  0  0  0  0  0
  160.4210  209.7120  153.5940 C   0  0  0  0  0  0  0  0  0  0  0  0
  160.7380  209.1690  154.8500 C   0  0  0  0  0  0  0  0  0  0  0  0
  160.2590  209.6740  156.0110 C   0  0  0  0  0  0  0  0  0  0  0  0
  161.5800  207.7840  156.5100 N   0  0  0  0  0  2  0  0  0  0  0  0
  157.2310  214.2380  152.0670 C   0  0  0  0  0  3  0  0  0  0  0  0
  157.9900  213.2920  151.4340 N   0  0  0  0  0  0  0  0  0  0  0  0
  157.9410  213.0480  153.6600 C   0  0  0  0  0  0  0  0  0  0  0  0
  159.0650  211.3840  154.8350 C   0  0  0  0  0  0  0  0  0  0  0  0
  159.2410  211.4630  152.4000 N   0  0  0  0  0  2  0  0  0  0  0  0
  161.5250  208.0320  155.1230 N   0  0  0  0  0  0  0  0  0  0  0  0
  158.4340  212.5450  152.4490 C   0  0  0  0  0  0  0  0  0  0  0  0
  157.1790  214.1210  153.4280 N   0  0  0  0  0  0  0  0  0  0  0  0
  160.9580  209.1090  152.3480 C   0  0  0  0  0  0  0  0  0  0  0  0
  161.9890  207.9720  149.9920 C   0  0  0  0  0  0  0  0  0  0  0  0
  161.7120  209.8840  151.4520 C   0  0  0  0  0  3  0  0  0  0  0  0
  162.2260  209.3190  150.2810 C   0  0  0  0  0  3  0  0  0  0  0  0
  161.2470  207.1890  150.8810 C   0  0  0  0  0  3  0  0  0  0  0  0
  160.7350  207.7560  152.0520 C   0  0  0  0  0  3  0  0  0  0  0  0
  162.5510  207.3650  148.7540 C   0  0  0  0  0  2  0  0  0  0  0  0
  161.4400  207.0810  147.7620 C   0  0  0  0  0  2  0  0  0  0  0  0
  163.0760  205.2090  146.6430 O   0  0  0  0  0  1  0  0  0  0  0  0
  160.6230  205.2290  145.7360 O   0  0  0  0  0  0  0  0  0  0  0  0
  161.6410  205.4120  147.0740 P   0  0  2  0  0  0  0  0  0  0  0  0
  161.2720  203.0090  147.6890 O   0  0  0  0  0  1  0  0  0  0  0  0
  161.2190  204.2220  148.2880 N   0  0  0  0  0  2  0  0  0  0  0  0
  3  5  2  0  0  0  0
  3 12  1  0  0  0  0
  5  6  1  0  0  0  0
  6 14  2  0  0  0  0
  6  7  1  0  0  0  0
  7  1  1  0  0  0  0
  7  4  2  0  0  0  0
  8  4  1  0  0  0  0
  9 16  2  0  0  0  0
 10  9  1  0  0  0  0
 10 15  2  0  0  0  0
 11  2  2  0  0  0  0
 12  2  1  0  0  0  0
 12  1  2  0  0  0  0
 13 15  1  0  0  0  0
 13  3  1  0  0  0  0
 14  8  1  0  0  0  0
 15 11  1  0  0  0  0
 16 11  1  0  0  0  0
 17  5  1  0  0  0  0
 18 20  2  0  0  0  0
 18 21  1  0  0  0  0
 19 17  2  0  0  0  0
 20 19  1  0  0  0  0
 21 22  2  0  0  0  0
 22 17  1  0  0  0  0
 23 18  1  0  0  0  0
 24 23  1  0  0  0  0
 25 27  1  0  0  0  0
 27 26  2  6  0  0  0
 27 24  1  0  0  0  0
 27 29  1  0  0  0  0
 28 29  1  0  0  0  0
M  END
>  <MODEL>
6

>  <REMARK>
 VINA RESULT:      -7.5      3.040      5.308
  Name = 
  5 active torsions:
  status: ('A' for Active; 'I' for Inactive)
    1  A    between atoms: C_2  and  C_6
    2  A    between atoms: C_7  and  C_28
    3  A    between atoms: C_13  and  P_17
    4  A    between atoms: C_13  and  C_28
    5  A    between atoms: P_17  and  N_26
                            x       y       z     vdW  Elec       q    Type
                         _______ _______ _______ _____ _____    ______ ____

>  <TORSDO>
F 5

$$$$
=
 OpenBabel11042423113D

 29 33  0  0  0  0  0  0  0  0999 V2000
  160.8470  204.3890  152.7460 C   0  0  0  0  0  3  0  0  0  0  0  0
  160.8520  203.0330  150.7780 N   0  0  0  0  0  0  0  0  0  0  0  0
  161.2290  205.4450  150.5440 C   0  0  0  0  0  0  0  0  0  0  0  0
  160.8910  206.0500  154.7370 C   0  0  0  0  0  3  0  0  0  0  0  0
  161.3470  206.7170  151.1670 C   0  0  0  0  0  0  0  0  0  0  0  0
  161.1930  206.7590  152.5620 C   0  0  0  0  0  0  0  0  0  0  0  0
  160.9600  205.6540  153.3090 C   0  0  0  0  0  0  0  0  0  0  0  0
  161.1160  207.5110  154.7550 N   0  0  0  0  0  2  0  0  0  0  0  0
  161.0640  202.3860  147.4040 C   0  0  0  0  0  3  0  0  0  0  0  0
  161.2650  203.7380  147.3570 N   0  0  0  0  0  0  0  0  0  0  0  0
  160.9710  202.9560  149.4350 C   0  0  0  0  0  0  0  0  0  0  0  0
  160.9750  204.2680  151.3560 C   0  0  0  0  0  0  0  0  0  0  0  0
  161.3310  205.3210  149.1820 N   0  0  0  0  0  2  0  0  0  0  0  0
  161.3000  207.8810  153.4070 N   0  0  0  0  0  0  0  0  0  0  0  0
  161.2040  204.0890  148.6450 C   0  0  0  0  0  0  0  0  0  0  0  0
  160.8790  201.8730  148.6580 N   0  0  0  0  0  0  0  0  0  0  0  0
  161.6210  207.9550  150.3940 C   0  0  0  0  0  0  0  0  0  0  0  0
  162.1540  210.3030  148.9420 C   0  0  0  0  0  0  0  0  0  0  0  0
  161.6380  209.2040  151.0370 C   0  0  0  0  0  3  0  0  0  0  0  0
  161.9040  210.3710  150.3160 C   0  0  0  0  0  3  0  0  0  0  0  0
  162.1490  209.0650  148.2940 C   0  0  0  0  0  3  0  0  0  0  0  0
  161.8840  207.8980  149.0170 C   0  0  0  0  0  3  0  0  0  0  0  0
  162.4550  211.5440  148.1770 C   0  0  0  0  0  2  0  0  0  0  0  0
  161.1930  212.0710  147.5210 C   0  0  0  0  0  2  0  0  0  0  0  0
  160.5690  214.4200  146.2840 O   0  0  0  0  0  0  0  0  0  0  0  0
  162.7840  214.4470  147.6730 O   0  0  0  0  0  1  0  0  0  0  0  0
  161.1940  213.8870  147.5540 P   0  0  2  0  0  0  0  0  0  0  0  0
  159.5450  213.4010  149.3810 O   0  0  0  0  0  1  0  0  0  0  0  0
  160.2790  214.4490  148.9370 N   0  0  0  0  0  2  0  0  0  0  0  0
  1  7  1  0  0  0  0
  2 12  1  0  0  0  0
  3  5  2  0  0  0  0
  3 12  1  0  0  0  0
  4  8  1  0  0  0  0
  5  6  1  0  0  0  0
  6  7  1  0  0  0  0
  6 14  2  0  0  0  0
  7  4  2  0  0  0  0
  9 16  2  0  0  0  0
 10  9  1  0  0  0  0
 10 15  2  0  0  0  0
 11  2  2  0  0  0  0
 12  1  2  0  0  0  0
 13  3  1  0  0  0  0
 14  8  1  0  0  0  0
 15 13  1  0  0  0  0
 15 11  1  0  0  0  0
 16 11  1  0  0  0  0
 17 19  1  0  0  0  0
 17  5  1  0  0  0  0
 18 20  1  0  0  0  0
 20 19  2  0  0  0  0
 21 18  2  0  0  0  0
 21 22  1  0  0  0  0
 22 17  2  0  0  0  0
 23 18  1  0  0  0  0
 24 27  1  0  0  0  0
 24 23  1  0  0  0  0
 27 25  2  6  0  0  0
 27 26  1  0  0  0  0
 27 29  1  0  0  0  0
 29 28  1  0  0  0  0
M  END
>  <MODEL>
7

>  <REMARK>
 VINA RESULT:      -7.2      4.886      8.185
  Name = 
  5 active torsions:
  status: ('A' for Active; 'I' for Inactive)
    1  A    between atoms: C_2  and  C_6
    2  A    between atoms: C_7  and  C_28
    3  A    between atoms: C_13  and  P_17
    4  A    between atoms: C_13  and  C_28
    5  A    between atoms: P_17  and  N_26
                            x       y       z     vdW  Elec       q    Type
                         _______ _______ _______ _____ _____    ______ ____

>  <TORSDO>
F 5

$$$$
=
 OpenBabel11042423113D

 29 33  0  0  1  0  0  0  0  0999 V2000
  161.8260  206.0580  147.6480 C   0  0  0  0  0  3  0  0  0  0  0  0
  161.3240  203.7440  147.9690 N   0  0  0  0  0  0  0  0  0  0  0  0
  161.2710  205.2380  149.9120 C   0  0  0  0  0  0  0  0  0  0  0  0
  162.3290  208.6000  147.5380 C   0  0  0  0  0  3  0  0  0  0  0  0
  161.4360  206.5490  150.4350 C   0  0  0  0  0  0  0  0  0  0  0  0
  161.8040  207.5550  149.5270 C   0  0  0  0  0  0  0  0  0  0  0  0
  161.9860  207.3210  148.2060 C   0  0  0  0  0  0  0  0  0  0  0  0
  162.3240  209.6210  148.6080 N   0  0  0  0  0  0  0  0  0  0  0  0
  160.5090  200.9210  149.7600 C   0  0  0  0  0  3  0  0  0  0  0  0
  160.5020  201.8170  150.7940 N   0  0  0  0  0  0  0  0  0  0  0  0
  160.9920  202.7470  148.8160 C   0  0  0  0  0  0  0  0  0  0  0  0
  161.4710  205.0000  148.4940 C   0  0  1  0  0  3  0  0  0  0  0  0
  160.9460  204.1920  150.7380 N   0  0  0  0  0  2  0  0  0  0  0  0
  161.9930  208.9270  149.7900 N   0  0  0  0  0  0  0  0  0  0  0  0
  160.8080  202.9680  150.1870 C   0  0  0  0  0  0  0  0  0  0  0  0
  160.8060  201.4530  148.5360 N   0  0  0  0  0  0  0  0  0  0  0  0
  161.2300  206.8610  151.8730 C   0  0  0  0  0  0  0  0  0  0  0  0
  160.8240  207.4540  154.5910 C   0  0  0  0  0  0  0  0  0  0  0  0
  160.6710  208.0900  152.2600 C   0  0  0  0  0  3  0  0  0  0  0  0
  160.4680  208.3850  153.6110 C   0  0  0  0  0  3  0  0  0  0  0  0
  161.3720  206.2240  154.2170 C   0  0  0  0  0  3  0  0  0  0  0  0
  161.5740  205.9300  152.8650 C   0  0  0  0  0  3  0  0  0  0  0  0
  160.5910  207.7600  156.0300 C   0  0  0  0  0  2  0  0  0  0  0  0
  160.1870  209.2130  156.1940 C   0  0  0  0  0  2  0  0  0  0  0  0
  162.2210  210.6060  155.0290 O   0  0  0  0  0  0  0  0  0  0  0  0
  162.8390  209.3900  157.2600 O   0  0  0  0  0  1  0  0  0  0  0  0
  161.6690  210.2450  156.3900 P   0  0  2  0  0  0  0  0  0  0  0  0
  160.1160  212.1880  156.7100 O   0  0  0  0  0  1  0  0  0  0  0  0
  161.2550  211.7070  157.2610 N   0  0  0  0  0  2  0  0  0  0  0  0
  1  7  2  0  0  0  0
  2 12  1  0  0  0  0
  2 11  2  0  0  0  0
  3  5  2  0  0  0  0
  3 13  1  0  0  0  0
  4  7  1  0  0  0  0
  4  8  2  0  0  0  0
  5 17  1  0  0  0  0
  6 14  2  0  0  0  0
  6  5  1  0  0  0  0
  7  6  1  0  0  0  0
  8 14  1  0  0  0  0
  9 10  1  0  0  0  0
 11 15  1  0  0  0  0
 12  1  1  1  0  0  0
 12  3  1  0  0  0  0
 15 13  1  0  0  0  0
 15 10  2  0  0  0  0
 16 11  1  0  0  0  0
 16  9  2  0  0  0  0
 17 19  2  0  0  0  0
 17 22  1  0  0  0  0
 18 23  1  0  0  0  0
 19 20  1  0  0  0  0
 20 18  2  0  0  0  0
 21 18  1  0  0  0  0
 22 21  2  0  0  0  0
 23 24  1  0  0  0  0
 24 27  1  0  0  0  0
 27 25  2  6  0  0  0
 27 26  1  0  0  0  0
 27 29  1  0  0  0  0
 28 29  1  0  0  0  0
M  END
>  <MODEL>
8

>  <REMARK>
 VINA RESULT:      -7.2      4.968      7.976
  Name = 
  5 active torsions:
  status: ('A' for Active; 'I' for Inactive)
    1  A    between atoms: C_2  and  C_6
    2  A    between atoms: C_7  and  C_28
    3  A    between atoms: C_13  and  P_17
    4  A    between atoms: C_13  and  C_28
    5  A    between atoms: P_17  and  N_26
                            x       y       z     vdW  Elec       q    Type
                         _______ _______ _______ _____ _____    ______ ____

>  <TORSDO>
F 5

$$$$
=
 OpenBabel11042423113D

 29 33  0  0  1  0  0  0  0  0999 V2000
  160.8950  205.2060  153.0020 C   0  0  0  0  0  3  0  0  0  0  0  0
  160.7610  206.5900  154.9450 N   0  0  0  0  0  0  0  0  0  0  0  0
  161.2150  207.6460  152.7800 C   0  0  0  0  0  0  0  0  0  0  0  0
  161.0770  203.9070  150.7650 C   0  0  0  0  0  3  0  0  0  0  0  0
  161.4150  207.5000  151.3800 C   0  0  0  0  0  0  0  0  0  0  0  0
  161.3560  206.1950  150.8620 C   0  0  0  0  0  0  0  0  0  0  0  0
  161.1070  205.1100  151.6320 C   0  0  0  0  0  0  0  0  0  0  0  0
  161.3300  204.4000  149.3930 N   0  0  0  0  0  0  0  0  0  0  0  0
  160.8780  209.5340  156.7250 C   0  0  0  0  0  3  0  0  0  0  0  0
  161.1300  210.0470  155.4820 N   0  0  0  0  0  0  0  0  0  0  0  0
  160.8330  207.8270  155.4830 C   0  0  0  0  0  0  0  0  0  0  0  0
  160.9510  206.4740  153.5940 C   0  0  1  0  0  3  0  0  0  0  0  0
  161.2910  208.8820  153.3700 N   0  0  0  0  0  2  0  0  0  0  0  0
  161.4850  205.7960  149.5170 N   0  0  0  0  0  0  0  0  0  0  0  0
  161.0990  208.9610  154.7040 C   0  0  0  0  0  0  0  0  0  0  0  0
  160.6930  208.1800  156.7640 N   0  0  0  0  0  0  0  0  0  0  0  0
  161.6740  208.6600  150.4900 C   0  0  0  0  0  0  0  0  0  0  0  0
  162.1770  210.8600  148.8120 C   0  0  0  0  0  0  0  0  0  0  0  0
  161.8960  209.9360  151.0330 C   0  0  0  0  0  3  0  0  0  0  0  0
  162.1480  211.0290  150.1990 C   0  0  0  0  0  3  0  0  0  0  0  0
  161.9660  209.5930  148.2610 C   0  0  0  0  0  3  0  0  0  0  0  0
  161.7160  208.5000  149.0960 C   0  0  0  0  0  3  0  0  0  0  0  0
  162.4630  212.0200  147.9250 C   0  0  0  0  0  2  0  0  0  0  0  0
  161.3610  213.0560  148.0500 C   0  0  0  0  0  2  0  0  0  0  0  0
  159.5310  214.4060  146.5460 O   0  0  0  0  0  1  0  0  0  0  0  0
  159.9090  211.9100  145.8630 O   0  0  0  0  0  0  0  0  0  0  0  0
  160.6030  213.3460  146.4250 P   0  0  2  0  0  0  0  0  0  0  0  0
  161.8620  212.9700  144.2890 O   0  0  0  0  0  1  0  0  0  0  0  0
  161.8280  213.8780  145.2920 N   0  0  0  0  0  2  0  0  0  0  0  0
  2 11  2  0  0  0  0
  3 13  1  0  0  0  0
  3 12  1  0  0  0  0
  4  7  1  0  0  0  0
  5  3  2  0  0  0  0
  6  5  1  0  0  0  0
  6  7  1  0  0  0  0
  7  1  2  0  0  0  0
  8 14  1  0  0  0  0
  8  4  2  0  0  0  0
  9 16  2  0  0  0  0
 10  9  1  0  0  0  0
 11 16  1  0  0  0  0
 12  1  1  1  0  0  0
 12  2  1  0  0  0  0
 13 15  1  0  0  0  0
 14  6  2  0  0  0  0
 15 10  2  0  0  0  0
 15 11  1  0  0  0  0
 17 19  1  0  0  0  0
 17  5  1  0  0  0  0
 18 20  1  0  0  0  0
 20 19  2  0  0  0  0
 21 18  2  0  0  0  0
 21 22  1  0  0  0  0
 22 17  2  0  0  0  0
 23 24  1  0  0  0  0
 23 18  1  0  0  0  0
 27 26  2  6  0  0  0
 27 25  1  0  0  0  0
 27 24  1  0  0  0  0
 28 29  1  0  0  0  0
 29 27  1  0  0  0  0
M  END
>  <MODEL>
9

>  <REMARK>
 VINA RESULT:      -6.6      4.438      6.748
  Name = 
  5 active torsions:
  status: ('A' for Active; 'I' for Inactive)
    1  A    between atoms: C_2  and  C_6
    2  A    between atoms: C_7  and  C_28
    3  A    between atoms: C_13  and  P_17
    4  A    between atoms: C_13  and  C_28
    5  A    between atoms: P_17  and  N_26
                            x       y       z     vdW  Elec       q    Type
                         _______ _______ _______ _____ _____    ______ ____

>  <TORSDO>
F 5

$$$$
