=
 OpenBabel11052410393D

 47 49  0  0  1  0  0  0  0  0999 V2000
  161.7800  207.4270  148.6310 C   0  0  2  0  0  3  0  0  0  0  0  0
  160.7870  207.0860  147.5140 C   0  0  0  0  0  2  0  0  0  0  0  0
  161.0210  205.6850  146.9330 C   0  0  1  0  0  3  0  0  0  0  0  0
  161.8920  205.7660  145.6570 C   0  0  1  0  0  3  0  0  0  0  0  0
  163.1780  204.9540  145.7310 C   0  0  0  0  0  1  0  0  0  0  0  0
  160.5370  204.2880  144.3820 O   0  0  0  0  0  0  0  0  0  0  0  0
  161.1150  205.3640  144.4350 C   0  0  0  0  0  3  0  0  0  0  0  0
  161.6290  204.8290  148.0450 C   0  0  0  0  0  2  0  0  0  0  0  0
  160.8360  204.0380  152.1760 C   0  0  0  0  0  0  0  0  0  0  0  0
  161.5540  202.1100  146.7900 O   0  0  0  0  0  0  0  0  0  0  0  0
  160.7850  203.5900  150.0450 C   0  0  0  0  0  0  0  0  0  0  0  0
  161.2070  202.2430  147.9930 C   0  0  0  0  0  0  0  0  0  0  0  0
  160.7540  202.4370  150.7790 C   0  0  0  0  0  0  0  0  0  0  0  0
  160.8020  201.1070  150.1540 C   0  0  0  0  0  3  0  0  0  0  0  0
  161.0280  201.0230  148.8340 C   0  0  0  0  0  3  0  0  0  0  0  0
  160.8320  203.6150  148.5470 C   0  0  2  0  0  3  0  0  0  0  0  0
  160.8380  204.6440  150.9270 C   0  0  0  0  0  3  0  0  0  0  0  0
  160.8110  202.6870  152.1000 N   0  0  0  0  0  2  0  0  0  0  0  0
  161.1290  204.7920  153.4400 C   0  0  0  0  0  2  0  0  0  0  0  0
  162.2630  205.7880  153.2390 C   0  0  0  0  0  1  0  0  0  0  0  0
  161.0960  207.5140  150.0010 C   0  0  0  0  0  2  0  0  0  0  0  0
  161.9480  208.1930  151.0610 C   0  0  0  0  0  2  0  0  0  0  0  0
  161.1290  208.9680  152.0510 C   0  0  0  0  0  0  0  0  0  0  0  0
  160.2150  208.4010  152.6320 O   0  0  0  0  0  0  0  0  0  0  0  0
  161.5170  210.3690  152.4480 C   0  0  2  0  0  3  0  0  0  0  0  0
  162.8650  210.3950  152.8090 O   0  0  0  0  0  1  0  0  0  0  0  0
  160.6310  210.9040  153.5850 C   0  0  2  0  0  3  0  0  0  0  0  0
  158.5640  214.0150  153.9270 C   0  0  0  0  0  3  0  0  0  0  0  0
  158.4570  214.4510  152.6070 C   0  0  0  0  0  3  0  0  0  0  0  0
  159.2810  212.9020  154.2280 N   0  0  0  0  0  0  0  0  0  0  0  0
  159.8320  212.5870  151.9230 C   0  0  0  0  0  3  0  0  0  0  0  0
  159.0930  213.7270  151.6000 C   0  0  0  0  0  3  0  0  0  0  0  0
  159.9230  212.1860  153.2580 C   0  0  0  0  0  0  0  0  0  0  0  0
  161.3120  210.9660  154.8470 O   0  0  0  0  0  0  0  0  0  0  0  0
  159.9290  209.7730  156.4700 N   0  0  0  0  0  1  0  0  0  0  0  0
  161.1950  210.0100  155.8650 C   0  0  0  0  0  0  0  0  0  0  0  0
  162.2000  209.3550  156.2530 O   0  0  0  0  0  0  0  0  0  0  0  0
  162.6030  208.6610  148.2810 C   0  0  0  0  0  2  0  0  0  0  0  0
  161.7960  209.9200  148.3860 C   0  0  0  0  0  3  0  0  0  0  0  0
  162.3770  211.0850  148.6750 C   0  0  0  0  0  3  0  0  0  0  0  0
  161.5820  212.3530  148.7190 C   0  0  0  0  0  2  0  0  0  0  0  0
  161.8310  213.1800  147.4670 C   0  0  0  0  0  2  0  0  0  0  0  0
  160.5800  213.2130  146.5950 C   0  0  0  0  0  2  0  0  0  0  0  0
  160.8950  212.8170  145.2290 N   0  0  0  0  0  2  0  0  0  0  0  0
  161.8230  213.8000  144.6850 C   0  0  0  0  0  2  0  0  0  0  0  0
  162.9370  213.1100  143.9180 C   0  0  0  0  0  2  0  0  0  0  0  0
  162.3900  212.4250  142.7580 N   0  0  0  0  0  1  0  0  0  0  0  0
  1  2  1  6  0  0  0
  1 21  1  0  0  0  0
  3  2  1  1  0  0  0
  3  8  1  0  0  0  0
  4  5  1  1  0  0  0
  4  3  1  0  0  0  0
  6  7  2  0  0  0  0
  7  4  1  0  0  0  0
  9 19  1  0  0  0  0
 10 12  2  0  0  0  0
 11 13  2  0  0  0  0
 11 17  1  0  0  0  0
 12 16  1  0  0  0  0
 12 15  1  0  0  0  0
 13 18  1  0  0  0  0
 14 13  1  0  0  0  0
 15 14  2  0  0  0  0
 16  8  1  1  0  0  0
 16 11  1  0  0  0  0
 17  9  2  0  0  0  0
 18  9  1  0  0  0  0
 20 19  1  0  0  0  0
 21 22  1  0  0  0  0
 22 23  1  0  0  0  0
 23 25  1  0  0  0  0
 23 24  2  0  0  0  0
 25 26  1  1  0  0  0
 25 27  1  0  0  0  0
 27 34  1  1  0  0  0
 28 30  1  0  0  0  0
 29 28  2  0  0  0  0
 31 33  1  0  0  0  0
 32 31  2  0  0  0  0
 32 29  1  0  0  0  0
 33 27  1  0  0  0  0
 33 30  2  0  0  0  0
 34 36  1  0  0  0  0
 36 37  2  0  0  0  0
 36 35  1  0  0  0  0
 38 39  1  0  0  0  0
 38  1  1  0  0  0  0
 39 40  2  0  0  0  0
 40 41  1  0  0  0  0
 42 41  1  0  0  0  0
 43 42  1  0  0  0  0
 44 43  1  0  0  0  0
 45 44  1  0  0  0  0
 46 45  1  0  0  0  0
 47 46  1  0  0  0  0
M  END
>  <MODEL>
1

>  <REMARK>
 VINA RESULT:      -6.9      0.000      0.000
  Name = 
  23 active torsions:
  status: ('A' for Active; 'I' for Inactive)
    1  A    between atoms: C_1  and  C_4
    2  A    between atoms: C_2  and  C_12
    3  A    between atoms: C_2  and  O_22
    4  A    between atoms: C_2  and  C_41
    5  A    between atoms: N_3  and  C_19
    6  A    between atoms: N_3  and  C_33
    7  A    between atoms: C_5  and  C_6
    8  A    between atoms: C_6  and  C_30
    9  A    between atoms: C_8  and  C_25
   10  A    between atoms: C_8  and  C_34
   11  A    between atoms: C_10  and  C_19
   12  A    between atoms: C_10  and  C_47
   13  A    between atoms: C_12  and  C_36
   14  A    between atoms: C_16  and  C_33
   15  A    between atoms: C_17  and  C_30
   16  A    between atoms: C_17  and  C_31
   17  A    between atoms: O_22  and  C_26
   18  A    between atoms: C_25  and  C_35
   19  A    between atoms: C_25  and  C_40
   20  A    between atoms: C_30  and  C_35
   21  A    between atoms: C_31  and  C_36
   22  A    between atoms: C_40  and  C_45
   23  A    between atoms: C_42  and  C_47
                            x       y       z     vdW  Elec       q    Type
                         _______ _______ _______ _____ _____    ______ ____

>  <TORSDO>
F 23

$$$$
=
 OpenBabel11052410393D

 47 49  0  0  1  0  0  0  0  0999 V2000
  162.1770  207.6310  148.9360 C   0  0  2  0  0  3  0  0  0  0  0  0
  160.7490  207.2820  148.4960 C   0  0  0  0  0  2  0  0  0  0  0  0
  160.7080  206.0550  147.5740 C   0  0  1  0  0  3  0  0  0  0  0  0
  161.2030  206.4250  146.1560 C   0  0  1  0  0  3  0  0  0  0  0  0
  162.5570  205.8280  145.7970 C   0  0  0  0  0  1  0  0  0  0  0  0
  160.2750  204.9870  144.5080 O   0  0  0  0  0  0  0  0  0  0  0  0
  160.1950  206.0500  145.1080 C   0  0  0  0  0  3  0  0  0  0  0  0
  161.5260  204.9530  148.2500 C   0  0  0  0  0  2  0  0  0  0  0  0
  160.8090  204.0580  152.3730 C   0  0  0  0  0  0  0  0  0  0  0  0
  161.5640  202.2540  146.9490 O   0  0  0  0  0  0  0  0  0  0  0  0
  160.7580  203.6440  150.2350 C   0  0  0  0  0  0  0  0  0  0  0  0
  161.2230  202.3510  148.1570 C   0  0  0  0  0  0  0  0  0  0  0  0
  160.7870  202.4780  150.9500 C   0  0  0  0  0  0  0  0  0  0  0  0
  160.8900  201.1630  150.3020 C   0  0  0  0  0  3  0  0  0  0  0  0
  161.1070  201.1110  148.9780 C   0  0  0  0  0  3  0  0  0  0  0  0
  160.7900  203.6950  148.7370 C   0  0  2  0  0  3  0  0  0  0  0  0
  160.7710  204.6850  151.1340 C   0  0  0  0  0  3  0  0  0  0  0  0
  160.8450  202.7090  152.2740 N   0  0  0  0  0  2  0  0  0  0  0  0
  161.0790  204.8030  153.6470 C   0  0  0  0  0  2  0  0  0  0  0  0
  161.8110  206.1120  153.3770 C   0  0  0  0  0  1  0  0  0  0  0  0
  162.3010  207.7180  150.4620 C   0  0  0  0  0  2  0  0  0  0  0  0
  161.0890  208.3420  151.1340 C   0  0  0  0  0  2  0  0  0  0  0  0
  161.4340  209.5740  151.9180 C   0  0  0  0  0  0  0  0  0  0  0  0
  162.6070  209.9030  152.0130 O   0  0  0  0  0  0  0  0  0  0  0  0
  160.3540  210.4840  152.4430 C   0  0  2  0  0  3  0  0  0  0  0  0
  160.5510  211.7750  151.9500 O   0  0  0  0  0  1  0  0  0  0  0  0
  160.3080  210.4830  153.9810 C   0  0  2  0  0  3  0  0  0  0  0  0
  157.5770  211.3630  156.3970 C   0  0  0  0  0  3  0  0  0  0  0  0
  156.6160  211.9390  155.5680 C   0  0  0  0  0  3  0  0  0  0  0  0
  158.7570  210.9300  155.8850 N   0  0  0  0  0  0  0  0  0  0  0  0
  158.1020  211.6170  153.6910 C   0  0  0  0  0  3  0  0  0  0  0  0
  156.8820  212.0610  154.2040 C   0  0  0  0  0  3  0  0  0  0  0  0
  159.0440  211.0520  154.5550 C   0  0  0  0  0  0  0  0  0  0  0  0
  161.4810  211.0530  154.5800 O   0  0  0  0  0  0  0  0  0  0  0  0
  161.8830  209.1540  156.0650 N   0  0  0  0  0  1  0  0  0  0  0  0
  162.2960  210.4000  155.5140 C   0  0  0  0  0  0  0  0  0  0  0  0
  163.3940  210.9040  155.8760 O   0  0  0  0  0  0  0  0  0  0  0  0
  162.6900  208.8690  148.2110 C   0  0  0  0  0  2  0  0  0  0  0  0
  161.8210  210.0650  148.4590 C   0  0  0  0  0  3  0  0  0  0  0  0
  162.3300  211.2980  148.4410 C   0  0  0  0  0  3  0  0  0  0  0  0
  161.4510  212.4960  148.6270 C   0  0  0  0  0  2  0  0  0  0  0  0
  161.3130  213.2620  147.3210 C   0  0  0  0  0  2  0  0  0  0  0  0
  159.8440  213.5320  147.0170 C   0  0  0  0  0  2  0  0  0  0  0  0
  159.0250  213.3180  148.2030 N   0  0  0  0  0  2  0  0  0  0  0  0
  157.6710  213.0150  147.7580 C   0  0  0  0  0  2  0  0  0  0  0  0
  157.6260  212.8830  146.2460 C   0  0  0  0  0  2  0  0  0  0  0  0
  156.5780  213.7340  145.7050 N   0  0  0  0  0  1  0  0  0  0  0  0
  1 38  1  6  0  0  0
  1 21  1  0  0  0  0
  2  1  1  0  0  0  0
  3  8  1  1  0  0  0
  3  2  1  0  0  0  0
  4  5  1  6  0  0  0
  4  3  1  0  0  0  0
  6  7  2  0  0  0  0
  7  4  1  0  0  0  0
  9 19  1  0  0  0  0
 10 12  2  0  0  0  0
 11 13  2  0  0  0  0
 11 17  1  0  0  0  0
 12 16  1  0  0  0  0
 12 15  1  0  0  0  0
 13 18  1  0  0  0  0
 14 13  1  0  0  0  0
 15 14  2  0  0  0  0
 16  8  1  1  0  0  0
 16 11  1  0  0  0  0
 17  9  2  0  0  0  0
 18  9  1  0  0  0  0
 20 19  1  0  0  0  0
 21 22  1  0  0  0  0
 22 23  1  0  0  0  0
 23 24  2  0  0  0  0
 23 25  1  0  0  0  0
 25 26  1  1  0  0  0
 25 27  1  0  0  0  0
 27 33  1  0  0  0  0
 27 34  1  1  0  0  0
 29 28  2  0  0  0  0
 30 28  1  0  0  0  0
 31 32  2  0  0  0  0
 31 33  1  0  0  0  0
 32 29  1  0  0  0  0
 33 30  2  0  0  0  0
 34 36  1  0  0  0  0
 36 37  2  0  0  0  0
 36 35  1  0  0  0  0
 38 39  1  0  0  0  0
 40 39  2  0  0  0  0
 40 41  1  0  0  0  0
 42 41  1  0  0  0  0
 43 42  1  0  0  0  0
 43 44  1  0  0  0  0
 45 44  1  0  0  0  0
 46 45  1  0  0  0  0
 47 46  1  0  0  0  0
M  END
>  <MODEL>
2

>  <REMARK>
 VINA RESULT:      -6.7      1.768      2.175
  Name = 
  23 active torsions:
  status: ('A' for Active; 'I' for Inactive)
    1  A    between atoms: C_1  and  C_4
    2  A    between atoms: C_2  and  C_12
    3  A    between atoms: C_2  and  O_22
    4  A    between atoms: C_2  and  C_41
    5  A    between atoms: N_3  and  C_19
    6  A    between atoms: N_3  and  C_33
    7  A    between atoms: C_5  and  C_6
    8  A    between atoms: C_6  and  C_30
    9  A    between atoms: C_8  and  C_25
   10  A    between atoms: C_8  and  C_34
   11  A    between atoms: C_10  and  C_19
   12  A    between atoms: C_10  and  C_47
   13  A    between atoms: C_12  and  C_36
   14  A    between atoms: C_16  and  C_33
   15  A    between atoms: C_17  and  C_30
   16  A    between atoms: C_17  and  C_31
   17  A    between atoms: O_22  and  C_26
   18  A    between atoms: C_25  and  C_35
   19  A    between atoms: C_25  and  C_40
   20  A    between atoms: C_30  and  C_35
   21  A    between atoms: C_31  and  C_36
   22  A    between atoms: C_40  and  C_45
   23  A    between atoms: C_42  and  C_47
                            x       y       z     vdW  Elec       q    Type
                         _______ _______ _______ _____ _____    ______ ____

>  <TORSDO>
F 23

$$$$
=
 OpenBabel11052410393D

 47 49  0  0  1  0  0  0  0  0999 V2000
  162.1130  207.7340  149.0000 C   0  0  2  0  0  3  0  0  0  0  0  0
  160.6990  207.2600  148.6440 C   0  0  0  0  0  2  0  0  0  0  0  0
  160.7100  206.0670  147.6790 C   0  0  1  0  0  3  0  0  0  0  0  0
  161.2320  206.4990  146.2890 C   0  0  1  0  0  3  0  0  0  0  0  0
  162.5750  205.8870  145.9130 C   0  0  0  0  0  1  0  0  0  0  0  0
  160.1310  205.0850  144.7280 O   0  0  0  0  0  0  0  0  0  0  0  0
  160.2290  206.2050  145.2100 C   0  0  0  0  0  3  0  0  0  0  0  0
  161.5360  204.9600  148.3360 C   0  0  0  0  0  2  0  0  0  0  0  0
  160.8340  204.0890  152.4680 C   0  0  0  0  0  0  0  0  0  0  0  0
  161.5770  202.2530  147.0530 O   0  0  0  0  0  0  0  0  0  0  0  0
  160.7780  203.6610  150.3330 C   0  0  0  0  0  0  0  0  0  0  0  0
  161.2390  202.3570  148.2610 C   0  0  0  0  0  0  0  0  0  0  0  0
  160.8110  202.5000  151.0550 C   0  0  0  0  0  0  0  0  0  0  0  0
  160.9160  201.1810  150.4150 C   0  0  0  0  0  3  0  0  0  0  0  0
  161.1290  201.1220  149.0910 C   0  0  0  0  0  3  0  0  0  0  0  0
  160.8050  203.7030  148.8340 C   0  0  2  0  0  3  0  0  0  0  0  0
  160.7900  204.7080  151.2250 C   0  0  0  0  0  3  0  0  0  0  0  0
  160.8720  202.7400  152.3770 N   0  0  0  0  0  2  0  0  0  0  0  0
  161.1050  204.8430  153.7360 C   0  0  0  0  0  2  0  0  0  0  0  0
  161.7800  206.1790  153.4510 C   0  0  0  0  0  1  0  0  0  0  0  0
  162.2730  207.9890  150.5030 C   0  0  0  0  0  2  0  0  0  0  0  0
  160.9740  208.3710  151.1940 C   0  0  0  0  0  2  0  0  0  0  0  0
  161.1520  209.4850  152.1840 C   0  0  0  0  0  0  0  0  0  0  0  0
  162.2720  209.9440  152.3580 O   0  0  0  0  0  0  0  0  0  0  0  0
  159.9620  210.1400  152.8340 C   0  0  2  0  0  3  0  0  0  0  0  0
  159.5700  211.2490  152.0810 O   0  0  0  0  0  1  0  0  0  0  0  0
  160.2570  210.5400  154.2900 C   0  0  2  0  0  3  0  0  0  0  0  0
  159.7960  207.4050  156.2970 C   0  0  0  0  0  3  0  0  0  0  0  0
  160.9810  207.3390  157.0290 C   0  0  0  0  0  3  0  0  0  0  0  0
  159.5900  208.4110  155.4090 N   0  0  0  0  0  0  0  0  0  0  0  0
  161.7280  209.3510  155.9190 C   0  0  0  0  0  3  0  0  0  0  0  0
  161.9500  208.3240  156.8390 C   0  0  0  0  0  3  0  0  0  0  0  0
  160.5320  209.3780  155.1990 C   0  0  0  0  0  0  0  0  0  0  0  0
  159.2800  211.4370  154.8360 O   0  0  0  0  0  0  0  0  0  0  0  0
  159.0090  213.8310  154.4270 N   0  0  0  0  0  1  0  0  0  0  0  0
  159.5350  212.7640  155.2080 C   0  0  0  0  0  0  0  0  0  0  0  0
  160.2300  213.0260  156.2270 O   0  0  0  0  0  0  0  0  0  0  0  0
  162.5330  208.9160  148.1330 C   0  0  0  0  0  2  0  0  0  0  0  0
  162.3710  210.2220  148.8510 C   0  0  0  0  0  3  0  0  0  0  0  0
  161.5740  211.1760  148.3680 C   0  0  0  0  0  3  0  0  0  0  0  0
  161.3640  212.4560  149.1150 C   0  0  0  0  0  2  0  0  0  0  0  0
  160.7090  213.4950  148.2170 C   0  0  0  0  0  2  0  0  0  0  0  0
  160.8930  213.1190  146.7500 C   0  0  0  0  0  2  0  0  0  0  0  0
  161.7840  214.0610  146.0850 N   0  0  0  0  0  2  0  0  0  0  0  0
  162.6560  213.2980  145.2020 C   0  0  0  0  0  2  0  0  0  0  0  0
  161.9630  213.0210  143.8800 C   0  0  0  0  0  2  0  0  0  0  0  0
  161.3800  214.2470  143.3590 N   0  0  0  0  0  1  0  0  0  0  0  0
  1 38  1  6  0  0  0
  1 21  1  0  0  0  0
  2  1  1  0  0  0  0
  3  8  1  1  0  0  0
  3  2  1  0  0  0  0
  4  5  1  6  0  0  0
  4  3  1  0  0  0  0
  6  7  2  0  0  0  0
  7  4  1  0  0  0  0
  9 19  1  0  0  0  0
 10 12  2  0  0  0  0
 11 13  2  0  0  0  0
 11 17  1  0  0  0  0
 12 16  1  0  0  0  0
 12 15  1  0  0  0  0
 13 18  1  0  0  0  0
 14 13  1  0  0  0  0
 15 14  2  0  0  0  0
 16  8  1  1  0  0  0
 16 11  1  0  0  0  0
 17  9  2  0  0  0  0
 18  9  1  0  0  0  0
 20 19  1  0  0  0  0
 21 22  1  0  0  0  0
 22 23  1  0  0  0  0
 23 24  2  0  0  0  0
 23 25  1  0  0  0  0
 25 26  1  6  0  0  0
 25 27  1  0  0  0  0
 27 34  1  1  0  0  0
 27 33  1  0  0  0  0
 28 29  1  0  0  0  0
 30 28  2  0  0  0  0
 31 32  1  0  0  0  0
 32 29  2  0  0  0  0
 33 30  1  0  0  0  0
 33 31  2  0  0  0  0
 34 36  1  0  0  0  0
 35 36  1  0  0  0  0
 36 37  2  0  0  0  0
 38 39  1  0  0  0  0
 40 39  2  0  0  0  0
 40 41  1  0  0  0  0
 42 41  1  0  0  0  0
 43 42  1  0  0  0  0
 44 43  1  0  0  0  0
 45 44  1  0  0  0  0
 46 45  1  0  0  0  0
 47 46  1  0  0  0  0
M  END
>  <MODEL>
3

>  <REMARK>
 VINA RESULT:      -6.6      1.430      2.762
  Name = 
  23 active torsions:
  status: ('A' for Active; 'I' for Inactive)
    1  A    between atoms: C_1  and  C_4
    2  A    between atoms: C_2  and  C_12
    3  A    between atoms: C_2  and  O_22
    4  A    between atoms: C_2  and  C_41
    5  A    between atoms: N_3  and  C_19
    6  A    between atoms: N_3  and  C_33
    7  A    between atoms: C_5  and  C_6
    8  A    between atoms: C_6  and  C_30
    9  A    between atoms: C_8  and  C_25
   10  A    between atoms: C_8  and  C_34
   11  A    between atoms: C_10  and  C_19
   12  A    between atoms: C_10  and  C_47
   13  A    between atoms: C_12  and  C_36
   14  A    between atoms: C_16  and  C_33
   15  A    between atoms: C_17  and  C_30
   16  A    between atoms: C_17  and  C_31
   17  A    between atoms: O_22  and  C_26
   18  A    between atoms: C_25  and  C_35
   19  A    between atoms: C_25  and  C_40
   20  A    between atoms: C_30  and  C_35
   21  A    between atoms: C_31  and  C_36
   22  A    between atoms: C_40  and  C_45
   23  A    between atoms: C_42  and  C_47
                            x       y       z     vdW  Elec       q    Type
                         _______ _______ _______ _____ _____    ______ ____

>  <TORSDO>
F 23

$$$$
=
 OpenBabel11052410393D

 47 49  0  0  1  0  0  0  0  0999 V2000
  161.7270  208.3680  149.3700 C   0  0  2  0  0  3  0  0  0  0  0  0
  162.1710  207.1170  148.6020 C   0  0  0  0  0  2  0  0  0  0  0  0
  161.1280  206.6660  147.5700 C   0  0  1  0  0  3  0  0  0  0  0  0
  161.8080  206.3350  146.2210 C   0  0  1  0  0  3  0  0  0  0  0  0
  162.9500  205.3340  146.3300 C   0  0  0  0  0  1  0  0  0  0  0  0
  161.1610  205.1660  144.2560 O   0  0  0  0  0  0  0  0  0  0  0  0
  160.8110  205.8500  145.2080 C   0  0  0  0  0  3  0  0  0  0  0  0
  160.3630  205.4920  148.1840 C   0  0  0  0  0  2  0  0  0  0  0  0
  161.0150  201.3750  147.2080 C   0  0  0  0  0  0  0  0  0  0  0  0
  160.4530  205.5190  151.1780 O   0  0  0  0  0  0  0  0  0  0  0  0
  161.1310  203.1330  148.4900 C   0  0  0  0  0  0  0  0  0  0  0  0
  160.7620  204.4660  150.5620 C   0  0  0  0  0  0  0  0  0  0  0  0
  161.1270  201.9900  149.2410 C   0  0  0  0  0  0  0  0  0  0  0  0
  161.0870  202.0170  150.7100 C   0  0  0  0  0  3  0  0  0  0  0  0
  160.9030  203.1930  151.3290 C   0  0  0  0  0  3  0  0  0  0  0  0
  161.1320  204.5110  149.0820 C   0  0  2  0  0  3  0  0  0  0  0  0
  161.0590  202.7630  147.1670 C   0  0  0  0  0  3  0  0  0  0  0  0
  161.0300  200.8910  148.4710 N   0  0  0  0  0  2  0  0  0  0  0  0
  160.6880  200.5420  146.0040 C   0  0  0  0  0  2  0  0  0  0  0  0
  161.4160  199.2050  146.0430 C   0  0  0  0  0  1  0  0  0  0  0  0
  162.1080  209.6590  148.6350 C   0  0  0  0  0  2  0  0  0  0  0  0
  162.1060  210.8880  149.5290 C   0  0  0  0  0  2  0  0  0  0  0  0
  161.5970  212.1120  148.8260 C   0  0  0  0  0  0  0  0  0  0  0  0
  160.9500  212.9310  149.4630 O   0  0  0  0  0  0  0  0  0  0  0  0
  162.0040  212.4150  147.4080 C   0  0  2  0  0  3  0  0  0  0  0  0
  163.3930  212.5400  147.3380 O   0  0  0  0  0  1  0  0  0  0  0  0
  161.3100  213.6800  146.8740 C   0  0  2  0  0  3  0  0  0  0  0  0
  157.6570  214.3030  147.4580 C   0  0  0  0  0  3  0  0  0  0  0  0
  157.0590  213.2360  146.7890 C   0  0  0  0  0  3  0  0  0  0  0  0
  159.0070  214.4490  147.4540 N   0  0  0  0  0  0  0  0  0  0  0  0
  159.2540  212.4820  146.1180 C   0  0  0  0  0  3  0  0  0  0  0  0
  157.8670  212.3180  146.1190 C   0  0  0  0  0  3  0  0  0  0  0  0
  159.8160  213.5680  146.7930 C   0  0  0  0  0  0  0  0  0  0  0  0
  161.8860  214.1650  145.6530 O   0  0  0  0  0  0  0  0  0  0  0  0
  161.4050  212.7130  143.7480 N   0  0  0  0  0  1  0  0  0  0  0  0
  162.3420  213.3510  144.6080 C   0  0  0  0  0  0  0  0  0  0  0  0
  163.5760  213.1740  144.4190 O   0  0  0  0  0  0  0  0  0  0  0  0
  162.2050  208.3260  150.8160 C   0  0  0  0  0  2  0  0  0  0  0  0
  161.1660  208.8450  151.7650 C   0  0  0  0  0  3  0  0  0  0  0  0
  161.5140  209.5320  152.8540 C   0  0  0  0  0  3  0  0  0  0  0  0
  160.4760  210.1040  153.7690 C   0  0  0  0  0  2  0  0  0  0  0  0
  160.4570  209.3500  155.0890 C   0  0  0  0  0  2  0  0  0  0  0  0
  159.8110  210.2000  156.1770 C   0  0  0  0  0  2  0  0  0  0  0  0
  158.5120  210.6950  155.7400 N   0  0  0  0  0  2  0  0  0  0  0  0
  158.1290  211.7820  156.6320 C   0  0  0  0  0  2  0  0  0  0  0  0
  159.0200  212.9900  156.4100 C   0  0  0  0  0  2  0  0  0  0  0  0
  158.7960  213.5350  155.0800 N   0  0  0  0  0  1  0  0  0  0  0  0
  1  2  1  6  0  0  0
  1 38  1  0  0  0  0
  3  8  1  1  0  0  0
  3  2  1  0  0  0  0
  4  5  1  1  0  0  0
  4  3  1  0  0  0  0
  6  7  2  0  0  0  0
  7  4  1  0  0  0  0
  9 18  1  0  0  0  0
 11 16  1  0  0  0  0
 11 13  2  0  0  0  0
 12 10  2  0  0  0  0
 12 15  1  0  0  0  0
 13 14  1  0  0  0  0
 14 15  2  0  0  0  0
 16  8  1  6  0  0  0
 16 12  1  0  0  0  0
 17  9  2  0  0  0  0
 17 11  1  0  0  0  0
 18 13  1  0  0  0  0
 19 20  1  0  0  0  0
 19  9  1  0  0  0  0
 21  1  1  0  0  0  0
 21 22  1  0  0  0  0
 23 24  2  0  0  0  0
 23 22  1  0  0  0  0
 25 26  1  1  0  0  0
 25 23  1  0  0  0  0
 27 34  1  6  0  0  0
 27 25  1  0  0  0  0
 29 28  2  0  0  0  0
 30 28  1  0  0  0  0
 31 32  2  0  0  0  0
 31 33  1  0  0  0  0
 32 29  1  0  0  0  0
 33 27  1  0  0  0  0
 33 30  2  0  0  0  0
 35 36  1  0  0  0  0
 36 34  1  0  0  0  0
 37 36  2  0  0  0  0
 38 39  1  0  0  0  0
 39 40  2  0  0  0  0
 40 41  1  0  0  0  0
 41 42  1  0  0  0  0
 42 43  1  0  0  0  0
 44 43  1  0  0  0  0
 44 45  1  0  0  0  0
 46 45  1  0  0  0  0
 47 46  1  0  0  0  0
M  END
>  <MODEL>
4

>  <REMARK>
 VINA RESULT:      -6.2      2.694      6.788
  Name = 
  23 active torsions:
  status: ('A' for Active; 'I' for Inactive)
    1  A    between atoms: C_1  and  C_4
    2  A    between atoms: C_2  and  C_12
    3  A    between atoms: C_2  and  O_22
    4  A    between atoms: C_2  and  C_41
    5  A    between atoms: N_3  and  C_19
    6  A    between atoms: N_3  and  C_33
    7  A    between atoms: C_5  and  C_6
    8  A    between atoms: C_6  and  C_30
    9  A    between atoms: C_8  and  C_25
   10  A    between atoms: C_8  and  C_34
   11  A    between atoms: C_10  and  C_19
   12  A    between atoms: C_10  and  C_47
   13  A    between atoms: C_12  and  C_36
   14  A    between atoms: C_16  and  C_33
   15  A    between atoms: C_17  and  C_30
   16  A    between atoms: C_17  and  C_31
   17  A    between atoms: O_22  and  C_26
   18  A    between atoms: C_25  and  C_35
   19  A    between atoms: C_25  and  C_40
   20  A    between atoms: C_30  and  C_35
   21  A    between atoms: C_31  and  C_36
   22  A    between atoms: C_40  and  C_45
   23  A    between atoms: C_42  and  C_47
                            x       y       z     vdW  Elec       q    Type
                         _______ _______ _______ _____ _____    ______ ____

>  <TORSDO>
F 23

$$$$
=
 OpenBabel11052410393D

 47 49  0  0  1  0  0  0  0  0999 V2000
  161.4040  208.6520  151.7200 C   0  0  2  0  0  3  0  0  0  0  0  0
  160.5870  207.4990  151.1240 C   0  0  0  0  0  2  0  0  0  0  0  0
  161.4030  206.2040  151.0100 C   0  0  1  0  0  3  0  0  0  0  0  0
  161.6730  205.6070  152.4110 C   0  0  1  0  0  3  0  0  0  0  0  0
  163.1030  205.7920  152.8990 C   0  0  0  0  0  1  0  0  0  0  0  0
  161.1280  206.6540  154.4730 O   0  0  0  0  0  0  0  0  0  0  0  0
  160.7190  206.1550  153.4340 C   0  0  0  0  0  3  0  0  0  0  0  0
  160.6390  205.2670  150.0720 C   0  0  0  0  0  2  0  0  0  0  0  0
  161.4370  204.0300  146.0530 C   0  0  0  0  0  0  0  0  0  0  0  0
  160.3220  202.6790  151.5460 O   0  0  0  0  0  0  0  0  0  0  0  0
  161.3700  203.7640  148.2140 C   0  0  0  0  0  0  0  0  0  0  0  0
  160.7170  202.6620  150.3510 C   0  0  0  0  0  0  0  0  0  0  0  0
  161.2700  202.5580  147.5780 C   0  0  0  0  0  0  0  0  0  0  0  0
  161.0300  201.3030  148.3070 C   0  0  0  0  0  3  0  0  0  0  0  0
  160.7580  201.3630  149.6200 C   0  0  0  0  0  3  0  0  0  0  0  0
  161.2840  203.9230  149.7030 C   0  0  2  0  0  3  0  0  0  0  0  0
  161.4800  204.7370  147.2490 C   0  0  0  0  0  2  0  0  0  0  0  0
  161.2840  202.6990  146.2400 N   0  0  0  0  0  0  0  0  0  0  0  0
  161.2820  204.7050  144.7220 C   0  0  0  0  0  2  0  0  0  0  0  0
  160.4810  205.9940  144.8460 C   0  0  0  0  0  1  0  0  0  0  0  0
  160.5110  209.7060  152.3830 C   0  0  0  0  0  2  0  0  0  0  0  0
  161.1010  210.2840  153.6590 C   0  0  0  0  0  2  0  0  0  0  0  0
  160.3890  211.5240  154.1150 C   0  0  0  0  0  0  0  0  0  0  0  0
  160.7030  212.0250  155.1840 O   0  0  0  0  0  0  0  0  0  0  0  0
  159.4190  212.2370  153.2080 C   0  0  2  0  0  3  0  0  0  0  0  0
  160.1210  212.8800  152.1870 O   0  0  0  0  0  1  0  0  0  0  0  0
  158.5410  213.2320  153.9840 C   0  0  2  0  0  3  0  0  0  0  0  0
  155.9840  210.8170  155.2870 C   0  0  0  0  0  3  0  0  0  0  0  0
  155.4780  211.4850  156.4010 C   0  0  0  0  0  3  0  0  0  0  0  0
  156.9770  211.3700  154.5440 N   0  0  0  0  0  0  0  0  0  0  0  0
  157.0280  213.2880  155.9700 C   0  0  0  0  0  3  0  0  0  0  0  0
  156.0030  212.7320  156.7390 C   0  0  0  0  0  3  0  0  0  0  0  0
  157.5140  212.5840  154.8660 C   0  0  0  0  0  0  0  0  0  0  0  0
  157.9740  214.2520  153.1490 O   0  0  0  0  0  0  0  0  0  0  0  0
  157.1120  213.8040  150.9070 N   0  0  0  0  0  1  0  0  0  0  0  0
  156.8840  214.0630  152.2880 C   0  0  0  0  0  0  0  0  0  0  0  0
  155.7020  214.1200  152.7210 O   0  0  0  0  0  0  0  0  0  0  0  0
  162.3710  209.2300  150.6940 C   0  0  0  0  0  2  0  0  0  0  0  0
  161.8280  210.4690  150.0480 C   0  0  0  0  0  3  0  0  0  0  0  0
  162.1400  210.7800  148.7890 C   0  0  0  0  0  3  0  0  0  0  0  0
  161.5490  211.9840  148.1240 C   0  0  0  0  0  2  0  0  0  0  0  0
  162.6440  212.8460  147.5140 C   0  0  0  0  0  2  0  0  0  0  0  0
  162.0330  213.9670  146.6800 C   0  0  0  0  0  2  0  0  0  0  0  0
  160.6060  214.0890  146.9450 N   0  0  0  0  0  2  0  0  0  0  0  0
  159.9210  214.1600  145.6620 C   0  0  0  0  0  2  0  0  0  0  0  0
  159.0450  212.9370  145.4590 C   0  0  0  0  0  2  0  0  0  0  0  0
  159.5660  212.1290  144.3670 N   0  0  0  0  0  1  0  0  0  0  0  0
  1 38  1  6  0  0  0
  1 21  1  0  0  0  0
  2  1  1  0  0  0  0
  3  8  1  6  0  0  0
  3  2  1  0  0  0  0
  3  4  1  0  0  0  0
  4  5  1  1  0  0  0
  4  7  1  0  0  0  0
  7  6  2  0  0  0  0
  9 18  2  0  0  0  0
  9 17  1  0  0  0  0
 11 16  1  0  0  0  0
 12 10  2  0  0  0  0
 13 11  2  0  0  0  0
 13 14  1  0  0  0  0
 14 15  2  0  0  0  0
 15 12  1  0  0  0  0
 16  8  1  6  0  0  0
 16 12  1  0  0  0  0
 17 11  1  0  0  0  0
 18 13  1  0  0  0  0
 19 20  1  0  0  0  0
 19  9  1  0  0  0  0
 21 22  1  0  0  0  0
 22 23  1  0  0  0  0
 23 24  2  0  0  0  0
 25 26  1  6  0  0  0
 25 27  1  0  0  0  0
 25 23  1  0  0  0  0
 27 34  1  6  0  0  0
 27 33  1  0  0  0  0
 28 29  1  0  0  0  0
 29 32  2  0  0  0  0
 30 33  1  0  0  0  0
 30 28  2  0  0  0  0
 31 32  1  0  0  0  0
 33 31  2  0  0  0  0
 35 36  1  0  0  0  0
 36 37  2  0  0  0  0
 36 34  1  0  0  0  0
 39 38  1  0  0  0  0
 40 39  2  0  0  0  0
 41 40  1  0  0  0  0
 42 41  1  0  0  0  0
 43 44  1  0  0  0  0
 43 42  1  0  0  0  0
 45 44  1  0  0  0  0
 46 45  1  0  0  0  0
 47 46  1  0  0  0  0
M  END
>  <MODEL>
5

>  <REMARK>
 VINA RESULT:      -6.1      2.470      4.820
  Name = 
  23 active torsions:
  status: ('A' for Active; 'I' for Inactive)
    1  A    between atoms: C_1  and  C_4
    2  A    between atoms: C_2  and  C_12
    3  A    between atoms: C_2  and  O_22
    4  A    between atoms: C_2  and  C_41
    5  A    between atoms: N_3  and  C_19
    6  A    between atoms: N_3  and  C_33
    7  A    between atoms: C_5  and  C_6
    8  A    between atoms: C_6  and  C_30
    9  A    between atoms: C_8  and  C_25
   10  A    between atoms: C_8  and  C_34
   11  A    between atoms: C_10  and  C_19
   12  A    between atoms: C_10  and  C_47
   13  A    between atoms: C_12  and  C_36
   14  A    between atoms: C_16  and  C_33
   15  A    between atoms: C_17  and  C_30
   16  A    between atoms: C_17  and  C_31
   17  A    between atoms: O_22  and  C_26
   18  A    between atoms: C_25  and  C_35
   19  A    between atoms: C_25  and  C_40
   20  A    between atoms: C_30  and  C_35
   21  A    between atoms: C_31  and  C_36
   22  A    between atoms: C_40  and  C_45
   23  A    between atoms: C_42  and  C_47
                            x       y       z     vdW  Elec       q    Type
                         _______ _______ _______ _____ _____    ______ ____

>  <TORSDO>
F 23

$$$$
=
 OpenBabel11052410393D

 47 49  0  0  1  0  0  0  0  0999 V2000
  161.3280  208.8470  152.2770 C   0  0  2  0  0  3  0  0  0  0  0  0
  161.7220  209.8950  153.3250 C   0  0  0  0  0  2  0  0  0  0  0  0
  160.6870  210.0080  154.4530 C   0  0  1  0  0  3  0  0  0  0  0  0
  161.2640  210.8150  155.6400 C   0  0  1  0  0  3  0  0  0  0  0  0
  160.6600  210.4500  156.9890 C   0  0  0  0  0  1  0  0  0  0  0  0
  163.3470  210.7590  156.7810 O   0  0  0  0  0  0  0  0  0  0  0  0
  162.7590  210.6940  155.7100 C   0  0  0  0  0  3  0  0  0  0  0  0
  159.4200  210.6160  153.8470 C   0  0  0  0  0  2  0  0  0  0  0  0
  156.2160  212.2490  156.1660 C   0  0  0  0  0  0  0  0  0  0  0  0
  159.9900  212.7640  151.8380 O   0  0  0  0  0  0  0  0  0  0  0  0
  157.9410  212.3670  154.8420 C   0  0  0  0  0  0  0  0  0  0  0  0
  159.1860  212.9980  152.7780 C   0  0  0  0  0  0  0  0  0  0  0  0
  157.1220  213.4470  154.6610 C   0  0  0  0  0  0  0  0  0  0  0  0
  157.3670  214.4510  153.6160 C   0  0  0  0  0  3  0  0  0  0  0  0
  158.3410  214.2260  152.7200 C   0  0  0  0  0  3  0  0  0  0  0  0
  159.1770  212.1220  154.0290 C   0  0  2  0  0  3  0  0  0  0  0  0
  157.3780  211.5740  155.8140 C   0  0  0  0  0  2  0  0  0  0  0  0
  156.0350  213.3830  155.4510 N   0  0  0  0  0  0  0  0  0  0  0  0
  155.1520  211.6310  157.0250 C   0  0  0  0  0  2  0  0  0  0  0  0
  154.6150  210.3490  156.4030 C   0  0  0  0  0  1  0  0  0  0  0  0
  161.4150  207.4200  152.8310 C   0  0  0  0  0  2  0  0  0  0  0  0
  162.2830  206.4960  151.9920 C   0  0  0  0  0  2  0  0  0  0  0  0
  161.4760  205.5680  151.1330 C   0  0  0  0  0  0  0  0  0  0  0  0
  160.9180  204.6150  151.6570 O   0  0  0  0  0  0  0  0  0  0  0  0
  161.2190  205.8830  149.6820 C   0  0  2  0  0  3  0  0  0  0  0  0
  159.9440  206.4340  149.5430 O   0  0  0  0  0  1  0  0  0  0  0  0
  161.3810  204.6390  148.7920 C   0  0  2  0  0  3  0  0  0  0  0  0
  160.6690  205.7700  145.2870 C   0  0  0  0  0  3  0  0  0  0  0  0
  161.8020  205.3430  144.5970 C   0  0  0  0  0  3  0  0  0  0  0  0
  160.5600  205.5650  146.6250 N   0  0  0  0  0  0  0  0  0  0  0  0
  162.6990  204.5000  146.6760 C   0  0  0  0  0  3  0  0  0  0  0  0
  162.8210  204.7000  145.2990 C   0  0  0  0  0  3  0  0  0  0  0  0
  161.5520  204.9490  147.3340 C   0  0  0  0  0  0  0  0  0  0  0  0
  160.3710  203.6470  149.0220 O   0  0  0  0  0  0  0  0  0  0  0  0
  161.0560  201.6570  150.2640 N   0  0  0  0  0  1  0  0  0  0  0  0
  160.6040  202.2660  149.0600 C   0  0  0  0  0  0  0  0  0  0  0  0
  160.4180  201.5520  148.0370 O   0  0  0  0  0  0  0  0  0  0  0  0
  162.1040  209.0450  150.9800 C   0  0  0  0  0  2  0  0  0  0  0  0
  161.9900  210.4500  150.4690 C   0  0  0  0  0  3  0  0  0  0  0  0
  162.2010  210.7310  149.1820 C   0  0  0  0  0  3  0  0  0  0  0  0
  162.0270  212.1230  148.6590 C   0  0  0  0  0  2  0  0  0  0  0  0
  161.0070  212.1430  147.5310 C   0  0  0  0  0  2  0  0  0  0  0  0
  160.5280  213.5670  147.2750 C   0  0  0  0  0  2  0  0  0  0  0  0
  160.7030  213.9260  145.8740 N   0  0  0  0  0  2  0  0  0  0  0  0
  162.1230  213.8250  145.5640 C   0  0  0  0  0  2  0  0  0  0  0  0
  162.4030  214.3720  144.1760 C   0  0  0  0  0  2  0  0  0  0  0  0
  163.7080  213.9200  143.7180 N   0  0  0  0  0  1  0  0  0  0  0  0
  1 38  1  6  0  0  0
  1 21  1  0  0  0  0
  1  2  1  0  0  0  0
  3  2  1  6  0  0  0
  3  4  1  0  0  0  0
  4  7  1  0  0  0  0
  4  5  1  1  0  0  0
  7  6  2  0  0  0  0
  8  3  1  0  0  0  0
  9 19  1  0  0  0  0
 10 12  2  0  0  0  0
 11 17  1  0  0  0  0
 12 16  1  0  0  0  0
 13 11  2  0  0  0  0
 13 18  1  0  0  0  0
 14 13  1  0  0  0  0
 15 12  1  0  0  0  0
 15 14  2  0  0  0  0
 16  8  1  6  0  0  0
 16 11  1  0  0  0  0
 17  9  1  0  0  0  0
 18  9  2  0  0  0  0
 20 19  1  0  0  0  0
 22 21  1  0  0  0  0
 23 24  2  0  0  0  0
 23 22  1  0  0  0  0
 25 26  1  1  0  0  0
 25 23  1  0  0  0  0
 27 34  1  6  0  0  0
 27 25  1  0  0  0  0
 28 30  1  0  0  0  0
 29 28  2  0  0  0  0
 29 32  1  0  0  0  0
 30 33  2  0  0  0  0
 31 33  1  0  0  0  0
 32 31  2  0  0  0  0
 33 27  1  0  0  0  0
 34 36  1  0  0  0  0
 36 35  1  0  0  0  0
 37 36  2  0  0  0  0
 39 38  1  0  0  0  0
 40 39  2  0  0  0  0
 41 40  1  0  0  0  0
 42 41  1  0  0  0  0
 43 42  1  0  0  0  0
 44 43  1  0  0  0  0
 45 44  1  0  0  0  0
 46 45  1  0  0  0  0
 47 46  1  0  0  0  0
M  END
>  <MODEL>
6

>  <REMARK>
 VINA RESULT:      -5.9      2.318      8.981
  Name = 
  23 active torsions:
  status: ('A' for Active; 'I' for Inactive)
    1  A    between atoms: C_1  and  C_4
    2  A    between atoms: C_2  and  C_12
    3  A    between atoms: C_2  and  O_22
    4  A    between atoms: C_2  and  C_41
    5  A    between atoms: N_3  and  C_19
    6  A    between atoms: N_3  and  C_33
    7  A    between atoms: C_5  and  C_6
    8  A    between atoms: C_6  and  C_30
    9  A    between atoms: C_8  and  C_25
   10  A    between atoms: C_8  and  C_34
   11  A    between atoms: C_10  and  C_19
   12  A    between atoms: C_10  and  C_47
   13  A    between atoms: C_12  and  C_36
   14  A    between atoms: C_16  and  C_33
   15  A    between atoms: C_17  and  C_30
   16  A    between atoms: C_17  and  C_31
   17  A    between atoms: O_22  and  C_26
   18  A    between atoms: C_25  and  C_35
   19  A    between atoms: C_25  and  C_40
   20  A    between atoms: C_30  and  C_35
   21  A    between atoms: C_31  and  C_36
   22  A    between atoms: C_40  and  C_45
   23  A    between atoms: C_42  and  C_47
                            x       y       z     vdW  Elec       q    Type
                         _______ _______ _______ _____ _____    ______ ____

>  <TORSDO>
F 23

$$$$
=
 OpenBabel11052410393D

 47 49  0  0  1  0  0  0  0  0999 V2000
  162.1810  207.9850  149.5760 C   0  0  2  0  0  3  0  0  0  0  0  0
  160.8250  207.3320  149.2830 C   0  0  0  0  0  2  0  0  0  0  0  0
  160.9560  206.1000  148.3770 C   0  0  1  0  0  3  0  0  0  0  0  0
  161.0310  206.5230  146.8920 C   0  0  1  0  0  3  0  0  0  0  0  0
  162.3560  206.1940  146.2190 C   0  0  0  0  0  1  0  0  0  0  0  0
  159.9850  205.8130  144.8800 O   0  0  0  0  0  0  0  0  0  0  0  0
  159.9030  205.9320  146.0940 C   0  0  0  0  0  3  0  0  0  0  0  0
  162.1740  205.3100  148.8600 C   0  0  0  0  0  2  0  0  0  0  0  0
  160.8120  201.7820  146.8540 C   0  0  0  0  0  0  0  0  0  0  0  0
  161.2340  204.9150  151.6770 O   0  0  0  0  0  0  0  0  0  0  0  0
  161.4020  202.9470  148.5980 C   0  0  0  0  0  0  0  0  0  0  0  0
  161.1200  203.9710  150.8510 C   0  0  0  0  0  0  0  0  0  0  0  0
  160.5320  201.9550  148.9550 C   0  0  0  0  0  0  0  0  0  0  0  0
  160.0120  201.8220  150.3240 C   0  0  0  0  0  3  0  0  0  0  0  0
  160.2870  202.7870  151.2140 C   0  0  0  0  0  3  0  0  0  0  0  0
  161.9370  203.9640  149.5620 C   0  0  2  0  0  3  0  0  0  0  0  0
  161.6020  202.8580  147.2400 C   0  0  0  0  0  3  0  0  0  0  0  0
  160.1330  201.2370  147.8890 N   0  0  0  0  0  2  0  0  0  0  0  0
  160.5270  201.4660  145.4160 C   0  0  0  0  0  2  0  0  0  0  0  0
  159.3690  202.3000  144.8850 C   0  0  0  0  0  1  0  0  0  0  0  0
  162.3350  208.3500  151.0570 C   0  0  0  0  0  2  0  0  0  0  0  0
  161.0100  208.5090  151.7820 C   0  0  0  0  0  2  0  0  0  0  0  0
  160.9650  209.7410  152.6390 C   0  0  0  0  0  0  0  0  0  0  0  0
  161.9980  210.3650  152.8280 O   0  0  0  0  0  0  0  0  0  0  0  0
  159.6520  210.2960  153.1260 C   0  0  2  0  0  3  0  0  0  0  0  0
  159.2890  211.3930  152.3420 O   0  0  0  0  0  1  0  0  0  0  0  0
  159.7140  210.6800  154.6150 C   0  0  2  0  0  3  0  0  0  0  0  0
  161.9730  208.7350  156.8910 C   0  0  0  0  0  3  0  0  0  0  0  0
  161.3170  207.5080  156.9900 C   0  0  0  0  0  3  0  0  0  0  0  0
  161.4390  209.7440  156.1570 N   0  0  0  0  0  0  0  0  0  0  0  0
  159.5660  208.3780  155.5710 C   0  0  0  0  0  3  0  0  0  0  0  0
  160.1070  207.3310  156.3200 C   0  0  0  0  0  3  0  0  0  0  0  0
  160.2480  209.5950  155.5030 C   0  0  0  0  0  0  0  0  0  0  0  0
  158.4820  211.2270  155.1070 O   0  0  0  0  0  0  0  0  0  0  0  0
  159.2430  213.5490  155.1860 N   0  0  0  0  0  1  0  0  0  0  0  0
  158.3260  212.5360  155.5840 C   0  0  0  0  0  0  0  0  0  0  0  0
  157.3820  212.8280  156.3670 O   0  0  0  0  0  0  0  0  0  0  0  0
  162.4470  209.1510  148.6310 C   0  0  0  0  0  2  0  0  0  0  0  0
  161.8350  210.4260  149.1270 C   0  0  0  0  0  3  0  0  0  0  0  0
  162.0450  211.5810  148.4940 C   0  0  0  0  0  3  0  0  0  0  0  0
  161.3840  212.8430  148.9530 C   0  0  0  0  0  2  0  0  0  0  0  0
  161.3200  213.8530  147.8180 C   0  0  0  0  0  2  0  0  0  0  0  0
  161.9040  213.2560  146.5420 C   0  0  0  0  0  2  0  0  0  0  0  0
  160.9750  213.4040  145.4310 N   0  0  0  0  0  2  0  0  0  0  0  0
  159.6330  213.5190  145.9860 C   0  0  0  0  0  2  0  0  0  0  0  0
  158.6850  212.5600  145.2900 C   0  0  0  0  0  2  0  0  0  0  0  0
  157.4980  212.3550  146.1050 N   0  0  0  0  0  1  0  0  0  0  0  0
  1 38  1  6  0  0  0
  1 21  1  0  0  0  0
  2  1  1  0  0  0  0
  3  8  1  1  0  0  0
  3  2  1  0  0  0  0
  4  5  1  6  0  0  0
  4  3  1  0  0  0  0
  6  7  2  0  0  0  0
  7  4  1  0  0  0  0
  9 17  2  0  0  0  0
  9 18  1  0  0  0  0
 11 13  2  0  0  0  0
 11 16  1  0  0  0  0
 12 15  1  0  0  0  0
 12 10  2  0  0  0  0
 13 14  1  0  0  0  0
 14 15  2  0  0  0  0
 16  8  1  6  0  0  0
 16 12  1  0  0  0  0
 17 11  1  0  0  0  0
 18 13  1  0  0  0  0
 19  9  1  0  0  0  0
 20 19  1  0  0  0  0
 21 22  1  0  0  0  0
 22 23  1  0  0  0  0
 23 24  2  0  0  0  0
 23 25  1  0  0  0  0
 25 26  1  6  0  0  0
 25 27  1  0  0  0  0
 27 34  1  1  0  0  0
 27 33  1  0  0  0  0
 28 29  1  0  0  0  0
 30 28  2  0  0  0  0
 31 32  1  0  0  0  0
 32 29  2  0  0  0  0
 33 31  2  0  0  0  0
 33 30  1  0  0  0  0
 34 36  1  0  0  0  0
 35 36  1  0  0  0  0
 36 37  2  0  0  0  0
 38 39  1  0  0  0  0
 40 41  1  0  0  0  0
 40 39  2  0  0  0  0
 42 41  1  0  0  0  0
 43 42  1  0  0  0  0
 44 45  1  0  0  0  0
 44 43  1  0  0  0  0
 46 45  1  0  0  0  0
 46 47  1  0  0  0  0
M  END
>  <MODEL>
7

>  <REMARK>
 VINA RESULT:      -5.5      1.964      3.978
  Name = 
  23 active torsions:
  status: ('A' for Active; 'I' for Inactive)
    1  A    between atoms: C_1  and  C_4
    2  A    between atoms: C_2  and  C_12
    3  A    between atoms: C_2  and  O_22
    4  A    between atoms: C_2  and  C_41
    5  A    between atoms: N_3  and  C_19
    6  A    between atoms: N_3  and  C_33
    7  A    between atoms: C_5  and  C_6
    8  A    between atoms: C_6  and  C_30
    9  A    between atoms: C_8  and  C_25
   10  A    between atoms: C_8  and  C_34
   11  A    between atoms: C_10  and  C_19
   12  A    between atoms: C_10  and  C_47
   13  A    between atoms: C_12  and  C_36
   14  A    between atoms: C_16  and  C_33
   15  A    between atoms: C_17  and  C_30
   16  A    between atoms: C_17  and  C_31
   17  A    between atoms: O_22  and  C_26
   18  A    between atoms: C_25  and  C_35
   19  A    between atoms: C_25  and  C_40
   20  A    between atoms: C_30  and  C_35
   21  A    between atoms: C_31  and  C_36
   22  A    between atoms: C_40  and  C_45
   23  A    between atoms: C_42  and  C_47
                            x       y       z     vdW  Elec       q    Type
                         _______ _______ _______ _____ _____    ______ ____

>  <TORSDO>
F 23

$$$$
=
 OpenBabel11052410393D

 47 49  0  0  1  0  0  0  0  0999 V2000
  161.2690  209.7580  150.7730 C   0  0  2  0  0  3  0  0  0  0  0  0
  160.7310  209.7690  152.2090 C   0  0  0  0  0  2  0  0  0  0  0  0
  161.0970  211.0580  152.9580 C   0  0  1  0  0  3  0  0  0  0  0  0
  159.8380  211.6880  153.6000 C   0  0  1  0  0  3  0  0  0  0  0  0
  159.5290  213.0960  153.1090 C   0  0  0  0  0  1  0  0  0  0  0  0
  157.7980  210.6910  154.2990 O   0  0  0  0  0  0  0  0  0  0  0  0
  158.6300  210.8150  153.4120 C   0  0  0  0  0  3  0  0  0  0  0  0
  162.1950  210.7040  153.9620 C   0  0  0  0  0  2  0  0  0  0  0  0
  160.9270  206.6250  154.2420 C   0  0  0  0  0  0  0  0  0  0  0  0
  160.8490  212.0120  156.2980 O   0  0  0  0  0  0  0  0  0  0  0  0
  161.3330  208.6140  155.0300 C   0  0  0  0  0  0  0  0  0  0  0  0
  160.7980  210.7590  156.1800 C   0  0  0  0  0  0  0  0  0  0  0  0
  160.3660  207.9930  155.7710 C   0  0  0  0  0  0  0  0  0  0  0  0
  159.6540  208.6740  156.8610 C   0  0  0  0  0  3  0  0  0  0  0  0
  159.8560  209.9880  157.0420 C   0  0  0  0  0  3  0  0  0  0  0  0
  161.7860  210.0230  155.2780 C   0  0  2  0  0  3  0  0  0  0  0  0
  161.7160  207.7490  154.0320 C   0  0  0  0  0  3  0  0  0  0  0  0
  160.0800  206.7710  155.2870 N   0  0  0  0  0  2  0  0  0  0  0  0
  160.8280  205.5110  153.2430 C   0  0  0  0  0  2  0  0  0  0  0  0
  161.9710  205.5660  152.2370 C   0  0  0  0  0  1  0  0  0  0  0  0
  161.9650  208.4350  150.4310 C   0  0  0  0  0  2  0  0  0  0  0  0
  161.8830  208.0720  148.9570 C   0  0  0  0  0  2  0  0  0  0  0  0
  161.2720  206.7200  148.7290 C   0  0  0  0  0  0  0  0  0  0  0  0
  160.0740  206.5750  148.9240 O   0  0  0  0  0  0  0  0  0  0  0  0
  162.0750  205.6010  148.1180 C   0  0  2  0  0  3  0  0  0  0  0  0
  162.9270  206.1180  147.1410 O   0  0  0  0  0  1  0  0  0  0  0  0
  161.1690  204.5030  147.5360 C   0  0  2  0  0  3  0  0  0  0  0  0
  160.8350  202.3200  150.5670 C   0  0  0  0  0  3  0  0  0  0  0  0
  160.9940  201.0410  150.0360 C   0  0  0  0  0  3  0  0  0  0  0  0
  160.8640  203.4100  149.7580 N   0  0  0  0  0  0  0  0  0  0  0  0
  161.2100  202.0250  147.8400 C   0  0  0  0  0  3  0  0  0  0  0  0
  161.1870  200.8970  148.6620 C   0  0  0  0  0  3  0  0  0  0  0  0
  161.0390  203.2900  148.4090 C   0  0  0  0  0  0  0  0  0  0  0  0
  161.4960  204.1640  146.1800 O   0  0  0  0  0  0  0  0  0  0  0  0
  160.6350  205.9080  144.7000 N   0  0  0  0  0  1  0  0  0  0  0  0
  160.7390  204.5350  145.0610 C   0  0  0  0  0  0  0  0  0  0  0  0
  160.1450  203.6650  144.3670 O   0  0  0  0  0  0  0  0  0  0  0  0
  162.1260  210.9870  150.4960 C   0  0  0  0  0  2  0  0  0  0  0  0
  161.5540  211.8330  149.3970 C   0  0  0  0  0  3  0  0  0  0  0  0
  162.0510  211.7800  148.1610 C   0  0  0  0  0  3  0  0  0  0  0  0
  161.4410  212.5770  147.0510 C   0  0  0  0  0  2  0  0  0  0  0  0
  159.9420  212.7250  147.2630 C   0  0  0  0  0  2  0  0  0  0  0  0
  159.2110  212.6930  145.9260 C   0  0  0  0  0  2  0  0  0  0  0  0
  160.0440  212.0860  144.8970 N   0  0  0  0  0  2  0  0  0  0  0  0
  159.6470  212.6500  143.6140 C   0  0  0  0  0  2  0  0  0  0  0  0
  160.8530  213.2170  142.8870 C   0  0  0  0  0  2  0  0  0  0  0  0
  161.8960  212.2070  142.7930 N   0  0  0  0  0  1  0  0  0  0  0  0
  1 21  1  1  0  0  0
  1  2  1  0  0  0  0
  3  2  1  1  0  0  0
  3  4  1  0  0  0  0
  3  8  1  0  0  0  0
  4  5  1  6  0  0  0
  7  4  1  0  0  0  0
  7  6  2  0  0  0  0
  9 18  1  0  0  0  0
 11 16  1  0  0  0  0
 11 13  2  0  0  0  0
 12 10  2  0  0  0  0
 12 15  1  0  0  0  0
 13 14  1  0  0  0  0
 14 15  2  0  0  0  0
 16  8  1  6  0  0  0
 16 12  1  0  0  0  0
 17  9  2  0  0  0  0
 17 11  1  0  0  0  0
 18 13  1  0  0  0  0
 19  9  1  0  0  0  0
 20 19  1  0  0  0  0
 22 21  1  0  0  0  0
 23 24  2  0  0  0  0
 23 22  1  0  0  0  0
 25 26  1  6  0  0  0
 25 23  1  0  0  0  0
 27 34  1  6  0  0  0
 27 25  1  0  0  0  0
 27 33  1  0  0  0  0
 29 28  1  0  0  0  0
 30 28  2  0  0  0  0
 31 33  2  0  0  0  0
 31 32  1  0  0  0  0
 32 29  2  0  0  0  0
 33 30  1  0  0  0  0
 35 36  1  0  0  0  0
 36 34  1  0  0  0  0
 37 36  2  0  0  0  0
 38  1  1  0  0  0  0
 39 38  1  0  0  0  0
 40 39  2  0  0  0  0
 41 42  1  0  0  0  0
 41 40  1  0  0  0  0
 43 42  1  0  0  0  0
 44 43  1  0  0  0  0
 45 44  1  0  0  0  0
 46 45  1  0  0  0  0
 47 46  1  0  0  0  0
M  END
>  <MODEL>
8

>  <REMARK>
 VINA RESULT:      -5.1      1.986      8.289
  Name = 
  23 active torsions:
  status: ('A' for Active; 'I' for Inactive)
    1  A    between atoms: C_1  and  C_4
    2  A    between atoms: C_2  and  C_12
    3  A    between atoms: C_2  and  O_22
    4  A    between atoms: C_2  and  C_41
    5  A    between atoms: N_3  and  C_19
    6  A    between atoms: N_3  and  C_33
    7  A    between atoms: C_5  and  C_6
    8  A    between atoms: C_6  and  C_30
    9  A    between atoms: C_8  and  C_25
   10  A    between atoms: C_8  and  C_34
   11  A    between atoms: C_10  and  C_19
   12  A    between atoms: C_10  and  C_47
   13  A    between atoms: C_12  and  C_36
   14  A    between atoms: C_16  and  C_33
   15  A    between atoms: C_17  and  C_30
   16  A    between atoms: C_17  and  C_31
   17  A    between atoms: O_22  and  C_26
   18  A    between atoms: C_25  and  C_35
   19  A    between atoms: C_25  and  C_40
   20  A    between atoms: C_30  and  C_35
   21  A    between atoms: C_31  and  C_36
   22  A    between atoms: C_40  and  C_45
   23  A    between atoms: C_42  and  C_47
                            x       y       z     vdW  Elec       q    Type
                         _______ _______ _______ _____ _____    ______ ____

>  <TORSDO>
F 23

$$$$
=
 OpenBabel11052410393D

 47 49  0  0  1  0  0  0  0  0999 V2000
  162.1200  208.9260  149.5090 C   0  0  2  0  0  3  0  0  0  0  0  0
  160.8320  208.4470  150.1890 C   0  0  0  0  0  2  0  0  0  0  0  0
  160.9590  208.4090  151.7180 C   0  0  1  0  0  3  0  0  0  0  0  0
  161.4300  207.0130  152.1880 C   0  0  1  0  0  3  0  0  0  0  0  0
  160.8990  206.6080  153.5570 C   0  0  0  0  0  1  0  0  0  0  0  0
  161.8330  204.9990  150.9930 O   0  0  0  0  0  0  0  0  0  0  0  0
  161.0880  205.9500  151.1830 C   0  0  0  0  0  3  0  0  0  0  0  0
  161.8960  209.5490  152.1230 C   0  0  0  0  0  2  0  0  0  0  0  0
  161.0160  209.1000  156.2880 C   0  0  0  0  0  0  0  0  0  0  0  0
  160.0360  211.7310  151.2510 O   0  0  0  0  0  0  0  0  0  0  0  0
  161.0750  210.1810  154.3980 C   0  0  0  0  0  0  0  0  0  0  0  0
  160.1340  211.4570  152.4760 C   0  0  0  0  0  0  0  0  0  0  0  0
  160.0610  210.6490  155.1870 C   0  0  0  0  0  0  0  0  0  0  0  0
  159.1030  211.6600  154.7170 C   0  0  0  0  0  3  0  0  0  0  0  0
  159.1370  212.0300  153.4280 C   0  0  0  0  0  3  0  0  0  0  0  0
  161.3330  210.6740  153.0050 C   0  0  2  0  0  3  0  0  0  0  0  0
  161.7120  209.1760  155.0880 C   0  0  0  0  0  3  0  0  0  0  0  0
  159.9890  209.9780  156.3510 N   0  0  0  0  0  2  0  0  0  0  0  0
  161.2060  207.9740  157.2610 C   0  0  0  0  0  2  0  0  0  0  0  0
  160.0820  206.9530  157.1530 C   0  0  0  0  0  1  0  0  0  0  0  0
  161.8710  210.1250  148.5860 C   0  0  0  0  0  2  0  0  0  0  0  0
  162.2330  211.4600  149.2160 C   0  0  0  0  0  2  0  0  0  0  0  0
  162.7950  212.4340  148.2220 C   0  0  0  0  0  0  0  0  0  0  0  0
  163.7130  212.0750  147.5000 O   0  0  0  0  0  0  0  0  0  0  0  0
  162.1420  213.7730  147.9980 C   0  0  2  0  0  3  0  0  0  0  0  0
  161.5850  214.2270  149.1950 O   0  0  0  0  0  1  0  0  0  0  0  0
  161.0820  213.7110  146.8850 C   0  0  2  0  0  3  0  0  0  0  0  0
  157.5100  212.5700  146.9840 C   0  0  0  0  0  3  0  0  0  0  0  0
  157.0810  213.0330  148.2270 C   0  0  0  0  0  3  0  0  0  0  0  0
  158.7920  212.7670  146.5810 N   0  0  0  0  0  0  0  0  0  0  0  0
  159.3020  213.8960  148.6260 C   0  0  0  0  0  3  0  0  0  0  0  0
  157.9850  213.7040  149.0490 C   0  0  0  0  0  3  0  0  0  0  0  0
  159.6970  213.4110  147.3770 C   0  0  0  0  0  0  0  0  0  0  0  0
  161.4650  212.8650  145.7910 O   0  0  0  0  0  0  0  0  0  0  0  0
  163.0590  212.9620  143.9400 N   0  0  0  0  0  1  0  0  0  0  0  0
  161.8060  213.3240  144.5110 C   0  0  0  0  0  0  0  0  0  0  0  0
  161.0160  214.0570  143.8560 O   0  0  0  0  0  0  0  0  0  0  0  0
  162.8460  207.7720  148.8270 C   0  0  0  0  0  2  0  0  0  0  0  0
  162.0340  207.1800  147.7140 C   0  0  0  0  0  3  0  0  0  0  0  0
  162.5100  206.1760  146.9770 C   0  0  0  0  0  3  0  0  0  0  0  0
  161.6770  205.5430  145.9060 C   0  0  0  0  0  2  0  0  0  0  0  0
  160.8320  204.4190  146.4850 C   0  0  0  0  0  2  0  0  0  0  0  0
  161.5180  203.8130  147.7040 C   0  0  0  0  0  2  0  0  0  0  0  0
  161.7310  202.3840  147.5190 N   0  0  0  0  0  2  0  0  0  0  0  0
  160.5040  201.6990  147.9040 C   0  0  0  0  0  2  0  0  0  0  0  0
  160.2600  201.8450  149.3950 C   0  0  0  0  0  2  0  0  0  0  0  0
  161.2040  201.0220  150.1350 N   0  0  0  0  0  1  0  0  0  0  0  0
  1 21  1  6  0  0  0
  1  2  1  0  0  0  0
  3  2  1  6  0  0  0
  3  8  1  0  0  0  0
  3  4  1  0  0  0  0
  4  5  1  1  0  0  0
  6  7  2  0  0  0  0
  7  4  1  0  0  0  0
  9 18  1  0  0  0  0
  9 19  1  0  0  0  0
 10 12  2  0  0  0  0
 11 17  1  0  0  0  0
 11 13  2  0  0  0  0
 12 16  1  0  0  0  0
 12 15  1  0  0  0  0
 13 18  1  0  0  0  0
 14 13  1  0  0  0  0
 15 14  2  0  0  0  0
 16  8  1  6  0  0  0
 16 11  1  0  0  0  0
 17  9  2  0  0  0  0
 20 19  1  0  0  0  0
 21 22  1  0  0  0  0
 23 22  1  0  0  0  0
 24 23  2  0  0  0  0
 25 23  1  0  0  0  0
 25 26  1  1  0  0  0
 27 34  1  6  0  0  0
 27 33  1  0  0  0  0
 27 25  1  0  0  0  0
 28 29  1  0  0  0  0
 29 32  2  0  0  0  0
 30 28  2  0  0  0  0
 30 33  1  0  0  0  0
 31 32  1  0  0  0  0
 33 31  2  0  0  0  0
 35 36  1  0  0  0  0
 36 34  1  0  0  0  0
 37 36  2  0  0  0  0
 38  1  1  0  0  0  0
 39 38  1  0  0  0  0
 40 39  2  0  0  0  0
 41 42  1  0  0  0  0
 41 40  1  0  0  0  0
 42 43  1  0  0  0  0
 44 43  1  0  0  0  0
 44 45  1  0  0  0  0
 45 46  1  0  0  0  0
 46 47  1  0  0  0  0
M  END
>  <MODEL>
9

>  <REMARK>
 VINA RESULT:      -5.1      2.828      8.095
  Name = 
  23 active torsions:
  status: ('A' for Active; 'I' for Inactive)
    1  A    between atoms: C_1  and  C_4
    2  A    between atoms: C_2  and  C_12
    3  A    between atoms: C_2  and  O_22
    4  A    between atoms: C_2  and  C_41
    5  A    between atoms: N_3  and  C_19
    6  A    between atoms: N_3  and  C_33
    7  A    between atoms: C_5  and  C_6
    8  A    between atoms: C_6  and  C_30
    9  A    between atoms: C_8  and  C_25
   10  A    between atoms: C_8  and  C_34
   11  A    between atoms: C_10  and  C_19
   12  A    between atoms: C_10  and  C_47
   13  A    between atoms: C_12  and  C_36
   14  A    between atoms: C_16  and  C_33
   15  A    between atoms: C_17  and  C_30
   16  A    between atoms: C_17  and  C_31
   17  A    between atoms: O_22  and  C_26
   18  A    between atoms: C_25  and  C_35
   19  A    between atoms: C_25  and  C_40
   20  A    between atoms: C_30  and  C_35
   21  A    between atoms: C_31  and  C_36
   22  A    between atoms: C_40  and  C_45
   23  A    between atoms: C_42  and  C_47
                            x       y       z     vdW  Elec       q    Type
                         _______ _______ _______ _____ _____    ______ ____

>  <TORSDO>
F 23

$$$$
