=
 OpenBabel11042421553D

 47 52  0  0  1  0  0  0  0  0999 V2000
  160.7410  203.9010  148.8410 C   0  0  2  0  0  3  0  0  0  0  0  0
  161.8890  208.0320  148.4330 C   0  0  0  0  0  0  0  0  0  0  0  0
  160.3900  206.3320  149.3110 C   0  0  0  0  0  3  0  0  0  0  0  0
  162.2700  205.6940  147.9210 C   0  0  0  0  0  3  0  0  0  0  0  0
  160.7580  207.6750  149.1900 C   0  0  0  0  0  3  0  0  0  0  0  0
  161.1460  205.3350  148.6830 C   0  0  0  0  0  0  0  0  0  0  0  0
  162.6420  207.0370  147.8050 C   0  0  0  0  0  3  0  0  0  0  0  0
  162.3270  209.4280  148.3290 C   0  0  0  0  0  3  0  0  0  0  0  0
  161.4810  210.3960  148.1740 N   0  0  0  0  0  0  0  0  0  0  0  0
  161.8910  211.7670  148.1060 C   0  0  0  0  0  0  0  0  0  0  0  0
  163.0160  212.1220  148.5520 O   0  0  0  0  0  0  0  0  0  0  0  0
  161.0300  212.7490  147.5310 N   0  0  0  0  0  2  0  0  0  0  0  0
  158.9790  212.7330  144.7520 C   0  0  1  0  0  3  0  0  0  0  0  0
  159.8860  211.8790  145.5820 C   0  0  0  0  0  2  0  0  0  0  0  0
  158.7470  213.9470  145.6150 C   0  0  2  0  0  3  0  0  0  0  0  0
  158.9110  213.5830  146.9610 O   0  0  0  0  0  0  0  0  0  0  0  0
  159.7210  212.4290  146.9830 C   0  0  2  0  0  3  0  0  0  0  0  0
  157.3960  214.4500  145.4080 N   0  0  0  0  0  1  0  0  0  0  0  0
  158.7570  213.7610  142.2640 O   0  0  0  0  0  0  0  0  0  0  0  0
  159.7760  213.1790  143.2130 S   0  0  0  0  0  0  0  0  0  0  0  0
  160.8320  214.2190  143.4930 O   0  0  0  0  0  0  0  0  0  0  0  0
  161.9290  212.1110  141.9590 C   0  0  0  0  0  1  0  0  0  0  0  0
  160.5400  211.7500  142.4590 C   0  0  0  0  0  2  0  0  0  0  0  0
  160.6980  203.4900  150.3140 C   0  0  0  0  0  2  0  0  0  0  0  0
  161.8370  204.1490  151.0880 C   0  0  0  0  0  2  0  0  0  0  0  0
  162.3930  206.0950  152.1050 O   0  0  0  0  0  0  0  0  0  0  0  0
  161.2110  205.8400  154.1390 C   0  0  0  0  0  2  0  0  0  0  0  0
  162.1520  206.7090  153.3490 C   0  0  2  0  0  3  0  0  0  0  0  0
  160.9100  204.7540  153.1620 C   0  0  0  0  0  2  0  0  0  0  0  0
  161.3350  205.2690  151.8730 N   0  0  0  0  0  0  0  0  0  0  0  0
  160.2150  209.9330  153.9470 C   0  0  0  0  0  0  0  0  0  0  0  0
  160.5300  210.6560  152.7900 C   0  0  0  0  0  3  0  0  0  0  0  0
  160.7430  208.6540  154.1360 C   0  0  0  0  0  3  0  0  0  0  0  0
  161.3770  210.1000  151.8280 C   0  0  0  0  0  3  0  0  0  0  0  0
  161.9050  208.8170  152.0180 C   0  0  0  0  0  3  0  0  0  0  0  0
  161.5900  208.0910  153.1720 C   0  0  0  0  0  0  0  0  0  0  0  0
  157.7300  212.2990  156.0230 C   0  0  1  0  0  3  0  0  0  0  0  0
  158.0040  210.9320  155.3610 C   0  0  2  0  0  0  0  0  0  0  0  0
  157.9860  212.2720  154.5950 C   0  0  0  0  0  2  0  0  0  0  0  0
  158.9080  210.5560  156.2380 O   0  0  0  0  0  0  0  0  0  0  0  0
  156.3570  212.4240  156.2550 O   0  0  0  0  0  1  0  0  0  0  0  0
  159.3710  210.5010  154.9440 N   0  0  0  0  0  0  0  0  0  0  0  0
  161.6660  203.0460  148.1130 N   0  0  0  0  0  2  0  0  0  0  0  0
  160.8820  201.9620  147.5390 C   0  0  0  0  0  2  0  0  0  0  0  0
  160.8600  202.1010  146.0560 C   0  0  0  0  0  0  0  0  0  0  0  0
  161.4270  203.2530  145.4380 N   0  0  0  0  0  1  0  0  0  0  0  0
  160.3020  201.2210  145.3520 O   0  0  0  0  0  0  0  0  0  0  0  0
  1 24  1  1  0  0  0
  2  5  1  0  0  0  0
  4  6  2  0  0  0  0
  5  3  2  0  0  0  0
  6  1  1  0  0  0  0
  6  3  1  0  0  0  0
  7  4  1  0  0  0  0
  7  2  2  0  0  0  0
  8  2  1  0  0  0  0
  9  8  2  0  0  0  0
 10  9  1  0  0  0  0
 10 11  2  0  0  0  0
 12 10  1  0  0  0  0
 13 20  1  6  0  0  0
 13 14  1  0  0  0  0
 13 15  1  0  0  0  0
 14 17  1  0  0  0  0
 15 18  1  1  0  0  0
 15 16  1  0  0  0  0
 16 17  1  0  0  0  0
 17 12  1  6  0  0  0
 19 20  2  0  0  0  0
 20 21  2  0  0  0  0
 22 23  1  0  0  0  0
 23 20  1  0  0  0  0
 24 25  1  0  0  0  0
 25 30  1  0  0  0  0
 26 28  1  0  0  0  0
 28 36  1  6  0  0  0
 28 27  1  0  0  0  0
 29 27  1  0  0  0  0
 30 26  1  0  0  0  0
 30 29  1  0  0  0  0
 31 33  1  0  0  0  0
 31 42  1  0  0  0  0
 32 31  2  0  0  0  0
 34 35  2  0  0  0  0
 34 32  1  0  0  0  0
 35 36  1  0  0  0  0
 36 33  2  0  0  0  0
 37 41  1  6  0  0  0
 38 39  1  6  0  0  0
 38 37  1  0  0  0  0
 38 40  1  0  0  0  0
 39 37  1  0  0  0  0
 42 38  1  0  0  0  0
 42 40  1  0  0  0  0
 43  1  1  0  0  0  0
 44 43  1  0  0  0  0
 45 44  1  0  0  0  0
 46 45  1  0  0  0  0
 47 45  2  0  0  0  0
M  END
>  <MODEL>
1

>  <REMARK>
 VINA RESULT:      -7.2      0.000      0.000
  Name = 
  14 active torsions:
  status: ('A' for Active; 'I' for Inactive)
    1  A    between atoms: C_1  and  C_15
    2  A    between atoms: C_1  and  C_45
    3  A    between atoms: C_4  and  C_5
    4  A    between atoms: C_6  and  S_17
    5  A    between atoms: C_7  and  C_13
    6  A    between atoms: C_7  and  N_30
    7  A    between atoms: C_14  and  N_36
    8  A    between atoms: C_15  and  N_32
    9  A    between atoms: S_17  and  C_42
   10  A    between atoms: C_20  and  C_45
   11  A    between atoms: C_22  and  C_44
   12  A    between atoms: C_27  and  N_41
   13  A    between atoms: N_30  and  C_45
   14  A    between atoms: N_35  and  C_38
                            x       y       z     vdW  Elec       q    Type
                         _______ _______ _______ _____ _____    ______ ____

>  <TORSDO>
F 14

$$$$
=
 OpenBabel11042421553D

 47 52  0  0  1  0  0  0  0  0999 V2000
  161.1840  210.9710  151.0700 C   0  0  2  0  0  3  0  0  0  0  0  0
  162.2880  213.0430  147.4600 C   0  0  0  0  0  0  0  0  0  0  0  0
  162.6390  211.2420  149.0540 C   0  0  0  0  0  3  0  0  0  0  0  0
  160.8580  212.8490  149.4080 C   0  0  0  0  0  3  0  0  0  0  0  0
  163.0010  211.9050  147.8780 C   0  0  0  0  0  3  0  0  0  0  0  0
  161.5640  211.7070  149.8210 C   0  0  0  0  0  0  0  0  0  0  0  0
  161.2170  213.5080  148.2280 C   0  0  0  0  0  3  0  0  0  0  0  0
  162.6150  213.7290  146.2050 C   0  0  0  0  0  3  0  0  0  0  0  0
  162.8010  213.0760  145.1020 N   0  0  0  0  0  0  0  0  0  0  0  0
  163.0850  213.7340  143.8620 C   0  0  0  0  0  0  0  0  0  0  0  0
  164.1150  214.4530  143.7400 O   0  0  0  0  0  0  0  0  0  0  0  0
  162.2060  213.5860  142.7480 N   0  0  0  0  0  2  0  0  0  0  0  0
  159.7970  211.8720  140.9620 C   0  0  1  0  0  3  0  0  0  0  0  0
  161.0770  211.7050  141.7200 C   0  0  0  0  0  2  0  0  0  0  0  0
  159.3360  213.2560  141.3420 C   0  0  2  0  0  3  0  0  0  0  0  0
  159.8630  213.5770  142.6030 O   0  0  0  0  0  0  0  0  0  0  0  0
  161.0030  212.7690  142.7950 C   0  0  2  0  0  3  0  0  0  0  0  0
  157.8820  213.2960  141.3970 N   0  0  0  0  0  1  0  0  0  0  0  0
  159.7880  213.0740  138.5440 O   0  0  0  0  0  0  0  0  0  0  0  0
  160.0940  211.7510  139.2010 S   0  0  0  0  0  0  0  0  0  0  0  0
  161.5480  211.4180  138.9730 O   0  0  0  0  0  0  0  0  0  0  0  0
  159.8630  209.7300  137.4100 C   0  0  0  0  0  1  0  0  0  0  0  0
  159.0750  210.4770  138.4730 C   0  0  0  0  0  2  0  0  0  0  0  0
  161.0970  209.4630  150.8270 C   0  0  0  0  0  2  0  0  0  0  0  0
  162.4220  208.7870  151.1730 C   0  0  0  0  0  2  0  0  0  0  0  0
  161.0140  207.0700  150.7230 O   0  0  0  0  0  0  0  0  0  0  0  0
  161.3190  205.7750  152.6790 C   0  0  0  0  0  2  0  0  0  0  0  0
  160.5720  205.9060  151.3800 C   0  0  2  0  0  3  0  0  0  0  0  0
  162.2580  206.9320  152.6070 C   0  0  0  0  0  2  0  0  0  0  0  0
  162.2570  207.3400  151.2140 N   0  0  0  0  0  0  0  0  0  0  0  0
  161.0030  203.6550  148.3370 C   0  0  0  0  0  0  0  0  0  0  0  0
  161.1010  202.3970  148.9440 C   0  0  0  0  0  3  0  0  0  0  0  0
  160.8380  204.7980  149.1240 C   0  0  0  0  0  3  0  0  0  0  0  0
  161.0360  202.2860  150.3350 C   0  0  0  0  0  3  0  0  0  0  0  0
  160.8700  203.4320  151.1220 C   0  0  0  0  0  3  0  0  0  0  0  0
  160.7700  204.6900  150.5200 C   0  0  0  0  0  0  0  0  0  0  0  0
  160.9370  205.0060  144.5620 C   0  0  1  0  0  3  0  0  0  0  0  0
  161.7440  204.4130  145.7370 C   0  0  2  0  0  0  0  0  0  0  0  0
  160.9910  205.7600  145.8020 C   0  0  0  0  0  2  0  0  0  0  0  0
  161.1910  203.2220  145.6690 O   0  0  0  0  0  0  0  0  0  0  0  0
  161.8250  205.5590  143.6350 O   0  0  0  0  0  1  0  0  0  0  0  0
  161.0910  203.7810  146.9220 N   0  0  0  0  0  0  0  0  0  0  0  0
  159.9100  211.4690  151.5660 N   0  0  0  0  0  2  0  0  0  0  0  0
  159.7170  210.8980  152.8910 C   0  0  0  0  0  2  0  0  0  0  0  0
  159.5270  211.9970  153.8790 C   0  0  0  0  0  0  0  0  0  0  0  0
  158.9780  213.2450  153.4620 N   0  0  0  0  0  1  0  0  0  0  0  0
  159.8910  211.8380  155.0720 O   0  0  0  0  0  0  0  0  0  0  0  0
  1 24  1  6  0  0  0
  1 43  1  0  0  0  0
  2  5  2  0  0  0  0
  2  7  1  0  0  0  0
  3  6  2  0  0  0  0
  4  6  1  0  0  0  0
  5  3  1  0  0  0  0
  6  1  1  0  0  0  0
  7  4  2  0  0  0  0
  8  2  1  0  0  0  0
  9  8  2  0  0  0  0
 10  9  1  0  0  0  0
 11 10  2  0  0  0  0
 12 10  1  0  0  0  0
 13 20  1  6  0  0  0
 13 15  1  0  0  0  0
 13 14  1  0  0  0  0
 14 17  1  0  0  0  0
 15 18  1  1  0  0  0
 15 16  1  0  0  0  0
 16 17  1  0  0  0  0
 17 12  1  6  0  0  0
 19 20  2  0  0  0  0
 21 20  2  0  0  0  0
 22 23  1  0  0  0  0
 23 20  1  0  0  0  0
 24 25  1  0  0  0  0
 25 30  1  0  0  0  0
 26 30  1  0  0  0  0
 26 28  1  0  0  0  0
 28 36  1  6  0  0  0
 28 27  1  0  0  0  0
 29 27  1  0  0  0  0
 30 29  1  0  0  0  0
 31 32  2  0  0  0  0
 31 33  1  0  0  0  0
 32 34  1  0  0  0  0
 33 36  2  0  0  0  0
 34 35  2  0  0  0  0
 36 35  1  0  0  0  0
 37 41  1  6  0  0  0
 37 38  1  0  0  0  0
 37 39  1  0  0  0  0
 38 39  1  6  0  0  0
 38 42  1  0  0  0  0
 40 38  1  0  0  0  0
 40 42  1  0  0  0  0
 42 31  1  0  0  0  0
 43 44  1  0  0  0  0
 44 45  1  0  0  0  0
 45 47  2  0  0  0  0
 46 45  1  0  0  0  0
M  END
>  <MODEL>
2

>  <REMARK>
 VINA RESULT:      -6.7      2.629      7.630
  Name = 
  14 active torsions:
  status: ('A' for Active; 'I' for Inactive)
    1  A    between atoms: C_1  and  C_15
    2  A    between atoms: C_1  and  C_45
    3  A    between atoms: C_4  and  C_5
    4  A    between atoms: C_6  and  S_17
    5  A    between atoms: C_7  and  C_13
    6  A    between atoms: C_7  and  N_30
    7  A    between atoms: C_14  and  N_36
    8  A    between atoms: C_15  and  N_32
    9  A    between atoms: S_17  and  C_42
   10  A    between atoms: C_20  and  C_45
   11  A    between atoms: C_22  and  C_44
   12  A    between atoms: C_27  and  N_41
   13  A    between atoms: N_30  and  C_45
   14  A    between atoms: N_35  and  C_38
                            x       y       z     vdW  Elec       q    Type
                         _______ _______ _______ _____ _____    ______ ____

>  <TORSDO>
F 14

$$$$
=
 OpenBabel11042421553D

 47 52  0  0  1  0  0  0  0  0999 V2000
  162.1250  206.7990  148.9840 C   0  0  2  0  0  3  0  0  0  0  0  0
  161.0370  206.8060  153.1510 C   0  0  0  0  0  0  0  0  0  0  0  0
  162.0110  205.6910  151.2230 C   0  0  0  0  0  3  0  0  0  0  0  0
  161.0950  207.9240  151.0010 C   0  0  0  0  0  3  0  0  0  0  0  0
  161.6670  205.6870  152.5780 C   0  0  0  0  0  3  0  0  0  0  0  0
  161.7320  206.8100  150.4300 C   0  0  0  0  0  0  0  0  0  0  0  0
  160.7570  207.9220  152.3580 C   0  0  0  0  0  3  0  0  0  0  0  0
  160.7090  206.8480  154.5800 C   0  0  0  0  0  3  0  0  0  0  0  0
  160.5120  207.9680  155.1990 N   0  0  0  0  0  0  0  0  0  0  0  0
  160.1580  208.0240  156.5860 C   0  0  0  0  0  0  0  0  0  0  0  0
  159.9190  206.9660  157.2290 O   0  0  0  0  0  0  0  0  0  0  0  0
  160.0690  209.2800  157.2580 N   0  0  0  0  0  2  0  0  0  0  0  0
  158.7570  212.0670  155.6940 C   0  0  1  0  0  3  0  0  0  0  0  0
  159.2810  211.5560  157.0010 C   0  0  0  0  0  2  0  0  0  0  0  0
  159.1930  211.0190  154.7030 C   0  0  2  0  0  3  0  0  0  0  0  0
  160.3380  210.3750  155.1990 O   0  0  0  0  0  0  0  0  0  0  0  0
  160.3370  210.5490  156.5990 C   0  0  2  0  0  3  0  0  0  0  0  0
  159.5020  211.6450  153.4250 N   0  0  0  0  0  1  0  0  0  0  0  0
  156.3600  211.1870  154.8160 O   0  0  0  0  0  0  0  0  0  0  0  0
  156.9730  212.2030  155.7480 S   0  0  0  0  0  0  0  0  0  0  0  0
  156.5040  211.9220  157.1530 O   0  0  0  0  0  0  0  0  0  0  0  0
  156.1400  213.8690  153.7780 C   0  0  0  0  0  1  0  0  0  0  0  0
  156.4490  213.8420  155.2670 C   0  0  0  0  0  2  0  0  0  0  0  0
  161.6790  208.0770  148.2710 C   0  0  0  0  0  2  0  0  0  0  0  0
  162.4100  209.2910  148.8390 C   0  0  0  0  0  2  0  0  0  0  0  0
  162.6710  211.2870  147.8000 O   0  0  0  0  0  0  0  0  0  0  0  0
  161.4820  212.6800  149.2970 C   0  0  0  0  0  2  0  0  0  0  0  0
  162.3170  212.6270  148.0470 C   0  0  2  0  0  3  0  0  0  0  0  0
  161.3560  211.2330  149.6390 C   0  0  0  0  0  2  0  0  0  0  0  0
  161.7400  210.5200  148.4350 N   0  0  0  0  0  0  0  0  0  0  0  0
  161.4020  213.6920  144.5060 C   0  0  0  0  0  0  0  0  0  0  0  0
  160.1910  214.3590  144.7290 C   0  0  0  0  0  3  0  0  0  0  0  0
  162.0940  213.1230  145.5790 C   0  0  0  0  0  3  0  0  0  0  0  0
  159.6730  214.4510  146.0230 C   0  0  0  0  0  3  0  0  0  0  0  0
  160.3660  213.8800  147.0970 C   0  0  0  0  0  3  0  0  0  0  0  0
  161.5780  213.2160  146.8790 C   0  0  0  0  0  0  0  0  0  0  0  0
  162.3820  212.4190  140.8320 C   0  0  1  0  0  3  0  0  0  0  0  0
  161.6730  213.4640  141.7210 C   0  0  2  0  0  0  0  0  0  0  0  0
  161.3150  211.9620  141.7030 C   0  0  0  0  0  2  0  0  0  0  0  0
  162.7830  213.9870  142.1940 O   0  0  0  0  0  0  0  0  0  0  0  0
  161.9040  212.5390  139.5240 O   0  0  0  0  0  1  0  0  0  0  0  0
  161.9280  213.5740  143.1880 N   0  0  0  0  0  0  0  0  0  0  0  0
  161.5490  205.6350  148.3270 N   0  0  0  0  0  2  0  0  0  0  0  0
  162.2830  205.4410  147.0850 C   0  0  0  0  0  2  0  0  0  0  0  0
  161.3240  205.1280  145.9890 C   0  0  0  0  0  0  0  0  0  0  0  0
  160.4410  206.1350  145.5040 N   0  0  0  0  0  1  0  0  0  0  0  0
  161.2650  203.9620  145.5210 O   0  0  0  0  0  0  0  0  0  0  0  0
  1 24  1  6  0  0  0
  1  6  1  0  0  0  0
  2  8  1  0  0  0  0
  3  5  2  0  0  0  0
  4  7  1  0  0  0  0
  5  2  1  0  0  0  0
  6  4  2  0  0  0  0
  6  3  1  0  0  0  0
  7  2  2  0  0  0  0
  8  9  2  0  0  0  0
  9 10  1  0  0  0  0
 10 11  2  0  0  0  0
 10 12  1  0  0  0  0
 13 20  1  1  0  0  0
 13 14  1  0  0  0  0
 15 18  1  6  0  0  0
 15 16  1  0  0  0  0
 15 13  1  0  0  0  0
 16 17  1  0  0  0  0
 17 14  1  0  0  0  0
 17 12  1  1  0  0  0
 19 20  2  0  0  0  0
 20 21  2  0  0  0  0
 22 23  1  0  0  0  0
 23 20  1  0  0  0  0
 24 25  1  0  0  0  0
 26 28  1  0  0  0  0
 26 30  1  0  0  0  0
 27 29  1  0  0  0  0
 28 36  1  6  0  0  0
 28 27  1  0  0  0  0
 30 25  1  0  0  0  0
 30 29  1  0  0  0  0
 31 32  2  0  0  0  0
 31 33  1  0  0  0  0
 32 34  1  0  0  0  0
 33 36  2  0  0  0  0
 34 35  2  0  0  0  0
 36 35  1  0  0  0  0
 37 41  1  6  0  0  0
 37 39  1  0  0  0  0
 37 38  1  0  0  0  0
 38 39  1  6  0  0  0
 38 40  1  0  0  0  0
 38 42  1  0  0  0  0
 40 42  1  0  0  0  0
 42 31  1  0  0  0  0
 43  1  1  0  0  0  0
 44 43  1  0  0  0  0
 45 44  1  0  0  0  0
 46 45  1  0  0  0  0
 47 45  2  0  0  0  0
M  END
>  <MODEL>
3

>  <REMARK>
 VINA RESULT:      -6.4      2.979      9.426
  Name = 
  14 active torsions:
  status: ('A' for Active; 'I' for Inactive)
    1  A    between atoms: C_1  and  C_15
    2  A    between atoms: C_1  and  C_45
    3  A    between atoms: C_4  and  C_5
    4  A    between atoms: C_6  and  S_17
    5  A    between atoms: C_7  and  C_13
    6  A    between atoms: C_7  and  N_30
    7  A    between atoms: C_14  and  N_36
    8  A    between atoms: C_15  and  N_32
    9  A    between atoms: S_17  and  C_42
   10  A    between atoms: C_20  and  C_45
   11  A    between atoms: C_22  and  C_44
   12  A    between atoms: C_27  and  N_41
   13  A    between atoms: N_30  and  C_45
   14  A    between atoms: N_35  and  C_38
                            x       y       z     vdW  Elec       q    Type
                         _______ _______ _______ _____ _____    ______ ____

>  <TORSDO>
F 14

$$$$
=
 OpenBabel11042421553D

 47 52  0  0  1  0  0  0  0  0999 V2000
  160.7450  205.3350  148.0250 C   0  0  2  0  0  3  0  0  0  0  0  0
  161.6880  205.7090  143.8390 C   0  0  0  0  0  0  0  0  0  0  0  0
  162.3660  205.2270  146.1230 C   0  0  0  0  0  3  0  0  0  0  0  0
  160.0750  205.8550  145.6430 C   0  0  0  0  0  3  0  0  0  0  0  0
  162.6800  205.3390  144.7660 C   0  0  0  0  0  3  0  0  0  0  0  0
  161.0620  205.4790  146.5680 C   0  0  0  0  0  0  0  0  0  0  0  0
  160.3880  205.9620  144.2840 C   0  0  0  0  0  3  0  0  0  0  0  0
  161.9770  205.7870  142.4030 C   0  0  0  0  0  3  0  0  0  0  0  0
  161.8030  206.8820  141.7340 N   0  0  0  0  0  0  0  0  0  0  0  0
  162.1140  206.9830  140.3390 C   0  0  0  0  0  0  0  0  0  0  0  0
  162.6920  206.0350  139.7410 O   0  0  0  0  0  0  0  0  0  0  0  0
  161.7730  208.1600  139.6080 N   0  0  0  0  0  2  0  0  0  0  0  0
  160.9840  211.5160  139.3860 C   0  0  1  0  0  3  0  0  0  0  0  0
  160.4600  210.1370  139.1260 C   0  0  0  0  0  2  0  0  0  0  0  0
  162.1900  211.2780  140.2580 C   0  0  2  0  0  3  0  0  0  0  0  0
  162.0160  210.0700  140.9520 O   0  0  0  0  0  0  0  0  0  0  0  0
  161.0960  209.2970  140.2130 C   0  0  2  0  0  3  0  0  0  0  0  0
  162.3340  212.3690  141.2120 N   0  0  0  0  0  1  0  0  0  0  0  0
  162.2620  211.3530  137.0120 O   0  0  0  0  0  0  0  0  0  0  0  0
  161.4460  212.3080  137.8490 S   0  0  0  0  0  0  0  0  0  0  0  0
  160.1930  212.6720  137.0920 O   0  0  0  0  0  0  0  0  0  0  0  0
  163.5840  213.8470  137.2100 C   0  0  0  0  0  1  0  0  0  0  0  0
  162.3990  213.7870  138.1600 C   0  0  0  0  0  2  0  0  0  0  0  0
  160.9240  206.6590  148.7710 C   0  0  0  0  0  2  0  0  0  0  0  0
  161.9610  206.5130  149.8820 C   0  0  0  0  0  2  0  0  0  0  0  0
  162.2150  207.1060  152.0540 O   0  0  0  0  0  0  0  0  0  0  0  0
  161.2430  205.2220  153.1030 C   0  0  0  0  0  2  0  0  0  0  0  0
  161.9500  206.5330  153.3120 C   0  0  2  0  0  3  0  0  0  0  0  0
  161.0810  205.1980  151.6210 C   0  0  0  0  0  2  0  0  0  0  0  0
  161.3140  206.5630  151.1870 N   0  0  0  0  0  0  0  0  0  0  0  0
  160.1990  209.6520  154.6230 C   0  0  0  0  0  0  0  0  0  0  0  0
  159.6290  209.1650  155.8050 C   0  0  0  0  0  3  0  0  0  0  0  0
  160.9490  208.8010  153.8070 C   0  0  0  0  0  3  0  0  0  0  0  0
  159.8070  207.8270  156.1660 C   0  0  0  0  0  3  0  0  0  0  0  0
  160.5580  206.9750  155.3480 C   0  0  0  0  0  3  0  0  0  0  0  0
  161.1310  207.4580  154.1670 C   0  0  0  0  0  0  0  0  0  0  0  0
  159.3540  213.0180  152.6130 C   0  0  1  0  0  3  0  0  0  0  0  0
  159.0660  212.0900  153.8130 C   0  0  2  0  0  0  0  0  0  0  0  0
  158.9290  211.6580  152.3380 C   0  0  0  0  0  2  0  0  0  0  0  0
  160.1930  212.3550  154.4380 O   0  0  0  0  0  0  0  0  0  0  0  0
  158.2760  213.8920  152.4480 O   0  0  0  0  0  1  0  0  0  0  0  0
  160.0050  211.0080  154.2350 N   0  0  0  0  0  0  0  0  0  0  0  0
  161.5950  204.3130  148.6150 N   0  0  0  0  0  2  0  0  0  0  0  0
  160.7300  203.2040  148.9900 C   0  0  0  0  0  2  0  0  0  0  0  0
  161.0160  202.0360  148.1120 C   0  0  0  0  0  0  0  0  0  0  0  0
  161.5250  200.8280  148.6730 N   0  0  0  0  0  1  0  0  0  0  0  0
  160.8490  202.1300  146.8690 O   0  0  0  0  0  0  0  0  0  0  0  0
  1 43  1  0  0  0  0
  1 24  1  1  0  0  0
  2  7  2  0  0  0  0
  2  5  1  0  0  0  0
  3  6  1  0  0  0  0
  4  6  2  0  0  0  0
  5  3  2  0  0  0  0
  6  1  1  0  0  0  0
  7  4  1  0  0  0  0
  8  2  1  0  0  0  0
  9  8  2  0  0  0  0
 10  9  1  0  0  0  0
 11 10  2  0  0  0  0
 12 10  1  0  0  0  0
 13 20  1  6  0  0  0
 13 15  1  0  0  0  0
 14 13  1  0  0  0  0
 14 17  1  0  0  0  0
 15 16  1  0  0  0  0
 15 18  1  1  0  0  0
 17 12  1  6  0  0  0
 17 16  1  0  0  0  0
 19 20  2  0  0  0  0
 20 23  1  0  0  0  0
 21 20  2  0  0  0  0
 22 23  1  0  0  0  0
 24 25  1  0  0  0  0
 25 30  1  0  0  0  0
 26 28  1  0  0  0  0
 27 28  1  0  0  0  0
 28 36  1  1  0  0  0
 29 27  1  0  0  0  0
 30 29  1  0  0  0  0
 30 26  1  0  0  0  0
 31 32  1  0  0  0  0
 32 34  2  0  0  0  0
 33 36  1  0  0  0  0
 33 31  2  0  0  0  0
 35 34  1  0  0  0  0
 36 35  2  0  0  0  0
 37 41  1  1  0  0  0
 37 38  1  0  0  0  0
 38 39  1  1  0  0  0
 38 42  1  0  0  0  0
 38 40  1  0  0  0  0
 39 37  1  0  0  0  0
 42 40  1  0  0  0  0
 42 31  1  0  0  0  0
 43 44  1  0  0  0  0
 45 46  1  0  0  0  0
 45 44  1  0  0  0  0
 47 45  2  0  0  0  0
M  END
>  <MODEL>
4

>  <REMARK>
 VINA RESULT:      -6.4      3.570      4.894
  Name = 
  14 active torsions:
  status: ('A' for Active; 'I' for Inactive)
    1  A    between atoms: C_1  and  C_15
    2  A    between atoms: C_1  and  C_45
    3  A    between atoms: C_4  and  C_5
    4  A    between atoms: C_6  and  S_17
    5  A    between atoms: C_7  and  C_13
    6  A    between atoms: C_7  and  N_30
    7  A    between atoms: C_14  and  N_36
    8  A    between atoms: C_15  and  N_32
    9  A    between atoms: S_17  and  C_42
   10  A    between atoms: C_20  and  C_45
   11  A    between atoms: C_22  and  C_44
   12  A    between atoms: C_27  and  N_41
   13  A    between atoms: N_30  and  C_45
   14  A    between atoms: N_35  and  C_38
                            x       y       z     vdW  Elec       q    Type
                         _______ _______ _______ _____ _____    ______ ____

>  <TORSDO>
F 14

$$$$
=
 OpenBabel11042421553D

 47 52  0  0  1  0  0  0  0  0999 V2000
  161.7910  208.8190  148.7510 C   0  0  2  0  0  3  0  0  0  0  0  0
  161.2290  208.6070  153.0160 C   0  0  0  0  0  0  0  0  0  0  0  0
  161.9280  209.8300  151.0350 C   0  0  0  0  0  3  0  0  0  0  0  0
  161.0950  207.5620  150.8330 C   0  0  0  0  0  3  0  0  0  0  0  0
  161.7430  209.7720  152.4190 C   0  0  0  0  0  3  0  0  0  0  0  0
  161.6010  208.7280  150.2350 C   0  0  0  0  0  0  0  0  0  0  0  0
  160.9050  207.5080  152.2170 C   0  0  0  0  0  3  0  0  0  0  0  0
  160.9790  208.5360  154.4600 C   0  0  0  0  0  3  0  0  0  0  0  0
  160.5010  209.5440  155.1170 N   0  0  0  0  0  0  0  0  0  0  0  0
  160.2190  209.4790  156.5190 C   0  0  0  0  0  0  0  0  0  0  0  0
  160.1890  208.3680  157.1150 O   0  0  0  0  0  0  0  0  0  0  0  0
  159.9670  210.6720  157.2610 N   0  0  0  0  0  2  0  0  0  0  0  0
  158.1520  213.2400  155.8320 C   0  0  1  0  0  3  0  0  0  0  0  0
  158.7760  212.7760  157.1120 C   0  0  0  0  0  2  0  0  0  0  0  0
  158.7560  212.3330  154.7920 C   0  0  2  0  0  3  0  0  0  0  0  0
  160.0060  211.8870  155.2530 O   0  0  0  0  0  0  0  0  0  0  0  0
  159.9920  211.9960  156.6590 C   0  0  2  0  0  3  0  0  0  0  0  0
  158.9300  213.0600  153.5420 N   0  0  0  0  0  1  0  0  0  0  0  0
  155.7920  214.0490  156.8670 O   0  0  0  0  0  0  0  0  0  0  0  0
  156.3730  213.0470  155.9010 S   0  0  0  0  0  0  0  0  0  0  0  0
  155.8010  213.3030  154.5290 O   0  0  0  0  0  0  0  0  0  0  0  0
  155.5560  210.5550  155.2160 C   0  0  0  0  0  1  0  0  0  0  0  0
  155.9360  211.3950  156.4250 C   0  0  0  0  0  2  0  0  0  0  0  0
  162.6050  207.6380  148.2170 C   0  0  0  0  0  2  0  0  0  0  0  0
  162.2910  207.3930  146.7430 C   0  0  0  0  0  2  0  0  0  0  0  0
  162.4150  205.2080  146.1580 O   0  0  0  0  0  0  0  0  0  0  0  0
  160.4590  205.0310  144.8390 C   0  0  0  0  0  2  0  0  0  0  0  0
  161.6780  204.3170  145.3550 C   0  0  2  0  0  3  0  0  0  0  0  0
  160.5760  206.3560  145.5160 C   0  0  0  0  0  2  0  0  0  0  0  0
  161.5360  206.1570  146.5860 N   0  0  0  0  0  0  0  0  0  0  0  0
  160.9970  201.9050  148.2220 C   0  0  0  0  0  0  0  0  0  0  0  0
  160.6140  200.7540  147.5230 C   0  0  0  0  0  3  0  0  0  0  0  0
  161.3380  203.0650  147.5240 C   0  0  0  0  0  3  0  0  0  0  0  0
  160.5690  200.7690  146.1260 C   0  0  0  0  0  3  0  0  0  0  0  0
  160.9110  201.9330  145.4270 C   0  0  0  0  0  3  0  0  0  0  0  0
  161.2970  203.0830  146.1230 C   0  0  0  0  0  0  0  0  0  0  0  0
  161.3470  202.9270  152.0840 C   0  0  1  0  0  3  0  0  0  0  0  0
  160.4580  202.4160  150.9300 C   0  0  2  0  0  0  0  0  0  0  0  0
  161.1760  203.7830  150.9240 C   0  0  0  0  0  2  0  0  0  0  0  0
  161.0390  201.2380  150.8490 O   0  0  0  0  0  0  0  0  0  0  0  0
  160.5270  203.3730  153.1250 O   0  0  0  0  0  1  0  0  0  0  0  0
  161.0240  201.9060  149.6460 N   0  0  0  0  0  0  0  0  0  0  0  0
  162.4520  210.0710  148.4160 N   0  0  0  0  0  2  0  0  0  0  0  0
  161.4190  210.9840  147.9470 C   0  0  0  0  0  2  0  0  0  0  0  0
  161.9450  212.3780  147.9740 C   0  0  0  0  0  0  0  0  0  0  0  0
  161.4260  213.3190  148.9100 N   0  0  0  0  0  1  0  0  0  0  0  0
  162.8160  212.7360  147.1400 O   0  0  0  0  0  0  0  0  0  0  0  0
  1 24  1  1  0  0  0
  1  6  1  0  0  0  0
  2  8  1  0  0  0  0
  3  5  2  0  0  0  0
  4  7  1  0  0  0  0
  5  2  1  0  0  0  0
  6  4  2  0  0  0  0
  6  3  1  0  0  0  0
  7  2  2  0  0  0  0
  8  9  2  0  0  0  0
  9 10  1  0  0  0  0
 10 11  2  0  0  0  0
 10 12  1  0  0  0  0
 13 20  1  1  0  0  0
 13 14  1  0  0  0  0
 15 18  1  6  0  0  0
 15 16  1  0  0  0  0
 15 13  1  0  0  0  0
 16 17  1  0  0  0  0
 17 14  1  0  0  0  0
 17 12  1  1  0  0  0
 20 23  1  0  0  0  0
 20 19  2  0  0  0  0
 21 20  2  0  0  0  0
 22 23  1  0  0  0  0
 25 24  1  0  0  0  0
 26 30  1  0  0  0  0
 27 28  1  0  0  0  0
 27 29  1  0  0  0  0
 28 36  1  1  0  0  0
 28 26  1  0  0  0  0
 29 30  1  0  0  0  0
 30 25  1  0  0  0  0
 31 42  1  0  0  0  0
 32 31  2  0  0  0  0
 33 31  1  0  0  0  0
 34 32  1  0  0  0  0
 35 36  1  0  0  0  0
 35 34  2  0  0  0  0
 36 33  2  0  0  0  0
 37 41  1  1  0  0  0
 38 39  1  1  0  0  0
 38 37  1  0  0  0  0
 39 37  1  0  0  0  0
 40 38  1  0  0  0  0
 42 40  1  0  0  0  0
 42 38  1  0  0  0  0
 43  1  1  0  0  0  0
 44 45  1  0  0  0  0
 44 43  1  0  0  0  0
 45 46  1  0  0  0  0
 47 45  2  0  0  0  0
M  END
>  <MODEL>
5

>  <REMARK>
 VINA RESULT:      -6.3      3.355      9.365
  Name = 
  14 active torsions:
  status: ('A' for Active; 'I' for Inactive)
    1  A    between atoms: C_1  and  C_15
    2  A    between atoms: C_1  and  C_45
    3  A    between atoms: C_4  and  C_5
    4  A    between atoms: C_6  and  S_17
    5  A    between atoms: C_7  and  C_13
    6  A    between atoms: C_7  and  N_30
    7  A    between atoms: C_14  and  N_36
    8  A    between atoms: C_15  and  N_32
    9  A    between atoms: S_17  and  C_42
   10  A    between atoms: C_20  and  C_45
   11  A    between atoms: C_22  and  C_44
   12  A    between atoms: C_27  and  N_41
   13  A    between atoms: N_30  and  C_45
   14  A    between atoms: N_35  and  C_38
                            x       y       z     vdW  Elec       q    Type
                         _______ _______ _______ _____ _____    ______ ____

>  <TORSDO>
F 14

$$$$
=
 OpenBabel11042421553D

 47 52  0  0  1  0  0  0  0  0999 V2000
  161.1730  205.3450  148.2150 C   0  0  2  0  0  3  0  0  0  0  0  0
  161.5900  205.6340  143.9380 C   0  0  0  0  0  0  0  0  0  0  0  0
  162.4410  204.9220  146.1000 C   0  0  0  0  0  3  0  0  0  0  0  0
  160.3250  206.0960  145.9530 C   0  0  0  0  0  3  0  0  0  0  0  0
  162.5810  205.0050  144.7130 C   0  0  0  0  0  3  0  0  0  0  0  0
  161.3110  205.4610  146.7270 C   0  0  0  0  0  0  0  0  0  0  0  0
  160.4640  206.1740  144.5640 C   0  0  0  0  0  3  0  0  0  0  0  0
  161.6880  205.6930  142.4750 C   0  0  0  0  0  3  0  0  0  0  0  0
  161.9130  206.8060  141.8530 N   0  0  0  0  0  0  0  0  0  0  0  0
  162.0450  206.8730  140.4290 C   0  0  0  0  0  0  0  0  0  0  0  0
  162.2510  205.8280  139.7550 O   0  0  0  0  0  0  0  0  0  0  0  0
  161.9480  208.1270  139.7540 N   0  0  0  0  0  2  0  0  0  0  0  0
  161.0180  211.4440  139.5030 C   0  0  1  0  0  3  0  0  0  0  0  0
  160.5080  210.0730  139.8260 C   0  0  0  0  0  2  0  0  0  0  0  0
  162.5150  211.2800  139.5240 C   0  0  2  0  0  3  0  0  0  0  0  0
  162.8410  210.2080  140.3700 O   0  0  0  0  0  0  0  0  0  0  0  0
  161.7020  209.3810  140.4490 C   0  0  2  0  0  3  0  0  0  0  0  0
  163.1400  212.4980  140.0200 N   0  0  0  0  0  1  0  0  0  0  0  0
  161.5360  212.7310  137.1860 O   0  0  0  0  0  0  0  0  0  0  0  0
  160.4470  211.9560  137.8860 S   0  0  0  0  0  0  0  0  0  0  0  0
  160.1210  210.7290  137.0720 O   0  0  0  0  0  0  0  0  0  0  0  0
  158.9740  213.6780  139.3730 C   0  0  0  0  0  1  0  0  0  0  0  0
  158.9870  212.9780  138.0240 C   0  0  0  0  0  2  0  0  0  0  0  0
  161.9400  206.4550  148.9370 C   0  0  0  0  0  2  0  0  0  0  0  0
  161.4080  206.6380  150.3570 C   0  0  0  0  0  2  0  0  0  0  0  0
  162.1750  208.7490  150.0630 O   0  0  0  0  0  0  0  0  0  0  0  0
  161.7950  209.6210  152.2290 C   0  0  0  0  0  2  0  0  0  0  0  0
  162.3500  209.8970  150.8590 C   0  0  2  0  0  3  0  0  0  0  0  0
  161.2320  208.2500  152.0570 C   0  0  0  0  0  2  0  0  0  0  0  0
  161.1500  208.0460  150.6230 N   0  0  0  0  0  0  0  0  0  0  0  0
  161.3310  212.5780  148.3520 C   0  0  0  0  0  0  0  0  0  0  0  0
  160.4560  213.3510  149.1240 C   0  0  0  0  0  3  0  0  0  0  0  0
  161.9440  211.4520  148.9080 C   0  0  0  0  0  3  0  0  0  0  0  0
  160.1940  212.9950  150.4500 C   0  0  0  0  0  3  0  0  0  0  0  0
  160.8090  211.8670  151.0060 C   0  0  0  0  0  3  0  0  0  0  0  0
  161.6850  211.0930  150.2380 C   0  0  0  0  0  0  0  0  0  0  0  0
  161.1630  212.9760  144.3650 C   0  0  1  0  0  3  0  0  0  0  0  0
  161.1560  213.6400  145.7590 C   0  0  2  0  0  0  0  0  0  0  0  0
  160.1090  212.6060  145.2920 C   0  0  0  0  0  2  0  0  0  0  0  0
  162.4230  213.3960  146.0110 O   0  0  0  0  0  0  0  0  0  0  0  0
  160.6690  213.8870  143.4270 O   0  0  0  0  0  1  0  0  0  0  0  0
  161.5870  212.9200  146.9930 N   0  0  0  0  0  0  0  0  0  0  0  0
  161.6520  204.0430  148.6520 N   0  0  0  0  0  2  0  0  0  0  0  0
  160.5300  203.1210  148.5530 C   0  0  0  0  0  2  0  0  0  0  0  0
  160.9850  201.8580  147.9090 C   0  0  0  0  0  0  0  0  0  0  0  0
  160.8360  201.6780  146.5030 N   0  0  0  0  0  1  0  0  0  0  0  0
  161.4610  200.9310  148.6140 O   0  0  0  0  0  0  0  0  0  0  0  0
  1 43  1  0  0  0  0
  1 24  1  1  0  0  0
  2  7  2  0  0  0  0
  2  5  1  0  0  0  0
  3  6  1  0  0  0  0
  4  6  2  0  0  0  0
  5  3  2  0  0  0  0
  6  1  1  0  0  0  0
  7  4  1  0  0  0  0
  8  2  1  0  0  0  0
  9  8  2  0  0  0  0
 10  9  1  0  0  0  0
 11 10  2  0  0  0  0
 12 10  1  0  0  0  0
 13 20  1  6  0  0  0
 13 15  1  0  0  0  0
 13 14  1  0  0  0  0
 14 17  1  0  0  0  0
 15 18  1  1  0  0  0
 15 16  1  0  0  0  0
 16 17  1  0  0  0  0
 17 12  1  6  0  0  0
 19 20  2  0  0  0  0
 20 23  1  0  0  0  0
 21 20  2  0  0  0  0
 23 22  1  0  0  0  0
 24 25  1  0  0  0  0
 25 30  1  0  0  0  0
 26 30  1  0  0  0  0
 26 28  1  0  0  0  0
 28 36  1  6  0  0  0
 28 27  1  0  0  0  0
 29 27  1  0  0  0  0
 30 29  1  0  0  0  0
 31 33  2  0  0  0  0
 31 32  1  0  0  0  0
 32 34  2  0  0  0  0
 33 36  1  0  0  0  0
 34 35  1  0  0  0  0
 36 35  2  0  0  0  0
 37 41  1  6  0  0  0
 37 39  1  0  0  0  0
 37 38  1  0  0  0  0
 38 39  1  1  0  0  0
 38 40  1  0  0  0  0
 38 42  1  0  0  0  0
 40 42  1  0  0  0  0
 42 31  1  0  0  0  0
 44 43  1  0  0  0  0
 45 44  1  0  0  0  0
 45 47  2  0  0  0  0
 46 45  1  0  0  0  0
M  END
>  <MODEL>
6

>  <REMARK>
 VINA RESULT:      -6.3      3.596      6.443
  Name = 
  14 active torsions:
  status: ('A' for Active; 'I' for Inactive)
    1  A    between atoms: C_1  and  C_15
    2  A    between atoms: C_1  and  C_45
    3  A    between atoms: C_4  and  C_5
    4  A    between atoms: C_6  and  S_17
    5  A    between atoms: C_7  and  C_13
    6  A    between atoms: C_7  and  N_30
    7  A    between atoms: C_14  and  N_36
    8  A    between atoms: C_15  and  N_32
    9  A    between atoms: S_17  and  C_42
   10  A    between atoms: C_20  and  C_45
   11  A    between atoms: C_22  and  C_44
   12  A    between atoms: C_27  and  N_41
   13  A    between atoms: N_30  and  C_45
   14  A    between atoms: N_35  and  C_38
                            x       y       z     vdW  Elec       q    Type
                         _______ _______ _______ _____ _____    ______ ____

>  <TORSDO>
F 14

$$$$
=
 OpenBabel11042421553D

 47 52  0  0  1  0  0  0  0  0999 V2000
  161.5680  205.5740  148.9280 C   0  0  2  0  0  3  0  0  0  0  0  0
  160.9710  206.1840  153.1500 C   0  0  0  0  0  0  0  0  0  0  0  0
  161.4850  204.7210  151.2780 C   0  0  0  0  0  3  0  0  0  0  0  0
  161.0120  207.0670  150.8920 C   0  0  0  0  0  3  0  0  0  0  0  0
  161.2990  204.9100  152.6500 C   0  0  0  0  0  3  0  0  0  0  0  0
  161.3480  205.7970  150.3930 C   0  0  0  0  0  0  0  0  0  0  0  0
  160.8320  207.2570  152.2660 C   0  0  0  0  0  3  0  0  0  0  0  0
  160.8190  206.4220  154.5890 C   0  0  0  0  0  3  0  0  0  0  0  0
  160.6470  207.6140  155.0660 N   0  0  0  0  0  0  0  0  0  0  0  0
  160.4620  207.8580  156.4650 C   0  0  0  0  0  0  0  0  0  0  0  0
  160.0060  206.9550  157.2180 O   0  0  0  0  0  0  0  0  0  0  0  0
  160.7900  209.1290  157.0240 N   0  0  0  0  0  2  0  0  0  0  0  0
  160.1760  212.1350  155.4370 C   0  0  1  0  0  3  0  0  0  0  0  0
  160.7140  211.5280  156.6960 C   0  0  0  0  0  2  0  0  0  0  0  0
  160.1040  210.9710  154.4830 C   0  0  2  0  0  3  0  0  0  0  0  0
  161.0570  210.0130  154.8660 O   0  0  0  0  0  0  0  0  0  0  0  0
  161.3300  210.2240  156.2340 C   0  0  2  0  0  3  0  0  0  0  0  0
  160.3870  211.4230  153.1280 N   0  0  0  0  0  1  0  0  0  0  0  0
  158.5640  213.6270  157.0100 O   0  0  0  0  0  0  0  0  0  0  0  0
  158.5530  212.8330  155.7270 S   0  0  0  0  0  0  0  0  0  0  0  0
  158.2080  213.7560  154.5850 O   0  0  0  0  0  0  0  0  0  0  0  0
  156.3390  211.6690  154.6840 C   0  0  0  0  0  1  0  0  0  0  0  0
  157.3210  211.5440  155.8370 C   0  0  0  0  0  2  0  0  0  0  0  0
  161.2770  206.8390  148.1180 C   0  0  0  0  0  2  0  0  0  0  0  0
  162.3650  207.8850  148.3480 C   0  0  0  0  0  2  0  0  0  0  0  0
  162.4940  210.1080  147.9270 O   0  0  0  0  0  0  0  0  0  0  0  0
  162.1380  210.9520  150.1080 C   0  0  0  0  0  2  0  0  0  0  0  0
  162.4400  211.2990  148.6750 C   0  0  2  0  0  3  0  0  0  0  0  0
  161.9520  209.4750  150.0290 C   0  0  0  0  0  2  0  0  0  0  0  0
  161.7670  209.1860  148.6190 N   0  0  0  0  0  0  0  0  0  0  0  0
  160.1090  213.0980  146.2600 C   0  0  0  0  0  0  0  0  0  0  0  0
  159.5160  214.0410  147.1080 C   0  0  0  0  0  3  0  0  0  0  0  0
  161.0540  212.2020  146.7640 C   0  0  0  0  0  3  0  0  0  0  0  0
  159.8680  214.0820  148.4610 C   0  0  0  0  0  3  0  0  0  0  0  0
  160.8160  213.1840  148.9650 C   0  0  0  0  0  3  0  0  0  0  0  0
  161.4120  212.2420  148.1190 C   0  0  0  0  0  0  0  0  0  0  0  0
  160.0950  213.1720  142.2510 C   0  0  1  0  0  3  0  0  0  0  0  0
  159.8940  212.3730  143.5560 C   0  0  2  0  0  0  0  0  0  0  0  0
  161.2210  213.0540  143.1590 C   0  0  0  0  0  2  0  0  0  0  0  0
  158.7830  212.9870  143.8990 O   0  0  0  0  0  0  0  0  0  0  0  0
  160.2490  212.2760  141.1890 O   0  0  0  0  0  1  0  0  0  0  0  0
  159.7400  213.0330  144.8860 N   0  0  0  0  0  0  0  0  0  0  0  0
  160.7260  204.4820  148.4650 N   0  0  0  0  0  2  0  0  0  0  0  0
  161.4980  203.2560  148.6140 C   0  0  0  0  0  2  0  0  0  0  0  0
  161.2070  202.3480  147.4710 C   0  0  0  0  0  0  0  0  0  0  0  0
  161.2080  202.8540  146.1380 N   0  0  0  0  0  1  0  0  0  0  0  0
  160.9180  201.1430  147.6850 O   0  0  0  0  0  0  0  0  0  0  0  0
  1 24  1  6  0  0  0
  1  6  1  0  0  0  0
  2  8  1  0  0  0  0
  3  5  2  0  0  0  0
  4  7  1  0  0  0  0
  5  2  1  0  0  0  0
  6  4  2  0  0  0  0
  6  3  1  0  0  0  0
  7  2  2  0  0  0  0
  8  9  2  0  0  0  0
  9 10  1  0  0  0  0
 10 12  1  0  0  0  0
 10 11  2  0  0  0  0
 13 20  1  1  0  0  0
 13 14  1  0  0  0  0
 15 18  1  6  0  0  0
 15 16  1  0  0  0  0
 15 13  1  0  0  0  0
 16 17  1  0  0  0  0
 17 14  1  0  0  0  0
 17 12  1  1  0  0  0
 20 23  1  0  0  0  0
 20 19  2  0  0  0  0
 21 20  2  0  0  0  0
 22 23  1  0  0  0  0
 24 25  1  0  0  0  0
 25 30  1  0  0  0  0
 26 30  1  0  0  0  0
 26 28  1  0  0  0  0
 28 36  1  6  0  0  0
 28 27  1  0  0  0  0
 29 27  1  0  0  0  0
 30 29  1  0  0  0  0
 31 33  2  0  0  0  0
 31 32  1  0  0  0  0
 32 34  2  0  0  0  0
 33 36  1  0  0  0  0
 34 35  1  0  0  0  0
 36 35  2  0  0  0  0
 37 41  1  6  0  0  0
 37 39  1  0  0  0  0
 37 38  1  0  0  0  0
 38 39  1  6  0  0  0
 38 40  1  0  0  0  0
 38 42  1  0  0  0  0
 40 42  1  0  0  0  0
 42 31  1  0  0  0  0
 43 44  1  0  0  0  0
 43  1  1  0  0  0  0
 45 47  2  0  0  0  0
 45 44  1  0  0  0  0
 46 45  1  0  0  0  0
M  END
>  <MODEL>
7

>  <REMARK>
 VINA RESULT:      -6.1      2.643      8.603
  Name = 
  14 active torsions:
  status: ('A' for Active; 'I' for Inactive)
    1  A    between atoms: C_1  and  C_15
    2  A    between atoms: C_1  and  C_45
    3  A    between atoms: C_4  and  C_5
    4  A    between atoms: C_6  and  S_17
    5  A    between atoms: C_7  and  C_13
    6  A    between atoms: C_7  and  N_30
    7  A    between atoms: C_14  and  N_36
    8  A    between atoms: C_15  and  N_32
    9  A    between atoms: S_17  and  C_42
   10  A    between atoms: C_20  and  C_45
   11  A    between atoms: C_22  and  C_44
   12  A    between atoms: C_27  and  N_41
   13  A    between atoms: N_30  and  C_45
   14  A    between atoms: N_35  and  C_38
                            x       y       z     vdW  Elec       q    Type
                         _______ _______ _______ _____ _____    ______ ____

>  <TORSDO>
F 14

$$$$
=
 OpenBabel11042421553D

 47 52  0  0  1  0  0  0  0  0999 V2000
  160.8640  205.6860  148.2410 C   0  0  2  0  0  3  0  0  0  0  0  0
  161.6920  205.8170  144.0170 C   0  0  0  0  0  0  0  0  0  0  0  0
  162.4080  205.3770  146.2980 C   0  0  0  0  0  3  0  0  0  0  0  0
  160.1550  206.1590  145.8600 C   0  0  0  0  0  3  0  0  0  0  0  0
  162.6830  205.4100  144.9280 C   0  0  0  0  0  3  0  0  0  0  0  0
  161.1420  205.7460  146.7700 C   0  0  0  0  0  0  0  0  0  0  0  0
  160.4300  206.1870  144.4890 C   0  0  0  0  0  3  0  0  0  0  0  0
  161.9380  205.8140  142.5710 C   0  0  0  0  0  3  0  0  0  0  0  0
  161.8840  206.9020  141.8700 N   0  0  0  0  0  0  0  0  0  0  0  0
  162.1560  206.9210  140.4640 C   0  0  0  0  0  0  0  0  0  0  0  0
  162.3530  205.8460  139.8360 O   0  0  0  0  0  0  0  0  0  0  0  0
  162.2070  208.1590  139.7570 N   0  0  0  0  0  2  0  0  0  0  0  0
  161.1480  211.4280  139.3990 C   0  0  1  0  0  3  0  0  0  0  0  0
  160.7150  210.0650  139.8450 C   0  0  0  0  0  2  0  0  0  0  0  0
  162.6460  211.3080  139.2960 C   0  0  2  0  0  3  0  0  0  0  0  0
  163.0810  210.2990  140.1700 O   0  0  0  0  0  0  0  0  0  0  0  0
  161.9810  209.4460  140.3970 C   0  0  2  0  0  3  0  0  0  0  0  0
  163.2700  212.5710  139.6630 N   0  0  0  0  0  1  0  0  0  0  0  0
  161.3270  212.7700  137.0620 O   0  0  0  0  0  0  0  0  0  0  0  0
  160.4210  211.8250  137.8120 S   0  0  0  0  0  0  0  0  0  0  0  0
  160.2710  210.5550  137.0120 O   0  0  0  0  0  0  0  0  0  0  0  0
  158.6010  212.9360  139.4860 C   0  0  0  0  0  1  0  0  0  0  0  0
  158.8170  212.5830  138.0230 C   0  0  0  0  0  2  0  0  0  0  0  0
  161.2510  206.9920  148.9390 C   0  0  0  0  0  2  0  0  0  0  0  0
  161.7860  206.7130  150.3410 C   0  0  0  0  0  2  0  0  0  0  0  0
  161.9490  208.5700  151.6290 O   0  0  0  0  0  0  0  0  0  0  0  0
  161.0450  207.7390  153.6510 C   0  0  0  0  0  2  0  0  0  0  0  0
  161.6790  208.9190  152.9650 C   0  0  2  0  0  3  0  0  0  0  0  0
  160.9270  206.7640  152.5280 C   0  0  0  0  0  2  0  0  0  0  0  0
  161.1020  207.5480  151.3190 N   0  0  0  0  0  0  0  0  0  0  0  0
  159.0940  211.4420  154.1730 C   0  0  0  0  0  0  0  0  0  0  0  0
  159.1210  212.3760  153.1300 C   0  0  0  0  0  3  0  0  0  0  0  0
  159.9260  210.3210  154.1270 C   0  0  0  0  0  3  0  0  0  0  0  0
  159.9830  212.1890  152.0460 C   0  0  0  0  0  3  0  0  0  0  0  0
  160.8170  211.0650  152.0020 C   0  0  0  0  0  3  0  0  0  0  0  0
  160.7910  210.1280  153.0410 C   0  0  0  0  0  0  0  0  0  0  0  0
  155.9430  212.1140  156.5600 C   0  0  1  0  0  3  0  0  0  0  0  0
  157.0720  211.1660  156.1010 C   0  0  2  0  0  0  0  0  0  0  0  0
  155.9640  211.7020  155.1690 C   0  0  0  0  0  2  0  0  0  0  0  0
  158.0430  211.8750  156.6320 O   0  0  0  0  0  0  0  0  0  0  0  0
  154.9850  211.3730  157.2570 O   0  0  0  0  0  1  0  0  0  0  0  0
  158.2350  211.6360  155.2920 N   0  0  0  0  0  0  0  0  0  0  0  0
  161.5880  204.5720  148.8340 N   0  0  0  0  0  2  0  0  0  0  0  0
  160.5960  203.6920  149.4350 C   0  0  0  0  0  2  0  0  0  0  0  0
  160.7760  202.3110  148.9060 C   0  0  0  0  0  0  0  0  0  0  0  0
  160.3360  201.1910  149.6690 N   0  0  0  0  0  1  0  0  0  0  0  0
  161.3560  202.1320  147.8050 O   0  0  0  0  0  0  0  0  0  0  0  0
  1 43  1  0  0  0  0
  1 24  1  1  0  0  0
  2  7  2  0  0  0  0
  2  5  1  0  0  0  0
  3  6  1  0  0  0  0
  4  6  2  0  0  0  0
  5  3  2  0  0  0  0
  6  1  1  0  0  0  0
  7  4  1  0  0  0  0
  8  2  1  0  0  0  0
  9  8  2  0  0  0  0
 10  9  1  0  0  0  0
 11 10  2  0  0  0  0
 12 10  1  0  0  0  0
 13 20  1  6  0  0  0
 13 14  1  0  0  0  0
 14 17  1  0  0  0  0
 15 13  1  0  0  0  0
 15 18  1  1  0  0  0
 15 16  1  0  0  0  0
 16 17  1  0  0  0  0
 17 12  1  6  0  0  0
 19 20  2  0  0  0  0
 20 23  1  0  0  0  0
 21 20  2  0  0  0  0
 23 22  1  0  0  0  0
 24 25  1  0  0  0  0
 25 30  1  0  0  0  0
 26 28  1  0  0  0  0
 28 36  1  6  0  0  0
 28 27  1  0  0  0  0
 29 27  1  0  0  0  0
 30 26  1  0  0  0  0
 30 29  1  0  0  0  0
 31 42  1  0  0  0  0
 32 31  2  0  0  0  0
 33 31  1  0  0  0  0
 34 32  1  0  0  0  0
 35 34  2  0  0  0  0
 35 36  1  0  0  0  0
 36 33  2  0  0  0  0
 37 41  1  1  0  0  0
 38 39  1  1  0  0  0
 38 37  1  0  0  0  0
 38 40  1  0  0  0  0
 39 37  1  0  0  0  0
 42 38  1  0  0  0  0
 42 40  1  0  0  0  0
 43 44  1  0  0  0  0
 45 44  1  0  0  0  0
 45 46  1  0  0  0  0
 47 45  2  0  0  0  0
M  END
>  <MODEL>
8

>  <REMARK>
 VINA RESULT:      -6.1      3.564      4.886
  Name = 
  14 active torsions:
  status: ('A' for Active; 'I' for Inactive)
    1  A    between atoms: C_1  and  C_15
    2  A    between atoms: C_1  and  C_45
    3  A    between atoms: C_4  and  C_5
    4  A    between atoms: C_6  and  S_17
    5  A    between atoms: C_7  and  C_13
    6  A    between atoms: C_7  and  N_30
    7  A    between atoms: C_14  and  N_36
    8  A    between atoms: C_15  and  N_32
    9  A    between atoms: S_17  and  C_42
   10  A    between atoms: C_20  and  C_45
   11  A    between atoms: C_22  and  C_44
   12  A    between atoms: C_27  and  N_41
   13  A    between atoms: N_30  and  C_45
   14  A    between atoms: N_35  and  C_38
                            x       y       z     vdW  Elec       q    Type
                         _______ _______ _______ _____ _____    ______ ____

>  <TORSDO>
F 14

$$$$
=
 OpenBabel11042421553D

 47 52  0  0  1  0  0  0  0  0999 V2000
  160.2640  210.5550  154.6770 C   0  0  2  0  0  3  0  0  0  0  0  0
  161.0260  206.4780  153.5160 C   0  0  0  0  0  0  0  0  0  0  0  0
  160.3800  208.1110  155.1960 C   0  0  0  0  0  3  0  0  0  0  0  0
  160.9570  208.8360  152.9560 C   0  0  0  0  0  3  0  0  0  0  0  0
  160.6180  206.7850  154.8270 C   0  0  0  0  0  3  0  0  0  0  0  0
  160.5430  209.1420  154.2630 C   0  0  0  0  0  0  0  0  0  0  0  0
  161.1900  207.5080  152.5860 C   0  0  0  0  0  3  0  0  0  0  0  0
  161.2360  205.0910  153.0870 C   0  0  0  0  0  3  0  0  0  0  0  0
  161.4590  204.7890  151.8480 N   0  0  0  0  0  0  0  0  0  0  0  0
  161.7000  203.4440  151.4190 C   0  0  0  0  0  0  0  0  0  0  0  0
  162.3690  202.6530  152.1390 O   0  0  0  0  0  0  0  0  0  0  0  0
  161.1880  202.9820  150.1700 N   0  0  0  0  0  2  0  0  0  0  0  0
  161.0870  204.8080  147.2400 C   0  0  1  0  0  3  0  0  0  0  0  0
  160.7340  203.4840  147.8440 C   0  0  0  0  0  2  0  0  0  0  0  0
  161.3750  205.6790  148.4350 C   0  0  2  0  0  3  0  0  0  0  0  0
  160.6640  205.1820  149.5390 O   0  0  0  0  0  0  0  0  0  0  0  0
  160.3980  203.8210  149.2820 C   0  0  2  0  0  3  0  0  0  0  0  0
  160.9570  207.0470  148.1640 N   0  0  0  0  0  1  0  0  0  0  0  0
  163.7690  205.0000  146.9810 O   0  0  0  0  0  0  0  0  0  0  0  0
  162.5300  204.6510  146.1930 S   0  0  0  0  0  0  0  0  0  0  0  0
  162.6380  203.2220  145.7220 O   0  0  0  0  0  0  0  0  0  0  0  0
  161.0610  205.5360  144.0950 C   0  0  0  0  0  1  0  0  0  0  0  0
  162.4050  205.7330  144.7760 C   0  0  0  0  0  2  0  0  0  0  0  0
  160.5360  211.5380  153.5360 C   0  0  0  0  0  2  0  0  0  0  0  0
  159.2730  212.3230  153.1920 C   0  0  0  0  0  2  0  0  0  0  0  0
  160.0480  213.4440  151.3830 O   0  0  0  0  0  0  0  0  0  0  0  0
  158.0030  213.8990  150.2830 C   0  0  0  0  0  2  0  0  0  0  0  0
  159.4940  214.0970  150.2650 C   0  0  2  0  0  3  0  0  0  0  0  0
  157.8300  213.0090  151.4680 C   0  0  0  0  0  2  0  0  0  0  0  0
  159.1530  212.4840  151.7490 N   0  0  0  0  0  0  0  0  0  0  0  0
  159.9960  213.2610  146.5830 C   0  0  0  0  0  0  0  0  0  0  0  0
  161.2140  212.5720  146.6250 C   0  0  0  0  0  3  0  0  0  0  0  0
  159.4360  213.7630  147.7600 C   0  0  0  0  0  3  0  0  0  0  0  0
  161.8720  212.3910  147.8460 C   0  0  0  0  0  3  0  0  0  0  0  0
  161.3090  212.8940  149.0250 C   0  0  0  0  0  3  0  0  0  0  0  0
  160.0910  213.5800  148.9860 C   0  0  0  0  0  0  0  0  0  0  0  0
  159.1150  213.7950  142.7070 C   0  0  1  0  0  3  0  0  0  0  0  0
  158.9610  212.9520  143.9910 C   0  0  2  0  0  0  0  0  0  0  0  0
  160.3140  213.2350  143.3030 C   0  0  0  0  0  2  0  0  0  0  0  0
  158.2160  213.8330  144.6210 O   0  0  0  0  0  0  0  0  0  0  0  0
  158.7290  213.0230  141.6080 O   0  0  0  0  0  1  0  0  0  0  0  0
  159.3310  213.4700  145.3410 N   0  0  0  0  0  0  0  0  0  0  0  0
  161.0780  210.8980  155.8330 N   0  0  0  0  0  2  0  0  0  0  0  0
  160.1880  210.9300  156.9850 C   0  0  0  0  0  2  0  0  0  0  0  0
  159.2910  212.1150  156.8820 C   0  0  0  0  0  0  0  0  0  0  0  0
  159.8450  213.4230  156.7700 N   0  0  0  0  0  1  0  0  0  0  0  0
  158.0430  211.9630  156.9380 O   0  0  0  0  0  0  0  0  0  0  0  0
  1 24  1  6  0  0  0
  1 43  1  0  0  0  0
  2  5  1  0  0  0  0
  4  6  2  0  0  0  0
  5  3  2  0  0  0  0
  6  1  1  0  0  0  0
  6  3  1  0  0  0  0
  7  4  1  0  0  0  0
  7  2  2  0  0  0  0
  8  2  1  0  0  0  0
  9  8  2  0  0  0  0
 10  9  1  0  0  0  0
 10 11  2  0  0  0  0
 12 10  1  0  0  0  0
 13 20  1  6  0  0  0
 13 14  1  0  0  0  0
 13 15  1  0  0  0  0
 14 17  1  0  0  0  0
 15 18  1  6  0  0  0
 15 16  1  0  0  0  0
 17 16  1  0  0  0  0
 17 12  1  1  0  0  0
 20 19  2  0  0  0  0
 21 20  2  0  0  0  0
 22 23  1  0  0  0  0
 23 20  1  0  0  0  0
 25 24  1  0  0  0  0
 26 30  1  0  0  0  0
 27 29  1  0  0  0  0
 28 36  1  6  0  0  0
 28 27  1  0  0  0  0
 28 26  1  0  0  0  0
 29 30  1  0  0  0  0
 30 25  1  0  0  0  0
 31 32  2  0  0  0  0
 31 33  1  0  0  0  0
 32 34  1  0  0  0  0
 33 36  2  0  0  0  0
 34 35  2  0  0  0  0
 36 35  1  0  0  0  0
 37 41  1  6  0  0  0
 37 39  1  0  0  0  0
 37 38  1  0  0  0  0
 38 39  1  6  0  0  0
 38 40  1  0  0  0  0
 38 42  1  0  0  0  0
 40 42  1  0  0  0  0
 42 31  1  0  0  0  0
 43 44  1  0  0  0  0
 45 47  2  0  0  0  0
 45 44  1  0  0  0  0
 46 45  1  0  0  0  0
M  END
>  <MODEL>
9

>  <REMARK>
 VINA RESULT:      -5.9      2.713      9.527
  Name = 
  14 active torsions:
  status: ('A' for Active; 'I' for Inactive)
    1  A    between atoms: C_1  and  C_15
    2  A    between atoms: C_1  and  C_45
    3  A    between atoms: C_4  and  C_5
    4  A    between atoms: C_6  and  S_17
    5  A    between atoms: C_7  and  C_13
    6  A    between atoms: C_7  and  N_30
    7  A    between atoms: C_14  and  N_36
    8  A    between atoms: C_15  and  N_32
    9  A    between atoms: S_17  and  C_42
   10  A    between atoms: C_20  and  C_45
   11  A    between atoms: C_22  and  C_44
   12  A    between atoms: C_27  and  N_41
   13  A    between atoms: N_30  and  C_45
   14  A    between atoms: N_35  and  C_38
                            x       y       z     vdW  Elec       q    Type
                         _______ _______ _______ _____ _____    ______ ____

>  <TORSDO>
F 14

$$$$
