=
 OpenBabel11052409353D

 44 47  0  0  1  0  0  0  0  0999 V2000
  161.3230  209.7510  156.0270 C   0  0  0  0  0  0  0  0  0  0  0  0
  160.3720  211.0660  154.0470 C   0  0  0  0  0  0  0  0  0  0  0  0
  160.5390  208.7740  155.8930 O   0  0  0  0  0  0  0  0  0  0  0  0
  160.0910  212.2680  153.6460 N   0  0  0  0  0  0  0  0  0  0  0  0
  161.2080  210.9150  155.2010 N   0  0  0  0  0  2  0  0  0  0  0  0
  162.3560  209.7150  157.0950 C   0  0  0  0  0  1  0  0  0  0  0  0
  159.9130  209.9060  153.2550 C   0  0  0  0  0  3  0  0  0  0  0  0
  161.5700  208.1590  152.2460 C   0  0  0  0  0  3  0  0  0  0  0  0
  160.7440  209.0260  152.7730 C   0  0  0  0  0  0  0  0  0  0  0  0
  162.0490  208.8650  148.5690 C   0  0  0  0  0  3  0  0  0  0  0  0
  161.9000  207.6140  148.0590 N   0  0  0  0  0  0  0  0  0  0  0  0
  161.6530  206.5350  148.8550 C   0  0  0  0  0  0  0  0  0  0  0  0
  161.6930  207.9900  150.7910 C   0  0  0  0  0  0  0  0  0  0  0  0
  161.9500  209.0760  149.9430 C   0  0  0  0  0  3  0  0  0  0  0  0
  161.5440  206.7170  150.2420 C   0  0  0  0  0  3  0  0  0  0  0  0
  161.4940  205.1950  148.2530 C   0  0  0  0  0  0  0  0  0  0  0  0
  160.8130  201.6610  149.0380 N   0  0  0  0  0  0  0  0  0  0  0  0
  161.2080  202.6700  147.1160 C   0  0  0  0  0  0  0  0  0  0  0  0
  161.6280  205.0110  146.8520 C   0  0  0  0  0  3  0  0  0  0  0  0
  160.7750  200.7270  148.0630 C   0  0  0  0  0  3  0  0  0  0  0  0
  160.6130  201.4330  150.3800 O   0  0  0  0  0  1  0  0  0  0  0  0
  161.0210  201.3290  146.8230 C   0  0  0  0  0  3  0  0  0  0  0  0
  161.2100  204.0820  149.0760 C   0  0  0  0  0  3  0  0  0  0  0  0
  161.0760  202.8380  148.4640 C   0  0  0  0  0  0  0  0  0  0  0  0
  161.4830  203.7390  146.2690 C   0  0  0  0  0  3  0  0  0  0  0  0
  159.3520  212.5040  152.4790 N   0  0  0  0  0  2  0  0  0  0  0  0
  158.1110  213.1600  152.5270 N   0  0  0  0  0  2  0  0  0  0  0  0
  157.7310  213.5180  151.1640 C   0  0  0  0  0  2  0  0  0  0  0  0
  160.1600  214.2930  148.3230 N   0  0  0  0  0  2  0  0  0  0  0  0
  158.8940  213.9570  150.4040 N   0  0  0  0  0  2  0  0  0  0  0  0
  158.9320  213.9780  148.9780 C   0  0  0  0  0  0  0  0  0  0  0  0
  157.8930  213.7310  148.3080 O   0  0  0  0  0  0  0  0  0  0  0  0
  160.2550  214.4500  146.8810 C   0  0  0  0  0  2  0  0  0  0  0  0
  161.4540  213.7850  146.3950 N   0  0  0  0  0  0  0  0  0  0  0  0
  161.7520  212.5370  142.0640 C   0  0  0  0  0  3  0  0  0  0  0  0
  161.4590  213.1840  145.0850 C   0  0  0  0  0  0  0  0  0  0  0  0
  159.5080  212.3790  141.2280 N   0  0  0  0  0  1  0  0  0  0  0  0
  162.5140  213.3910  144.2740 C   0  0  0  0  0  3  0  0  0  0  0  0
  162.7250  212.8420  142.9210 C   0  0  0  0  0  3  0  0  0  0  0  0
  160.4000  212.2620  144.7530 N   0  0  0  0  0  0  0  0  0  0  0  0
  160.3160  212.7920  142.3600 C   0  0  1  0  0  3  0  0  0  0  0  0
  159.8920  212.0420  143.5770 C   0  0  0  0  0  3  0  0  0  0  0  0
  163.0130  212.4500  147.7330 C   0  0  0  0  0  1  0  0  0  0  0  0
  162.6450  213.8380  147.2420 C   0  0  0  0  0  2  0  0  0  0  0  0
  1  6  1  0  0  0  0
  2  5  1  0  0  0  0
  3  1  2  0  0  0  0
  4  2  2  0  0  0  0
  5  1  1  0  0  0  0
  7  2  1  0  0  0  0
  8  9  2  0  0  0  0
  9  7  2  0  0  0  0
 10 14  1  0  0  0  0
 11 10  2  0  0  0  0
 11 12  1  0  0  0  0
 12 15  2  0  0  0  0
 13  8  1  0  0  0  0
 14 13  2  0  0  0  0
 15 13  1  0  0  0  0
 16 12  1  0  0  0  0
 16 23  1  0  0  0  0
 17 21  1  0  0  0  0
 18 24  1  0  0  0  0
 19 16  2  0  0  0  0
 20 17  1  0  0  0  0
 22 18  1  0  0  0  0
 22 20  2  0  0  0  0
 24 17  1  0  0  0  0
 24 23  2  0  0  0  0
 25 19  1  0  0  0  0
 25 18  2  0  0  0  0
 26 27  1  0  0  0  0
 26  4  1  0  0  0  0
 28 27  1  0  0  0  0
 29 31  1  0  0  0  0
 30 28  1  0  0  0  0
 31 30  1  0  0  0  0
 32 31  2  0  0  0  0
 33 29  1  0  0  0  0
 34 33  1  0  0  0  0
 34 44  1  0  0  0  0
 35 41  1  0  0  0  0
 35 39  2  0  0  0  0
 36 34  1  0  0  0  0
 38 36  2  0  0  0  0
 39 38  1  0  0  0  0
 40 36  1  0  0  0  0
 41 37  1  6  0  0  0
 41 42  1  0  0  0  0
 42 40  2  0  0  0  0
 44 43  1  0  0  0  0
M  END
>  <MODEL>
1

>  <REMARK>
 VINA RESULT:      -9.0      0.000      0.000
  Name = 
  11 active torsions:
  status: ('A' for Active; 'I' for Inactive)
    1  A    between atoms: N_1  and  C_41
    2  A    between atoms: N_2  and  N_12
    3  A    between atoms: N_2  and  C_43
    4  A    between atoms: C_4  and  N_25
    5  A    between atoms: C_5  and  C_24
    6  A    between atoms: N_8  and  C_43
    7  A    between atoms: N_12  and  N_32
    8  A    between atoms: C_15  and  C_22
    9  A    between atoms: C_17  and  N_25
   10  A    between atoms: N_25  and  C_41
   11  A    between atoms: C_30  and  C_31
                            x       y       z     vdW  Elec       q    Type
                         _______ _______ _______ _____ _____    ______ ____

>  <TORSDO>
F 11

$$$$
=
 OpenBabel11052409353D

 44 47  0  0  1  0  0  0  0  0999 V2000
  161.8370  213.2010  144.6820 C   0  0  0  0  0  0  0  0  0  0  0  0
  159.7680  213.3790  146.1800 C   0  0  0  0  0  0  0  0  0  0  0  0
  162.6180  213.7350  145.5140 O   0  0  0  0  0  0  0  0  0  0  0  0
  158.4910  213.6050  146.1520 N   0  0  0  0  0  0  0  0  0  0  0  0
  160.4330  213.0940  144.9430 N   0  0  0  0  0  2  0  0  0  0  0  0
  162.3760  212.7160  143.3840 C   0  0  0  0  0  1  0  0  0  0  0  0
  160.4720  213.3220  147.4780 C   0  0  0  0  0  3  0  0  0  0  0  0
  162.2180  211.4650  148.0420 C   0  0  0  0  0  3  0  0  0  0  0  0
  161.3590  212.4050  147.7450 C   0  0  0  0  0  0  0  0  0  0  0  0
  161.6860  209.9570  151.4610 C   0  0  0  0  0  3  0  0  0  0  0  0
  161.5240  208.6500  151.1280 N   0  0  0  0  0  0  0  0  0  0  0  0
  161.5750  208.2220  149.8350 C   0  0  0  0  0  0  0  0  0  0  0  0
  161.9730  210.5050  149.1270 C   0  0  0  0  0  0  0  0  0  0  0  0
  161.9120  210.9090  150.4680 C   0  0  0  0  0  3  0  0  0  0  0  0
  161.8050  209.1570  148.8130 C   0  0  0  0  0  3  0  0  0  0  0  0
  161.3980  206.7890  149.5230 C   0  0  0  0  0  0  0  0  0  0  0  0
  160.8230  203.4800  151.0370 N   0  0  0  0  0  0  0  0  0  0  0  0
  161.0760  204.0870  148.9310 C   0  0  0  0  0  0  0  0  0  0  0  0
  161.4430  206.3300  148.1800 C   0  0  0  0  0  3  0  0  0  0  0  0
  160.7350  202.3710  150.2710 C   0  0  0  0  0  3  0  0  0  0  0  0
  160.7140  203.5240  152.4080 O   0  0  0  0  0  1  0  0  0  0  0  0
  160.8910  202.7150  148.9230 C   0  0  0  0  0  3  0  0  0  0  0  0
  161.1850  205.8620  150.5670 C   0  0  0  0  0  3  0  0  0  0  0  0
  161.0310  204.5200  150.2240 C   0  0  0  0  0  0  0  0  0  0  0  0
  161.2790  204.9680  147.8720 C   0  0  0  0  0  3  0  0  0  0  0  0
  157.7500  213.8060  147.3240 N   0  0  0  0  0  2  0  0  0  0  0  0
  157.5550  212.7640  148.2460 N   0  0  0  0  0  2  0  0  0  0  0  0
  157.1260  213.3490  149.5130 C   0  0  0  0  0  2  0  0  0  0  0  0
  158.9850  213.2510  152.8450 N   0  0  0  0  0  2  0  0  0  0  0  0
  158.0660  213.0210  150.5750 N   0  0  0  0  0  2  0  0  0  0  0  0
  157.9410  213.5150  151.9080 C   0  0  0  0  0  0  0  0  0  0  0  0
  156.9200  214.1680  152.2540 O   0  0  0  0  0  0  0  0  0  0  0  0
  158.8820  213.6150  154.2490 C   0  0  0  0  0  2  0  0  0  0  0  0
  158.4400  212.4640  155.0210 N   0  0  0  0  0  0  0  0  0  0  0  0
  161.9070  209.7020  155.8930 C   0  0  0  0  0  3  0  0  0  0  0  0
  159.4000  211.4760  155.4450 C   0  0  0  0  0  0  0  0  0  0  0  0
  161.3490  207.5650  154.9560 N   0  0  0  0  0  1  0  0  0  0  0  0
  160.6740  211.8520  155.6650 C   0  0  0  0  0  3  0  0  0  0  0  0
  161.7900  211.0070  156.1320 C   0  0  0  0  0  3  0  0  0  0  0  0
  158.9220  210.1520  155.7620 N   0  0  0  0  0  0  0  0  0  0  0  0
  160.9380  208.9540  155.0480 C   0  0  1  0  0  3  0  0  0  0  0  0
  159.5680  209.0320  155.6300 C   0  0  0  0  0  3  0  0  0  0  0  0
  156.8640  212.8260  156.8610 C   0  0  0  0  0  1  0  0  0  0  0  0
  157.0310  212.4120  155.4110 C   0  0  0  0  0  2  0  0  0  0  0  0
  1  5  1  0  0  0  0
  1  3  2  0  0  0  0
  2  7  1  0  0  0  0
  4  2  2  0  0  0  0
  4 26  1  0  0  0  0
  5  2  1  0  0  0  0
  6  1  1  0  0  0  0
  7  9  2  0  0  0  0
  8 13  1  0  0  0  0
  9  8  2  0  0  0  0
 11 10  1  0  0  0  0
 12 11  2  0  0  0  0
 13 14  1  0  0  0  0
 14 10  2  0  0  0  0
 15 13  2  0  0  0  0
 15 12  1  0  0  0  0
 16 12  1  0  0  0  0
 16 23  1  0  0  0  0
 17 21  1  0  0  0  0
 18 24  1  0  0  0  0
 19 16  2  0  0  0  0
 20 17  1  0  0  0  0
 22 18  1  0  0  0  0
 22 20  2  0  0  0  0
 24 23  2  0  0  0  0
 24 17  1  0  0  0  0
 25 19  1  0  0  0  0
 25 18  2  0  0  0  0
 26 27  1  0  0  0  0
 27 28  1  0  0  0  0
 28 30  1  0  0  0  0
 29 33  1  0  0  0  0
 30 31  1  0  0  0  0
 31 32  2  0  0  0  0
 31 29  1  0  0  0  0
 33 34  1  0  0  0  0
 34 44  1  0  0  0  0
 34 36  1  0  0  0  0
 35 39  2  0  0  0  0
 36 38  2  0  0  0  0
 36 40  1  0  0  0  0
 38 39  1  0  0  0  0
 41 37  1  1  0  0  0
 41 42  1  0  0  0  0
 41 35  1  0  0  0  0
 42 40  2  0  0  0  0
 44 43  1  0  0  0  0
M  END
>  <MODEL>
2

>  <REMARK>
 VINA RESULT:      -8.1      2.197      7.829
  Name = 
  11 active torsions:
  status: ('A' for Active; 'I' for Inactive)
    1  A    between atoms: N_1  and  C_41
    2  A    between atoms: N_2  and  N_12
    3  A    between atoms: N_2  and  C_43
    4  A    between atoms: C_4  and  N_25
    5  A    between atoms: C_5  and  C_24
    6  A    between atoms: N_8  and  C_43
    7  A    between atoms: N_12  and  N_32
    8  A    between atoms: C_15  and  C_22
    9  A    between atoms: C_17  and  N_25
   10  A    between atoms: N_25  and  C_41
   11  A    between atoms: C_30  and  C_31
                            x       y       z     vdW  Elec       q    Type
                         _______ _______ _______ _____ _____    ______ ____

>  <TORSDO>
F 11

$$$$
=
 OpenBabel11052409353D

 44 47  0  0  1  0  0  0  0  0999 V2000
  161.4290  212.9660  145.1830 C   0  0  0  0  0  0  0  0  0  0  0  0
  160.1520  213.1660  147.3920 C   0  0  0  0  0  0  0  0  0  0  0  0
  162.5580  213.1950  145.6910 O   0  0  0  0  0  0  0  0  0  0  0  0
  159.0380  213.5910  147.9050 N   0  0  0  0  0  0  0  0  0  0  0  0
  160.2330  213.0310  145.9670 N   0  0  0  0  0  2  0  0  0  0  0  0
  161.3300  212.6700  143.7290 C   0  0  0  0  0  1  0  0  0  0  0  0
  161.2520  212.7430  148.2830 C   0  0  0  0  0  3  0  0  0  0  0  0
  162.0970  210.2750  148.3870 C   0  0  0  0  0  3  0  0  0  0  0  0
  161.6830  211.5130  148.3140 C   0  0  0  0  0  0  0  0  0  0  0  0
  161.9670  209.2790  152.0250 C   0  0  0  0  0  3  0  0  0  0  0  0
  161.7320  207.9460  151.9050 N   0  0  0  0  0  0  0  0  0  0  0  0
  161.6070  207.3420  150.6890 C   0  0  0  0  0  0  0  0  0  0  0  0
  161.9680  209.4850  149.6200 C   0  0  0  0  0  0  0  0  0  0  0  0
  162.0880  210.0730  150.8860 C   0  0  0  0  0  3  0  0  0  0  0  0
  161.7270  208.1150  149.5240 C   0  0  0  0  0  3  0  0  0  0  0  0
  161.3560  205.8880  150.6090 C   0  0  0  0  0  0  0  0  0  0  0  0
  161.1510  203.0450  148.2750 N   0  0  0  0  0  0  0  0  0  0  0  0
  160.8700  203.1500  150.4620 C   0  0  0  0  0  0  0  0  0  0  0  0
  161.0570  205.1410  151.7780 C   0  0  0  0  0  3  0  0  0  0  0  0
  160.8590  201.8020  148.7180 C   0  0  0  0  0  3  0  0  0  0  0  0
  161.4010  203.3970  146.9690 O   0  0  0  0  0  1  0  0  0  0  0  0
  160.6730  201.8270  150.1050 C   0  0  0  0  0  3  0  0  0  0  0  0
  161.4090  205.2320  149.3590 C   0  0  0  0  0  3  0  0  0  0  0  0
  161.1570  203.8620  149.3330 C   0  0  0  0  0  0  0  0  0  0  0  0
  160.8130  203.7570  151.7130 C   0  0  0  0  0  3  0  0  0  0  0  0
  158.8460  213.6690  149.2910 N   0  0  0  0  0  2  0  0  0  0  0  0
  159.8670  214.1250  150.1410 N   0  0  0  0  0  2  0  0  0  0  0  0
  159.3240  214.2360  151.4900 C   0  0  0  0  0  2  0  0  0  0  0  0
  158.2350  211.3930  153.7930 N   0  0  0  0  0  2  0  0  0  0  0  0
  159.0720  212.9170  152.0540 N   0  0  0  0  0  2  0  0  0  0  0  0
  158.3120  212.7070  153.2420 C   0  0  0  0  0  0  0  0  0  0  0  0
  157.7110  213.6690  153.7940 O   0  0  0  0  0  0  0  0  0  0  0  0
  157.3880  211.0740  154.9310 C   0  0  0  0  0  2  0  0  0  0  0  0
  158.1710  211.1450  156.1560 N   0  0  0  0  0  0  0  0  0  0  0  0
  162.0570  209.0080  157.0150 C   0  0  0  0  0  3  0  0  0  0  0  0
  159.4700  210.5230  156.2130 C   0  0  0  0  0  0  0  0  0  0  0  0
  163.7640  210.6910  157.1460 N   0  0  0  0  0  1  0  0  0  0  0  0
  159.5960  209.3240  156.8130 C   0  0  0  0  0  3  0  0  0  0  0  0
  160.8220  208.5140  156.9460 C   0  0  0  0  0  3  0  0  0  0  0  0
  160.5550  211.1420  155.4910 N   0  0  0  0  0  0  0  0  0  0  0  0
  162.3330  210.4700  157.0400 C   0  0  1  0  0  3  0  0  0  0  0  0
  161.8170  211.1210  155.8020 C   0  0  0  0  0  3  0  0  0  0  0  0
  158.2210  213.3310  157.2600 C   0  0  0  0  0  1  0  0  0  0  0  0
  157.6260  211.9350  157.2600 C   0  0  0  0  0  2  0  0  0  0  0  0
  1  3  2  0  0  0  0
  1  5  1  0  0  0  0
  2  4  2  0  0  0  0
  2  7  1  0  0  0  0
  4 26  1  0  0  0  0
  5  2  1  0  0  0  0
  6  1  1  0  0  0  0
  7  9  2  0  0  0  0
  8 13  1  0  0  0  0
  9  8  2  0  0  0  0
 11 10  1  0  0  0  0
 12 11  2  0  0  0  0
 13 14  1  0  0  0  0
 14 10  2  0  0  0  0
 15 13  2  0  0  0  0
 15 12  1  0  0  0  0
 16 12  1  0  0  0  0
 16 19  1  0  0  0  0
 17 20  1  0  0  0  0
 17 24  1  0  0  0  0
 18 25  1  0  0  0  0
 20 22  2  0  0  0  0
 21 17  1  0  0  0  0
 22 18  1  0  0  0  0
 23 16  2  0  0  0  0
 24 23  1  0  0  0  0
 24 18  2  0  0  0  0
 25 19  2  0  0  0  0
 26 27  1  0  0  0  0
 27 28  1  0  0  0  0
 28 30  1  0  0  0  0
 29 33  1  0  0  0  0
 30 31  1  0  0  0  0
 31 29  1  0  0  0  0
 31 32  2  0  0  0  0
 33 34  1  0  0  0  0
 34 36  1  0  0  0  0
 34 44  1  0  0  0  0
 35 41  1  0  0  0  0
 36 38  2  0  0  0  0
 38 39  1  0  0  0  0
 39 35  2  0  0  0  0
 40 42  2  0  0  0  0
 40 36  1  0  0  0  0
 41 37  1  6  0  0  0
 42 41  1  0  0  0  0
 43 44  1  0  0  0  0
M  END
>  <MODEL>
3

>  <REMARK>
 VINA RESULT:      -8.0      2.315      8.189
  Name = 
  11 active torsions:
  status: ('A' for Active; 'I' for Inactive)
    1  A    between atoms: N_1  and  C_41
    2  A    between atoms: N_2  and  N_12
    3  A    between atoms: N_2  and  C_43
    4  A    between atoms: C_4  and  N_25
    5  A    between atoms: C_5  and  C_24
    6  A    between atoms: N_8  and  C_43
    7  A    between atoms: N_12  and  N_32
    8  A    between atoms: C_15  and  C_22
    9  A    between atoms: C_17  and  N_25
   10  A    between atoms: N_25  and  C_41
   11  A    between atoms: C_30  and  C_31
                            x       y       z     vdW  Elec       q    Type
                         _______ _______ _______ _____ _____    ______ ____

>  <TORSDO>
F 11

$$$$
=
 OpenBabel11052409353D

 44 47  0  0  1  0  0  0  0  0999 V2000
  158.3510  212.2010  155.0370 C   0  0  0  0  0  0  0  0  0  0  0  0
  159.6830  210.9560  153.2390 C   0  0  0  0  0  0  0  0  0  0  0  0
  158.9440  213.3000  154.8660 O   0  0  0  0  0  0  0  0  0  0  0  0
  160.2170  209.8060  152.9620 N   0  0  0  0  0  0  0  0  0  0  0  0
  158.7470  211.0250  154.3230 N   0  0  0  0  0  2  0  0  0  0  0  0
  157.2520  212.1130  156.0330 C   0  0  0  0  0  1  0  0  0  0  0  0
  159.9720  212.1220  152.3790 C   0  0  0  0  0  3  0  0  0  0  0  0
  158.0830  213.5710  151.3080 C   0  0  0  0  0  3  0  0  0  0  0  0
  159.0240  212.8540  151.8650 C   0  0  0  0  0  0  0  0  0  0  0  0
  156.5620  213.8110  147.8620 C   0  0  0  0  0  3  0  0  0  0  0  0
  157.6830  213.7530  147.0960 N   0  0  0  0  0  0  0  0  0  0  0  0
  158.9260  213.6430  147.6440 C   0  0  0  0  0  0  0  0  0  0  0  0
  157.9230  213.6410  149.8480 C   0  0  0  0  0  0  0  0  0  0  0  0
  156.6610  213.7580  149.2510 C   0  0  0  0  0  3  0  0  0  0  0  0
  159.0570  213.5840  149.0390 C   0  0  0  0  0  3  0  0  0  0  0  0
  160.1160  213.5790  146.7690 C   0  0  0  0  0  0  0  0  0  0  0  0
  161.2880  212.5190  143.4410 N   0  0  0  0  0  0  0  0  0  0  0  0
  162.3620  213.4510  145.1290 C   0  0  0  0  0  0  0  0  0  0  0  0
  161.3730  214.0590  147.2220 C   0  0  0  0  0  3  0  0  0  0  0  0
  162.5790  212.6750  143.0770 C   0  0  0  0  0  3  0  0  0  0  0  0
  160.2920  211.9760  142.6640 O   0  0  0  0  0  1  0  0  0  0  0  0
  163.2970  213.2660  144.1240 C   0  0  0  0  0  3  0  0  0  0  0  0
  160.0070  213.0340  145.4700 C   0  0  0  0  0  3  0  0  0  0  0  0
  161.1570  212.9880  144.6850 C   0  0  0  0  0  0  0  0  0  0  0  0
  162.5120  214.0000  146.3990 C   0  0  0  0  0  3  0  0  0  0  0  0
  161.0730  209.6340  151.8660 N   0  0  0  0  0  2  0  0  0  0  0  0
  162.2900  208.9450  151.9990 N   0  0  0  0  0  2  0  0  0  0  0  0
  162.0480  207.7350  152.7780 C   0  0  0  0  0  2  0  0  0  0  0  0
  162.0290  204.2410  151.2430 N   0  0  0  0  0  2  0  0  0  0  0  0
  162.3950  206.5500  152.0070 N   0  0  0  0  0  2  0  0  0  0  0  0
  161.5450  205.4080  151.9070 C   0  0  0  0  0  0  0  0  0  0  0  0
  160.3810  205.4340  152.3910 O   0  0  0  0  0  0  0  0  0  0  0  0
  161.1880  203.0810  150.9950 C   0  0  0  0  0  2  0  0  0  0  0  0
  160.7650  203.0730  149.6030 N   0  0  0  0  0  0  0  0  0  0  0  0
  162.2440  206.4500  146.9920 C   0  0  0  0  0  3  0  0  0  0  0  0
  161.0160  204.2240  148.7720 C   0  0  0  0  0  0  0  0  0  0  0  0
  162.1370  208.4510  148.3130 N   0  0  0  0  0  1  0  0  0  0  0  0
  161.8460  204.1030  147.7190 C   0  0  0  0  0  3  0  0  0  0  0  0
  162.2040  205.1430  146.7370 C   0  0  0  0  0  3  0  0  0  0  0  0
  160.2490  205.4220  149.0150 N   0  0  0  0  0  0  0  0  0  0  0  0
  161.9970  207.0070  148.3490 C   0  0  1  0  0  3  0  0  0  0  0  0
  160.6280  206.6490  148.8200 C   0  0  0  0  0  3  0  0  0  0  0  0
  161.2590  200.8400  148.7270 C   0  0  0  0  0  1  0  0  0  0  0  0
  160.1750  201.8400  149.0840 C   0  0  0  0  0  2  0  0  0  0  0  0
  1  6  1  0  0  0  0
  2  5  1  0  0  0  0
  3  1  2  0  0  0  0
  4  2  2  0  0  0  0
  5  1  1  0  0  0  0
  7  2  1  0  0  0  0
  8  9  2  0  0  0  0
  9  7  2  0  0  0  0
 10 14  1  0  0  0  0
 11 12  1  0  0  0  0
 11 10  2  0  0  0  0
 12 15  2  0  0  0  0
 13  8  1  0  0  0  0
 14 13  2  0  0  0  0
 15 13  1  0  0  0  0
 16 19  1  0  0  0  0
 16 12  1  0  0  0  0
 17 24  1  0  0  0  0
 18 25  1  0  0  0  0
 20 17  1  0  0  0  0
 20 22  2  0  0  0  0
 21 17  1  0  0  0  0
 22 18  1  0  0  0  0
 23 16  2  0  0  0  0
 24 18  2  0  0  0  0
 24 23  1  0  0  0  0
 25 19  2  0  0  0  0
 26 27  1  0  0  0  0
 26  4  1  0  0  0  0
 27 28  1  0  0  0  0
 29 31  1  0  0  0  0
 30 28  1  0  0  0  0
 31 30  1  0  0  0  0
 31 32  2  0  0  0  0
 33 29  1  0  0  0  0
 34 33  1  0  0  0  0
 35 41  1  0  0  0  0
 36 40  1  0  0  0  0
 36 34  1  0  0  0  0
 38 36  2  0  0  0  0
 39 35  2  0  0  0  0
 39 38  1  0  0  0  0
 41 37  1  6  0  0  0
 41 42  1  0  0  0  0
 42 40  2  0  0  0  0
 43 44  1  0  0  0  0
 44 34  1  0  0  0  0
M  END
>  <MODEL>
4

>  <REMARK>
 VINA RESULT:      -7.9      2.358      8.718
  Name = 
  11 active torsions:
  status: ('A' for Active; 'I' for Inactive)
    1  A    between atoms: N_1  and  C_41
    2  A    between atoms: N_2  and  N_12
    3  A    between atoms: N_2  and  C_43
    4  A    between atoms: C_4  and  N_25
    5  A    between atoms: C_5  and  C_24
    6  A    between atoms: N_8  and  C_43
    7  A    between atoms: N_12  and  N_32
    8  A    between atoms: C_15  and  C_22
    9  A    between atoms: C_17  and  N_25
   10  A    between atoms: N_25  and  C_41
   11  A    between atoms: C_30  and  C_31
                            x       y       z     vdW  Elec       q    Type
                         _______ _______ _______ _____ _____    ______ ____

>  <TORSDO>
F 11

$$$$
=
 OpenBabel11052409353D

 44 47  0  0  1  0  0  0  0  0999 V2000
  159.6170  213.2750  144.5650 C   0  0  0  0  0  0  0  0  0  0  0  0
  160.1720  213.2080  147.0630 C   0  0  0  0  0  0  0  0  0  0  0  0
  158.7100  212.4040  144.6330 O   0  0  0  0  0  0  0  0  0  0  0  0
  161.1580  213.2780  147.9030 N   0  0  0  0  0  0  0  0  0  0  0  0
  160.4030  213.6220  145.7100 N   0  0  0  0  0  2  0  0  0  0  0  0
  159.9110  213.9200  143.2580 C   0  0  0  0  0  1  0  0  0  0  0  0
  158.8330  212.8050  147.5410 C   0  0  0  0  0  3  0  0  0  0  0  0
  157.2520  214.4440  148.8180 C   0  0  0  0  0  3  0  0  0  0  0  0
  158.0400  213.6350  148.1590 C   0  0  0  0  0  0  0  0  0  0  0  0
  155.2540  214.1980  152.0100 C   0  0  0  0  0  3  0  0  0  0  0  0
  156.1950  213.6900  152.8480 N   0  0  0  0  0  0  0  0  0  0  0  0
  157.4620  213.4140  152.4280 C   0  0  0  0  0  0  0  0  0  0  0  0
  156.8640  214.1850  150.2110 C   0  0  0  0  0  0  0  0  0  0  0  0
  155.5690  214.4530  150.6770 C   0  0  0  0  0  3  0  0  0  0  0  0
  157.8110  213.6640  151.0920 C   0  0  0  0  0  3  0  0  0  0  0  0
  158.4530  212.8670  153.3790 C   0  0  0  0  0  0  0  0  0  0  0  0
  160.9560  210.2040  153.8360 N   0  0  0  0  0  0  0  0  0  0  0  0
  160.3090  211.8320  155.1770 C   0  0  0  0  0  0  0  0  0  0  0  0
  158.6410  213.4660  154.6520 C   0  0  0  0  0  3  0  0  0  0  0  0
  161.6630  210.1040  154.9830 C   0  0  0  0  0  3  0  0  0  0  0  0
  161.0700  209.3740  152.7450 O   0  0  0  0  0  1  0  0  0  0  0  0
  161.2810  211.1230  155.8630 C   0  0  0  0  0  3  0  0  0  0  0  0
  159.2200  211.7350  153.0230 C   0  0  0  0  0  3  0  0  0  0  0  0
  160.1350  211.2510  153.9550 C   0  0  0  0  0  0  0  0  0  0  0  0
  159.5780  212.9510  155.5660 C   0  0  0  0  0  3  0  0  0  0  0  0
  160.9950  212.9760  149.2610 N   0  0  0  0  0  2  0  0  0  0  0  0
  161.3230  211.7060  149.7650 N   0  0  0  0  0  2  0  0  0  0  0  0
  162.3650  211.1330  148.9190 C   0  0  0  0  0  2  0  0  0  0  0  0
  161.5610  207.4830  148.1440 N   0  0  0  0  0  2  0  0  0  0  0  0
  161.8920  209.9170  148.2730 N   0  0  0  0  0  2  0  0  0  0  0  0
  161.9170  208.6370  148.9050 C   0  0  0  0  0  0  0  0  0  0  0  0
  162.2410  208.5300  150.1180 O   0  0  0  0  0  0  0  0  0  0  0  0
  161.4480  206.1620  148.7410 C   0  0  0  0  0  2  0  0  0  0  0  0
  161.6980  205.1470  147.7300 N   0  0  0  0  0  0  0  0  0  0  0  0
  160.8740  200.8720  148.9340 C   0  0  0  0  0  3  0  0  0  0  0  0
  161.2650  203.7900  147.9540 C   0  0  0  0  0  0  0  0  0  0  0  0
  161.5300  199.4880  147.0860 N   0  0  0  0  0  1  0  0  0  0  0  0
  161.2060  203.3220  149.2160 C   0  0  0  0  0  3  0  0  0  0  0  0
  160.7620  201.9860  149.6550 C   0  0  0  0  0  3  0  0  0  0  0  0
  160.7700  203.0360  146.8280 N   0  0  0  0  0  0  0  0  0  0  0  0
  161.5430  200.8430  147.6060 C   0  0  1  0  0  3  0  0  0  0  0  0
  160.8460  201.7510  146.6500 C   0  0  0  0  0  3  0  0  0  0  0  0
  163.5760  204.7960  146.1970 C   0  0  0  0  0  1  0  0  0  0  0  0
  162.3080  205.5810  146.4730 C   0  0  0  0  0  2  0  0  0  0  0  0
  1  3  2  0  0  0  0
  1  5  1  0  0  0  0
  2  7  1  0  0  0  0
  2  4  2  0  0  0  0
  4 26  1  0  0  0  0
  5  2  1  0  0  0  0
  6  1  1  0  0  0  0
  7  9  2  0  0  0  0
  8 13  1  0  0  0  0
  9  8  2  0  0  0  0
 10 11  1  0  0  0  0
 12 11  2  0  0  0  0
 12 16  1  0  0  0  0
 13 14  1  0  0  0  0
 13 15  2  0  0  0  0
 14 10  2  0  0  0  0
 15 12  1  0  0  0  0
 16 19  1  0  0  0  0
 17 24  1  0  0  0  0
 17 20  1  0  0  0  0
 18 25  1  0  0  0  0
 18 22  1  0  0  0  0
 19 25  2  0  0  0  0
 20 22  2  0  0  0  0
 21 17  1  0  0  0  0
 23 16  2  0  0  0  0
 23 24  1  0  0  0  0
 24 18  2  0  0  0  0
 26 27  1  0  0  0  0
 28 27  1  0  0  0  0
 29 33  1  0  0  0  0
 29 31  1  0  0  0  0
 30 31  1  0  0  0  0
 30 28  1  0  0  0  0
 31 32  2  0  0  0  0
 34 36  1  0  0  0  0
 34 33  1  0  0  0  0
 35 39  2  0  0  0  0
 36 38  2  0  0  0  0
 38 39  1  0  0  0  0
 40 36  1  0  0  0  0
 41 37  1  6  0  0  0
 41 35  1  0  0  0  0
 42 40  2  0  0  0  0
 42 41  1  0  0  0  0
 43 44  1  0  0  0  0
 44 34  1  0  0  0  0
M  END
>  <MODEL>
5

>  <REMARK>
 VINA RESULT:      -7.6      2.299      9.762
  Name = 
  11 active torsions:
  status: ('A' for Active; 'I' for Inactive)
    1  A    between atoms: N_1  and  C_41
    2  A    between atoms: N_2  and  N_12
    3  A    between atoms: N_2  and  C_43
    4  A    between atoms: C_4  and  N_25
    5  A    between atoms: C_5  and  C_24
    6  A    between atoms: N_8  and  C_43
    7  A    between atoms: N_12  and  N_32
    8  A    between atoms: C_15  and  C_22
    9  A    between atoms: C_17  and  N_25
   10  A    between atoms: N_25  and  C_41
   11  A    between atoms: C_30  and  C_31
                            x       y       z     vdW  Elec       q    Type
                         _______ _______ _______ _____ _____    ______ ____

>  <TORSDO>
F 11

$$$$
=
 OpenBabel11052409353D

 44 47  0  0  1  0  0  0  0  0999 V2000
  160.9200  203.4410  149.7460 C   0  0  0  0  0  0  0  0  0  0  0  0
  161.4270  204.5000  147.4700 C   0  0  0  0  0  0  0  0  0  0  0  0
  160.8280  204.5390  150.3560 O   0  0  0  0  0  0  0  0  0  0  0  0
  162.1290  204.3400  146.3920 N   0  0  0  0  0  0  0  0  0  0  0  0
  161.2950  203.3880  148.3650 N   0  0  0  0  0  2  0  0  0  0  0  0
  160.6820  202.1740  150.4850 C   0  0  0  0  0  1  0  0  0  0  0  0
  160.7090  205.7730  147.6930 C   0  0  0  0  0  3  0  0  0  0  0  0
  161.9380  208.0760  147.7670 C   0  0  0  0  0  3  0  0  0  0  0  0
  161.3260  206.9210  147.7070 C   0  0  0  0  0  0  0  0  0  0  0  0
  162.3210  210.9560  150.1760 C   0  0  0  0  0  3  0  0  0  0  0  0
  161.9730  210.3490  151.3400 N   0  0  0  0  0  0  0  0  0  0  0  0
  161.6110  209.0350  151.3880 C   0  0  0  0  0  0  0  0  0  0  0  0
  161.9510  208.8830  148.9950 C   0  0  0  0  0  0  0  0  0  0  0  0
  162.3160  210.2370  148.9820 C   0  0  0  0  0  3  0  0  0  0  0  0
  161.5990  208.2840  150.2040 C   0  0  0  0  0  3  0  0  0  0  0  0
  161.2450  208.4170  152.6800 C   0  0  0  0  0  0  0  0  0  0  0  0
  160.3530  209.1710  156.1740 N   0  0  0  0  0  0  0  0  0  0  0  0
  160.5680  207.2470  155.1140 C   0  0  0  0  0  0  0  0  0  0  0  0
  161.1640  207.0060  152.8080 C   0  0  0  0  0  3  0  0  0  0  0  0
  160.0910  208.1800  157.0530 C   0  0  0  0  0  3  0  0  0  0  0  0
  160.3210  210.5190  156.4460 O   0  0  0  0  0  1  0  0  0  0  0  0
  160.2170  206.9380  156.4170 C   0  0  0  0  0  3  0  0  0  0  0  0
  160.9760  209.2340  153.8010 C   0  0  0  0  0  3  0  0  0  0  0  0
  160.6420  208.6050  154.9980 C   0  0  0  0  0  0  0  0  0  0  0  0
  160.8200  206.4060  154.0340 C   0  0  0  0  0  3  0  0  0  0  0  0
  162.2380  205.3470  145.4240 N   0  0  0  0  0  2  0  0  0  0  0  0
  161.2840  205.4740  144.4000 N   0  0  0  0  0  2  0  0  0  0  0  0
  161.9830  205.4500  143.1190 C   0  0  0  0  0  2  0  0  0  0  0  0
  161.5830  207.8890  140.2100 N   0  0  0  0  0  2  0  0  0  0  0  0
  161.5300  206.5390  142.2650 N   0  0  0  0  0  2  0  0  0  0  0  0
  161.9770  206.7160  140.9220 C   0  0  0  0  0  0  0  0  0  0  0  0
  162.7020  205.8450  140.3700 O   0  0  0  0  0  0  0  0  0  0  0  0
  161.8970  208.0880  138.8040 C   0  0  0  0  0  2  0  0  0  0  0  0
  161.3590  209.3650  138.3610 N   0  0  0  0  0  0  0  0  0  0  0  0
  162.7250  212.8480  140.8910 C   0  0  0  0  0  3  0  0  0  0  0  0
  161.5730  210.5480  139.1560 C   0  0  0  0  0  0  0  0  0  0  0  0
  161.7340  212.5670  143.0590 N   0  0  0  0  0  1  0  0  0  0  0  0
  162.6950  211.2680  138.9680 C   0  0  0  0  0  3  0  0  0  0  0  0
  163.0820  212.5170  139.6520 C   0  0  0  0  0  3  0  0  0  0  0  0
  160.5050  210.9940  140.0170 N   0  0  0  0  0  0  0  0  0  0  0  0
  161.9400  211.9370  141.7670 C   0  0  1  0  0  3  0  0  0  0  0  0
  160.6200  211.6260  141.1470 C   0  0  0  0  0  3  0  0  0  0  0  0
  159.5090  208.4490  137.0410 C   0  0  0  0  0  1  0  0  0  0  0  0
  160.6910  209.4010  137.0600 C   0  0  0  0  0  2  0  0  0  0  0  0
  1  3  2  0  0  0  0
  1  6  1  0  0  0  0
  2  7  1  0  0  0  0
  2  5  1  0  0  0  0
  4  2  2  0  0  0  0
  5  1  1  0  0  0  0
  7  9  2  0  0  0  0
  8 13  1  0  0  0  0
  9  8  2  0  0  0  0
 10 11  1  0  0  0  0
 11 12  2  0  0  0  0
 12 16  1  0  0  0  0
 13 15  2  0  0  0  0
 14 13  1  0  0  0  0
 14 10  2  0  0  0  0
 15 12  1  0  0  0  0
 16 19  2  0  0  0  0
 16 23  1  0  0  0  0
 17 21  1  0  0  0  0
 17 20  1  0  0  0  0
 18 22  1  0  0  0  0
 19 25  1  0  0  0  0
 22 20  2  0  0  0  0
 23 24  2  0  0  0  0
 24 18  1  0  0  0  0
 24 17  1  0  0  0  0
 25 18  2  0  0  0  0
 26  4  1  0  0  0  0
 27 26  1  0  0  0  0
 28 27  1  0  0  0  0
 29 31  1  0  0  0  0
 30 28  1  0  0  0  0
 31 30  1  0  0  0  0
 32 31  2  0  0  0  0
 33 29  1  0  0  0  0
 34 33  1  0  0  0  0
 34 36  1  0  0  0  0
 35 41  1  0  0  0  0
 36 40  1  0  0  0  0
 38 36  2  0  0  0  0
 38 39  1  0  0  0  0
 39 35  2  0  0  0  0
 40 42  2  0  0  0  0
 41 37  1  1  0  0  0
 42 41  1  0  0  0  0
 43 44  1  0  0  0  0
 44 34  1  0  0  0  0
M  END
>  <MODEL>
6

>  <REMARK>
 VINA RESULT:      -7.5      3.521      8.287
  Name = 
  11 active torsions:
  status: ('A' for Active; 'I' for Inactive)
    1  A    between atoms: N_1  and  C_41
    2  A    between atoms: N_2  and  N_12
    3  A    between atoms: N_2  and  C_43
    4  A    between atoms: C_4  and  N_25
    5  A    between atoms: C_5  and  C_24
    6  A    between atoms: N_8  and  C_43
    7  A    between atoms: N_12  and  N_32
    8  A    between atoms: C_15  and  C_22
    9  A    between atoms: C_17  and  N_25
   10  A    between atoms: N_25  and  C_41
   11  A    between atoms: C_30  and  C_31
                            x       y       z     vdW  Elec       q    Type
                         _______ _______ _______ _____ _____    ______ ____

>  <TORSDO>
F 11

$$$$
=
 OpenBabel11052409353D

 44 47  0  0  1  0  0  0  0  0999 V2000
  160.5160  210.1020  155.9880 C   0  0  0  0  0  0  0  0  0  0  0  0
  160.7730  208.9490  153.7170 C   0  0  0  0  0  0  0  0  0  0  0  0
  161.4310  210.9430  155.7850 O   0  0  0  0  0  0  0  0  0  0  0  0
  160.7280  207.7890  153.1380 N   0  0  0  0  0  0  0  0  0  0  0  0
  160.2330  209.0680  155.0390 N   0  0  0  0  0  2  0  0  0  0  0  0
  159.7470  210.1540  157.2600 C   0  0  0  0  0  1  0  0  0  0  0  0
  161.2780  210.1190  152.9690 C   0  0  0  0  0  3  0  0  0  0  0  0
  159.9440  212.3570  152.8060 C   0  0  0  0  0  3  0  0  0  0  0  0
  160.6160  211.2410  152.9100 C   0  0  0  0  0  0  0  0  0  0  0  0
  157.7060  213.7330  150.0950 C   0  0  0  0  0  3  0  0  0  0  0  0
  158.5710  213.7440  149.0470 N   0  0  0  0  0  0  0  0  0  0  0  0
  159.8630  213.3260  149.1730 C   0  0  0  0  0  0  0  0  0  0  0  0
  159.4490  212.8470  151.5110 C   0  0  0  0  0  0  0  0  0  0  0  0
  158.1280  213.2860  151.3460 C   0  0  0  0  0  3  0  0  0  0  0  0
  160.3160  212.8680  150.4200 C   0  0  0  0  0  3  0  0  0  0  0  0
  160.7650  213.3520  148.0030 C   0  0  0  0  0  0  0  0  0  0  0  0
  160.9140  212.7740  144.3680 N   0  0  0  0  0  0  0  0  0  0  0  0
  162.4710  213.3920  145.8030 C   0  0  0  0  0  0  0  0  0  0  0  0
  162.1310  213.7080  148.1510 C   0  0  0  0  0  3  0  0  0  0  0  0
  162.0680  212.9350  143.6850 C   0  0  0  0  0  3  0  0  0  0  0  0
  159.7050  212.3960  143.8300 O   0  0  0  0  0  1  0  0  0  0  0  0
  163.0850  213.3290  144.5640 C   0  0  0  0  0  3  0  0  0  0  0  0
  160.2680  213.0190  146.7230 C   0  0  0  0  0  3  0  0  0  0  0  0
  161.1590  213.0510  145.6520 C   0  0  0  0  0  0  0  0  0  0  0  0
  163.0000  213.7330  147.0450 C   0  0  0  0  0  3  0  0  0  0  0  0
  161.1540  207.6050  151.8160 N   0  0  0  0  0  2  0  0  0  0  0  0
  161.8210  206.4330  151.4260 N   0  0  0  0  0  2  0  0  0  0  0  0
  161.6190  205.4250  152.4620 C   0  0  0  0  0  2  0  0  0  0  0  0
  160.5710  202.5110  150.2310 N   0  0  0  0  0  2  0  0  0  0  0  0
  161.4800  204.1010  151.8720 N   0  0  0  0  0  2  0  0  0  0  0  0
  160.7700  203.8580  150.6590 C   0  0  0  0  0  0  0  0  0  0  0  0
  160.3330  204.8200  149.9710 O   0  0  0  0  0  0  0  0  0  0  0  0
  159.9630  202.1820  148.9520 C   0  0  0  0  0  2  0  0  0  0  0  0
  161.0040  201.9050  147.9740 N   0  0  0  0  0  0  0  0  0  0  0  0
  162.3070  205.6000  145.7260 C   0  0  0  0  0  3  0  0  0  0  0  0
  161.4330  202.9440  147.0710 C   0  0  0  0  0  0  0  0  0  0  0  0
  160.5210  206.1720  144.2280 N   0  0  0  0  0  1  0  0  0  0  0  0
  162.3300  203.8530  147.4990 C   0  0  0  0  0  3  0  0  0  0  0  0
  162.9160  204.9640  146.7250 C   0  0  0  0  0  3  0  0  0  0  0  0
  160.9970  202.8780  145.6980 N   0  0  0  0  0  0  0  0  0  0  0  0
  160.9080  205.2990  145.3220 C   0  0  1  0  0  3  0  0  0  0  0  0
  160.7820  203.8760  144.8940 C   0  0  0  0  0  3  0  0  0  0  0  0
  161.3190  199.8020  146.7570 C   0  0  0  0  0  1  0  0  0  0  0  0
  161.6370  200.5870  148.0170 C   0  0  0  0  0  2  0  0  0  0  0  0
  1  6  1  0  0  0  0
  2  5  1  0  0  0  0
  3  1  2  0  0  0  0
  4  2  2  0  0  0  0
  5  1  1  0  0  0  0
  7  2  1  0  0  0  0
  8  9  2  0  0  0  0
  9  7  2  0  0  0  0
 10 14  1  0  0  0  0
 11 12  1  0  0  0  0
 11 10  2  0  0  0  0
 12 15  2  0  0  0  0
 13  8  1  0  0  0  0
 14 13  2  0  0  0  0
 15 13  1  0  0  0  0
 16 19  1  0  0  0  0
 16 12  1  0  0  0  0
 17 24  1  0  0  0  0
 18 25  1  0  0  0  0
 20 17  1  0  0  0  0
 20 22  2  0  0  0  0
 21 17  1  0  0  0  0
 22 18  1  0  0  0  0
 23 16  2  0  0  0  0
 24 18  2  0  0  0  0
 24 23  1  0  0  0  0
 25 19  2  0  0  0  0
 26  4  1  0  0  0  0
 27 26  1  0  0  0  0
 27 28  1  0  0  0  0
 29 31  1  0  0  0  0
 30 28  1  0  0  0  0
 31 30  1  0  0  0  0
 32 31  2  0  0  0  0
 33 29  1  0  0  0  0
 34 44  1  0  0  0  0
 34 33  1  0  0  0  0
 35 39  2  0  0  0  0
 36 38  2  0  0  0  0
 36 34  1  0  0  0  0
 39 38  1  0  0  0  0
 40 36  1  0  0  0  0
 41 37  1  6  0  0  0
 41 35  1  0  0  0  0
 42 41  1  0  0  0  0
 42 40  2  0  0  0  0
 43 44  1  0  0  0  0
M  END
>  <MODEL>
7

>  <REMARK>
 VINA RESULT:      -7.3      2.262      8.778
  Name = 
  11 active torsions:
  status: ('A' for Active; 'I' for Inactive)
    1  A    between atoms: N_1  and  C_41
    2  A    between atoms: N_2  and  N_12
    3  A    between atoms: N_2  and  C_43
    4  A    between atoms: C_4  and  N_25
    5  A    between atoms: C_5  and  C_24
    6  A    between atoms: N_8  and  C_43
    7  A    between atoms: N_12  and  N_32
    8  A    between atoms: C_15  and  C_22
    9  A    between atoms: C_17  and  N_25
   10  A    between atoms: N_25  and  C_41
   11  A    between atoms: C_30  and  C_31
                            x       y       z     vdW  Elec       q    Type
                         _______ _______ _______ _____ _____    ______ ____

>  <TORSDO>
F 11

$$$$
=
 OpenBabel11052409353D

 44 47  0  0  1  0  0  0  0  0999 V2000
  160.4050  203.7980  144.8840 C   0  0  0  0  0  0  0  0  0  0  0  0
  161.3330  205.6250  146.4190 C   0  0  0  0  0  0  0  0  0  0  0  0
  161.2730  202.9410  145.2010 O   0  0  0  0  0  0  0  0  0  0  0  0
  161.5310  206.9050  146.4960 N   0  0  0  0  0  0  0  0  0  0  0  0
  160.4600  205.1350  145.3930 N   0  0  0  0  0  2  0  0  0  0  0  0
  159.3300  203.4260  143.9260 C   0  0  0  0  0  1  0  0  0  0  0  0
  161.9220  204.7320  147.4380 C   0  0  0  0  0  3  0  0  0  0  0  0
  160.4990  203.6510  149.3410 C   0  0  0  0  0  3  0  0  0  0  0  0
  161.2020  204.1780  148.3720 C   0  0  0  0  0  0  0  0  0  0  0  0
  161.2170  203.3500  153.0340 C   0  0  0  0  0  3  0  0  0  0  0  0
  161.2050  204.6610  153.3920 N   0  0  0  0  0  0  0  0  0  0  0  0
  160.9780  205.6540  152.4870 C   0  0  0  0  0  0  0  0  0  0  0  0
  160.7520  203.9800  150.7510 C   0  0  0  0  0  0  0  0  0  0  0  0
  160.9920  202.9850  151.7080 C   0  0  0  0  0  3  0  0  0  0  0  0
  160.7450  205.3180  151.1450 C   0  0  0  0  0  3  0  0  0  0  0  0
  160.9700  207.0660  152.9250 C   0  0  0  0  0  0  0  0  0  0  0  0
  161.1190  209.2430  155.8930 N   0  0  0  0  0  0  0  0  0  0  0  0
  160.9450  209.7260  153.7470 C   0  0  0  0  0  0  0  0  0  0  0  0
  160.8670  208.1170  151.9770 C   0  0  0  0  0  3  0  0  0  0  0  0
  161.0640  210.5870  155.7720 C   0  0  0  0  0  3  0  0  0  0  0  0
  161.2330  208.5440  157.0720 O   0  0  0  0  0  1  0  0  0  0  0  0
  160.9540  210.9350  154.4200 C   0  0  0  0  0  3  0  0  0  0  0  0
  161.0640  207.3770  154.3000 C   0  0  0  0  0  3  0  0  0  0  0  0
  161.0460  208.7210  154.6650 C   0  0  0  0  0  0  0  0  0  0  0  0
  160.8550  209.4630  152.3830 C   0  0  0  0  0  3  0  0  0  0  0  0
  162.3000  207.4730  147.5200 N   0  0  0  0  0  2  0  0  0  0  0  0
  161.6960  208.1810  148.5720 N   0  0  0  0  0  2  0  0  0  0  0  0
  162.5050  209.3640  148.8510 C   0  0  0  0  0  2  0  0  0  0  0  0
  161.0910  212.9090  148.8140 N   0  0  0  0  0  2  0  0  0  0  0  0
  161.6570  210.5280  149.0620 N   0  0  0  0  0  2  0  0  0  0  0  0
  161.8940  211.7900  148.4390 C   0  0  0  0  0  0  0  0  0  0  0  0
  162.7940  211.9110  147.5650 O   0  0  0  0  0  0  0  0  0  0  0  0
  161.1890  214.1960  148.1450 C   0  0  0  0  0  2  0  0  0  0  0  0
  160.1280  214.3130  147.1560 N   0  0  0  0  0  0  0  0  0  0  0  0
  160.5060  213.7390  142.6910 C   0  0  0  0  0  3  0  0  0  0  0  0
  160.4480  214.2490  145.7520 C   0  0  0  0  0  0  0  0  0  0  0  0
  162.3260  212.2150  142.3360 N   0  0  0  0  0  1  0  0  0  0  0  0
  159.4630  214.4150  144.8480 C   0  0  0  0  0  3  0  0  0  0  0  0
  159.5890  214.4180  143.3780 C   0  0  0  0  0  3  0  0  0  0  0  0
  161.8370  214.1600  145.3710 N   0  0  0  0  0  0  0  0  0  0  0  0
  161.4800  212.8250  143.3460 C   0  0  1  0  0  3  0  0  0  0  0  0
  162.3260  213.5730  144.3200 C   0  0  0  0  0  3  0  0  0  0  0  0
  158.0030  213.1130  147.3700 C   0  0  0  0  0  1  0  0  0  0  0  0
  158.7530  214.4030  147.6470 C   0  0  0  0  0  2  0  0  0  0  0  0
  1  3  2  0  0  0  0
  1  5  1  0  0  0  0
  2  4  2  0  0  0  0
  2  7  1  0  0  0  0
  4 26  1  0  0  0  0
  5  2  1  0  0  0  0
  6  1  1  0  0  0  0
  7  9  2  0  0  0  0
  8 13  1  0  0  0  0
  9  8  2  0  0  0  0
 10 11  1  0  0  0  0
 12 16  1  0  0  0  0
 12 11  2  0  0  0  0
 13 15  2  0  0  0  0
 13 14  1  0  0  0  0
 14 10  2  0  0  0  0
 15 12  1  0  0  0  0
 16 23  1  0  0  0  0
 17 21  1  0  0  0  0
 18 22  1  0  0  0  0
 18 24  1  0  0  0  0
 19 25  1  0  0  0  0
 19 16  2  0  0  0  0
 20 17  1  0  0  0  0
 22 20  2  0  0  0  0
 23 24  2  0  0  0  0
 24 17  1  0  0  0  0
 25 18  2  0  0  0  0
 26 27  1  0  0  0  0
 27 28  1  0  0  0  0
 28 30  1  0  0  0  0
 31 29  1  0  0  0  0
 31 30  1  0  0  0  0
 32 31  2  0  0  0  0
 33 29  1  0  0  0  0
 34 44  1  0  0  0  0
 34 33  1  0  0  0  0
 35 41  1  0  0  0  0
 35 39  2  0  0  0  0
 36 34  1  0  0  0  0
 38 36  2  0  0  0  0
 39 38  1  0  0  0  0
 40 36  1  0  0  0  0
 41 37  1  6  0  0  0
 41 42  1  0  0  0  0
 42 40  2  0  0  0  0
 43 44  1  0  0  0  0
M  END
>  <MODEL>
8

>  <REMARK>
 VINA RESULT:      -7.3      2.399      7.237
  Name = 
  11 active torsions:
  status: ('A' for Active; 'I' for Inactive)
    1  A    between atoms: N_1  and  C_41
    2  A    between atoms: N_2  and  N_12
    3  A    between atoms: N_2  and  C_43
    4  A    between atoms: C_4  and  N_25
    5  A    between atoms: C_5  and  C_24
    6  A    between atoms: N_8  and  C_43
    7  A    between atoms: N_12  and  N_32
    8  A    between atoms: C_15  and  C_22
    9  A    between atoms: C_17  and  N_25
   10  A    between atoms: N_25  and  C_41
   11  A    between atoms: C_30  and  C_31
                            x       y       z     vdW  Elec       q    Type
                         _______ _______ _______ _____ _____    ______ ____

>  <TORSDO>
F 11

$$$$
=
 OpenBabel11052409353D

 44 47  0  0  1  0  0  0  0  0999 V2000
  161.1750  202.4940  148.8010 C   0  0  0  0  0  0  0  0  0  0  0  0
  161.4680  204.2950  147.0060 C   0  0  0  0  0  0  0  0  0  0  0  0
  161.1290  203.3070  149.7620 O   0  0  0  0  0  0  0  0  0  0  0  0
  162.0730  204.5470  145.8860 N   0  0  0  0  0  0  0  0  0  0  0  0
  161.4260  202.9370  147.4630 N   0  0  0  0  0  2  0  0  0  0  0  0
  161.0140  201.0400  149.0680 C   0  0  0  0  0  1  0  0  0  0  0  0
  160.7640  205.3830  147.7160 C   0  0  0  0  0  3  0  0  0  0  0  0
  162.0100  207.0880  149.2510 C   0  0  0  0  0  3  0  0  0  0  0  0
  161.3960  206.2440  148.4630 C   0  0  0  0  0  0  0  0  0  0  0  0
  161.6650  206.1650  152.8940 C   0  0  0  0  0  3  0  0  0  0  0  0
  161.1620  207.3240  153.3930 N   0  0  0  0  0  0  0  0  0  0  0  0
  160.9270  208.4090  152.6010 C   0  0  0  0  0  0  0  0  0  0  0  0
  161.7280  207.1510  150.6910 C   0  0  0  0  0  0  0  0  0  0  0  0
  161.9590  206.0570  151.5360 C   0  0  0  0  0  3  0  0  0  0  0  0
  161.2100  208.3290  151.2290 C   0  0  0  0  0  3  0  0  0  0  0  0
  160.3740  209.6470  153.1890 C   0  0  0  0  0  0  0  0  0  0  0  0
  159.3200  213.0860  152.3930 N   0  0  0  0  0  0  0  0  0  0  0  0
  159.3430  211.9810  154.3030 C   0  0  0  0  0  0  0  0  0  0  0  0
  160.0830  209.7210  154.5760 C   0  0  0  0  0  3  0  0  0  0  0  0
  158.8500  213.9090  153.3550 C   0  0  0  0  0  3  0  0  0  0  0  0
  159.4590  213.4000  151.0610 O   0  0  0  0  0  1  0  0  0  0  0  0
  158.8480  213.2420  154.5870 C   0  0  0  0  0  3  0  0  0  0  0  0
  160.1350  210.7710  152.3670 C   0  0  0  0  0  3  0  0  0  0  0  0
  159.6200  211.9180  152.9680 C   0  0  0  0  0  0  0  0  0  0  0  0
  159.5600  210.8950  155.1470 C   0  0  0  0  0  3  0  0  0  0  0  0
  162.0870  205.8310  145.3250 N   0  0  0  0  0  2  0  0  0  0  0  0
  161.3040  206.1390  144.2000 N   0  0  0  0  0  2  0  0  0  0  0  0
  162.0790  205.8240  143.0040 C   0  0  0  0  0  2  0  0  0  0  0  0
  161.2290  207.4690  139.6660 N   0  0  0  0  0  2  0  0  0  0  0  0
  161.3790  206.2660  141.8060 N   0  0  0  0  0  2  0  0  0  0  0  0
  162.0220  206.9540  140.7350 C   0  0  0  0  0  0  0  0  0  0  0  0
  163.2750  207.0970  140.7290 O   0  0  0  0  0  0  0  0  0  0  0  0
  161.8160  208.0770  138.4830 C   0  0  0  0  0  2  0  0  0  0  0  0
  161.1320  209.3260  138.1870 N   0  0  0  0  0  0  0  0  0  0  0  0
  162.6610  212.7950  140.6430 C   0  0  0  0  0  3  0  0  0  0  0  0
  161.3960  210.4950  138.9880 C   0  0  0  0  0  0  0  0  0  0  0  0
  161.9570  212.4120  142.9050 N   0  0  0  0  0  1  0  0  0  0  0  0
  162.4570  211.2690  138.6880 C   0  0  0  0  0  3  0  0  0  0  0  0
  162.8750  212.5140  139.3590 C   0  0  0  0  0  3  0  0  0  0  0  0
  160.4250  210.8710  139.9870 N   0  0  0  0  0  0  0  0  0  0  0  0
  162.0270  211.8270  141.5780 C   0  0  1  0  0  3  0  0  0  0  0  0
  160.6540  211.4760  141.1150 C   0  0  0  0  0  3  0  0  0  0  0  0
  158.8500  208.9420  137.3830 C   0  0  0  0  0  1  0  0  0  0  0  0
  160.2620  209.3570  137.0110 C   0  0  0  0  0  2  0  0  0  0  0  0
  1  6  1  0  0  0  0
  1  3  2  0  0  0  0
  2  5  1  0  0  0  0
  2  7  1  0  0  0  0
  4  2  2  0  0  0  0
  5  1  1  0  0  0  0
  7  9  2  0  0  0  0
  8 13  1  0  0  0  0
  9  8  2  0  0  0  0
 10 11  1  0  0  0  0
 12 16  1  0  0  0  0
 12 11  2  0  0  0  0
 13 15  2  0  0  0  0
 13 14  1  0  0  0  0
 14 10  2  0  0  0  0
 15 12  1  0  0  0  0
 16 19  1  0  0  0  0
 17 24  1  0  0  0  0
 17 20  1  0  0  0  0
 18 22  1  0  0  0  0
 18 25  1  0  0  0  0
 19 25  2  0  0  0  0
 20 22  2  0  0  0  0
 21 17  1  0  0  0  0
 23 24  1  0  0  0  0
 23 16  2  0  0  0  0
 24 18  2  0  0  0  0
 26  4  1  0  0  0  0
 27 26  1  0  0  0  0
 28 27  1  0  0  0  0
 29 31  1  0  0  0  0
 30 28  1  0  0  0  0
 31 30  1  0  0  0  0
 32 31  2  0  0  0  0
 33 29  1  0  0  0  0
 34 33  1  0  0  0  0
 34 36  1  0  0  0  0
 35 41  1  0  0  0  0
 36 40  1  0  0  0  0
 38 36  2  0  0  0  0
 38 39  1  0  0  0  0
 39 35  2  0  0  0  0
 40 42  2  0  0  0  0
 41 37  1  1  0  0  0
 42 41  1  0  0  0  0
 44 43  1  0  0  0  0
 44 34  1  0  0  0  0
M  END
>  <MODEL>
9

>  <REMARK>
 VINA RESULT:      -7.3      3.533      9.057
  Name = 
  11 active torsions:
  status: ('A' for Active; 'I' for Inactive)
    1  A    between atoms: N_1  and  C_41
    2  A    between atoms: N_2  and  N_12
    3  A    between atoms: N_2  and  C_43
    4  A    between atoms: C_4  and  N_25
    5  A    between atoms: C_5  and  C_24
    6  A    between atoms: N_8  and  C_43
    7  A    between atoms: N_12  and  N_32
    8  A    between atoms: C_15  and  C_22
    9  A    between atoms: C_17  and  N_25
   10  A    between atoms: N_25  and  C_41
   11  A    between atoms: C_30  and  C_31
                            x       y       z     vdW  Elec       q    Type
                         _______ _______ _______ _____ _____    ______ ____

>  <TORSDO>
F 11

$$$$
