=
 OpenBabel11052412133D

 41 46  0  0  1  0  0  0  0  0999 V2000
  162.1110  205.2800  147.4040 C   0  0  0  0  0  3  0  0  0  0  0  0
  161.0290  203.6460  148.8370 C   0  0  0  0  0  0  0  0  0  0  0  0
  161.4820  205.8800  149.6980 C   0  0  0  0  0  0  0  0  0  0  0  0
  160.3920  204.1970  151.0550 C   0  0  0  0  0  3  0  0  0  0  0  0
  160.4760  203.3120  150.0310 N   0  0  0  0  0  0  0  0  0  0  0  0
  162.1310  204.3370  146.3780 C   0  0  0  0  0  3  0  0  0  0  0  0
  161.0750  202.7190  147.7770 C   0  0  0  0  0  0  0  0  0  0  0  0
  161.6190  203.0950  146.5830 N   0  0  0  0  0  0  0  0  0  0  0  0
  161.5520  204.9460  148.6460 C   0  0  0  0  0  0  0  0  0  0  0  0
  160.8840  205.4960  150.9140 C   0  0  0  0  0  0  0  0  0  0  0  0
  162.1100  209.3340  148.1920 C   0  0  0  0  0  2  0  0  0  0  0  0
  161.8990  210.1680  150.5480 C   0  0  0  0  0  3  0  0  0  0  0  0
  161.9810  207.2540  149.5020 C   0  0  0  0  0  0  0  0  0  0  0  0
  162.9710  207.8370  150.4570 C   0  0  0  0  0  2  0  0  0  0  0  0
  161.5610  207.9670  148.4620 C   0  0  0  0  0  3  0  0  0  0  0  0
  162.2980  208.9160  151.2910 C   0  0  0  0  0  2  0  0  0  0  0  0
  161.7400  210.3630  149.2300 C   0  0  0  0  0  0  0  0  0  0  0  0
  162.1240  212.6880  148.2120 C   0  0  0  0  0  0  0  0  0  0  0  0
  161.3160  211.6690  148.8180 N   0  0  0  0  0  2  0  0  0  0  0  0
  163.3550  212.5150  148.0060 O   0  0  0  0  0  0  0  0  0  0  0  0
  161.5130  214.0010  147.8760 C   0  0  0  0  0  2  0  0  0  0  0  0
  159.9990  213.8820  147.9230 C   0  0  0  0  0  2  0  0  0  0  0  0
  159.5100  212.4690  145.8440 C   0  0  0  0  0  2  0  0  0  0  0  0
  158.0980  214.3490  146.4720 O   0  0  0  0  0  1  0  0  0  0  0  0
  159.3940  213.8250  146.5280 C   0  0  0  0  0  0  0  0  0  0  0  0
  160.4020  213.1060  144.7960 C   0  0  0  0  0  0  0  0  0  0  0  0
  159.8390  213.0980  143.5190 O   0  0  0  0  0  1  0  0  0  0  0  0
  161.7030  212.6040  144.8050 O   0  0  0  0  0  1  0  0  0  0  0  0
  160.2940  214.4520  145.4810 C   0  0  0  0  0  2  0  0  0  0  0  0
  161.6530  200.3820  148.4280 C   0  0  0  0  0  2  0  0  0  0  0  0
  161.2610  200.3890  146.9670 C   0  0  0  0  0  2  0  0  0  0  0  0
  160.5550  201.3180  147.9410 C   0  0  0  0  0  3  0  0  0  0  0  0
  160.7720  206.4330  152.0750 C   0  0  0  0  0  2  0  0  0  0  0  0
  161.0380  205.7060  153.3820 C   0  0  0  0  0  2  0  0  0  0  0  0
  161.8860  206.5540  154.3130 C   0  0  0  0  0  2  0  0  0  0  0  0
  161.0620  207.5620  155.0430 C   0  0  0  0  0  0  0  0  0  0  0  0
  159.5120  206.8090  156.9060 O   0  0  0  0  0  0  0  0  0  0  0  0
  160.2630  207.1710  155.9990 C   0  0  0  0  0  0  0  0  0  0  0  0
  161.3960  209.0160  154.9110 C   0  0  1  0  0  3  0  0  0  0  0  0
  160.6490  209.7580  155.8500 O   0  0  0  0  0  0  0  0  0  0  0  0
  162.0020  209.5470  156.1510 C   0  0  0  0  0  2  0  0  0  0  0  0
  1  9  1  0  0  0  0
  2  5  1  0  0  0  0
  3 10  2  0  0  0  0
  5  4  2  0  0  0  0
  6  8  1  0  0  0  0
  6  1  2  0  0  0  0
  7 32  1  0  0  0  0
  7  2  1  0  0  0  0
  8  7  2  0  0  0  0
  9  2  2  0  0  0  0
  9  3  1  0  0  0  0
 10  4  1  0  0  0  0
 10 33  1  0  0  0  0
 11 15  1  0  0  0  0
 11 17  1  0  0  0  0
 12 16  1  0  0  0  0
 13  3  1  0  0  0  0
 13 14  1  0  0  0  0
 14 16  1  0  0  0  0
 15 13  2  0  0  0  0
 17 12  2  0  0  0  0
 18 19  1  0  0  0  0
 19 17  1  0  0  0  0
 20 18  2  0  0  0  0
 21 22  1  0  0  0  0
 21 18  1  0  0  0  0
 23 25  1  0  0  0  0
 24 25  1  0  0  0  0
 25 22  1  0  0  0  0
 26 28  1  0  0  0  0
 26 29  1  0  0  0  0
 26 23  1  0  0  0  0
 27 26  1  0  0  0  0
 29 25  1  0  0  0  0
 31 32  1  0  0  0  0
 31 30  1  0  0  0  0
 32 30  1  0  0  0  0
 33 34  1  0  0  0  0
 34 35  1  0  0  0  0
 35 36  1  0  0  0  0
 36 38  2  0  0  0  0
 38 37  2  0  0  0  0
 39 36  1  1  0  0  0
 39 40  1  0  0  0  0
 39 41  1  0  0  0  0
 40 41  1  0  0  0  0
M  END
>  <MODEL>
1

>  <REMARK>
 VINA RESULT:      -7.6      0.000      0.000
  Name = 
  11 active torsions:
  status: ('A' for Active; 'I' for Inactive)
    1  A    between atoms: C_1  and  C_27
    2  A    between atoms: C_2  and  C_6
    3  A    between atoms: C_2  and  C_39
    4  A    between atoms: C_4  and  C_33
    5  A    between atoms: C_6  and  C_8
    6  A    between atoms: N_7  and  C_38
    7  A    between atoms: C_8  and  C_27
    8  A    between atoms: C_10  and  C_31
    9  A    between atoms: C_15  and  C_17
   10  A    between atoms: C_22  and  C_30
   11  A    between atoms: C_31  and  C_33
                            x       y       z     vdW  Elec       q    Type
                         _______ _______ _______ _____ _____    ______ ____

>  <TORSDO>
F 11

$$$$
=
 OpenBabel11052412133D

 41 46  0  0  1  0  0  0  0  0999 V2000
  161.0470  204.7650  152.2890 C   0  0  0  0  0  3  0  0  0  0  0  0
  161.2420  204.9050  149.8720 C   0  0  0  0  0  0  0  0  0  0  0  0
  161.4490  206.9310  151.2090 C   0  0  0  0  0  0  0  0  0  0  0  0
  161.6460  206.9810  148.7970 C   0  0  0  0  0  3  0  0  0  0  0  0
  161.4370  205.6420  148.7490 N   0  0  0  0  0  0  0  0  0  0  0  0
  160.8760  203.3860  152.1740 C   0  0  0  0  0  3  0  0  0  0  0  0
  161.0590  203.5100  149.7990 C   0  0  0  0  0  0  0  0  0  0  0  0
  160.8870  202.7960  150.9500 N   0  0  0  0  0  0  0  0  0  0  0  0
  161.2390  205.5400  151.1360 C   0  0  0  0  0  0  0  0  0  0  0  0
  161.6640  207.6540  150.0200 C   0  0  0  0  0  0  0  0  0  0  0  0
  161.3540  209.6310  153.9110 C   0  0  0  0  0  2  0  0  0  0  0  0
  160.0950  207.9360  155.2640 C   0  0  0  0  0  3  0  0  0  0  0  0
  161.4940  207.6040  152.5220 C   0  0  0  0  0  0  0  0  0  0  0  0
  161.8490  206.8300  153.7500 C   0  0  0  0  0  2  0  0  0  0  0  0
  161.2370  208.9050  152.6070 C   0  0  0  0  0  3  0  0  0  0  0  0
  160.6140  206.6710  154.6240 C   0  0  0  0  0  2  0  0  0  0  0  0
  160.3350  209.2160  154.9410 C   0  0  0  0  0  0  0  0  0  0  0  0
  159.5110  211.6040  155.3970 C   0  0  0  0  0  0  0  0  0  0  0  0
  159.6630  210.2140  155.7200 N   0  0  0  0  0  2  0  0  0  0  0  0
  160.0110  212.0940  154.3490 O   0  0  0  0  0  0  0  0  0  0  0  0
  158.8030  212.5010  156.3470 C   0  0  0  0  0  2  0  0  0  0  0  0
  157.4340  211.9250  156.6640 C   0  0  0  0  0  2  0  0  0  0  0  0
  155.7720  212.2440  154.7420 C   0  0  0  0  0  2  0  0  0  0  0  0
  155.3030  213.0630  156.9860 O   0  0  0  0  0  1  0  0  0  0  0  0
  156.3150  212.7650  156.0660 C   0  0  0  0  0  0  0  0  0  0  0  0
  156.2850  213.5020  154.0690 C   0  0  0  0  0  0  0  0  0  0  0  0
  155.2650  214.3040  153.5540 O   0  0  0  0  0  1  0  0  0  0  0  0
  157.2880  213.2530  153.1320 O   0  0  0  0  0  1  0  0  0  0  0  0
  156.8330  214.0170  155.3840 C   0  0  0  0  0  2  0  0  0  0  0  0
  159.9500  201.7200  148.4630 C   0  0  0  0  0  2  0  0  0  0  0  0
  161.3960  201.3330  148.6730 C   0  0  0  0  0  2  0  0  0  0  0  0
  161.0280  202.7940  148.4770 C   0  0  0  0  0  3  0  0  0  0  0  0
  161.8950  209.1320  150.0190 C   0  0  0  0  0  2  0  0  0  0  0  0
  161.8390  209.6860  148.6070 C   0  0  0  0  0  2  0  0  0  0  0  0
  162.4400  211.0780  148.5440 C   0  0  0  0  0  2  0  0  0  0  0  0
  161.4100  212.1080  148.2110 C   0  0  0  0  0  0  0  0  0  0  0  0
  160.4340  213.5530  150.0540 O   0  0  0  0  0  0  0  0  0  0  0  0
  160.9070  212.8480  149.1630 C   0  0  0  0  0  0  0  0  0  0  0  0
  161.2110  212.5090  146.7820 C   0  0  1  0  0  3  0  0  0  0  0  0
  160.5900  213.7750  146.7310 O   0  0  0  0  0  0  0  0  0  0  0  0
  161.9640  213.7400  146.4550 C   0  0  0  0  0  2  0  0  0  0  0  0
  2  9  1  0  0  0  0
  3 13  1  0  0  0  0
  4 10  1  0  0  0  0
  5  4  2  0  0  0  0
  5  2  1  0  0  0  0
  6  1  1  0  0  0  0
  7  2  2  0  0  0  0
  7  8  1  0  0  0  0
  8  6  2  0  0  0  0
  9  3  1  0  0  0  0
  9  1  2  0  0  0  0
 10  3  2  0  0  0  0
 11 17  1  0  0  0  0
 13 15  2  0  0  0  0
 13 14  1  0  0  0  0
 14 16  1  0  0  0  0
 15 11  1  0  0  0  0
 16 12  1  0  0  0  0
 17 12  2  0  0  0  0
 17 19  1  0  0  0  0
 18 19  1  0  0  0  0
 18 21  1  0  0  0  0
 20 18  2  0  0  0  0
 21 22  1  0  0  0  0
 23 25  1  0  0  0  0
 25 22  1  0  0  0  0
 25 24  1  0  0  0  0
 26 23  1  0  0  0  0
 26 29  1  0  0  0  0
 27 26  1  0  0  0  0
 28 26  1  0  0  0  0
 29 25  1  0  0  0  0
 30 32  1  0  0  0  0
 30 31  1  0  0  0  0
 32 31  1  0  0  0  0
 32  7  1  0  0  0  0
 33 10  1  0  0  0  0
 34 33  1  0  0  0  0
 35 34  1  0  0  0  0
 36 35  1  0  0  0  0
 36 38  2  0  0  0  0
 38 37  2  0  0  0  0
 39 36  1  1  0  0  0
 40 39  1  0  0  0  0
 41 40  1  0  0  0  0
 41 39  1  0  0  0  0
M  END
>  <MODEL>
2

>  <REMARK>
 VINA RESULT:      -7.4      3.430      6.994
  Name = 
  11 active torsions:
  status: ('A' for Active; 'I' for Inactive)
    1  A    between atoms: C_1  and  C_27
    2  A    between atoms: C_2  and  C_6
    3  A    between atoms: C_2  and  C_39
    4  A    between atoms: C_4  and  C_33
    5  A    between atoms: C_6  and  C_8
    6  A    between atoms: N_7  and  C_38
    7  A    between atoms: C_8  and  C_27
    8  A    between atoms: C_10  and  C_31
    9  A    between atoms: C_15  and  C_17
   10  A    between atoms: C_22  and  C_30
   11  A    between atoms: C_31  and  C_33
                            x       y       z     vdW  Elec       q    Type
                         _______ _______ _______ _____ _____    ______ ____

>  <TORSDO>
F 11

$$$$
=
 OpenBabel11052412133D

 41 46  0  0  1  0  0  0  0  0999 V2000
  161.0480  204.2380  150.3810 C   0  0  0  0  0  3  0  0  0  0  0  0
  161.4510  204.5830  148.0120 C   0  0  0  0  0  0  0  0  0  0  0  0
  161.8680  206.4050  149.5740 C   0  0  0  0  0  0  0  0  0  0  0  0
  162.2600  206.6600  147.1990 C   0  0  0  0  0  3  0  0  0  0  0  0
  161.8460  205.3850  146.9910 N   0  0  0  0  0  0  0  0  0  0  0  0
  160.6720  202.9240  150.1050 C   0  0  0  0  0  3  0  0  0  0  0  0
  161.0570  203.2510  147.7740 C   0  0  0  0  0  0  0  0  0  0  0  0
  160.6850  202.4650  148.8260 N   0  0  0  0  0  0  0  0  0  0  0  0
  161.4490  205.0820  149.3350 C   0  0  0  0  0  0  0  0  0  0  0  0
  162.2870  207.1960  148.4870 C   0  0  0  0  0  0  0  0  0  0  0  0
  161.3720  208.6490  152.6250 C   0  0  0  0  0  2  0  0  0  0  0  0
  160.9640  206.5110  153.8700 C   0  0  0  0  0  3  0  0  0  0  0  0
  161.9160  206.9280  150.9530 C   0  0  0  0  0  0  0  0  0  0  0  0
  162.6990  206.2070  152.0020 C   0  0  0  0  0  2  0  0  0  0  0  0
  161.2760  208.0530  151.2560 C   0  0  0  0  0  3  0  0  0  0  0  0
  161.7440  205.5610  152.9940 C   0  0  0  0  0  2  0  0  0  0  0  0
  160.7260  207.8210  153.7060 C   0  0  0  0  0  0  0  0  0  0  0  0
  160.3540  209.3380  155.7440 C   0  0  0  0  0  0  0  0  0  0  0  0
  159.9120  208.4580  154.7000 N   0  0  0  0  0  2  0  0  0  0  0  0
  161.5730  209.6170  155.8950 O   0  0  0  0  0  0  0  0  0  0  0  0
  159.3620  209.8840  156.7060 C   0  0  0  0  0  2  0  0  0  0  0  0
  159.5260  211.3910  156.8030 C   0  0  0  0  0  2  0  0  0  0  0  0
  157.6900  213.1300  156.3980 C   0  0  0  0  0  2  0  0  0  0  0  0
  159.3820  212.6440  154.7180 O   0  0  0  0  0  1  0  0  0  0  0  0
  158.6530  212.1190  155.7900 C   0  0  0  0  0  0  0  0  0  0  0  0
  156.5330  212.2800  155.9080 C   0  0  0  0  0  0  0  0  0  0  0  0
  155.7500  212.9210  154.9460 O   0  0  0  0  0  1  0  0  0  0  0  0
  155.7680  211.7450  156.9440 O   0  0  0  0  0  1  0  0  0  0  0  0
  157.4910  211.2700  155.3110 C   0  0  0  0  0  2  0  0  0  0  0  0
  159.7080  201.9520  146.1270 C   0  0  0  0  0  2  0  0  0  0  0  0
  160.9600  201.1670  146.4440 C   0  0  0  0  0  2  0  0  0  0  0  0
  161.0180  202.6840  146.3820 C   0  0  0  0  0  3  0  0  0  0  0  0
  162.7470  208.6090  148.6640 C   0  0  0  0  0  2  0  0  0  0  0  0
  161.6350  209.5850  148.3200 C   0  0  0  0  0  2  0  0  0  0  0  0
  161.9370  210.9680  148.8680 C   0  0  0  0  0  2  0  0  0  0  0  0
  161.8660  212.0110  147.8020 C   0  0  0  0  0  0  0  0  0  0  0  0
  159.7920  212.1880  146.3500 O   0  0  0  0  0  0  0  0  0  0  0  0
  160.7980  212.0970  147.0540 C   0  0  0  0  0  0  0  0  0  0  0  0
  162.8500  213.1400  147.8160 C   0  0  1  0  0  3  0  0  0  0  0  0
  162.3760  214.1870  146.9970 O   0  0  0  0  0  0  0  0  0  0  0  0
  162.2540  214.3700  148.3810 C   0  0  0  0  0  2  0  0  0  0  0  0
  2  9  1  0  0  0  0
  3 13  1  0  0  0  0
  4 10  1  0  0  0  0
  5  4  2  0  0  0  0
  5  2  1  0  0  0  0
  6  1  1  0  0  0  0
  7  2  2  0  0  0  0
  7  8  1  0  0  0  0
  8  6  2  0  0  0  0
  9  3  1  0  0  0  0
  9  1  2  0  0  0  0
 10 33  1  0  0  0  0
 10  3  2  0  0  0  0
 11 17  1  0  0  0  0
 13 15  2  0  0  0  0
 13 14  1  0  0  0  0
 14 16  1  0  0  0  0
 15 11  1  0  0  0  0
 16 12  1  0  0  0  0
 17 12  2  0  0  0  0
 17 19  1  0  0  0  0
 18 20  2  0  0  0  0
 18 21  1  0  0  0  0
 19 18  1  0  0  0  0
 21 22  1  0  0  0  0
 24 25  1  0  0  0  0
 25 23  1  0  0  0  0
 25 22  1  0  0  0  0
 26 23  1  0  0  0  0
 26 28  1  0  0  0  0
 27 26  1  0  0  0  0
 29 25  1  0  0  0  0
 29 26  1  0  0  0  0
 30 32  1  0  0  0  0
 30 31  1  0  0  0  0
 32 31  1  0  0  0  0
 32  7  1  0  0  0  0
 34 33  1  0  0  0  0
 34 35  1  0  0  0  0
 36 35  1  0  0  0  0
 37 38  2  0  0  0  0
 38 36  2  0  0  0  0
 39 36  1  6  0  0  0
 39 41  1  0  0  0  0
 40 39  1  0  0  0  0
 40 41  1  0  0  0  0
M  END
>  <MODEL>
3

>  <REMARK>
 VINA RESULT:      -7.3      2.718      7.207
  Name = 
  11 active torsions:
  status: ('A' for Active; 'I' for Inactive)
    1  A    between atoms: C_1  and  C_27
    2  A    between atoms: C_2  and  C_6
    3  A    between atoms: C_2  and  C_39
    4  A    between atoms: C_4  and  C_33
    5  A    between atoms: C_6  and  C_8
    6  A    between atoms: N_7  and  C_38
    7  A    between atoms: C_8  and  C_27
    8  A    between atoms: C_10  and  C_31
    9  A    between atoms: C_15  and  C_17
   10  A    between atoms: C_22  and  C_30
   11  A    between atoms: C_31  and  C_33
                            x       y       z     vdW  Elec       q    Type
                         _______ _______ _______ _____ _____    ______ ____

>  <TORSDO>
F 11

$$$$
=
 OpenBabel11052412133D

 41 46  0  0  1  0  0  0  0  0999 V2000
  161.3150  210.7270  153.0190 C   0  0  0  0  0  3  0  0  0  0  0  0
  161.0530  208.3130  152.9940 C   0  0  0  0  0  0  0  0  0  0  0  0
  161.4680  209.4940  150.9040 C   0  0  0  0  0  0  0  0  0  0  0  0
  161.2130  207.0880  150.9690 C   0  0  0  0  0  3  0  0  0  0  0  0
  161.0220  207.1410  152.3110 N   0  0  0  0  0  0  0  0  0  0  0  0
  161.1510  210.7100  154.4040 C   0  0  0  0  0  3  0  0  0  0  0  0
  160.8850  208.3400  154.3930 C   0  0  0  0  0  0  0  0  0  0  0  0
  160.9440  209.5340  155.0520 N   0  0  0  0  0  0  0  0  0  0  0  0
  161.2750  209.5250  152.2990 C   0  0  0  0  0  0  0  0  0  0  0  0
  161.4450  208.2540  150.2380 C   0  0  0  0  0  0  0  0  0  0  0  0
  162.7420  211.9480  148.2680 C   0  0  0  0  0  2  0  0  0  0  0  0
  160.5100  213.0600  148.5280 C   0  0  0  0  0  3  0  0  0  0  0  0
  161.7450  210.7420  150.1680 C   0  0  0  0  0  0  0  0  0  0  0  0
  161.3360  212.0590  150.7430 C   0  0  0  0  0  2  0  0  0  0  0  0
  162.3770  210.6940  148.9990 C   0  0  0  0  0  3  0  0  0  0  0  0
  160.1790  212.6280  149.9360 C   0  0  0  0  0  2  0  0  0  0  0  0
  161.5600  212.7330  147.7600 C   0  0  0  0  0  0  0  0  0  0  0  0
  160.7650  212.8860  145.3240 C   0  0  0  0  0  0  0  0  0  0  0  0
  161.5840  213.2790  146.4350 N   0  0  0  0  0  2  0  0  0  0  0  0
  159.9260  211.9510  145.4250 O   0  0  0  0  0  0  0  0  0  0  0  0
  160.9520  213.5500  144.0080 C   0  0  0  0  0  2  0  0  0  0  0  0
  161.7920  212.6620  143.1060 C   0  0  0  0  0  2  0  0  0  0  0  0
  160.8700  211.2170  141.2040 C   0  0  0  0  0  2  0  0  0  0  0  0
  160.2230  213.5490  141.4660 O   0  0  0  0  0  1  0  0  0  0  0  0
  161.2390  212.6120  141.6900 C   0  0  0  0  0  0  0  0  0  0  0  0
  161.9550  211.3270  140.1510 C   0  0  0  0  0  0  0  0  0  0  0  0
  161.4570  211.3260  138.8470 O   0  0  0  0  0  1  0  0  0  0  0  0
  162.9850  210.4020  140.3260 O   0  0  0  0  0  1  0  0  0  0  0  0
  162.3280  212.7110  140.6390 C   0  0  0  0  0  2  0  0  0  0  0  0
  159.2880  207.1590  155.9000 C   0  0  0  0  0  2  0  0  0  0  0  0
  160.5740  207.3950  156.6590 C   0  0  0  0  0  2  0  0  0  0  0  0
  160.6220  207.0810  155.1720 C   0  0  0  0  0  3  0  0  0  0  0  0
  161.6450  208.1420  148.7590 C   0  0  0  0  0  2  0  0  0  0  0  0
  161.3620  206.7280  148.2830 C   0  0  0  0  0  2  0  0  0  0  0  0
  162.3720  206.2940  147.2360 C   0  0  0  0  0  2  0  0  0  0  0  0
  162.1330  204.8900  146.7880 C   0  0  0  0  0  0  0  0  0  0  0  0
  161.1890  203.1910  148.4200 O   0  0  0  0  0  0  0  0  0  0  0  0
  161.6500  204.0180  147.6310 C   0  0  0  0  0  0  0  0  0  0  0  0
  162.1280  204.5800  145.3220 C   0  0  1  0  0  3  0  0  0  0  0  0
  160.9660  203.8470  145.0000 O   0  0  0  0  0  0  0  0  0  0  0  0
  160.9720  205.2030  144.6410 C   0  0  0  0  0  2  0  0  0  0  0  0
  1  6  1  0  0  0  0
  2  7  2  0  0  0  0
  3  9  1  0  0  0  0
  4  5  2  0  0  0  0
  5  2  1  0  0  0  0
  6  8  2  0  0  0  0
  7  8  1  0  0  0  0
  7 32  1  0  0  0  0
  9  2  1  0  0  0  0
  9  1  2  0  0  0  0
 10  3  2  0  0  0  0
 10  4  1  0  0  0  0
 11 15  1  0  0  0  0
 12 16  1  0  0  0  0
 13 14  1  0  0  0  0
 13  3  1  0  0  0  0
 15 13  2  0  0  0  0
 16 14  1  0  0  0  0
 17 11  1  0  0  0  0
 17 12  2  0  0  0  0
 18 20  2  0  0  0  0
 18 19  1  0  0  0  0
 19 17  1  0  0  0  0
 21 18  1  0  0  0  0
 22 21  1  0  0  0  0
 23 25  1  0  0  0  0
 24 25  1  0  0  0  0
 25 22  1  0  0  0  0
 26 28  1  0  0  0  0
 26 29  1  0  0  0  0
 26 23  1  0  0  0  0
 27 26  1  0  0  0  0
 29 25  1  0  0  0  0
 30 31  1  0  0  0  0
 32 30  1  0  0  0  0
 32 31  1  0  0  0  0
 33 10  1  0  0  0  0
 34 33  1  0  0  0  0
 35 34  1  0  0  0  0
 36 35  1  0  0  0  0
 36 38  2  0  0  0  0
 38 37  2  0  0  0  0
 39 36  1  1  0  0  0
 40 39  1  0  0  0  0
 41 40  1  0  0  0  0
 41 39  1  0  0  0  0
M  END
>  <MODEL>
4

>  <REMARK>
 VINA RESULT:      -7.0      3.241      6.882
  Name = 
  11 active torsions:
  status: ('A' for Active; 'I' for Inactive)
    1  A    between atoms: C_1  and  C_27
    2  A    between atoms: C_2  and  C_6
    3  A    between atoms: C_2  and  C_39
    4  A    between atoms: C_4  and  C_33
    5  A    between atoms: C_6  and  C_8
    6  A    between atoms: N_7  and  C_38
    7  A    between atoms: C_8  and  C_27
    8  A    between atoms: C_10  and  C_31
    9  A    between atoms: C_15  and  C_17
   10  A    between atoms: C_22  and  C_30
   11  A    between atoms: C_31  and  C_33
                            x       y       z     vdW  Elec       q    Type
                         _______ _______ _______ _____ _____    ______ ____

>  <TORSDO>
F 11

$$$$
=
 OpenBabel11052412133D

 41 46  0  0  1  0  0  0  0  0999 V2000
  159.4340  210.6200  155.7630 C   0  0  0  0  0  3  0  0  0  0  0  0
  158.4090  212.7050  155.0570 C   0  0  0  0  0  0  0  0  0  0  0  0
  159.8020  211.4660  153.4890 C   0  0  0  0  0  0  0  0  0  0  0  0
  158.7310  213.5430  152.8610 C   0  0  0  0  0  3  0  0  0  0  0  0
  158.1940  213.6450  154.1030 N   0  0  0  0  0  0  0  0  0  0  0  0
  158.8200  210.7630  157.0060 C   0  0  0  0  0  3  0  0  0  0  0  0
  157.8130  212.8160  156.3290 C   0  0  0  0  0  0  0  0  0  0  0  0
  158.0340  211.8420  157.2590 N   0  0  0  0  0  0  0  0  0  0  0  0
  159.2290  211.5880  154.7700 C   0  0  0  0  0  0  0  0  0  0  0  0
  159.5380  212.4560  152.5240 C   0  0  0  0  0  0  0  0  0  0  0  0
  160.8440  207.8850  152.6630 C   0  0  0  0  0  2  0  0  0  0  0  0
  162.4010  208.9430  151.0060 C   0  0  0  0  0  3  0  0  0  0  0  0
  160.6230  210.2850  153.1570 C   0  0  0  0  0  0  0  0  0  0  0  0
  162.1120  210.3970  153.1020 C   0  0  0  0  0  2  0  0  0  0  0  0
  160.0350  209.1160  152.9240 C   0  0  0  0  0  3  0  0  0  0  0  0
  162.5760  210.2930  151.6570 C   0  0  0  0  0  2  0  0  0  0  0  0
  161.6170  207.9160  151.3700 C   0  0  0  0  0  0  0  0  0  0  0  0
  161.4960  206.7310  149.0950 C   0  0  0  0  0  0  0  0  0  0  0  0
  161.6370  206.7590  150.5230 N   0  0  0  0  0  2  0  0  0  0  0  0
  161.3030  207.7860  148.4330 O   0  0  0  0  0  0  0  0  0  0  0  0
  161.5140  205.4260  148.3860 C   0  0  0  0  0  2  0  0  0  0  0  0
  160.4580  204.5100  148.9800 C   0  0  0  0  0  2  0  0  0  0  0  0
  161.9640  202.5990  148.1830 C   0  0  0  0  0  2  0  0  0  0  0  0
  161.5050  202.9630  150.5450 O   0  0  0  0  0  1  0  0  0  0  0  0
  161.0050  203.1160  149.2470 C   0  0  0  0  0  0  0  0  0  0  0  0
  160.9640  201.5080  147.8520 C   0  0  0  0  0  0  0  0  0  0  0  0
  161.4380  200.2250  148.1330 O   0  0  0  0  0  1  0  0  0  0  0  0
  160.4470  201.6110  146.5600 O   0  0  0  0  0  1  0  0  0  0  0  0
  160.0060  202.0270  148.9040 C   0  0  0  0  0  2  0  0  0  0  0  0
  155.5180  213.5680  156.9500 C   0  0  0  0  0  2  0  0  0  0  0  0
  155.8870  214.2020  155.6280 C   0  0  0  0  0  2  0  0  0  0  0  0
  156.9550  213.9970  156.6900 C   0  0  0  0  0  3  0  0  0  0  0  0
  160.1110  212.3920  151.1430 C   0  0  0  0  0  2  0  0  0  0  0  0
  159.4900  213.4540  150.2530 C   0  0  0  0  0  2  0  0  0  0  0  0
  160.5030  213.9880  149.2560 C   0  0  0  0  0  2  0  0  0  0  0  0
  160.6050  213.1110  148.0520 C   0  0  0  0  0  0  0  0  0  0  0  0
  158.5780  212.7740  146.5630 O   0  0  0  0  0  0  0  0  0  0  0  0
  159.5590  212.9370  147.2900 C   0  0  0  0  0  0  0  0  0  0  0  0
  161.9590  212.7160  147.5470 C   0  0  1  0  0  3  0  0  0  0  0  0
  162.7850  212.3690  148.6370 O   0  0  0  0  0  0  0  0  0  0  0  0
  162.2710  211.3080  147.8780 C   0  0  0  0  0  2  0  0  0  0  0  0
  1  6  1  0  0  0  0
  2  7  2  0  0  0  0
  3  9  1  0  0  0  0
  4  5  2  0  0  0  0
  5  2  1  0  0  0  0
  6  8  2  0  0  0  0
  7 32  1  0  0  0  0
  7  8  1  0  0  0  0
  9  2  1  0  0  0  0
  9  1  2  0  0  0  0
 10  4  1  0  0  0  0
 10  3  2  0  0  0  0
 11 15  1  0  0  0  0
 12 17  2  0  0  0  0
 12 16  1  0  0  0  0
 13  3  1  0  0  0  0
 14 13  1  0  0  0  0
 15 13  2  0  0  0  0
 16 14  1  0  0  0  0
 17 11  1  0  0  0  0
 18 19  1  0  0  0  0
 19 17  1  0  0  0  0
 20 18  2  0  0  0  0
 21 22  1  0  0  0  0
 21 18  1  0  0  0  0
 22 25  1  0  0  0  0
 23 25  1  0  0  0  0
 25 24  1  0  0  0  0
 26 27  1  0  0  0  0
 26 23  1  0  0  0  0
 26 29  1  0  0  0  0
 28 26  1  0  0  0  0
 29 25  1  0  0  0  0
 31 32  1  0  0  0  0
 31 30  1  0  0  0  0
 32 30  1  0  0  0  0
 33 10  1  0  0  0  0
 34 33  1  0  0  0  0
 35 34  1  0  0  0  0
 36 35  1  0  0  0  0
 37 38  2  0  0  0  0
 38 36  2  0  0  0  0
 39 41  1  0  0  0  0
 39 36  1  1  0  0  0
 39 40  1  0  0  0  0
 41 40  1  0  0  0  0
M  END
>  <MODEL>
5

>  <REMARK>
 VINA RESULT:      -6.5      4.473     10.031
  Name = 
  11 active torsions:
  status: ('A' for Active; 'I' for Inactive)
    1  A    between atoms: C_1  and  C_27
    2  A    between atoms: C_2  and  C_6
    3  A    between atoms: C_2  and  C_39
    4  A    between atoms: C_4  and  C_33
    5  A    between atoms: C_6  and  C_8
    6  A    between atoms: N_7  and  C_38
    7  A    between atoms: C_8  and  C_27
    8  A    between atoms: C_10  and  C_31
    9  A    between atoms: C_15  and  C_17
   10  A    between atoms: C_22  and  C_30
   11  A    between atoms: C_31  and  C_33
                            x       y       z     vdW  Elec       q    Type
                         _______ _______ _______ _____ _____    ______ ____

>  <TORSDO>
F 11

$$$$
=
 OpenBabel11052412133D

 41 46  0  0  1  0  0  0  0  0999 V2000
  160.4370  209.4200  155.1270 C   0  0  0  0  0  3  0  0  0  0  0  0
  159.1090  211.4530  155.1220 C   0  0  0  0  0  0  0  0  0  0  0  0
  160.2060  210.7350  153.0680 C   0  0  0  0  0  0  0  0  0  0  0  0
  158.8510  212.7390  153.1450 C   0  0  0  0  0  3  0  0  0  0  0  0
  158.6040  212.5260  154.4620 N   0  0  0  0  0  0  0  0  0  0  0  0
  160.1140  209.2360  156.4700 C   0  0  0  0  0  3  0  0  0  0  0  0
  158.8110  211.2340  156.4810 C   0  0  0  0  0  0  0  0  0  0  0  0
  159.3180  210.1340  157.1090 N   0  0  0  0  0  0  0  0  0  0  0  0
  159.9310  210.5300  154.4340 C   0  0  0  0  0  0  0  0  0  0  0  0
  159.6480  211.8520  152.4190 C   0  0  0  0  0  0  0  0  0  0  0  0
  161.3870  207.5030  151.4100 C   0  0  0  0  0  2  0  0  0  0  0  0
  162.1860  208.9920  149.5570 C   0  0  0  0  0  3  0  0  0  0  0  0
  161.0240  209.7590  152.3240 C   0  0  0  0  0  0  0  0  0  0  0  0
  162.3910  210.1320  151.8480 C   0  0  0  0  0  2  0  0  0  0  0  0
  160.5500  208.5390  152.0920 C   0  0  0  0  0  3  0  0  0  0  0  0
  162.3810  210.2710  150.3340 C   0  0  0  0  0  2  0  0  0  0  0  0
  161.6980  207.8110  149.9680 C   0  0  0  0  0  0  0  0  0  0  0  0
  160.8690  205.5450  149.0910 C   0  0  0  0  0  0  0  0  0  0  0  0
  161.5980  206.7760  148.9810 N   0  0  0  0  0  2  0  0  0  0  0  0
  160.2410  205.2460  150.1420 O   0  0  0  0  0  0  0  0  0  0  0  0
  160.9040  204.5730  147.9680 C   0  0  0  0  0  2  0  0  0  0  0  0
  162.3420  204.3640  147.5230 C   0  0  0  0  0  2  0  0  0  0  0  0
  162.3450  206.0170  145.5670 C   0  0  0  0  0  2  0  0  0  0  0  0
  163.6560  203.9670  145.5100 O   0  0  0  0  0  1  0  0  0  0  0  0
  162.5050  204.5730  146.0250 C   0  0  0  0  0  0  0  0  0  0  0  0
  161.1140  205.6030  144.7840 C   0  0  0  0  0  0  0  0  0  0  0  0
  161.2670  205.7500  143.4040 O   0  0  0  0  0  1  0  0  0  0  0  0
  159.9410  206.1940  145.2530 O   0  0  0  0  0  1  0  0  0  0  0  0
  161.2670  204.1690  145.2460 C   0  0  0  0  0  2  0  0  0  0  0  0
  156.4820  211.9070  157.0660 C   0  0  0  0  0  2  0  0  0  0  0  0
  157.1310  213.0420  156.3060 C   0  0  0  0  0  2  0  0  0  0  0  0
  157.9630  212.2010  157.2610 C   0  0  0  0  0  3  0  0  0  0  0  0
  159.8940  212.1350  150.9700 C   0  0  0  0  0  2  0  0  0  0  0  0
  159.4220  213.5320  150.6060 C   0  0  0  0  0  2  0  0  0  0  0  0
  159.5030  213.7600  149.1070 C   0  0  0  0  0  2  0  0  0  0  0  0
  158.1830  213.5440  148.4450 C   0  0  0  0  0  0  0  0  0  0  0  0
  156.0550  213.6180  149.8250 O   0  0  0  0  0  0  0  0  0  0  0  0
  157.0900  213.5800  149.1590 C   0  0  0  0  0  0  0  0  0  0  0  0
  158.0910  213.6220  146.9510 C   0  0  1  0  0  3  0  0  0  0  0  0
  158.7000  212.4840  146.3830 O   0  0  0  0  0  0  0  0  0  0  0  0
  157.2980  212.5020  146.3980 C   0  0  0  0  0  2  0  0  0  0  0  0
  1  6  1  0  0  0  0
  2  7  2  0  0  0  0
  3  9  1  0  0  0  0
  4  5  2  0  0  0  0
  5  2  1  0  0  0  0
  6  8  2  0  0  0  0
  7  8  1  0  0  0  0
  7 32  1  0  0  0  0
  9  2  1  0  0  0  0
  9  1  2  0  0  0  0
 10  3  2  0  0  0  0
 10  4  1  0  0  0  0
 11 15  1  0  0  0  0
 12 17  2  0  0  0  0
 12 16  1  0  0  0  0
 13  3  1  0  0  0  0
 14 13  1  0  0  0  0
 15 13  2  0  0  0  0
 16 14  1  0  0  0  0
 17 11  1  0  0  0  0
 18 20  2  0  0  0  0
 19 18  1  0  0  0  0
 19 17  1  0  0  0  0
 21 18  1  0  0  0  0
 22 21  1  0  0  0  0
 23 25  1  0  0  0  0
 24 25  1  0  0  0  0
 25 22  1  0  0  0  0
 26 29  1  0  0  0  0
 26 28  1  0  0  0  0
 26 23  1  0  0  0  0
 27 26  1  0  0  0  0
 29 25  1  0  0  0  0
 30 32  1  0  0  0  0
 31 30  1  0  0  0  0
 31 32  1  0  0  0  0
 33 10  1  0  0  0  0
 34 33  1  0  0  0  0
 35 34  1  0  0  0  0
 36 35  1  0  0  0  0
 36 38  2  0  0  0  0
 38 37  2  0  0  0  0
 39 36  1  1  0  0  0
 40 41  1  0  0  0  0
 40 39  1  0  0  0  0
 41 39  1  0  0  0  0
M  END
>  <MODEL>
6

>  <REMARK>
 VINA RESULT:      -6.2      3.856      9.145
  Name = 
  11 active torsions:
  status: ('A' for Active; 'I' for Inactive)
    1  A    between atoms: C_1  and  C_27
    2  A    between atoms: C_2  and  C_6
    3  A    between atoms: C_2  and  C_39
    4  A    between atoms: C_4  and  C_33
    5  A    between atoms: C_6  and  C_8
    6  A    between atoms: N_7  and  C_38
    7  A    between atoms: C_8  and  C_27
    8  A    between atoms: C_10  and  C_31
    9  A    between atoms: C_15  and  C_17
   10  A    between atoms: C_22  and  C_30
   11  A    between atoms: C_31  and  C_33
                            x       y       z     vdW  Elec       q    Type
                         _______ _______ _______ _____ _____    ______ ____

>  <TORSDO>
F 11

$$$$
=
 OpenBabel11052412133D

 41 46  0  0  1  0  0  0  0  0999 V2000
  160.4420  212.0650  151.9190 C   0  0  0  0  0  3  0  0  0  0  0  0
  160.6890  209.7050  152.4320 C   0  0  0  0  0  0  0  0  0  0  0  0
  161.3890  210.5340  150.2510 C   0  0  0  0  0  0  0  0  0  0  0  0
  161.6160  208.2000  150.8500 C   0  0  0  0  0  3  0  0  0  0  0  0
  161.0750  208.4560  152.0670 N   0  0  0  0  0  0  0  0  0  0  0  0
  159.9300  212.2690  153.1990 C   0  0  0  0  0  3  0  0  0  0  0  0
  160.1600  209.9520  153.7150 C   0  0  0  0  0  0  0  0  0  0  0  0
  159.8020  211.2230  154.0580 N   0  0  0  0  0  0  0  0  0  0  0  0
  160.8350  210.7780  151.5230 C   0  0  0  0  0  0  0  0  0  0  0  0
  161.7910  209.2260  149.9200 C   0  0  0  0  0  0  0  0  0  0  0  0
  162.9740  212.8710  147.6790 C   0  0  0  0  0  2  0  0  0  0  0  0
  160.7020  212.9020  146.6180 C   0  0  0  0  0  3  0  0  0  0  0  0
  161.5900  211.6490  149.3060 C   0  0  0  0  0  0  0  0  0  0  0  0
  160.5540  212.7180  149.1740 C   0  0  0  0  0  2  0  0  0  0  0  0
  162.7060  211.7110  148.5860 C   0  0  0  0  0  3  0  0  0  0  0  0
  159.8580  212.5860  147.8280 C   0  0  0  0  0  2  0  0  0  0  0  0
  162.0370  212.9640  146.5020 C   0  0  0  0  0  0  0  0  0  0  0  0
  161.9850  212.8870  143.9360 C   0  0  0  0  0  0  0  0  0  0  0  0
  162.5580  213.2580  145.1980 N   0  0  0  0  0  2  0  0  0  0  0  0
  160.9260  212.2070  143.8690 O   0  0  0  0  0  0  0  0  0  0  0  0
  162.6860  213.2570  142.6790 C   0  0  0  0  0  2  0  0  0  0  0  0
  161.7290  213.1250  141.5070 C   0  0  0  0  0  2  0  0  0  0  0  0
  161.4780  212.2580  139.1100 C   0  0  0  0  0  2  0  0  0  0  0  0
  163.5940  213.1290  139.9390 O   0  0  0  0  0  1  0  0  0  0  0  0
  162.4020  212.4910  140.2980 C   0  0  0  0  0  0  0  0  0  0  0  0
  161.6870  210.7650  139.2770 C   0  0  0  0  0  0  0  0  0  0  0  0
  162.3420  210.1790  138.1920 O   0  0  0  0  0  1  0  0  0  0  0  0
  160.5200  210.0830  139.6230 O   0  0  0  0  0  1  0  0  0  0  0  0
  162.5990  210.9960  140.4630 C   0  0  0  0  0  2  0  0  0  0  0  0
  159.7130  209.3890  156.1030 C   0  0  0  0  0  2  0  0  0  0  0  0
  161.0800  208.8600  155.7360 C   0  0  0  0  0  2  0  0  0  0  0  0
  159.9630  208.8380  154.7060 C   0  0  0  0  0  3  0  0  0  0  0  0
  162.3880  208.8910  148.5900 C   0  0  0  0  0  2  0  0  0  0  0  0
  162.4940  207.3870  148.4100 C   0  0  0  0  0  2  0  0  0  0  0  0
  161.1180  206.7470  148.3560 C   0  0  0  0  0  2  0  0  0  0  0  0
  161.1060  205.5410  147.4760 C   0  0  0  0  0  0  0  0  0  0  0  0
  160.5190  205.7790  145.0190 O   0  0  0  0  0  0  0  0  0  0  0  0
  160.8000  205.6660  146.2130 C   0  0  0  0  0  0  0  0  0  0  0  0
  161.7560  204.2790  147.9560 C   0  0  1  0  0  3  0  0  0  0  0  0
  161.0890  203.8160  149.1100 O   0  0  0  0  0  0  0  0  0  0  0  0
  160.8160  203.1370  147.9140 C   0  0  0  0  0  2  0  0  0  0  0  0
  1  6  1  0  0  0  0
  2  7  2  0  0  0  0
  3  9  1  0  0  0  0
  4  5  2  0  0  0  0
  5  2  1  0  0  0  0
  6  8  2  0  0  0  0
  7  8  1  0  0  0  0
  7 32  1  0  0  0  0
  9  1  2  0  0  0  0
  9  2  1  0  0  0  0
 10  3  2  0  0  0  0
 10  4  1  0  0  0  0
 11 15  1  0  0  0  0
 12 16  1  0  0  0  0
 13  3  1  0  0  0  0
 14 13  1  0  0  0  0
 15 13  2  0  0  0  0
 16 14  1  0  0  0  0
 17 12  2  0  0  0  0
 17 11  1  0  0  0  0
 18 19  1  0  0  0  0
 19 17  1  0  0  0  0
 20 18  2  0  0  0  0
 21 18  1  0  0  0  0
 22 21  1  0  0  0  0
 23 26  1  0  0  0  0
 23 25  1  0  0  0  0
 24 25  1  0  0  0  0
 25 29  1  0  0  0  0
 25 22  1  0  0  0  0
 26 28  1  0  0  0  0
 26 29  1  0  0  0  0
 27 26  1  0  0  0  0
 31 30  1  0  0  0  0
 32 31  1  0  0  0  0
 32 30  1  0  0  0  0
 33 10  1  0  0  0  0
 34 33  1  0  0  0  0
 35 34  1  0  0  0  0
 36 35  1  0  0  0  0
 37 38  2  0  0  0  0
 38 36  2  0  0  0  0
 39 36  1  6  0  0  0
 39 40  1  0  0  0  0
 41 39  1  0  0  0  0
 41 40  1  0  0  0  0
M  END
>  <MODEL>
7

>  <REMARK>
 VINA RESULT:      -5.5      3.499      7.385
  Name = 
  11 active torsions:
  status: ('A' for Active; 'I' for Inactive)
    1  A    between atoms: C_1  and  C_27
    2  A    between atoms: C_2  and  C_6
    3  A    between atoms: C_2  and  C_39
    4  A    between atoms: C_4  and  C_33
    5  A    between atoms: C_6  and  C_8
    6  A    between atoms: N_7  and  C_38
    7  A    between atoms: C_8  and  C_27
    8  A    between atoms: C_10  and  C_31
    9  A    between atoms: C_15  and  C_17
   10  A    between atoms: C_22  and  C_30
   11  A    between atoms: C_31  and  C_33
                            x       y       z     vdW  Elec       q    Type
                         _______ _______ _______ _____ _____    ______ ____

>  <TORSDO>
F 11

$$$$
=
 OpenBabel11052412133D

 41 46  0  0  1  0  0  0  0  0999 V2000
  161.4330  203.7010  152.0140 C   0  0  0  0  0  3  0  0  0  0  0  0
  160.8020  203.2980  149.7040 C   0  0  0  0  0  0  0  0  0  0  0  0
  161.1660  205.5840  150.4630 C   0  0  0  0  0  0  0  0  0  0  0  0
  160.5510  205.0940  148.1740 C   0  0  0  0  0  3  0  0  0  0  0  0
  160.5170  203.7690  148.4640 N   0  0  0  0  0  0  0  0  0  0  0  0
  161.4190  202.3250  152.2370 C   0  0  0  0  0  3  0  0  0  0  0  0
  160.7920  201.9150  149.9730 C   0  0  0  0  0  0  0  0  0  0  0  0
  161.1040  201.4740  151.2260 N   0  0  0  0  0  0  0  0  0  0  0  0
  161.1310  204.2030  150.7400 C   0  0  0  0  0  0  0  0  0  0  0  0
  160.8800  206.0280  149.1580 C   0  0  0  0  0  0  0  0  0  0  0  0
  161.9200  208.8390  152.3140 C   0  0  0  0  0  2  0  0  0  0  0  0
  160.7840  207.7480  154.2660 C   0  0  0  0  0  3  0  0  0  0  0  0
  161.5510  206.5400  151.5190 C   0  0  0  0  0  0  0  0  0  0  0  0
  162.0610  206.0420  152.8330 C   0  0  0  0  0  2  0  0  0  0  0  0
  161.4620  207.8470  151.2920 C   0  0  0  0  0  3  0  0  0  0  0  0
  161.0200  206.2990  153.9120 C   0  0  0  0  0  2  0  0  0  0  0  0
  161.0930  208.8550  153.5740 C   0  0  0  0  0  0  0  0  0  0  0  0
  159.7780  211.0600  153.6210 C   0  0  0  0  0  0  0  0  0  0  0  0
  160.7080  210.1070  154.1570 N   0  0  0  0  0  2  0  0  0  0  0  0
  159.2120  210.8730  152.5110 O   0  0  0  0  0  0  0  0  0  0  0  0
  159.5230  212.3260  154.3570 C   0  0  0  0  0  2  0  0  0  0  0  0
  158.0940  212.7780  154.1090 C   0  0  0  0  0  2  0  0  0  0  0  0
  157.3020  211.5990  156.2400 C   0  0  0  0  0  2  0  0  0  0  0  0
  157.6080  214.0120  156.1530 O   0  0  0  0  0  1  0  0  0  0  0  0
  157.2990  212.8710  155.4030 C   0  0  0  0  0  0  0  0  0  0  0  0
  155.8070  211.4810  156.0150 C   0  0  0  0  0  0  0  0  0  0  0  0
  155.0630  211.6090  157.1890 O   0  0  0  0  0  1  0  0  0  0  0  0
  155.4500  210.3490  155.2820 O   0  0  0  0  0  1  0  0  0  0  0  0
  155.8050  212.7420  155.1750 C   0  0  0  0  0  2  0  0  0  0  0  0
  161.6670  200.3110  148.2750 C   0  0  0  0  0  2  0  0  0  0  0  0
  160.9070  201.4020  147.5550 C   0  0  0  0  0  2  0  0  0  0  0  0
  160.4230  200.9160  148.9110 C   0  0  0  0  0  3  0  0  0  0  0  0
  160.9000  207.4770  148.7890 C   0  0  0  0  0  2  0  0  0  0  0  0
  161.4750  207.6720  147.3970 C   0  0  0  0  0  2  0  0  0  0  0  0
  162.6260  206.7140  147.1460 C   0  0  0  0  0  2  0  0  0  0  0  0
  162.4140  205.9140  145.9020 C   0  0  0  0  0  0  0  0  0  0  0  0
  163.8280  203.8500  145.4770 O   0  0  0  0  0  0  0  0  0  0  0  0
  163.1450  204.8540  145.6850 C   0  0  0  0  0  0  0  0  0  0  0  0
  161.1700  206.1290  145.0970 C   0  0  1  0  0  3  0  0  0  0  0  0
  161.3480  205.5940  143.8030 O   0  0  0  0  0  0  0  0  0  0  0  0
  160.5610  204.8440  144.6880 C   0  0  0  0  0  2  0  0  0  0  0  0
  1  6  1  0  0  0  0
  2  7  2  0  0  0  0
  2  9  1  0  0  0  0
  3  9  1  0  0  0  0
  3 13  1  0  0  0  0
  4  5  2  0  0  0  0
  4 10  1  0  0  0  0
  5  2  1  0  0  0  0
  7  8  1  0  0  0  0
  8  6  2  0  0  0  0
  9  1  2  0  0  0  0
 10  3  2  0  0  0  0
 11 17  1  0  0  0  0
 13 14  1  0  0  0  0
 14 16  1  0  0  0  0
 15 13  2  0  0  0  0
 15 11  1  0  0  0  0
 16 12  1  0  0  0  0
 17 19  1  0  0  0  0
 17 12  2  0  0  0  0
 18 19  1  0  0  0  0
 18 21  1  0  0  0  0
 20 18  2  0  0  0  0
 22 21  1  0  0  0  0
 22 25  1  0  0  0  0
 25 24  1  0  0  0  0
 25 23  1  0  0  0  0
 26 23  1  0  0  0  0
 26 27  1  0  0  0  0
 28 26  1  0  0  0  0
 29 25  1  0  0  0  0
 29 26  1  0  0  0  0
 30 32  1  0  0  0  0
 31 30  1  0  0  0  0
 31 32  1  0  0  0  0
 32  7  1  0  0  0  0
 33 10  1  0  0  0  0
 34 33  1  0  0  0  0
 35 34  1  0  0  0  0
 36 35  1  0  0  0  0
 37 38  2  0  0  0  0
 38 36  2  0  0  0  0
 39 36  1  1  0  0  0
 40 41  1  0  0  0  0
 40 39  1  0  0  0  0
 41 39  1  0  0  0  0
M  END
>  <MODEL>
8

>  <REMARK>
 VINA RESULT:      -5.4      3.841      7.381
  Name = 
  11 active torsions:
  status: ('A' for Active; 'I' for Inactive)
    1  A    between atoms: C_1  and  C_27
    2  A    between atoms: C_2  and  C_6
    3  A    between atoms: C_2  and  C_39
    4  A    between atoms: C_4  and  C_33
    5  A    between atoms: C_6  and  C_8
    6  A    between atoms: N_7  and  C_38
    7  A    between atoms: C_8  and  C_27
    8  A    between atoms: C_10  and  C_31
    9  A    between atoms: C_15  and  C_17
   10  A    between atoms: C_22  and  C_30
   11  A    between atoms: C_31  and  C_33
                            x       y       z     vdW  Elec       q    Type
                         _______ _______ _______ _____ _____    ______ ____

>  <TORSDO>
F 11

$$$$
=
 OpenBabel11052412133D

 41 46  0  0  1  0  0  0  0  0999 V2000
  161.4750  202.2520  149.6170 C   0  0  0  0  0  3  0  0  0  0  0  0
  161.0110  203.2150  147.4370 C   0  0  0  0  0  0  0  0  0  0  0  0
  161.3190  204.6860  149.3550 C   0  0  0  0  0  0  0  0  0  0  0  0
  160.8710  205.5650  147.1440 C   0  0  0  0  0  3  0  0  0  0  0  0
  160.8160  204.3030  146.6500 N   0  0  0  0  0  0  0  0  0  0  0  0
  161.4450  200.9830  149.0400 C   0  0  0  0  0  3  0  0  0  0  0  0
  160.9830  201.9150  146.8940 C   0  0  0  0  0  0  0  0  0  0  0  0
  161.2040  200.8440  147.7100 N   0  0  0  0  0  0  0  0  0  0  0  0
  161.2650  203.3850  148.8180 C   0  0  0  0  0  0  0  0  0  0  0  0
  161.1270  205.7870  148.4980 C   0  0  0  0  0  0  0  0  0  0  0  0
  162.6810  206.1620  152.6040 C   0  0  0  0  0  2  0  0  0  0  0  0
  160.4550  205.5370  153.5750 C   0  0  0  0  0  3  0  0  0  0  0  0
  161.6260  204.8850  150.7840 C   0  0  0  0  0  0  0  0  0  0  0  0
  161.2180  203.8580  151.7890 C   0  0  0  0  0  2  0  0  0  0  0  0
  162.2850  205.9720  151.1730 C   0  0  0  0  0  3  0  0  0  0  0  0
  160.0860  204.4070  152.6450 C   0  0  0  0  0  2  0  0  0  0  0  0
  161.5200  206.3530  153.5460 C   0  0  0  0  0  0  0  0  0  0  0  0
  160.6110  207.6260  155.5810 C   0  0  0  0  0  0  0  0  0  0  0  0
  161.5810  207.3690  154.5560 N   0  0  0  0  0  2  0  0  0  0  0  0
  159.5470  206.9550  155.6630 O   0  0  0  0  0  0  0  0  0  0  0  0
  160.8320  208.7490  156.5300 C   0  0  0  0  0  2  0  0  0  0  0  0
  161.3630  209.9540  155.7740 C   0  0  0  0  0  2  0  0  0  0  0  0
  159.3160  211.0250  156.8800 C   0  0  0  0  0  2  0  0  0  0  0  0
  161.4910  212.1180  156.8870 O   0  0  0  0  0  1  0  0  0  0  0  0
  160.6570  211.2370  156.1900 C   0  0  0  0  0  0  0  0  0  0  0  0
  158.6390  211.7210  155.7150 C   0  0  0  0  0  0  0  0  0  0  0  0
  158.0240  212.9220  156.0760 O   0  0  0  0  0  1  0  0  0  0  0  0
  157.7850  210.8830  154.9970 O   0  0  0  0  0  1  0  0  0  0  0  0
  159.9710  211.9240  155.0250 C   0  0  0  0  0  2  0  0  0  0  0  0
  159.2670  201.1900  145.2370 C   0  0  0  0  0  2  0  0  0  0  0  0
  160.4160  200.2090  145.1950 C   0  0  0  0  0  2  0  0  0  0  0  0
  160.6930  201.6830  145.4370 C   0  0  0  0  0  3  0  0  0  0  0  0
  161.1730  207.1980  148.9950 C   0  0  0  0  0  2  0  0  0  0  0  0
  161.8180  208.1110  147.9670 C   0  0  0  0  0  2  0  0  0  0  0  0
  162.7310  209.1230  148.6350 C   0  0  0  0  0  2  0  0  0  0  0  0
  161.9580  210.2540  149.2290 C   0  0  0  0  0  0  0  0  0  0  0  0
  161.7910  210.4780  151.7510 O   0  0  0  0  0  0  0  0  0  0  0  0
  161.8720  210.3640  150.5280 C   0  0  0  0  0  0  0  0  0  0  0  0
  161.5810  211.4170  148.3630 C   0  0  1  0  0  3  0  0  0  0  0  0
  161.9300  212.6200  149.0130 O   0  0  0  0  0  0  0  0  0  0  0  0
  162.7690  212.2050  147.9680 C   0  0  0  0  0  2  0  0  0  0  0  0
  2  9  1  0  0  0  0
  3 13  1  0  0  0  0
  4 10  1  0  0  0  0
  5  4  2  0  0  0  0
  5  2  1  0  0  0  0
  6  1  1  0  0  0  0
  7  2  2  0  0  0  0
  7  8  1  0  0  0  0
  8  6  2  0  0  0  0
  9  3  1  0  0  0  0
  9  1  2  0  0  0  0
 10 33  1  0  0  0  0
 10  3  2  0  0  0  0
 11 17  1  0  0  0  0
 13 15  2  0  0  0  0
 13 14  1  0  0  0  0
 14 16  1  0  0  0  0
 15 11  1  0  0  0  0
 16 12  1  0  0  0  0
 17 12  2  0  0  0  0
 17 19  1  0  0  0  0
 18 20  2  0  0  0  0
 18 21  1  0  0  0  0
 19 18  1  0  0  0  0
 22 25  1  0  0  0  0
 22 21  1  0  0  0  0
 25 23  1  0  0  0  0
 25 24  1  0  0  0  0
 26 27  1  0  0  0  0
 26 23  1  0  0  0  0
 28 26  1  0  0  0  0
 29 26  1  0  0  0  0
 29 25  1  0  0  0  0
 30 32  1  0  0  0  0
 31 30  1  0  0  0  0
 31 32  1  0  0  0  0
 32  7  1  0  0  0  0
 34 35  1  0  0  0  0
 34 33  1  0  0  0  0
 35 36  1  0  0  0  0
 36 38  2  0  0  0  0
 38 37  2  0  0  0  0
 39 40  1  0  0  0  0
 39 36  1  1  0  0  0
 41 39  1  0  0  0  0
 41 40  1  0  0  0  0
M  END
>  <MODEL>
9

>  <REMARK>
 VINA RESULT:      -5.3      2.517      6.887
  Name = 
  11 active torsions:
  status: ('A' for Active; 'I' for Inactive)
    1  A    between atoms: C_1  and  C_27
    2  A    between atoms: C_2  and  C_6
    3  A    between atoms: C_2  and  C_39
    4  A    between atoms: C_4  and  C_33
    5  A    between atoms: C_6  and  C_8
    6  A    between atoms: N_7  and  C_38
    7  A    between atoms: C_8  and  C_27
    8  A    between atoms: C_10  and  C_31
    9  A    between atoms: C_15  and  C_17
   10  A    between atoms: C_22  and  C_30
   11  A    between atoms: C_31  and  C_33
                            x       y       z     vdW  Elec       q    Type
                         _______ _______ _______ _____ _____    ______ ____

>  <TORSDO>
F 11

$$$$
