=
 OpenBabel11042421153D

 32 36  0  0  1  0  0  0  0  0999 V2000
  161.7720  206.8670  148.0950 C   0  0  0  0  0  0  0  0  0  0  0  0
  160.8930  207.4630  150.1630 C   0  0  2  0  0  3  0  0  0  0  0  0
  160.5820  205.1420  148.9640 N   0  0  0  0  0  0  0  0  0  0  0  0
  162.3910  209.3780  150.3440 O   0  0  0  0  0  0  0  0  0  0  0  0
  160.8830  206.5350  148.9910 C   0  0  2  0  0  3  0  0  0  0  0  0
  162.5880  205.6450  146.1830 N   0  0  0  0  0  1  0  0  0  0  0  0
  161.3040  204.6350  148.0090 C   0  0  0  0  0  0  0  0  0  0  0  0
  162.1830  205.6590  147.4110 C   0  0  0  0  0  0  0  0  0  0  0  0
  162.5720  207.9780  148.4570 N   0  0  0  0  0  2  0  0  0  0  0  0
  161.9980  208.3660  149.7050 C   0  0  0  0  0  0  0  0  0  0  0  0
  161.3000  202.2610  148.6060 C   0  0  0  0  0  3  0  0  0  0  0  0
  161.3130  200.8060  148.3020 C   0  0  0  0  0  3  0  0  0  0  0  0
  160.4670  203.4500  145.2200 C   0  0  0  0  0  3  0  0  0  0  0  0
  161.1190  200.3620  147.0540 C   0  0  0  0  0  3  0  0  0  0  0  0
  160.0150  201.2940  145.0640 C   0  0  0  0  0  2  0  0  0  0  0  0
  160.9350  201.3660  146.0060 C   0  0  1  0  0  3  0  0  0  0  0  0
  161.3840  202.7730  146.1880 C   0  0  2  0  0  3  0  0  0  0  0  0
  159.7500  202.5970  144.5590 N   0  0  0  0  0  0  0  0  0  0  0  0
  161.2540  203.2010  147.6400 C   0  0  0  0  0  0  0  0  0  0  0  0
  161.3130  206.7230  151.4230 C   0  0  0  0  0  2  0  0  0  0  0  0
  161.1720  207.2810  153.7800 C   0  0  0  0  0  0  0  0  0  0  0  0
  160.9730  206.8970  155.0140 C   0  0  0  0  0  3  0  0  0  0  0  0
  161.3730  207.6830  152.5570 C   0  0  0  0  0  3  0  0  0  0  0  0
  159.9010  207.4720  155.9010 C   0  0  0  0  0  2  0  0  0  0  0  0
  159.5640  208.9350  155.6180 C   0  0  0  0  0  2  0  0  0  0  0  0
  160.3510  209.8140  156.4780 N   0  0  0  0  0  0  0  0  0  0  0  0
  158.8070  211.7620  156.3160 C   0  0  0  0  0  2  0  0  0  0  0  0
  159.8510  212.5460  155.6640 N   0  0  0  0  0  0  0  0  0  0  0  0
  159.4480  210.7040  157.2210 C   0  0  0  0  0  2  0  0  0  0  0  0
  161.3080  210.5800  155.6680 C   0  0  0  0  0  2  0  0  0  0  0  0
  159.0410  213.6700  154.6110 Cl  0  0  0  0  0  0  0  0  0  0  0  0
  160.6090  211.6420  154.8080 C   0  0  0  0  0  2  0  0  0  0  0  0
  1  9  1  0  0  0  0
  2 20  1  1  0  0  0
  3  5  1  0  0  0  0
  5  1  1  1  0  0  0
  5  2  1  0  0  0  0
  6  8  1  0  0  0  0
  7  3  2  0  0  0  0
  8  7  1  0  0  0  0
  8  1  2  0  0  0  0
  9 10  1  0  0  0  0
 10  2  1  0  0  0  0
 10  4  2  0  0  0  0
 12 11  1  0  0  0  0
 14 12  2  0  0  0  0
 16 15  1  1  0  0  0
 16 17  1  0  0  0  0
 16 14  1  0  0  0  0
 17 13  1  6  0  0  0
 17 19  1  0  0  0  0
 18 15  1  0  0  0  0
 18 13  2  0  0  0  0
 19  7  1  0  0  0  0
 19 11  2  0  0  0  0
 20 23  1  0  0  0  0
 21 22  2  0  0  0  0
 22 24  1  0  0  0  0
 23 21  2  0  0  0  0
 25 24  1  0  0  0  0
 25 26  1  0  0  0  0
 26 29  1  0  0  0  0
 27 29  1  0  0  0  0
 28 27  1  0  0  0  0
 30 26  1  0  0  0  0
 31 28  1  0  0  0  0
 32 28  1  0  0  0  0
 32 30  1  0  0  0  0
M  END
>  <MODEL>
1

>  <REMARK>
 VINA RESULT:      -9.7      0.000      0.000
  Name = 
  6 active torsions:
  status: ('A' for Active; 'I' for Inactive)
    1  A    between atoms: N_2  and  C_13
    2  A    between atoms: C_3  and  C_18
    3  A    between atoms: C_9  and  C_29
    4  A    between atoms: C_13  and  C_29
    5  A    between atoms: C_18  and  C_24
    6  A    between atoms: C_21  and  C_30
                            x       y       z     vdW  Elec       q    Type
                         _______ _______ _______ _____ _____    ______ ____

>  <TORSDO>
F 6

$$$$
=
 OpenBabel11042421153D

 32 36  0  0  1  0  0  0  0  0999 V2000
  161.2340  207.4260  149.2320 C   0  0  0  0  0  0  0  0  0  0  0  0
  161.3130  207.3750  151.5550 C   0  0  2  0  0  3  0  0  0  0  0  0
  160.7700  205.3360  149.9840 N   0  0  0  0  0  0  0  0  0  0  0  0
  162.4990  209.5030  151.6470 O   0  0  0  0  0  0  0  0  0  0  0  0
  160.8870  206.7260  150.2780 C   0  0  2  0  0  3  0  0  0  0  0  0
  161.2430  206.8350  146.8950 N   0  0  0  0  0  1  0  0  0  0  0  0
  161.0410  205.2110  148.7180 C   0  0  0  0  0  0  0  0  0  0  0  0
  161.4320  206.5070  148.1310 C   0  0  0  0  0  0  0  0  0  0  0  0
  161.9770  208.5920  149.5370 N   0  0  0  0  0  2  0  0  0  0  0  0
  161.9820  208.5790  150.9640 C   0  0  0  0  0  0  0  0  0  0  0  0
  161.3290  203.8440  146.7070 C   0  0  0  0  0  3  0  0  0  0  0  0
  161.2500  202.5820  145.9270 C   0  0  0  0  0  3  0  0  0  0  0  0
  160.8550  202.3700  150.0500 C   0  0  0  0  0  3  0  0  0  0  0  0
  160.9960  201.4150  146.5300 C   0  0  0  0  0  3  0  0  0  0  0  0
  161.2850  200.5830  148.8260 C   0  0  0  0  0  2  0  0  0  0  0  0
  160.7620  201.4420  147.9730 C   0  0  1  0  0  3  0  0  0  0  0  0
  160.3680  202.6950  148.6750 C   0  0  2  0  0  3  0  0  0  0  0  0
  161.3120  201.1600  150.1260 N   0  0  0  0  0  0  0  0  0  0  0  0
  160.9980  203.9090  148.0140 C   0  0  0  0  0  0  0  0  0  0  0  0
  162.3360  206.5110  152.2750 C   0  0  0  0  0  2  0  0  0  0  0  0
  160.8810  206.6030  154.2140 C   0  0  0  0  0  0  0  0  0  0  0  0
  160.0490  207.2810  154.9610 C   0  0  0  0  0  3  0  0  0  0  0  0
  161.7100  205.9130  153.4830 C   0  0  0  0  0  3  0  0  0  0  0  0
  160.2610  207.5290  156.4300 C   0  0  0  0  0  2  0  0  0  0  0  0
  160.2730  209.0060  156.8260 C   0  0  0  0  0  2  0  0  0  0  0  0
  161.0280  209.7870  155.8500 N   0  0  0  0  0  0  0  0  0  0  0  0
  161.1960  211.8370  157.2540 C   0  0  0  0  0  2  0  0  0  0  0  0
  160.4140  212.5830  156.2750 N   0  0  0  0  0  0  0  0  0  0  0  0
  161.9430  210.6950  156.5560 C   0  0  0  0  0  2  0  0  0  0  0  0
  160.1030  210.5290  154.9820 C   0  0  0  0  0  2  0  0  0  0  0  0
  159.5530  213.8100  157.1590 Cl  0  0  0  0  0  0  0  0  0  0  0  0
  159.4110  211.6770  155.7300 C   0  0  0  0  0  2  0  0  0  0  0  0
  1  9  1  0  0  0  0
  2 20  1  6  0  0  0
  3  5  1  0  0  0  0
  5  1  1  6  0  0  0
  5  2  1  0  0  0  0
  6  8  1  0  0  0  0
  7  3  2  0  0  0  0
  8  7  1  0  0  0  0
  8  1  2  0  0  0  0
  9 10  1  0  0  0  0
 10  2  1  0  0  0  0
 10  4  2  0  0  0  0
 11 19  2  0  0  0  0
 12 14  2  0  0  0  0
 12 11  1  0  0  0  0
 13 18  2  0  0  0  0
 15 18  1  0  0  0  0
 16 14  1  6  0  0  0
 16 17  1  0  0  0  0
 16 15  1  0  0  0  0
 17 13  1  1  0  0  0
 19 17  1  0  0  0  0
 19  7  1  0  0  0  0
 20 23  1  0  0  0  0
 21 22  2  0  0  0  0
 22 24  1  0  0  0  0
 23 21  2  0  0  0  0
 24 25  1  0  0  0  0
 26 29  1  0  0  0  0
 26 25  1  0  0  0  0
 28 31  1  0  0  0  0
 28 27  1  0  0  0  0
 29 27  1  0  0  0  0
 30 32  1  0  0  0  0
 30 26  1  0  0  0  0
 32 28  1  0  0  0  0
M  END
>  <MODEL>
2

>  <REMARK>
 VINA RESULT:      -9.6      1.470      2.228
  Name = 
  6 active torsions:
  status: ('A' for Active; 'I' for Inactive)
    1  A    between atoms: N_2  and  C_13
    2  A    between atoms: C_3  and  C_18
    3  A    between atoms: C_9  and  C_29
    4  A    between atoms: C_13  and  C_29
    5  A    between atoms: C_18  and  C_24
    6  A    between atoms: C_21  and  C_30
                            x       y       z     vdW  Elec       q    Type
                         _______ _______ _______ _____ _____    ______ ____

>  <TORSDO>
F 6

$$$$
=
 OpenBabel11042421153D

 32 36  0  0  1  0  0  0  0  0999 V2000
  161.5790  204.5300  151.8740 C   0  0  0  0  0  0  0  0  0  0  0  0
  161.8170  206.8330  152.0880 C   0  0  2  0  0  3  0  0  0  0  0  0
  161.9570  205.4680  149.8430 N   0  0  0  0  0  0  0  0  0  0  0  0
  160.8460  206.8110  154.3240 O   0  0  0  0  0  0  0  0  0  0  0  0
  162.0040  205.6010  151.2620 C   0  0  2  0  0  3  0  0  0  0  0  0
  161.1970  202.3030  151.0330 N   0  0  0  0  0  1  0  0  0  0  0  0
  161.5050  204.2720  149.6080 C   0  0  0  0  0  0  0  0  0  0  0  0
  161.1510  203.5840  150.8650 C   0  0  0  0  0  0  0  0  0  0  0  0
  160.9910  204.7810  153.1380 N   0  0  0  0  0  2  0  0  0  0  0  0
  161.1810  206.1880  153.2830 C   0  0  0  0  0  0  0  0  0  0  0  0
  160.9220  202.4600  148.0680 C   0  0  0  0  0  3  0  0  0  0  0  0
  160.7890  201.8390  146.7240 C   0  0  0  0  0  3  0  0  0  0  0  0
  161.3970  205.9350  146.9430 C   0  0  0  0  0  3  0  0  0  0  0  0
  160.9240  202.5700  145.6110 C   0  0  0  0  0  3  0  0  0  0  0  0
  160.6660  204.9620  145.1010 C   0  0  0  0  0  2  0  0  0  0  0  0
  161.2450  203.9880  145.7760 C   0  0  1  0  0  3  0  0  0  0  0  0
  161.8400  204.5110  147.0360 C   0  0  2  0  0  3  0  0  0  0  0  0
  160.7910  206.1810  145.8250 N   0  0  0  0  0  0  0  0  0  0  0  0
  161.3360  203.7330  148.2390 C   0  0  0  0  0  0  0  0  0  0  0  0
  160.8300  207.7760  151.4190 C   0  0  0  0  0  2  0  0  0  0  0  0
  160.9020  209.8360  152.7010 C   0  0  0  0  0  0  0  0  0  0  0  0
  160.5410  210.5090  153.7610 C   0  0  0  0  0  3  0  0  0  0  0  0
  161.2700  209.1800  151.6370 C   0  0  0  0  0  3  0  0  0  0  0  0
  159.7960  211.8160  153.7040 C   0  0  0  0  0  2  0  0  0  0  0  0
  159.0690  212.0710  152.3830 C   0  0  0  0  0  2  0  0  0  0  0  0
  159.2980  213.4410  151.9340 N   0  0  0  0  0  0  0  0  0  0  0  0
  156.9170  214.1510  152.0870 C   0  0  0  0  0  2  0  0  0  0  0  0
  156.8820  214.3770  150.6460 N   0  0  0  0  0  0  0  0  0  0  0  0
  158.3470  214.3390  152.6040 C   0  0  0  0  0  2  0  0  0  0  0  0
  159.1660  213.5150  150.4720 C   0  0  0  0  0  2  0  0  0  0  0  0
  155.2450  214.0790  150.1370 Cl  0  0  0  0  0  0  0  0  0  0  0  0
  157.7080  213.3520  150.0200 C   0  0  0  0  0  2  0  0  0  0  0  0
  1  9  1  0  0  0  0
  2 20  1  6  0  0  0
  2 10  1  0  0  0  0
  5  3  1  6  0  0  0
  5  1  1  0  0  0  0
  5  2  1  0  0  0  0
  7  3  2  0  0  0  0
  7  8  1  0  0  0  0
  8  6  1  0  0  0  0
  8  1  2  0  0  0  0
  9 10  1  0  0  0  0
 10  4  2  0  0  0  0
 11 19  2  0  0  0  0
 12 11  1  0  0  0  0
 14 16  1  0  0  0  0
 14 12  2  0  0  0  0
 15 18  1  0  0  0  0
 16 15  1  1  0  0  0
 16 17  1  0  0  0  0
 17 13  1  1  0  0  0
 17 19  1  0  0  0  0
 18 13  2  0  0  0  0
 19  7  1  0  0  0  0
 20 23  1  0  0  0  0
 21 22  2  0  0  0  0
 23 21  2  0  0  0  0
 24 22  1  0  0  0  0
 25 24  1  0  0  0  0
 26 25  1  0  0  0  0
 26 29  1  0  0  0  0
 27 29  1  0  0  0  0
 28 27  1  0  0  0  0
 30 26  1  0  0  0  0
 31 28  1  0  0  0  0
 32 30  1  0  0  0  0
 32 28  1  0  0  0  0
M  END
>  <MODEL>
3

>  <REMARK>
 VINA RESULT:      -9.4      3.065      4.134
  Name = 
  6 active torsions:
  status: ('A' for Active; 'I' for Inactive)
    1  A    between atoms: N_2  and  C_13
    2  A    between atoms: C_3  and  C_18
    3  A    between atoms: C_9  and  C_29
    4  A    between atoms: C_13  and  C_29
    5  A    between atoms: C_18  and  C_24
    6  A    between atoms: C_21  and  C_30
                            x       y       z     vdW  Elec       q    Type
                         _______ _______ _______ _____ _____    ______ ____

>  <TORSDO>
F 6

$$$$
=
 OpenBabel11042421153D

 32 36  0  0  1  0  0  0  0  0999 V2000
  161.4990  204.2820  151.6290 C   0  0  0  0  0  0  0  0  0  0  0  0
  161.7960  206.5670  151.9400 C   0  0  2  0  0  3  0  0  0  0  0  0
  161.9130  205.2940  149.6410 N   0  0  0  0  0  0  0  0  0  0  0  0
  160.8130  206.4780  154.1700 O   0  0  0  0  0  0  0  0  0  0  0  0
  161.9560  205.3660  151.0640 C   0  0  2  0  0  3  0  0  0  0  0  0
  161.0630  202.1030  150.6930 N   0  0  0  0  0  1  0  0  0  0  0  0
  161.4310  204.1210  149.3540 C   0  0  0  0  0  0  0  0  0  0  0  0
  161.0520  203.3910  150.5790 C   0  0  0  0  0  0  0  0  0  0  0  0
  160.9100  204.4960  152.8990 N   0  0  0  0  0  2  0  0  0  0  0  0
  161.1370  205.8900  153.1040 C   0  0  0  0  0  0  0  0  0  0  0  0
  160.8380  202.3820  147.7350 C   0  0  0  0  0  3  0  0  0  0  0  0
  160.6980  201.8230  146.3660 C   0  0  0  0  0  3  0  0  0  0  0  0
  161.3180  205.9040  146.7670 C   0  0  0  0  0  3  0  0  0  0  0  0
  160.8310  202.6030  145.2870 C   0  0  0  0  0  3  0  0  0  0  0  0
  160.5780  205.0160  144.8860 C   0  0  0  0  0  2  0  0  0  0  0  0
  161.1560  204.0110  145.5130 C   0  0  1  0  0  3  0  0  0  0  0  0
  161.7580  204.4760  146.7930 C   0  0  2  0  0  3  0  0  0  0  0  0
  160.7090  206.2010  145.6630 N   0  0  0  0  0  0  0  0  0  0  0  0
  161.2560  203.6450  147.9620 C   0  0  0  0  0  0  0  0  0  0  0  0
  160.8390  207.5640  151.3070 C   0  0  0  0  0  2  0  0  0  0  0  0
  161.2530  209.5260  152.6730 C   0  0  0  0  0  0  0  0  0  0  0  0
  161.1550  210.1290  153.8290 C   0  0  0  0  0  3  0  0  0  0  0  0
  161.3600  208.9410  151.5140 C   0  0  0  0  0  3  0  0  0  0  0  0
  160.4560  211.4480  154.0230 C   0  0  0  0  0  2  0  0  0  0  0  0
  158.9400  211.3410  154.1880 C   0  0  0  0  0  2  0  0  0  0  0  0
  158.4810  212.2320  155.2500 N   0  0  0  0  0  0  0  0  0  0  0  0
  156.0630  212.0690  154.6780 C   0  0  0  0  0  2  0  0  0  0  0  0
  156.0320  213.4930  154.3640 N   0  0  0  0  0  0  0  0  0  0  0  0
  157.1580  211.7940  155.7150 C   0  0  0  0  0  2  0  0  0  0  0  0
  158.4440  213.6160  154.7590 C   0  0  0  0  0  2  0  0  0  0  0  0
  154.8140  213.7040  153.1380 Cl  0  0  0  0  0  0  0  0  0  0  0  0
  157.3080  213.8360  153.7490 C   0  0  0  0  0  2  0  0  0  0  0  0
  1  9  1  0  0  0  0
  2 20  1  6  0  0  0
  2 10  1  0  0  0  0
  5  3  1  6  0  0  0
  5  1  1  0  0  0  0
  5  2  1  0  0  0  0
  7  3  2  0  0  0  0
  7  8  1  0  0  0  0
  8  6  1  0  0  0  0
  8  1  2  0  0  0  0
  9 10  1  0  0  0  0
 10  4  2  0  0  0  0
 11 19  2  0  0  0  0
 12 11  1  0  0  0  0
 14 16  1  0  0  0  0
 14 12  2  0  0  0  0
 15 18  1  0  0  0  0
 16 15  1  1  0  0  0
 16 17  1  0  0  0  0
 17 13  1  1  0  0  0
 17 19  1  0  0  0  0
 18 13  2  0  0  0  0
 19  7  1  0  0  0  0
 20 23  1  0  0  0  0
 21 22  2  0  0  0  0
 22 24  1  0  0  0  0
 23 21  2  0  0  0  0
 24 25  1  0  0  0  0
 25 26  1  0  0  0  0
 26 29  1  0  0  0  0
 27 29  1  0  0  0  0
 28 27  1  0  0  0  0
 30 26  1  0  0  0  0
 31 28  1  0  0  0  0
 32 28  1  0  0  0  0
 32 30  1  0  0  0  0
M  END
>  <MODEL>
4

>  <REMARK>
 VINA RESULT:      -9.3      2.333      3.451
  Name = 
  6 active torsions:
  status: ('A' for Active; 'I' for Inactive)
    1  A    between atoms: N_2  and  C_13
    2  A    between atoms: C_3  and  C_18
    3  A    between atoms: C_9  and  C_29
    4  A    between atoms: C_13  and  C_29
    5  A    between atoms: C_18  and  C_24
    6  A    between atoms: C_21  and  C_30
                            x       y       z     vdW  Elec       q    Type
                         _______ _______ _______ _____ _____    ______ ____

>  <TORSDO>
F 6

$$$$
=
 OpenBabel11042421153D

 32 36  0  0  1  0  0  0  0  0999 V2000
  161.3270  204.2740  151.6350 C   0  0  0  0  0  0  0  0  0  0  0  0
  162.0440  206.4610  151.9610 C   0  0  2  0  0  3  0  0  0  0  0  0
  162.0750  205.1510  149.6800 N   0  0  0  0  0  0  0  0  0  0  0  0
  160.9030  206.6050  154.1110 O   0  0  0  0  0  0  0  0  0  0  0  0
  162.0270  205.2380  151.1020 C   0  0  2  0  0  3  0  0  0  0  0  0
  160.5410  202.2070  150.6750 N   0  0  0  0  0  1  0  0  0  0  0  0
  161.3930  204.0900  149.3620 C   0  0  0  0  0  0  0  0  0  0  0  0
  160.7910  203.4690  150.5570 C   0  0  0  0  0  0  0  0  0  0  0  0
  160.7010  204.6200  152.8570 N   0  0  0  0  0  2  0  0  0  0  0  0
  161.1820  205.9460  153.0740 C   0  0  0  0  0  0  0  0  0  0  0  0
  160.8700  202.3570  147.7130 C   0  0  0  0  0  3  0  0  0  0  0  0
  160.7460  201.8180  146.3340 C   0  0  0  0  0  3  0  0  0  0  0  0
  161.1740  205.9150  146.8110 C   0  0  0  0  0  3  0  0  0  0  0  0
  160.8330  202.6250  145.2690 C   0  0  0  0  0  3  0  0  0  0  0  0
  160.4620  205.0310  144.9180 C   0  0  0  0  0  2  0  0  0  0  0  0
  161.0930  204.0420  145.5220 C   0  0  1  0  0  3  0  0  0  0  0  0
  161.6820  204.5100  146.8060 C   0  0  2  0  0  3  0  0  0  0  0  0
  160.5430  206.2040  145.7180 N   0  0  0  0  0  0  0  0  0  0  0  0
  161.2300  203.6330  147.9620 C   0  0  0  0  0  0  0  0  0  0  0  0
  161.3500  207.6150  151.2560 C   0  0  0  0  0  2  0  0  0  0  0  0
  161.9550  209.8380  150.4930 C   0  0  0  0  0  0  0  0  0  0  0  0
  161.5960  210.9790  149.9660 C   0  0  0  0  0  3  0  0  0  0  0  0
  162.3310  208.7060  151.0180 C   0  0  0  0  0  3  0  0  0  0  0  0
  162.1910  211.5360  148.7010 C   0  0  0  0  0  2  0  0  0  0  0  0
  161.2150  211.6180  147.5270 C   0  0  0  0  0  2  0  0  0  0  0  0
  160.8920  213.0110  147.2310 N   0  0  0  0  0  0  0  0  0  0  0  0
  160.5340  212.6670  144.7910 C   0  0  0  0  0  2  0  0  0  0  0  0
  161.6590  213.5460  144.4930 N   0  0  0  0  0  0  0  0  0  0  0  0
  159.9140  213.0620  146.1360 C   0  0  0  0  0  2  0  0  0  0  0  0
  162.1180  213.7450  146.8880 C   0  0  0  0  0  2  0  0  0  0  0  0
  162.3400  212.9870  142.9920 Cl  0  0  0  0  0  0  0  0  0  0  0  0
  162.6710  213.3280  145.5190 C   0  0  0  0  0  2  0  0  0  0  0  0
  1  9  1  0  0  0  0
  2 20  1  6  0  0  0
  2 10  1  0  0  0  0
  5  3  1  6  0  0  0
  5  1  1  0  0  0  0
  5  2  1  0  0  0  0
  7  3  2  0  0  0  0
  7  8  1  0  0  0  0
  8  6  1  0  0  0  0
  8  1  2  0  0  0  0
  9 10  1  0  0  0  0
 10  4  2  0  0  0  0
 11 19  2  0  0  0  0
 12 11  1  0  0  0  0
 14 16  1  0  0  0  0
 14 12  2  0  0  0  0
 15 18  1  0  0  0  0
 16 15  1  1  0  0  0
 16 17  1  0  0  0  0
 17 13  1  1  0  0  0
 17 19  1  0  0  0  0
 18 13  2  0  0  0  0
 19  7  1  0  0  0  0
 21 23  2  0  0  0  0
 22 21  2  0  0  0  0
 23 20  1  0  0  0  0
 24 22  1  0  0  0  0
 25 24  1  0  0  0  0
 26 25  1  0  0  0  0
 27 29  1  0  0  0  0
 28 27  1  0  0  0  0
 28 32  1  0  0  0  0
 29 26  1  0  0  0  0
 30 26  1  0  0  0  0
 31 28  1  0  0  0  0
 32 30  1  0  0  0  0
M  END
>  <MODEL>
5

>  <REMARK>
 VINA RESULT:      -9.1      4.030      6.282
  Name = 
  6 active torsions:
  status: ('A' for Active; 'I' for Inactive)
    1  A    between atoms: N_2  and  C_13
    2  A    between atoms: C_3  and  C_18
    3  A    between atoms: C_9  and  C_29
    4  A    between atoms: C_13  and  C_29
    5  A    between atoms: C_18  and  C_24
    6  A    between atoms: C_21  and  C_30
                            x       y       z     vdW  Elec       q    Type
                         _______ _______ _______ _____ _____    ______ ____

>  <TORSDO>
F 6

$$$$
=
 OpenBabel11042421153D

 32 36  0  0  1  0  0  0  0  0999 V2000
  161.4400  204.2060  151.6660 C   0  0  0  0  0  0  0  0  0  0  0  0
  162.0760  206.4080  152.0530 C   0  0  2  0  0  3  0  0  0  0  0  0
  162.1020  205.1800  149.7270 N   0  0  0  0  0  0  0  0  0  0  0  0
  160.9850  206.4300  154.2330 O   0  0  0  0  0  0  0  0  0  0  0  0
  162.0870  205.2160  151.1520 C   0  0  2  0  0  3  0  0  0  0  0  0
  160.7140  202.1420  150.6530 N   0  0  0  0  0  1  0  0  0  0  0  0
  161.4570  204.1040  149.3870 C   0  0  0  0  0  0  0  0  0  0  0  0
  160.9100  203.4180  150.5740 C   0  0  0  0  0  0  0  0  0  0  0  0
  160.8320  204.4840  152.9150 N   0  0  0  0  0  2  0  0  0  0  0  0
  161.2640  205.8200  153.1670 C   0  0  0  0  0  0  0  0  0  0  0  0
  160.9220  202.4180  147.6930 C   0  0  0  0  0  3  0  0  0  0  0  0
  160.7820  201.9220  146.2990 C   0  0  0  0  0  3  0  0  0  0  0  0
  161.1890  206.0050  146.8980 C   0  0  0  0  0  3  0  0  0  0  0  0
  160.8480  202.7620  145.2600 C   0  0  0  0  0  3  0  0  0  0  0  0
  160.4560  205.1740  144.9880 C   0  0  0  0  0  2  0  0  0  0  0  0
  161.1020  204.1720  145.5520 C   0  0  1  0  0  3  0  0  0  0  0  0
  161.7060  204.6040  146.8420 C   0  0  2  0  0  3  0  0  0  0  0  0
  160.5410  206.3230  145.8230 N   0  0  0  0  0  0  0  0  0  0  0  0
  161.2760  203.6890  147.9760 C   0  0  0  0  0  0  0  0  0  0  0  0
  161.3180  207.5560  151.4060 C   0  0  0  0  0  2  0  0  0  0  0  0
  160.2980  209.5240  152.3940 C   0  0  0  0  0  0  0  0  0  0  0  0
  160.1000  210.8150  152.3710 C   0  0  0  0  0  3  0  0  0  0  0  0
  160.4850  208.2340  152.4340 C   0  0  0  0  0  3  0  0  0  0  0  0
  160.4580  211.7330  153.5090 C   0  0  0  0  0  2  0  0  0  0  0  0
  161.2870  211.0760  154.6130 C   0  0  0  0  0  2  0  0  0  0  0  0
  160.6940  211.3410  155.9210 N   0  0  0  0  0  0  0  0  0  0  0  0
  161.6520  209.3320  157.0370 C   0  0  0  0  0  2  0  0  0  0  0  0
  160.3100  208.8060  157.2610 N   0  0  0  0  0  0  0  0  0  0  0  0
  161.6000  210.8630  156.9730 C   0  0  0  0  0  2  0  0  0  0  0  0
  159.3780  210.6930  156.0120 C   0  0  0  0  0  2  0  0  0  0  0  0
  160.4510  207.0710  157.2530 Cl  0  0  0  0  0  0  0  0  0  0  0  0
  159.4980  209.1650  156.1050 C   0  0  0  0  0  2  0  0  0  0  0  0
  1  9  1  0  0  0  0
  2 20  1  6  0  0  0
  2 10  1  0  0  0  0
  5  3  1  6  0  0  0
  5  1  1  0  0  0  0
  5  2  1  0  0  0  0
  7  3  2  0  0  0  0
  7  8  1  0  0  0  0
  8  6  1  0  0  0  0
  8  1  2  0  0  0  0
  9 10  1  0  0  0  0
 10  4  2  0  0  0  0
 11 19  2  0  0  0  0
 12 11  1  0  0  0  0
 14 16  1  0  0  0  0
 14 12  2  0  0  0  0
 15 18  1  0  0  0  0
 16 15  1  1  0  0  0
 16 17  1  0  0  0  0
 17 13  1  1  0  0  0
 17 19  1  0  0  0  0
 18 13  2  0  0  0  0
 19  7  1  0  0  0  0
 20 23  1  0  0  0  0
 21 23  2  0  0  0  0
 22 21  2  0  0  0  0
 22 24  1  0  0  0  0
 24 25  1  0  0  0  0
 25 26  1  0  0  0  0
 26 30  1  0  0  0  0
 26 29  1  0  0  0  0
 27 28  1  0  0  0  0
 29 27  1  0  0  0  0
 30 32  1  0  0  0  0
 31 28  1  0  0  0  0
 32 28  1  0  0  0  0
M  END
>  <MODEL>
6

>  <REMARK>
 VINA RESULT:      -8.9      2.307      3.579
  Name = 
  6 active torsions:
  status: ('A' for Active; 'I' for Inactive)
    1  A    between atoms: N_2  and  C_13
    2  A    between atoms: C_3  and  C_18
    3  A    between atoms: C_9  and  C_29
    4  A    between atoms: C_13  and  C_29
    5  A    between atoms: C_18  and  C_24
    6  A    between atoms: C_21  and  C_30
                            x       y       z     vdW  Elec       q    Type
                         _______ _______ _______ _____ _____    ______ ____

>  <TORSDO>
F 6

$$$$
=
 OpenBabel11042421153D

 32 36  0  0  1  0  0  0  0  0999 V2000
  161.4100  205.8090  152.9080 C   0  0  0  0  0  0  0  0  0  0  0  0
  161.5390  208.1300  152.8410 C   0  0  2  0  0  3  0  0  0  0  0  0
  161.8540  206.5070  150.7950 N   0  0  0  0  0  0  0  0  0  0  0  0
  160.4550  208.3380  155.0150 O   0  0  0  0  0  0  0  0  0  0  0  0
  161.8210  206.8160  152.1860 C   0  0  2  0  0  3  0  0  0  0  0  0
  161.1670  203.4800  152.3370 N   0  0  0  0  0  1  0  0  0  0  0  0
  161.4650  205.2700  150.6920 C   0  0  0  0  0  0  0  0  0  0  0  0
  161.0760  204.7260  152.0080 C   0  0  0  0  0  0  0  0  0  0  0  0
  160.7470  206.1860  154.1010 N   0  0  0  0  0  2  0  0  0  0  0  0
  160.8700  207.6080  154.0760 C   0  0  0  0  0  0  0  0  0  0  0  0
  161.0230  203.2610  149.3640 C   0  0  0  0  0  3  0  0  0  0  0  0
  160.9850  202.4720  148.1050 C   0  0  0  0  0  3  0  0  0  0  0  0
  161.4680  206.5820  147.8350 C   0  0  0  0  0  3  0  0  0  0  0  0
  161.1650  203.0630  146.9180 C   0  0  0  0  0  3  0  0  0  0  0  0
  160.8730  205.3620  146.0950 C   0  0  0  0  0  2  0  0  0  0  0  0
  161.4370  204.5000  146.9180 C   0  0  1  0  0  3  0  0  0  0  0  0
  161.9440  205.1970  148.1320 C   0  0  2  0  0  3  0  0  0  0  0  0
  160.9230  206.6650  146.6630 N   0  0  0  0  0  0  0  0  0  0  0  0
  161.3910  204.5580  149.3950 C   0  0  0  0  0  0  0  0  0  0  0  0
  160.5500  208.9350  152.0130 C   0  0  0  0  0  2  0  0  0  0  0  0
  159.7240  211.0960  152.7450 C   0  0  0  0  0  0  0  0  0  0  0  0
  158.7330  211.8290  153.1790 C   0  0  0  0  0  3  0  0  0  0  0  0
  160.7240  210.3810  152.3120 C   0  0  0  0  0  3  0  0  0  0  0  0
  158.2420  213.0660  152.4760 C   0  0  0  0  0  2  0  0  0  0  0  0
  158.2790  212.9820  150.9500 C   0  0  0  0  0  2  0  0  0  0  0  0
  158.6800  214.2640  150.3790 N   0  0  0  0  0  0  0  0  0  0  0  0
  158.9440  213.4240  148.0500 C   0  0  0  0  0  2  0  0  0  0  0  0
  160.3690  213.7370  148.0900 N   0  0  0  0  0  0  0  0  0  0  0  0
  158.1850  214.3590  148.9990 C   0  0  0  0  0  2  0  0  0  0  0  0
  160.1420  214.4000  150.4340 C   0  0  0  0  0  2  0  0  0  0  0  0
  161.1560  212.5920  147.0420 Cl  0  0  0  0  0  0  0  0  0  0  0  0
  160.8420  213.4620  149.4400 C   0  0  0  0  0  2  0  0  0  0  0  0
  1  9  1  0  0  0  0
  2 20  1  6  0  0  0
  2 10  1  0  0  0  0
  5  3  1  6  0  0  0
  5  2  1  0  0  0  0
  5  1  1  0  0  0  0
  7  3  2  0  0  0  0
  7  8  1  0  0  0  0
  8  6  1  0  0  0  0
  8  1  2  0  0  0  0
 10  9  1  0  0  0  0
 10  4  2  0  0  0  0
 11 19  2  0  0  0  0
 12 11  1  0  0  0  0
 14 12  2  0  0  0  0
 15 18  1  0  0  0  0
 16 15  1  1  0  0  0
 16 14  1  0  0  0  0
 16 17  1  0  0  0  0
 17 13  1  6  0  0  0
 17 19  1  0  0  0  0
 18 13  2  0  0  0  0
 19  7  1  0  0  0  0
 20 23  1  0  0  0  0
 21 22  2  0  0  0  0
 23 21  2  0  0  0  0
 24 22  1  0  0  0  0
 25 24  1  0  0  0  0
 26 30  1  0  0  0  0
 26 25  1  0  0  0  0
 27 28  1  0  0  0  0
 27 29  1  0  0  0  0
 28 32  1  0  0  0  0
 29 26  1  0  0  0  0
 31 28  1  0  0  0  0
 32 30  1  0  0  0  0
M  END
>  <MODEL>
7

>  <REMARK>
 VINA RESULT:      -8.8      3.632      5.210
  Name = 
  6 active torsions:
  status: ('A' for Active; 'I' for Inactive)
    1  A    between atoms: N_2  and  C_13
    2  A    between atoms: C_3  and  C_18
    3  A    between atoms: C_9  and  C_29
    4  A    between atoms: C_13  and  C_29
    5  A    between atoms: C_18  and  C_24
    6  A    between atoms: C_21  and  C_30
                            x       y       z     vdW  Elec       q    Type
                         _______ _______ _______ _____ _____    ______ ____

>  <TORSDO>
F 6

$$$$
=
 OpenBabel11042421153D

 32 36  0  0  1  0  0  0  0  0999 V2000
  161.5500  207.2810  150.9730 C   0  0  0  0  0  0  0  0  0  0  0  0
  162.3310  209.3000  150.1240 C   0  0  2  0  0  3  0  0  0  0  0  0
  162.3880  206.9800  148.8860 N   0  0  0  0  0  0  0  0  0  0  0  0
  161.1290  210.5750  151.8200 O   0  0  0  0  0  0  0  0  0  0  0  0
  162.2990  207.8080  150.0430 C   0  0  0  0  0  0  0  0  0  0  0  0
  160.7240  205.0290  151.2180 N   0  0  0  0  0  2  0  0  0  0  0  0
  161.6810  205.9200  149.1470 C   0  0  0  0  0  0  0  0  0  0  0  0
  161.0210  206.0350  150.4610 C   0  0  0  0  0  0  0  0  0  0  0  0
  160.8990  208.2300  151.7980 N   0  0  0  0  0  2  0  0  0  0  0  0
  161.4170  209.4640  151.3020 C   0  0  0  0  0  0  0  0  0  0  0  0
  161.2070  203.5690  148.6520 C   0  0  0  0  0  3  0  0  0  0  0  0
  161.1120  202.3840  147.7600 C   0  0  0  0  0  3  0  0  0  0  0  0
  161.4780  206.1290  146.0170 C   0  0  0  0  0  3  0  0  0  0  0  0
  161.2050  202.5130  146.4320 C   0  0  0  0  0  3  0  0  0  0  0  0
  160.8080  204.3680  144.8660 C   0  0  0  0  0  2  0  0  0  0  0  0
  161.4420  203.8560  145.9030 C   0  0  1  0  0  3  0  0  0  0  0  0
  162.0050  204.9400  146.7540 C   0  0  2  0  0  3  0  0  0  0  0  0
  160.8610  205.7880  144.9300 N   0  0  0  0  0  0  0  0  0  0  0  0
  161.5450  204.7930  148.1950 C   0  0  0  0  0  0  0  0  0  0  0  0
  161.6990  209.9130  148.8850 C   0  0  0  0  0  2  0  0  0  0  0  0
  161.6630  212.1250  147.8880 C   0  0  0  0  0  0  0  0  0  0  0  0
  161.0750  212.9950  147.1090 C   0  0  0  0  0  3  0  0  0  0  0  0
  162.2640  211.2710  148.6680 C   0  0  0  0  0  3  0  0  0  0  0  0
  161.7400  213.6260  145.9160 C   0  0  0  0  0  2  0  0  0  0  0  0
  160.9080  213.5860  144.6340 C   0  0  0  0  0  2  0  0  0  0  0  0
  161.1840  212.3630  143.8870 N   0  0  0  0  0  0  0  0  0  0  0  0
  162.0150  213.5090  141.8380 C   0  0  0  0  0  2  0  0  0  0  0  0
  160.9080  212.9540  141.0680 N   0  0  0  0  0  0  0  0  0  0  0  0
  162.3440  212.5780  143.0110 C   0  0  0  0  0  2  0  0  0  0  0  0
  159.9970  211.9710  143.1150 C   0  0  0  0  0  2  0  0  0  0  0  0
  160.5590  214.0990  139.8050 Cl  0  0  0  0  0  0  0  0  0  0  0  0
  159.7390  212.9220  141.9380 C   0  0  0  0  0  2  0  0  0  0  0  0
  1  9  1  0  0  0  0
  2 20  1  6  0  0  0
  2 10  1  0  0  0  0
  3  7  2  0  0  0  0
  3  5  1  0  0  0  0
  5  2  1  0  0  0  0
  5  1  2  0  0  0  0
  7  8  1  0  0  0  0
  8  1  1  0  0  0  0
  8  6  2  0  0  0  0
 10  9  1  0  0  0  0
 10  4  2  0  0  0  0
 12 11  1  0  0  0  0
 14 12  2  0  0  0  0
 15 18  1  0  0  0  0
 16 15  1  1  0  0  0
 16 14  1  0  0  0  0
 16 17  1  0  0  0  0
 17 13  1  6  0  0  0
 17 19  1  0  0  0  0
 18 13  2  0  0  0  0
 19 11  2  0  0  0  0
 19  7  1  0  0  0  0
 21 23  2  0  0  0  0
 22 21  2  0  0  0  0
 23 20  1  0  0  0  0
 24 22  1  0  0  0  0
 25 24  1  0  0  0  0
 26 25  1  0  0  0  0
 27 29  1  0  0  0  0
 28 27  1  0  0  0  0
 28 32  1  0  0  0  0
 29 26  1  0  0  0  0
 30 26  1  0  0  0  0
 31 28  1  0  0  0  0
 32 30  1  0  0  0  0
M  END
>  <MODEL>
8

>  <REMARK>
 VINA RESULT:      -8.8      5.072      7.912
  Name = 
  6 active torsions:
  status: ('A' for Active; 'I' for Inactive)
    1  A    between atoms: N_2  and  C_13
    2  A    between atoms: C_3  and  C_18
    3  A    between atoms: C_9  and  C_29
    4  A    between atoms: C_13  and  C_29
    5  A    between atoms: C_18  and  C_24
    6  A    between atoms: C_21  and  C_30
                            x       y       z     vdW  Elec       q    Type
                         _______ _______ _______ _____ _____    ______ ____

>  <TORSDO>
F 6

$$$$
=
 OpenBabel11042421153D

 32 36  0  0  1  0  0  0  0  0999 V2000
  161.5960  207.4590  148.3840 C   0  0  0  0  0  0  0  0  0  0  0  0
  161.0300  208.2550  150.4940 C   0  0  2  0  0  3  0  0  0  0  0  0
  160.5700  205.8300  149.5840 N   0  0  0  0  0  0  0  0  0  0  0  0
  162.5160  210.1740  150.2630 O   0  0  0  0  0  0  0  0  0  0  0  0
  160.8550  207.2180  149.4310 C   0  0  2  0  0  3  0  0  0  0  0  0
  162.1300  206.0560  146.4970 N   0  0  0  0  0  1  0  0  0  0  0  0
  161.1460  205.2310  148.5830 C   0  0  0  0  0  0  0  0  0  0  0  0
  161.9140  206.1900  147.7650 C   0  0  0  0  0  0  0  0  0  0  0  0
  162.4290  208.5970  148.5140 N   0  0  0  0  0  2  0  0  0  0  0  0
  162.0440  209.1060  149.7900 C   0  0  0  0  0  0  0  0  0  0  0  0
  161.3690  203.2530  147.1580 C   0  0  0  0  0  3  0  0  0  0  0  0
  161.2450  201.8040  146.8550 C   0  0  0  0  0  3  0  0  0  0  0  0
  160.9010  203.0200  150.8040 C   0  0  0  0  0  3  0  0  0  0  0  0
  160.9680  200.9190  147.8200 C   0  0  0  0  0  3  0  0  0  0  0  0
  161.2650  200.9110  150.2620 C   0  0  0  0  0  2  0  0  0  0  0  0
  160.7540  201.4440  149.1690 C   0  0  1  0  0  3  0  0  0  0  0  0
  160.4040  202.8720  149.4030 C   0  0  2  0  0  3  0  0  0  0  0  0
  161.3250  201.8950  151.2870 N   0  0  0  0  0  0  0  0  0  0  0  0
  161.0580  203.7690  148.3650 C   0  0  0  0  0  0  0  0  0  0  0  0
  161.6430  207.6390  151.7410 C   0  0  0  0  0  2  0  0  0  0  0  0
  160.5050  209.4430  152.8990 C   0  0  0  0  0  0  0  0  0  0  0  0
  159.5330  210.3170  152.9320 C   0  0  0  0  0  3  0  0  0  0  0  0
  161.4800  208.5790  152.8820 C   0  0  0  0  0  3  0  0  0  0  0  0
  159.7520  211.8010  153.0490 C   0  0  0  0  0  2  0  0  0  0  0  0
  160.1920  212.4790  151.7520 C   0  0  0  0  0  2  0  0  0  0  0  0
  159.6160  213.8180  151.6570 N   0  0  0  0  0  0  0  0  0  0  0  0
  157.5360  213.1070  150.4870 C   0  0  0  0  0  2  0  0  0  0  0  0
  157.9130  213.8960  149.3190 N   0  0  0  0  0  0  0  0  0  0  0  0
  158.1530  213.7250  151.7470 C   0  0  0  0  0  2  0  0  0  0  0  0
  160.0360  214.4530  150.4000 C   0  0  0  0  0  2  0  0  0  0  0  0
  157.2300  213.0900  147.9360 Cl  0  0  0  0  0  0  0  0  0  0  0  0
  159.3610  213.8110  149.1800 C   0  0  0  0  0  2  0  0  0  0  0  0
  1  9  1  0  0  0  0
  2 20  1  1  0  0  0
  5  1  1  1  0  0  0
  5  3  1  0  0  0  0
  5  2  1  0  0  0  0
  6  8  1  0  0  0  0
  7  3  2  0  0  0  0
  8  1  2  0  0  0  0
  8  7  1  0  0  0  0
  9 10  1  0  0  0  0
 10  4  2  0  0  0  0
 10  2  1  0  0  0  0
 11 19  2  0  0  0  0
 12 11  1  0  0  0  0
 12 14  2  0  0  0  0
 13 18  2  0  0  0  0
 15 18  1  0  0  0  0
 16 14  1  6  0  0  0
 16 17  1  0  0  0  0
 16 15  1  0  0  0  0
 17 13  1  1  0  0  0
 19  7  1  0  0  0  0
 19 17  1  0  0  0  0
 20 23  1  0  0  0  0
 21 22  2  0  0  0  0
 22 24  1  0  0  0  0
 23 21  2  0  0  0  0
 25 24  1  0  0  0  0
 26 29  1  0  0  0  0
 26 25  1  0  0  0  0
 27 29  1  0  0  0  0
 28 27  1  0  0  0  0
 30 26  1  0  0  0  0
 31 28  1  0  0  0  0
 32 28  1  0  0  0  0
 32 30  1  0  0  0  0
M  END
>  <MODEL>
9

>  <REMARK>
 VINA RESULT:      -8.8      3.010      4.027
  Name = 
  6 active torsions:
  status: ('A' for Active; 'I' for Inactive)
    1  A    between atoms: N_2  and  C_13
    2  A    between atoms: C_3  and  C_18
    3  A    between atoms: C_9  and  C_29
    4  A    between atoms: C_13  and  C_29
    5  A    between atoms: C_18  and  C_24
    6  A    between atoms: C_21  and  C_30
                            x       y       z     vdW  Elec       q    Type
                         _______ _______ _______ _____ _____    ______ ____

>  <TORSDO>
F 6

$$$$
