=
 OpenBabel11042420293D

 31 33  0  0  1  0  0  0  0  0999 V2000
  161.2060  203.3420  148.0800 C   0  0  0  0  0  0  0  0  0  0  0  0
  161.0280  203.8710  149.3810 C   0  0  0  0  0  0  0  0  0  0  0  0
  160.8680  202.9660  150.4410 C   0  0  0  0  0  3  0  0  0  0  0  0
  161.0820  201.1180  148.9450 N   0  0  0  0  0  0  0  0  0  0  0  0
  161.3650  204.1920  146.9910 C   0  0  0  0  0  3  0  0  0  0  0  0
  161.3270  205.5710  147.1720 C   0  0  0  0  0  3  0  0  0  0  0  0
  161.2340  201.9600  147.8900 C   0  0  0  0  0  3  0  0  0  0  0  0
  161.0060  205.2800  149.5640 C   0  0  0  0  0  0  0  0  0  0  0  0
  160.9000  201.5890  150.2050 C   0  0  0  0  0  3  0  0  0  0  0  0
  161.1470  206.1220  148.4440 C   0  0  0  0  0  0  0  0  0  0  0  0
  161.1050  207.5100  148.6170 O   0  0  0  0  0  0  0  0  0  0  0  0
  162.2750  208.3220  148.6230 C   0  0  0  0  0  2  0  0  0  0  0  0
  162.0030  209.5710  149.3170 N   0  0  0  0  0  2  0  0  0  0  0  0
  161.8350  211.9470  148.7190 C   0  0  0  0  0  0  0  0  0  0  0  0
  161.2690  212.2020  149.8120 O   0  0  0  0  0  1  0  0  0  0  0  0
  162.2070  210.6090  148.3970 N   0  0  0  0  0  2  0  0  0  0  0  0
  162.0840  212.9700  147.8160 O   0  0  0  0  0  0  0  0  0  0  0  0
  160.8720  205.9110  150.8540 N   0  0  0  0  0  2  0  0  0  0  0  0
  161.9390  206.4890  151.6580 C   0  0  0  0  0  2  0  0  0  0  0  0
  161.1900  204.9210  153.3100 O   0  0  0  0  0  1  0  0  0  0  0  0
  161.6790  206.2250  153.1340 C   0  0  2  0  0  3  0  0  0  0  0  0
  161.4540  208.6730  156.6880 F   0  0  0  0  0  0  0  0  0  0  0  0
  160.6810  207.2480  153.6770 C   0  0  2  0  0  3  0  0  0  0  0  0
  161.3760  209.3830  154.4220 C   0  0  2  0  0  3  0  0  0  0  0  0
  161.0140  208.6390  153.1700 C   0  0  0  0  0  2  0  0  0  0  0  0
  160.6700  207.2340  155.0940 O   0  0  0  0  0  0  0  0  0  0  0  0
  160.7080  208.5740  155.5240 C   0  0  0  0  0  0  0  0  0  0  0  0
  159.4090  208.9920  155.7760 F   0  0  0  0  0  0  0  0  0  0  0  0
  160.6210  211.4270  153.1490 O   0  0  0  0  0  0  0  0  0  0  0  0
  161.0090  210.8360  154.3480 C   0  0  0  0  0  0  0  0  0  0  0  0
  161.1270  211.5500  155.3730 O   0  0  0  0  0  1  0  0  0  0  0  0
  1  2  1  0  0  0  0
  2  8  1  0  0  0  0
  2  3  2  0  0  0  0
  4  9  2  0  0  0  0
  5  6  2  0  0  0  0
  5  1  1  0  0  0  0
  6 10  1  0  0  0  0
  7  1  2  0  0  0  0
  7  4  1  0  0  0  0
  8 18  1  0  0  0  0
  9  3  1  0  0  0  0
 10 11  1  0  0  0  0
 10  8  2  0  0  0  0
 11 12  1  0  0  0  0
 12 13  1  0  0  0  0
 14 15  1  0  0  0  0
 16 14  1  0  0  0  0
 16 13  1  0  0  0  0
 17 14  2  0  0  0  0
 18 19  1  0  0  0  0
 19 21  1  0  0  0  0
 21 20  1  6  0  0  0
 23 21  1  1  0  0  0
 23 26  1  0  0  0  0
 24 30  1  6  0  0  0
 24 27  1  0  0  0  0
 25 23  1  0  0  0  0
 25 24  1  0  0  0  0
 26 27  1  0  0  0  0
 27 28  1  0  0  0  0
 27 22  1  0  0  0  0
 29 30  2  0  0  0  0
 30 31  1  0  0  0  0
M  END
>  <MODEL>
1

>  <REMARK>
 VINA RESULT:      -8.4      0.000      0.000
  Name = 
  9 active torsions:
  status: ('A' for Active; 'I' for Inactive)
    1  A    between atoms: C_4  and  N_10
    2  A    between atoms: C_4  and  C_29
    3  A    between atoms: O_8  and  C_12
    4  A    between atoms: O_8  and  C_28
    5  A    between atoms: N_10  and  C_18
    6  A    between atoms: C_11  and  C_29
    7  A    between atoms: C_12  and  N_27
    8  A    between atoms: C_15  and  C_20
    9  A    between atoms: N_23  and  N_27
                            x       y       z     vdW  Elec       q    Type
                         _______ _______ _______ _____ _____    ______ ____

>  <TORSDO>
F 9

$$$$
=
 OpenBabel11042420293D

 31 33  0  0  1  0  0  0  0  0999 V2000
  160.7700  209.1910  153.8560 C   0  0  0  0  0  0  0  0  0  0  0  0
  161.0830  207.8170  153.7190 C   0  0  0  0  0  0  0  0  0  0  0  0
  160.7970  206.9680  154.7990 C   0  0  0  0  0  3  0  0  0  0  0  0
  159.9150  208.7980  156.0520 N   0  0  0  0  0  0  0  0  0  0  0  0
  161.0370  210.0790  152.8200 C   0  0  0  0  0  3  0  0  0  0  0  0
  161.6330  209.6250  151.6480 C   0  0  0  0  0  3  0  0  0  0  0  0
  160.1820  209.6550  155.0330 C   0  0  0  0  0  3  0  0  0  0  0  0
  161.6780  207.3540  152.5150 C   0  0  0  0  0  0  0  0  0  0  0  0
  160.2090  207.4760  155.9600 C   0  0  0  0  0  3  0  0  0  0  0  0
  161.9590  208.2750  151.4870 C   0  0  0  0  0  0  0  0  0  0  0  0
  162.5630  207.8260  150.3070 O   0  0  0  0  0  0  0  0  0  0  0  0
  162.1030  208.2020  149.0130 C   0  0  0  0  0  2  0  0  0  0  0  0
  162.4800  207.1870  148.0430 N   0  0  0  0  0  2  0  0  0  0  0  0
  161.4580  206.1310  146.0750 C   0  0  0  0  0  0  0  0  0  0  0  0
  162.5740  205.6800  145.7130 O   0  0  0  0  0  1  0  0  0  0  0  0
  161.3530  206.9370  147.2460 N   0  0  0  0  0  2  0  0  0  0  0  0
  160.3270  205.8570  145.3210 O   0  0  0  0  0  0  0  0  0  0  0  0
  161.9930  205.9680  152.2660 N   0  0  0  0  0  2  0  0  0  0  0  0
  161.0860  204.9400  151.7770 C   0  0  0  0  0  2  0  0  0  0  0  0
  159.8720  205.2180  149.7290 O   0  0  0  0  0  1  0  0  0  0  0  0
  161.1300  204.8870  150.2570 C   0  0  2  0  0  3  0  0  0  0  0  0
  159.0320  201.2260  149.3220 F   0  0  0  0  0  0  0  0  0  0  0  0
  161.5510  203.4910  149.7990 C   0  0  2  0  0  3  0  0  0  0  0  0
  160.5370  202.4390  147.9390 C   0  0  2  0  0  3  0  0  0  0  0  0
  161.6160  203.4230  148.2850 C   0  0  0  0  0  2  0  0  0  0  0  0
  160.6550  202.5090  150.2940 O   0  0  0  0  0  0  0  0  0  0  0  0
  160.3490  201.6470  149.2250 C   0  0  0  0  0  0  0  0  0  0  0  0
  161.1880  200.5430  149.2960 F   0  0  0  0  0  0  0  0  0  0  0  0
  161.1700  200.2860  146.7830 O   0  0  0  0  0  1  0  0  0  0  0  0
  160.8650  201.6420  146.7100 C   0  0  0  0  0  0  0  0  0  0  0  0
  160.9410  202.2290  145.6030 O   0  0  0  0  0  0  0  0  0  0  0  0
  1  7  2  0  0  0  0
  2  1  1  0  0  0  0
  2  3  2  0  0  0  0
  3  9  1  0  0  0  0
  5  1  1  0  0  0  0
  6  5  2  0  0  0  0
  7  4  1  0  0  0  0
  8  2  1  0  0  0  0
  9  4  2  0  0  0  0
 10  6  1  0  0  0  0
 10  8  2  0  0  0  0
 11 10  1  0  0  0  0
 12 11  1  0  0  0  0
 13 12  1  0  0  0  0
 14 16  1  0  0  0  0
 15 14  1  0  0  0  0
 16 13  1  0  0  0  0
 17 14  2  0  0  0  0
 18  8  1  0  0  0  0
 19 18  1  0  0  0  0
 21 20  1  6  0  0  0
 21 19  1  0  0  0  0
 23 21  1  6  0  0  0
 23 26  1  0  0  0  0
 24 30  1  6  0  0  0
 24 25  1  0  0  0  0
 24 27  1  0  0  0  0
 25 23  1  0  0  0  0
 27 28  1  0  0  0  0
 27 22  1  0  0  0  0
 27 26  1  0  0  0  0
 30 29  1  0  0  0  0
 31 30  2  0  0  0  0
M  END
>  <MODEL>
2

>  <REMARK>
 VINA RESULT:      -8.4      3.934      7.642
  Name = 
  9 active torsions:
  status: ('A' for Active; 'I' for Inactive)
    1  A    between atoms: C_4  and  N_10
    2  A    between atoms: C_4  and  C_29
    3  A    between atoms: O_8  and  C_12
    4  A    between atoms: O_8  and  C_28
    5  A    between atoms: N_10  and  C_18
    6  A    between atoms: C_11  and  C_29
    7  A    between atoms: C_12  and  N_27
    8  A    between atoms: C_15  and  C_20
    9  A    between atoms: N_23  and  N_27
                            x       y       z     vdW  Elec       q    Type
                         _______ _______ _______ _____ _____    ______ ____

>  <TORSDO>
F 9

$$$$
=
 OpenBabel11042420293D

 31 33  0  0  1  0  0  0  0  0999 V2000
  160.7810  208.3520  153.9800 C   0  0  0  0  0  0  0  0  0  0  0  0
  161.3340  208.4670  152.6820 C   0  0  0  0  0  0  0  0  0  0  0  0
  161.4470  209.7500  152.1260 C   0  0  0  0  0  3  0  0  0  0  0  0
  160.5150  210.7230  154.0970 N   0  0  0  0  0  0  0  0  0  0  0  0
  160.6410  207.1050  154.5770 C   0  0  0  0  0  3  0  0  0  0  0  0
  161.0270  205.9560  153.8920 C   0  0  0  0  0  3  0  0  0  0  0  0
  160.3830  209.4980  154.6680 C   0  0  0  0  0  3  0  0  0  0  0  0
  161.7410  207.2930  151.9910 C   0  0  0  0  0  0  0  0  0  0  0  0
  161.0320  210.8710  152.8510 C   0  0  0  0  0  3  0  0  0  0  0  0
  161.5700  206.0380  152.6070 C   0  0  0  0  0  0  0  0  0  0  0  0
  161.9510  204.8790  151.9220 O   0  0  0  0  0  0  0  0  0  0  0  0
  161.2140  203.6620  151.9940 C   0  0  0  0  0  2  0  0  0  0  0  0
  160.4840  203.4560  150.7540 N   0  0  0  0  0  2  0  0  0  0  0  0
  160.5540  201.5250  149.2380 C   0  0  0  0  0  0  0  0  0  0  0  0
  159.3040  201.4060  149.2990 O   0  0  0  0  0  1  0  0  0  0  0  0
  161.2180  202.5390  149.9870 N   0  0  0  0  0  2  0  0  0  0  0  0
  161.2910  200.6530  148.4500 O   0  0  0  0  0  0  0  0  0  0  0  0
  162.3530  207.3120  150.6850 N   0  0  0  0  0  2  0  0  0  0  0  0
  162.0010  208.1750  149.5670 C   0  0  0  0  0  2  0  0  0  0  0  0
  160.4340  206.3810  149.2920 O   0  0  0  0  0  1  0  0  0  0  0  0
  161.0630  207.4420  148.6190 C   0  0  2  0  0  3  0  0  0  0  0  0
  162.5170  203.5670  147.3750 F   0  0  0  0  0  0  0  0  0  0  0  0
  161.8460  206.9210  147.4140 C   0  0  2  0  0  3  0  0  0  0  0  0
  161.1050  205.0500  146.1710 C   0  0  2  0  0  3  0  0  0  0  0  0
  160.9010  206.5320  146.2920 C   0  0  0  0  0  2  0  0  0  0  0  0
  162.6510  205.8130  147.7800 O   0  0  0  0  0  0  0  0  0  0  0  0
  162.4740  204.8250  146.7940 C   0  0  0  0  0  0  0  0  0  0  0  0
  163.5030  204.9370  145.8700 F   0  0  0  0  0  0  0  0  0  0  0  0
  161.2890  205.3520  143.6710 O   0  0  0  0  0  0  0  0  0  0  0  0
  160.9280  204.5650  144.7610 C   0  0  0  0  0  0  0  0  0  0  0  0
  160.3730  203.4570  144.5610 O   0  0  0  0  0  1  0  0  0  0  0  0
  1  5  1  0  0  0  0
  1  7  2  0  0  0  0
  2  1  1  0  0  0  0
  3  2  2  0  0  0  0
  3  9  1  0  0  0  0
  4  7  1  0  0  0  0
  6  5  2  0  0  0  0
  8 10  2  0  0  0  0
  8  2  1  0  0  0  0
  9  4  2  0  0  0  0
 10  6  1  0  0  0  0
 11 12  1  0  0  0  0
 11 10  1  0  0  0  0
 13 12  1  0  0  0  0
 14 15  1  0  0  0  0
 14 16  1  0  0  0  0
 16 13  1  0  0  0  0
 17 14  2  0  0  0  0
 18  8  1  0  0  0  0
 19 18  1  0  0  0  0
 21 20  1  1  0  0  0
 21 19  1  0  0  0  0
 23 26  1  0  0  0  0
 23 21  1  1  0  0  0
 24 30  1  6  0  0  0
 24 25  1  0  0  0  0
 24 27  1  0  0  0  0
 25 23  1  0  0  0  0
 27 22  1  0  0  0  0
 27 26  1  0  0  0  0
 28 27  1  0  0  0  0
 29 30  2  0  0  0  0
 31 30  1  0  0  0  0
M  END
>  <MODEL>
3

>  <REMARK>
 VINA RESULT:      -8.3      4.046      8.454
  Name = 
  9 active torsions:
  status: ('A' for Active; 'I' for Inactive)
    1  A    between atoms: C_4  and  N_10
    2  A    between atoms: C_4  and  C_29
    3  A    between atoms: O_8  and  C_12
    4  A    between atoms: O_8  and  C_28
    5  A    between atoms: N_10  and  C_18
    6  A    between atoms: C_11  and  C_29
    7  A    between atoms: C_12  and  N_27
    8  A    between atoms: C_15  and  C_20
    9  A    between atoms: N_23  and  N_27
                            x       y       z     vdW  Elec       q    Type
                         _______ _______ _______ _____ _____    ______ ____

>  <TORSDO>
F 9

$$$$
=
 OpenBabel11042420293D

 31 33  0  0  1  0  0  0  0  0999 V2000
  161.4830  207.6650  152.2990 C   0  0  0  0  0  0  0  0  0  0  0  0
  161.6390  206.9860  151.0670 C   0  0  0  0  0  0  0  0  0  0  0  0
  161.5910  205.5840  151.0790 C   0  0  0  0  0  3  0  0  0  0  0  0
  161.2280  205.5810  153.4380 N   0  0  0  0  0  0  0  0  0  0  0  0
  161.5270  209.0540  152.3470 C   0  0  0  0  0  3  0  0  0  0  0  0
  161.7460  209.7860  151.1830 C   0  0  0  0  0  3  0  0  0  0  0  0
  161.2750  206.9380  153.4710 C   0  0  0  0  0  3  0  0  0  0  0  0
  161.8470  207.7370  149.8780 C   0  0  0  0  0  0  0  0  0  0  0  0
  161.3820  204.8960  152.2770 C   0  0  0  0  0  3  0  0  0  0  0  0
  161.9090  209.1420  149.9530 C   0  0  0  0  0  0  0  0  0  0  0  0
  162.1340  209.8830  148.7880 O   0  0  0  0  0  0  0  0  0  0  0  0
  162.2190  211.3050  148.7820 C   0  0  0  0  0  2  0  0  0  0  0  0
  161.4230  211.8400  147.6890 N   0  0  0  0  0  2  0  0  0  0  0  0
  161.7560  213.3860  145.8100 C   0  0  0  0  0  0  0  0  0  0  0  0
  160.6230  213.1000  145.3470 O   0  0  0  0  0  1  0  0  0  0  0  0
  162.2320  212.7490  146.9930 N   0  0  0  0  0  2  0  0  0  0  0  0
  162.5520  214.3160  145.1570 O   0  0  0  0  0  0  0  0  0  0  0  0
  161.9730  207.1370  148.5720 N   0  0  0  0  0  2  0  0  0  0  0  0
  160.9690  206.3510  147.8710 C   0  0  0  0  0  2  0  0  0  0  0  0
  160.6160  205.7790  145.5700 O   0  0  0  0  0  1  0  0  0  0  0  0
  161.5650  205.7550  146.6040 C   0  0  2  0  0  3  0  0  0  0  0  0
  159.9340  202.3810  148.7570 F   0  0  0  0  0  0  0  0  0  0  0  0
  162.0270  204.3220  146.8720 C   0  0  2  0  0  3  0  0  0  0  0  0
  160.6090  202.4700  146.4800 C   0  0  2  0  0  3  0  0  0  0  0  0
  161.5540  203.3940  145.7690 C   0  0  0  0  0  2  0  0  0  0  0  0
  161.5520  203.8700  148.1290 O   0  0  0  0  0  0  0  0  0  0  0  0
  161.0350  202.5750  147.9370 C   0  0  0  0  0  0  0  0  0  0  0  0
  162.0200  201.6540  148.2700 F   0  0  0  0  0  0  0  0  0  0  0  0
  161.2700  200.0340  146.5000 O   0  0  0  0  0  1  0  0  0  0  0  0
  160.6050  201.0920  145.8860 C   0  0  0  0  0  0  0  0  0  0  0  0
  160.0560  200.9070  144.7730 O   0  0  0  0  0  0  0  0  0  0  0  0
  1  5  1  0  0  0  0
  1  7  2  0  0  0  0
  2  3  2  0  0  0  0
  2  1  1  0  0  0  0
  3  9  1  0  0  0  0
  4  7  1  0  0  0  0
  6  5  2  0  0  0  0
  8 10  2  0  0  0  0
  8  2  1  0  0  0  0
  9  4  2  0  0  0  0
 10  6  1  0  0  0  0
 11 10  1  0  0  0  0
 12 11  1  0  0  0  0
 13 12  1  0  0  0  0
 14 16  1  0  0  0  0
 15 14  1  0  0  0  0
 16 13  1  0  0  0  0
 17 14  2  0  0  0  0
 18  8  1  0  0  0  0
 19 18  1  0  0  0  0
 21 20  1  6  0  0  0
 21 19  1  0  0  0  0
 23 21  1  6  0  0  0
 23 26  1  0  0  0  0
 24 30  1  6  0  0  0
 24 27  1  0  0  0  0
 25 24  1  0  0  0  0
 25 23  1  0  0  0  0
 27 26  1  0  0  0  0
 27 28  1  0  0  0  0
 27 22  1  0  0  0  0
 30 29  1  0  0  0  0
 31 30  2  0  0  0  0
M  END
>  <MODEL>
4

>  <REMARK>
 VINA RESULT:      -8.0      3.883      7.333
  Name = 
  9 active torsions:
  status: ('A' for Active; 'I' for Inactive)
    1  A    between atoms: C_4  and  N_10
    2  A    between atoms: C_4  and  C_29
    3  A    between atoms: O_8  and  C_12
    4  A    between atoms: O_8  and  C_28
    5  A    between atoms: N_10  and  C_18
    6  A    between atoms: C_11  and  C_29
    7  A    between atoms: C_12  and  N_27
    8  A    between atoms: C_15  and  C_20
    9  A    between atoms: N_23  and  N_27
                            x       y       z     vdW  Elec       q    Type
                         _______ _______ _______ _____ _____    ______ ____

>  <TORSDO>
F 9

$$$$
=
 OpenBabel11042420293D

 31 33  0  0  1  0  0  0  0  0999 V2000
  161.2170  209.2550  155.0080 C   0  0  0  0  0  0  0  0  0  0  0  0
  160.9100  208.1630  154.1610 C   0  0  0  0  0  0  0  0  0  0  0  0
  160.3770  207.0060  154.7490 C   0  0  0  0  0  3  0  0  0  0  0  0
  160.4480  208.0260  156.9070 N   0  0  0  0  0  0  0  0  0  0  0  0
  161.7530  210.4250  154.4810 C   0  0  0  0  0  3  0  0  0  0  0  0
  162.0100  210.5220  153.1160 C   0  0  0  0  0  3  0  0  0  0  0  0
  160.9720  209.1620  156.3780 C   0  0  0  0  0  3  0  0  0  0  0  0
  161.1600  208.2710  152.7660 C   0  0  0  0  0  0  0  0  0  0  0  0
  160.1500  206.9550  156.1270 C   0  0  0  0  0  3  0  0  0  0  0  0
  161.7220  209.4580  152.2570 C   0  0  0  0  0  0  0  0  0  0  0  0
  161.9870  209.5600  150.8870 O   0  0  0  0  0  0  0  0  0  0  0  0
  161.6960  210.7300  150.1300 C   0  0  0  0  0  2  0  0  0  0  0  0
  162.3280  210.6400  148.8230 N   0  0  0  0  0  2  0  0  0  0  0  0
  161.5110  212.5220  147.4730 C   0  0  0  0  0  0  0  0  0  0  0  0
  160.5330  211.8400  147.0780 O   0  0  0  0  0  1  0  0  0  0  0  0
  162.4820  211.9500  148.3460 N   0  0  0  0  0  2  0  0  0  0  0  0
  161.6550  213.8330  147.0450 O   0  0  0  0  0  0  0  0  0  0  0  0
  160.8400  207.2300  151.8200 N   0  0  0  0  0  2  0  0  0  0  0  0
  161.7160  206.1560  151.3730 C   0  0  0  0  0  2  0  0  0  0  0  0
  161.6600  203.7630  151.2580 O   0  0  0  0  0  1  0  0  0  0  0  0
  160.8950  204.9200  151.0390 C   0  0  2  0  0  3  0  0  0  0  0  0
  161.9590  207.3120  147.6010 F   0  0  0  0  0  0  0  0  0  0  0  0
  160.4280  204.9840  149.5850 C   0  0  2  0  0  3  0  0  0  0  0  0
  161.9650  204.9430  147.7880 C   0  0  2  0  0  3  0  0  0  0  0  0
  161.2310  204.0270  148.7240 C   0  0  0  0  0  2  0  0  0  0  0  0
  160.5370  206.3050  149.0810 O   0  0  0  0  0  0  0  0  0  0  0  0
  161.1340  206.2180  147.8100 C   0  0  0  0  0  0  0  0  0  0  0  0
  160.1300  206.2140  146.8520 F   0  0  0  0  0  0  0  0  0  0  0  0
  163.2500  204.7060  145.6280 O   0  0  0  0  0  0  0  0  0  0  0  0
  162.1880  204.3190  146.4410 C   0  0  0  0  0  0  0  0  0  0  0  0
  161.3560  203.4850  146.0070 O   0  0  0  0  0  1  0  0  0  0  0  0
  1  7  2  0  0  0  0
  2  3  2  0  0  0  0
  2  1  1  0  0  0  0
  3  9  1  0  0  0  0
  5  1  1  0  0  0  0
  6  5  2  0  0  0  0
  7  4  1  0  0  0  0
  8  2  1  0  0  0  0
  9  4  2  0  0  0  0
 10  8  2  0  0  0  0
 10  6  1  0  0  0  0
 11 10  1  0  0  0  0
 12 11  1  0  0  0  0
 13 12  1  0  0  0  0
 14 16  1  0  0  0  0
 15 14  1  0  0  0  0
 16 13  1  0  0  0  0
 17 14  2  0  0  0  0
 18  8  1  0  0  0  0
 19 18  1  0  0  0  0
 21 20  1  6  0  0  0
 21 19  1  0  0  0  0
 22 27  1  0  0  0  0
 23 21  1  1  0  0  0
 24 30  1  6  0  0  0
 24 27  1  0  0  0  0
 24 25  1  0  0  0  0
 25 23  1  0  0  0  0
 26 23  1  0  0  0  0
 27 26  1  0  0  0  0
 28 27  1  0  0  0  0
 29 30  2  0  0  0  0
 31 30  1  0  0  0  0
M  END
>  <MODEL>
5

>  <REMARK>
 VINA RESULT:      -7.5      3.239      6.907
  Name = 
  9 active torsions:
  status: ('A' for Active; 'I' for Inactive)
    1  A    between atoms: C_4  and  N_10
    2  A    between atoms: C_4  and  C_29
    3  A    between atoms: O_8  and  C_12
    4  A    between atoms: O_8  and  C_28
    5  A    between atoms: N_10  and  C_18
    6  A    between atoms: C_11  and  C_29
    7  A    between atoms: C_12  and  N_27
    8  A    between atoms: C_15  and  C_20
    9  A    between atoms: N_23  and  N_27
                            x       y       z     vdW  Elec       q    Type
                         _______ _______ _______ _____ _____    ______ ____

>  <TORSDO>
F 9

$$$$
=
 OpenBabel11042420293D

 31 33  0  0  1  0  0  0  0  0999 V2000
  161.3560  204.2750  148.1750 C   0  0  0  0  0  0  0  0  0  0  0  0
  161.4830  205.6680  148.3900 C   0  0  0  0  0  0  0  0  0  0  0  0
  161.8820  206.4670  147.3080 C   0  0  0  0  0  3  0  0  0  0  0  0
  161.9900  204.5500  145.8880 N   0  0  0  0  0  0  0  0  0  0  0  0
  160.9680  203.4350  149.2130 C   0  0  0  0  0  3  0  0  0  0  0  0
  160.7220  203.9590  150.4790 C   0  0  0  0  0  3  0  0  0  0  0  0
  161.6120  203.7420  146.9110 C   0  0  0  0  0  3  0  0  0  0  0  0
  161.2160  206.2020  149.6800 C   0  0  0  0  0  0  0  0  0  0  0  0
  162.1310  205.8900  146.0590 C   0  0  0  0  0  3  0  0  0  0  0  0
  160.8450  205.3300  150.7220 C   0  0  0  0  0  0  0  0  0  0  0  0
  160.6010  205.8490  151.9990 O   0  0  0  0  0  0  0  0  0  0  0  0
  161.3470  205.4580  153.1470 C   0  0  0  0  0  2  0  0  0  0  0  0
  161.5920  206.6160  153.9910 N   0  0  0  0  0  2  0  0  0  0  0  0
  160.8140  207.3230  156.2110 C   0  0  0  0  0  0  0  0  0  0  0  0
  161.9030  207.9110  156.4280 O   0  0  0  0  0  0  0  0  0  0  0  0
  160.6080  206.6160  154.9910 N   0  0  0  0  0  2  0  0  0  0  0  0
  159.8140  207.3500  157.1720 O   0  0  0  0  0  1  0  0  0  0  0  0
  161.2760  207.6100  149.9850 N   0  0  0  0  0  2  0  0  0  0  0  0
  162.2210  208.2730  150.8720 C   0  0  0  0  0  2  0  0  0  0  0  0
  162.8840  210.5130  151.4120 O   0  0  0  0  0  1  0  0  0  0  0  0
  161.7700  209.7010  151.1400 C   0  0  2  0  0  3  0  0  0  0  0  0
  161.8730  211.2900  155.1580 F   0  0  0  0  0  0  0  0  0  0  0  0
  160.7920  209.7250  152.3150 C   0  0  2  0  0  3  0  0  0  0  0  0
  160.2750  211.7310  153.4560 C   0  0  2  0  0  3  0  0  0  0  0  0
  159.8930  210.9440  152.2360 C   0  0  0  0  0  2  0  0  0  0  0  0
  161.4910  209.7110  153.5490 O   0  0  0  0  0  0  0  0  0  0  0  0
  160.9020  210.6900  154.3710 C   0  0  0  0  0  0  0  0  0  0  0  0
  159.9680  210.0720  155.1910 F   0  0  0  0  0  0  0  0  0  0  0  0
  157.8200  212.3110  153.5560 O   0  0  0  0  0  0  0  0  0  0  0  0
  159.1180  212.5030  154.0210 C   0  0  0  0  0  0  0  0  0  0  0  0
  159.3370  213.3940  154.8770 O   0  0  0  0  0  1  0  0  0  0  0  0
  1  2  2  0  0  0  0
  1  5  1  0  0  0  0
  2  8  1  0  0  0  0
  3  2  1  0  0  0  0
  4  9  1  0  0  0  0
  4  7  2  0  0  0  0
  5  6  2  0  0  0  0
  6 10  1  0  0  0  0
  7  1  1  0  0  0  0
  8 18  1  0  0  0  0
  8 10  2  0  0  0  0
  9  3  2  0  0  0  0
 10 11  1  0  0  0  0
 11 12  1  0  0  0  0
 12 13  1  0  0  0  0
 13 16  1  0  0  0  0
 14 15  2  0  0  0  0
 14 17  1  0  0  0  0
 16 14  1  0  0  0  0
 18 19  1  0  0  0  0
 19 21  1  0  0  0  0
 21 20  1  1  0  0  0
 23 21  1  6  0  0  0
 23 26  1  0  0  0  0
 24 30  1  1  0  0  0
 24 27  1  0  0  0  0
 25 23  1  0  0  0  0
 25 24  1  0  0  0  0
 26 27  1  0  0  0  0
 27 22  1  0  0  0  0
 27 28  1  0  0  0  0
 29 30  2  0  0  0  0
 30 31  1  0  0  0  0
M  END
>  <MODEL>
6

>  <REMARK>
 VINA RESULT:      -7.4      2.227      4.591
  Name = 
  9 active torsions:
  status: ('A' for Active; 'I' for Inactive)
    1  A    between atoms: C_4  and  N_10
    2  A    between atoms: C_4  and  C_29
    3  A    between atoms: O_8  and  C_12
    4  A    between atoms: O_8  and  C_28
    5  A    between atoms: N_10  and  C_18
    6  A    between atoms: C_11  and  C_29
    7  A    between atoms: C_12  and  N_27
    8  A    between atoms: C_15  and  C_20
    9  A    between atoms: N_23  and  N_27
                            x       y       z     vdW  Elec       q    Type
                         _______ _______ _______ _____ _____    ______ ____

>  <TORSDO>
F 9

$$$$
=
 OpenBabel11042420293D

 31 33  0  0  1  0  0  0  0  0999 V2000
  160.9300  204.4660  149.6690 C   0  0  0  0  0  0  0  0  0  0  0  0
  161.1380  204.8700  151.0100 C   0  0  0  0  0  0  0  0  0  0  0  0
  161.2240  203.8700  151.9910 C   0  0  0  0  0  3  0  0  0  0  0  0
  160.9280  202.1730  150.3380 N   0  0  0  0  0  0  0  0  0  0  0  0
  160.8320  205.4140  148.6570 C   0  0  0  0  0  3  0  0  0  0  0  0
  160.9170  206.7700  148.9600 C   0  0  0  0  0  3  0  0  0  0  0  0
  160.8320  203.1100  149.3590 C   0  0  0  0  0  3  0  0  0  0  0  0
  161.2400  206.2540  151.3140 C   0  0  0  0  0  0  0  0  0  0  0  0
  161.1180  202.5220  151.6360 C   0  0  0  0  0  3  0  0  0  0  0  0
  161.1170  207.1980  150.2760 C   0  0  0  0  0  0  0  0  0  0  0  0
  161.1970  208.5630  150.5740 O   0  0  0  0  0  0  0  0  0  0  0  0
  162.3260  209.3620  150.2350 C   0  0  0  0  0  2  0  0  0  0  0  0
  162.1260  209.9650  148.9270 N   0  0  0  0  0  2  0  0  0  0  0  0
  161.6070  212.2690  148.2540 C   0  0  0  0  0  0  0  0  0  0  0  0
  160.8340  211.8540  147.3550 O   0  0  0  0  0  0  0  0  0  0  0  0
  162.3210  211.3460  149.0720 N   0  0  0  0  0  2  0  0  0  0  0  0
  161.7790  213.6330  148.4410 O   0  0  0  0  0  1  0  0  0  0  0  0
  161.4950  206.7590  152.6410 N   0  0  0  0  0  2  0  0  0  0  0  0
  160.5030  207.1340  153.6380 C   0  0  0  0  0  2  0  0  0  0  0  0
  160.5580  207.0950  156.0350 O   0  0  0  0  0  1  0  0  0  0  0  0
  161.1950  207.6260  154.9010 C   0  0  2  0  0  3  0  0  0  0  0  0
  158.9960  210.7020  152.8090 F   0  0  0  0  0  0  0  0  0  0  0  0
  161.1750  209.1530  154.9430 C   0  0  2  0  0  3  0  0  0  0  0  0
  159.1510  210.3600  155.1550 C   0  0  2  0  0  3  0  0  0  0  0  0
  160.1820  209.6460  155.9800 C   0  0  0  0  0  2  0  0  0  0  0  0
  160.8550  209.6860  153.6690 O   0  0  0  0  0  0  0  0  0  0  0  0
  159.8910  210.6910  153.8680 C   0  0  0  0  0  0  0  0  0  0  0  0
  160.5390  211.9170  153.9290 F   0  0  0  0  0  0  0  0  0  0  0  0
  157.4850  212.2470  155.3440 O   0  0  0  0  0  0  0  0  0  0  0  0
  158.5390  211.5180  155.8880 C   0  0  0  0  0  0  0  0  0  0  0  0
  159.0390  211.8850  156.9790 O   0  0  0  0  0  1  0  0  0  0  0  0
  1  2  1  0  0  0  0
  2  8  1  0  0  0  0
  2  3  2  0  0  0  0
  4  9  2  0  0  0  0
  5  6  2  0  0  0  0
  5  1  1  0  0  0  0
  6 10  1  0  0  0  0
  7  1  2  0  0  0  0
  7  4  1  0  0  0  0
  8 18  1  0  0  0  0
  9  3  1  0  0  0  0
 10 11  1  0  0  0  0
 10  8  2  0  0  0  0
 12 11  1  0  0  0  0
 13 16  1  0  0  0  0
 13 12  1  0  0  0  0
 14 17  1  0  0  0  0
 14 16  1  0  0  0  0
 15 14  2  0  0  0  0
 18 19  1  0  0  0  0
 19 21  1  0  0  0  0
 21 20  1  1  0  0  0
 22 27  1  0  0  0  0
 23 21  1  6  0  0  0
 23 25  1  0  0  0  0
 24 30  1  1  0  0  0
 24 25  1  0  0  0  0
 26 27  1  0  0  0  0
 26 23  1  0  0  0  0
 27 28  1  0  0  0  0
 27 24  1  0  0  0  0
 29 30  2  0  0  0  0
 30 31  1  0  0  0  0
M  END
>  <MODEL>
7

>  <REMARK>
 VINA RESULT:      -7.4      1.830      2.488
  Name = 
  9 active torsions:
  status: ('A' for Active; 'I' for Inactive)
    1  A    between atoms: C_4  and  N_10
    2  A    between atoms: C_4  and  C_29
    3  A    between atoms: O_8  and  C_12
    4  A    between atoms: O_8  and  C_28
    5  A    between atoms: N_10  and  C_18
    6  A    between atoms: C_11  and  C_29
    7  A    between atoms: C_12  and  N_27
    8  A    between atoms: C_15  and  C_20
    9  A    between atoms: N_23  and  N_27
                            x       y       z     vdW  Elec       q    Type
                         _______ _______ _______ _____ _____    ______ ____

>  <TORSDO>
F 9

$$$$
=
 OpenBabel11042420293D

 31 33  0  0  1  0  0  0  0  0999 V2000
  161.1440  209.2680  155.0000 C   0  0  0  0  0  0  0  0  0  0  0  0
  160.8750  208.1100  154.2320 C   0  0  0  0  0  0  0  0  0  0  0  0
  160.4360  206.9610  154.9070 C   0  0  0  0  0  3  0  0  0  0  0  0
  160.5230  208.1130  156.9970 N   0  0  0  0  0  0  0  0  0  0  0  0
  161.5860  210.4330  154.3840 C   0  0  0  0  0  3  0  0  0  0  0  0
  161.7870  210.4610  153.0070 C   0  0  0  0  0  3  0  0  0  0  0  0
  160.9560  209.2440  156.3820 C   0  0  0  0  0  3  0  0  0  0  0  0
  161.0670  208.1470  152.8240 C   0  0  0  0  0  0  0  0  0  0  0  0
  160.2630  206.9810  156.2940 C   0  0  0  0  0  3  0  0  0  0  0  0
  161.5350  209.3310  152.2240 C   0  0  0  0  0  0  0  0  0  0  0  0
  161.7440  209.3650  150.8410 O   0  0  0  0  0  0  0  0  0  0  0  0
  162.2430  210.5140  150.1630 C   0  0  0  0  0  2  0  0  0  0  0  0
  161.9520  210.4120  148.7420 N   0  0  0  0  0  2  0  0  0  0  0  0
  161.5650  212.4050  147.3610 C   0  0  0  0  0  0  0  0  0  0  0  0
  160.3710  212.0650  147.1690 O   0  0  0  0  0  1  0  0  0  0  0  0
  162.4330  211.5810  148.1350 N   0  0  0  0  0  2  0  0  0  0  0  0
  162.0450  213.5820  146.8040 O   0  0  0  0  0  0  0  0  0  0  0  0
  160.7790  207.0330  151.9540 N   0  0  0  0  0  2  0  0  0  0  0  0
  161.6610  205.9180  151.6400 C   0  0  0  0  0  2  0  0  0  0  0  0
  160.8370  204.1310  153.0090 O   0  0  0  0  0  1  0  0  0  0  0  0
  160.8850  204.6100  151.6900 C   0  0  2  0  0  3  0  0  0  0  0  0
  159.4930  201.1670  149.4790 F   0  0  0  0  0  0  0  0  0  0  0  0
  161.5440  203.5810  150.7720 C   0  0  2  0  0  3  0  0  0  0  0  0
  160.6490  203.0680  148.6430 C   0  0  2  0  0  3  0  0  0  0  0  0
  161.5330  204.0650  149.3330 C   0  0  0  0  0  2  0  0  0  0  0  0
  160.8880  202.3280  150.8700 O   0  0  0  0  0  0  0  0  0  0  0  0
  160.6950  201.8540  149.5600 C   0  0  0  0  0  0  0  0  0  0  0  0
  161.7360  200.9910  149.2460 F   0  0  0  0  0  0  0  0  0  0  0  0
  160.6950  201.6790  146.5350 O   0  0  0  0  0  0  0  0  0  0  0  0
  161.0550  202.8390  147.2160 C   0  0  0  0  0  0  0  0  0  0  0  0
  161.7990  203.6770  146.6500 O   0  0  0  0  0  1  0  0  0  0  0  0
  1  7  2  0  0  0  0
  2  3  2  0  0  0  0
  2  1  1  0  0  0  0
  3  9  1  0  0  0  0
  5  1  1  0  0  0  0
  6  5  2  0  0  0  0
  7  4  1  0  0  0  0
  8  2  1  0  0  0  0
  9  4  2  0  0  0  0
 10  8  2  0  0  0  0
 10  6  1  0  0  0  0
 11 10  1  0  0  0  0
 12 11  1  0  0  0  0
 13 12  1  0  0  0  0
 14 16  1  0  0  0  0
 15 14  1  0  0  0  0
 16 13  1  0  0  0  0
 17 14  2  0  0  0  0
 18  8  1  0  0  0  0
 19 21  1  0  0  0  0
 19 18  1  0  0  0  0
 21 20  1  1  0  0  0
 22 27  1  0  0  0  0
 23 26  1  0  0  0  0
 23 21  1  1  0  0  0
 24 30  1  6  0  0  0
 24 25  1  0  0  0  0
 24 27  1  0  0  0  0
 25 23  1  0  0  0  0
 27 26  1  0  0  0  0
 28 27  1  0  0  0  0
 29 30  2  0  0  0  0
 31 30  1  0  0  0  0
M  END
>  <MODEL>
8

>  <REMARK>
 VINA RESULT:      -7.4      3.466      7.121
  Name = 
  9 active torsions:
  status: ('A' for Active; 'I' for Inactive)
    1  A    between atoms: C_4  and  N_10
    2  A    between atoms: C_4  and  C_29
    3  A    between atoms: O_8  and  C_12
    4  A    between atoms: O_8  and  C_28
    5  A    between atoms: N_10  and  C_18
    6  A    between atoms: C_11  and  C_29
    7  A    between atoms: C_12  and  N_27
    8  A    between atoms: C_15  and  C_20
    9  A    between atoms: N_23  and  N_27
                            x       y       z     vdW  Elec       q    Type
                         _______ _______ _______ _____ _____    ______ ____

>  <TORSDO>
F 9

$$$$
=
 OpenBabel11042420293D

 31 33  0  0  1  0  0  0  0  0999 V2000
  160.6050  209.5020  154.2370 C   0  0  0  0  0  0  0  0  0  0  0  0
  160.9950  208.3980  153.4410 C   0  0  0  0  0  0  0  0  0  0  0  0
  160.9070  207.1170  154.0070 C   0  0  0  0  0  3  0  0  0  0  0  0
  160.0620  208.0350  156.0430 N   0  0  0  0  0  0  0  0  0  0  0  0
  160.6770  210.7950  153.7290 C   0  0  0  0  0  3  0  0  0  0  0  0
  161.1520  211.0120  152.4390 C   0  0  0  0  0  3  0  0  0  0  0  0
  160.1380  209.2920  155.5350 C   0  0  0  0  0  3  0  0  0  0  0  0
  161.4650  208.6230  152.1190 C   0  0  0  0  0  0  0  0  0  0  0  0
  160.4350  206.9530  155.3130 C   0  0  0  0  0  3  0  0  0  0  0  0
  161.5490  209.9420  151.6330 C   0  0  0  0  0  0  0  0  0  0  0  0
  162.0310  210.1680  150.3390 O   0  0  0  0  0  0  0  0  0  0  0  0
  161.9600  211.4390  149.7000 C   0  0  0  0  0  2  0  0  0  0  0  0
  162.0350  211.2690  148.2580 N   0  0  0  0  0  2  0  0  0  0  0  0
  161.0190  212.9970  146.8390 C   0  0  0  0  0  0  0  0  0  0  0  0
  160.0730  212.2260  146.5430 O   0  0  0  0  0  1  0  0  0  0  0  0
  162.0710  212.5510  147.6910 N   0  0  0  0  0  2  0  0  0  0  0  0
  161.0480  214.2840  146.3210 O   0  0  0  0  0  0  0  0  0  0  0  0
  161.8430  207.5600  151.2200 N   0  0  0  0  0  2  0  0  0  0  0  0
  161.0190  206.9600  150.1810 C   0  0  0  0  0  2  0  0  0  0  0  0
  162.3480  207.7560  148.3520 O   0  0  0  0  0  1  0  0  0  0  0  0
  161.8790  206.5910  148.9820 C   0  0  2  0  0  3  0  0  0  0  0  0
  162.8550  203.9830  145.6770 F   0  0  0  0  0  0  0  0  0  0  0  0
  161.0680  205.7440  148.0020 C   0  0  2  0  0  3  0  0  0  0  0  0
  161.5800  203.4670  147.6150 C   0  0  2  0  0  3  0  0  0  0  0  0
  160.8320  204.3540  148.5660 C   0  0  0  0  0  2  0  0  0  0  0  0
  161.7260  205.6570  146.7490 O   0  0  0  0  0  0  0  0  0  0  0  0
  161.6880  204.3080  146.3510 C   0  0  0  0  0  0  0  0  0  0  0  0
  160.6050  204.1300  145.5010 F   0  0  0  0  0  0  0  0  0  0  0  0
  160.5100  201.3900  148.5710 O   0  0  0  0  0  1  0  0  0  0  0  0
  160.9340  202.1210  147.4640 C   0  0  0  0  0  0  0  0  0  0  0  0
  160.8430  201.6100  146.3210 O   0  0  0  0  0  0  0  0  0  0  0  0
  1  7  2  0  0  0  0
  2  3  2  0  0  0  0
  2  1  1  0  0  0  0
  3  9  1  0  0  0  0
  5  1  1  0  0  0  0
  6  5  2  0  0  0  0
  7  4  1  0  0  0  0
  8  2  1  0  0  0  0
  9  4  2  0  0  0  0
 10  8  2  0  0  0  0
 10  6  1  0  0  0  0
 11 10  1  0  0  0  0
 12 11  1  0  0  0  0
 13 12  1  0  0  0  0
 14 16  1  0  0  0  0
 15 14  1  0  0  0  0
 16 13  1  0  0  0  0
 17 14  2  0  0  0  0
 18  8  1  0  0  0  0
 19 18  1  0  0  0  0
 21 20  1  6  0  0  0
 21 19  1  0  0  0  0
 22 27  1  0  0  0  0
 23 25  1  0  0  0  0
 23 21  1  1  0  0  0
 24 30  1  6  0  0  0
 24 25  1  0  0  0  0
 26 23  1  0  0  0  0
 27 26  1  0  0  0  0
 27 24  1  0  0  0  0
 28 27  1  0  0  0  0
 30 29  1  0  0  0  0
 31 30  2  0  0  0  0
M  END
>  <MODEL>
9

>  <REMARK>
 VINA RESULT:      -7.4      3.936      7.504
  Name = 
  9 active torsions:
  status: ('A' for Active; 'I' for Inactive)
    1  A    between atoms: C_4  and  N_10
    2  A    between atoms: C_4  and  C_29
    3  A    between atoms: O_8  and  C_12
    4  A    between atoms: O_8  and  C_28
    5  A    between atoms: N_10  and  C_18
    6  A    between atoms: C_11  and  C_29
    7  A    between atoms: C_12  and  N_27
    8  A    between atoms: C_15  and  C_20
    9  A    between atoms: N_23  and  N_27
                            x       y       z     vdW  Elec       q    Type
                         _______ _______ _______ _____ _____    ______ ____

>  <TORSDO>
F 9

$$$$
