=
 OpenBabel11052409393D

 38 41  0  0  1  0  0  0  0  0999 V2000
  160.4140  211.6520  152.2480 C   0  0  0  0  0  0  0  0  0  0  0  0
  161.2660  213.4610  148.1180 C   0  0  0  0  0  0  0  0  0  0  0  0
  160.1190  212.9260  151.6500 N   0  0  0  0  0  0  0  0  0  0  0  0
  161.9010  211.2580  148.9670 C   0  0  0  0  0  3  0  0  0  0  0  0
  161.1790  210.8040  151.3620 N   0  0  0  0  0  0  0  0  0  0  0  0
  160.1500  212.5910  156.4360 S   0  0  0  0  0  0  0  0  0  0  0  0
  158.8080  212.1510  154.0170 C   0  0  0  0  0  0  0  0  0  0  0  0
  157.5470  213.3450  155.4570 C   0  0  0  0  0  0  0  0  0  0  0  0
  161.3080  211.6010  150.1860 C   0  0  0  0  0  0  0  0  0  0  0  0
  161.8530  210.1510  155.5940 C   0  0  0  0  0  2  0  0  0  0  0  0
  161.0610  210.0420  156.8970 C   0  0  0  0  0  2  0  0  0  0  0  0
  161.2190  209.3580  154.4580 C   0  0  0  0  0  2  0  0  0  0  0  0
  157.5270  212.4860  153.3190 C   0  0  0  0  0  3  0  0  0  0  0  0
  156.8100  213.2900  154.3600 C   0  0  0  0  0  3  0  0  0  0  0  0
  160.7030  212.8190  150.3630 C   0  0  0  0  0  0  0  0  0  0  0  0
  157.0940  214.2220  156.9120 Cl  0  0  0  0  0  0  0  0  0  0  0  0
  160.6570  213.7730  149.3480 C   0  0  0  0  0  3  0  0  0  0  0  0
  158.8020  212.6520  155.2490 C   0  0  2  0  0  3  0  0  0  0  0  0
  159.9810  209.9710  153.9850 N   0  0  0  0  0  2  0  0  0  0  0  0
  159.7820  210.8680  156.8750 C   0  0  0  0  0  2  0  0  0  0  0  0
  159.8560  211.2910  153.4290 C   0  0  1  0  0  3  0  0  0  0  0  0
  161.8800  212.2040  147.9340 C   0  0  0  0  0  3  0  0  0  0  0  0
  162.2610  208.6900  150.8370 C   0  0  1  0  0  3  0  0  0  0  0  0
  161.9570  209.6530  151.7200 C   0  0  0  0  0  2  0  0  0  0  0  0
  161.5050  208.2490  151.3750 C   0  0  0  0  0  1  0  0  0  0  0  0
  162.3030  207.7160  150.1140 C   0  0  0  0  0  2  0  0  0  0  0  0
  161.4320  207.7200  148.8720 C   0  0  0  0  0  2  0  0  0  0  0  0
  162.1070  207.0180  147.7900 N   0  0  0  0  0  2  0  0  0  0  0  0
  161.3170  204.7940  148.5690 N   0  0  0  0  0  2  0  0  0  0  0  0
  161.9180  205.6220  147.5610 C   0  0  0  0  0  0  0  0  0  0  0  0
  162.3220  205.1180  146.4790 O   0  0  0  0  0  0  0  0  0  0  0  0
  161.1060  203.3590  148.4030 C   0  0  0  0  0  2  0  0  0  0  0  0
  160.5750  202.7350  149.6870 C   0  0  2  0  0  3  0  0  0  0  0  0
  161.2210  203.6400  151.0840 Cl  0  0  0  0  0  0  0  0  0  0  0  0
  160.9930  201.2720  149.7810 C   0  0  0  0  0  2  0  0  0  0  0  0
  161.3480  200.7450  148.4040 C   0  0  0  0  0  1  0  0  0  0  0  0
  161.2660  214.4010  147.0390 N   0  0  0  0  0  2  0  0  0  0  0  0
  161.8770  214.1250  145.7470 C   0  0  0  0  0  1  0  0  0  0  0  0
  2 17  1  0  0  0  0
  3  1  2  0  0  0  0
  4  9  2  0  0  0  0
  5 24  1  0  0  0  0
  5  1  1  0  0  0  0
  6 20  1  0  0  0  0
  8 16  1  0  0  0  0
  9 15  1  0  0  0  0
  9  5  1  0  0  0  0
 10 11  1  0  0  0  0
 12 10  1  0  0  0  0
 13  7  2  0  0  0  0
 13 14  1  0  0  0  0
 14  8  2  0  0  0  0
 15  3  1  0  0  0  0
 17 15  2  0  0  0  0
 18  7  1  6  0  0  0
 18  8  1  0  0  0  0
 18  6  1  0  0  0  0
 19 12  1  0  0  0  0
 20 11  1  0  0  0  0
 21  1  1  6  0  0  0
 21 19  1  0  0  0  0
 21  7  1  0  0  0  0
 22  2  2  0  0  0  0
 22  4  1  0  0  0  0
 23 25  1  1  0  0  0
 23 24  1  0  0  0  0
 26 23  1  0  0  0  0
 27 26  1  0  0  0  0
 28 27  1  0  0  0  0
 30 28  1  0  0  0  0
 30 29  1  0  0  0  0
 31 30  2  0  0  0  0
 32 29  1  0  0  0  0
 32 33  1  0  0  0  0
 33 35  1  0  0  0  0
 33 34  1  1  0  0  0
 36 35  1  0  0  0  0
 37  2  1  0  0  0  0
 38 37  1  0  0  0  0
M  END
>  <MODEL>
1

>  <REMARK>
 VINA RESULT:      -7.8      0.000      0.000
  Name = 
  9 active torsions:
  status: ('A' for Active; 'I' for Inactive)
    1  A    between atoms: C_2  and  N_17
    2  A    between atoms: C_6  and  C_15
    3  A    between atoms: C_7  and  N_8
    4  A    between atoms: C_7  and  C_23
    5  A    between atoms: C_15  and  C_25
    6  A    between atoms: N_19  and  C_38
    7  A    between atoms: C_23  and  C_29
    8  A    between atoms: C_25  and  N_28
    9  A    between atoms: C_29  and  C_38
                            x       y       z     vdW  Elec       q    Type
                         _______ _______ _______ _____ _____    ______ ____

>  <TORSDO>
F 9

$$$$
=
 OpenBabel11052409393D

 38 41  0  0  1  0  0  0  0  0999 V2000
  160.4430  211.3120  152.4730 C   0  0  0  0  0  0  0  0  0  0  0  0
  161.3960  213.0560  148.3370 C   0  0  0  0  0  0  0  0  0  0  0  0
  160.2520  212.6090  151.8820 N   0  0  0  0  0  0  0  0  0  0  0  0
  161.8480  210.8030  149.1720 C   0  0  0  0  0  3  0  0  0  0  0  0
  161.1200  210.4040  151.5740 N   0  0  0  0  0  0  0  0  0  0  0  0
  160.3130  212.2550  156.6660 S   0  0  0  0  0  0  0  0  0  0  0  0
  158.9080  211.9420  154.2630 C   0  0  0  0  0  0  0  0  0  0  0  0
  157.7740  213.2360  155.7230 C   0  0  0  0  0  0  0  0  0  0  0  0
  161.3030  211.1920  150.3990 C   0  0  0  0  0  0  0  0  0  0  0  0
  161.7870  209.6790  155.7960 C   0  0  0  0  0  2  0  0  0  0  0  0
  161.0050  209.6340  157.1080 C   0  0  0  0  0  2  0  0  0  0  0  0
  161.0730  208.9490  154.6660 C   0  0  0  0  0  2  0  0  0  0  0  0
  157.6520  212.3890  153.5830 C   0  0  0  0  0  3  0  0  0  0  0  0
  157.0220  213.2490  154.6350 C   0  0  0  0  0  3  0  0  0  0  0  0
  160.8080  212.4560  150.5870 C   0  0  0  0  0  0  0  0  0  0  0  0
  157.4170  214.1430  157.1850 Cl  0  0  0  0  0  0  0  0  0  0  0  0
  160.8330  213.4150  149.5760 C   0  0  0  0  0  3  0  0  0  0  0  0
  158.9610  212.4370  155.4970 C   0  0  2  0  0  3  0  0  0  0  0  0
  159.8870  209.6690  154.2110 N   0  0  0  0  0  2  0  0  0  0  0  0
  159.8030  210.5680  157.1060 C   0  0  0  0  0  2  0  0  0  0  0  0
  159.8700  210.9970  153.6600 C   0  0  1  0  0  3  0  0  0  0  0  0
  161.8970  211.7510  148.1410 C   0  0  0  0  0  3  0  0  0  0  0  0
  162.4000  208.4170  151.0010 C   0  0  0  0  0  2  0  0  0  0  0  0
  161.7990  209.1880  151.9200 C   0  0  0  0  0  2  0  0  0  0  0  0
  161.5360  207.8930  151.1810 C   0  0  0  0  0  2  0  0  0  0  0  0
  161.1640  206.7460  152.2100 C   0  0  0  0  0  2  0  0  0  0  0  0
  161.9530  205.4810  151.9300 C   0  0  0  0  0  2  0  0  0  0  0  0
  161.0460  204.4010  151.5690 N   0  0  0  0  0  2  0  0  0  0  0  0
  161.5500  204.6160  149.1440 N   0  0  0  0  0  2  0  0  0  0  0  0
  160.9740  203.8860  150.2400 C   0  0  0  0  0  0  0  0  0  0  0  0
  160.3650  202.8020  150.0340 O   0  0  0  0  0  0  0  0  0  0  0  0
  161.5010  204.1510  147.7610 C   0  0  0  0  0  2  0  0  0  0  0  0
  162.2310  205.1170  146.8360 C   0  0  2  0  0  3  0  0  0  0  0  0
  162.2830  206.7280  147.6030 Cl  0  0  0  0  0  0  0  0  0  0  0  0
  161.5200  205.2060  145.4910 C   0  0  0  0  0  2  0  0  0  0  0  0
  160.3850  206.2080  145.5700 C   0  0  0  0  0  1  0  0  0  0  0  0
  161.4650  213.9960  147.2600 N   0  0  0  0  0  2  0  0  0  0  0  0
  162.1570  213.7210  146.0100 C   0  0  0  0  0  1  0  0  0  0  0  0
  2 17  1  0  0  0  0
  3  1  2  0  0  0  0
  4  9  2  0  0  0  0
  5 24  1  0  0  0  0
  5  1  1  0  0  0  0
  6 20  1  0  0  0  0
  8 16  1  0  0  0  0
  9 15  1  0  0  0  0
  9  5  1  0  0  0  0
 10 11  1  0  0  0  0
 12 10  1  0  0  0  0
 13  7  2  0  0  0  0
 13 14  1  0  0  0  0
 14  8  2  0  0  0  0
 15  3  1  0  0  0  0
 17 15  2  0  0  0  0
 18  7  1  6  0  0  0
 18  8  1  0  0  0  0
 18  6  1  0  0  0  0
 19 12  1  0  0  0  0
 20 11  1  0  0  0  0
 21  1  1  6  0  0  0
 21 19  1  0  0  0  0
 21  7  1  0  0  0  0
 22  2  2  0  0  0  0
 22  4  1  0  0  0  0
 23 25  1  0  0  0  0
 23 24  1  0  0  0  0
 25 26  1  0  0  0  0
 27 26  1  0  0  0  0
 28 27  1  0  0  0  0
 29 30  1  0  0  0  0
 30 28  1  0  0  0  0
 31 30  2  0  0  0  0
 32 29  1  0  0  0  0
 33 34  1  1  0  0  0
 33 32  1  0  0  0  0
 35 36  1  0  0  0  0
 35 33  1  0  0  0  0
 37  2  1  0  0  0  0
 38 37  1  0  0  0  0
M  END
>  <MODEL>
2

>  <REMARK>
 VINA RESULT:      -7.3      1.519      2.268
  Name = 
  9 active torsions:
  status: ('A' for Active; 'I' for Inactive)
    1  A    between atoms: C_2  and  N_17
    2  A    between atoms: C_6  and  C_15
    3  A    between atoms: C_7  and  N_8
    4  A    between atoms: C_7  and  C_23
    5  A    between atoms: C_15  and  C_25
    6  A    between atoms: N_19  and  C_38
    7  A    between atoms: C_23  and  C_29
    8  A    between atoms: C_25  and  N_28
    9  A    between atoms: C_29  and  C_38
                            x       y       z     vdW  Elec       q    Type
                         _______ _______ _______ _____ _____    ______ ____

>  <TORSDO>
F 9

$$$$
=
 OpenBabel11052409393D

 38 41  0  0  1  0  0  0  0  0999 V2000
  161.1230  205.9290  150.1180 C   0  0  0  0  0  0  0  0  0  0  0  0
  161.4020  207.2100  154.5160 C   0  0  0  0  0  0  0  0  0  0  0  0
  161.3920  205.2160  151.3380 N   0  0  0  0  0  0  0  0  0  0  0  0
  160.9730  208.6070  152.5550 C   0  0  0  0  0  3  0  0  0  0  0  0
  160.9590  207.3470  150.3470 N   0  0  0  0  0  0  0  0  0  0  0  0
  162.8120  203.2750  147.1860 S   0  0  0  0  0  0  0  0  0  0  0  0
  160.7390  203.7940  148.9970 C   0  0  0  0  0  0  0  0  0  0  0  0
  160.8920  201.5940  148.5230 C   0  0  0  0  0  0  0  0  0  0  0  0
  161.1050  207.4630  151.7620 C   0  0  0  0  0  0  0  0  0  0  0  0
  162.5200  206.2650  146.4500 C   0  0  0  0  0  2  0  0  0  0  0  0
  162.2800  205.2390  145.3430 C   0  0  0  0  0  2  0  0  0  0  0  0
  161.2250  206.8730  146.9740 C   0  0  0  0  0  2  0  0  0  0  0  0
  159.7030  203.0880  149.8140 C   0  0  0  0  0  2  0  0  0  0  0  0
  159.9320  201.6580  149.4310 C   0  0  0  0  0  3  0  0  0  0  0  0
  161.3590  206.2370  152.3200 C   0  0  0  0  0  0  0  0  0  0  0  0
  161.4990  200.0980  147.8270 Cl  0  0  0  0  0  0  0  0  0  0  0  0
  161.5080  206.0710  153.6960 C   0  0  0  0  0  3  0  0  0  0  0  0
  161.4140  202.9180  148.2570 C   0  0  0  0  0  0  0  0  0  0  0  0
  160.4480  205.9180  147.7570 N   0  0  0  0  0  2  0  0  0  0  0  0
  161.7360  203.9200  145.8740 C   0  0  0  0  0  2  0  0  0  0  0  0
  160.8860  205.2640  148.9610 C   0  0  1  0  0  3  0  0  0  0  0  0
  161.1310  208.4700  153.9400 C   0  0  0  0  0  3  0  0  0  0  0  0
  162.2260  208.9250  148.9980 C   0  0  0  0  0  2  0  0  0  0  0  0
  161.0510  208.3980  149.3750 C   0  0  0  0  0  2  0  0  0  0  0  0
  161.8670  209.6490  149.6320 C   0  0  0  0  0  2  0  0  0  0  0  0
  161.9340  210.5330  148.3190 C   0  0  0  0  0  2  0  0  0  0  0  0
  162.1010  212.0030  148.6550 C   0  0  0  0  0  2  0  0  0  0  0  0
  160.9080  212.7400  148.2640 N   0  0  0  0  0  2  0  0  0  0  0  0
  161.7360  213.1000  145.9480 N   0  0  0  0  0  2  0  0  0  0  0  0
  160.6710  213.1320  146.9120 C   0  0  0  0  0  0  0  0  0  0  0  0
  159.5260  213.5420  146.5840 O   0  0  0  0  0  0  0  0  0  0  0  0
  161.5630  213.4980  144.5540 C   0  0  0  0  0  2  0  0  0  0  0  0
  162.7140  212.9880  143.6960 C   0  0  2  0  0  3  0  0  0  0  0  0
  163.8490  214.3320  143.3880 Cl  0  0  0  0  0  0  0  0  0  0  0  0
  162.1900  212.4400  142.3730 C   0  0  0  0  0  2  0  0  0  0  0  0
  160.7650  211.9520  142.5430 C   0  0  0  0  0  1  0  0  0  0  0  0
  161.5570  207.1120  155.9350 N   0  0  0  0  0  2  0  0  0  0  0  0
  161.8250  208.2620  156.7850 C   0  0  0  0  0  1  0  0  0  0  0  0
  1  5  1  0  0  0  0
  1  3  2  0  0  0  0
  2 37  1  0  0  0  0
  3 15  1  0  0  0  0
  4 22  2  0  0  0  0
  5  9  1  0  0  0  0
  6 18  1  0  0  0  0
  7 13  1  0  0  0  0
  8 14  2  0  0  0  0
  9 15  2  0  0  0  0
  9  4  1  0  0  0  0
 10 12  1  0  0  0  0
 11 20  1  0  0  0  0
 11 10  1  0  0  0  0
 12 19  1  0  0  0  0
 14 13  1  0  0  0  0
 15 17  1  0  0  0  0
 16  8  1  0  0  0  0
 17  2  2  0  0  0  0
 18  8  1  0  0  0  0
 18  7  2  0  0  0  0
 19 21  1  0  0  0  0
 20  6  1  0  0  0  0
 21  7  1  0  0  0  0
 21  1  1  1  0  0  0
 22  2  1  0  0  0  0
 23 24  1  0  0  0  0
 23 25  1  0  0  0  0
 24  5  1  0  0  0  0
 26 27  1  0  0  0  0
 26 25  1  0  0  0  0
 28 27  1  0  0  0  0
 29 30  1  0  0  0  0
 30 28  1  0  0  0  0
 31 30  2  0  0  0  0
 32 29  1  0  0  0  0
 33 34  1  6  0  0  0
 33 32  1  0  0  0  0
 35 36  1  0  0  0  0
 35 33  1  0  0  0  0
 37 38  1  0  0  0  0
M  END
>  <MODEL>
3

>  <REMARK>
 VINA RESULT:      -6.8      4.547      9.713
  Name = 
  9 active torsions:
  status: ('A' for Active; 'I' for Inactive)
    1  A    between atoms: C_2  and  N_17
    2  A    between atoms: C_6  and  C_15
    3  A    between atoms: C_7  and  N_8
    4  A    between atoms: C_7  and  C_23
    5  A    between atoms: C_15  and  C_25
    6  A    between atoms: N_19  and  C_38
    7  A    between atoms: C_23  and  C_29
    8  A    between atoms: C_25  and  N_28
    9  A    between atoms: C_29  and  C_38
                            x       y       z     vdW  Elec       q    Type
                         _______ _______ _______ _____ _____    ______ ____

>  <TORSDO>
F 9

$$$$
=
 OpenBabel11052409393D

 38 41  0  0  1  0  0  0  0  0999 V2000
  161.1240  205.9290  150.0600 C   0  0  0  0  0  0  0  0  0  0  0  0
  161.4190  207.2580  154.4430 C   0  0  0  0  0  0  0  0  0  0  0  0
  161.4030  205.2300  151.2850 N   0  0  0  0  0  0  0  0  0  0  0  0
  160.9730  208.6320  152.4700 C   0  0  0  0  0  3  0  0  0  0  0  0
  160.9530  207.3480  150.2750 N   0  0  0  0  0  0  0  0  0  0  0  0
  162.8100  203.2540  147.1470 S   0  0  0  0  0  0  0  0  0  0  0  0
  160.7450  203.7810  148.9640 C   0  0  0  0  0  0  0  0  0  0  0  0
  160.9070  201.5770  148.5120 C   0  0  0  0  0  0  0  0  0  0  0  0
  161.1060  207.4800  151.6880 C   0  0  0  0  0  0  0  0  0  0  0  0
  162.4980  206.2340  146.3810 C   0  0  0  0  0  2  0  0  0  0  0  0
  162.2570  205.1960  145.2860 C   0  0  0  0  0  2  0  0  0  0  0  0
  161.2030  206.8410  146.9050 C   0  0  0  0  0  2  0  0  0  0  0  0
  159.7170  203.0780  149.7940 C   0  0  0  0  0  2  0  0  0  0  0  0
  159.9510  201.6450  149.4240 C   0  0  0  0  0  3  0  0  0  0  0  0
  161.3700  206.2620  152.2580 C   0  0  0  0  0  0  0  0  0  0  0  0
  161.5180  200.0770  147.8280 Cl  0  0  0  0  0  0  0  0  0  0  0  0
  161.5280  206.1100  153.6340 C   0  0  0  0  0  3  0  0  0  0  0  0
  161.4200  202.9010  148.2290 C   0  0  0  0  0  0  0  0  0  0  0  0
  160.4360  205.8900  147.7030 N   0  0  0  0  0  2  0  0  0  0  0  0
  161.7230  203.8800  145.8330 C   0  0  0  0  0  2  0  0  0  0  0  0
  160.8830  205.2520  148.9120 C   0  0  1  0  0  3  0  0  0  0  0  0
  161.1390  208.5100  153.8560 C   0  0  0  0  0  3  0  0  0  0  0  0
  162.2060  208.9010  148.8840 C   0  0  0  0  0  2  0  0  0  0  0  0
  161.0340  208.3900  149.2920 C   0  0  0  0  0  2  0  0  0  0  0  0
  161.8680  209.6340  149.5190 C   0  0  0  0  0  2  0  0  0  0  0  0
  161.7990  210.5750  148.2460 C   0  0  0  0  0  2  0  0  0  0  0  0
  162.2350  211.9880  148.5830 C   0  0  0  0  0  2  0  0  0  0  0  0
  161.1240  212.7230  149.1690 N   0  0  0  0  0  2  0  0  0  0  0  0
  160.3310  213.5400  146.9590 N   0  0  0  0  0  2  0  0  0  0  0  0
  160.1190  213.3420  148.3660 C   0  0  0  0  0  0  0  0  0  0  0  0
  159.0590  213.7470  148.9140 O   0  0  0  0  0  0  0  0  0  0  0  0
  159.3510  214.1750  146.0840 C   0  0  0  0  0  2  0  0  0  0  0  0
  158.6250  213.1380  145.2370 C   0  0  2  0  0  3  0  0  0  0  0  0
  157.2850  212.4420  146.1910 Cl  0  0  0  0  0  0  0  0  0  0  0  0
  159.5840  212.0330  144.8090 C   0  0  0  0  0  2  0  0  0  0  0  0
  160.1760  212.3580  143.4510 C   0  0  0  0  0  1  0  0  0  0  0  0
  161.5840  207.1750  155.8610 N   0  0  0  0  0  2  0  0  0  0  0  0
  160.5230  207.5000  156.8030 C   0  0  0  0  0  1  0  0  0  0  0  0
  1  5  1  0  0  0  0
  1  3  2  0  0  0  0
  2 37  1  0  0  0  0
  3 15  1  0  0  0  0
  4 22  2  0  0  0  0
  5  9  1  0  0  0  0
  6 18  1  0  0  0  0
  7 13  1  0  0  0  0
  8 14  2  0  0  0  0
  9 15  2  0  0  0  0
  9  4  1  0  0  0  0
 10 12  1  0  0  0  0
 11 20  1  0  0  0  0
 11 10  1  0  0  0  0
 12 19  1  0  0  0  0
 14 13  1  0  0  0  0
 15 17  1  0  0  0  0
 16  8  1  0  0  0  0
 17  2  2  0  0  0  0
 18  8  1  0  0  0  0
 18  7  2  0  0  0  0
 19 21  1  0  0  0  0
 20  6  1  0  0  0  0
 21  7  1  0  0  0  0
 21  1  1  1  0  0  0
 22  2  1  0  0  0  0
 23 24  1  0  0  0  0
 23 25  1  0  0  0  0
 24  5  1  0  0  0  0
 26 27  1  0  0  0  0
 26 25  1  0  0  0  0
 27 28  1  0  0  0  0
 29 30  1  0  0  0  0
 30 31  2  0  0  0  0
 30 28  1  0  0  0  0
 32 29  1  0  0  0  0
 33 32  1  0  0  0  0
 33 34  1  1  0  0  0
 35 33  1  0  0  0  0
 36 35  1  0  0  0  0
 37 38  1  0  0  0  0
M  END
>  <MODEL>
4

>  <REMARK>
 VINA RESULT:      -6.7      4.235      9.621
  Name = 
  9 active torsions:
  status: ('A' for Active; 'I' for Inactive)
    1  A    between atoms: C_2  and  N_17
    2  A    between atoms: C_6  and  C_15
    3  A    between atoms: C_7  and  N_8
    4  A    between atoms: C_7  and  C_23
    5  A    between atoms: C_15  and  C_25
    6  A    between atoms: N_19  and  C_38
    7  A    between atoms: C_23  and  C_29
    8  A    between atoms: C_25  and  N_28
    9  A    between atoms: C_29  and  C_38
                            x       y       z     vdW  Elec       q    Type
                         _______ _______ _______ _____ _____    ______ ____

>  <TORSDO>
F 9

$$$$
=
 OpenBabel11052409393D

 38 41  0  0  1  0  0  0  0  0999 V2000
  161.2010  205.9170  150.0500 C   0  0  0  0  0  0  0  0  0  0  0  0
  161.4560  207.2290  154.4400 C   0  0  0  0  0  0  0  0  0  0  0  0
  161.4570  205.2120  151.2760 N   0  0  0  0  0  0  0  0  0  0  0  0
  161.0500  208.6140  152.4660 C   0  0  0  0  0  3  0  0  0  0  0  0
  161.0440  207.3380  150.2670 N   0  0  0  0  0  0  0  0  0  0  0  0
  162.8950  203.2330  147.1490 S   0  0  0  0  0  0  0  0  0  0  0  0
  160.8120  203.7770  148.9420 C   0  0  0  0  0  0  0  0  0  0  0  0
  160.9550  201.5730  148.4850 C   0  0  0  0  0  0  0  0  0  0  0  0
  161.1800  207.4640  151.6820 C   0  0  0  0  0  0  0  0  0  0  0  0
  162.6250  206.2190  146.3900 C   0  0  0  0  0  2  0  0  0  0  0  0
  162.3870  205.1860  145.2880 C   0  0  0  0  0  2  0  0  0  0  0  0
  161.3300  206.8380  146.8990 C   0  0  0  0  0  2  0  0  0  0  0  0
  159.7660  203.0830  149.7560 C   0  0  0  0  0  2  0  0  0  0  0  0
  159.9890  201.6490  149.3850 C   0  0  0  0  0  3  0  0  0  0  0  0
  161.4230  206.2410  152.2510 C   0  0  0  0  0  0  0  0  0  0  0  0
  161.5590  200.0680  147.8040 Cl  0  0  0  0  0  0  0  0  0  0  0  0
  161.5620  206.0830  153.6290 C   0  0  0  0  0  3  0  0  0  0  0  0
  161.4870  202.8920  148.2130 C   0  0  0  0  0  0  0  0  0  0  0  0
  160.5420  205.8930  147.6840 N   0  0  0  0  0  2  0  0  0  0  0  0
  161.8310  203.8740  145.8240 C   0  0  0  0  0  2  0  0  0  0  0  0
  160.9680  205.2460  148.8960 C   0  0  1  0  0  3  0  0  0  0  0  0
  161.1970  208.4870  153.8540 C   0  0  0  0  0  3  0  0  0  0  0  0
  162.3280  208.9090  148.9270 C   0  0  0  0  0  2  0  0  0  0  0  0
  161.1490  208.3820  149.2890 C   0  0  0  0  0  2  0  0  0  0  0  0
  161.9560  209.6370  149.5490 C   0  0  0  0  0  2  0  0  0  0  0  0
  161.9560  210.5600  148.2610 C   0  0  0  0  0  2  0  0  0  0  0  0
  162.0340  212.0270  148.6380 C   0  0  0  0  0  2  0  0  0  0  0  0
  160.8060  212.7050  148.2490 N   0  0  0  0  0  2  0  0  0  0  0  0
  160.1490  213.1400  150.6070 N   0  0  0  0  0  2  0  0  0  0  0  0
  159.9790  213.3760  149.2000 C   0  0  0  0  0  0  0  0  0  0  0  0
  159.0730  214.1480  148.7870 O   0  0  0  0  0  0  0  0  0  0  0  0
  159.3310  213.7840  151.6290 C   0  0  0  0  0  2  0  0  0  0  0  0
  158.2430  212.8420  152.1290 C   0  0  2  0  0  3  0  0  0  0  0  0
  157.3210  213.6530  153.4250 Cl  0  0  0  0  0  0  0  0  0  0  0  0
  158.8570  211.5520  152.6600 C   0  0  0  0  0  2  0  0  0  0  0  0
  159.0000  211.6280  154.1680 C   0  0  0  0  0  1  0  0  0  0  0  0
  161.6020  207.1410  155.8600 N   0  0  0  0  0  2  0  0  0  0  0  0
  160.5240  207.4470  156.7890 C   0  0  0  0  0  1  0  0  0  0  0  0
  1  5  1  0  0  0  0
  1  3  2  0  0  0  0
  2 37  1  0  0  0  0
  3 15  1  0  0  0  0
  4 22  2  0  0  0  0
  5  9  1  0  0  0  0
  6 18  1  0  0  0  0
  7 13  1  0  0  0  0
  8 14  2  0  0  0  0
  9 15  2  0  0  0  0
  9  4  1  0  0  0  0
 10 12  1  0  0  0  0
 11 20  1  0  0  0  0
 11 10  1  0  0  0  0
 12 19  1  0  0  0  0
 14 13  1  0  0  0  0
 15 17  1  0  0  0  0
 16  8  1  0  0  0  0
 17  2  2  0  0  0  0
 18  8  1  0  0  0  0
 18  7  2  0  0  0  0
 19 21  1  0  0  0  0
 20  6  1  0  0  0  0
 21  7  1  0  0  0  0
 21  1  1  1  0  0  0
 22  2  1  0  0  0  0
 23 24  1  0  0  0  0
 23 25  1  0  0  0  0
 24  5  1  0  0  0  0
 26 27  1  0  0  0  0
 26 25  1  0  0  0  0
 28 27  1  0  0  0  0
 28 30  1  0  0  0  0
 29 32  1  0  0  0  0
 30 29  1  0  0  0  0
 31 30  2  0  0  0  0
 32 33  1  0  0  0  0
 33 35  1  0  0  0  0
 33 34  1  1  0  0  0
 35 36  1  0  0  0  0
 37 38  1  0  0  0  0
M  END
>  <MODEL>
5

>  <REMARK>
 VINA RESULT:      -6.4      3.368      9.577
  Name = 
  9 active torsions:
  status: ('A' for Active; 'I' for Inactive)
    1  A    between atoms: C_2  and  N_17
    2  A    between atoms: C_6  and  C_15
    3  A    between atoms: C_7  and  N_8
    4  A    between atoms: C_7  and  C_23
    5  A    between atoms: C_15  and  C_25
    6  A    between atoms: N_19  and  C_38
    7  A    between atoms: C_23  and  C_29
    8  A    between atoms: C_25  and  N_28
    9  A    between atoms: C_29  and  C_38
                            x       y       z     vdW  Elec       q    Type
                         _______ _______ _______ _____ _____    ______ ____

>  <TORSDO>
F 9

$$$$
=
 OpenBabel11052409393D

 38 41  0  0  1  0  0  0  0  0999 V2000
  160.9880  210.1420  151.7630 C   0  0  0  0  0  0  0  0  0  0  0  0
  162.2400  212.9130  148.3260 C   0  0  0  0  0  0  0  0  0  0  0  0
  161.0160  211.5710  151.6090 N   0  0  0  0  0  0  0  0  0  0  0  0
  162.3130  210.4700  148.4060 C   0  0  0  0  0  3  0  0  0  0  0  0
  161.5130  209.4640  150.5990 N   0  0  0  0  0  0  0  0  0  0  0  0
  160.9880  209.7410  156.0440 S   0  0  0  0  0  0  0  0  0  0  0  0
  159.5650  210.4170  153.7270 C   0  0  0  0  0  0  0  0  0  0  0  0
  158.6490  211.3530  155.5630 C   0  0  0  0  0  0  0  0  0  0  0  0
  161.8300  210.5390  149.7160 C   0  0  0  0  0  0  0  0  0  0  0  0
  162.0260  207.3650  154.3570 C   0  0  0  0  0  2  0  0  0  0  0  0
  161.2390  207.0380  155.6260 C   0  0  0  0  0  2  0  0  0  0  0  0
  161.2090  207.1450  153.0910 C   0  0  0  0  0  2  0  0  0  0  0  0
  158.4040  211.2450  153.2740 C   0  0  0  0  0  3  0  0  0  0  0  0
  157.9160  211.8230  154.5680 C   0  0  0  0  0  3  0  0  0  0  0  0
  161.5480  211.7430  150.3060 C   0  0  0  0  0  0  0  0  0  0  0  0
  158.4360  211.8050  157.2490 Cl  0  0  0  0  0  0  0  0  0  0  0  0
  161.7350  212.9530  149.6400 C   0  0  0  0  0  3  0  0  0  0  0  0
  159.6910  210.4880  155.0500 C   0  0  2  0  0  3  0  0  0  0  0  0
  160.1600  208.1480  152.9330 N   0  0  0  0  0  2  0  0  0  0  0  0
  160.2050  208.1040  155.9650 C   0  0  0  0  0  2  0  0  0  0  0  0
  160.3640  209.5670  152.8190 C   0  0  1  0  0  3  0  0  0  0  0  0
  162.5230  211.6720  147.7160 C   0  0  0  0  0  3  0  0  0  0  0  0
  162.1570  207.4770  149.3520 C   0  0  1  0  0  3  0  0  0  0  0  0
  161.9830  208.1100  150.5220 C   0  0  0  0  0  2  0  0  0  0  0  0
  161.2740  207.0690  149.6810 C   0  0  0  0  0  1  0  0  0  0  0  0
  162.0730  206.8210  148.3360 C   0  0  0  0  0  2  0  0  0  0  0  0
  161.1290  206.6460  147.1610 C   0  0  0  0  0  2  0  0  0  0  0  0
  161.6650  205.6580  146.2360 N   0  0  0  0  0  2  0  0  0  0  0  0
  161.4760  203.8150  147.8930 N   0  0  0  0  0  2  0  0  0  0  0  0
  161.6840  204.2650  146.5440 C   0  0  0  0  0  0  0  0  0  0  0  0
  161.9250  203.4370  145.6260 O   0  0  0  0  0  0  0  0  0  0  0  0
  161.4940  202.4070  148.2770 C   0  0  0  0  0  2  0  0  0  0  0  0
  160.8650  202.2090  149.6500 C   0  0  2  0  0  3  0  0  0  0  0  0
  159.3200  201.3350  149.4610 Cl  0  0  0  0  0  0  0  0  0  0  0  0
  160.6200  203.5550  150.3230 C   0  0  0  0  0  2  0  0  0  0  0  0
  161.4760  203.6750  151.5690 C   0  0  0  0  0  1  0  0  0  0  0  0
  162.4690  214.1180  147.5900 N   0  0  0  0  0  2  0  0  0  0  0  0
  162.2370  214.2290  146.1580 C   0  0  0  0  0  1  0  0  0  0  0  0
  2 17  1  0  0  0  0
  3  1  2  0  0  0  0
  4  9  2  0  0  0  0
  5  1  1  0  0  0  0
  8 16  1  0  0  0  0
  9 15  1  0  0  0  0
  9  5  1  0  0  0  0
 10 11  1  0  0  0  0
 11 20  1  0  0  0  0
 12 10  1  0  0  0  0
 13  7  2  0  0  0  0
 13 14  1  0  0  0  0
 14  8  2  0  0  0  0
 15  3  1  0  0  0  0
 17 15  2  0  0  0  0
 18  7  1  6  0  0  0
 18  8  1  0  0  0  0
 18  6  1  0  0  0  0
 19 12  1  0  0  0  0
 20  6  1  0  0  0  0
 21  1  1  6  0  0  0
 21 19  1  0  0  0  0
 21  7  1  0  0  0  0
 22  2  2  0  0  0  0
 22  4  1  0  0  0  0
 23 25  1  1  0  0  0
 23 24  1  0  0  0  0
 24  5  1  0  0  0  0
 26 23  1  0  0  0  0
 27 26  1  0  0  0  0
 28 30  1  0  0  0  0
 28 27  1  0  0  0  0
 29 32  1  0  0  0  0
 30 29  1  0  0  0  0
 31 30  2  0  0  0  0
 32 33  1  0  0  0  0
 33 34  1  6  0  0  0
 33 35  1  0  0  0  0
 35 36  1  0  0  0  0
 37  2  1  0  0  0  0
 38 37  1  0  0  0  0
M  END
>  <MODEL>
6

>  <REMARK>
 VINA RESULT:      -6.0      1.648      2.107
  Name = 
  9 active torsions:
  status: ('A' for Active; 'I' for Inactive)
    1  A    between atoms: C_2  and  N_17
    2  A    between atoms: C_6  and  C_15
    3  A    between atoms: C_7  and  N_8
    4  A    between atoms: C_7  and  C_23
    5  A    between atoms: C_15  and  C_25
    6  A    between atoms: N_19  and  C_38
    7  A    between atoms: C_23  and  C_29
    8  A    between atoms: C_25  and  N_28
    9  A    between atoms: C_29  and  C_38
                            x       y       z     vdW  Elec       q    Type
                         _______ _______ _______ _____ _____    ______ ____

>  <TORSDO>
F 9

$$$$
=
 OpenBabel11052409393D

 38 41  0  0  1  0  0  0  0  0999 V2000
  161.8540  208.2130  149.4980 C   0  0  0  0  0  0  0  0  0  0  0  0
  161.3680  212.3150  147.4970 C   0  0  0  0  0  0  0  0  0  0  0  0
  161.3830  208.6300  148.2050 N   0  0  0  0  0  0  0  0  0  0  0  0
  162.1570  211.8160  149.7580 C   0  0  0  0  0  3  0  0  0  0  0  0
  162.1920  209.3410  150.3380 N   0  0  0  0  0  0  0  0  0  0  0  0
  160.0810  204.3110  149.8390 S   0  0  0  0  0  0  0  0  0  0  0  0
  162.0370  205.9300  148.6560 C   0  0  0  0  0  0  0  0  0  0  0  0
  161.6250  204.0910  147.4160 C   0  0  0  0  0  0  0  0  0  0  0  0
  161.9390  210.4610  149.4910 C   0  0  0  0  0  0  0  0  0  0  0  0
  160.8480  205.7970  152.4410 C   0  0  0  0  0  2  0  0  0  0  0  0
  161.0410  204.2810  152.4110 C   0  0  0  0  0  2  0  0  0  0  0  0
  162.1630  206.5550  152.3170 C   0  0  0  0  0  2  0  0  0  0  0  0
  162.8900  206.0170  147.4290 C   0  0  0  0  0  3  0  0  0  0  0  0
  162.5010  204.7710  146.6950 C   0  0  0  0  0  3  0  0  0  0  0  0
  161.4700  210.0440  148.2720 C   0  0  0  0  0  0  0  0  0  0  0  0
  160.8810  202.5820  146.9070 Cl  0  0  0  0  0  0  0  0  0  0  0  0
  161.1780  210.9430  147.2480 C   0  0  0  0  0  3  0  0  0  0  0  0
  161.3160  204.8120  148.6340 C   0  0  2  0  0  3  0  0  0  0  0  0
  162.7280  206.4570  150.9750 N   0  0  0  0  0  2  0  0  0  0  0  0
  161.3480  203.7560  151.0150 C   0  0  0  0  0  2  0  0  0  0  0  0
  162.0990  206.9070  149.7620 C   0  0  1  0  0  3  0  0  0  0  0  0
  161.8600  212.7420  148.7500 C   0  0  0  0  0  3  0  0  0  0  0  0
  161.2840  209.5020  152.5890 C   0  0  1  0  0  3  0  0  0  0  0  0
  162.3320  209.3470  151.7660 C   0  0  0  0  0  2  0  0  0  0  0  0
  161.7150  210.4340  152.6210 C   0  0  0  0  0  1  0  0  0  0  0  0
  160.1360  210.3020  152.6120 C   0  0  0  0  0  2  0  0  0  0  0  0
  159.4730  211.6430  152.8650 C   0  0  0  0  0  2  0  0  0  0  0  0
  158.2640  211.4570  153.6540 N   0  0  0  0  0  2  0  0  0  0  0  0
  159.5290  210.6680  155.6430 N   0  0  0  0  0  2  0  0  0  0  0  0
  158.3090  211.1350  155.0440 C   0  0  0  0  0  0  0  0  0  0  0  0
  157.2560  211.2280  155.7300 O   0  0  0  0  0  0  0  0  0  0  0  0
  159.6400  210.3110  157.0540 C   0  0  0  0  0  2  0  0  0  0  0  0
  160.6940  209.2310  157.2610 C   0  0  2  0  0  3  0  0  0  0  0  0
  162.0350  209.5000  156.1130 Cl  0  0  0  0  0  0  0  0  0  0  0  0
  160.0910  207.8490  157.0380 C   0  0  0  0  0  2  0  0  0  0  0  0
  160.4260  207.3560  155.6430 C   0  0  0  0  0  1  0  0  0  0  0  0
  161.0750  213.2920  146.4950 N   0  0  0  0  0  2  0  0  0  0  0  0
  160.8590  212.9540  145.0960 C   0  0  0  0  0  1  0  0  0  0  0  0
  1  5  1  0  0  0  0
  2 22  1  0  0  0  0
  3 15  1  0  0  0  0
  3  1  2  0  0  0  0
  5 24  1  0  0  0  0
  6 20  1  0  0  0  0
  7 21  1  0  0  0  0
  9  4  1  0  0  0  0
  9  5  1  0  0  0  0
 11 10  1  0  0  0  0
 12 10  1  0  0  0  0
 13  7  2  0  0  0  0
 14  8  2  0  0  0  0
 14 13  1  0  0  0  0
 15  9  2  0  0  0  0
 16  8  1  0  0  0  0
 17  2  2  0  0  0  0
 17 15  1  0  0  0  0
 18  8  1  6  0  0  0
 18  7  1  0  0  0  0
 18  6  1  0  0  0  0
 19 12  1  0  0  0  0
 20 11  1  0  0  0  0
 21  1  1  6  0  0  0
 21 19  1  0  0  0  0
 22  4  2  0  0  0  0
 23 26  1  0  0  0  0
 23 25  1  1  0  0  0
 24 23  1  0  0  0  0
 26 27  1  0  0  0  0
 27 28  1  0  0  0  0
 28 30  1  0  0  0  0
 29 32  1  0  0  0  0
 30 29  1  0  0  0  0
 30 31  2  0  0  0  0
 32 33  1  0  0  0  0
 33 34  1  6  0  0  0
 35 33  1  0  0  0  0
 36 35  1  0  0  0  0
 37  2  1  0  0  0  0
 38 37  1  0  0  0  0
M  END
>  <MODEL>
7

>  <REMARK>
 VINA RESULT:      -5.6      3.394      7.744
  Name = 
  9 active torsions:
  status: ('A' for Active; 'I' for Inactive)
    1  A    between atoms: C_2  and  N_17
    2  A    between atoms: C_6  and  C_15
    3  A    between atoms: C_7  and  N_8
    4  A    between atoms: C_7  and  C_23
    5  A    between atoms: C_15  and  C_25
    6  A    between atoms: N_19  and  C_38
    7  A    between atoms: C_23  and  C_29
    8  A    between atoms: C_25  and  N_28
    9  A    between atoms: C_29  and  C_38
                            x       y       z     vdW  Elec       q    Type
                         _______ _______ _______ _____ _____    ______ ____

>  <TORSDO>
F 9

$$$$
=
 OpenBabel11052409393D

 38 41  0  0  1  0  0  0  0  0999 V2000
  161.0950  209.1400  151.7140 C   0  0  0  0  0  0  0  0  0  0  0  0
  161.0640  204.5750  152.1840 C   0  0  0  0  0  0  0  0  0  0  0  0
  160.5720  208.2560  152.7200 N   0  0  0  0  0  0  0  0  0  0  0  0
  161.9810  205.9020  150.3470 C   0  0  0  0  0  3  0  0  0  0  0  0
  161.6850  208.4130  150.6120 N   0  0  0  0  0  0  0  0  0  0  0  0
  158.7760  212.6930  152.4070 S   0  0  0  0  0  0  0  0  0  0  0  0
  160.8370  211.0040  153.2690 C   0  0  0  0  0  0  0  0  0  0  0  0
  160.0240  212.2490  154.9650 C   0  0  0  0  0  0  0  0  0  0  0  0
  161.5290  207.0510  151.0040 C   0  0  0  0  0  0  0  0  0  0  0  0
  160.0130  212.2840  149.6020 C   0  0  0  0  0  2  0  0  0  0  0  0
  159.9640  213.7100  150.1490 C   0  0  0  0  0  2  0  0  0  0  0  0
  161.4130  211.6840  149.6610 C   0  0  0  0  0  2  0  0  0  0  0  0
  161.5690  210.6010  154.5100 C   0  0  0  0  0  2  0  0  0  0  0  0
  160.9210  211.4690  155.5450 C   0  0  0  0  0  3  0  0  0  0  0  0
  160.8840  206.9700  152.2110 C   0  0  0  0  0  0  0  0  0  0  0  0
  159.0070  213.3970  155.8240 Cl  0  0  0  0  0  0  0  0  0  0  0  0
  160.6380  205.7480  152.8350 C   0  0  0  0  0  3  0  0  0  0  0  0
  159.9510  211.9560  153.5490 C   0  0  0  0  0  0  0  0  0  0  0  0
  161.8220  211.3830  151.0290 N   0  0  0  0  0  2  0  0  0  0  0  0
  160.0490  213.7580  151.6690 C   0  0  0  0  0  2  0  0  0  0  0  0
  161.1580  210.4770  151.9260 C   0  0  1  0  0  3  0  0  0  0  0  0
  161.7360  204.6600  150.9450 C   0  0  0  0  0  3  0  0  0  0  0  0
  161.6890  208.2030  148.1890 C   0  0  1  0  0  3  0  0  0  0  0  0
  161.9620  208.9110  149.2950 C   0  0  0  0  0  2  0  0  0  0  0  0
  162.7060  208.0800  148.2710 C   0  0  0  0  0  1  0  0  0  0  0  0
  161.6780  207.2610  147.3850 C   0  0  0  0  0  2  0  0  0  0  0  0
  162.3320  206.0330  146.7810 C   0  0  0  0  0  2  0  0  0  0  0  0
  161.7460  205.7490  145.4790 N   0  0  0  0  0  2  0  0  0  0  0  0
  161.3960  203.3480  146.0170 N   0  0  0  0  0  2  0  0  0  0  0  0
  161.1540  204.4860  145.1740 C   0  0  0  0  0  0  0  0  0  0  0  0
  160.4500  204.3730  144.1360 O   0  0  0  0  0  0  0  0  0  0  0  0
  160.8310  202.0270  145.7560 C   0  0  0  0  0  2  0  0  0  0  0  0
  160.6960  201.2280  147.0460 C   0  0  2  0  0  3  0  0  0  0  0  0
  161.2060  202.2500  148.4190 Cl  0  0  0  0  0  0  0  0  0  0  0  0
  161.5570  199.9720  146.9890 C   0  0  0  0  0  2  0  0  0  0  0  0
  161.2090  199.1620  145.7540 C   0  0  0  0  0  1  0  0  0  0  0  0
  160.8320  203.2870  152.7620 N   0  0  0  0  0  2  0  0  0  0  0  0
  160.7560  202.0650  151.9760 C   0  0  0  0  0  1  0  0  0  0  0  0
  1  3  2  0  0  0  0
  2 37  1  0  0  0  0
  2 17  1  0  0  0  0
  4 22  1  0  0  0  0
  4  9  2  0  0  0  0
  5  9  1  0  0  0  0
  5  1  1  0  0  0  0
  6 18  1  0  0  0  0
  7 18  2  0  0  0  0
  7 13  1  0  0  0  0
  8 14  2  0  0  0  0
  8 16  1  0  0  0  0
  9 15  1  0  0  0  0
 10 12  1  0  0  0  0
 10 11  1  0  0  0  0
 11 20  1  0  0  0  0
 12 19  1  0  0  0  0
 13 14  1  0  0  0  0
 15  3  1  0  0  0  0
 15 17  2  0  0  0  0
 18  8  1  0  0  0  0
 19 21  1  0  0  0  0
 20  6  1  0  0  0  0
 21  1  1  1  0  0  0
 21  7  1  0  0  0  0
 22  2  2  0  0  0  0
 23 25  1  6  0  0  0
 23 24  1  0  0  0  0
 24  5  1  0  0  0  0
 26 23  1  0  0  0  0
 27 26  1  0  0  0  0
 28 27  1  0  0  0  0
 30 28  1  0  0  0  0
 30 29  1  0  0  0  0
 31 30  2  0  0  0  0
 32 29  1  0  0  0  0
 32 33  1  0  0  0  0
 33 34  1  1  0  0  0
 35 33  1  0  0  0  0
 36 35  1  0  0  0  0
 38 37  1  0  0  0  0
M  END
>  <MODEL>
8

>  <REMARK>
 VINA RESULT:      -5.6      2.283      5.377
  Name = 
  9 active torsions:
  status: ('A' for Active; 'I' for Inactive)
    1  A    between atoms: C_2  and  N_17
    2  A    between atoms: C_6  and  C_15
    3  A    between atoms: C_7  and  N_8
    4  A    between atoms: C_7  and  C_23
    5  A    between atoms: C_15  and  C_25
    6  A    between atoms: N_19  and  C_38
    7  A    between atoms: C_23  and  C_29
    8  A    between atoms: C_25  and  N_28
    9  A    between atoms: C_29  and  C_38
                            x       y       z     vdW  Elec       q    Type
                         _______ _______ _______ _____ _____    ______ ____

>  <TORSDO>
F 9

$$$$
=
 OpenBabel11052409393D

 38 41  0  0  1  0  0  0  0  0999 V2000
  161.8010  206.4330  149.5860 C   0  0  0  0  0  0  0  0  0  0  0  0
  161.8250  210.9790  148.9540 C   0  0  0  0  0  0  0  0  0  0  0  0
  161.5220  207.2730  148.4530 N   0  0  0  0  0  0  0  0  0  0  0  0
  162.2930  209.7320  151.0050 C   0  0  0  0  0  3  0  0  0  0  0  0
  162.1010  207.2080  150.7700 N   0  0  0  0  0  0  0  0  0  0  0  0
  159.7600  202.8110  148.4930 S   0  0  0  0  0  0  0  0  0  0  0  0
  161.9460  204.5140  148.0850 C   0  0  0  0  0  0  0  0  0  0  0  0
  161.5770  203.1970  146.2910 C   0  0  0  0  0  0  0  0  0  0  0  0
  162.0260  208.5540  150.3010 C   0  0  0  0  0  0  0  0  0  0  0  0
  160.2860  203.3390  151.4940 C   0  0  0  0  0  2  0  0  0  0  0  0
  160.3870  201.8940  151.0040 C   0  0  0  0  0  2  0  0  0  0  0  0
  161.6510  203.9650  151.7480 C   0  0  0  0  0  2  0  0  0  0  0  0
  162.9480  204.8910  147.0400 C   0  0  0  0  0  3  0  0  0  0  0  0
  162.5770  203.9760  145.9130 C   0  0  0  0  0  3  0  0  0  0  0  0
  161.6880  208.5810  148.9730 C   0  0  0  0  0  0  0  0  0  0  0  0
  160.8100  202.0000  145.2580 Cl  0  0  0  0  0  0  0  0  0  0  0  0
  161.5830  209.7760  148.2640 C   0  0  0  0  0  3  0  0  0  0  0  0
  161.1650  203.5340  147.6370 C   0  0  2  0  0  3  0  0  0  0  0  0
  162.3720  204.2300  150.5070 N   0  0  0  0  0  2  0  0  0  0  0  0
  160.8330  201.7980  149.5510 C   0  0  0  0  0  2  0  0  0  0  0  0
  161.9300  205.0920  149.4450 C   0  0  1  0  0  3  0  0  0  0  0  0
  162.1820  210.9490  150.3190 C   0  0  0  0  0  3  0  0  0  0  0  0
  160.9220  206.7090  152.8380 C   0  0  2  0  0  3  0  0  0  0  0  0
  162.0620  206.7600  152.1320 C   0  0  0  0  0  2  0  0  0  0  0  0
  161.3620  207.5580  153.2120 C   0  0  0  0  0  1  0  0  0  0  0  0
  160.8290  206.5880  154.3460 C   0  0  0  0  0  2  0  0  0  0  0  0
  160.4350  207.3630  155.5900 C   0  0  0  0  0  2  0  0  0  0  0  0
  161.5790  208.1110  156.0910 N   0  0  0  0  0  2  0  0  0  0  0  0
  160.4430  210.3010  155.7890 N   0  0  0  0  0  2  0  0  0  0  0  0
  161.5180  209.5170  156.3300 C   0  0  0  0  0  0  0  0  0  0  0  0
  162.4400  210.0680  156.9890 O   0  0  0  0  0  0  0  0  0  0  0  0
  160.3270  211.7430  155.9860 C   0  0  0  0  0  2  0  0  0  0  0  0
  159.7050  212.4110  154.7670 C   0  0  2  0  0  3  0  0  0  0  0  0
  157.9280  212.2700  154.8700 Cl  0  0  0  0  0  0  0  0  0  0  0  0
  160.2030  211.7520  153.4860 C   0  0  0  0  0  2  0  0  0  0  0  0
  159.0490  211.0830  152.7650 C   0  0  0  0  0  1  0  0  0  0  0  0
  161.7210  212.2410  148.2900 N   0  0  0  0  0  2  0  0  0  0  0  0
  160.8580  212.4650  147.1400 C   0  0  0  0  0  1  0  0  0  0  0  0
  1  5  1  0  0  0  0
  2 22  1  0  0  0  0
  3 15  1  0  0  0  0
  3  1  2  0  0  0  0
  5 24  1  0  0  0  0
  6 20  1  0  0  0  0
  7 21  1  0  0  0  0
  9  5  1  0  0  0  0
  9  4  1  0  0  0  0
 10 12  1  0  0  0  0
 11 10  1  0  0  0  0
 13  7  2  0  0  0  0
 14  8  2  0  0  0  0
 14 13  1  0  0  0  0
 15  9  2  0  0  0  0
 16  8  1  0  0  0  0
 17  2  2  0  0  0  0
 17 15  1  0  0  0  0
 18  8  1  6  0  0  0
 18  7  1  0  0  0  0
 18  6  1  0  0  0  0
 19 12  1  0  0  0  0
 20 11  1  0  0  0  0
 21  1  1  6  0  0  0
 21 19  1  0  0  0  0
 22  4  2  0  0  0  0
 23 25  1  1  0  0  0
 23 26  1  0  0  0  0
 24 23  1  0  0  0  0
 26 27  1  0  0  0  0
 27 28  1  0  0  0  0
 28 30  1  0  0  0  0
 29 32  1  0  0  0  0
 29 30  1  0  0  0  0
 30 31  2  0  0  0  0
 33 34  1  1  0  0  0
 33 32  1  0  0  0  0
 35 33  1  0  0  0  0
 36 35  1  0  0  0  0
 37  2  1  0  0  0  0
 38 37  1  0  0  0  0
M  END
>  <MODEL>
9

>  <REMARK>
 VINA RESULT:      -5.6      3.430      8.781
  Name = 
  9 active torsions:
  status: ('A' for Active; 'I' for Inactive)
    1  A    between atoms: C_2  and  N_17
    2  A    between atoms: C_6  and  C_15
    3  A    between atoms: C_7  and  N_8
    4  A    between atoms: C_7  and  C_23
    5  A    between atoms: C_15  and  C_25
    6  A    between atoms: N_19  and  C_38
    7  A    between atoms: C_23  and  C_29
    8  A    between atoms: C_25  and  N_28
    9  A    between atoms: C_29  and  C_38
                            x       y       z     vdW  Elec       q    Type
                         _______ _______ _______ _____ _____    ______ ____

>  <TORSDO>
F 9

$$$$
