=
 OpenBabel11042421343D

 45 50  0  0  1  0  0  0  0  0999 V2000
  161.6980  208.1130  150.0530 C   0  0  2  0  0  3  0  0  0  0  0  0
  161.1580  206.6260  152.0130 C   0  0  2  0  0  3  0  0  0  0  0  0
  161.3520  205.4690  149.8380 C   0  0  1  0  0  3  0  0  0  0  0  0
  162.1230  205.8860  151.1030 C   0  0  1  0  0  3  0  0  0  0  0  0
  161.7260  206.2180  148.6110 N   0  0  0  0  0  0  0  0  0  0  0  0
  162.2350  207.4010  151.2830 C   0  0  1  0  0  3  0  0  0  0  0  0
  162.3040  207.4890  148.8770 N   0  0  0  0  0  2  0  0  0  0  0  0
  161.4160  203.9560  149.6340 C   0  0  0  0  0  3  0  0  0  0  0  0
  160.7320  202.1020  148.0220 C   0  0  0  0  0  2  0  0  0  0  0  0
  161.1740  201.3180  149.1660 N   0  0  0  0  0  2  0  0  0  0  0  0
  160.4790  203.2370  150.6030 C   0  0  0  0  0  2  0  0  0  0  0  0
  161.1820  203.5540  148.1680 C   0  0  0  0  0  2  0  0  0  0  0  0
  160.3760  201.7300  150.3190 C   0  0  0  0  0  2  0  0  0  0  0  0
  160.5920  206.4390  147.8960 O   0  0  0  0  0  0  0  0  0  0  0  0
  161.0220  206.6310  146.5810 C   0  0  0  0  0  2  0  0  0  0  0  0
  160.5360  205.6080  145.7680 O   0  0  0  0  0  0  0  0  0  0  0  0
  161.4730  205.4740  144.7380 C   0  0  0  0  0  1  0  0  0  0  0  0
  162.0760  209.5790  150.1140 C   0  0  0  0  0  2  0  0  0  0  0  0
  161.9550  210.2190  148.7400 C   0  0  0  0  0  2  0  0  0  0  0  0
  163.3070  212.2410  148.0740 C   0  0  0  0  0  2  0  0  0  0  0  0
  162.8810  213.6380  147.6840 C   0  0  0  0  0  2  0  0  0  0  0  0
  161.4640  213.7940  148.0400 N   0  0  2  0  0  0  0  0  0  0  0  0
  160.9560  212.5140  148.3850 N   0  0  1  0  0  0  0  0  0  0  0  0
  160.7630  214.2450  146.8400 C   0  0  0  0  0  2  0  0  0  0  0  0
  160.3550  211.9480  147.1730 C   0  0  0  0  0  2  0  0  0  0  0  0
  159.8880  213.1140  146.3590 C   0  0  0  0  0  2  0  0  0  0  0  0
  162.1190  211.7400  148.8420 C   0  0  1  0  0  3  0  0  0  0  0  0
  161.5830  206.4630  153.4630 C   0  0  0  0  0  2  0  0  0  0  0  0
  160.7680  207.3200  154.3830 C   0  0  0  0  0  0  0  0  0  0  0  0
  160.5820  208.5730  154.0690 C   0  0  0  0  0  0  0  0  0  0  0  0
  160.4140  209.8220  153.7520 C   0  0  0  0  0  3  0  0  0  0  0  0
  159.7450  207.6590  156.5030 O   0  0  0  0  0  1  0  0  0  0  0  0
  160.2880  206.8330  155.6030 O   0  0  0  0  0  0  0  0  0  0  0  0
  159.5350  210.6950  154.5720 C   0  0  0  0  0  2  0  0  0  0  0  0
  160.2880  211.8800  154.9720 N   0  0  0  0  0  2  0  0  0  0  0  0
  159.3240  212.8310  155.5280 C   0  0  2  0  0  3  0  0  0  0  0  0
  158.0740  212.1100  155.9350 C   0  0  0  0  0  3  0  0  0  0  0  0
  157.4090  212.5150  156.8760 O   0  0  0  0  0  0  0  0  0  0  0  0
  159.0260  213.9870  154.5540 C   0  0  0  0  0  2  0  0  0  0  0  0
  158.2310  213.3760  150.8480 C   0  0  0  0  0  2  0  0  0  0  0  0
  156.3290  214.1240  151.7870 C   0  0  0  0  0  2  0  0  0  0  0  0
  157.2500  214.3740  150.7550 O   0  0  0  0  0  0  0  0  0  0  0  0
  156.9710  214.4510  153.1360 C   0  0  0  0  0  2  0  0  0  0  0  0
  158.2130  213.5770  153.3270 C   0  0  0  0  0  3  0  0  0  0  0  0
  159.1030  213.6170  152.0810 C   0  0  0  0  0  2  0  0  0  0  0  0
  1 18  1  1  0  0  0
  1  6  1  0  0  0  0
  2 28  1  1  0  0  0
  3  8  1  6  0  0  0
  3  4  1  0  0  0  0
  4  6  1  0  0  0  0
  4  2  1  0  0  0  0
  5  7  1  0  0  0  0
  5  3  1  0  0  0  0
  6  2  1  0  0  0  0
  7  1  1  0  0  0  0
  8 11  1  0  0  0  0
  9 12  1  0  0  0  0
  9 10  1  0  0  0  0
 10 13  1  0  0  0  0
 12  8  1  0  0  0  0
 13 11  1  0  0  0  0
 14  5  1  0  0  0  0
 15 14  1  0  0  0  0
 16 15  1  0  0  0  0
 17 16  1  0  0  0  0
 19 27  1  0  0  0  0
 19 18  1  0  0  0  0
 20 27  1  0  0  0  0
 21 22  1  0  0  0  0
 21 20  1  0  0  0  0
 22 23  1  0  0  0  0
 23 27  1  0  0  0  0
 24 22  1  0  0  0  0
 25 23  1  0  0  0  0
 26 24  1  0  0  0  0
 26 25  1  0  0  0  0
 28 29  1  0  0  0  0
 29 33  1  0  0  0  0
 30 29  2  0  0  0  0
 31 30  2  0  0  0  0
 31 34  1  0  0  0  0
 33 32  1  0  0  0  0
 34 35  1  0  0  0  0
 35 36  1  0  0  0  0
 36 37  1  0  0  0  0
 37 38  2  0  0  0  0
 39 36  1  0  0  0  0
 40 45  1  0  0  0  0
 41 43  1  0  0  0  0
 42 40  1  0  0  0  0
 42 41  1  0  0  0  0
 43 44  1  0  0  0  0
 44 39  1  0  0  0  0
 45 44  1  0  0  0  0
M  END
>  <MODEL>
1

>  <REMARK>
 VINA RESULT:      -7.7      0.000      0.000
  Name = 
  16 active torsions:
  status: ('A' for Active; 'I' for Inactive)
    1  A    between atoms: C_1  and  O_23
    2  A    between atoms: C_1  and  C_28
    3  A    between atoms: C_4  and  CA_5
    4  A    between atoms: CA_5  and  C_21
    5  A    between atoms: CA_5  and  N_45
    6  A    between atoms: C_6  and  C_25
    7  A    between atoms: O_7  and  C_10
    8  A    between atoms: O_7  and  N_34
    9  A    between atoms: C_10  and  O_14
   10  A    between atoms: C_12  and  C_22
   11  A    between atoms: C_17  and  C_28
   12  A    between atoms: C_18  and  C_22
   13  A    between atoms: C_18  and  C_41
   14  A    between atoms: C_21  and  C_29
   15  A    between atoms: C_35  and  C_37
   16  A    between atoms: C_37  and  N_45
                            x       y       z     vdW  Elec       q    Type
                         _______ _______ _______ _____ _____    ______ ____

>  <TORSDO>
F 16

$$$$
=
 OpenBabel11042421343D

 45 50  0  0  1  0  0  0  0  0999 V2000
  161.6130  208.4510  150.4420 C   0  0  2  0  0  3  0  0  0  0  0  0
  160.5340  210.1600  151.9460 C   0  0  2  0  0  3  0  0  0  0  0  0
  161.2800  208.0900  153.0720 C   0  0  1  0  0  3  0  0  0  0  0  0
  161.6910  209.5240  152.6970 C   0  0  1  0  0  3  0  0  0  0  0  0
  161.9870  207.0260  152.3130 N   0  0  0  0  0  0  0  0  0  0  0  0
  161.7830  209.7640  151.1890 C   0  0  1  0  0  3  0  0  0  0  0  0
  162.4990  207.4670  151.0620 N   0  0  0  0  0  2  0  0  0  0  0  0
  161.3640  207.8760  154.5820 C   0  0  0  0  0  3  0  0  0  0  0  0
  159.9830  207.1580  156.6020 C   0  0  0  0  0  2  0  0  0  0  0  0
  161.1800  207.6650  157.2580 N   0  0  0  0  0  2  0  0  0  0  0  0
  161.4460  209.2130  155.3170 C   0  0  0  0  0  2  0  0  0  0  0  0
  160.2340  206.9740  155.1080 C   0  0  0  0  0  2  0  0  0  0  0  0
  161.3550  209.0560  156.8430 C   0  0  0  0  0  2  0  0  0  0  0  0
  161.0920  206.0390  152.0490 O   0  0  0  0  0  0  0  0  0  0  0  0
  161.6830  204.8710  152.5390 C   0  0  0  0  0  2  0  0  0  0  0  0
  161.6890  203.8900  151.5490 O   0  0  0  0  0  0  0  0  0  0  0  0
  160.5590  203.1040  151.7970 C   0  0  0  0  0  1  0  0  0  0  0  0
  161.9920  208.6460  148.9870 C   0  0  0  0  0  2  0  0  0  0  0  0
  161.1870  207.7130  148.0970 C   0  0  0  0  0  2  0  0  0  0  0  0
  161.2400  205.2540  148.6530 C   0  0  0  0  0  2  0  0  0  0  0  0
  161.5970  204.0510  147.8100 C   0  0  0  0  0  2  0  0  0  0  0  0
  162.2470  204.5350  146.5850 N   0  0  2  0  0  0  0  0  0  0  0  0
  162.0810  205.9440  146.5280 N   0  0  1  0  0  0  0  0  0  0  0  0
  161.5290  203.9530  145.4540 C   0  0  0  0  0  2  0  0  0  0  0  0
  160.8830  206.2030  145.7230 C   0  0  0  0  0  2  0  0  0  0  0  0
  160.7740  205.0610  144.7620 C   0  0  0  0  0  2  0  0  0  0  0  0
  161.9180  206.3770  147.9230 C   0  0  1  0  0  3  0  0  0  0  0  0
  160.5490  211.6660  152.1450 C   0  0  0  0  0  2  0  0  0  0  0  0
  159.7580  212.3760  151.0890 C   0  0  0  0  0  0  0  0  0  0  0  0
  160.3940  212.9000  150.0780 C   0  0  0  0  0  0  0  0  0  0  0  0
  161.0400  213.4280  149.0810 C   0  0  0  0  0  3  0  0  0  0  0  0
  157.8770  213.7740  151.4970 O   0  0  0  0  0  1  0  0  0  0  0  0
  158.3770  212.5670  151.2140 O   0  0  0  0  0  0  0  0  0  0  0  0
  160.3030  214.0580  147.9550 C   0  0  0  0  0  2  0  0  0  0  0  0
  159.2530  213.1480  147.5090 N   0  0  0  0  0  2  0  0  0  0  0  0
  159.2260  213.2110  146.0460 C   0  0  2  0  0  3  0  0  0  0  0  0
  157.8510  212.8790  145.5480 C   0  0  0  0  0  3  0  0  0  0  0  0
  157.0660  212.2760  146.2640 O   0  0  0  0  0  0  0  0  0  0  0  0
  160.2990  212.3080  145.4100 C   0  0  0  0  0  2  0  0  0  0  0  0
  160.9250  212.1270  141.6260 C   0  0  0  0  0  2  0  0  0  0  0  0
  162.6790  213.2290  142.5040 C   0  0  0  0  0  2  0  0  0  0  0  0
  162.3240  212.1170  141.7210 O   0  0  0  0  0  0  0  0  0  0  0  0
  162.2700  212.9830  143.9570 C   0  0  0  0  0  2  0  0  0  0  0  0
  160.7570  212.7630  144.0240 C   0  0  0  0  0  3  0  0  0  0  0  0
  160.3090  211.7450  142.9720 C   0  0  0  0  0  2  0  0  0  0  0  0
  1 18  1  6  0  0  0
  1  7  1  0  0  0  0
  1  6  1  0  0  0  0
  2 28  1  1  0  0  0
  2  4  1  0  0  0  0
  3  8  1  1  0  0  0
  4  3  1  0  0  0  0
  5  3  1  0  0  0  0
  6  2  1  0  0  0  0
  6  4  1  0  0  0  0
  7  5  1  0  0  0  0
  8 12  1  0  0  0  0
  8 11  1  0  0  0  0
  9 10  1  0  0  0  0
 11 13  1  0  0  0  0
 12  9  1  0  0  0  0
 13 10  1  0  0  0  0
 14  5  1  0  0  0  0
 14 15  1  0  0  0  0
 16 17  1  0  0  0  0
 16 15  1  0  0  0  0
 19 18  1  0  0  0  0
 21 20  1  0  0  0  0
 22 21  1  0  0  0  0
 23 22  1  0  0  0  0
 23 27  1  0  0  0  0
 24 22  1  0  0  0  0
 25 23  1  0  0  0  0
 26 24  1  0  0  0  0
 26 25  1  0  0  0  0
 27 19  1  0  0  0  0
 27 20  1  0  0  0  0
 29 33  1  0  0  0  0
 29 28  1  0  0  0  0
 30 29  2  0  0  0  0
 31 30  2  0  0  0  0
 33 32  1  0  0  0  0
 34 31  1  0  0  0  0
 35 34  1  0  0  0  0
 36 35  1  0  0  0  0
 37 36  1  0  0  0  0
 37 38  2  0  0  0  0
 39 36  1  0  0  0  0
 40 42  1  0  0  0  0
 40 45  1  0  0  0  0
 41 43  1  0  0  0  0
 42 41  1  0  0  0  0
 43 44  1  0  0  0  0
 44 39  1  0  0  0  0
 45 44  1  0  0  0  0
M  END
>  <MODEL>
2

>  <REMARK>
 VINA RESULT:      -7.6      2.777      7.632
  Name = 
  16 active torsions:
  status: ('A' for Active; 'I' for Inactive)
    1  A    between atoms: C_1  and  O_23
    2  A    between atoms: C_1  and  C_28
    3  A    between atoms: C_4  and  CA_5
    4  A    between atoms: CA_5  and  C_21
    5  A    between atoms: CA_5  and  N_45
    6  A    between atoms: C_6  and  C_25
    7  A    between atoms: O_7  and  C_10
    8  A    between atoms: O_7  and  N_34
    9  A    between atoms: C_10  and  O_14
   10  A    between atoms: C_12  and  C_22
   11  A    between atoms: C_17  and  C_28
   12  A    between atoms: C_18  and  C_22
   13  A    between atoms: C_18  and  C_41
   14  A    between atoms: C_21  and  C_29
   15  A    between atoms: C_35  and  C_37
   16  A    between atoms: C_37  and  N_45
                            x       y       z     vdW  Elec       q    Type
                         _______ _______ _______ _____ _____    ______ ____

>  <TORSDO>
F 16

$$$$
=
 OpenBabel11042421343D

 45 50  0  0  1  0  0  0  0  0999 V2000
  162.0850  208.2780  149.8240 C   0  0  2  0  0  3  0  0  0  0  0  0
  161.1350  210.5290  150.4360 C   0  0  2  0  0  3  0  0  0  0  0  0
  161.2950  208.9130  152.2990 C   0  0  1  0  0  3  0  0  0  0  0  0
  162.0230  210.0580  151.5760 C   0  0  1  0  0  3  0  0  0  0  0  0
  161.8920  207.5690  152.0890 N   0  0  0  0  0  0  0  0  0  0  0  0
  162.3870  209.7360  150.1250 C   0  0  1  0  0  3  0  0  0  0  0  0
  162.6630  207.4720  150.8980 N   0  0  0  0  0  2  0  0  0  0  0  0
  161.1060  209.2360  153.7810 C   0  0  0  0  0  3  0  0  0  0  0  0
  162.1420  210.5390  155.7130 C   0  0  0  0  0  2  0  0  0  0  0  0
  161.1420  209.7530  156.4210 N   0  0  0  0  0  2  0  0  0  0  0  0
  161.4200  208.0180  154.6470 C   0  0  0  0  0  2  0  0  0  0  0  0
  161.8890  210.4900  154.2090 C   0  0  0  0  0  2  0  0  0  0  0  0
  161.4160  208.3430  156.1500 C   0  0  0  0  0  2  0  0  0  0  0  0
  160.8770  206.6740  151.9790 O   0  0  0  0  0  0  0  0  0  0  0  0
  161.4990  205.4260  151.8930 C   0  0  0  0  0  2  0  0  0  0  0  0
  160.7620  204.4780  152.6000 O   0  0  0  0  0  0  0  0  0  0  0  0
  160.9370  203.2770  151.9060 C   0  0  0  0  0  1  0  0  0  0  0  0
  162.7110  207.8970  148.4970 C   0  0  0  0  0  2  0  0  0  0  0  0
  161.7170  207.1300  147.6400 C   0  0  0  0  0  2  0  0  0  0  0  0
  161.3080  204.7420  148.3380 C   0  0  0  0  0  2  0  0  0  0  0  0
  161.3540  203.4520  147.5490 C   0  0  0  0  0  2  0  0  0  0  0  0
  162.0030  203.7340  146.2620 N   0  0  2  0  0  0  0  0  0  0  0  0
  162.1230  205.1420  146.1310 N   0  0  1  0  0  0  0  0  0  0  0  0
  161.1050  203.2610  145.2100 C   0  0  0  0  0  2  0  0  0  0  0  0
  160.9510  205.6060  145.3820 C   0  0  0  0  0  2  0  0  0  0  0  0
  160.5460  204.4670  144.4990 C   0  0  0  0  0  2  0  0  0  0  0  0
  162.1480  205.6640  147.5040 C   0  0  1  0  0  3  0  0  0  0  0  0
  161.4070  211.9940  150.1370 C   0  0  0  0  0  2  0  0  0  0  0  0
  161.4780  212.2580  148.6640 C   0  0  0  0  0  0  0  0  0  0  0  0
  160.4080  212.6860  148.0530 C   0  0  0  0  0  0  0  0  0  0  0  0
  159.3330  213.1010  147.4530 C   0  0  0  0  0  3  0  0  0  0  0  0
  163.7660  212.6400  148.1350 O   0  0  0  0  0  1  0  0  0  0  0  0
  162.6300  211.9680  147.9240 O   0  0  0  0  0  0  0  0  0  0  0  0
  159.3670  213.4730  146.0150 C   0  0  0  0  0  2  0  0  0  0  0  0
  160.1710  212.4930  145.2930 N   0  0  0  0  0  2  0  0  0  0  0  0
  160.9680  213.2330  144.3120 C   0  0  2  0  0  3  0  0  0  0  0  0
  161.5620  214.4510  144.9540 C   0  0  0  0  0  3  0  0  0  0  0  0
  162.6570  214.3900  145.4920 O   0  0  0  0  0  0  0  0  0  0  0  0
  160.1520  213.5890  143.0550 C   0  0  0  0  0  2  0  0  0  0  0  0
  161.2360  210.8310  140.6140 C   0  0  0  0  0  2  0  0  0  0  0  0
  162.6630  212.5420  140.3080 C   0  0  0  0  0  2  0  0  0  0  0  0
  162.5960  211.1730  140.6200 O   0  0  0  0  0  0  0  0  0  0  0  0
  162.1360  213.3620  141.4860 C   0  0  0  0  0  2  0  0  0  0  0  0
  160.6850  212.9650  141.7660 C   0  0  0  0  0  3  0  0  0  0  0  0
  160.5410  211.4410  141.8310 C   0  0  0  0  0  2  0  0  0  0  0  0
  1 18  1  6  0  0  0
  1  6  1  0  0  0  0
  1  7  1  0  0  0  0
  2 28  1  6  0  0  0
  2  4  1  0  0  0  0
  3  8  1  1  0  0  0
  4  3  1  0  0  0  0
  5  3  1  0  0  0  0
  6  2  1  0  0  0  0
  6  4  1  0  0  0  0
  7  5  1  0  0  0  0
  8 12  1  0  0  0  0
  8 11  1  0  0  0  0
  9 10  1  0  0  0  0
 11 13  1  0  0  0  0
 12  9  1  0  0  0  0
 13 10  1  0  0  0  0
 14  5  1  0  0  0  0
 15 14  1  0  0  0  0
 15 16  1  0  0  0  0
 17 16  1  0  0  0  0
 19 18  1  0  0  0  0
 21 20  1  0  0  0  0
 22 21  1  0  0  0  0
 23 22  1  0  0  0  0
 23 27  1  0  0  0  0
 24 22  1  0  0  0  0
 25 23  1  0  0  0  0
 26 24  1  0  0  0  0
 26 25  1  0  0  0  0
 27 19  1  0  0  0  0
 27 20  1  0  0  0  0
 29 28  1  0  0  0  0
 30 29  2  0  0  0  0
 31 30  2  0  0  0  0
 33 32  1  0  0  0  0
 33 29  1  0  0  0  0
 34 31  1  0  0  0  0
 35 34  1  0  0  0  0
 36 37  1  0  0  0  0
 36 35  1  0  0  0  0
 37 38  2  0  0  0  0
 39 36  1  0  0  0  0
 40 42  1  0  0  0  0
 40 45  1  0  0  0  0
 41 42  1  0  0  0  0
 41 43  1  0  0  0  0
 43 44  1  0  0  0  0
 44 45  1  0  0  0  0
 44 39  1  0  0  0  0
M  END
>  <MODEL>
3

>  <REMARK>
 VINA RESULT:      -6.8      3.380      8.643
  Name = 
  16 active torsions:
  status: ('A' for Active; 'I' for Inactive)
    1  A    between atoms: C_1  and  O_23
    2  A    between atoms: C_1  and  C_28
    3  A    between atoms: C_4  and  CA_5
    4  A    between atoms: CA_5  and  C_21
    5  A    between atoms: CA_5  and  N_45
    6  A    between atoms: C_6  and  C_25
    7  A    between atoms: O_7  and  C_10
    8  A    between atoms: O_7  and  N_34
    9  A    between atoms: C_10  and  O_14
   10  A    between atoms: C_12  and  C_22
   11  A    between atoms: C_17  and  C_28
   12  A    between atoms: C_18  and  C_22
   13  A    between atoms: C_18  and  C_41
   14  A    between atoms: C_21  and  C_29
   15  A    between atoms: C_35  and  C_37
   16  A    between atoms: C_37  and  N_45
                            x       y       z     vdW  Elec       q    Type
                         _______ _______ _______ _____ _____    ______ ____

>  <TORSDO>
F 16

$$$$
=
 OpenBabel11042421343D

 45 50  0  0  1  0  0  0  0  0999 V2000
  161.8870  208.9560  149.6610 C   0  0  2  0  0  3  0  0  0  0  0  0
  161.0950  211.3460  149.6240 C   0  0  2  0  0  3  0  0  0  0  0  0
  161.1510  210.2910  151.8590 C   0  0  1  0  0  3  0  0  0  0  0  0
  161.9530  211.1460  150.8620 C   0  0  1  0  0  3  0  0  0  0  0  0
  161.6550  208.9040  152.0310 N   0  0  0  0  0  0  0  0  0  0  0  0
  162.2890  210.4180  149.5590 C   0  0  1  0  0  3  0  0  0  0  0  0
  162.4130  208.4360  150.9220 N   0  0  0  0  0  2  0  0  0  0  0  0
  160.9900  211.0170  153.1930 C   0  0  0  0  0  3  0  0  0  0  0  0
  161.4180  210.7680  155.6950 C   0  0  0  0  0  2  0  0  0  0  0  0
  160.5940  211.9680  155.6790 N   0  0  0  0  0  2  0  0  0  0  0  0
  159.5210  211.0630  153.6140 C   0  0  0  0  0  2  0  0  0  0  0  0
  161.9060  210.4400  154.2860 C   0  0  0  0  0  2  0  0  0  0  0  0
  159.3280  211.6260  155.0310 C   0  0  0  0  0  2  0  0  0  0  0  0
  160.5800  208.0830  152.1520 O   0  0  0  0  0  0  0  0  0  0  0  0
  161.0840  206.9040  152.7070 C   0  0  0  0  0  2  0  0  0  0  0  0
  160.7520  205.8180  151.8980 O   0  0  0  0  0  0  0  0  0  0  0  0
  161.7280  204.8500  152.1540 C   0  0  0  0  0  1  0  0  0  0  0  0
  162.4810  208.1880  148.4970 C   0  0  0  0  0  2  0  0  0  0  0  0
  161.4420  207.2650  147.8820 C   0  0  0  0  0  2  0  0  0  0  0  0
  161.2070  204.8240  148.4700 C   0  0  0  0  0  2  0  0  0  0  0  0
  161.4170  203.5760  147.6420 C   0  0  0  0  0  2  0  0  0  0  0  0
  162.1140  203.9650  146.4090 N   0  0  2  0  0  0  0  0  0  0  0  0
  162.1140  205.3820  146.3340 N   0  0  1  0  0  0  0  0  0  0  0  0
  161.3280  203.4570  145.2880 C   0  0  0  0  0  2  0  0  0  0  0  0
  160.9520  205.7700  145.5290 C   0  0  0  0  0  2  0  0  0  0  0  0
  160.7050  204.6370  144.5830 C   0  0  0  0  0  2  0  0  0  0  0  0
  162.0100  205.8490  147.7230 C   0  0  1  0  0  3  0  0  0  0  0  0
  161.4640  212.6530  148.9420 C   0  0  0  0  0  2  0  0  0  0  0  0
  160.6410  212.8930  147.7140 C   0  0  0  0  0  0  0  0  0  0  0  0
  161.2440  212.9450  146.5580 C   0  0  0  0  0  0  0  0  0  0  0  0
  161.8570  213.0060  145.4140 C   0  0  0  0  0  3  0  0  0  0  0  0
  158.7270  214.1760  147.1240 O   0  0  0  0  0  1  0  0  0  0  0  0
  159.2680  213.1520  147.7910 O   0  0  0  0  0  0  0  0  0  0  0  0
  161.0860  213.1430  144.1520 C   0  0  0  0  0  2  0  0  0  0  0  0
  161.8550  212.5510  143.0610 N   0  0  0  0  0  2  0  0  0  0  0  0
  160.9680  212.4900  141.8980 C   0  0  2  0  0  3  0  0  0  0  0  0
  159.5810  212.9050  142.2910 C   0  0  0  0  0  3  0  0  0  0  0  0
  158.6940  212.9560  141.4540 O   0  0  0  0  0  0  0  0  0  0  0  0
  160.9820  211.1000  141.2340 C   0  0  0  0  0  2  0  0  0  0  0  0
  160.9760  209.8250  137.6120 C   0  0  0  0  0  2  0  0  0  0  0  0
  162.7880  211.1420  137.8150 C   0  0  0  0  0  2  0  0  0  0  0  0
  162.3700  209.8480  137.4590 O   0  0  0  0  0  0  0  0  0  0  0  0
  162.6420  211.3290  139.3260 C   0  0  0  0  0  2  0  0  0  0  0  0
  161.1760  211.1320  139.7180 C   0  0  0  0  0  3  0  0  0  0  0  0
  160.6150  209.8500  139.0980 C   0  0  0  0  0  2  0  0  0  0  0  0
  1 18  1  6  0  0  0
  1  7  1  0  0  0  0
  2 28  1  6  0  0  0
  2  4  1  0  0  0  0
  3  5  1  0  0  0  0
  3  8  1  1  0  0  0
  4  3  1  0  0  0  0
  5 14  1  0  0  0  0
  6  2  1  0  0  0  0
  6  1  1  0  0  0  0
  6  4  1  0  0  0  0
  7  5  1  0  0  0  0
  8 11  1  0  0  0  0
  8 12  1  0  0  0  0
 10  9  1  0  0  0  0
 11 13  1  0  0  0  0
 12  9  1  0  0  0  0
 13 10  1  0  0  0  0
 14 15  1  0  0  0  0
 16 17  1  0  0  0  0
 16 15  1  0  0  0  0
 19 18  1  0  0  0  0
 21 20  1  0  0  0  0
 22 21  1  0  0  0  0
 23 22  1  0  0  0  0
 23 27  1  0  0  0  0
 24 22  1  0  0  0  0
 25 23  1  0  0  0  0
 26 24  1  0  0  0  0
 26 25  1  0  0  0  0
 27 19  1  0  0  0  0
 27 20  1  0  0  0  0
 29 33  1  0  0  0  0
 29 28  1  0  0  0  0
 30 29  2  0  0  0  0
 31 30  2  0  0  0  0
 32 33  1  0  0  0  0
 34 31  1  0  0  0  0
 35 34  1  0  0  0  0
 36 37  1  0  0  0  0
 36 35  1  0  0  0  0
 38 37  2  0  0  0  0
 39 36  1  0  0  0  0
 40 45  1  0  0  0  0
 41 43  1  0  0  0  0
 42 40  1  0  0  0  0
 42 41  1  0  0  0  0
 43 44  1  0  0  0  0
 44 39  1  0  0  0  0
 45 44  1  0  0  0  0
M  END
>  <MODEL>
4

>  <REMARK>
 VINA RESULT:      -6.6      4.017      9.871
  Name = 
  16 active torsions:
  status: ('A' for Active; 'I' for Inactive)
    1  A    between atoms: C_1  and  O_23
    2  A    between atoms: C_1  and  C_28
    3  A    between atoms: C_4  and  CA_5
    4  A    between atoms: CA_5  and  C_21
    5  A    between atoms: CA_5  and  N_45
    6  A    between atoms: C_6  and  C_25
    7  A    between atoms: O_7  and  C_10
    8  A    between atoms: O_7  and  N_34
    9  A    between atoms: C_10  and  O_14
   10  A    between atoms: C_12  and  C_22
   11  A    between atoms: C_17  and  C_28
   12  A    between atoms: C_18  and  C_22
   13  A    between atoms: C_18  and  C_41
   14  A    between atoms: C_21  and  C_29
   15  A    between atoms: C_35  and  C_37
   16  A    between atoms: C_37  and  N_45
                            x       y       z     vdW  Elec       q    Type
                         _______ _______ _______ _____ _____    ______ ____

>  <TORSDO>
F 16

$$$$
=
 OpenBabel11042421343D

 45 50  0  0  1  0  0  0  0  0999 V2000
  159.4960  212.2760  152.4920 C   0  0  2  0  0  3  0  0  0  0  0  0
  161.6360  210.9840  152.8060 C   0  0  2  0  0  3  0  0  0  0  0  0
  159.8460  210.4650  154.4300 C   0  0  1  0  0  3  0  0  0  0  0  0
  160.4690  210.0520  153.0850 C   0  0  1  0  0  3  0  0  0  0  0  0
  158.5130  211.1100  154.3220 N   0  0  0  0  0  0  0  0  0  0  0  0
  160.3610  211.1270  152.0010 C   0  0  1  0  0  3  0  0  0  0  0  0
  158.2720  211.7040  153.0520 N   0  0  0  0  0  2  0  0  0  0  0  0
  159.8440  209.2940  155.4120 C   0  0  0  0  0  3  0  0  0  0  0  0
  161.2210  208.2030  157.2610 C   0  0  0  0  0  2  0  0  0  0  0  0
  160.1980  207.1890  157.0490 N   0  0  0  0  0  2  0  0  0  0  0  0
  160.0750  207.9720  154.6820 C   0  0  0  0  0  2  0  0  0  0  0  0
  160.8210  209.5100  156.5800 C   0  0  0  0  0  2  0  0  0  0  0  0
  160.2570  206.7880  155.6450 C   0  0  0  0  0  2  0  0  0  0  0  0
  158.4560  212.1070  155.2420 O   0  0  0  0  0  0  0  0  0  0  0  0
  157.2910  212.8160  154.9410 C   0  0  0  0  0  2  0  0  0  0  0  0
  156.8830  213.5540  156.0510 O   0  0  0  0  0  0  0  0  0  0  0  0
  157.8220  213.2730  157.0490 C   0  0  0  0  0  1  0  0  0  0  0  0
  159.1580  213.1840  151.3270 C   0  0  0  0  0  2  0  0  0  0  0  0
  160.3300  213.2780  150.3650 C   0  0  0  0  0  2  0  0  0  0  0  0
  159.3770  214.2990  148.2660 C   0  0  0  0  0  2  0  0  0  0  0  0
  159.6850  214.0450  146.8070 C   0  0  0  0  0  2  0  0  0  0  0  0
  160.4820  212.8140  146.7220 N   0  0  2  0  0  0  0  0  0  0  0  0
  160.8760  212.4550  148.0370 N   0  0  1  0  0  0  0  0  0  0  0  0
  161.6900  213.1310  145.9640 C   0  0  0  0  0  2  0  0  0  0  0  0
  162.2060  213.0300  148.2610 C   0  0  0  0  0  2  0  0  0  0  0  0
  162.8590  213.0970  146.9160 C   0  0  0  0  0  2  0  0  0  0  0  0
  159.8610  213.0400  148.9250 C   0  0  1  0  0  3  0  0  0  0  0  0
  162.6710  210.2790  151.9470 C   0  0  0  0  0  2  0  0  0  0  0  0
  162.1820  208.9470  151.4660 C   0  0  0  0  0  0  0  0  0  0  0  0
  161.9240  208.7960  150.1960 C   0  0  0  0  0  0  0  0  0  0  0  0
  161.6590  208.6620  148.9310 C   0  0  0  0  0  3  0  0  0  0  0  0
  162.1520  206.6320  152.0140 O   0  0  0  0  0  1  0  0  0  0  0  0
  161.9110  207.9020  152.3570 O   0  0  0  0  0  0  0  0  0  0  0  0
  161.2660  207.3400  148.3800 C   0  0  0  0  0  2  0  0  0  0  0  0
  162.4230  206.7380  147.7260 N   0  0  0  0  0  2  0  0  0  0  0  0
  161.9790  205.4600  147.1630 C   0  0  2  0  0  3  0  0  0  0  0  0
  161.6070  205.6410  145.7220 C   0  0  0  0  0  3  0  0  0  0  0  0
  160.5780  205.1460  145.2860 O   0  0  0  0  0  0  0  0  0  0  0  0
  160.8290  204.8390  147.9780 C   0  0  0  0  0  2  0  0  0  0  0  0
  160.7520  201.2010  149.2030 C   0  0  0  0  0  2  0  0  0  0  0  0
  161.2250  202.4640  151.0040 C   0  0  0  0  0  2  0  0  0  0  0  0
  160.3250  201.5060  150.5040 O   0  0  0  0  0  0  0  0  0  0  0  0
  161.0030  203.7970  150.2880 C   0  0  0  0  0  2  0  0  0  0  0  0
  161.2310  203.6050  148.7870 C   0  0  0  0  0  3  0  0  0  0  0  0
  160.4690  202.3800  148.2730 C   0  0  0  0  0  2  0  0  0  0  0  0
  1 18  1  6  0  0  0
  1  7  1  0  0  0  0
  2 28  1  6  0  0  0
  2  4  1  0  0  0  0
  3  8  1  1  0  0  0
  4  3  1  0  0  0  0
  5  3  1  0  0  0  0
  5 14  1  0  0  0  0
  6  1  1  0  0  0  0
  6  2  1  0  0  0  0
  6  4  1  0  0  0  0
  7  5  1  0  0  0  0
  8 12  1  0  0  0  0
 10  9  1  0  0  0  0
 11  8  1  0  0  0  0
 11 13  1  0  0  0  0
 12  9  1  0  0  0  0
 13 10  1  0  0  0  0
 15 14  1  0  0  0  0
 15 16  1  0  0  0  0
 16 17  1  0  0  0  0
 19 18  1  0  0  0  0
 20 27  1  0  0  0  0
 21 20  1  0  0  0  0
 22 21  1  0  0  0  0
 22 23  1  0  0  0  0
 23 25  1  0  0  0  0
 23 27  1  0  0  0  0
 24 22  1  0  0  0  0
 24 26  1  0  0  0  0
 26 25  1  0  0  0  0
 27 19  1  0  0  0  0
 29 28  1  0  0  0  0
 29 33  1  0  0  0  0
 30 29  2  0  0  0  0
 31 30  2  0  0  0  0
 32 33  1  0  0  0  0
 34 31  1  0  0  0  0
 35 34  1  0  0  0  0
 36 35  1  0  0  0  0
 36 39  1  0  0  0  0
 37 36  1  0  0  0  0
 38 37  2  0  0  0  0
 39 44  1  0  0  0  0
 40 42  1  0  0  0  0
 42 41  1  0  0  0  0
 43 41  1  0  0  0  0
 44 43  1  0  0  0  0
 45 44  1  0  0  0  0
 45 40  1  0  0  0  0
M  END
>  <MODEL>
5

>  <REMARK>
 VINA RESULT:      -6.4      2.099      8.474
  Name = 
  16 active torsions:
  status: ('A' for Active; 'I' for Inactive)
    1  A    between atoms: C_1  and  O_23
    2  A    between atoms: C_1  and  C_28
    3  A    between atoms: C_4  and  CA_5
    4  A    between atoms: CA_5  and  C_21
    5  A    between atoms: CA_5  and  N_45
    6  A    between atoms: C_6  and  C_25
    7  A    between atoms: O_7  and  C_10
    8  A    between atoms: O_7  and  N_34
    9  A    between atoms: C_10  and  O_14
   10  A    between atoms: C_12  and  C_22
   11  A    between atoms: C_17  and  C_28
   12  A    between atoms: C_18  and  C_22
   13  A    between atoms: C_18  and  C_41
   14  A    between atoms: C_21  and  C_29
   15  A    between atoms: C_35  and  C_37
   16  A    between atoms: C_37  and  N_45
                            x       y       z     vdW  Elec       q    Type
                         _______ _______ _______ _____ _____    ______ ____

>  <TORSDO>
F 16

$$$$
=
 OpenBabel11042421343D

 45 50  0  0  1  0  0  0  0  0999 V2000
  159.8690  210.4110  154.6270 C   0  0  2  0  0  3  0  0  0  0  0  0
  160.6220  208.2140  153.6520 C   0  0  2  0  0  3  0  0  0  0  0  0
  160.9200  210.1750  152.1780 C   0  0  1  0  0  3  0  0  0  0  0  0
  161.6090  209.2880  153.2290 C   0  0  1  0  0  3  0  0  0  0  0  0
  160.5730  211.5400  152.6510 N   0  0  0  0  0  0  0  0  0  0  0  0
  160.9490  209.3420  154.6080 C   0  0  1  0  0  3  0  0  0  0  0  0
  160.4420  211.6330  154.0640 N   0  0  0  0  0  2  0  0  0  0  0  0
  161.7200  210.2010  150.8760 C   0  0  0  0  0  3  0  0  0  0  0  0
  161.9490  211.4560  148.6680 C   0  0  0  0  0  2  0  0  0  0  0  0
  162.8010  210.3040  148.4160 N   0  0  0  0  0  2  0  0  0  0  0  0
  161.3380  209.0230  149.9810 C   0  0  0  0  0  2  0  0  0  0  0  0
  161.6180  211.5560  150.1550 C   0  0  0  0  0  2  0  0  0  0  0  0
  161.9860  209.1030  148.5890 C   0  0  0  0  0  2  0  0  0  0  0  0
  159.3690  211.8720  152.1190 O   0  0  0  0  0  0  0  0  0  0  0  0
  159.1510  213.1960  152.5090 C   0  0  0  0  0  2  0  0  0  0  0  0
  159.3570  214.0500  151.4270 O   0  0  0  0  0  0  0  0  0  0  0  0
  158.4750  213.6120  150.4340 C   0  0  0  0  0  1  0  0  0  0  0  0
  159.4280  210.6560  156.0560 C   0  0  0  0  0  2  0  0  0  0  0  0
  157.9130  210.6000  156.1630 C   0  0  0  0  0  2  0  0  0  0  0  0
  158.3570  213.0370  156.6320 C   0  0  0  0  0  2  0  0  0  0  0  0
  157.4630  214.2520  156.5170 C   0  0  0  0  0  2  0  0  0  0  0  0
  156.0810  213.7810  156.3540 N   0  0  2  0  0  0  0  0  0  0  0  0
  156.1200  212.3820  156.1170 N   0  0  1  0  0  0  0  0  0  0  0  0
  155.5430  214.4230  155.1560 C   0  0  0  0  0  2  0  0  0  0  0  0
  156.1160  212.1910  154.6640 C   0  0  0  0  0  2  0  0  0  0  0  0
  155.3830  213.3650  154.0930 C   0  0  0  0  0  2  0  0  0  0  0  0
  157.3670  211.9130  156.7370 C   0  0  1  0  0  3  0  0  0  0  0  0
  161.3690  206.9700  154.1030 C   0  0  0  0  0  2  0  0  0  0  0  0
  161.7580  206.1030  152.9450 C   0  0  0  0  0  0  0  0  0  0  0  0
  161.2270  204.9150  152.8470 C   0  0  0  0  0  0  0  0  0  0  0  0
  160.7000  203.7300  152.7660 C   0  0  0  0  0  3  0  0  0  0  0  0
  162.4270  206.7300  150.7500 O   0  0  0  0  0  1  0  0  0  0  0  0
  162.7390  206.5010  152.0300 O   0  0  0  0  0  0  0  0  0  0  0  0
  160.9710  202.8640  151.5910 C   0  0  0  0  0  2  0  0  0  0  0  0
  161.1180  203.7050  150.4070 N   0  0  0  0  0  2  0  0  0  0  0  0
  160.7590  202.8820  149.2510 C   0  0  2  0  0  3  0  0  0  0  0  0
  160.7800  201.4320  149.6310 C   0  0  0  0  0  3  0  0  0  0  0  0
  160.8790  200.5720  148.7690 O   0  0  0  0  0  0  0  0  0  0  0  0
  161.6610  203.1690  148.0350 C   0  0  0  0  0  2  0  0  0  0  0  0
  160.9640  204.5560  144.5240 C   0  0  0  0  0  2  0  0  0  0  0  0
  160.7280  206.2850  145.9440 C   0  0  0  0  0  2  0  0  0  0  0  0
  161.4200  205.8540  144.7990 O   0  0  0  0  0  0  0  0  0  0  0  0
  161.2330  205.5160  147.1660 C   0  0  0  0  0  2  0  0  0  0  0  0
  160.9990  204.0200  146.9520 C   0  0  0  0  0  3  0  0  0  0  0  0
  161.5010  203.5820  145.5730 C   0  0  0  0  0  2  0  0  0  0  0  0
  1 18  1  1  0  0  0
  2 28  1  1  0  0  0
  2  6  1  0  0  0  0
  3  8  1  6  0  0  0
  3  5  1  0  0  0  0
  3  4  1  0  0  0  0
  4  2  1  0  0  0  0
  4  6  1  0  0  0  0
  5  7  1  0  0  0  0
  6  1  1  0  0  0  0
  7  1  1  0  0  0  0
  9 12  1  0  0  0  0
 10 13  1  0  0  0  0
 10  9  1  0  0  0  0
 11  8  1  0  0  0  0
 12  8  1  0  0  0  0
 13 11  1  0  0  0  0
 14 15  1  0  0  0  0
 14  5  1  0  0  0  0
 16 15  1  0  0  0  0
 17 16  1  0  0  0  0
 18 19  1  0  0  0  0
 19 27  1  0  0  0  0
 20 27  1  0  0  0  0
 21 20  1  0  0  0  0
 22 21  1  0  0  0  0
 23 22  1  0  0  0  0
 23 27  1  0  0  0  0
 24 22  1  0  0  0  0
 25 23  1  0  0  0  0
 26 25  1  0  0  0  0
 26 24  1  0  0  0  0
 29 28  1  0  0  0  0
 30 29  2  0  0  0  0
 31 30  2  0  0  0  0
 32 33  1  0  0  0  0
 33 29  1  0  0  0  0
 34 31  1  0  0  0  0
 35 34  1  0  0  0  0
 36 37  1  0  0  0  0
 36 35  1  0  0  0  0
 38 37  2  0  0  0  0
 39 36  1  0  0  0  0
 40 42  1  0  0  0  0
 40 45  1  0  0  0  0
 41 43  1  0  0  0  0
 42 41  1  0  0  0  0
 44 43  1  0  0  0  0
 44 39  1  0  0  0  0
 45 44  1  0  0  0  0
M  END
>  <MODEL>
6

>  <REMARK>
 VINA RESULT:      -6.3      2.282      8.823
  Name = 
  16 active torsions:
  status: ('A' for Active; 'I' for Inactive)
    1  A    between atoms: C_1  and  O_23
    2  A    between atoms: C_1  and  C_28
    3  A    between atoms: C_4  and  CA_5
    4  A    between atoms: CA_5  and  C_21
    5  A    between atoms: CA_5  and  N_45
    6  A    between atoms: C_6  and  C_25
    7  A    between atoms: O_7  and  C_10
    8  A    between atoms: O_7  and  N_34
    9  A    between atoms: C_10  and  O_14
   10  A    between atoms: C_12  and  C_22
   11  A    between atoms: C_17  and  C_28
   12  A    between atoms: C_18  and  C_22
   13  A    between atoms: C_18  and  C_41
   14  A    between atoms: C_21  and  C_29
   15  A    between atoms: C_35  and  C_37
   16  A    between atoms: C_37  and  N_45
                            x       y       z     vdW  Elec       q    Type
                         _______ _______ _______ _____ _____    ______ ____

>  <TORSDO>
F 16

$$$$
=
 OpenBabel11042421343D

 45 50  0  0  1  0  0  0  0  0999 V2000
  160.3270  212.5810  150.2000 C   0  0  2  0  0  3  0  0  0  0  0  0
  161.2810  210.7960  148.7000 C   0  0  2  0  0  3  0  0  0  0  0  0
  160.7370  212.9310  147.5800 C   0  0  1  0  0  3  0  0  0  0  0  0
  161.8560  212.1360  148.2750 C   0  0  1  0  0  3  0  0  0  0  0  0
  160.2240  214.0870  148.3580 N   0  0  0  0  0  0  0  0  0  0  0  0
  161.5780  211.8450  149.7510 C   0  0  1  0  0  3  0  0  0  0  0  0
  160.4440  213.9700  149.7590 N   0  0  0  0  0  2  0  0  0  0  0  0
  161.1480  213.3250  146.1620 C   0  0  0  0  0  3  0  0  0  0  0  0
  160.9850  212.5790  143.7290 C   0  0  0  0  0  2  0  0  0  0  0  0
  161.9540  213.6590  143.6170 N   0  0  0  0  0  2  0  0  0  0  0  0
  162.6480  213.1220  145.9550 C   0  0  0  0  0  2  0  0  0  0  0  0
  160.2970  212.6210  145.0910 C   0  0  0  0  0  2  0  0  0  0  0  0
  163.0780  213.3370  144.4950 C   0  0  0  0  0  2  0  0  0  0  0  0
  158.8800  214.1520  148.1720 O   0  0  0  0  0  0  0  0  0  0  0  0
  158.3520  214.4530  149.4300 C   0  0  0  0  0  2  0  0  0  0  0  0
  156.9970  214.1310  149.4660 O   0  0  0  0  0  0  0  0  0  0  0  0
  156.8930  212.8880  148.8330 C   0  0  0  0  0  1  0  0  0  0  0  0
  160.2240  212.5250  151.7110 C   0  0  0  0  0  2  0  0  0  0  0  0
  160.5380  211.1260  152.2160 C   0  0  0  0  0  2  0  0  0  0  0  0
  160.0700  211.7100  154.6230 C   0  0  0  0  0  2  0  0  0  0  0  0
  160.4630  211.0190  155.9100 C   0  0  0  0  0  2  0  0  0  0  0  0
  161.4890  210.0180  155.5890 N   0  0  2  0  0  0  0  0  0  0  0  0
  161.5560  209.8960  154.1760 N   0  0  1  0  0  0  0  0  0  0  0  0
  161.0310  208.7390  156.1280 C   0  0  0  0  0  2  0  0  0  0  0  0
  160.6780  208.7840  153.7980 C   0  0  0  0  0  2  0  0  0  0  0  0
  160.6690  207.8480  154.9660 C   0  0  0  0  0  2  0  0  0  0  0  0
  161.0820  211.1830  153.6480 C   0  0  1  0  0  3  0  0  0  0  0  0
  162.3810  209.7490  148.7420 C   0  0  0  0  0  2  0  0  0  0  0  0
  161.8300  208.3700  148.9410 C   0  0  0  0  0  0  0  0  0  0  0  0
  161.9500  207.8120  150.1140 C   0  0  0  0  0  0  0  0  0  0  0  0
  162.0850  207.2610  151.2840 C   0  0  0  0  0  3  0  0  0  0  0  0
  162.0680  207.0460  146.9790 O   0  0  0  0  0  1  0  0  0  0  0  0
  161.2810  207.6410  147.8800 O   0  0  0  0  0  0  0  0  0  0  0  0
  161.4740  205.9380  151.5700 C   0  0  0  0  0  2  0  0  0  0  0  0
  160.8830  205.4160  150.3420 N   0  0  0  0  0  2  0  0  0  0  0  0
  160.6230  203.9920  150.5650 C   0  0  2  0  0  3  0  0  0  0  0  0
  160.9040  203.6410  151.9950 C   0  0  0  0  0  3  0  0  0  0  0  0
  161.0370  202.4730  152.3270 O   0  0  0  0  0  0  0  0  0  0  0  0
  161.4160  203.1010  149.5910 C   0  0  0  0  0  2  0  0  0  0  0  0
  160.4490  201.6890  146.1540 C   0  0  0  0  0  2  0  0  0  0  0  0
  161.2070  203.7750  145.7890 C   0  0  0  0  0  2  0  0  0  0  0  0
  161.3980  202.4290  145.4330 O   0  0  0  0  0  0  0  0  0  0  0  0
  161.6760  203.9950  147.2280 C   0  0  0  0  0  2  0  0  0  0  0  0
  160.8690  203.0920  148.1640 C   0  0  0  0  0  3  0  0  0  0  0  0
  160.8310  201.6550  147.6340 C   0  0  0  0  0  2  0  0  0  0  0  0
  1 18  1  1  0  0  0
  2 28  1  1  0  0  0
  2  6  1  0  0  0  0
  3  8  1  6  0  0  0
  3  4  1  0  0  0  0
  3  5  1  0  0  0  0
  4  2  1  0  0  0  0
  4  6  1  0  0  0  0
  5  7  1  0  0  0  0
  6  1  1  0  0  0  0
  7  1  1  0  0  0  0
  9 12  1  0  0  0  0
 10  9  1  0  0  0  0
 10 13  1  0  0  0  0
 11  8  1  0  0  0  0
 12  8  1  0  0  0  0
 13 11  1  0  0  0  0
 14  5  1  0  0  0  0
 14 15  1  0  0  0  0
 15 16  1  0  0  0  0
 17 16  1  0  0  0  0
 18 19  1  0  0  0  0
 19 27  1  0  0  0  0
 20 21  1  0  0  0  0
 22 21  1  0  0  0  0
 22 24  1  0  0  0  0
 23 22  1  0  0  0  0
 25 23  1  0  0  0  0
 25 26  1  0  0  0  0
 26 24  1  0  0  0  0
 27 23  1  0  0  0  0
 27 20  1  0  0  0  0
 28 29  1  0  0  0  0
 29 30  2  0  0  0  0
 30 31  2  0  0  0  0
 31 34  1  0  0  0  0
 32 33  1  0  0  0  0
 33 29  1  0  0  0  0
 35 36  1  0  0  0  0
 35 34  1  0  0  0  0
 36 37  1  0  0  0  0
 37 38  2  0  0  0  0
 39 36  1  0  0  0  0
 40 45  1  0  0  0  0
 41 43  1  0  0  0  0
 42 41  1  0  0  0  0
 42 40  1  0  0  0  0
 43 44  1  0  0  0  0
 44 39  1  0  0  0  0
 45 44  1  0  0  0  0
M  END
>  <MODEL>
7

>  <REMARK>
 VINA RESULT:      -6.3      2.497      9.229
  Name = 
  16 active torsions:
  status: ('A' for Active; 'I' for Inactive)
    1  A    between atoms: C_1  and  O_23
    2  A    between atoms: C_1  and  C_28
    3  A    between atoms: C_4  and  CA_5
    4  A    between atoms: CA_5  and  C_21
    5  A    between atoms: CA_5  and  N_45
    6  A    between atoms: C_6  and  C_25
    7  A    between atoms: O_7  and  C_10
    8  A    between atoms: O_7  and  N_34
    9  A    between atoms: C_10  and  O_14
   10  A    between atoms: C_12  and  C_22
   11  A    between atoms: C_17  and  C_28
   12  A    between atoms: C_18  and  C_22
   13  A    between atoms: C_18  and  C_41
   14  A    between atoms: C_21  and  C_29
   15  A    between atoms: C_35  and  C_37
   16  A    between atoms: C_37  and  N_45
                            x       y       z     vdW  Elec       q    Type
                         _______ _______ _______ _____ _____    ______ ____

>  <TORSDO>
F 16

$$$$
=
 OpenBabel11042421343D

 45 50  0  0  1  0  0  0  0  0999 V2000
  160.8580  210.6130  152.2970 C   0  0  2  0  0  3  0  0  0  0  0  0
  158.9340  212.1800  151.8610 C   0  0  2  0  0  3  0  0  0  0  0  0
  159.1030  211.3420  154.1800 C   0  0  1  0  0  3  0  0  0  0  0  0
  159.5010  212.4890  153.2360 C   0  0  1  0  0  3  0  0  0  0  0  0
  160.2250  210.4590  154.5880 N   0  0  0  0  0  0  0  0  0  0  0  0
  160.4250  212.0560  152.0960 C   0  0  1  0  0  3  0  0  0  0  0  0
  161.3180  210.4750  153.6780 N   0  0  0  0  0  2  0  0  0  0  0  0
  158.3170  211.8700  155.3800 C   0  0  0  0  0  3  0  0  0  0  0  0
  156.0130  212.7120  156.0750 C   0  0  0  0  0  2  0  0  0  0  0  0
  156.7940  213.0520  157.2560 N   0  0  0  0  0  2  0  0  0  0  0  0
  158.7660  213.2850  155.7420 C   0  0  0  0  0  2  0  0  0  0  0  0
  156.7960  211.7590  155.1760 C   0  0  0  0  0  2  0  0  0  0  0  0
  157.8850  213.9250  156.8280 C   0  0  0  0  0  2  0  0  0  0  0  0
  159.7600  209.1830  154.6260 O   0  0  0  0  0  0  0  0  0  0  0  0
  160.8310  208.4180  155.0930 C   0  0  0  0  0  2  0  0  0  0  0  0
  160.4110  207.1120  155.3380 O   0  0  0  0  0  0  0  0  0  0  0  0
  160.1270  207.0630  156.7070 C   0  0  0  0  0  1  0  0  0  0  0  0
  161.9870  210.2880  151.3400 C   0  0  0  0  0  2  0  0  0  0  0  0
  162.3180  208.8060  151.3900 C   0  0  0  0  0  2  0  0  0  0  0  0
  161.9880  207.6360  149.1800 C   0  0  0  0  0  2  0  0  0  0  0  0
  161.2730  206.3500  148.8320 C   0  0  0  0  0  2  0  0  0  0  0  0
  160.4660  205.9540  149.9940 N   0  0  2  0  0  0  0  0  0  0  0  0
  160.8410  206.7760  151.0890 N   0  0  1  0  0  0  0  0  0  0  0  0
  160.8270  204.5770  150.3230 C   0  0  0  0  0  2  0  0  0  0  0  0
  161.8690  206.0480  151.8410 C   0  0  0  0  0  2  0  0  0  0  0  0
  161.5880  204.5940  151.6260 C   0  0  0  0  0  2  0  0  0  0  0  0
  161.3610  208.0130  150.4910 C   0  0  1  0  0  3  0  0  0  0  0  0
  158.6720  213.4710  151.1040 C   0  0  0  0  0  2  0  0  0  0  0  0
  159.4060  213.5100  149.7990 C   0  0  0  0  0  0  0  0  0  0  0  0
  158.7260  213.3630  148.6950 C   0  0  0  0  0  0  0  0  0  0  0  0
  158.0410  213.2050  147.6020 C   0  0  0  0  0  3  0  0  0  0  0  0
  161.5100  212.8220  148.9270 O   0  0  0  0  0  1  0  0  0  0  0  0
  160.8010  213.6060  149.7460 O   0  0  0  0  0  0  0  0  0  0  0  0
  158.6960  213.3320  146.2750 C   0  0  0  0  0  2  0  0  0  0  0  0
  159.6230  212.2180  146.0980 N   0  0  0  0  0  2  0  0  0  0  0  0
  160.6360  212.6550  145.1340 C   0  0  2  0  0  3  0  0  0  0  0  0
  161.3930  213.8250  145.6870 C   0  0  0  0  0  3  0  0  0  0  0  0
  162.5670  213.7050  146.0020 O   0  0  0  0  0  0  0  0  0  0  0  0
  160.0240  212.9690  143.7560 C   0  0  0  0  0  2  0  0  0  0  0  0
  162.3050  211.5490  141.0130 C   0  0  0  0  0  2  0  0  0  0  0  0
  160.1950  211.2930  140.2760 C   0  0  0  0  0  2  0  0  0  0  0  0
  161.4420  211.8540  139.9500 O   0  0  0  0  0  0  0  0  0  0  0  0
  159.5620  212.0840  141.4210 C   0  0  0  0  0  2  0  0  0  0  0  0
  160.4870  212.0340  142.6390 C   0  0  0  0  0  3  0  0  0  0  0  0
  161.9270  212.3740  142.2430 C   0  0  0  0  0  2  0  0  0  0  0  0
  1 18  1  6  0  0  0
  1  7  1  0  0  0  0
  2 28  1  6  0  0  0
  2  6  1  0  0  0  0
  2  4  1  0  0  0  0
  3  5  1  0  0  0  0
  3  8  1  1  0  0  0
  4  3  1  0  0  0  0
  5 14  1  0  0  0  0
  6  1  1  0  0  0  0
  6  4  1  0  0  0  0
  7  5  1  0  0  0  0
  8 11  1  0  0  0  0
  9 10  1  0  0  0  0
 11 13  1  0  0  0  0
 12  8  1  0  0  0  0
 12  9  1  0  0  0  0
 13 10  1  0  0  0  0
 14 15  1  0  0  0  0
 15 16  1  0  0  0  0
 16 17  1  0  0  0  0
 18 19  1  0  0  0  0
 20 27  1  0  0  0  0
 21 20  1  0  0  0  0
 21 22  1  0  0  0  0
 22 24  1  0  0  0  0
 22 23  1  0  0  0  0
 23 25  1  0  0  0  0
 24 26  1  0  0  0  0
 26 25  1  0  0  0  0
 27 23  1  0  0  0  0
 27 19  1  0  0  0  0
 29 28  1  0  0  0  0
 30 29  2  0  0  0  0
 31 30  2  0  0  0  0
 32 33  1  0  0  0  0
 33 29  1  0  0  0  0
 34 31  1  0  0  0  0
 35 34  1  0  0  0  0
 36 37  1  0  0  0  0
 36 35  1  0  0  0  0
 37 38  2  0  0  0  0
 39 36  1  0  0  0  0
 40 45  1  0  0  0  0
 41 43  1  0  0  0  0
 42 41  1  0  0  0  0
 42 40  1  0  0  0  0
 43 44  1  0  0  0  0
 44 39  1  0  0  0  0
 45 44  1  0  0  0  0
M  END
>  <MODEL>
8

>  <REMARK>
 VINA RESULT:      -6.1      3.058      9.384
  Name = 
  16 active torsions:
  status: ('A' for Active; 'I' for Inactive)
    1  A    between atoms: C_1  and  O_23
    2  A    between atoms: C_1  and  C_28
    3  A    between atoms: C_4  and  CA_5
    4  A    between atoms: CA_5  and  C_21
    5  A    between atoms: CA_5  and  N_45
    6  A    between atoms: C_6  and  C_25
    7  A    between atoms: O_7  and  C_10
    8  A    between atoms: O_7  and  N_34
    9  A    between atoms: C_10  and  O_14
   10  A    between atoms: C_12  and  C_22
   11  A    between atoms: C_17  and  C_28
   12  A    between atoms: C_18  and  C_22
   13  A    between atoms: C_18  and  C_41
   14  A    between atoms: C_21  and  C_29
   15  A    between atoms: C_35  and  C_37
   16  A    between atoms: C_37  and  N_45
                            x       y       z     vdW  Elec       q    Type
                         _______ _______ _______ _____ _____    ______ ____

>  <TORSDO>
F 16

$$$$
=
 OpenBabel11042421343D

 45 50  0  0  1  0  0  0  0  0999 V2000
  161.7810  208.0770  148.8460 C   0  0  2  0  0  3  0  0  0  0  0  0
  161.3480  207.0300  151.0960 C   0  0  2  0  0  3  0  0  0  0  0  0
  161.3820  205.4540  149.1920 C   0  0  1  0  0  3  0  0  0  0  0  0
  162.2400  206.0950  150.2970 C   0  0  1  0  0  3  0  0  0  0  0  0
  161.6860  205.9300  147.8180 N   0  0  0  0  0  0  0  0  0  0  0  0
  162.3860  207.6120  150.1600 C   0  0  1  0  0  3  0  0  0  0  0  0
  162.3000  207.2130  147.7860 N   0  0  0  0  0  2  0  0  0  0  0  0
  161.4100  203.9300  149.2960 C   0  0  0  0  0  3  0  0  0  0  0  0
  160.8040  201.8050  148.0210 C   0  0  0  0  0  2  0  0  0  0  0  0
  161.1170  201.2560  149.3320 N   0  0  0  0  0  2  0  0  0  0  0  0
  160.3670  203.4340  150.2960 C   0  0  0  0  0  2  0  0  0  0  0  0
  161.2910  203.2490  147.9210 C   0  0  0  0  0  2  0  0  0  0  0  0
  160.2360  201.9020  150.3040 C   0  0  0  0  0  2  0  0  0  0  0  0
  160.5120  206.0340  147.1440 O   0  0  0  0  0  0  0  0  0  0  0  0
  160.8750  206.2650  145.8150 C   0  0  0  0  0  2  0  0  0  0  0  0
  160.1030  205.4720  144.9670 O   0  0  0  0  0  0  0  0  0  0  0  0
  160.9570  204.4550  144.5290 C   0  0  0  0  0  1  0  0  0  0  0  0
  162.1840  209.5140  148.5860 C   0  0  0  0  0  2  0  0  0  0  0  0
  161.9010  210.3760  149.8050 C   0  0  0  0  0  2  0  0  0  0  0  0
  160.8220  212.5400  150.5230 C   0  0  0  0  0  2  0  0  0  0  0  0
  160.4630  213.7810  149.7380 C   0  0  0  0  0  2  0  0  0  0  0  0
  160.5640  213.4570  148.3090 N   0  0  2  0  0  0  0  0  0  0  0  0
  161.1920  212.1890  148.1910 N   0  0  1  0  0  0  0  0  0  0  0  0
  161.4430  214.4510  147.6990 C   0  0  0  0  0  2  0  0  0  0  0  0
  162.6250  212.4350  148.0030 C   0  0  0  0  0  2  0  0  0  0  0  0
  162.7310  213.7630  147.3210 C   0  0  0  0  0  2  0  0  0  0  0  0
  160.9080  211.4910  149.4530 C   0  0  1  0  0  3  0  0  0  0  0  0
  161.8630  207.1500  152.5200 C   0  0  0  0  0  2  0  0  0  0  0  0
  160.8700  207.8200  153.4180 C   0  0  0  0  0  0  0  0  0  0  0  0
  160.6630  209.1010  153.2760 C   0  0  0  0  0  0  0  0  0  0  0  0
  160.4730  210.3780  153.1330 C   0  0  0  0  0  3  0  0  0  0  0  0
  160.8920  206.1970  155.1560 O   0  0  0  0  0  1  0  0  0  0  0  0
  160.2360  207.1270  154.4560 O   0  0  0  0  0  0  0  0  0  0  0  0
  159.4310  211.0800  153.9260 C   0  0  0  0  0  2  0  0  0  0  0  0
  159.9550  212.3710  154.3570 N   0  0  0  0  0  2  0  0  0  0  0  0
  159.3970  212.6370  155.6850 C   0  0  2  0  0  3  0  0  0  0  0  0
  160.1900  211.9050  156.7260 C   0  0  0  0  0  3  0  0  0  0  0  0
  161.3940  211.7490  156.5860 O   0  0  0  0  0  0  0  0  0  0  0  0
  157.8980  212.2920  155.7610 C   0  0  0  0  0  2  0  0  0  0  0  0
  154.6550  214.3130  155.3890 C   0  0  0  0  0  2  0  0  0  0  0  0
  155.7160  214.4520  153.4110 C   0  0  0  0  0  2  0  0  0  0  0  0
  154.5040  214.0750  154.0150 O   0  0  0  0  0  0  0  0  0  0  0  0
  156.8070  213.4460  153.7790 C   0  0  0  0  0  2  0  0  0  0  0  0
  156.9730  213.4180  155.3000 C   0  0  0  0  0  3  0  0  0  0  0  0
  155.6140  213.2870  155.9930 C   0  0  0  0  0  2  0  0  0  0  0  0
  1 18  1  6  0  0  0
  1  6  1  0  0  0  0
  2 28  1  1  0  0  0
  3  8  1  6  0  0  0
  3  4  1  0  0  0  0
  4  2  1  0  0  0  0
  5  3  1  0  0  0  0
  6  4  1  0  0  0  0
  6  2  1  0  0  0  0
  7  5  1  0  0  0  0
  7  1  1  0  0  0  0
  8 11  1  0  0  0  0
  9 10  1  0  0  0  0
 10 13  1  0  0  0  0
 11 13  1  0  0  0  0
 12  9  1  0  0  0  0
 12  8  1  0  0  0  0
 14  5  1  0  0  0  0
 15 14  1  0  0  0  0
 16 15  1  0  0  0  0
 17 16  1  0  0  0  0
 18 19  1  0  0  0  0
 21 20  1  0  0  0  0
 22 21  1  0  0  0  0
 23 22  1  0  0  0  0
 23 27  1  0  0  0  0
 24 22  1  0  0  0  0
 25 23  1  0  0  0  0
 26 24  1  0  0  0  0
 26 25  1  0  0  0  0
 27 19  1  0  0  0  0
 27 20  1  0  0  0  0
 28 29  1  0  0  0  0
 29 33  1  0  0  0  0
 30 29  2  0  0  0  0
 31 30  2  0  0  0  0
 31 34  1  0  0  0  0
 33 32  1  0  0  0  0
 34 35  1  0  0  0  0
 35 36  1  0  0  0  0
 36 39  1  0  0  0  0
 36 37  1  0  0  0  0
 38 37  2  0  0  0  0
 40 45  1  0  0  0  0
 41 43  1  0  0  0  0
 41 42  1  0  0  0  0
 42 40  1  0  0  0  0
 43 44  1  0  0  0  0
 44 39  1  0  0  0  0
 44 45  1  0  0  0  0
M  END
>  <MODEL>
9

>  <REMARK>
 VINA RESULT:      -6.0      1.476      2.037
  Name = 
  16 active torsions:
  status: ('A' for Active; 'I' for Inactive)
    1  A    between atoms: C_1  and  O_23
    2  A    between atoms: C_1  and  C_28
    3  A    between atoms: C_4  and  CA_5
    4  A    between atoms: CA_5  and  C_21
    5  A    between atoms: CA_5  and  N_45
    6  A    between atoms: C_6  and  C_25
    7  A    between atoms: O_7  and  C_10
    8  A    between atoms: O_7  and  N_34
    9  A    between atoms: C_10  and  O_14
   10  A    between atoms: C_12  and  C_22
   11  A    between atoms: C_17  and  C_28
   12  A    between atoms: C_18  and  C_22
   13  A    between atoms: C_18  and  C_41
   14  A    between atoms: C_21  and  C_29
   15  A    between atoms: C_35  and  C_37
   16  A    between atoms: C_37  and  N_45
                            x       y       z     vdW  Elec       q    Type
                         _______ _______ _______ _____ _____    ______ ____

>  <TORSDO>
F 16

$$$$
