=
 OpenBabel11052412173D

 52 56  0  0  1  0  0  0  0  0999 V2000
  160.8390  211.7790  152.2130 N   0  0  0  0  0  2  0  0  0  0  0  0
  160.9600  209.5730  152.8800 C   0  0  1  0  0  3  0  0  0  0  0  0
  161.5130  209.8790  150.7080 N   0  0  0  0  0  0  0  0  0  0  0  0
  161.7180  210.5830  149.4740 C   0  0  0  0  0  0  0  0  0  0  0  0
  161.7100  209.9520  148.3860 O   0  0  0  0  0  0  0  0  0  0  0  0
  159.9820  210.2210  154.2250 S   0  0  0  0  0  0  0  0  0  0  0  0
  160.8760  208.2070  152.2810 C   0  0  0  0  0  2  0  0  0  0  0  0
  161.2750  210.4510  151.9830 C   0  0  1  0  0  3  0  0  0  0  0  0
  161.2970  208.4400  150.8140 C   0  0  2  0  0  3  0  0  0  0  0  0
  160.1820  211.9100  153.5070 C   0  0  2  0  0  3  0  0  0  0  0  0
  158.8270  212.5730  153.3260 C   0  0  0  0  0  2  0  0  0  0  0  0
  158.9700  213.9610  153.3640 O   0  0  0  0  0  0  0  0  0  0  0  0
  157.7240  214.4510  152.9610 C   0  0  0  0  0  2  0  0  0  0  0  0
  156.6300  213.7270  153.7160 C   0  0  0  0  0  1  0  0  0  0  0  0
  162.5420  207.7390  150.5410 N   0  0  0  0  0  2  0  0  0  0  0  0
  162.3020  206.3750  150.7610 N   0  0  0  0  0  2  0  0  0  0  0  0
  160.6770  201.5450  150.5080 C   0  0  0  0  0  0  0  0  0  0  0  0
  160.2800  200.1380  150.7750 C   0  0  0  0  0  1  0  0  0  0  0  0
  160.8500  203.8890  147.6970 N   0  0  0  0  0  0  0  0  0  0  0  0
  161.5300  203.6710  151.3000 C   0  0  0  0  0  3  0  0  0  0  0  0
  161.4320  204.2010  150.0050 C   0  0  0  0  0  0  0  0  0  0  0  0
  161.8020  205.5250  149.7240 C   0  0  0  0  0  0  0  0  0  0  0  0
  161.1540  202.3470  151.5490 C   0  0  0  0  0  3  0  0  0  0  0  0
  160.9500  203.3870  148.9560 C   0  0  0  0  0  0  0  0  0  0  0  0
  161.6820  206.0050  148.4140 C   0  0  0  0  0  3  0  0  0  0  0  0
  160.5760  202.0640  149.2130 C   0  0  0  0  0  3  0  0  0  0  0  0
  161.2060  205.1710  147.3950 C   0  0  0  0  0  0  0  0  0  0  0  0
  161.0410  205.6540  146.0040 C   0  0  0  0  0  0  0  0  0  0  0  0
  160.8730  204.7820  144.8710 N   0  0  0  0  0  2  0  0  0  0  0  0
  161.0490  206.8970  145.8000 O   0  0  0  0  0  0  0  0  0  0  0  0
  160.4170  202.2160  144.9930 C   0  0  0  0  0  3  0  0  0  0  0  0
  160.6280  203.4020  144.9330 C   0  0  0  0  0  0  0  0  0  0  0  0
  161.9780  212.0570  149.4550 C   0  0  0  0  0  2  0  0  0  0  0  0
  160.8900  212.7900  148.6820 C   0  0  0  0  0  2  0  0  0  0  0  0
  162.4690  213.3220  146.8070 N   0  0  0  0  0  0  0  0  0  0  0  0
  161.4320  212.9590  144.8570 C   0  0  0  0  0  0  0  0  0  0  0  0
  161.2520  212.9270  147.2400 C   0  0  0  0  0  0  0  0  0  0  0  0
  162.5700  213.3430  145.4780 N   0  0  0  0  0  0  0  0  0  0  0  0
  161.2910  212.8630  143.4380 N   0  0  0  0  0  2  0  0  0  0  0  0
  160.2190  212.5700  145.9550 S   0  0  0  0  0  0  0  0  0  0  0  0
  162.3960  213.1480  142.5300 C   0  0  0  0  0  2  0  0  0  0  0  0
  161.9760  213.0160  141.0620 C   0  0  2  0  0  3  0  0  0  0  0  0
  159.9640  212.3670  139.9900 C   0  0  0  0  0  3  0  0  0  0  0  0
  160.8340  212.1490  140.9080 N   0  0  0  0  0  0  0  0  0  0  0  0
  158.7900  211.4540  139.8250 C   0  0  0  0  0  2  0  0  0  0  0  0
  158.8110  210.7630  138.4660 C   0  0  1  0  0  3  0  0  0  0  0  0
  158.5060  211.6970  137.4770 O   0  0  0  0  0  1  0  0  0  0  0  0
  160.1850  210.1710  138.1770 C   0  0  0  0  0  2  0  0  0  0  0  0
  160.3750  209.0050  138.9180 O   0  0  0  0  0  0  0  0  0  0  0  0
  160.8700  208.0790  137.9960 C   0  0  0  0  0  1  0  0  0  0  0  0
  163.1020  212.5700  140.1790 C   0  0  0  0  0  3  0  0  0  0  0  0
  163.2030  211.4060  139.8260 O   0  0  0  0  0  0  0  0  0  0  0  0
  1 10  1  0  0  0  0
  2  7  1  6  0  0  0
  2  6  1  0  0  0  0
  3  9  1  0  0  0  0
  3  8  1  0  0  0  0
  4  3  1  0  0  0  0
  5  4  2  0  0  0  0
  8  1  1  6  0  0  0
  8  2  1  0  0  0  0
  9 15  1  1  0  0  0
  9  7  1  0  0  0  0
 10 11  1  6  0  0  0
 10  6  1  0  0  0  0
 11 12  1  0  0  0  0
 13 12  1  0  0  0  0
 13 14  1  0  0  0  0
 15 16  1  0  0  0  0
 17 18  1  0  0  0  0
 17 23  1  0  0  0  0
 19 24  1  0  0  0  0
 20 23  2  0  0  0  0
 21 20  1  0  0  0  0
 22 21  1  0  0  0  0
 22 16  1  0  0  0  0
 24 26  1  0  0  0  0
 24 21  2  0  0  0  0
 25 22  2  0  0  0  0
 26 17  2  0  0  0  0
 27 19  2  0  0  0  0
 27 25  1  0  0  0  0
 28 27  1  0  0  0  0
 29 32  1  0  0  0  0
 29 28  1  0  0  0  0
 30 28  2  0  0  0  0
 32 31  3  0  0  0  0
 33  4  1  0  0  0  0
 34 33  1  0  0  0  0
 35 37  2  0  0  0  0
 36 38  2  0  0  0  0
 36 40  1  0  0  0  0
 37 34  1  0  0  0  0
 38 35  1  0  0  0  0
 39 36  1  0  0  0  0
 40 37  1  0  0  0  0
 41 39  1  0  0  0  0
 42 51  1  6  0  0  0
 42 41  1  0  0  0  0
 43 44  2  0  0  0  0
 44 42  1  0  0  0  0
 45 43  1  0  0  0  0
 46 47  1  6  0  0  0
 46 45  1  0  0  0  0
 48 46  1  0  0  0  0
 48 49  1  0  0  0  0
 50 49  1  0  0  0  0
 52 51  2  0  0  0  0
M  END
>  <MODEL>
1

>  <REMARK>
 VINA RESULT:      -5.6      0.000      0.000
  Name = 
  19 active torsions:
  status: ('A' for Active; 'I' for Inactive)
    1  A    between atoms: N_1  and  N_40
    2  A    between atoms: N_1  and  C_42
    3  A    between atoms: O_2  and  C_38
    4  A    between atoms: C_4  and  O_8
    5  A    between atoms: C_5  and  C_51
    6  A    between atoms: C_7  and  C_21
    7  A    between atoms: C_7  and  C_22
    8  A    between atoms: O_8  and  C_47
    9  A    between atoms: C_9  and  C_23
   10  A    between atoms: C_16  and  C_22
   11  A    between atoms: N_19  and  C_48
   12  A    between atoms: C_23  and  C_26
   13  A    between atoms: N_24  and  CA_34
   14  A    between atoms: C_26  and  C_38
   15  A    between atoms: C_28  and  N_40
   16  A    between atoms: C_29  and  CA_34
   17  A    between atoms: C_29  and  N_41
   18  A    between atoms: C_32  and  CA_34
   19  A    between atoms: C_47  and  C_50
                            x       y       z     vdW  Elec       q    Type
                         _______ _______ _______ _____ _____    ______ ____

>  <TORSDO>
F 19

$$$$
=
 OpenBabel11052412173D

 52 56  0  0  1  0  0  0  0  0999 V2000
  160.5270  204.2190  150.1780 N   0  0  0  0  0  2  0  0  0  0  0  0
  161.0090  205.0870  152.2620 C   0  0  1  0  0  3  0  0  0  0  0  0
  161.1970  206.6070  150.5980 N   0  0  0  0  0  0  0  0  0  0  0  0
  161.1990  207.1180  149.2560 C   0  0  0  0  0  0  0  0  0  0  0  0
  161.8300  208.1720  148.9900 O   0  0  0  0  0  0  0  0  0  0  0  0
  161.1230  203.3490  152.6470 S   0  0  0  0  0  0  0  0  0  0  0  0
  161.8050  206.1980  152.8640 C   0  0  0  0  0  2  0  0  0  0  0  0
  160.7310  205.3380  151.0230 C   0  0  1  0  0  3  0  0  0  0  0  0
  161.8820  207.2350  151.7230 C   0  0  2  0  0  3  0  0  0  0  0  0
  160.5780  202.9690  150.9250 C   0  0  2  0  0  3  0  0  0  0  0  0
  161.5550  202.0160  150.2570 C   0  0  0  0  0  2  0  0  0  0  0  0
  160.8900  200.8540  149.8640 O   0  0  0  0  0  0  0  0  0  0  0  0
  161.3020  200.6440  148.5450 C   0  0  0  0  0  2  0  0  0  0  0  0
  161.1920  201.9400  147.7720 C   0  0  0  0  0  1  0  0  0  0  0  0
  161.1750  208.4470  152.1090 N   0  0  0  0  0  2  0  0  0  0  0  0
  161.9650  209.5310  151.7010 N   0  0  0  0  0  2  0  0  0  0  0  0
  158.5960  212.8400  153.6320 C   0  0  0  0  0  0  0  0  0  0  0  0
  157.6100  213.5790  154.4630 C   0  0  0  0  0  1  0  0  0  0  0  0
  160.2480  213.1320  150.3750 N   0  0  0  0  0  0  0  0  0  0  0  0
  160.0780  210.9460  153.3230 C   0  0  0  0  0  3  0  0  0  0  0  0
  160.4540  211.4380  152.0650 C   0  0  0  0  0  0  0  0  0  0  0  0
  161.3810  210.7590  151.2580 C   0  0  0  0  0  0  0  0  0  0  0  0
  159.1500  211.6450  154.1030 C   0  0  0  0  0  3  0  0  0  0  0  0
  159.8910  212.6440  151.5930 C   0  0  0  0  0  0  0  0  0  0  0  0
  161.7240  211.2950  150.0110 C   0  0  0  0  0  3  0  0  0  0  0  0
  158.9640  213.3380  152.3790 C   0  0  0  0  0  3  0  0  0  0  0  0
  161.1430  212.4900  149.5700 C   0  0  0  0  0  0  0  0  0  0  0  0
  161.5030  213.0990  148.2680 C   0  0  0  0  0  0  0  0  0  0  0  0
  160.5810  213.2440  147.1720 N   0  0  0  0  0  2  0  0  0  0  0  0
  162.6830  213.5130  148.1100 O   0  0  0  0  0  0  0  0  0  0  0  0
  158.0020  212.8660  147.3060 C   0  0  0  0  0  3  0  0  0  0  0  0
  159.1940  213.0390  147.2400 C   0  0  0  0  0  0  0  0  0  0  0  0
  160.4330  206.4380  148.1650 C   0  0  0  0  0  2  0  0  0  0  0  0
  161.2980  205.4030  147.4590 C   0  0  0  0  0  2  0  0  0  0  0  0
  160.2800  206.1740  145.3000 N   0  0  0  0  0  0  0  0  0  0  0  0
  161.7570  205.8610  143.6460 C   0  0  0  0  0  0  0  0  0  0  0  0
  161.3090  205.6260  145.9830 C   0  0  0  0  0  0  0  0  0  0  0  0
  160.5280  206.3040  143.9960 N   0  0  0  0  0  0  0  0  0  0  0  0
  162.2770  205.9190  142.3160 N   0  0  0  0  0  2  0  0  0  0  0  0
  162.6110  205.2720  144.9700 S   0  0  0  0  0  0  0  0  0  0  0  0
  161.5200  206.5000  141.2140 C   0  0  0  0  0  2  0  0  0  0  0  0
  162.4390  207.0840  140.1370 C   0  0  2  0  0  3  0  0  0  0  0  0
  162.0370  209.4130  139.9480 C   0  0  0  0  0  3  0  0  0  0  0  0
  162.7690  208.4620  140.4040 N   0  0  0  0  0  0  0  0  0  0  0  0
  162.3760  210.8410  140.2440 C   0  0  0  0  0  2  0  0  0  0  0  0
  161.1370  211.6340  140.6450 C   0  0  1  0  0  3  0  0  0  0  0  0
  160.0820  211.2830  139.8030 O   0  0  0  0  0  1  0  0  0  0  0  0
  160.7390  211.3320  142.0840 C   0  0  0  0  0  2  0  0  0  0  0  0
  161.2080  212.3330  142.9350 O   0  0  0  0  0  0  0  0  0  0  0  0
  160.6070  213.5040  142.4650 C   0  0  0  0  0  1  0  0  0  0  0  0
  161.8760  206.9340  138.7560 C   0  0  0  0  0  3  0  0  0  0  0  0
  162.5840  206.6080  137.8180 O   0  0  0  0  0  0  0  0  0  0  0  0
  1 10  1  0  0  0  0
  2  6  1  0  0  0  0
  2  7  1  6  0  0  0
  3  8  1  0  0  0  0
  3  9  1  0  0  0  0
  4  3  1  0  0  0  0
  5  4  2  0  0  0  0
  8  1  1  6  0  0  0
  8  2  1  0  0  0  0
  9 15  1  1  0  0  0
  9  7  1  0  0  0  0
 10 11  1  6  0  0  0
 10  6  1  0  0  0  0
 12 11  1  0  0  0  0
 13 12  1  0  0  0  0
 14 13  1  0  0  0  0
 16 15  1  0  0  0  0
 17 23  1  0  0  0  0
 17 18  1  0  0  0  0
 19 24  1  0  0  0  0
 20 23  2  0  0  0  0
 21 20  1  0  0  0  0
 22 16  1  0  0  0  0
 22 21  1  0  0  0  0
 24 21  2  0  0  0  0
 24 26  1  0  0  0  0
 25 22  2  0  0  0  0
 26 17  2  0  0  0  0
 27 25  1  0  0  0  0
 27 19  2  0  0  0  0
 28 27  1  0  0  0  0
 29 32  1  0  0  0  0
 29 28  1  0  0  0  0
 30 28  2  0  0  0  0
 32 31  3  0  0  0  0
 33  4  1  0  0  0  0
 34 33  1  0  0  0  0
 35 37  2  0  0  0  0
 36 38  2  0  0  0  0
 36 40  1  0  0  0  0
 37 34  1  0  0  0  0
 38 35  1  0  0  0  0
 39 36  1  0  0  0  0
 40 37  1  0  0  0  0
 41 39  1  0  0  0  0
 42 51  1  6  0  0  0
 42 44  1  0  0  0  0
 42 41  1  0  0  0  0
 43 45  1  0  0  0  0
 43 44  2  0  0  0  0
 45 46  1  0  0  0  0
 46 47  1  6  0  0  0
 46 48  1  0  0  0  0
 48 49  1  0  0  0  0
 50 49  1  0  0  0  0
 52 51  2  0  0  0  0
M  END
>  <MODEL>
2

>  <REMARK>
 VINA RESULT:      -5.2      2.686      7.813
  Name = 
  19 active torsions:
  status: ('A' for Active; 'I' for Inactive)
    1  A    between atoms: N_1  and  N_40
    2  A    between atoms: N_1  and  C_42
    3  A    between atoms: O_2  and  C_38
    4  A    between atoms: C_4  and  O_8
    5  A    between atoms: C_5  and  C_51
    6  A    between atoms: C_7  and  C_21
    7  A    between atoms: C_7  and  C_22
    8  A    between atoms: O_8  and  C_47
    9  A    between atoms: C_9  and  C_23
   10  A    between atoms: C_16  and  C_22
   11  A    between atoms: N_19  and  C_48
   12  A    between atoms: C_23  and  C_26
   13  A    between atoms: N_24  and  CA_34
   14  A    between atoms: C_26  and  C_38
   15  A    between atoms: C_28  and  N_40
   16  A    between atoms: C_29  and  CA_34
   17  A    between atoms: C_29  and  N_41
   18  A    between atoms: C_32  and  CA_34
   19  A    between atoms: C_47  and  C_50
                            x       y       z     vdW  Elec       q    Type
                         _______ _______ _______ _____ _____    ______ ____

>  <TORSDO>
F 19

$$$$
=
 OpenBabel11052412173D

 52 56  0  0  1  0  0  0  0  0999 V2000
  160.5600  203.6820  149.8240 N   0  0  0  0  0  2  0  0  0  0  0  0
  160.7700  204.0640  152.0910 C   0  0  1  0  0  3  0  0  0  0  0  0
  160.9700  205.9430  150.8480 N   0  0  0  0  0  0  0  0  0  0  0  0
  161.0470  206.7550  149.6660 C   0  0  0  0  0  0  0  0  0  0  0  0
  161.6020  207.8820  149.7180 O   0  0  0  0  0  0  0  0  0  0  0  0
  161.0060  202.2950  152.0800 S   0  0  0  0  0  0  0  0  0  0  0  0
  161.4030  205.0520  153.0140 C   0  0  0  0  0  2  0  0  0  0  0  0
  160.5840  204.5810  150.9190 C   0  0  1  0  0  3  0  0  0  0  0  0
  161.4890  206.3320  152.1550 C   0  0  2  0  0  3  0  0  0  0  0  0
  160.6560  202.2970  150.2670 C   0  0  2  0  0  3  0  0  0  0  0  0
  161.7720  201.5970  149.5100 C   0  0  0  0  0  2  0  0  0  0  0  0
  161.2310  200.6770  148.6110 O   0  0  0  0  0  0  0  0  0  0  0  0
  160.4650  201.4550  147.7370 C   0  0  0  0  0  2  0  0  0  0  0  0
  161.2940  201.8100  146.5220 C   0  0  0  0  0  1  0  0  0  0  0  0
  160.6430  207.3680  152.7270 N   0  0  0  0  0  2  0  0  0  0  0  0
  161.4490  208.5010  152.9110 N   0  0  0  0  0  2  0  0  0  0  0  0
  160.5160  212.9070  150.5140 C   0  0  0  0  0  0  0  0  0  0  0  0
  160.3830  214.0230  149.5420 C   0  0  0  0  0  1  0  0  0  0  0  0
  159.8240  212.2090  154.0430 N   0  0  0  0  0  0  0  0  0  0  0  0
  161.1880  210.6330  151.0180 C   0  0  0  0  0  3  0  0  0  0  0  0
  160.7750  210.7990  152.3490 C   0  0  0  0  0  0  0  0  0  0  0  0
  160.8920  209.7630  153.2890 C   0  0  0  0  0  0  0  0  0  0  0  0
  161.0590  211.6850  150.1050 C   0  0  0  0  0  3  0  0  0  0  0  0
  160.2280  212.0350  152.7570 C   0  0  0  0  0  0  0  0  0  0  0  0
  160.4620  209.9810  154.6030 C   0  0  0  0  0  3  0  0  0  0  0  0
  160.1020  213.0830  151.8380 C   0  0  0  0  0  3  0  0  0  0  0  0
  159.9300  211.2200  154.9770 C   0  0  0  0  0  0  0  0  0  0  0  0
  159.4410  211.4760  156.3530 C   0  0  0  0  0  0  0  0  0  0  0  0
  158.0470  211.5100  156.7110 N   0  0  0  0  0  2  0  0  0  0  0  0
  160.2920  211.6750  157.2610 O   0  0  0  0  0  0  0  0  0  0  0  0
  156.0650  210.7650  155.1850 C   0  0  0  0  0  3  0  0  0  0  0  0
  156.9830  211.1060  155.8900 C   0  0  0  0  0  0  0  0  0  0  0  0
  160.4490  206.3020  148.3720 C   0  0  0  0  0  2  0  0  0  0  0  0
  161.3720  205.3220  147.6600 C   0  0  0  0  0  2  0  0  0  0  0  0
  160.2460  205.9410  145.5060 N   0  0  0  0  0  0  0  0  0  0  0  0
  161.7310  205.7860  143.8380 C   0  0  0  0  0  0  0  0  0  0  0  0
  161.3400  205.5280  146.1820 C   0  0  0  0  0  0  0  0  0  0  0  0
  160.4620  206.0830  144.1980 N   0  0  0  0  0  0  0  0  0  0  0  0
  162.2250  205.8900  142.5010 N   0  0  0  0  0  2  0  0  0  0  0  0
  162.6640  205.3200  145.1570 S   0  0  0  0  0  0  0  0  0  0  0  0
  161.3920  206.3640  141.4030 C   0  0  0  0  0  2  0  0  0  0  0  0
  162.1800  207.2430  140.4270 C   0  0  2  0  0  3  0  0  0  0  0  0
  161.8970  209.4890  139.7200 C   0  0  0  0  0  3  0  0  0  0  0  0
  161.3800  208.3310  139.9200 N   0  0  0  0  0  0  0  0  0  0  0  0
  161.0650  210.6080  139.1790 C   0  0  0  0  0  2  0  0  0  0  0  0
  161.4920  211.9500  139.7640 C   0  0  1  0  0  3  0  0  0  0  0  0
  160.3530  212.6910  140.0790 O   0  0  0  0  0  1  0  0  0  0  0  0
  162.3180  211.7550  141.0280 C   0  0  0  0  0  2  0  0  0  0  0  0
  161.4960  211.8010  142.1550 O   0  0  0  0  0  0  0  0  0  0  0  0
  162.2120  212.5630  143.0820 C   0  0  0  0  0  1  0  0  0  0  0  0
  162.7800  206.4580  139.2990 C   0  0  0  0  0  3  0  0  0  0  0  0
  162.4370  206.6510  138.1440 O   0  0  0  0  0  0  0  0  0  0  0  0
  1 10  1  0  0  0  0
  2  7  1  6  0  0  0
  3  8  1  0  0  0  0
  3  9  1  0  0  0  0
  4  5  2  0  0  0  0
  4  3  1  0  0  0  0
  6  2  1  0  0  0  0
  8  1  1  6  0  0  0
  8  2  1  0  0  0  0
  9 15  1  1  0  0  0
  9  7  1  0  0  0  0
 10 11  1  6  0  0  0
 10  6  1  0  0  0  0
 12 11  1  0  0  0  0
 13 12  1  0  0  0  0
 14 13  1  0  0  0  0
 15 16  1  0  0  0  0
 16 22  1  0  0  0  0
 17 26  1  0  0  0  0
 18 17  1  0  0  0  0
 19 27  2  0  0  0  0
 20 21  2  0  0  0  0
 21 24  1  0  0  0  0
 21 22  1  0  0  0  0
 22 25  2  0  0  0  0
 23 17  2  0  0  0  0
 23 20  1  0  0  0  0
 24 19  1  0  0  0  0
 25 27  1  0  0  0  0
 26 24  2  0  0  0  0
 27 28  1  0  0  0  0
 28 29  1  0  0  0  0
 28 30  2  0  0  0  0
 31 32  3  0  0  0  0
 32 29  1  0  0  0  0
 33  4  1  0  0  0  0
 34 33  1  0  0  0  0
 35 37  2  0  0  0  0
 36 38  2  0  0  0  0
 36 40  1  0  0  0  0
 37 34  1  0  0  0  0
 38 35  1  0  0  0  0
 39 36  1  0  0  0  0
 40 37  1  0  0  0  0
 41 39  1  0  0  0  0
 42 51  1  6  0  0  0
 42 41  1  0  0  0  0
 43 44  2  0  0  0  0
 44 42  1  0  0  0  0
 45 43  1  0  0  0  0
 45 46  1  0  0  0  0
 46 47  1  1  0  0  0
 46 48  1  0  0  0  0
 48 49  1  0  0  0  0
 49 50  1  0  0  0  0
 52 51  2  0  0  0  0
M  END
>  <MODEL>
3

>  <REMARK>
 VINA RESULT:      -4.7      3.094      8.513
  Name = 
  19 active torsions:
  status: ('A' for Active; 'I' for Inactive)
    1  A    between atoms: N_1  and  N_40
    2  A    between atoms: N_1  and  C_42
    3  A    between atoms: O_2  and  C_38
    4  A    between atoms: C_4  and  O_8
    5  A    between atoms: C_5  and  C_51
    6  A    between atoms: C_7  and  C_21
    7  A    between atoms: C_7  and  C_22
    8  A    between atoms: O_8  and  C_47
    9  A    between atoms: C_9  and  C_23
   10  A    between atoms: C_16  and  C_22
   11  A    between atoms: N_19  and  C_48
   12  A    between atoms: C_23  and  C_26
   13  A    between atoms: N_24  and  CA_34
   14  A    between atoms: C_26  and  C_38
   15  A    between atoms: C_28  and  N_40
   16  A    between atoms: C_29  and  CA_34
   17  A    between atoms: C_29  and  N_41
   18  A    between atoms: C_32  and  CA_34
   19  A    between atoms: C_47  and  C_50
                            x       y       z     vdW  Elec       q    Type
                         _______ _______ _______ _____ _____    ______ ____

>  <TORSDO>
F 19

$$$$
=
 OpenBabel11052412173D

 52 56  0  0  1  0  0  0  0  0999 V2000
  160.5580  203.9360  150.0090 N   0  0  0  0  0  2  0  0  0  0  0  0
  161.0140  204.6740  152.1480 C   0  0  1  0  0  3  0  0  0  0  0  0
  161.1210  206.3170  150.5980 N   0  0  0  0  0  0  0  0  0  0  0  0
  161.0910  206.9220  149.2960 C   0  0  0  0  0  0  0  0  0  0  0  0
  161.6710  208.0210  149.1050 O   0  0  0  0  0  0  0  0  0  0  0  0
  161.2110  202.9190  152.4060 S   0  0  0  0  0  0  0  0  0  0  0  0
  161.7620  205.7730  152.8270 C   0  0  0  0  0  2  0  0  0  0  0  0
  160.7170  205.0000  150.9320 C   0  0  1  0  0  3  0  0  0  0  0  0
  161.7840  206.8930  151.7630 C   0  0  2  0  0  3  0  0  0  0  0  0
  160.6720  202.6400  150.6630 C   0  0  2  0  0  3  0  0  0  0  0  0
  161.6870  201.7840  149.9240 C   0  0  0  0  0  2  0  0  0  0  0  0
  161.5100  201.9210  148.5470 O   0  0  0  0  0  0  0  0  0  0  0  0
  160.9520  200.7040  148.1440 C   0  0  0  0  0  2  0  0  0  0  0  0
  161.3370  200.4250  146.7080 C   0  0  0  0  0  1  0  0  0  0  0  0
  161.0250  208.0390  152.2390 N   0  0  0  0  0  2  0  0  0  0  0  0
  161.7500  209.1860  151.8860 N   0  0  0  0  0  2  0  0  0  0  0  0
  161.6100  212.9340  148.4260 C   0  0  0  0  0  0  0  0  0  0  0  0
  161.7770  213.8110  147.2380 C   0  0  0  0  0  1  0  0  0  0  0  0
  159.9240  212.9680  151.6790 N   0  0  0  0  0  0  0  0  0  0  0  0
  162.0740  210.8530  149.5810 C   0  0  0  0  0  3  0  0  0  0  0  0
  161.3000  211.2780  150.6710 C   0  0  0  0  0  0  0  0  0  0  0  0
  161.1270  210.4720  151.8070 C   0  0  0  0  0  0  0  0  0  0  0  0
  162.2290  211.6800  148.4630 C   0  0  0  0  0  3  0  0  0  0  0  0
  160.6770  212.5450  150.6300 C   0  0  0  0  0  0  0  0  0  0  0  0
  160.3420  210.9430  152.8660 C   0  0  0  0  0  3  0  0  0  0  0  0
  160.8360  213.3660  149.5080 C   0  0  0  0  0  3  0  0  0  0  0  0
  159.7430  212.2060  152.7960 C   0  0  0  0  0  0  0  0  0  0  0  0
  158.8840  212.7240  153.8880 C   0  0  0  0  0  0  0  0  0  0  0  0
  157.7450  213.5770  153.6710 N   0  0  0  0  0  2  0  0  0  0  0  0
  159.1660  212.4000  155.0720 O   0  0  0  0  0  0  0  0  0  0  0  0
  156.6690  214.1010  151.3510 C   0  0  0  0  0  3  0  0  0  0  0  0
  157.1650  213.8620  152.4250 C   0  0  0  0  0  0  0  0  0  0  0  0
  160.3490  206.2880  148.1620 C   0  0  0  0  0  2  0  0  0  0  0  0
  161.2320  205.2870  147.4290 C   0  0  0  0  0  2  0  0  0  0  0  0
  160.2640  206.1970  145.3020 N   0  0  0  0  0  0  0  0  0  0  0  0
  161.7190  205.8530  143.6350 C   0  0  0  0  0  0  0  0  0  0  0  0
  161.2570  205.5630  145.9620 C   0  0  0  0  0  0  0  0  0  0  0  0
  160.5190  206.3580  144.0030 N   0  0  0  0  0  0  0  0  0  0  0  0
  162.2410  205.9270  142.3060 N   0  0  0  0  0  2  0  0  0  0  0  0
  162.5350  205.1660  144.9340 S   0  0  0  0  0  0  0  0  0  0  0  0
  161.5210  206.5940  141.2280 C   0  0  0  0  0  2  0  0  0  0  0  0
  162.4740  207.2980  140.2560 C   0  0  2  0  0  3  0  0  0  0  0  0
  161.9340  209.6060  140.3120 C   0  0  0  0  0  3  0  0  0  0  0  0
  161.8800  208.4840  139.6900 N   0  0  0  0  0  0  0  0  0  0  0  0
  161.3300  210.8360  139.7110 C   0  0  0  0  0  2  0  0  0  0  0  0
  160.0610  211.2480  140.4490 C   0  0  1  0  0  3  0  0  0  0  0  0
  160.2070  212.5560  140.9080 O   0  0  0  0  0  1  0  0  0  0  0  0
  158.8490  211.1830  139.5270 C   0  0  0  0  0  2  0  0  0  0  0  0
  158.5700  209.8580  139.1900 O   0  0  0  0  0  0  0  0  0  0  0  0
  157.2510  209.8840  138.7260 C   0  0  0  0  0  1  0  0  0  0  0  0
  162.9700  206.3870  139.1740 C   0  0  0  0  0  3  0  0  0  0  0  0
  162.2740  206.1150  138.2100 O   0  0  0  0  0  0  0  0  0  0  0  0
  1 10  1  0  0  0  0
  2  6  1  0  0  0  0
  2  7  1  6  0  0  0
  3  8  1  0  0  0  0
  3  9  1  0  0  0  0
  4  3  1  0  0  0  0
  5  4  2  0  0  0  0
  8  1  1  6  0  0  0
  8  2  1  0  0  0  0
  9 15  1  1  0  0  0
  9  7  1  0  0  0  0
 10 11  1  6  0  0  0
 10  6  1  0  0  0  0
 12 11  1  0  0  0  0
 13 12  1  0  0  0  0
 14 13  1  0  0  0  0
 16 15  1  0  0  0  0
 17 23  2  0  0  0  0
 17 26  1  0  0  0  0
 18 17  1  0  0  0  0
 19 27  2  0  0  0  0
 20 21  2  0  0  0  0
 21 22  1  0  0  0  0
 22 16  1  0  0  0  0
 22 25  2  0  0  0  0
 23 20  1  0  0  0  0
 24 21  1  0  0  0  0
 24 19  1  0  0  0  0
 26 24  2  0  0  0  0
 27 25  1  0  0  0  0
 27 28  1  0  0  0  0
 28 30  2  0  0  0  0
 29 28  1  0  0  0  0
 31 32  3  0  0  0  0
 32 29  1  0  0  0  0
 33  4  1  0  0  0  0
 34 33  1  0  0  0  0
 35 37  2  0  0  0  0
 36 38  2  0  0  0  0
 36 40  1  0  0  0  0
 37 34  1  0  0  0  0
 38 35  1  0  0  0  0
 39 36  1  0  0  0  0
 40 37  1  0  0  0  0
 41 39  1  0  0  0  0
 42 51  1  6  0  0  0
 42 41  1  0  0  0  0
 44 42  1  0  0  0  0
 44 43  2  0  0  0  0
 45 43  1  0  0  0  0
 45 46  1  0  0  0  0
 46 47  1  6  0  0  0
 48 46  1  0  0  0  0
 49 48  1  0  0  0  0
 50 49  1  0  0  0  0
 52 51  2  0  0  0  0
M  END
>  <MODEL>
4

>  <REMARK>
 VINA RESULT:      -4.5      2.793      8.269
  Name = 
  19 active torsions:
  status: ('A' for Active; 'I' for Inactive)
    1  A    between atoms: N_1  and  N_40
    2  A    between atoms: N_1  and  C_42
    3  A    between atoms: O_2  and  C_38
    4  A    between atoms: C_4  and  O_8
    5  A    between atoms: C_5  and  C_51
    6  A    between atoms: C_7  and  C_21
    7  A    between atoms: C_7  and  C_22
    8  A    between atoms: O_8  and  C_47
    9  A    between atoms: C_9  and  C_23
   10  A    between atoms: C_16  and  C_22
   11  A    between atoms: N_19  and  C_48
   12  A    between atoms: C_23  and  C_26
   13  A    between atoms: N_24  and  CA_34
   14  A    between atoms: C_26  and  C_38
   15  A    between atoms: C_28  and  N_40
   16  A    between atoms: C_29  and  CA_34
   17  A    between atoms: C_29  and  N_41
   18  A    between atoms: C_32  and  CA_34
   19  A    between atoms: C_47  and  C_50
                            x       y       z     vdW  Elec       q    Type
                         _______ _______ _______ _____ _____    ______ ____

>  <TORSDO>
F 19

$$$$
=
 OpenBabel11052412173D

 52 56  0  0  1  0  0  0  0  0999 V2000
  160.5150  203.0560  148.8350 N   0  0  0  0  0  2  0  0  0  0  0  0
  160.7910  203.0940  151.1270 C   0  0  1  0  0  3  0  0  0  0  0  0
  161.1220  205.1090  150.1560 N   0  0  0  0  0  0  0  0  0  0  0  0
  161.2470  206.0730  149.0990 C   0  0  0  0  0  0  0  0  0  0  0  0
  161.8910  207.1350  149.2940 O   0  0  0  0  0  0  0  0  0  0  0  0
  160.8830  201.3320  150.8600 S   0  0  0  0  0  0  0  0  0  0  0  0
  161.5160  203.8870  152.1620 C   0  0  0  0  0  2  0  0  0  0  0  0
  160.6290  203.7850  150.0450 C   0  0  1  0  0  3  0  0  0  0  0  0
  161.6920  205.2670  151.4900 C   0  0  2  0  0  3  0  0  0  0  0  0
  160.5060  201.6200  149.0760 C   0  0  2  0  0  3  0  0  0  0  0  0
  161.5500  200.9490  148.1980 C   0  0  0  0  0  2  0  0  0  0  0  0
  160.9320  200.3530  147.0980 O   0  0  0  0  0  0  0  0  0  0  0  0
  160.7730  201.3960  146.1800 C   0  0  0  0  0  2  0  0  0  0  0  0
  160.0790  200.8750  144.9410 C   0  0  0  0  0  1  0  0  0  0  0  0
  160.9410  206.2720  152.2260 N   0  0  0  0  0  2  0  0  0  0  0  0
  161.8370  207.3050  152.5390 N   0  0  0  0  0  2  0  0  0  0  0  0
  159.6560  210.5520  155.8150 C   0  0  0  0  0  0  0  0  0  0  0  0
  159.0220  211.2200  156.9810 C   0  0  0  0  0  1  0  0  0  0  0  0
  160.6690  211.3410  152.3830 N   0  0  0  0  0  0  0  0  0  0  0  0
  160.6300  208.5760  154.8020 C   0  0  0  0  0  3  0  0  0  0  0  0
  160.8480  209.2860  153.6120 C   0  0  0  0  0  0  0  0  0  0  0  0
  161.4420  208.6790  152.4940 C   0  0  0  0  0  0  0  0  0  0  0  0
  160.0350  209.2090  155.9000 C   0  0  0  0  0  3  0  0  0  0  0  0
  160.4630  210.6420  153.5310 C   0  0  0  0  0  0  0  0  0  0  0  0
  161.6390  209.4330  151.3310 C   0  0  0  0  0  3  0  0  0  0  0  0
  159.8680  211.2680  154.6320 C   0  0  0  0  0  3  0  0  0  0  0  0
  161.2400  210.7740  151.2810 C   0  0  0  0  0  0  0  0  0  0  0  0
  161.4580  211.6090  150.0760 C   0  0  0  0  0  0  0  0  0  0  0  0
  160.7220  212.8140  149.7960 N   0  0  0  0  0  2  0  0  0  0  0  0
  162.3350  211.2440  149.2490 O   0  0  0  0  0  0  0  0  0  0  0  0
  159.1450  214.0540  151.4650 C   0  0  0  0  0  3  0  0  0  0  0  0
  159.8720  213.4780  150.6930 C   0  0  0  0  0  0  0  0  0  0  0  0
  160.5930  205.8570  147.7700 C   0  0  0  0  0  2  0  0  0  0  0  0
  161.3090  204.7680  146.9840 C   0  0  0  0  0  2  0  0  0  0  0  0
  160.3410  204.9650  144.6780 N   0  0  0  0  0  0  0  0  0  0  0  0
  161.8900  205.8220  143.3090 C   0  0  0  0  0  0  0  0  0  0  0  0
  161.3780  205.1080  145.5320 C   0  0  0  0  0  0  0  0  0  0  0  0
  160.6260  205.3610  143.4370 N   0  0  0  0  0  0  0  0  0  0  0  0
  162.4310  206.3350  142.0900 N   0  0  0  0  0  2  0  0  0  0  0  0
  162.7330  205.7560  144.7630 S   0  0  0  0  0  0  0  0  0  0  0  0
  161.6370  206.4340  140.8710 C   0  0  0  0  0  2  0  0  0  0  0  0
  162.3050  207.3320  139.8260 C   0  0  2  0  0  3  0  0  0  0  0  0
  162.4620  209.6890  140.0270 C   0  0  0  0  0  3  0  0  0  0  0  0
  161.7320  208.6560  139.8130 N   0  0  0  0  0  0  0  0  0  0  0  0
  161.8630  211.0610  139.9960 C   0  0  0  0  0  2  0  0  0  0  0  0
  162.9130  212.1170  139.6650 C   0  0  1  0  0  3  0  0  0  0  0  0
  163.9150  211.5340  138.8920 O   0  0  0  0  0  1  0  0  0  0  0  0
  162.2970  213.2700  138.8840 C   0  0  0  0  0  2  0  0  0  0  0  0
  161.2230  213.8130  139.5900 O   0  0  0  0  0  0  0  0  0  0  0  0
  160.2480  214.0520  138.6170 C   0  0  0  0  0  1  0  0  0  0  0  0
  162.2820  206.7340  138.4520 C   0  0  0  0  0  3  0  0  0  0  0  0
  161.7070  207.2900  137.5310 O   0  0  0  0  0  0  0  0  0  0  0  0
  1 10  1  0  0  0  0
  2  7  1  6  0  0  0
  3  9  1  0  0  0  0
  4  5  2  0  0  0  0
  4  3  1  0  0  0  0
  6  2  1  0  0  0  0
  8  1  1  6  0  0  0
  8  3  1  0  0  0  0
  8  2  1  0  0  0  0
  9  7  1  0  0  0  0
  9 15  1  1  0  0  0
 10 11  1  6  0  0  0
 10  6  1  0  0  0  0
 12 11  1  0  0  0  0
 13 12  1  0  0  0  0
 14 13  1  0  0  0  0
 15 16  1  0  0  0  0
 17 23  1  0  0  0  0
 17 18  1  0  0  0  0
 19 24  1  0  0  0  0
 20 23  2  0  0  0  0
 21 20  1  0  0  0  0
 22 16  1  0  0  0  0
 22 21  1  0  0  0  0
 24 21  2  0  0  0  0
 24 26  1  0  0  0  0
 25 22  2  0  0  0  0
 26 17  2  0  0  0  0
 27 25  1  0  0  0  0
 27 19  2  0  0  0  0
 28 27  1  0  0  0  0
 29 28  1  0  0  0  0
 29 32  1  0  0  0  0
 30 28  2  0  0  0  0
 32 31  3  0  0  0  0
 33  4  1  0  0  0  0
 34 33  1  0  0  0  0
 35 37  2  0  0  0  0
 36 38  2  0  0  0  0
 36 40  1  0  0  0  0
 37 34  1  0  0  0  0
 38 35  1  0  0  0  0
 39 36  1  0  0  0  0
 40 37  1  0  0  0  0
 41 39  1  0  0  0  0
 42 51  1  6  0  0  0
 42 41  1  0  0  0  0
 44 42  1  0  0  0  0
 44 43  2  0  0  0  0
 45 43  1  0  0  0  0
 46 47  1  6  0  0  0
 46 45  1  0  0  0  0
 48 49  1  0  0  0  0
 48 46  1  0  0  0  0
 50 49  1  0  0  0  0
 52 51  2  0  0  0  0
M  END
>  <MODEL>
5

>  <REMARK>
 VINA RESULT:      -4.3      2.963      8.105
  Name = 
  19 active torsions:
  status: ('A' for Active; 'I' for Inactive)
    1  A    between atoms: N_1  and  N_40
    2  A    between atoms: N_1  and  C_42
    3  A    between atoms: O_2  and  C_38
    4  A    between atoms: C_4  and  O_8
    5  A    between atoms: C_5  and  C_51
    6  A    between atoms: C_7  and  C_21
    7  A    between atoms: C_7  and  C_22
    8  A    between atoms: O_8  and  C_47
    9  A    between atoms: C_9  and  C_23
   10  A    between atoms: C_16  and  C_22
   11  A    between atoms: N_19  and  C_48
   12  A    between atoms: C_23  and  C_26
   13  A    between atoms: N_24  and  CA_34
   14  A    between atoms: C_26  and  C_38
   15  A    between atoms: C_28  and  N_40
   16  A    between atoms: C_29  and  CA_34
   17  A    between atoms: C_29  and  N_41
   18  A    between atoms: C_32  and  CA_34
   19  A    between atoms: C_47  and  C_50
                            x       y       z     vdW  Elec       q    Type
                         _______ _______ _______ _____ _____    ______ ____

>  <TORSDO>
F 19

$$$$
=
 OpenBabel11052412173D

 52 56  0  0  1  0  0  0  0  0999 V2000
  161.4760  208.2390  147.6510 N   0  0  0  0  0  2  0  0  0  0  0  0
  161.5900  207.8680  149.9270 C   0  0  1  0  0  3  0  0  0  0  0  0
  161.8990  210.0360  149.3620 N   0  0  0  0  0  0  0  0  0  0  0  0
  162.0530  211.1790  148.5070 C   0  0  0  0  0  0  0  0  0  0  0  0
  162.6350  212.2070  148.9380 O   0  0  0  0  0  0  0  0  0  0  0  0
  161.7790  206.1870  149.3570 S   0  0  0  0  0  0  0  0  0  0  0  0
  162.2060  208.4820  151.1410 C   0  0  0  0  0  2  0  0  0  0  0  0
  161.4740  208.7390  148.9770 C   0  0  1  0  0  3  0  0  0  0  0  0
  162.3660  209.9650  150.7420 C   0  0  2  0  0  3  0  0  0  0  0  0
  161.5150  206.7830  147.6290 C   0  0  2  0  0  3  0  0  0  0  0  0
  162.6460  206.3170  146.7280 C   0  0  0  0  0  2  0  0  0  0  0  0
  162.1300  205.8820  145.5060 O   0  0  0  0  0  0  0  0  0  0  0  0
  162.4070  204.5130  145.4790 C   0  0  0  0  0  2  0  0  0  0  0  0
  161.1140  203.7400  145.3340 C   0  0  0  0  0  1  0  0  0  0  0  0
  161.5230  210.7960  151.5860 N   0  0  0  0  0  2  0  0  0  0  0  0
  161.9040  210.5540  152.9130 N   0  0  0  0  0  2  0  0  0  0  0  0
  157.7660  212.5290  155.1510 C   0  0  0  0  0  0  0  0  0  0  0  0
  156.6350  213.3810  155.6030 C   0  0  0  0  0  1  0  0  0  0  0  0
  159.1640  209.2050  155.8020 N   0  0  0  0  0  0  0  0  0  0  0  0
  159.7260  212.2070  153.7600 C   0  0  0  0  0  3  0  0  0  0  0  0
  159.9050  210.9240  154.2990 C   0  0  0  0  0  0  0  0  0  0  0  0
  160.9650  210.0990  153.8920 C   0  0  0  0  0  0  0  0  0  0  0  0
  158.6590  213.0060  154.1860 C   0  0  0  0  0  3  0  0  0  0  0  0
  159.0010  210.4470  155.2730 C   0  0  0  0  0  0  0  0  0  0  0  0
  161.0970  208.8260  154.4600 C   0  0  0  0  0  3  0  0  0  0  0  0
  157.9370  211.2520  155.6940 C   0  0  0  0  0  3  0  0  0  0  0  0
  160.1870  208.3850  155.4280 C   0  0  0  0  0  0  0  0  0  0  0  0
  160.2820  207.0340  156.0290 C   0  0  0  0  0  0  0  0  0  0  0  0
  160.6380  205.8530  155.2870 N   0  0  0  0  0  2  0  0  0  0  0  0
  160.0370  206.9110  157.2590 O   0  0  0  0  0  0  0  0  0  0  0  0
  161.5840  205.8120  152.8550 C   0  0  0  0  0  3  0  0  0  0  0  0
  161.1430  205.8330  153.9780 C   0  0  0  0  0  0  0  0  0  0  0  0
  161.5040  211.1880  147.1150 C   0  0  0  0  0  2  0  0  0  0  0  0
  161.6110  212.5760  146.4980 C   0  0  0  0  0  2  0  0  0  0  0  0
  160.2090  211.8560  144.5470 N   0  0  0  0  0  0  0  0  0  0  0  0
  160.9940  212.8280  142.6890 C   0  0  0  0  0  0  0  0  0  0  0  0
  161.2530  212.5510  145.0490 C   0  0  0  0  0  0  0  0  0  0  0  0
  160.0640  212.0080  143.2300 N   0  0  0  0  0  0  0  0  0  0  0  0
  161.0380  213.1780  141.3040 N   0  0  0  0  0  2  0  0  0  0  0  0
  162.0640  213.4130  143.8470 S   0  0  0  0  0  0  0  0  0  0  0  0
  160.0450  212.6960  140.3520 C   0  0  0  0  0  2  0  0  0  0  0  0
  160.6930  211.9510  139.1800 C   0  0  2  0  0  3  0  0  0  0  0  0
  158.6570  210.7420  139.0790 C   0  0  0  0  0  3  0  0  0  0  0  0
  159.7510  211.0910  138.5070 N   0  0  0  0  0  0  0  0  0  0  0  0
  157.6760  209.8620  138.3680 C   0  0  0  0  0  2  0  0  0  0  0  0
  156.2400  210.2750  138.6700 C   0  0  1  0  0  3  0  0  0  0  0  0
  156.2260  211.6110  139.0700 O   0  0  0  0  0  1  0  0  0  0  0  0
  155.3580  210.1210  137.4380 C   0  0  0  0  0  2  0  0  0  0  0  0
  154.1760  209.4590  137.7690 O   0  0  0  0  0  0  0  0  0  0  0  0
  153.3880  210.4340  138.3880 C   0  0  0  0  0  1  0  0  0  0  0  0
  161.9130  211.1830  139.5890 C   0  0  0  0  0  3  0  0  0  0  0  0
  163.0100  211.4490  139.1280 O   0  0  0  0  0  0  0  0  0  0  0  0
  2  7  1  6  0  0  0
  3  9  1  0  0  0  0
  4  5  2  0  0  0  0
  4  3  1  0  0  0  0
  6  2  1  0  0  0  0
  8  1  1  6  0  0  0
  8  3  1  0  0  0  0
  8  2  1  0  0  0  0
  9  7  1  0  0  0  0
  9 15  1  1  0  0  0
 10 11  1  6  0  0  0
 10  1  1  0  0  0  0
 10  6  1  0  0  0  0
 12 11  1  0  0  0  0
 13 12  1  0  0  0  0
 14 13  1  0  0  0  0
 15 16  1  0  0  0  0
 16 22  1  0  0  0  0
 17 18  1  0  0  0  0
 17 26  1  0  0  0  0
 20 23  1  0  0  0  0
 20 21  2  0  0  0  0
 21 24  1  0  0  0  0
 22 21  1  0  0  0  0
 22 25  2  0  0  0  0
 23 17  2  0  0  0  0
 24 26  2  0  0  0  0
 24 19  1  0  0  0  0
 25 27  1  0  0  0  0
 27 19  2  0  0  0  0
 27 28  1  0  0  0  0
 28 30  2  0  0  0  0
 29 28  1  0  0  0  0
 31 32  3  0  0  0  0
 32 29  1  0  0  0  0
 33  4  1  0  0  0  0
 34 33  1  0  0  0  0
 35 37  2  0  0  0  0
 36 38  2  0  0  0  0
 36 40  1  0  0  0  0
 37 34  1  0  0  0  0
 38 35  1  0  0  0  0
 39 36  1  0  0  0  0
 40 37  1  0  0  0  0
 41 39  1  0  0  0  0
 42 51  1  1  0  0  0
 42 41  1  0  0  0  0
 44 43  2  0  0  0  0
 44 42  1  0  0  0  0
 45 46  1  0  0  0  0
 45 43  1  0  0  0  0
 46 47  1  6  0  0  0
 48 49  1  0  0  0  0
 48 46  1  0  0  0  0
 49 50  1  0  0  0  0
 52 51  2  0  0  0  0
M  END
>  <MODEL>
6

>  <REMARK>
 VINA RESULT:      -4.0      2.780      7.186
  Name = 
  19 active torsions:
  status: ('A' for Active; 'I' for Inactive)
    1  A    between atoms: N_1  and  N_40
    2  A    between atoms: N_1  and  C_42
    3  A    between atoms: O_2  and  C_38
    4  A    between atoms: C_4  and  O_8
    5  A    between atoms: C_5  and  C_51
    6  A    between atoms: C_7  and  C_21
    7  A    between atoms: C_7  and  C_22
    8  A    between atoms: O_8  and  C_47
    9  A    between atoms: C_9  and  C_23
   10  A    between atoms: C_16  and  C_22
   11  A    between atoms: N_19  and  C_48
   12  A    between atoms: C_23  and  C_26
   13  A    between atoms: N_24  and  CA_34
   14  A    between atoms: C_26  and  C_38
   15  A    between atoms: C_28  and  N_40
   16  A    between atoms: C_29  and  CA_34
   17  A    between atoms: C_29  and  N_41
   18  A    between atoms: C_32  and  CA_34
   19  A    between atoms: C_47  and  C_50
                            x       y       z     vdW  Elec       q    Type
                         _______ _______ _______ _____ _____    ______ ____

>  <TORSDO>
F 19

$$$$
=
 OpenBabel11052412173D

 52 56  0  0  1  0  0  0  0  0999 V2000
  161.7470  209.9300  152.6880 N   0  0  0  0  0  2  0  0  0  0  0  0
  161.2250  207.6880  152.8670 C   0  0  1  0  0  3  0  0  0  0  0  0
  161.5180  208.3670  150.7300 N   0  0  0  0  0  0  0  0  0  0  0  0
  161.7590  209.2730  149.6420 C   0  0  0  0  0  0  0  0  0  0  0  0
  161.3790  208.9720  148.4820 O   0  0  0  0  0  0  0  0  0  0  0  0
  160.7320  208.2240  154.4960 S   0  0  0  0  0  0  0  0  0  0  0  0
  160.6030  206.6060  152.0470 C   0  0  0  0  0  2  0  0  0  0  0  0
  161.6780  208.6370  152.1120 C   0  0  1  0  0  3  0  0  0  0  0  0
  160.8540  207.0740  150.5970 C   0  0  2  0  0  3  0  0  0  0  0  0
  161.3730  209.9080  154.0950 C   0  0  2  0  0  3  0  0  0  0  0  0
  160.3050  210.9580  154.3540 C   0  0  0  0  0  2  0  0  0  0  0  0
  159.1940  210.7140  153.5440 O   0  0  0  0  0  0  0  0  0  0  0  0
  158.5410  211.9470  153.4680 C   0  0  0  0  0  2  0  0  0  0  0  0
  158.0300  212.3320  154.8390 C   0  0  0  0  0  1  0  0  0  0  0  0
  161.7390  206.1380  149.9230 N   0  0  0  0  0  2  0  0  0  0  0  0
  161.0980  204.8910  149.9280 N   0  0  0  0  0  2  0  0  0  0  0  0
  161.2110  205.3700  144.8500 C   0  0  0  0  0  0  0  0  0  0  0  0
  161.2100  205.8490  143.4430 C   0  0  0  0  0  1  0  0  0  0  0  0
  161.4130  202.2140  146.7010 N   0  0  0  0  0  0  0  0  0  0  0  0
  161.1070  205.8370  147.2260 C   0  0  0  0  0  3  0  0  0  0  0  0
  161.2090  204.4670  147.5070 C   0  0  0  0  0  0  0  0  0  0  0  0
  161.2100  203.9860  148.8260 C   0  0  0  0  0  0  0  0  0  0  0  0
  161.1080  206.2860  145.9010 C   0  0  0  0  0  3  0  0  0  0  0  0
  161.3130  203.5450  146.4420 C   0  0  0  0  0  0  0  0  0  0  0  0
  161.3170  202.6080  149.0510 C   0  0  0  0  0  3  0  0  0  0  0  0
  161.3130  204.0010  145.1200 C   0  0  0  0  0  3  0  0  0  0  0  0
  161.4130  201.7200  147.9730 C   0  0  0  0  0  0  0  0  0  0  0  0
  161.5530  200.2590  148.1760 C   0  0  0  0  0  0  0  0  0  0  0  0
  161.2050  199.2780  147.1820 N   0  0  0  0  0  2  0  0  0  0  0  0
  162.0040  199.8510  149.2800 O   0  0  0  0  0  0  0  0  0  0  0  0
  160.6300  199.7900  144.6880 C   0  0  0  0  0  3  0  0  0  0  0  0
  160.8950  199.5490  145.8400 C   0  0  0  0  0  0  0  0  0  0  0  0
  162.4890  210.5620  149.8540 C   0  0  0  0  0  2  0  0  0  0  0  0
  161.5140  211.7280  149.9540 C   0  0  0  0  0  2  0  0  0  0  0  0
  161.7920  213.6550  148.3740 N   0  0  0  0  0  0  0  0  0  0  0  0
  160.9300  213.0960  146.3850 C   0  0  0  0  0  0  0  0  0  0  0  0
  161.3480  212.4070  148.6360 C   0  0  0  0  0  0  0  0  0  0  0  0
  161.5580  214.0420  147.1190 N   0  0  0  0  0  0  0  0  0  0  0  0
  160.5950  213.2510  145.0040 N   0  0  0  0  0  2  0  0  0  0  0  0
  160.6270  211.7050  147.2810 S   0  0  0  0  0  0  0  0  0  0  0  0
  160.9390  214.4520  144.2540 C   0  0  0  0  0  2  0  0  0  0  0  0
  161.7530  214.1270  142.9980 C   0  0  2  0  0  3  0  0  0  0  0  0
  160.9760  213.4330  140.8690 C   0  0  0  0  0  3  0  0  0  0  0  0
  161.0550  213.2110  142.1300 N   0  0  0  0  0  0  0  0  0  0  0  0
  160.2640  212.4690  139.9720 C   0  0  0  0  0  2  0  0  0  0  0  0
  161.2420  211.7280  139.0670 C   0  0  1  0  0  3  0  0  0  0  0  0
  162.5350  211.8940  139.5630 O   0  0  0  0  0  1  0  0  0  0  0  0
  160.9210  210.2390  139.0220 C   0  0  0  0  0  2  0  0  0  0  0  0
  161.7940  209.5310  139.8480 O   0  0  0  0  0  0  0  0  0  0  0  0
  161.6480  208.1980  139.4530 C   0  0  0  0  0  1  0  0  0  0  0  0
  163.1250  213.6130  143.3170 C   0  0  0  0  0  3  0  0  0  0  0  0
  164.0830  214.3660  143.3740 O   0  0  0  0  0  0  0  0  0  0  0  0
  1 10  1  0  0  0  0
  2  7  1  6  0  0  0
  2  6  1  0  0  0  0
  3  8  1  0  0  0  0
  4 33  1  0  0  0  0
  4  3  1  0  0  0  0
  5  4  2  0  0  0  0
  8  1  1  1  0  0  0
  8  2  1  0  0  0  0
  9 15  1  1  0  0  0
  9  3  1  0  0  0  0
  9  7  1  0  0  0  0
 10 11  1  6  0  0  0
 10  6  1  0  0  0  0
 12 11  1  0  0  0  0
 13 12  1  0  0  0  0
 13 14  1  0  0  0  0
 15 16  1  0  0  0  0
 17 26  2  0  0  0  0
 17 23  1  0  0  0  0
 18 17  1  0  0  0  0
 19 27  1  0  0  0  0
 20 21  1  0  0  0  0
 21 22  2  0  0  0  0
 22 25  1  0  0  0  0
 22 16  1  0  0  0  0
 23 20  2  0  0  0  0
 24 19  2  0  0  0  0
 24 21  1  0  0  0  0
 26 24  1  0  0  0  0
 27 28  1  0  0  0  0
 27 25  2  0  0  0  0
 28 30  2  0  0  0  0
 29 28  1  0  0  0  0
 31 32  3  0  0  0  0
 32 29  1  0  0  0  0
 33 34  1  0  0  0  0
 35 37  2  0  0  0  0
 36 38  2  0  0  0  0
 36 40  1  0  0  0  0
 37 34  1  0  0  0  0
 38 35  1  0  0  0  0
 39 36  1  0  0  0  0
 40 37  1  0  0  0  0
 41 39  1  0  0  0  0
 42 51  1  1  0  0  0
 42 41  1  0  0  0  0
 43 44  2  0  0  0  0
 44 42  1  0  0  0  0
 45 43  1  0  0  0  0
 46 47  1  1  0  0  0
 46 45  1  0  0  0  0
 48 46  1  0  0  0  0
 48 49  1  0  0  0  0
 50 49  1  0  0  0  0
 51 52  2  0  0  0  0
M  END
>  <MODEL>
7

>  <REMARK>
 VINA RESULT:      -3.9      2.063      3.409
  Name = 
  19 active torsions:
  status: ('A' for Active; 'I' for Inactive)
    1  A    between atoms: N_1  and  N_40
    2  A    between atoms: N_1  and  C_42
    3  A    between atoms: O_2  and  C_38
    4  A    between atoms: C_4  and  O_8
    5  A    between atoms: C_5  and  C_51
    6  A    between atoms: C_7  and  C_21
    7  A    between atoms: C_7  and  C_22
    8  A    between atoms: O_8  and  C_47
    9  A    between atoms: C_9  and  C_23
   10  A    between atoms: C_16  and  C_22
   11  A    between atoms: N_19  and  C_48
   12  A    between atoms: C_23  and  C_26
   13  A    between atoms: N_24  and  CA_34
   14  A    between atoms: C_26  and  C_38
   15  A    between atoms: C_28  and  N_40
   16  A    between atoms: C_29  and  CA_34
   17  A    between atoms: C_29  and  N_41
   18  A    between atoms: C_32  and  CA_34
   19  A    between atoms: C_47  and  C_50
                            x       y       z     vdW  Elec       q    Type
                         _______ _______ _______ _____ _____    ______ ____

>  <TORSDO>
F 19

$$$$
=
 OpenBabel11052412173D

 52 56  0  0  1  0  0  0  0  0999 V2000
  161.6420  210.9020  152.7140 N   0  0  0  0  0  2  0  0  0  0  0  0
  161.1850  208.6590  153.0090 C   0  0  1  0  0  3  0  0  0  0  0  0
  161.5230  209.2220  150.8450 N   0  0  0  0  0  0  0  0  0  0  0  0
  161.7710  210.0710  149.7140 C   0  0  0  0  0  0  0  0  0  0  0  0
  161.4370  209.6920  148.5620 O   0  0  0  0  0  0  0  0  0  0  0  0
  160.6240  209.2710  154.5880 S   0  0  0  0  0  0  0  0  0  0  0  0
  160.6230  207.5110  152.2360 C   0  0  0  0  0  2  0  0  0  0  0  0
  161.6310  209.5760  152.2130 C   0  0  1  0  0  3  0  0  0  0  0  0
  160.9040  207.9030  150.7690 C   0  0  2  0  0  3  0  0  0  0  0  0
  161.2250  210.9500  154.1080 C   0  0  2  0  0  3  0  0  0  0  0  0
  160.1170  211.9770  154.2730 C   0  0  0  0  0  2  0  0  0  0  0  0
  158.9480  211.3480  154.7050 O   0  0  0  0  0  0  0  0  0  0  0  0
  158.2110  212.3650  155.3190 C   0  0  0  0  0  2  0  0  0  0  0  0
  158.9320  213.6840  155.1440 C   0  0  0  0  0  1  0  0  0  0  0  0
  161.8390  206.9590  150.1770 N   0  0  0  0  0  2  0  0  0  0  0  0
  161.1910  205.7160  150.1260 N   0  0  0  0  0  2  0  0  0  0  0  0
  160.9740  200.6740  149.3830 C   0  0  0  0  0  0  0  0  0  0  0  0
  160.8580  199.1970  149.5120 C   0  0  0  0  0  1  0  0  0  0  0  0
  161.5750  203.1900  146.7880 N   0  0  0  0  0  0  0  0  0  0  0  0
  160.9500  202.8770  150.3950 C   0  0  0  0  0  3  0  0  0  0  0  0
  161.1980  203.4610  149.1440 C   0  0  0  0  0  0  0  0  0  0  0  0
  161.3160  204.8520  148.9930 C   0  0  0  0  0  0  0  0  0  0  0  0
  160.8390  201.4870  150.5120 C   0  0  0  0  0  3  0  0  0  0  0  0
  161.3350  202.6350  148.0060 C   0  0  0  0  0  0  0  0  0  0  0  0
  161.5610  205.3830  147.7220 C   0  0  0  0  0  3  0  0  0  0  0  0
  161.2230  201.2470  148.1320 C   0  0  0  0  0  3  0  0  0  0  0  0
  161.6970  204.5370  146.6150 C   0  0  0  0  0  0  0  0  0  0  0  0
  161.9310  205.0680  145.2510 C   0  0  0  0  0  0  0  0  0  0  0  0
  161.0840  204.7750  144.1240 N   0  0  0  0  0  2  0  0  0  0  0  0
  162.9260  205.8180  145.0660 O   0  0  0  0  0  0  0  0  0  0  0  0
  158.7550  203.6050  144.2450 C   0  0  0  0  0  3  0  0  0  0  0  0
  159.8330  204.1430  144.1870 C   0  0  0  0  0  0  0  0  0  0  0  0
  162.4530  211.3940  149.8700 C   0  0  0  0  0  2  0  0  0  0  0  0
  161.4490  212.5360  149.7850 C   0  0  0  0  0  2  0  0  0  0  0  0
  162.0780  214.0280  147.8690 N   0  0  0  0  0  0  0  0  0  0  0  0
  160.8320  213.4910  146.0890 C   0  0  0  0  0  0  0  0  0  0  0  0
  161.3200  213.0360  148.3840 C   0  0  0  0  0  0  0  0  0  0  0  0
  161.8050  214.2850  146.5890 N   0  0  0  0  0  0  0  0  0  0  0  0
  160.3780  213.5430  144.7340 N   0  0  0  0  0  2  0  0  0  0  0  0
  160.2490  212.4110  147.2390 S   0  0  0  0  0  0  0  0  0  0  0  0
  160.9630  214.4530  143.7570 C   0  0  0  0  0  2  0  0  0  0  0  0
  160.9400  213.8640  142.3430 C   0  0  2  0  0  3  0  0  0  0  0  0
  159.1940  213.7760  140.7410 C   0  0  0  0  0  3  0  0  0  0  0  0
  159.6030  213.5160  141.9300 N   0  0  0  0  0  0  0  0  0  0  0  0
  157.8110  213.3970  140.3150 C   0  0  0  0  0  2  0  0  0  0  0  0
  157.8340  212.5400  139.0530 C   0  0  1  0  0  3  0  0  0  0  0  0
  159.1530  212.4020  138.6230 O   0  0  0  0  0  1  0  0  0  0  0  0
  157.2580  211.1570  139.3230 C   0  0  0  0  0  2  0  0  0  0  0  0
  156.0560  210.9910  138.6350 O   0  0  0  0  0  0  0  0  0  0  0  0
  155.2390  210.2800  139.5190 C   0  0  0  0  0  1  0  0  0  0  0  0
  161.8620  212.6920  142.1920 C   0  0  0  0  0  3  0  0  0  0  0  0
  162.9870  212.7090  142.6630 O   0  0  0  0  0  0  0  0  0  0  0  0
  1 10  1  0  0  0  0
  2  7  1  6  0  0  0
  2  6  1  0  0  0  0
  3  8  1  0  0  0  0
  4 33  1  0  0  0  0
  4  3  1  0  0  0  0
  5  4  2  0  0  0  0
  8  1  1  6  0  0  0
  8  2  1  0  0  0  0
  9 15  1  1  0  0  0
  9  3  1  0  0  0  0
  9  7  1  0  0  0  0
 10 11  1  6  0  0  0
 10  6  1  0  0  0  0
 11 12  1  0  0  0  0
 12 13  1  0  0  0  0
 14 13  1  0  0  0  0
 16 15  1  0  0  0  0
 17 18  1  0  0  0  0
 17 23  1  0  0  0  0
 19 24  1  0  0  0  0
 20 23  2  0  0  0  0
 21 20  1  0  0  0  0
 22 21  1  0  0  0  0
 22 16  1  0  0  0  0
 24 26  1  0  0  0  0
 24 21  2  0  0  0  0
 25 22  2  0  0  0  0
 26 17  2  0  0  0  0
 27 19  2  0  0  0  0
 27 25  1  0  0  0  0
 28 27  1  0  0  0  0
 29 32  1  0  0  0  0
 29 28  1  0  0  0  0
 30 28  2  0  0  0  0
 32 31  3  0  0  0  0
 34 33  1  0  0  0  0
 35 37  2  0  0  0  0
 36 38  2  0  0  0  0
 36 40  1  0  0  0  0
 37 34  1  0  0  0  0
 38 35  1  0  0  0  0
 39 36  1  0  0  0  0
 40 37  1  0  0  0  0
 41 39  1  0  0  0  0
 42 51  1  1  0  0  0
 42 41  1  0  0  0  0
 43 44  2  0  0  0  0
 44 42  1  0  0  0  0
 45 43  1  0  0  0  0
 46 47  1  1  0  0  0
 46 48  1  0  0  0  0
 46 45  1  0  0  0  0
 49 48  1  0  0  0  0
 49 50  1  0  0  0  0
 51 52  2  0  0  0  0
M  END
>  <MODEL>
8

>  <REMARK>
 VINA RESULT:      -3.4      1.738      1.990
  Name = 
  19 active torsions:
  status: ('A' for Active; 'I' for Inactive)
    1  A    between atoms: N_1  and  N_40
    2  A    between atoms: N_1  and  C_42
    3  A    between atoms: O_2  and  C_38
    4  A    between atoms: C_4  and  O_8
    5  A    between atoms: C_5  and  C_51
    6  A    between atoms: C_7  and  C_21
    7  A    between atoms: C_7  and  C_22
    8  A    between atoms: O_8  and  C_47
    9  A    between atoms: C_9  and  C_23
   10  A    between atoms: C_16  and  C_22
   11  A    between atoms: N_19  and  C_48
   12  A    between atoms: C_23  and  C_26
   13  A    between atoms: N_24  and  CA_34
   14  A    between atoms: C_26  and  C_38
   15  A    between atoms: C_28  and  N_40
   16  A    between atoms: C_29  and  CA_34
   17  A    between atoms: C_29  and  N_41
   18  A    between atoms: C_32  and  CA_34
   19  A    between atoms: C_47  and  C_50
                            x       y       z     vdW  Elec       q    Type
                         _______ _______ _______ _____ _____    ______ ____

>  <TORSDO>
F 19

$$$$
=
 OpenBabel11052412173D

 52 56  0  0  1  0  0  0  0  0999 V2000
  162.0030  212.0600  146.8300 N   0  0  0  0  0  2  0  0  0  0  0  0
  160.9750  213.7110  148.0740 C   0  0  1  0  0  3  0  0  0  0  0  0
  161.1440  211.7420  149.1730 N   0  0  0  0  0  0  0  0  0  0  0  0
  161.4570  210.3560  149.3800 C   0  0  0  0  0  0  0  0  0  0  0  0
  160.8670  209.7110  150.2840 O   0  0  0  0  0  0  0  0  0  0  0  0
  160.8450  214.4530  146.4560 S   0  0  0  0  0  0  0  0  0  0  0  0
  160.0060  213.8340  149.2020 C   0  0  0  0  0  2  0  0  0  0  0  0
  161.5440  212.5480  148.0780 C   0  0  1  0  0  3  0  0  0  0  0  0
  160.1730  212.4970  149.9570 C   0  0  2  0  0  3  0  0  0  0  0  0
  161.8210  213.0440  145.7710 C   0  0  2  0  0  3  0  0  0  0  0  0
  161.0860  212.4070  144.6040 C   0  0  0  0  0  2  0  0  0  0  0  0
  159.7160  212.6480  144.7190 O   0  0  0  0  0  0  0  0  0  0  0  0
  159.2250  212.4900  143.4190 C   0  0  0  0  0  2  0  0  0  0  0  0
  160.3730  212.1930  142.4800 C   0  0  0  0  0  1  0  0  0  0  0  0
  160.7060  212.7450  151.2870 N   0  0  0  0  0  2  0  0  0  0  0  0
  160.6160  211.5390  151.9970 N   0  0  0  0  0  2  0  0  0  0  0  0
  160.4180  207.9690  155.6370 C   0  0  0  0  0  0  0  0  0  0  0  0
  160.4990  206.7260  156.4480 C   0  0  0  0  0  1  0  0  0  0  0  0
  159.2910  211.4380  155.9850 N   0  0  0  0  0  0  0  0  0  0  0  0
  160.7940  209.1380  153.5460 C   0  0  0  0  0  3  0  0  0  0  0  0
  160.2620  210.3120  154.1000 C   0  0  0  0  0  0  0  0  0  0  0  0
  160.1720  211.4990  153.3560 C   0  0  0  0  0  0  0  0  0  0  0  0
  160.8700  207.9700  154.3130 C   0  0  0  0  0  3  0  0  0  0  0  0
  159.8070  210.3060  155.4370 C   0  0  0  0  0  0  0  0  0  0  0  0
  159.6360  212.6440  153.9570 C   0  0  0  0  0  3  0  0  0  0  0  0
  159.8860  209.1350  156.1970 C   0  0  0  0  0  3  0  0  0  0  0  0
  159.1880  212.6030  155.2830 C   0  0  0  0  0  0  0  0  0  0  0  0
  158.6400  213.8030  155.9590 C   0  0  0  0  0  0  0  0  0  0  0  0
  157.3170  214.3190  155.7200 N   0  0  0  0  0  2  0  0  0  0  0  0
  159.3710  214.4050  156.7890 O   0  0  0  0  0  0  0  0  0  0  0  0
  155.4310  213.1120  154.3800 C   0  0  0  0  0  3  0  0  0  0  0  0
  156.3040  213.6670  155.0020 C   0  0  0  0  0  0  0  0  0  0  0  0
  162.5010  209.6650  148.5610 C   0  0  0  0  0  2  0  0  0  0  0  0
  162.8790  208.3260  149.1810 C   0  0  0  0  0  2  0  0  0  0  0  0
  161.1910  206.9650  147.9180 N   0  0  0  0  0  0  0  0  0  0  0  0
  162.2470  205.3030  146.8530 C   0  0  0  0  0  0  0  0  0  0  0  0
  162.4660  207.1910  148.3030 C   0  0  0  0  0  0  0  0  0  0  0  0
  161.0670  205.9110  147.1110 N   0  0  0  0  0  0  0  0  0  0  0  0
  162.3890  204.1710  145.9920 N   0  0  0  0  0  2  0  0  0  0  0  0
  163.5280  206.0610  147.6360 S   0  0  0  0  0  0  0  0  0  0  0  0
  161.2550  203.5910  145.2830 C   0  0  0  0  0  2  0  0  0  0  0  0
  160.5750  202.4880  146.1000 C   0  0  2  0  0  3  0  0  0  0  0  0
  160.7760  201.4790  148.2370 C   0  0  0  0  0  3  0  0  0  0  0  0
  161.0350  202.4740  147.4670 N   0  0  0  0  0  0  0  0  0  0  0  0
  161.2710  201.4640  149.6490 C   0  0  0  0  0  2  0  0  0  0  0  0
  160.4790  202.4300  150.5250 C   0  0  1  0  0  3  0  0  0  0  0  0
  160.5660  202.0140  151.8520 O   0  0  0  0  0  1  0  0  0  0  0  0
  161.0330  203.8440  150.4150 C   0  0  0  0  0  2  0  0  0  0  0  0
  161.6020  204.2360  151.6270 O   0  0  0  0  0  0  0  0  0  0  0  0
  161.7210  205.6250  151.5270 C   0  0  0  0  0  1  0  0  0  0  0  0
  160.7260  201.1330  145.4780 C   0  0  0  0  0  3  0  0  0  0  0  0
  159.8230  200.6320  144.8290 O   0  0  0  0  0  0  0  0  0  0  0  0
  2  8  1  0  0  0  0
  2  7  1  6  0  0  0
  3  4  1  0  0  0  0
  3  9  1  0  0  0  0
  4  5  2  0  0  0  0
  6  2  1  0  0  0  0
  7  9  1  0  0  0  0
  8  1  1  6  0  0  0
  8  3  1  0  0  0  0
  9 15  1  1  0  0  0
 10 11  1  6  0  0  0
 10  6  1  0  0  0  0
 10  1  1  0  0  0  0
 11 12  1  0  0  0  0
 13 12  1  0  0  0  0
 14 13  1  0  0  0  0
 15 16  1  0  0  0  0
 16 22  1  0  0  0  0
 17 26  1  0  0  0  0
 17 18  1  0  0  0  0
 20 21  2  0  0  0  0
 20 23  1  0  0  0  0
 21 24  1  0  0  0  0
 22 25  2  0  0  0  0
 22 21  1  0  0  0  0
 23 17  2  0  0  0  0
 24 19  1  0  0  0  0
 24 26  2  0  0  0  0
 25 27  1  0  0  0  0
 27 28  1  0  0  0  0
 27 19  2  0  0  0  0
 28 30  2  0  0  0  0
 29 28  1  0  0  0  0
 31 32  3  0  0  0  0
 32 29  1  0  0  0  0
 33 34  1  0  0  0  0
 33  4  1  0  0  0  0
 35 37  2  0  0  0  0
 36 38  2  0  0  0  0
 36 40  1  0  0  0  0
 37 34  1  0  0  0  0
 38 35  1  0  0  0  0
 39 36  1  0  0  0  0
 40 37  1  0  0  0  0
 41 39  1  0  0  0  0
 42 41  1  6  0  0  0
 42 44  1  0  0  0  0
 43 45  1  0  0  0  0
 44 43  2  0  0  0  0
 45 46  1  0  0  0  0
 46 47  1  1  0  0  0
 48 46  1  0  0  0  0
 48 49  1  0  0  0  0
 50 49  1  0  0  0  0
 51 42  1  0  0  0  0
 52 51  2  0  0  0  0
M  END
>  <MODEL>
9

>  <REMARK>
 VINA RESULT:      -2.9      3.150      9.979
  Name = 
  19 active torsions:
  status: ('A' for Active; 'I' for Inactive)
    1  A    between atoms: N_1  and  N_40
    2  A    between atoms: N_1  and  C_42
    3  A    between atoms: O_2  and  C_38
    4  A    between atoms: C_4  and  O_8
    5  A    between atoms: C_5  and  C_51
    6  A    between atoms: C_7  and  C_21
    7  A    between atoms: C_7  and  C_22
    8  A    between atoms: O_8  and  C_47
    9  A    between atoms: C_9  and  C_23
   10  A    between atoms: C_16  and  C_22
   11  A    between atoms: N_19  and  C_48
   12  A    between atoms: C_23  and  C_26
   13  A    between atoms: N_24  and  CA_34
   14  A    between atoms: C_26  and  C_38
   15  A    between atoms: C_28  and  N_40
   16  A    between atoms: C_29  and  CA_34
   17  A    between atoms: C_29  and  N_41
   18  A    between atoms: C_32  and  CA_34
   19  A    between atoms: C_47  and  C_50
                            x       y       z     vdW  Elec       q    Type
                         _______ _______ _______ _____ _____    ______ ____

>  <TORSDO>
F 19

$$$$
