=
 OpenBabel11042422153D

 50 54  0  0  1  0  0  0  0  0999 V2000
  161.7430  211.2730  149.1870 C   0  0  0  0  0  2  0  0  0  0  0  0
  162.4120  209.2370  150.5750 C   0  0  0  0  0  3  0  0  0  0  0  0
  162.0350  205.9810  149.0720 N   0  0  0  0  0  2  0  0  0  0  0  0
  161.9420  209.8150  149.4040 C   0  0  0  0  0  0  0  0  0  0  0  0
  162.0530  207.3850  149.3520 C   0  0  0  0  0  0  0  0  0  0  0  0
  162.4750  207.8800  150.5360 N   0  0  0  0  0  0  0  0  0  0  0  0
  161.5810  208.6070  148.2910 S   0  0  0  0  0  0  0  0  0  0  0  0
  161.5430  205.3680  147.8420 C   0  0  1  0  0  3  0  0  0  0  0  0
  163.6070  204.6560  146.8370 O   0  0  0  0  0  1  0  0  0  0  0  0
  162.4530  206.2760  145.7030 O   0  0  0  0  0  0  0  0  0  0  0  0
  162.5900  205.3980  146.7680 C   0  0  0  0  0  0  0  0  0  0  0  0
  161.0680  204.0160  148.0940 N   0  0  0  0  0  2  0  0  0  0  0  0
  160.5430  203.9960  149.4500 C   0  0  0  0  0  2  0  0  0  0  0  0
  159.4490  201.1320  149.0200 C   0  0  0  0  0  2  0  0  0  0  0  0
  160.7510  202.6240  150.1060 C   0  0  2  0  0  0  0  0  0  0  0  0
  160.8540  200.7460  148.6310 C   0  0  2  0  0  3  0  0  0  0  0  0
  161.7110  201.8080  149.2500 C   0  0  0  0  0  2  0  0  0  0  0  0
  159.5120  201.9530  150.1580 O   0  0  0  0  0  0  0  0  0  0  0  0
  161.0040  200.7400  147.1460 C   0  0  0  0  0  0  0  0  0  0  0  0
  160.4820  201.7740  146.3760 O   0  0  0  0  0  0  0  0  0  0  0  0
  161.5910  199.7800  146.5850 O   0  0  0  0  0  1  0  0  0  0  0  0
  162.5260  202.1080  151.6620 O   0  0  0  0  0  1  0  0  0  0  0  0
  161.3130  202.7900  151.5300 C   0  0  1  0  0  3  0  0  0  0  0  0
  160.9970  204.6840  152.9080 O   0  0  0  0  0  0  0  0  0  0  0  0
  161.5080  204.2320  151.8970 C   0  0  0  0  0  3  0  0  0  0  0  0
  161.7970  211.5880  147.7060 C   0  0  0  0  0  2  0  0  0  0  0  0
  159.9920  213.3600  148.1830 C   0  0  0  0  0  0  0  0  0  0  0  0
  160.6750  212.4980  147.3390 C   0  0  0  0  0  0  0  0  0  0  0  0
  159.0740  214.0120  147.3820 C   0  0  0  0  0  3  0  0  0  0  0  0
  160.2020  212.6300  146.0870 N   0  0  0  0  0  0  0  0  0  0  0  0
  159.2410  213.5370  146.1330 N   0  0  0  0  0  0  0  0  0  0  0  0
  158.4800  213.9610  144.9720 C   0  0  0  0  0  1  0  0  0  0  0  0
  159.4630  212.7310  150.5540 N   0  0  0  0  0  2  0  0  0  0  0  0
  160.9730  214.4530  150.0410 O   0  0  0  0  0  0  0  0  0  0  0  0
  160.1820  213.5620  149.6290 C   0  0  0  0  0  0  0  0  0  0  0  0
  157.6320  210.2610  156.1530 O   0  0  0  0  0  0  0  0  0  0  0  0
  158.7780  210.3820  155.6410 C   0  0  0  0  0  0  0  0  0  0  0  0
  161.2960  210.2220  154.2690 C   0  0  2  0  0  3  0  0  0  0  0  0
  158.4190  212.6470  154.8520 C   0  0  0  0  0  3  0  0  0  0  0  0
  161.1430  209.7720  155.6580 N   0  0  0  0  0  2  0  0  0  0  0  0
  158.8000  213.8880  154.1220 C   0  0  0  0  0  2  0  0  0  0  0  0
  162.7330  210.6680  154.0570 C   0  0  0  0  0  1  0  0  0  0  0  0
  159.4960  212.7910  151.9870 C   0  0  0  0  0  0  0  0  0  0  0  0
  159.1170  211.5100  154.7700 C   0  0  0  0  0  0  0  0  0  0  0  0
  158.7540  213.6870  152.6470 C   0  0  0  0  0  3  0  0  0  0  0  0
  159.8020  209.4150  155.8890 N   0  0  0  0  0  0  0  0  0  0  0  0
  160.4110  211.8460  152.6660 C   0  0  0  0  0  3  0  0  0  0  0  0
  160.3160  211.3270  153.9040 C   0  0  0  0  0  0  0  0  0  0  0  0
  161.1430  207.5120  157.0240 C   0  0  0  0  0  1  0  0  0  0  0  0
  159.4190  207.8170  156.5420 S   0  0  0  0  0  0  0  0  0  0  0  0
  1  4  1  0  0  0  0
  3  5  1  0  0  0  0
  4  2  2  0  0  0  0
  5  6  2  0  0  0  0
  6  2  1  0  0  0  0
  7  5  1  0  0  0  0
  7  4  1  0  0  0  0
  8 11  1  6  0  0  0
  8 12  1  0  0  0  0
  8  3  1  0  0  0  0
 10 11  2  0  0  0  0
 11  9  1  0  0  0  0
 12 13  1  0  0  0  0
 14 18  1  0  0  0  0
 15 13  1  6  0  0  0
 15 18  1  0  0  0  0
 15 23  1  0  0  0  0
 16 19  1  6  0  0  0
 16 14  1  0  0  0  0
 16 17  1  0  0  0  0
 17 15  1  0  0  0  0
 20 19  2  0  0  0  0
 21 19  1  0  0  0  0
 23 22  1  6  0  0  0
 23 25  1  0  0  0  0
 25 24  2  0  0  0  0
 26  1  1  0  0  0  0
 27 35  1  0  0  0  0
 28 26  1  0  0  0  0
 28 27  1  0  0  0  0
 29 27  2  0  0  0  0
 30 31  1  0  0  0  0
 30 28  2  0  0  0  0
 31 29  1  0  0  0  0
 32 31  1  0  0  0  0
 33 43  1  0  0  0  0
 35 34  2  0  0  0  0
 35 33  1  0  0  0  0
 37 46  1  0  0  0  0
 37 36  2  0  0  0  0
 38 42  1  1  0  0  0
 38 40  1  0  0  0  0
 40 46  1  0  0  0  0
 41 39  1  0  0  0  0
 43 45  2  0  0  0  0
 43 47  1  0  0  0  0
 44 39  2  0  0  0  0
 44 37  1  0  0  0  0
 45 41  1  0  0  0  0
 46 50  1  0  0  0  0
 47 48  2  0  0  0  0
 48 38  1  0  0  0  0
 48 44  1  0  0  0  0
 50 49  1  0  0  0  0
M  END
>  <MODEL>
1

>  <REMARK>
 VINA RESULT:      -5.4      0.000      0.000
  Name = 
  14 active torsions:
  status: ('A' for Active; 'I' for Inactive)
    1  A    between atoms: N_2  and  C_36
    2  A    between atoms: C_7  and  C_44
    3  A    between atoms: C_8  and  C_14
    4  A    between atoms: C_9  and  C_21
    5  A    between atoms: C_9  and  C_33
    6  A    between atoms: C_10  and  C_11
    7  A    between atoms: C_10  and  C_25
    8  A    between atoms: C_11  and  C_19
    9  A    between atoms: N_13  and  C_29
   10  A    between atoms: C_21  and  N_38
   11  A    between atoms: C_22  and  C_29
   12  A    between atoms: C_29  and  N_38
   13  A    between atoms: C_32  and  C_33
   14  A    between atoms: N_42  and  S_46
                            x       y       z     vdW  Elec       q    Type
                         _______ _______ _______ _____ _____    ______ ____

>  <TORSDO>
F 14

$$$$
=
 OpenBabel11042422153D

 50 54  0  0  1  0  0  0  0  0999 V2000
  161.4180  205.8450  142.4540 C   0  0  0  0  0  2  0  0  0  0  0  0
  162.9990  205.7700  144.4570 C   0  0  0  0  0  3  0  0  0  0  0  0
  161.8960  204.0090  147.4040 N   0  0  0  0  0  2  0  0  0  0  0  0
  161.8080  205.4330  143.8290 C   0  0  0  0  0  0  0  0  0  0  0  0
  162.0110  204.6070  146.1090 C   0  0  0  0  0  0  0  0  0  0  0  0
  163.1070  205.3000  145.7280 N   0  0  0  0  0  0  0  0  0  0  0  0
  160.8520  204.5390  144.8860 S   0  0  0  0  0  0  0  0  0  0  0  0
  160.7270  203.2940  147.9070 C   0  0  1  0  0  3  0  0  0  0  0  0
  161.1070  201.0660  148.7250 O   0  0  0  0  0  1  0  0  0  0  0  0
  160.8140  201.2620  146.4620 O   0  0  0  0  0  0  0  0  0  0  0  0
  160.8840  201.8130  147.7340 C   0  0  0  0  0  0  0  0  0  0  0  0
  160.4630  203.6490  149.2940 N   0  0  0  0  0  2  0  0  0  0  0  0
  161.6980  204.1930  149.8360 C   0  0  0  0  0  2  0  0  0  0  0  0
  162.8350  206.9770  150.5710 C   0  0  0  0  0  2  0  0  0  0  0  0
  161.4140  205.2540  150.9080 C   0  0  2  0  0  0  0  0  0  0  0  0
  161.4860  207.5340  150.1920 C   0  0  2  0  0  3  0  0  0  0  0  0
  160.5620  206.3580  150.2970 C   0  0  0  0  0  2  0  0  0  0  0  0
  162.6390  205.8110  151.3310 O   0  0  0  0  0  0  0  0  0  0  0  0
  161.5120  208.0680  148.7990 C   0  0  0  0  0  0  0  0  0  0  0  0
  161.9060  209.3770  148.5490 O   0  0  0  0  0  1  0  0  0  0  0  0
  161.1560  207.3300  147.8450 O   0  0  0  0  0  0  0  0  0  0  0  0
  160.8970  203.2390  152.1370 O   0  0  0  0  0  1  0  0  0  0  0  0
  160.6890  204.6210  152.1100 C   0  0  1  0  0  3  0  0  0  0  0  0
  160.6660  206.2820  153.7910 O   0  0  0  0  0  0  0  0  0  0  0  0
  161.1280  205.2190  153.4140 C   0  0  0  0  0  3  0  0  0  0  0  0
  162.2300  207.0500  142.0250 C   0  0  0  0  0  2  0  0  0  0  0  0
  162.0590  208.3860  139.8320 C   0  0  0  0  0  0  0  0  0  0  0  0
  162.1690  207.2020  140.5440 C   0  0  0  0  0  0  0  0  0  0  0  0
  162.0790  208.0200  138.4990 C   0  0  0  0  0  3  0  0  0  0  0  0
  162.2620  206.1710  139.6850 N   0  0  0  0  0  0  0  0  0  0  0  0
  162.2020  206.6800  138.4660 N   0  0  0  0  0  0  0  0  0  0  0  0
  162.2700  205.8790  137.2570 C   0  0  0  0  0  1  0  0  0  0  0  0
  160.6720  210.2270  140.8230 N   0  0  0  0  0  2  0  0  0  0  0  0
  162.9620  210.5030  140.3920 O   0  0  0  0  0  0  0  0  0  0  0  0
  161.9450  209.7580  140.3550 C   0  0  0  0  0  0  0  0  0  0  0  0
  157.7680  213.7620  145.2820 O   0  0  0  0  0  0  0  0  0  0  0  0
  158.9890  213.6430  144.9920 C   0  0  0  0  0  0  0  0  0  0  0  0
  161.7650  212.9940  144.6440 C   0  0  2  0  0  3  0  0  0  0  0  0
  158.6460  213.7390  142.5930 C   0  0  0  0  0  3  0  0  0  0  0  0
  161.3240  214.0110  145.6070 N   0  0  0  0  0  2  0  0  0  0  0  0
  159.0880  213.6730  141.1710 C   0  0  0  0  0  2  0  0  0  0  0  0
  163.1710  213.3410  144.1820 C   0  0  0  0  0  1  0  0  0  0  0  0
  160.3580  211.5280  141.3410 C   0  0  0  0  0  0  0  0  0  0  0  0
  159.4330  213.3970  143.6170 C   0  0  0  0  0  0  0  0  0  0  0  0
  159.4100  212.2770  140.7670 C   0  0  0  0  0  3  0  0  0  0  0  0
  160.0000  213.7400  145.9980 N   0  0  0  0  0  0  0  0  0  0  0  0
  161.1590  211.9890  142.4980 C   0  0  0  0  0  3  0  0  0  0  0  0
  160.8140  212.8590  143.4650 C   0  0  0  0  0  0  0  0  0  0  0  0
  161.3470  213.7000  148.2100 C   0  0  0  0  0  1  0  0  0  0  0  0
  159.6030  213.5990  147.7160 S   0  0  0  0  0  0  0  0  0  0  0  0
  1  4  1  0  0  0  0
  2  6  1  0  0  0  0
  4  2  2  0  0  0  0
  4  7  1  0  0  0  0
  5  3  1  0  0  0  0
  6  5  2  0  0  0  0
  7  5  1  0  0  0  0
  8  3  1  1  0  0  0
  8 12  1  0  0  0  0
 10 11  2  0  0  0  0
 11  8  1  0  0  0  0
 11  9  1  0  0  0  0
 12 13  1  0  0  0  0
 14 18  1  0  0  0  0
 15 13  1  6  0  0  0
 15 18  1  0  0  0  0
 15 23  1  0  0  0  0
 16 19  1  6  0  0  0
 16 17  1  0  0  0  0
 16 14  1  0  0  0  0
 17 15  1  0  0  0  0
 20 19  1  0  0  0  0
 21 19  2  0  0  0  0
 23 22  1  1  0  0  0
 23 25  1  0  0  0  0
 25 24  2  0  0  0  0
 26  1  1  0  0  0  0
 27 35  1  0  0  0  0
 27 28  1  0  0  0  0
 28 26  1  0  0  0  0
 29 27  2  0  0  0  0
 30 28  2  0  0  0  0
 31 29  1  0  0  0  0
 31 30  1  0  0  0  0
 32 31  1  0  0  0  0
 33 43  1  0  0  0  0
 35 34  2  0  0  0  0
 35 33  1  0  0  0  0
 37 36  2  0  0  0  0
 37 46  1  0  0  0  0
 38 42  1  6  0  0  0
 38 40  1  0  0  0  0
 39 44  2  0  0  0  0
 40 46  1  0  0  0  0
 41 39  1  0  0  0  0
 43 47  1  0  0  0  0
 44 37  1  0  0  0  0
 45 41  1  0  0  0  0
 45 43  2  0  0  0  0
 46 50  1  0  0  0  0
 47 48  2  0  0  0  0
 48 44  1  0  0  0  0
 48 38  1  0  0  0  0
 50 49  1  0  0  0  0
M  END
>  <MODEL>
2

>  <REMARK>
 VINA RESULT:      -5.3      4.311      8.415
  Name = 
  14 active torsions:
  status: ('A' for Active; 'I' for Inactive)
    1  A    between atoms: N_2  and  C_36
    2  A    between atoms: C_7  and  C_44
    3  A    between atoms: C_8  and  C_14
    4  A    between atoms: C_9  and  C_21
    5  A    between atoms: C_9  and  C_33
    6  A    between atoms: C_10  and  C_11
    7  A    between atoms: C_10  and  C_25
    8  A    between atoms: C_11  and  C_19
    9  A    between atoms: N_13  and  C_29
   10  A    between atoms: C_21  and  N_38
   11  A    between atoms: C_22  and  C_29
   12  A    between atoms: C_29  and  N_38
   13  A    between atoms: C_32  and  C_33
   14  A    between atoms: N_42  and  S_46
                            x       y       z     vdW  Elec       q    Type
                         _______ _______ _______ _____ _____    ______ ____

>  <TORSDO>
F 14

$$$$
=
 OpenBabel11042422153D

 50 54  0  0  1  0  0  0  0  0999 V2000
  162.2220  208.7900  151.5560 C   0  0  0  0  0  2  0  0  0  0  0  0
  161.7530  209.2580  149.0900 C   0  0  0  0  0  3  0  0  0  0  0  0
  161.2520  206.4310  146.9090 N   0  0  0  0  0  2  0  0  0  0  0  0
  161.9170  208.3860  150.1580 C   0  0  0  0  0  0  0  0  0  0  0  0
  161.4940  207.2960  148.0240 C   0  0  0  0  0  0  0  0  0  0  0  0
  161.5120  208.6410  147.9030 N   0  0  0  0  0  0  0  0  0  0  0  0
  161.7730  206.8010  149.6110 S   0  0  0  0  0  0  0  0  0  0  0  0
  161.2700  204.9710  146.9480 C   0  0  1  0  0  3  0  0  0  0  0  0
  163.6480  204.6370  146.8270 O   0  0  0  0  0  1  0  0  0  0  0  0
  162.4230  203.7190  145.1240 O   0  0  0  0  0  0  0  0  0  0  0  0
  162.5160  204.4300  146.3120 C   0  0  0  0  0  0  0  0  0  0  0  0
  161.1100  204.4910  148.3120 N   0  0  0  0  0  2  0  0  0  0  0  0
  161.7340  203.1780  148.3770 C   0  0  0  0  0  2  0  0  0  0  0  0
  162.2290  202.2300  151.2820 C   0  0  0  0  0  2  0  0  0  0  0  0
  161.0110  202.2690  149.3800 C   0  0  2  0  0  0  0  0  0  0  0  0
  160.9890  203.0030  151.6550 C   0  0  2  0  0  3  0  0  0  0  0  0
  160.2380  203.1360  150.3650 C   0  0  0  0  0  2  0  0  0  0  0  0
  161.9740  201.5250  150.0940 O   0  0  0  0  0  0  0  0  0  0  0  0
  161.3520  204.3440  152.2000 C   0  0  0  0  0  0  0  0  0  0  0  0
  160.6810  204.8680  153.3000 O   0  0  0  0  0  1  0  0  0  0  0  0
  162.2600  205.0140  151.6460 O   0  0  0  0  0  0  0  0  0  0  0  0
  158.7260  201.6020  148.9660 O   0  0  0  0  0  1  0  0  0  0  0  0
  160.0550  201.3120  148.6450 C   0  0  1  0  0  3  0  0  0  0  0  0
  161.0380  200.6360  146.6040 O   0  0  0  0  0  0  0  0  0  0  0  0
  160.2330  201.3670  147.1560 C   0  0  0  0  0  3  0  0  0  0  0  0
  162.2540  210.3020  151.6620 C   0  0  0  0  0  2  0  0  0  0  0  0
  160.2370  211.8670  151.9810 C   0  0  0  0  0  0  0  0  0  0  0  0
  161.0260  210.7890  152.3500 C   0  0  0  0  0  0  0  0  0  0  0  0
  159.2010  211.8990  152.8960 C   0  0  0  0  0  3  0  0  0  0  0  0
  160.4880  210.1890  153.4260 N   0  0  0  0  0  0  0  0  0  0  0  0
  159.3980  210.8700  153.7420 N   0  0  0  0  0  0  0  0  0  0  0  0
  158.5330  210.5310  154.8570 C   0  0  0  0  0  1  0  0  0  0  0  0
  160.9720  212.3080  149.6230 N   0  0  0  0  0  2  0  0  0  0  0  0
  160.1250  214.0150  150.9900 O   0  0  0  0  0  0  0  0  0  0  0  0
  160.4340  212.8010  150.8590 C   0  0  0  0  0  0  0  0  0  0  0  0
  162.2290  212.3290  143.3590 O   0  0  0  0  0  0  0  0  0  0  0  0
  161.2560  212.8040  144.0060 C   0  0  0  0  0  0  0  0  0  0  0  0
  158.8410  213.4400  145.4240 C   0  0  2  0  0  3  0  0  0  0  0  0
  162.6200  213.7450  145.7770 C   0  0  0  0  0  3  0  0  0  0  0  0
  158.9940  213.7240  143.9920 N   0  0  0  0  0  2  0  0  0  0  0  0
  162.8360  214.4410  147.0770 C   0  0  0  0  0  2  0  0  0  0  0  0
  157.8640  214.4420  146.0160 C   0  0  0  0  0  1  0  0  0  0  0  0
  161.2570  213.0590  148.4340 C   0  0  0  0  0  0  0  0  0  0  0  0
  161.4190  213.3310  145.3630 C   0  0  0  0  0  0  0  0  0  0  0  0
  162.4780  213.5660  148.2270 C   0  0  0  0  0  3  0  0  0  0  0  0
  159.9440  212.8450  143.4400 N   0  0  0  0  0  0  0  0  0  0  0  0
  160.1300  213.2640  147.4960 C   0  0  0  0  0  3  0  0  0  0  0  0
  160.1690  213.4600  146.1650 C   0  0  0  0  0  0  0  0  0  0  0  0
  160.0330  213.1780  140.8730 C   0  0  0  0  0  1  0  0  0  0  0  0
  159.5220  211.8710  142.0250 S   0  0  0  0  0  0  0  0  0  0  0  0
  1 26  1  0  0  0  0
  2  4  2  0  0  0  0
  3  8  1  0  0  0  0
  3  5  1  0  0  0  0
  4  1  1  0  0  0  0
  5  7  1  0  0  0  0
  6  5  2  0  0  0  0
  6  2  1  0  0  0  0
  7  4  1  0  0  0  0
  8 11  1  1  0  0  0
  8 12  1  0  0  0  0
 10 11  2  0  0  0  0
 11  9  1  0  0  0  0
 12 13  1  0  0  0  0
 14 16  1  0  0  0  0
 15 13  1  6  0  0  0
 15 18  1  0  0  0  0
 15 17  1  0  0  0  0
 16 19  1  6  0  0  0
 17 16  1  0  0  0  0
 18 14  1  0  0  0  0
 19 20  1  0  0  0  0
 21 19  2  0  0  0  0
 23 22  1  6  0  0  0
 23 15  1  0  0  0  0
 24 25  2  0  0  0  0
 25 23  1  0  0  0  0
 26 28  1  0  0  0  0
 27 28  1  0  0  0  0
 27 29  2  0  0  0  0
 28 30  2  0  0  0  0
 29 31  1  0  0  0  0
 30 31  1  0  0  0  0
 31 32  1  0  0  0  0
 33 35  1  0  0  0  0
 35 34  2  0  0  0  0
 35 27  1  0  0  0  0
 36 37  2  0  0  0  0
 37 44  1  0  0  0  0
 38 42  1  1  0  0  0
 38 48  1  0  0  0  0
 39 41  1  0  0  0  0
 40 38  1  0  0  0  0
 41 45  1  0  0  0  0
 43 33  1  0  0  0  0
 44 39  2  0  0  0  0
 44 48  1  0  0  0  0
 45 43  2  0  0  0  0
 46 40  1  0  0  0  0
 46 37  1  0  0  0  0
 47 43  1  0  0  0  0
 48 47  2  0  0  0  0
 49 50  1  0  0  0  0
 50 46  1  0  0  0  0
M  END
>  <MODEL>
3

>  <REMARK>
 VINA RESULT:      -5.1      2.218      7.054
  Name = 
  14 active torsions:
  status: ('A' for Active; 'I' for Inactive)
    1  A    between atoms: N_2  and  C_36
    2  A    between atoms: C_7  and  C_44
    3  A    between atoms: C_8  and  C_14
    4  A    between atoms: C_9  and  C_21
    5  A    between atoms: C_9  and  C_33
    6  A    between atoms: C_10  and  C_11
    7  A    between atoms: C_10  and  C_25
    8  A    between atoms: C_11  and  C_19
    9  A    between atoms: N_13  and  C_29
   10  A    between atoms: C_21  and  N_38
   11  A    between atoms: C_22  and  C_29
   12  A    between atoms: C_29  and  N_38
   13  A    between atoms: C_32  and  C_33
   14  A    between atoms: N_42  and  S_46
                            x       y       z     vdW  Elec       q    Type
                         _______ _______ _______ _____ _____    ______ ____

>  <TORSDO>
F 14

$$$$
=
 OpenBabel11042422153D

 50 54  0  0  1  0  0  0  0  0999 V2000
  161.9160  211.1400  149.5680 C   0  0  0  0  0  2  0  0  0  0  0  0
  162.3300  208.8850  150.6920 C   0  0  0  0  0  3  0  0  0  0  0  0
  161.8620  205.9090  148.7100 N   0  0  0  0  0  2  0  0  0  0  0  0
  161.9990  209.6550  149.5850 C   0  0  0  0  0  0  0  0  0  0  0  0
  161.9500  207.2550  149.1900 C   0  0  0  0  0  0  0  0  0  0  0  0
  162.3060  207.5450  150.4610 N   0  0  0  0  0  0  0  0  0  0  0  0
  161.6510  208.6450  148.2860 S   0  0  0  0  0  0  0  0  0  0  0  0
  161.4340  205.5130  147.3710 C   0  0  1  0  0  3  0  0  0  0  0  0
  163.7020  204.9460  146.8120 O   0  0  0  0  0  1  0  0  0  0  0  0
  162.4780  205.9260  145.1430 O   0  0  0  0  0  0  0  0  0  0  0  0
  162.6010  205.4310  146.4340 C   0  0  0  0  0  0  0  0  0  0  0  0
  160.6910  204.2630  147.4160 N   0  0  0  0  0  2  0  0  0  0  0  0
  161.6670  203.1860  147.3760 C   0  0  0  0  0  2  0  0  0  0  0  0
  161.9800  201.5600  149.9920 C   0  0  0  0  0  2  0  0  0  0  0  0
  161.0830  201.8860  147.9440 C   0  0  2  0  0  0  0  0  0  0  0  0
  160.5360  201.8940  150.2710 C   0  0  2  0  0  3  0  0  0  0  0  0
  159.9710  202.2300  148.9250 C   0  0  0  0  0  2  0  0  0  0  0  0
  162.1000  201.1970  148.6400 O   0  0  0  0  0  0  0  0  0  0  0  0
  160.4380  203.0610  151.1960 C   0  0  0  0  0  0  0  0  0  0  0  0
  160.3760  204.3580  150.6980 O   0  0  0  0  0  0  0  0  0  0  0  0
  160.4300  202.8690  152.4390 O   0  0  0  0  0  1  0  0  0  0  0  0
  160.6250  201.6670  145.5820 O   0  0  0  0  0  1  0  0  0  0  0  0
  160.5410  201.0000  146.8080 C   0  0  1  0  0  3  0  0  0  0  0  0
  161.1350  198.9810  145.7320 O   0  0  0  0  0  0  0  0  0  0  0  0
  161.2670  199.6900  146.7150 C   0  0  0  0  0  3  0  0  0  0  0  0
  161.9180  211.6420  148.1380 C   0  0  0  0  0  2  0  0  0  0  0  0
  159.8490  213.0620  148.7070 C   0  0  0  0  0  0  0  0  0  0  0  0
  160.6240  212.3140  147.8340 C   0  0  0  0  0  0  0  0  0  0  0  0
  158.7720  213.5050  147.9610 C   0  0  0  0  0  3  0  0  0  0  0  0
  160.0520  212.3130  146.6170 N   0  0  0  0  0  0  0  0  0  0  0  0
  158.9420  213.0270  146.7130 N   0  0  0  0  0  0  0  0  0  0  0  0
  158.0390  213.2630  145.6010 C   0  0  0  0  0  1  0  0  0  0  0  0
  159.5890  212.4370  151.1230 N   0  0  0  0  0  2  0  0  0  0  0  0
  160.7440  214.3700  150.4660 O   0  0  0  0  0  0  0  0  0  0  0  0
  160.0930  213.3440  150.1320 C   0  0  0  0  0  0  0  0  0  0  0  0
  158.2830  210.0510  156.9040 O   0  0  0  0  0  0  0  0  0  0  0  0
  159.3850  210.2340  156.3180 C   0  0  0  0  0  0  0  0  0  0  0  0
  161.8200  210.2050  154.7960 C   0  0  2  0  0  3  0  0  0  0  0  0
  158.8120  212.4370  155.4790 C   0  0  0  0  0  3  0  0  0  0  0  0
  161.7850  209.7970  156.2060 N   0  0  0  0  0  2  0  0  0  0  0  0
  159.0560  213.6750  154.6860 C   0  0  0  0  0  2  0  0  0  0  0  0
  163.2060  210.7450  154.4810 C   0  0  0  0  0  1  0  0  0  0  0  0
  159.7020  212.5520  152.5490 C   0  0  0  0  0  0  0  0  0  0  0  0
  159.5860  211.3520  155.3910 C   0  0  0  0  0  0  0  0  0  0  0  0
  158.9360  213.4160  153.2240 C   0  0  0  0  0  3  0  0  0  0  0  0
  160.4900  209.3540  156.5320 N   0  0  0  0  0  0  0  0  0  0  0  0
  160.7240  211.7010  153.2000 C   0  0  0  0  0  3  0  0  0  0  0  0
  160.7410  211.2220  154.4580 C   0  0  0  0  0  0  0  0  0  0  0  0
  159.3860  207.1270  155.8030 C   0  0  0  0  0  1  0  0  0  0  0  0
  160.2660  207.7580  157.2600 S   0  0  0  0  0  0  0  0  0  0  0  0
  1  4  1  0  0  0  0
  3  5  1  0  0  0  0
  4  2  2  0  0  0  0
  5  6  2  0  0  0  0
  6  2  1  0  0  0  0
  7  5  1  0  0  0  0
  7  4  1  0  0  0  0
  8 11  1  6  0  0  0
  8 12  1  0  0  0  0
  8  3  1  0  0  0  0
 10 11  2  0  0  0  0
 11  9  1  0  0  0  0
 13 12  1  0  0  0  0
 14 16  1  0  0  0  0
 15 13  1  6  0  0  0
 15 18  1  0  0  0  0
 15 17  1  0  0  0  0
 16 19  1  1  0  0  0
 17 16  1  0  0  0  0
 18 14  1  0  0  0  0
 19 21  1  0  0  0  0
 20 19  2  0  0  0  0
 23 22  1  6  0  0  0
 23 15  1  0  0  0  0
 24 25  2  0  0  0  0
 25 23  1  0  0  0  0
 26  1  1  0  0  0  0
 27 35  1  0  0  0  0
 28 26  1  0  0  0  0
 28 27  1  0  0  0  0
 29 27  2  0  0  0  0
 30 31  1  0  0  0  0
 30 28  2  0  0  0  0
 31 29  1  0  0  0  0
 32 31  1  0  0  0  0
 33 43  1  0  0  0  0
 35 34  2  0  0  0  0
 35 33  1  0  0  0  0
 37 46  1  0  0  0  0
 37 36  2  0  0  0  0
 38 42  1  1  0  0  0
 38 40  1  0  0  0  0
 40 46  1  0  0  0  0
 41 39  1  0  0  0  0
 43 47  1  0  0  0  0
 43 45  2  0  0  0  0
 44 39  2  0  0  0  0
 44 37  1  0  0  0  0
 45 41  1  0  0  0  0
 46 50  1  0  0  0  0
 47 48  2  0  0  0  0
 48 38  1  0  0  0  0
 48 44  1  0  0  0  0
 49 50  1  0  0  0  0
M  END
>  <MODEL>
4

>  <REMARK>
 VINA RESULT:      -4.8      1.020      2.638
  Name = 
  14 active torsions:
  status: ('A' for Active; 'I' for Inactive)
    1  A    between atoms: N_2  and  C_36
    2  A    between atoms: C_7  and  C_44
    3  A    between atoms: C_8  and  C_14
    4  A    between atoms: C_9  and  C_21
    5  A    between atoms: C_9  and  C_33
    6  A    between atoms: C_10  and  C_11
    7  A    between atoms: C_10  and  C_25
    8  A    between atoms: C_11  and  C_19
    9  A    between atoms: N_13  and  C_29
   10  A    between atoms: C_21  and  N_38
   11  A    between atoms: C_22  and  C_29
   12  A    between atoms: C_29  and  N_38
   13  A    between atoms: C_32  and  C_33
   14  A    between atoms: N_42  and  S_46
                            x       y       z     vdW  Elec       q    Type
                         _______ _______ _______ _____ _____    ______ ____

>  <TORSDO>
F 14

$$$$
=
 OpenBabel11042422153D

 50 54  0  0  1  0  0  0  0  0999 V2000
  162.4330  205.2020  146.8580 C   0  0  0  0  0  2  0  0  0  0  0  0
  160.7270  204.6100  145.0530 C   0  0  0  0  0  3  0  0  0  0  0  0
  161.2120  206.0000  141.7620 N   0  0  0  0  0  2  0  0  0  0  0  0
  161.8880  205.2450  145.4760 C   0  0  0  0  0  0  0  0  0  0  0  0
  161.3210  205.6330  143.1410 C   0  0  0  0  0  0  0  0  0  0  0  0
  160.4210  204.8280  143.7470 N   0  0  0  0  0  0  0  0  0  0  0  0
  162.5460  206.1140  144.1950 S   0  0  0  0  0  0  0  0  0  0  0  0
  162.1110  206.9050  141.0520 C   0  0  1  0  0  3  0  0  0  0  0  0
  163.5180  205.3150  139.9240 O   0  0  0  0  0  1  0  0  0  0  0  0
  162.3020  206.7070  138.5720 O   0  0  0  0  0  0  0  0  0  0  0  0
  162.6790  206.2520  139.8270 C   0  0  0  0  0  0  0  0  0  0  0  0
  161.4370  208.1550  140.7320 N   0  0  0  0  0  2  0  0  0  0  0  0
  162.4610  209.0910  140.2950 C   0  0  0  0  0  2  0  0  0  0  0  0
  161.5070  210.3010  137.6110 C   0  0  0  0  0  2  0  0  0  0  0  0
  161.8420  210.4190  139.8410 C   0  0  2  0  0  0  0  0  0  0  0  0
  160.1160  210.2780  138.1930 C   0  0  2  0  0  3  0  0  0  0  0  0
  160.3400  210.2330  139.6740 C   0  0  0  0  0  2  0  0  0  0  0  0
  162.3930  210.7740  138.5920 O   0  0  0  0  0  0  0  0  0  0  0  0
  159.3730  209.0700  137.7300 C   0  0  0  0  0  0  0  0  0  0  0  0
  157.9830  209.0610  137.6960 O   0  0  0  0  0  1  0  0  0  0  0  0
  160.0110  208.0430  137.3840 O   0  0  0  0  0  0  0  0  0  0  0  0
  162.6270  212.6690  140.2360 O   0  0  0  0  0  1  0  0  0  0  0  0
  162.1330  211.5270  140.8710 C   0  0  1  0  0  3  0  0  0  0  0  0
  160.5960  211.2160  142.6390 O   0  0  0  0  0  0  0  0  0  0  0  0
  160.9170  211.8870  141.6730 C   0  0  0  0  0  3  0  0  0  0  0  0
  161.3770  205.6560  147.8460 C   0  0  0  0  0  2  0  0  0  0  0  0
  161.3990  204.8620  150.2930 C   0  0  0  0  0  0  0  0  0  0  0  0
  161.2330  204.6490  148.9340 C   0  0  0  0  0  0  0  0  0  0  0  0
  161.1270  203.6480  150.8960 C   0  0  0  0  0  3  0  0  0  0  0  0
  160.8660  203.3720  148.7230 N   0  0  0  0  0  0  0  0  0  0  0  0
  160.8120  202.7870  149.9090 N   0  0  0  0  0  0  0  0  0  0  0  0
  160.4490  201.3950  150.1020 C   0  0  0  0  0  1  0  0  0  0  0  0
  160.7680  207.0620  151.3220 N   0  0  0  0  0  2  0  0  0  0  0  0
  162.9930  206.3170  151.2690 O   0  0  0  0  0  0  0  0  0  0  0  0
  161.7840  206.1060  150.9820 C   0  0  0  0  0  0  0  0  0  0  0  0
  158.1640  212.4430  153.5750 O   0  0  0  0  0  0  0  0  0  0  0  0
  158.7770  211.5130  154.1670 C   0  0  0  0  0  0  0  0  0  0  0  0
  159.7340  209.1850  155.5500 C   0  0  2  0  0  3  0  0  0  0  0  0
  160.5270  211.3200  152.4990 C   0  0  0  0  0  3  0  0  0  0  0  0
  159.3740  210.4160  156.2660 N   0  0  0  0  0  2  0  0  0  0  0  0
  161.7390  210.7010  151.8930 C   0  0  0  0  0  2  0  0  0  0  0  0
  160.7940  208.4490  156.3520 C   0  0  0  0  0  1  0  0  0  0  0  0
  160.9460  208.3320  151.9670 C   0  0  0  0  0  0  0  0  0  0  0  0
  159.8600  210.7700  153.5170 C   0  0  0  0  0  0  0  0  0  0  0  0
  161.4270  209.3780  151.2850 C   0  0  0  0  0  3  0  0  0  0  0  0
  158.4390  211.1420  155.5060 N   0  0  0  0  0  0  0  0  0  0  0  0
  160.6090  208.3950  153.4070 C   0  0  0  0  0  3  0  0  0  0  0  0
  160.2050  209.4550  154.1300 C   0  0  0  0  0  0  0  0  0  0  0  0
  155.9350  210.6480  155.0700 C   0  0  0  0  0  1  0  0  0  0  0  0
  156.9080  211.6380  156.2390 S   0  0  0  0  0  0  0  0  0  0  0  0
  1 26  1  0  0  0  0
  2  4  2  0  0  0  0
  3  5  1  0  0  0  0
  4  1  1  0  0  0  0
  5  6  2  0  0  0  0
  5  7  1  0  0  0  0
  6  2  1  0  0  0  0
  7  4  1  0  0  0  0
  8 11  1  6  0  0  0
  8  3  1  0  0  0  0
 10 11  2  0  0  0  0
 11  9  1  0  0  0  0
 12  8  1  0  0  0  0
 13 12  1  0  0  0  0
 14 16  1  0  0  0  0
 14 18  1  0  0  0  0
 15 13  1  1  0  0  0
 15 23  1  0  0  0  0
 16 19  1  6  0  0  0
 16 17  1  0  0  0  0
 17 15  1  0  0  0  0
 18 15  1  0  0  0  0
 20 19  1  0  0  0  0
 21 19  2  0  0  0  0
 23 22  1  6  0  0  0
 23 25  1  0  0  0  0
 25 24  2  0  0  0  0
 26 28  1  0  0  0  0
 27 29  2  0  0  0  0
 27 35  1  0  0  0  0
 28 27  1  0  0  0  0
 30 28  2  0  0  0  0
 30 31  1  0  0  0  0
 31 32  1  0  0  0  0
 31 29  1  0  0  0  0
 33 43  1  0  0  0  0
 35 34  2  0  0  0  0
 35 33  1  0  0  0  0
 36 37  2  0  0  0  0
 37 46  1  0  0  0  0
 38 40  1  0  0  0  0
 38 42  1  1  0  0  0
 39 44  2  0  0  0  0
 41 39  1  0  0  0  0
 43 47  1  0  0  0  0
 44 48  1  0  0  0  0
 44 37  1  0  0  0  0
 45 41  1  0  0  0  0
 45 43  2  0  0  0  0
 46 50  1  0  0  0  0
 46 40  1  0  0  0  0
 47 48  2  0  0  0  0
 48 38  1  0  0  0  0
 49 50  1  0  0  0  0
M  END
>  <MODEL>
5

>  <REMARK>
 VINA RESULT:      -4.5      4.910      8.891
  Name = 
  14 active torsions:
  status: ('A' for Active; 'I' for Inactive)
    1  A    between atoms: N_2  and  C_36
    2  A    between atoms: C_7  and  C_44
    3  A    between atoms: C_8  and  C_14
    4  A    between atoms: C_9  and  C_21
    5  A    between atoms: C_9  and  C_33
    6  A    between atoms: C_10  and  C_11
    7  A    between atoms: C_10  and  C_25
    8  A    between atoms: C_11  and  C_19
    9  A    between atoms: N_13  and  C_29
   10  A    between atoms: C_21  and  N_38
   11  A    between atoms: C_22  and  C_29
   12  A    between atoms: C_29  and  N_38
   13  A    between atoms: C_32  and  C_33
   14  A    between atoms: N_42  and  S_46
                            x       y       z     vdW  Elec       q    Type
                         _______ _______ _______ _____ _____    ______ ____

>  <TORSDO>
F 14

$$$$
=
 OpenBabel11042422153D

 50 54  0  0  1  0  0  0  0  0999 V2000
  162.6210  205.1980  146.8670 C   0  0  0  0  0  2  0  0  0  0  0  0
  160.8150  204.6680  145.1410 C   0  0  0  0  0  3  0  0  0  0  0  0
  161.2090  206.0280  141.8250 N   0  0  0  0  0  2  0  0  0  0  0  0
  162.0170  205.2580  145.5090 C   0  0  0  0  0  0  0  0  0  0  0  0
  161.3630  205.6610  143.2000 C   0  0  0  0  0  0  0  0  0  0  0  0
  160.4610  204.8940  143.8490 N   0  0  0  0  0  0  0  0  0  0  0  0
  162.6520  206.0970  144.1970 S   0  0  0  0  0  0  0  0  0  0  0  0
  162.1100  206.8960  141.0730 C   0  0  1  0  0  3  0  0  0  0  0  0
  162.3180  206.5830  138.6980 O   0  0  0  0  0  0  0  0  0  0  0  0
  163.4690  205.0950  140.0050 O   0  0  0  0  0  1  0  0  0  0  0  0
  162.6400  206.1980  139.8550 C   0  0  0  0  0  0  0  0  0  0  0  0
  161.4540  208.1490  140.7320 N   0  0  0  0  0  2  0  0  0  0  0  0
  162.5020  209.1050  140.4120 C   0  0  0  0  0  2  0  0  0  0  0  0
  160.1970  211.1030  140.9330 C   0  0  0  0  0  2  0  0  0  0  0  0
  161.9300  210.3400  139.7030 C   0  0  2  0  0  0  0  0  0  0  0  0
  161.2630  212.1570  141.1060 C   0  0  2  0  0  3  0  0  0  0  0  0
  162.4530  211.5930  140.3920 C   0  0  0  0  0  2  0  0  0  0  0  0
  160.5240  210.3170  139.8160 O   0  0  0  0  0  0  0  0  0  0  0  0
  161.5610  212.3690  142.5520 C   0  0  0  0  0  0  0  0  0  0  0  0
  162.7790  212.9050  142.9540 O   0  0  0  0  0  0  0  0  0  0  0  0
  160.7080  212.0410  143.4160 O   0  0  0  0  0  1  0  0  0  0  0  0
  161.4950  209.4920  137.4830 O   0  0  0  0  0  1  0  0  0  0  0  0
  162.3310  210.3390  138.2160 C   0  0  1  0  0  3  0  0  0  0  0  0
  161.2590  212.1580  137.1550 O   0  0  0  0  0  0  0  0  0  0  0  0
  162.2950  211.7150  137.6190 C   0  0  0  0  0  3  0  0  0  0  0  0
  161.6380  205.7240  147.8940 C   0  0  0  0  0  2  0  0  0  0  0  0
  161.4060  204.7410  150.2610 C   0  0  0  0  0  0  0  0  0  0  0  0
  161.3140  204.6560  148.8810 C   0  0  0  0  0  0  0  0  0  0  0  0
  160.9670  203.5210  150.7390 C   0  0  0  0  0  3  0  0  0  0  0  0
  160.8320  203.4480  148.5390 N   0  0  0  0  0  0  0  0  0  0  0  0
  160.6350  202.7800  149.6640 N   0  0  0  0  0  0  0  0  0  0  0  0
  160.1160  201.4250  149.7130 C   0  0  0  0  0  1  0  0  0  0  0  0
  160.9370  206.9070  151.4370 N   0  0  0  0  0  2  0  0  0  0  0  0
  163.0700  205.9320  151.4520 O   0  0  0  0  0  0  0  0  0  0  0  0
  161.8690  205.8770  151.0760 C   0  0  0  0  0  0  0  0  0  0  0  0
  158.7980  212.4260  153.8410 O   0  0  0  0  0  0  0  0  0  0  0  0
  159.2170  211.3850  154.4160 C   0  0  0  0  0  0  0  0  0  0  0  0
  159.7050  208.8600  155.6950 C   0  0  2  0  0  3  0  0  0  0  0  0
  161.1060  211.0690  152.9280 C   0  0  0  0  0  3  0  0  0  0  0  0
  159.4260  210.0760  156.4680 N   0  0  0  0  0  2  0  0  0  0  0  0
  162.2910  210.3340  152.4030 C   0  0  0  0  0  2  0  0  0  0  0  0
  160.5650  207.9340  156.5390 C   0  0  0  0  0  1  0  0  0  0  0  0
  161.2000  208.0950  152.1990 C   0  0  0  0  0  0  0  0  0  0  0  0
  160.2630  210.5470  153.8230 C   0  0  0  0  0  0  0  0  0  0  0  0
  161.8850  209.1100  151.6590 C   0  0  0  0  0  3  0  0  0  0  0  0
  158.6840  210.9730  155.6770 N   0  0  0  0  0  0  0  0  0  0  0  0
  160.7120  208.1050  153.5960 C   0  0  0  0  0  3  0  0  0  0  0  0
  160.3660  209.1600  154.3580 C   0  0  0  0  0  0  0  0  0  0  0  0
  156.1840  210.7050  155.0540 C   0  0  0  0  0  1  0  0  0  0  0  0
  157.1550  211.6210  156.2850 S   0  0  0  0  0  0  0  0  0  0  0  0
  1 26  1  0  0  0  0
  2  4  2  0  0  0  0
  3  5  1  0  0  0  0
  4  1  1  0  0  0  0
  5  6  2  0  0  0  0
  5  7  1  0  0  0  0
  6  2  1  0  0  0  0
  7  4  1  0  0  0  0
  8 11  1  6  0  0  0
  8  3  1  0  0  0  0
  9 11  2  0  0  0  0
 11 10  1  0  0  0  0
 12  8  1  0  0  0  0
 13 12  1  0  0  0  0
 14 16  1  0  0  0  0
 15 18  1  0  0  0  0
 15 17  1  0  0  0  0
 15 13  1  1  0  0  0
 16 19  1  1  0  0  0
 17 16  1  0  0  0  0
 18 14  1  0  0  0  0
 19 20  2  0  0  0  0
 19 21  1  0  0  0  0
 23 22  1  6  0  0  0
 23 15  1  0  0  0  0
 24 25  2  0  0  0  0
 25 23  1  0  0  0  0
 26 28  1  0  0  0  0
 27 29  2  0  0  0  0
 27 35  1  0  0  0  0
 28 27  1  0  0  0  0
 30 28  2  0  0  0  0
 30 31  1  0  0  0  0
 31 32  1  0  0  0  0
 31 29  1  0  0  0  0
 33 43  1  0  0  0  0
 35 33  1  0  0  0  0
 35 34  2  0  0  0  0
 36 37  2  0  0  0  0
 37 46  1  0  0  0  0
 38 40  1  0  0  0  0
 38 42  1  1  0  0  0
 39 44  2  0  0  0  0
 41 39  1  0  0  0  0
 43 47  1  0  0  0  0
 44 48  1  0  0  0  0
 44 37  1  0  0  0  0
 45 43  2  0  0  0  0
 45 41  1  0  0  0  0
 46 50  1  0  0  0  0
 46 40  1  0  0  0  0
 47 48  2  0  0  0  0
 48 38  1  0  0  0  0
 49 50  1  0  0  0  0
M  END
>  <MODEL>
6

>  <REMARK>
 VINA RESULT:      -4.5      4.738      9.162
  Name = 
  14 active torsions:
  status: ('A' for Active; 'I' for Inactive)
    1  A    between atoms: N_2  and  C_36
    2  A    between atoms: C_7  and  C_44
    3  A    between atoms: C_8  and  C_14
    4  A    between atoms: C_9  and  C_21
    5  A    between atoms: C_9  and  C_33
    6  A    between atoms: C_10  and  C_11
    7  A    between atoms: C_10  and  C_25
    8  A    between atoms: C_11  and  C_19
    9  A    between atoms: N_13  and  C_29
   10  A    between atoms: C_21  and  N_38
   11  A    between atoms: C_22  and  C_29
   12  A    between atoms: C_29  and  N_38
   13  A    between atoms: C_32  and  C_33
   14  A    between atoms: N_42  and  S_46
                            x       y       z     vdW  Elec       q    Type
                         _______ _______ _______ _____ _____    ______ ____

>  <TORSDO>
F 14

$$$$
=
 OpenBabel11042422153D

 50 54  0  0  1  0  0  0  0  0999 V2000
  161.2500  205.8260  142.6380 C   0  0  0  0  0  2  0  0  0  0  0  0
  163.0730  205.2440  144.3290 C   0  0  0  0  0  3  0  0  0  0  0  0
  162.0420  203.9910  147.5490 N   0  0  0  0  0  2  0  0  0  0  0  0
  161.7400  205.3220  143.9490 C   0  0  0  0  0  0  0  0  0  0  0  0
  162.0950  204.5010  146.2120 C   0  0  0  0  0  0  0  0  0  0  0  0
  163.2630  204.7790  145.5920 N   0  0  0  0  0  0  0  0  0  0  0  0
  160.7660  204.8140  145.2230 S   0  0  0  0  0  0  0  0  0  0  0  0
  160.8220  203.7180  148.3030 C   0  0  1  0  0  3  0  0  0  0  0  0
  159.6640  201.8060  149.1860 O   0  0  0  0  0  1  0  0  0  0  0  0
  161.5840  201.3590  148.0220 O   0  0  0  0  0  0  0  0  0  0  0  0
  160.6430  202.2460  148.5250 C   0  0  0  0  0  0  0  0  0  0  0  0
  160.8160  204.4550  149.5580 N   0  0  0  0  0  2  0  0  0  0  0  0
  160.4250  205.8220  149.2460 C   0  0  0  0  0  2  0  0  0  0  0  0
  160.7490  207.5810  151.7720 C   0  0  0  0  0  2  0  0  0  0  0  0
  161.4600  206.8280  149.7650 C   0  0  2  0  0  0  0  0  0  0  0  0
  161.9530  206.7350  152.1030 C   0  0  2  0  0  3  0  0  0  0  0  0
  162.3520  206.1370  150.7880 C   0  0  0  0  0  2  0  0  0  0  0  0
  160.7830  207.8890  150.4020 O   0  0  0  0  0  0  0  0  0  0  0  0
  161.5920  205.6710  153.0850 C   0  0  0  0  0  0  0  0  0  0  0  0
  161.5220  204.3390  152.6930 O   0  0  0  0  0  0  0  0  0  0  0  0
  161.3300  205.9860  154.2730 O   0  0  0  0  0  1  0  0  0  0  0  0
  161.6020  207.2870  147.3980 O   0  0  0  0  0  1  0  0  0  0  0  0
  162.3070  207.3760  148.6010 C   0  0  1  0  0  3  0  0  0  0  0  0
  161.9430  209.7110  148.6430 O   0  0  0  0  0  0  0  0  0  0  0  0
  162.7290  208.7980  148.8290 C   0  0  0  0  0  3  0  0  0  0  0  0
  162.0590  207.0350  142.2140 C   0  0  0  0  0  2  0  0  0  0  0  0
  162.0990  208.2590  139.9500 C   0  0  0  0  0  0  0  0  0  0  0  0
  162.1160  207.1110  140.7270 C   0  0  0  0  0  0  0  0  0  0  0  0
  162.2080  207.8240  138.6430 C   0  0  0  0  0  3  0  0  0  0  0  0
  162.2420  206.0340  139.9310 N   0  0  0  0  0  0  0  0  0  0  0  0
  162.2910  206.4800  138.6860 N   0  0  0  0  0  0  0  0  0  0  0  0
  162.4260  205.6150  137.5280 C   0  0  0  0  0  1  0  0  0  0  0  0
  160.7180  210.1560  140.8380 N   0  0  0  0  0  2  0  0  0  0  0  0
  163.0070  210.4020  140.3840 O   0  0  0  0  0  0  0  0  0  0  0  0
  161.9890  209.6590  140.3930 C   0  0  0  0  0  0  0  0  0  0  0  0
  157.6380  213.9510  144.9520 O   0  0  0  0  0  0  0  0  0  0  0  0
  158.8710  213.7890  144.7460 C   0  0  0  0  0  0  0  0  0  0  0  0
  161.6450  213.0580  144.6030 C   0  0  2  0  0  3  0  0  0  0  0  0
  158.6810  213.7900  142.3280 C   0  0  0  0  0  3  0  0  0  0  0  0
  161.1720  214.1250  145.4940 N   0  0  0  0  0  2  0  0  0  0  0  0
  159.2100  213.6530  140.9420 C   0  0  0  0  0  2  0  0  0  0  0  0
  163.0860  213.3490  144.2170 C   0  0  0  0  0  1  0  0  0  0  0  0
  160.4070  211.4860  141.2810 C   0  0  0  0  0  0  0  0  0  0  0  0
  159.3930  213.4730  143.4130 C   0  0  0  0  0  0  0  0  0  0  0  0
  159.5180  212.2330  140.6160 C   0  0  0  0  0  3  0  0  0  0  0  0
  159.8190  213.9040  145.8100 N   0  0  0  0  0  0  0  0  0  0  0  0
  161.1470  211.9760  142.4660 C   0  0  0  0  0  3  0  0  0  0  0  0
  160.7660  212.8950  143.3730 C   0  0  0  0  0  0  0  0  0  0  0  0
  160.8660  213.0690  148.0260 C   0  0  0  0  0  1  0  0  0  0  0  0
  159.3110  213.8460  147.5030 S   0  0  0  0  0  0  0  0  0  0  0  0
  1  4  1  0  0  0  0
  2  6  1  0  0  0  0
  4  2  2  0  0  0  0
  4  7  1  0  0  0  0
  5  3  1  0  0  0  0
  6  5  2  0  0  0  0
  7  5  1  0  0  0  0
  8  3  1  1  0  0  0
  8 11  1  0  0  0  0
  8 12  1  0  0  0  0
 10 11  2  0  0  0  0
 11  9  1  0  0  0  0
 13 12  1  0  0  0  0
 14 16  1  0  0  0  0
 15 13  1  6  0  0  0
 15 18  1  0  0  0  0
 15 17  1  0  0  0  0
 16 19  1  1  0  0  0
 17 16  1  0  0  0  0
 18 14  1  0  0  0  0
 19 21  1  0  0  0  0
 20 19  2  0  0  0  0
 23 22  1  6  0  0  0
 23 25  1  0  0  0  0
 23 15  1  0  0  0  0
 24 25  2  0  0  0  0
 26  1  1  0  0  0  0
 27 35  1  0  0  0  0
 27 28  1  0  0  0  0
 28 26  1  0  0  0  0
 29 31  1  0  0  0  0
 29 27  2  0  0  0  0
 30 28  2  0  0  0  0
 31 30  1  0  0  0  0
 32 31  1  0  0  0  0
 33 43  1  0  0  0  0
 34 35  2  0  0  0  0
 35 33  1  0  0  0  0
 37 36  2  0  0  0  0
 37 46  1  0  0  0  0
 38 42  1  6  0  0  0
 38 40  1  0  0  0  0
 39 44  2  0  0  0  0
 40 46  1  0  0  0  0
 41 39  1  0  0  0  0
 43 47  1  0  0  0  0
 44 37  1  0  0  0  0
 45 41  1  0  0  0  0
 45 43  2  0  0  0  0
 46 50  1  0  0  0  0
 47 48  2  0  0  0  0
 48 44  1  0  0  0  0
 48 38  1  0  0  0  0
 50 49  1  0  0  0  0
M  END
>  <MODEL>
7

>  <REMARK>
 VINA RESULT:      -4.5      4.320      8.704
  Name = 
  14 active torsions:
  status: ('A' for Active; 'I' for Inactive)
    1  A    between atoms: N_2  and  C_36
    2  A    between atoms: C_7  and  C_44
    3  A    between atoms: C_8  and  C_14
    4  A    between atoms: C_9  and  C_21
    5  A    between atoms: C_9  and  C_33
    6  A    between atoms: C_10  and  C_11
    7  A    between atoms: C_10  and  C_25
    8  A    between atoms: C_11  and  C_19
    9  A    between atoms: N_13  and  C_29
   10  A    between atoms: C_21  and  N_38
   11  A    between atoms: C_22  and  C_29
   12  A    between atoms: C_29  and  N_38
   13  A    between atoms: C_32  and  C_33
   14  A    between atoms: N_42  and  S_46
                            x       y       z     vdW  Elec       q    Type
                         _______ _______ _______ _____ _____    ______ ____

>  <TORSDO>
F 14

$$$$
=
 OpenBabel11042422153D

 50 54  0  0  1  0  0  0  0  0999 V2000
  161.6960  211.1360  147.9630 C   0  0  0  0  0  2  0  0  0  0  0  0
  162.2610  210.6170  150.3980 C   0  0  0  0  0  3  0  0  0  0  0  0
  162.4830  207.1520  151.3700 N   0  0  0  0  0  2  0  0  0  0  0  0
  161.9800  210.2190  149.0980 C   0  0  0  0  0  0  0  0  0  0  0  0
  162.3180  208.3850  150.6620 C   0  0  0  0  0  0  0  0  0  0  0  0
  162.4540  209.5870  151.2640 N   0  0  0  0  0  0  0  0  0  0  0  0
  161.9550  208.5380  149.0230 S   0  0  0  0  0  0  0  0  0  0  0  0
  162.3000  205.8190  150.8050 C   0  0  1  0  0  3  0  0  0  0  0  0
  161.9060  203.6630  151.7910 O   0  0  0  0  0  0  0  0  0  0  0  0
  160.7330  205.4060  152.7010 O   0  0  0  0  0  1  0  0  0  0  0  0
  161.6510  204.8970  151.7940 C   0  0  0  0  0  0  0  0  0  0  0  0
  161.5510  205.8860  149.5590 N   0  0  0  0  0  2  0  0  0  0  0  0
  162.2920  205.1120  148.5750 C   0  0  0  0  0  2  0  0  0  0  0  0
  160.2180  205.4170  146.2970 C   0  0  0  0  0  2  0  0  0  0  0  0
  161.3630  204.1720  147.7940 C   0  0  2  0  0  0  0  0  0  0  0  0
  161.1530  204.5910  145.4500 C   0  0  2  0  0  3  0  0  0  0  0  0
  161.9970  203.8560  146.4470 C   0  0  0  0  0  2  0  0  0  0  0  0
  160.1350  204.8310  147.5710 O   0  0  0  0  0  0  0  0  0  0  0  0
  161.9940  205.4710  144.5870 C   0  0  0  0  0  0  0  0  0  0  0  0
  161.5850  205.8020  143.3000 O   0  0  0  0  0  0  0  0  0  0  0  0
  163.0920  205.9010  145.0230 O   0  0  0  0  0  1  0  0  0  0  0  0
  160.0280  203.0250  149.4490 O   0  0  0  0  0  1  0  0  0  0  0  0
  161.1190  202.8760  148.5890 C   0  0  1  0  0  3  0  0  0  0  0  0
  161.2750  200.5870  148.0220 O   0  0  0  0  0  0  0  0  0  0  0  0
  160.8900  201.6960  147.6910 C   0  0  0  0  0  3  0  0  0  0  0  0
  161.4120  212.5310  148.4840 C   0  0  0  0  0  2  0  0  0  0  0  0
  159.0210  213.4840  148.4600 C   0  0  0  0  0  0  0  0  0  0  0  0
  160.1880  213.0770  147.8330 C   0  0  0  0  0  0  0  0  0  0  0  0
  158.1970  213.9440  147.4500 C   0  0  0  0  0  3  0  0  0  0  0  0
  160.0820  213.2910  146.5090 N   0  0  0  0  0  0  0  0  0  0  0  0
  158.8810  213.8060  146.2980 N   0  0  0  0  0  0  0  0  0  0  0  0
  158.3860  214.1780  144.9860 C   0  0  0  0  0  1  0  0  0  0  0  0
  159.7340  213.1430  150.8420 N   0  0  0  0  0  2  0  0  0  0  0  0
  157.5220  213.6870  150.2820 O   0  0  0  0  0  0  0  0  0  0  0  0
  158.6970  213.4470  149.8970 C   0  0  0  0  0  0  0  0  0  0  0  0
  157.3680  210.0270  155.8920 O   0  0  0  0  0  0  0  0  0  0  0  0
  158.5600  210.2170  155.5250 C   0  0  0  0  0  0  0  0  0  0  0  0
  161.2130  210.2410  154.4260 C   0  0  2  0  0  3  0  0  0  0  0  0
  158.2360  212.5540  154.9630 C   0  0  0  0  0  3  0  0  0  0  0  0
  160.9220  209.6330  155.7300 N   0  0  0  0  0  2  0  0  0  0  0  0
  158.6650  213.8750  154.4240 C   0  0  0  0  0  2  0  0  0  0  0  0
  162.6540  210.7230  154.4250 C   0  0  0  0  0  1  0  0  0  0  0  0
  159.6110  213.0370  152.2680 C   0  0  0  0  0  0  0  0  0  0  0  0
  158.9640  211.4420  154.8300 C   0  0  0  0  0  0  0  0  0  0  0  0
  158.7820  213.8440  152.9400 C   0  0  0  0  0  3  0  0  0  0  0  0
  159.5730  209.2390  155.7720 N   0  0  0  0  0  0  0  0  0  0  0  0
  160.4690  212.0300  152.9320 C   0  0  0  0  0  3  0  0  0  0  0  0
  160.2530  211.3710  154.0850 C   0  0  0  0  0  0  0  0  0  0  0  0
  160.7080  207.3320  157.1070 C   0  0  0  0  0  1  0  0  0  0  0  0
  159.1580  207.5720  156.1940 S   0  0  0  0  0  0  0  0  0  0  0  0
  1 26  1  0  0  0  0
  1  4  1  0  0  0  0
  2  6  1  0  0  0  0
  4  2  2  0  0  0  0
  5  6  2  0  0  0  0
  5  3  1  0  0  0  0
  7  4  1  0  0  0  0
  7  5  1  0  0  0  0
  8 12  1  6  0  0  0
  8  3  1  0  0  0  0
  8 11  1  0  0  0  0
  9 11  2  0  0  0  0
 11 10  1  0  0  0  0
 13 12  1  0  0  0  0
 14 18  1  0  0  0  0
 15 13  1  1  0  0  0
 15 23  1  0  0  0  0
 16 19  1  6  0  0  0
 16 14  1  0  0  0  0
 16 17  1  0  0  0  0
 17 15  1  0  0  0  0
 18 15  1  0  0  0  0
 19 21  1  0  0  0  0
 20 19  2  0  0  0  0
 23 22  1  1  0  0  0
 25 24  2  0  0  0  0
 25 23  1  0  0  0  0
 27 35  1  0  0  0  0
 28 27  1  0  0  0  0
 28 26  1  0  0  0  0
 29 27  2  0  0  0  0
 30 28  2  0  0  0  0
 31 30  1  0  0  0  0
 31 29  1  0  0  0  0
 32 31  1  0  0  0  0
 33 43  1  0  0  0  0
 35 34  2  0  0  0  0
 35 33  1  0  0  0  0
 37 46  1  0  0  0  0
 37 36  2  0  0  0  0
 38 42  1  1  0  0  0
 38 40  1  0  0  0  0
 40 46  1  0  0  0  0
 41 39  1  0  0  0  0
 43 47  1  0  0  0  0
 43 45  2  0  0  0  0
 44 39  2  0  0  0  0
 44 37  1  0  0  0  0
 45 41  1  0  0  0  0
 46 50  1  0  0  0  0
 47 48  2  0  0  0  0
 48 38  1  0  0  0  0
 48 44  1  0  0  0  0
 50 49  1  0  0  0  0
M  END
>  <MODEL>
8

>  <REMARK>
 VINA RESULT:      -4.5      1.299      2.965
  Name = 
  14 active torsions:
  status: ('A' for Active; 'I' for Inactive)
    1  A    between atoms: N_2  and  C_36
    2  A    between atoms: C_7  and  C_44
    3  A    between atoms: C_8  and  C_14
    4  A    between atoms: C_9  and  C_21
    5  A    between atoms: C_9  and  C_33
    6  A    between atoms: C_10  and  C_11
    7  A    between atoms: C_10  and  C_25
    8  A    between atoms: C_11  and  C_19
    9  A    between atoms: N_13  and  C_29
   10  A    between atoms: C_21  and  N_38
   11  A    between atoms: C_22  and  C_29
   12  A    between atoms: C_29  and  N_38
   13  A    between atoms: C_32  and  C_33
   14  A    between atoms: N_42  and  S_46
                            x       y       z     vdW  Elec       q    Type
                         _______ _______ _______ _____ _____    ______ ____

>  <TORSDO>
F 14

$$$$
=
 OpenBabel11042422153D

 50 54  0  0  1  0  0  0  0  0999 V2000
  161.9480  211.1220  148.1860 C   0  0  0  0  0  2  0  0  0  0  0  0
  161.9560  210.5850  150.6820 C   0  0  0  0  0  3  0  0  0  0  0  0
  162.0200  207.1130  151.6540 N   0  0  0  0  0  2  0  0  0  0  0  0
  161.9850  210.1970  149.3490 C   0  0  0  0  0  0  0  0  0  0  0  0
  161.9960  208.3510  150.9350 C   0  0  0  0  0  0  0  0  0  0  0  0
  161.9680  209.5480  151.5610 N   0  0  0  0  0  0  0  0  0  0  0  0
  162.0120  208.5170  149.2580 S   0  0  0  0  0  0  0  0  0  0  0  0
  161.9970  205.7830  151.0510 C   0  0  1  0  0  3  0  0  0  0  0  0
  160.8890  203.7020  151.5150 O   0  0  0  0  0  0  0  0  0  0  0  0
  161.2060  205.0850  153.3120 O   0  0  0  0  0  1  0  0  0  0  0  0
  161.3430  204.7890  151.9630 C   0  0  0  0  0  0  0  0  0  0  0  0
  161.3560  205.8200  149.7460 N   0  0  0  0  0  2  0  0  0  0  0  0
  162.3020  205.2630  148.7910 C   0  0  0  0  0  2  0  0  0  0  0  0
  162.1490  202.6330  147.1670 C   0  0  0  0  0  2  0  0  0  0  0  0
  161.5910  204.7930  147.5150 C   0  0  2  0  0  0  0  0  0  0  0  0
  160.6920  202.5780  147.5540 C   0  0  2  0  0  3  0  0  0  0  0  0
  160.3530  203.9950  147.9040 C   0  0  0  0  0  2  0  0  0  0  0  0
  162.4620  203.9500  146.7940 O   0  0  0  0  0  0  0  0  0  0  0  0
  160.4940  201.6780  148.7270 C   0  0  0  0  0  0  0  0  0  0  0  0
  161.5820  201.0780  149.3520 O   0  0  0  0  0  1  0  0  0  0  0  0
  159.3300  201.4470  149.1420 O   0  0  0  0  0  0  0  0  0  0  0  0
  162.3320  206.5780  146.0660 O   0  0  0  0  0  1  0  0  0  0  0  0
  161.1980  206.0010  146.6440 C   0  0  1  0  0  3  0  0  0  0  0  0
  160.6190  205.1700  144.5090 O   0  0  0  0  0  0  0  0  0  0  0  0
  160.2230  205.6280  145.5670 C   0  0  0  0  0  3  0  0  0  0  0  0
  161.6790  212.5370  148.6580 C   0  0  0  0  0  2  0  0  0  0  0  0
  159.2850  213.4570  148.4480 C   0  0  0  0  0  0  0  0  0  0  0  0
  160.5170  213.1070  147.9200 C   0  0  0  0  0  0  0  0  0  0  0  0
  158.5590  213.9690  147.3900 C   0  0  0  0  0  3  0  0  0  0  0  0
  160.5420  213.4040  146.6090 N   0  0  0  0  0  0  0  0  0  0  0  0
  159.3590  213.9150  146.3080 N   0  0  0  0  0  0  0  0  0  0  0  0
  158.9930  214.3640  144.9770 C   0  0  0  0  0  1  0  0  0  0  0  0
  159.7700  213.3920  150.9090 N   0  0  0  0  0  2  0  0  0  0  0  0
  157.5900  213.1570  150.0750 O   0  0  0  0  0  0  0  0  0  0  0  0
  158.8170  213.3230  149.8390 C   0  0  0  0  0  0  0  0  0  0  0  0
  157.0880  210.0930  155.6770 O   0  0  0  0  0  0  0  0  0  0  0  0
  158.2980  210.3480  155.4300 C   0  0  0  0  0  0  0  0  0  0  0  0
  161.0410  210.5210  154.5970 C   0  0  2  0  0  3  0  0  0  0  0  0
  157.9100  212.6730  154.8590 C   0  0  0  0  0  3  0  0  0  0  0  0
  160.6560  209.8820  155.8610 N   0  0  0  0  0  2  0  0  0  0  0  0
  158.3210  214.0210  154.3760 C   0  0  0  0  0  2  0  0  0  0  0  0
  162.4490  211.0750  154.7410 C   0  0  0  0  0  1  0  0  0  0  0  0
  159.5150  213.2610  152.3160 C   0  0  0  0  0  0  0  0  0  0  0  0
  158.7050  211.6010  154.7880 C   0  0  0  0  0  0  0  0  0  0  0  0
  158.5840  214.0170  152.9100 C   0  0  0  0  0  3  0  0  0  0  0  0
  159.3310  209.4190  155.7670 N   0  0  0  0  0  0  0  0  0  0  0  0
  160.3550  212.2900  153.0520 C   0  0  0  0  0  3  0  0  0  0  0  0
  160.0620  211.6050  154.1730 C   0  0  0  0  0  0  0  0  0  0  0  0
  160.7180  207.3060  156.3320 C   0  0  0  0  0  1  0  0  0  0  0  0
  158.9630  207.7280  156.1330 S   0  0  0  0  0  0  0  0  0  0  0  0
  1 26  1  0  0  0  0
  1  4  1  0  0  0  0
  2  6  1  0  0  0  0
  4  2  2  0  0  0  0
  5  6  2  0  0  0  0
  5  3  1  0  0  0  0
  7  4  1  0  0  0  0
  7  5  1  0  0  0  0
  8 12  1  6  0  0  0
  8  3  1  0  0  0  0
  8 11  1  0  0  0  0
  9 11  2  0  0  0  0
 11 10  1  0  0  0  0
 13 12  1  0  0  0  0
 14 16  1  0  0  0  0
 15 17  1  0  0  0  0
 15 13  1  1  0  0  0
 16 17  1  0  0  0  0
 16 19  1  1  0  0  0
 18 14  1  0  0  0  0
 18 15  1  0  0  0  0
 19 21  2  0  0  0  0
 19 20  1  0  0  0  0
 23 22  1  6  0  0  0
 23 15  1  0  0  0  0
 24 25  2  0  0  0  0
 25 23  1  0  0  0  0
 27 35  1  0  0  0  0
 28 27  1  0  0  0  0
 28 26  1  0  0  0  0
 29 27  2  0  0  0  0
 30 28  2  0  0  0  0
 31 30  1  0  0  0  0
 31 29  1  0  0  0  0
 32 31  1  0  0  0  0
 33 43  1  0  0  0  0
 35 34  2  0  0  0  0
 35 33  1  0  0  0  0
 37 36  2  0  0  0  0
 37 46  1  0  0  0  0
 38 42  1  1  0  0  0
 38 40  1  0  0  0  0
 41 39  1  0  0  0  0
 43 45  2  0  0  0  0
 43 47  1  0  0  0  0
 44 39  2  0  0  0  0
 44 37  1  0  0  0  0
 45 41  1  0  0  0  0
 46 40  1  0  0  0  0
 46 50  1  0  0  0  0
 47 48  2  0  0  0  0
 48 38  1  0  0  0  0
 48 44  1  0  0  0  0
 50 49  1  0  0  0  0
M  END
>  <MODEL>
9

>  <REMARK>
 VINA RESULT:      -4.3      1.324      3.094
  Name = 
  14 active torsions:
  status: ('A' for Active; 'I' for Inactive)
    1  A    between atoms: N_2  and  C_36
    2  A    between atoms: C_7  and  C_44
    3  A    between atoms: C_8  and  C_14
    4  A    between atoms: C_9  and  C_21
    5  A    between atoms: C_9  and  C_33
    6  A    between atoms: C_10  and  C_11
    7  A    between atoms: C_10  and  C_25
    8  A    between atoms: C_11  and  C_19
    9  A    between atoms: N_13  and  C_29
   10  A    between atoms: C_21  and  N_38
   11  A    between atoms: C_22  and  C_29
   12  A    between atoms: C_29  and  N_38
   13  A    between atoms: C_32  and  C_33
   14  A    between atoms: N_42  and  S_46
                            x       y       z     vdW  Elec       q    Type
                         _______ _______ _______ _____ _____    ______ ____

>  <TORSDO>
F 14

$$$$
