=
 OpenBabel11042420093D

 30 31  0  0  1  0  0  0  0  0999 V2000
  161.6280  208.1510  149.0560 C   0  0  2  0  0  3  0  0  0  0  0  0
  161.5330  209.3840  148.2840 N   0  0  0  0  0  0  0  0  0  0  0  0
  162.1940  208.5880  150.4110 C   0  0  1  0  0  3  0  0  0  0  0  0
  162.3320  209.9920  150.2790 O   0  0  0  0  0  0  0  0  0  0  0  0
  161.9370  210.3640  149.0120 C   0  0  0  0  0  0  0  0  0  0  0  0
  163.2790  212.1170  148.0650 N   0  0  0  0  0  1  0  0  0  0  0  0
  161.9470  211.7720  148.5310 C   0  0  0  0  0  2  0  0  0  0  0  0
  160.7330  209.3820  152.1620 O   0  0  0  0  0  1  0  0  0  0  0  0
  161.2230  208.2300  151.5410 C   0  0  2  0  0  3  0  0  0  0  0  0
  161.8510  207.3050  152.5800 C   0  0  2  0  0  3  0  0  0  0  0  0
  162.4370  206.2040  151.9780 F   0  0  0  0  0  0  0  0  0  0  0  0
  160.8180  206.8650  153.6080 C   0  0  0  0  0  2  0  0  0  0  0  0
  161.2660  207.2150  155.0200 C   0  0  0  0  0  2  0  0  0  0  0  0
  159.7480  209.1280  155.6540 N   0  0  0  0  0  1  0  0  0  0  0  0
  159.4990  207.0270  156.6090 O   0  0  0  0  0  0  0  0  0  0  0  0
  160.1330  207.7690  155.8150 C   0  0  0  0  0  0  0  0  0  0  0  0
  162.5980  207.1930  148.3880 C   0  0  0  0  0  2  0  0  0  0  0  0
  162.2100  206.9860  146.9960 N   0  0  0  0  0  2  0  0  0  0  0  0
  161.3880  205.7780  146.8630 C   0  0  1  0  0  3  0  0  0  0  0  0
  161.6190  204.8940  144.5220 O   0  0  0  0  0  0  0  0  0  0  0  0
  160.8670  205.5860  145.4650 C   0  0  0  0  0  0  0  0  0  0  0  0
  159.7800  206.1180  145.1180 O   0  0  0  0  0  1  0  0  0  0  0  0
  162.2440  204.2910  147.5040 S   0  0  0  0  0  0  0  0  0  0  0  0
  160.9530  203.3520  152.0520 C   0  0  0  0  0  1  0  0  0  0  0  0
  160.7690  203.6990  148.3890 C   0  0  2  0  0  3  0  0  0  0  0  0
  160.8940  203.1740  150.5780 C   0  0  0  0  0  0  0  0  0  0  0  0
  160.8060  204.1780  149.7640 N   0  0  0  0  0  0  0  0  0  0  0  0
  160.8220  201.3730  147.6690 O   0  0  0  0  0  0  0  0  0  0  0  0
  160.9300  201.8930  149.9620 N   0  0  0  0  0  2  0  0  0  0  0  0
  160.8460  202.2300  148.5910 C   0  0  0  0  0  0  0  0  0  0  0  0
  1 17  1  6  0  0  0
  1  3  1  0  0  0  0
  2  5  2  0  0  0  0
  2  1  1  0  0  0  0
  3  9  1  1  0  0  0
  4  3  1  0  0  0  0
  5  4  1  0  0  0  0
  6  7  1  0  0  0  0
  7  5  1  0  0  0  0
  9  8  1  1  0  0  0
  9 10  1  0  0  0  0
 10 11  1  6  0  0  0
 10 12  1  0  0  0  0
 12 13  1  0  0  0  0
 13 16  1  0  0  0  0
 14 16  1  0  0  0  0
 16 15  2  0  0  0  0
 18 17  1  0  0  0  0
 19 21  1  6  0  0  0
 19 18  1  0  0  0  0
 19 23  1  0  0  0  0
 20 21  2  0  0  0  0
 22 21  1  0  0  0  0
 25 23  1  6  0  0  0
 25 30  1  0  0  0  0
 25 27  1  0  0  0  0
 26 24  1  0  0  0  0
 27 26  2  0  0  0  0
 28 30  2  0  0  0  0
 29 26  1  0  0  0  0
 30 29  1  0  0  0  0
M  END
>  <MODEL>
1

>  <REMARK>
 VINA RESULT:      -6.8      0.000      0.000
  Name = 
  12 active torsions:
  status: ('A' for Active; 'I' for Inactive)
    1  A    between atoms: C_1  and  C_6
    2  A    between atoms: C_1  and  C_19
    3  A    between atoms: S_2  and  C_5
    4  A    between atoms: S_2  and  C_21
    5  A    between atoms: C_4  and  C_20
    6  A    between atoms: C_6  and  C_25
    7  A    between atoms: C_12  and  C_19
    8  A    between atoms: N_16  and  C_20
    9  A    between atoms: N_16  and  C_21
   10  A    between atoms: C_21  and  C_23
   11  A    between atoms: C_22  and  C_28
   12  A    between atoms: C_25  and  C_26
                            x       y       z     vdW  Elec       q    Type
                         _______ _______ _______ _____ _____    ______ ____

>  <TORSDO>
F 12

$$$$
=
 OpenBabel11042420093D

 30 31  0  0  1  0  0  0  0  0999 V2000
  161.7990  206.9680  151.4970 C   0  0  2  0  0  3  0  0  0  0  0  0
  162.2940  208.1930  150.8810 N   0  0  0  0  0  0  0  0  0  0  0  0
  160.8570  206.3630  150.4510 C   0  0  1  0  0  3  0  0  0  0  0  0
  160.9350  207.2720  149.3650 O   0  0  0  0  0  0  0  0  0  0  0  0
  161.7800  208.3060  149.7070 C   0  0  0  0  0  0  0  0  0  0  0  0
  162.0750  210.6840  149.5440 N   0  0  0  0  0  1  0  0  0  0  0  0
  162.0970  209.4390  148.7970 C   0  0  0  0  0  2  0  0  0  0  0  0
  161.3460  204.8310  148.6490 O   0  0  0  0  0  1  0  0  0  0  0  0
  161.3350  204.9660  150.0390 C   0  0  2  0  0  3  0  0  0  0  0  0
  160.4950  203.8550  150.6630 C   0  0  2  0  0  3  0  0  0  0  0  0
  160.4380  203.9870  152.0400 F   0  0  0  0  0  0  0  0  0  0  0  0
  161.0390  202.4850  150.2800 C   0  0  0  0  0  2  0  0  0  0  0  0
  160.1120  201.7830  149.2980 C   0  0  0  0  0  2  0  0  0  0  0  0
  160.8270  201.9540  146.8830 N   0  0  0  0  0  1  0  0  0  0  0  0
  161.5850  200.2320  148.2440 O   0  0  0  0  0  0  0  0  0  0  0  0
  160.8760  201.2650  148.1260 C   0  0  0  0  0  0  0  0  0  0  0  0
  161.0130  207.2990  152.7530 C   0  0  0  0  0  2  0  0  0  0  0  0
  161.5720  208.4890  153.3880 N   0  0  0  0  0  2  0  0  0  0  0  0
  160.6940  208.9590  154.4660 C   0  0  1  0  0  3  0  0  0  0  0  0
  161.9630  208.3210  156.5390 O   0  0  0  0  0  1  0  0  0  0  0  0
  160.8470  208.1530  155.7270 C   0  0  0  0  0  0  0  0  0  0  0  0
  160.0030  207.2650  156.0160 O   0  0  0  0  0  0  0  0  0  0  0  0
  160.8680  210.7580  154.7570 S   0  0  0  0  0  0  0  0  0  0  0  0
  159.9210  213.3910  150.8320 C   0  0  0  0  0  1  0  0  0  0  0  0
  159.4250  211.1670  153.7270 C   0  0  2  0  0  3  0  0  0  0  0  0
  159.5840  212.7510  152.1290 C   0  0  0  0  0  0  0  0  0  0  0  0
  159.8720  211.5140  152.3850 N   0  0  0  0  0  0  0  0  0  0  0  0
  158.2690  212.6370  155.2870 O   0  0  0  0  0  0  0  0  0  0  0  0
  158.9230  213.4490  153.1760 N   0  0  0  0  0  2  0  0  0  0  0  0
  158.8230  212.4490  154.1720 C   0  0  0  0  0  0  0  0  0  0  0  0
  1 17  1  1  0  0  0
  2  1  1  0  0  0  0
  3  9  1  6  0  0  0
  3  1  1  0  0  0  0
  4  5  1  0  0  0  0
  4  3  1  0  0  0  0
  5  2  2  0  0  0  0
  7  6  1  0  0  0  0
  7  5  1  0  0  0  0
  9  8  1  6  0  0  0
  9 10  1  0  0  0  0
 10 11  1  1  0  0  0
 12 10  1  0  0  0  0
 13 12  1  0  0  0  0
 14 16  1  0  0  0  0
 16 15  2  0  0  0  0
 16 13  1  0  0  0  0
 17 18  1  0  0  0  0
 19 18  1  6  0  0  0
 19 23  1  0  0  0  0
 19 21  1  0  0  0  0
 21 22  2  0  0  0  0
 21 20  1  0  0  0  0
 24 26  1  0  0  0  0
 25 30  1  0  0  0  0
 25 23  1  1  0  0  0
 26 27  2  0  0  0  0
 26 29  1  0  0  0  0
 27 25  1  0  0  0  0
 29 30  1  0  0  0  0
 30 28  2  0  0  0  0
M  END
>  <MODEL>
2

>  <REMARK>
 VINA RESULT:      -6.3      3.328      8.188
  Name = 
  12 active torsions:
  status: ('A' for Active; 'I' for Inactive)
    1  A    between atoms: C_1  and  C_6
    2  A    between atoms: C_1  and  C_19
    3  A    between atoms: S_2  and  C_5
    4  A    between atoms: S_2  and  C_21
    5  A    between atoms: C_4  and  C_20
    6  A    between atoms: C_6  and  C_25
    7  A    between atoms: C_12  and  C_19
    8  A    between atoms: N_16  and  C_20
    9  A    between atoms: N_16  and  C_21
   10  A    between atoms: C_21  and  C_23
   11  A    between atoms: C_22  and  C_28
   12  A    between atoms: C_25  and  C_26
                            x       y       z     vdW  Elec       q    Type
                         _______ _______ _______ _____ _____    ______ ____

>  <TORSDO>
F 12

$$$$
=
 OpenBabel11042420093D

 30 31  0  0  1  0  0  0  0  0999 V2000
  161.8310  207.4870  150.3650 C   0  0  2  0  0  3  0  0  0  0  0  0
  161.6690  206.5070  151.4320 N   0  0  0  0  0  0  0  0  0  0  0  0
  161.3070  208.7980  150.9620 C   0  0  1  0  0  3  0  0  0  0  0  0
  160.9350  208.4380  152.2820 O   0  0  0  0  0  0  0  0  0  0  0  0
  161.1680  207.0920  152.4620 C   0  0  0  0  0  0  0  0  0  0  0  0
  160.9880  207.3110  154.8470 N   0  0  0  0  0  1  0  0  0  0  0  0
  160.8960  206.3780  153.7380 C   0  0  0  0  0  2  0  0  0  0  0  0
  162.7550  210.2170  152.2730 O   0  0  0  0  0  1  0  0  0  0  0  0
  162.4060  209.8660  150.9670 C   0  0  2  0  0  3  0  0  0  0  0  0
  162.0110  211.1120  150.1790 C   0  0  2  0  0  3  0  0  0  0  0  0
  160.7660  211.5760  150.5710 F   0  0  0  0  0  0  0  0  0  0  0  0
  162.0320  210.8370  148.6820 C   0  0  0  0  0  2  0  0  0  0  0  0
  162.6400  212.0050  147.9190 C   0  0  0  0  0  2  0  0  0  0  0  0
  161.8320  214.1830  146.9330 N   0  0  0  0  0  1  0  0  0  0  0  0
  160.4610  212.3100  146.9990 O   0  0  0  0  0  0  0  0  0  0  0  0
  161.5770  212.8260  147.2710 C   0  0  0  0  0  0  0  0  0  0  0  0
  160.9810  207.1000  149.1690 C   0  0  0  0  0  2  0  0  0  0  0  0
  161.8400  206.7200  148.0510 N   0  0  0  0  0  2  0  0  0  0  0  0
  161.2510  205.6040  147.3030 C   0  0  1  0  0  3  0  0  0  0  0  0
  162.1880  205.7870  144.9790 O   0  0  0  0  0  0  0  0  0  0  0  0
  161.1020  205.9070  145.8380 C   0  0  0  0  0  0  0  0  0  0  0  0
  160.0090  206.3480  145.3920 O   0  0  0  0  0  1  0  0  0  0  0  0
  162.1360  204.0300  147.6080 S   0  0  0  0  0  0  0  0  0  0  0  0
  160.9160  202.9970  152.1550 C   0  0  0  0  0  1  0  0  0  0  0  0
  160.7270  203.2900  148.4880 C   0  0  2  0  0  3  0  0  0  0  0  0
  160.8900  202.8000  150.6830 C   0  0  0  0  0  0  0  0  0  0  0  0
  160.7000  203.7820  149.8590 N   0  0  0  0  0  0  0  0  0  0  0  0
  161.0360  200.9770  147.7910 O   0  0  0  0  0  0  0  0  0  0  0  0
  161.0680  201.5260  150.0800 N   0  0  0  0  0  2  0  0  0  0  0  0
  160.9600  201.8400  148.7040 C   0  0  0  0  0  0  0  0  0  0  0  0
  1 17  1  6  0  0  0
  1  3  1  0  0  0  0
  1  2  1  0  0  0  0
  2  5  2  0  0  0  0
  3  9  1  1  0  0  0
  3  4  1  0  0  0  0
  4  5  1  0  0  0  0
  5  7  1  0  0  0  0
  7  6  1  0  0  0  0
  9  8  1  1  0  0  0
 10 11  1  1  0  0  0
 10  9  1  0  0  0  0
 12 10  1  0  0  0  0
 13 12  1  0  0  0  0
 14 16  1  0  0  0  0
 15 16  2  0  0  0  0
 16 13  1  0  0  0  0
 18 17  1  0  0  0  0
 19 21  1  6  0  0  0
 19 23  1  0  0  0  0
 19 18  1  0  0  0  0
 20 21  2  0  0  0  0
 22 21  1  0  0  0  0
 25 23  1  6  0  0  0
 25 30  1  0  0  0  0
 25 27  1  0  0  0  0
 26 24  1  0  0  0  0
 27 26  2  0  0  0  0
 28 30  2  0  0  0  0
 29 26  1  0  0  0  0
 30 29  1  0  0  0  0
M  END
>  <MODEL>
3

>  <REMARK>
 VINA RESULT:      -6.3      1.867      4.832
  Name = 
  12 active torsions:
  status: ('A' for Active; 'I' for Inactive)
    1  A    between atoms: C_1  and  C_6
    2  A    between atoms: C_1  and  C_19
    3  A    between atoms: S_2  and  C_5
    4  A    between atoms: S_2  and  C_21
    5  A    between atoms: C_4  and  C_20
    6  A    between atoms: C_6  and  C_25
    7  A    between atoms: C_12  and  C_19
    8  A    between atoms: N_16  and  C_20
    9  A    between atoms: N_16  and  C_21
   10  A    between atoms: C_21  and  C_23
   11  A    between atoms: C_22  and  C_28
   12  A    between atoms: C_25  and  C_26
                            x       y       z     vdW  Elec       q    Type
                         _______ _______ _______ _____ _____    ______ ____

>  <TORSDO>
F 12

$$$$
=
 OpenBabel11042420093D

 30 31  0  0  1  0  0  0  0  0999 V2000
  161.7140  208.1500  152.2630 C   0  0  2  0  0  3  0  0  0  0  0  0
  162.1310  208.7520  151.0030 N   0  0  0  0  0  0  0  0  0  0  0  0
  160.8560  206.9490  151.8510 C   0  0  1  0  0  3  0  0  0  0  0  0
  160.8960  206.9800  150.4340 O   0  0  0  0  0  0  0  0  0  0  0  0
  161.6460  208.0630  150.0310 C   0  0  0  0  0  0  0  0  0  0  0  0
  162.4790  207.2450  147.9330 N   0  0  0  0  0  1  0  0  0  0  0  0
  161.9020  208.3960  148.6040 C   0  0  0  0  0  2  0  0  0  0  0  0
  162.8210  205.5730  152.1220 O   0  0  0  0  0  1  0  0  0  0  0  0
  161.4530  205.6470  152.3950 C   0  0  2  0  0  3  0  0  0  0  0  0
  160.7460  204.4080  151.8510 C   0  0  2  0  0  3  0  0  0  0  0  0
  160.3980  203.5430  152.8750 F   0  0  0  0  0  0  0  0  0  0  0  0
  161.6140  203.6970  150.8220 C   0  0  0  0  0  2  0  0  0  0  0  0
  160.8670  203.5130  149.5090 C   0  0  0  0  0  2  0  0  0  0  0  0
  160.7530  201.6980  147.7580 N   0  0  0  0  0  1  0  0  0  0  0  0
  160.8320  201.1850  150.0210 O   0  0  0  0  0  0  0  0  0  0  0  0
  160.8080  202.0720  149.1290 C   0  0  0  0  0  0  0  0  0  0  0  0
  160.8670  209.1300  153.0530 C   0  0  0  0  0  2  0  0  0  0  0  0
  160.7350  208.6730  154.4330 N   0  0  0  0  0  2  0  0  0  0  0  0
  160.6930  209.8140  155.3540 C   0  0  1  0  0  3  0  0  0  0  0  0
  162.2730  208.7090  156.9640 O   0  0  0  0  0  1  0  0  0  0  0  0
  161.8760  209.8530  156.2810 C   0  0  0  0  0  0  0  0  0  0  0  0
  162.4690  210.9410  156.5030 O   0  0  0  0  0  0  0  0  0  0  0  0
  160.4420  211.3990  154.4700 S   0  0  0  0  0  0  0  0  0  0  0  0
  155.7410  210.6060  155.1860 C   0  0  0  0  0  1  0  0  0  0  0  0
  159.1430  211.9510  155.6190 C   0  0  2  0  0  3  0  0  0  0  0  0
  156.9870  211.4140  155.2370 C   0  0  0  0  0  0  0  0  0  0  0  0
  158.1010  210.9360  155.6940 N   0  0  0  0  0  0  0  0  0  0  0  0
  158.8810  214.2310  154.8040 O   0  0  0  0  0  0  0  0  0  0  0  0
  157.0410  212.7630  154.7910 N   0  0  0  0  0  2  0  0  0  0  0  0
  158.3950  213.0940  155.0370 C   0  0  0  0  0  0  0  0  0  0  0  0
  1 17  1  1  0  0  0
  2  1  1  0  0  0  0
  3  1  1  0  0  0  0
  3  9  1  1  0  0  0
  4  3  1  0  0  0  0
  5  4  1  0  0  0  0
  5  2  2  0  0  0  0
  6  7  1  0  0  0  0
  7  5  1  0  0  0  0
  9  8  1  6  0  0  0
 10  9  1  0  0  0  0
 10 11  1  1  0  0  0
 12 10  1  0  0  0  0
 13 12  1  0  0  0  0
 14 16  1  0  0  0  0
 16 13  1  0  0  0  0
 16 15  2  0  0  0  0
 17 18  1  0  0  0  0
 19 18  1  6  0  0  0
 19 21  1  0  0  0  0
 21 22  2  0  0  0  0
 21 20  1  0  0  0  0
 23 19  1  0  0  0  0
 24 26  1  0  0  0  0
 25 23  1  6  0  0  0
 25 27  1  0  0  0  0
 26 27  2  0  0  0  0
 28 30  2  0  0  0  0
 29 30  1  0  0  0  0
 29 26  1  0  0  0  0
 30 25  1  0  0  0  0
M  END
>  <MODEL>
4

>  <REMARK>
 VINA RESULT:      -6.0      3.595      8.483
  Name = 
  12 active torsions:
  status: ('A' for Active; 'I' for Inactive)
    1  A    between atoms: C_1  and  C_6
    2  A    between atoms: C_1  and  C_19
    3  A    between atoms: S_2  and  C_5
    4  A    between atoms: S_2  and  C_21
    5  A    between atoms: C_4  and  C_20
    6  A    between atoms: C_6  and  C_25
    7  A    between atoms: C_12  and  C_19
    8  A    between atoms: N_16  and  C_20
    9  A    between atoms: N_16  and  C_21
   10  A    between atoms: C_21  and  C_23
   11  A    between atoms: C_22  and  C_28
   12  A    between atoms: C_25  and  C_26
                            x       y       z     vdW  Elec       q    Type
                         _______ _______ _______ _____ _____    ______ ____

>  <TORSDO>
F 12

$$$$
=
 OpenBabel11042420093D

 30 31  0  0  1  0  0  0  0  0999 V2000
  160.9680  207.0620  149.1290 C   0  0  2  0  0  3  0  0  0  0  0  0
  160.2750  206.1860  150.0650 N   0  0  0  0  0  0  0  0  0  0  0  0
  162.1060  206.2030  148.5660 C   0  0  1  0  0  3  0  0  0  0  0  0
  161.9270  204.9510  149.2080 O   0  0  0  0  0  0  0  0  0  0  0  0
  160.8520  205.0370  150.0670 C   0  0  0  0  0  0  0  0  0  0  0  0
  161.5200  203.1730  151.4260 N   0  0  0  0  0  1  0  0  0  0  0  0
  160.3780  203.9000  150.9000 C   0  0  0  0  0  2  0  0  0  0  0  0
  160.6480  206.1960  146.6410 O   0  0  0  0  0  1  0  0  0  0  0  0
  161.9790  206.0690  147.0450 C   0  0  2  0  0  3  0  0  0  0  0  0
  162.5590  204.7560  146.5250 C   0  0  2  0  0  3  0  0  0  0  0  0
  163.5510  204.9870  145.5870 F   0  0  0  0  0  0  0  0  0  0  0  0
  161.4640  203.8750  145.9390 C   0  0  0  0  0  2  0  0  0  0  0  0
  161.1700  202.6900  146.8480 C   0  0  0  0  0  2  0  0  0  0  0  0
  161.1110  200.1920  146.4940 N   0  0  0  0  0  1  0  0  0  0  0  0
  160.0930  201.6440  144.9950 O   0  0  0  0  0  0  0  0  0  0  0  0
  160.7650  201.4980  146.0500 C   0  0  0  0  0  0  0  0  0  0  0  0
  161.5510  208.2540  149.8650 C   0  0  0  0  0  2  0  0  0  0  0  0
  162.1200  207.8210  151.1370 N   0  0  0  0  0  2  0  0  0  0  0  0
  161.2920  208.2830  152.2570 C   0  0  1  0  0  3  0  0  0  0  0  0
  161.9340  206.0880  153.2980 O   0  0  0  0  0  0  0  0  0  0  0  0
  161.2680  207.3040  153.3990 C   0  0  0  0  0  0  0  0  0  0  0  0
  160.5790  207.5470  154.4240 O   0  0  0  0  0  1  0  0  0  0  0  0
  161.7440  209.9750  152.7930 S   0  0  0  0  0  0  0  0  0  0  0  0
  159.3620  214.0410  151.7810 C   0  0  0  0  0  1  0  0  0  0  0  0
  160.0200  210.5540  152.7690 C   0  0  2  0  0  3  0  0  0  0  0  0
  159.5610  212.7420  152.4730 C   0  0  0  0  0  0  0  0  0  0  0  0
  159.8960  211.6640  151.8350 N   0  0  0  0  0  0  0  0  0  0  0  0
  159.6290  210.6380  155.1710 O   0  0  0  0  0  0  0  0  0  0  0  0
  159.3970  212.5900  153.8770 N   0  0  0  0  0  2  0  0  0  0  0  0
  159.6820  211.2150  154.0540 C   0  0  0  0  0  0  0  0  0  0  0  0
  1 17  1  1  0  0  0
  1  2  1  0  0  0  0
  2  5  2  0  0  0  0
  3  9  1  6  0  0  0
  3  1  1  0  0  0  0
  3  4  1  0  0  0  0
  4  5  1  0  0  0  0
  5  7  1  0  0  0  0
  7  6  1  0  0  0  0
  9  8  1  1  0  0  0
 10 11  1  6  0  0  0
 10  9  1  0  0  0  0
 12 10  1  0  0  0  0
 12 13  1  0  0  0  0
 15 16  2  0  0  0  0
 16 14  1  0  0  0  0
 16 13  1  0  0  0  0
 17 18  1  0  0  0  0
 19 18  1  6  0  0  0
 19 23  1  0  0  0  0
 19 21  1  0  0  0  0
 20 21  2  0  0  0  0
 21 22  1  0  0  0  0
 24 26  1  0  0  0  0
 25 23  1  1  0  0  0
 25 30  1  0  0  0  0
 26 29  1  0  0  0  0
 27 26  2  0  0  0  0
 27 25  1  0  0  0  0
 29 30  1  0  0  0  0
 30 28  2  0  0  0  0
M  END
>  <MODEL>
5

>  <REMARK>
 VINA RESULT:      -5.9      3.303      8.371
  Name = 
  12 active torsions:
  status: ('A' for Active; 'I' for Inactive)
    1  A    between atoms: C_1  and  C_6
    2  A    between atoms: C_1  and  C_19
    3  A    between atoms: S_2  and  C_5
    4  A    between atoms: S_2  and  C_21
    5  A    between atoms: C_4  and  C_20
    6  A    between atoms: C_6  and  C_25
    7  A    between atoms: C_12  and  C_19
    8  A    between atoms: N_16  and  C_20
    9  A    between atoms: N_16  and  C_21
   10  A    between atoms: C_21  and  C_23
   11  A    between atoms: C_22  and  C_28
   12  A    between atoms: C_25  and  C_26
                            x       y       z     vdW  Elec       q    Type
                         _______ _______ _______ _____ _____    ______ ____

>  <TORSDO>
F 12

$$$$
=
 OpenBabel11042420093D

 30 31  0  0  1  0  0  0  0  0999 V2000
  161.8630  207.7690  150.1640 C   0  0  2  0  0  3  0  0  0  0  0  0
  162.1430  206.6160  151.0120 N   0  0  0  0  0  0  0  0  0  0  0  0
  160.9010  208.6310  150.9900 C   0  0  1  0  0  3  0  0  0  0  0  0
  160.7610  207.9070  152.2010 O   0  0  0  0  0  0  0  0  0  0  0  0
  161.5050  206.7490  152.1200 C   0  0  0  0  0  0  0  0  0  0  0  0
  161.2930  206.4010  154.4870 N   0  0  0  0  0  1  0  0  0  0  0  0
  161.5910  205.7530  153.2210 C   0  0  0  0  0  2  0  0  0  0  0  0
  162.7620  209.9190  151.8320 O   0  0  0  0  0  1  0  0  0  0  0  0
  161.5000  210.0190  151.2400 C   0  0  2  0  0  3  0  0  0  0  0  0
  160.5920  210.9010  152.0930 C   0  0  2  0  0  3  0  0  0  0  0  0
  160.4240  212.1480  151.5150 F   0  0  0  0  0  0  0  0  0  0  0  0
  161.1410  211.0360  153.5060 C   0  0  0  0  0  2  0  0  0  0  0  0
  160.0950  210.6450  154.5400 C   0  0  0  0  0  2  0  0  0  0  0  0
  159.8470  209.0920  156.5140 N   0  0  0  0  0  1  0  0  0  0  0  0
  161.9380  209.6310  155.6610 O   0  0  0  0  0  0  0  0  0  0  0  0
  160.6900  209.7780  155.5960 C   0  0  0  0  0  0  0  0  0  0  0  0
  161.1730  207.3210  148.8890 C   0  0  0  0  0  2  0  0  0  0  0  0
  162.1290  206.6440  148.0190 N   0  0  0  0  0  2  0  0  0  0  0  0
  161.4680  205.5790  147.2560 C   0  0  1  0  0  3  0  0  0  0  0  0
  160.0820  206.2410  145.2680 O   0  0  0  0  0  1  0  0  0  0  0  0
  161.3260  205.9180  145.7970 C   0  0  0  0  0  0  0  0  0  0  0  0
  162.3200  205.8360  145.0300 O   0  0  0  0  0  0  0  0  0  0  0  0
  162.2610  203.9500  147.5230 S   0  0  0  0  0  0  0  0  0  0  0  0
  160.9010  202.8240  152.0090 C   0  0  0  0  0  1  0  0  0  0  0  0
  160.7960  203.2590  148.3520 C   0  0  2  0  0  3  0  0  0  0  0  0
  160.8910  202.6820  150.5300 C   0  0  0  0  0  0  0  0  0  0  0  0
  160.7720  203.7020  149.7390 N   0  0  0  0  0  0  0  0  0  0  0  0
  160.9880  200.9600  147.5750 O   0  0  0  0  0  0  0  0  0  0  0  0
  161.0090  201.4220  149.8830 N   0  0  0  0  0  2  0  0  0  0  0  0
  160.9440  201.7920  148.5180 C   0  0  0  0  0  0  0  0  0  0  0  0
  1 17  1  6  0  0  0
  1  3  1  0  0  0  0
  1  2  1  0  0  0  0
  2  5  2  0  0  0  0
  3  9  1  1  0  0  0
  3  4  1  0  0  0  0
  5  4  1  0  0  0  0
  5  7  1  0  0  0  0
  7  6  1  0  0  0  0
  9  8  1  1  0  0  0
  9 10  1  0  0  0  0
 10 11  1  6  0  0  0
 10 12  1  0  0  0  0
 12 13  1  0  0  0  0
 13 16  1  0  0  0  0
 16 15  2  0  0  0  0
 16 14  1  0  0  0  0
 18 17  1  0  0  0  0
 19 21  1  6  0  0  0
 19 23  1  0  0  0  0
 19 18  1  0  0  0  0
 20 21  1  0  0  0  0
 22 21  2  0  0  0  0
 25 23  1  6  0  0  0
 25 30  1  0  0  0  0
 25 27  1  0  0  0  0
 26 24  1  0  0  0  0
 27 26  2  0  0  0  0
 28 30  2  0  0  0  0
 29 26  1  0  0  0  0
 30 29  1  0  0  0  0
M  END
>  <MODEL>
6

>  <REMARK>
 VINA RESULT:      -5.9      2.131      3.253
  Name = 
  12 active torsions:
  status: ('A' for Active; 'I' for Inactive)
    1  A    between atoms: C_1  and  C_6
    2  A    between atoms: C_1  and  C_19
    3  A    between atoms: S_2  and  C_5
    4  A    between atoms: S_2  and  C_21
    5  A    between atoms: C_4  and  C_20
    6  A    between atoms: C_6  and  C_25
    7  A    between atoms: C_12  and  C_19
    8  A    between atoms: N_16  and  C_20
    9  A    between atoms: N_16  and  C_21
   10  A    between atoms: C_21  and  C_23
   11  A    between atoms: C_22  and  C_28
   12  A    between atoms: C_25  and  C_26
                            x       y       z     vdW  Elec       q    Type
                         _______ _______ _______ _____ _____    ______ ____

>  <TORSDO>
F 12

$$$$
=
 OpenBabel11042420093D

 30 31  0  0  1  0  0  0  0  0999 V2000
  161.0510  210.7200  152.9230 C   0  0  2  0  0  3  0  0  0  0  0  0
  162.0030  210.6370  154.0240 N   0  0  0  0  0  0  0  0  0  0  0  0
  159.6990  210.3750  153.5560 C   0  0  1  0  0  3  0  0  0  0  0  0
  160.0140  210.1630  154.9220 O   0  0  0  0  0  0  0  0  0  0  0  0
  161.3710  210.3240  155.0990 C   0  0  0  0  0  0  0  0  0  0  0  0
  162.1110  208.7740  156.7780 N   0  0  0  0  0  1  0  0  0  0  0  0
  162.0470  210.1790  156.4160 C   0  0  0  0  0  2  0  0  0  0  0  0
  159.3830  212.7180  153.0640 O   0  0  0  0  0  1  0  0  0  0  0  0
  158.7130  211.5350  153.3870 C   0  0  2  0  0  3  0  0  0  0  0  0
  157.8460  211.7490  154.6260 C   0  0  2  0  0  3  0  0  0  0  0  0
  156.6800  211.0070  154.5520 F   0  0  0  0  0  0  0  0  0  0  0  0
  157.5290  213.2260  154.8160 C   0  0  0  0  0  2  0  0  0  0  0  0
  156.0260  213.4620  154.8590 C   0  0  0  0  0  2  0  0  0  0  0  0
  156.4730  214.4420  152.5760 N   0  0  0  0  0  1  0  0  0  0  0  0
  154.3060  214.1110  153.3420 O   0  0  0  0  0  0  0  0  0  0  0  0
  155.5410  214.0260  153.5670 C   0  0  0  0  0  0  0  0  0  0  0  0
  161.3910  209.6890  151.8630 C   0  0  0  0  0  2  0  0  0  0  0  0
  160.7200  208.4280  152.1630 N   0  0  0  0  0  2  0  0  0  0  0  0
  161.6750  207.4480  152.6920 C   0  0  1  0  0  3  0  0  0  0  0  0
  161.2250  205.1240  153.5340 O   0  0  0  0  0  0  0  0  0  0  0  0
  161.0430  206.4950  153.6690 C   0  0  0  0  0  0  0  0  0  0  0  0
  160.2800  206.9310  154.5710 O   0  0  0  0  0  1  0  0  0  0  0  0
  162.5820  206.5830  151.3560 S   0  0  0  0  0  0  0  0  0  0  0  0
  160.9920  203.0400  148.5010 C   0  0  0  0  0  1  0  0  0  0  0  0
  161.0590  206.1620  150.4550 C   0  0  2  0  0  3  0  0  0  0  0  0
  161.0390  204.4370  149.0030 C   0  0  0  0  0  0  0  0  0  0  0  0
  160.9920  204.7190  150.2670 N   0  0  0  0  0  0  0  0  0  0  0  0
  161.1970  207.8420  148.6980 O   0  0  0  0  0  0  0  0  0  0  0  0
  161.1370  205.5580  148.1330 N   0  0  0  0  0  2  0  0  0  0  0  0
  161.1440  206.6350  149.0510 C   0  0  0  0  0  0  0  0  0  0  0  0
  1 17  1  6  0  0  0
  1  3  1  0  0  0  0
  1  2  1  0  0  0  0
  2  5  2  0  0  0  0
  3  9  1  1  0  0  0
  3  4  1  0  0  0  0
  4  5  1  0  0  0  0
  5  7  1  0  0  0  0
  7  6  1  0  0  0  0
  9  8  1  1  0  0  0
  9 10  1  0  0  0  0
 10 11  1  6  0  0  0
 10 12  1  0  0  0  0
 12 13  1  0  0  0  0
 14 16  1  0  0  0  0
 15 16  2  0  0  0  0
 16 13  1  0  0  0  0
 17 18  1  0  0  0  0
 18 19  1  0  0  0  0
 19 23  1  6  0  0  0
 19 21  1  0  0  0  0
 20 21  2  0  0  0  0
 21 22  1  0  0  0  0
 24 26  1  0  0  0  0
 25 23  1  1  0  0  0
 26 27  2  0  0  0  0
 27 25  1  0  0  0  0
 28 30  2  0  0  0  0
 29 26  1  0  0  0  0
 29 30  1  0  0  0  0
 30 25  1  0  0  0  0
M  END
>  <MODEL>
7

>  <REMARK>
 VINA RESULT:      -5.8      4.202      6.342
  Name = 
  12 active torsions:
  status: ('A' for Active; 'I' for Inactive)
    1  A    between atoms: C_1  and  C_6
    2  A    between atoms: C_1  and  C_19
    3  A    between atoms: S_2  and  C_5
    4  A    between atoms: S_2  and  C_21
    5  A    between atoms: C_4  and  C_20
    6  A    between atoms: C_6  and  C_25
    7  A    between atoms: C_12  and  C_19
    8  A    between atoms: N_16  and  C_20
    9  A    between atoms: N_16  and  C_21
   10  A    between atoms: C_21  and  C_23
   11  A    between atoms: C_22  and  C_28
   12  A    between atoms: C_25  and  C_26
                            x       y       z     vdW  Elec       q    Type
                         _______ _______ _______ _____ _____    ______ ____

>  <TORSDO>
F 12

$$$$
=
 OpenBabel11042420093D

 30 31  0  0  1  0  0  0  0  0999 V2000
  161.9500  206.4180  148.2690 C   0  0  2  0  0  3  0  0  0  0  0  0
  162.0750  206.6320  146.8330 N   0  0  0  0  0  0  0  0  0  0  0  0
  160.9010  205.3080  148.4040 C   0  0  1  0  0  3  0  0  0  0  0  0
  160.5690  204.9980  147.0610 O   0  0  0  0  0  0  0  0  0  0  0  0
  161.2870  205.8210  146.2200 C   0  0  0  0  0  0  0  0  0  0  0  0
  160.6010  204.4960  144.3380 N   0  0  0  0  0  1  0  0  0  0  0  0
  161.1870  205.7640  144.7370 C   0  0  0  0  0  2  0  0  0  0  0  0
  161.5780  202.9940  148.2620 O   0  0  0  0  0  1  0  0  0  0  0  0
  161.4930  204.0910  149.1230 C   0  0  2  0  0  3  0  0  0  0  0  0
  160.7040  203.7120  150.3740 C   0  0  2  0  0  3  0  0  0  0  0  0
  159.6100  204.5420  150.5440 F   0  0  0  0  0  0  0  0  0  0  0  0
  161.5960  203.7440  151.6070 C   0  0  0  0  0  2  0  0  0  0  0  0
  160.9590  204.5610  152.7220 C   0  0  0  0  0  2  0  0  0  0  0  0
  162.7010  206.2400  152.0000 N   0  0  0  0  0  1  0  0  0  0  0  0
  161.3790  206.6060  153.8740 O   0  0  0  0  0  0  0  0  0  0  0  0
  161.6840  205.8500  152.9160 C   0  0  0  0  0  0  0  0  0  0  0  0
  161.4400  207.6790  148.9410 C   0  0  0  0  0  2  0  0  0  0  0  0
  162.3310  208.7960  148.6410 N   0  0  0  0  0  2  0  0  0  0  0  0
  161.7760  210.0520  149.1560 C   0  0  1  0  0  3  0  0  0  0  0  0
  162.7110  209.3180  151.3690 O   0  0  0  0  0  1  0  0  0  0  0  0
  161.8520  210.1450  150.6550 C   0  0  0  0  0  0  0  0  0  0  0  0
  161.0800  210.9190  151.2800 O   0  0  0  0  0  0  0  0  0  0  0  0
  162.5010  211.5140  148.3250 S   0  0  0  0  0  0  0  0  0  0  0  0
  160.8180  214.4530  144.8940 C   0  0  0  0  0  1  0  0  0  0  0  0
  160.8850  212.1060  147.7330 C   0  0  2  0  0  3  0  0  0  0  0  0
  160.7730  213.7660  146.2110 C   0  0  0  0  0  0  0  0  0  0  0  0
  160.9960  212.4950  146.3340 N   0  0  0  0  0  0  0  0  0  0  0  0
  160.3280  213.5700  149.5980 O   0  0  0  0  0  0  0  0  0  0  0  0
  160.4810  214.4520  147.4210 N   0  0  0  0  0  2  0  0  0  0  0  0
  160.5490  213.4050  148.3700 C   0  0  0  0  0  0  0  0  0  0  0  0
  1  3  1  0  0  0  0
  1 17  1  1  0  0  0
  2  1  1  0  0  0  0
  3  9  1  6  0  0  0
  4  3  1  0  0  0  0
  5  2  2  0  0  0  0
  5  4  1  0  0  0  0
  6  7  1  0  0  0  0
  7  5  1  0  0  0  0
  9  8  1  6  0  0  0
  9 10  1  0  0  0  0
 10 11  1  1  0  0  0
 10 12  1  0  0  0  0
 12 13  1  0  0  0  0
 13 16  1  0  0  0  0
 14 16  1  0  0  0  0
 16 15  2  0  0  0  0
 18 17  1  0  0  0  0
 18 19  1  0  0  0  0
 19 23  1  6  0  0  0
 19 21  1  0  0  0  0
 21 22  2  0  0  0  0
 21 20  1  0  0  0  0
 24 26  1  0  0  0  0
 25 23  1  1  0  0  0
 25 30  1  0  0  0  0
 26 27  2  0  0  0  0
 26 29  1  0  0  0  0
 27 25  1  0  0  0  0
 29 30  1  0  0  0  0
 30 28  2  0  0  0  0
M  END
>  <MODEL>
8

>  <REMARK>
 VINA RESULT:      -5.7      2.718      7.270
  Name = 
  12 active torsions:
  status: ('A' for Active; 'I' for Inactive)
    1  A    between atoms: C_1  and  C_6
    2  A    between atoms: C_1  and  C_19
    3  A    between atoms: S_2  and  C_5
    4  A    between atoms: S_2  and  C_21
    5  A    between atoms: C_4  and  C_20
    6  A    between atoms: C_6  and  C_25
    7  A    between atoms: C_12  and  C_19
    8  A    between atoms: N_16  and  C_20
    9  A    between atoms: N_16  and  C_21
   10  A    between atoms: C_21  and  C_23
   11  A    between atoms: C_22  and  C_28
   12  A    between atoms: C_25  and  C_26
                            x       y       z     vdW  Elec       q    Type
                         _______ _______ _______ _____ _____    ______ ____

>  <TORSDO>
F 12

$$$$
=
 OpenBabel11042420093D

 30 31  0  0  1  0  0  0  0  0999 V2000
  161.1620  208.0230  151.3510 C   0  0  2  0  0  3  0  0  0  0  0  0
  160.6570  206.9480  152.1970 N   0  0  0  0  0  0  0  0  0  0  0  0
  162.4390  207.4530  150.7240 C   0  0  1  0  0  3  0  0  0  0  0  0
  162.5090  206.1370  151.2460 O   0  0  0  0  0  0  0  0  0  0  0  0
  161.4440  205.9360  152.0980 C   0  0  0  0  0  0  0  0  0  0  0  0
  160.9130  203.6060  151.8600 N   0  0  0  0  0  1  0  0  0  0  0  0
  161.2030  204.6570  152.8190 C   0  0  0  0  0  2  0  0  0  0  0  0
  162.1030  208.7230  148.6980 O   0  0  0  0  0  1  0  0  0  0  0  0
  162.3280  207.4370  149.1950 C   0  0  2  0  0  3  0  0  0  0  0  0
  161.2410  206.4880  148.6990 C   0  0  2  0  0  3  0  0  0  0  0  0
  161.5030  205.1850  149.0850 F   0  0  0  0  0  0  0  0  0  0  0  0
  161.0940  206.5780  147.1860 C   0  0  0  0  0  2  0  0  0  0  0  0
  162.2250  205.8420  146.4810 C   0  0  0  0  0  2  0  0  0  0  0  0
  161.1970  205.3790  144.2220 N   0  0  0  0  0  1  0  0  0  0  0  0
  161.6900  203.6550  145.6980 O   0  0  0  0  0  0  0  0  0  0  0  0
  161.6870  204.8920  145.4660 C   0  0  0  0  0  0  0  0  0  0  0  0
  161.5120  209.2320  152.1990 C   0  0  0  0  0  2  0  0  0  0  0  0
  161.2370  208.9480  153.6050 N   0  0  0  0  0  2  0  0  0  0  0  0
  160.7610  210.1540  154.2920 C   0  0  1  0  0  3  0  0  0  0  0  0
  163.1000  210.7060  155.0270 O   0  0  0  0  0  0  0  0  0  0  0  0
  161.7410  210.6590  155.3150 C   0  0  0  0  0  0  0  0  0  0  0  0
  161.3440  210.9690  156.4690 O   0  0  0  0  0  1  0  0  0  0  0  0
  160.2450  211.4560  153.1130 S   0  0  0  0  0  0  0  0  0  0  0  0
  155.8510  210.9220  155.0230 C   0  0  0  0  0  1  0  0  0  0  0  0
  159.2000  212.2980  154.3420 C   0  0  2  0  0  3  0  0  0  0  0  0
  157.0400  211.7030  154.5930 C   0  0  0  0  0  0  0  0  0  0  0  0
  158.2480  211.3470  154.8990 N   0  0  0  0  0  0  0  0  0  0  0  0
  158.6620  214.2950  153.0570 O   0  0  0  0  0  0  0  0  0  0  0  0
  156.9340  212.8920  153.8210 N   0  0  0  0  0  2  0  0  0  0  0  0
  158.2910  213.2610  153.6710 C   0  0  0  0  0  0  0  0  0  0  0  0
  1  2  1  0  0  0  0
  1 17  1  1  0  0  0
  3  9  1  6  0  0  0
  3  4  1  0  0  0  0
  3  1  1  0  0  0  0
  4  5  1  0  0  0  0
  5  2  2  0  0  0  0
  5  7  1  0  0  0  0
  6  7  1  0  0  0  0
  9  8  1  1  0  0  0
 10 11  1  6  0  0  0
 10  9  1  0  0  0  0
 12 10  1  0  0  0  0
 13 12  1  0  0  0  0
 14 16  1  0  0  0  0
 16 15  2  0  0  0  0
 16 13  1  0  0  0  0
 17 18  1  0  0  0  0
 18 19  1  0  0  0  0
 19 23  1  6  0  0  0
 19 21  1  0  0  0  0
 20 21  2  0  0  0  0
 21 22  1  0  0  0  0
 25 23  1  6  0  0  0
 25 27  1  0  0  0  0
 26 27  2  0  0  0  0
 26 24  1  0  0  0  0
 28 30  2  0  0  0  0
 29 26  1  0  0  0  0
 30 29  1  0  0  0  0
 30 25  1  0  0  0  0
M  END
>  <MODEL>
9

>  <REMARK>
 VINA RESULT:      -5.6      3.662      8.859
  Name = 
  12 active torsions:
  status: ('A' for Active; 'I' for Inactive)
    1  A    between atoms: C_1  and  C_6
    2  A    between atoms: C_1  and  C_19
    3  A    between atoms: S_2  and  C_5
    4  A    between atoms: S_2  and  C_21
    5  A    between atoms: C_4  and  C_20
    6  A    between atoms: C_6  and  C_25
    7  A    between atoms: C_12  and  C_19
    8  A    between atoms: N_16  and  C_20
    9  A    between atoms: N_16  and  C_21
   10  A    between atoms: C_21  and  C_23
   11  A    between atoms: C_22  and  C_28
   12  A    between atoms: C_25  and  C_26
                            x       y       z     vdW  Elec       q    Type
                         _______ _______ _______ _____ _____    ______ ____

>  <TORSDO>
F 12

$$$$
