=
 OpenBabel11052411363D

 43 49  0  0  1  0  0  0  0  0999 V2000
  160.3700  207.0590  153.5590 O   0  0  0  0  0  0  0  0  0  0  0  0
  161.2490  206.8300  154.6320 C   0  0  0  0  0  2  0  0  0  0  0  0
  161.6290  213.4370  148.9600 C   0  0  0  0  0  1  0  0  0  0  0  0
  160.9180  209.0390  157.1550 N   0  0  0  0  0  0  0  0  0  0  0  0
  161.3480  211.9300  151.9820 O   0  0  0  0  0  0  0  0  0  0  0  0
  158.8910  211.3130  153.4240 O   0  0  0  0  0  0  0  0  0  0  0  0
  159.2610  214.0140  149.4040 C   0  0  0  0  0  2  0  0  0  0  0  0
  157.6750  213.4890  150.1540 S   0  0  0  0  0  0  0  0  0  0  0  0
  160.3040  209.9050  151.3020 C   0  0  0  0  0  2  0  0  0  0  0  0
  160.2030  211.4170  151.3110 C   0  0  1  0  0  0  0  0  0  0  0  0
  160.3710  210.2410  157.1950 N   0  0  0  0  0  0  0  0  0  0  0  0
  162.0950  210.8320  152.4520 C   0  0  0  0  0  2  0  0  0  0  0  0
  160.4880  206.8960  155.9450 C   0  0  0  0  0  2  0  0  0  0  0  0
  158.2690  213.2150  151.8610 C   0  0  1  0  0  3  0  0  0  0  0  0
  158.8970  211.7870  152.0760 C   0  0  2  0  0  3  0  0  0  0  0  0
  159.2690  212.4980  155.5470 N   0  0  1  0  0  0  0  0  0  0  0  0
  159.3100  210.2070  156.3660 C   0  0  0  0  0  0  0  0  0  0  0  0
  160.1750  208.3090  156.3030 C   0  0  0  0  0  0  0  0  0  0  0  0
  162.0110  208.3490  152.2560 C   0  0  0  0  0  2  0  0  0  0  0  0
  158.4500  211.3970  156.0560 C   0  0  1  0  0  3  0  0  0  0  0  0
  161.1130  207.1130  152.3580 C   0  0  1  0  0  3  0  0  0  0  0  0
  159.5460  212.3070  154.1570 C   0  0  2  0  0  3  0  0  0  0  0  0
  159.0830  214.4300  154.0430 C   0  0  0  0  0  2  0  0  0  0  0  0
  160.4570  213.2140  149.8920 C   0  0  1  0  0  3  0  0  0  0  0  0
  159.1530  209.0090  155.7720 N   0  0  0  0  0  2  0  0  0  0  0  0
  158.9930  214.4500  152.4850 C   0  0  0  0  0  2  0  0  0  0  0  0
  160.1560  211.8430  149.9600 O   0  0  0  0  0  0  0  0  0  0  0  0
  161.2080  209.6230  152.4540 C   0  0  2  0  0  3  0  0  0  0  0  0
  158.5040  213.1950  154.5430 N   0  0  2  0  0  0  0  0  0  0  0  0
  157.6690  211.8330  157.2610 C   0  0  0  0  0  3  0  0  0  0  0  0
  156.4640  212.2580  157.1530 N   0  0  0  0  0  2  0  0  0  0  0  0
  161.8460  205.9380  152.1430 O   0  0  0  0  0  0  0  0  0  0  0  0
  160.9060  204.9950  151.7220 C   0  0  1  0  0  3  0  0  0  0  0  0
  160.8390  207.3660  148.4460 O   0  0  0  0  0  0  0  0  0  0  0  0
  161.4300  202.9330  150.2580 C   0  0  1  0  0  3  0  0  0  0  0  0
  160.2670  205.4540  150.4090 C   0  0  0  0  0  2  0  0  0  0  0  0
  161.8080  203.8950  149.1290 C   0  0  0  0  0  2  0  0  0  0  0  0
  161.1730  205.2080  149.2870 N   0  0  0  0  0  0  0  0  0  0  0  0
  161.3990  206.2440  148.3190 C   0  0  0  0  0  0  0  0  0  0  0  0
  161.5780  203.6140  151.6240 C   0  0  0  0  0  2  0  0  0  0  0  0
  162.2970  206.0200  147.1490 C   0  0  0  0  0  1  0  0  0  0  0  0
  160.2140  201.4970  149.0930 C   0  0  0  0  0  1  0  0  0  0  0  0
  160.1210  202.4740  150.0850 O   0  0  0  0  0  0  0  0  0  0  0  0
  1  2  1  0  0  0  0
  2 13  1  0  0  0  0
  3 24  1  0  0  0  0
  4 11  1  0  0  0  0
  5 12  1  0  0  0  0
  6 22  1  0  0  0  0
  7 24  1  0  0  0  0
  7  8  1  0  0  0  0
  8 14  1  0  0  0  0
  9 28  1  0  0  0  0
 10  9  1  6  0  0  0
 10  5  1  0  0  0  0
 10 15  1  0  0  0  0
 12 28  1  0  0  0  0
 13 18  1  0  0  0  0
 14 15  1  0  0  0  0
 14 26  1  6  0  0  0
 15  6  1  1  0  0  0
 16 20  1  0  0  0  0
 17 11  2  0  0  0  0
 18  4  2  0  0  0  0
 19 21  1  0  0  0  0
 19 28  1  0  0  0  0
 20 17  1  0  0  0  0
 20 30  1  0  0  0  0
 21  1  1  0  0  0  0
 22 29  1  0  0  0  0
 22 16  1  0  0  0  0
 23 29  1  0  0  0  0
 24 27  1  0  0  0  0
 25 18  1  0  0  0  0
 25 17  1  0  0  0  0
 26 23  1  0  0  0  0
 27 10  1  0  0  0  0
 29 16  1  0  0  0  0
 31 30  2  0  0  0  0
 32 21  1  0  0  0  0
 33 32  1  0  0  0  0
 35 40  1  0  0  0  0
 36 33  1  0  0  0  0
 37 38  1  0  0  0  0
 37 35  1  0  0  0  0
 38 36  1  0  0  0  0
 39 34  2  0  0  0  0
 39 38  1  0  0  0  0
 40 33  1  0  0  0  0
 41 39  1  0  0  0  0
 42 43  1  0  0  0  0
 43 35  1  0  0  0  0
M  END
>  <MODEL>
1

>  <REMARK>
 VINA RESULT:      -3.4      0.000      0.000
  Name = 
  4 active torsions:
  status: ('A' for Active; 'I' for Inactive)
    1  A    between atoms: C_1  and  O_6
    2  A    between atoms: O_6  and  C_31
    3  A    between atoms: C_8  and  C_30
    4  A    between atoms: C_14  and  O_40
                            x       y       z     vdW  Elec       q    Type
                         _______ _______ _______ _____ _____    ______ ____

>  <TORSDO>
F 4

$$$$
=
 OpenBabel11052411363D

 43 49  0  0  1  0  0  0  0  0999 V2000
  160.2610  207.1090  153.6740 O   0  0  0  0  0  0  0  0  0  0  0  0
  161.0990  206.9160  154.7860 C   0  0  0  0  0  2  0  0  0  0  0  0
  161.5620  213.4530  149.0400 C   0  0  0  0  0  1  0  0  0  0  0  0
  160.6080  209.1500  157.2600 N   0  0  0  0  0  0  0  0  0  0  0  0
  161.1880  211.9800  152.0690 O   0  0  0  0  0  0  0  0  0  0  0  0
  158.6880  211.3230  153.4140 O   0  0  0  0  0  0  0  0  0  0  0  0
  159.1630  213.9780  149.3740 C   0  0  0  0  0  2  0  0  0  0  0  0
  157.5600  213.4240  150.0650 S   0  0  0  0  0  0  0  0  0  0  0  0
  160.2230  209.9210  151.3740 C   0  0  0  0  0  2  0  0  0  0  0  0
  160.0850  211.4310  151.3580 C   0  0  1  0  0  0  0  0  0  0  0  0
  160.0310  210.3390  157.2600 N   0  0  0  0  0  0  0  0  0  0  0  0
  161.9410  210.9080  152.5860 C   0  0  0  0  0  2  0  0  0  0  0  0
  160.2810  206.9810  156.0650 C   0  0  0  0  0  2  0  0  0  0  0  0
  158.0870  213.1880  151.7990 C   0  0  1  0  0  3  0  0  0  0  0  0
  158.7400  211.7780  152.0610 C   0  0  2  0  0  3  0  0  0  0  0  0
  158.9460  212.5450  155.5330 N   0  0  1  0  0  0  0  0  0  0  0  0
  159.0070  210.2680  156.3870 C   0  0  0  0  0  0  0  0  0  0  0  0
  159.9190  208.3910  156.3880 C   0  0  0  0  0  0  0  0  0  0  0  0
  161.9250  208.4210  152.4220 C   0  0  0  0  0  2  0  0  0  0  0  0
  158.1330  211.4310  156.0240 C   0  0  1  0  0  3  0  0  0  0  0  0
  161.0530  207.1640  152.5050 C   0  0  1  0  0  3  0  0  0  0  0  0
  159.2870  212.3430  154.1600 C   0  0  2  0  0  3  0  0  0  0  0  0
  158.7780  214.4520  153.9960 C   0  0  0  0  0  2  0  0  0  0  0  0
  160.3570  213.2140  149.9250 C   0  0  1  0  0  3  0  0  0  0  0  0
  158.9040  209.0580  155.8040 N   0  0  0  0  0  2  0  0  0  0  0  0
  158.7550  214.4490  152.4350 C   0  0  0  0  0  2  0  0  0  0  0  0
  160.0860  211.8370  149.9990 O   0  0  0  0  0  0  0  0  0  0  0  0
  161.0830  209.6780  152.5680 C   0  0  2  0  0  3  0  0  0  0  0  0
  158.2080  213.2100  154.4880 N   0  0  2  0  0  0  0  0  0  0  0  0
  157.2910  211.8650  157.1880 C   0  0  0  0  0  3  0  0  0  0  0  0
  156.0100  211.8310  157.1300 N   0  0  0  0  0  2  0  0  0  0  0  0
  161.8220  206.0050  152.3380 O   0  0  0  0  0  0  0  0  0  0  0  0
  162.2420  206.0350  151.0060 C   0  0  1  0  0  3  0  0  0  0  0  0
  162.0700  202.0200  151.4560 O   0  0  0  0  0  0  0  0  0  0  0  0
  160.6760  205.9050  148.9570 C   0  0  1  0  0  3  0  0  0  0  0  0
  162.5680  204.6160  150.5350 C   0  0  0  0  0  2  0  0  0  0  0  0
  160.3020  204.4870  149.3970 C   0  0  0  0  0  2  0  0  0  0  0  0
  161.3380  203.8810  150.2420 N   0  0  0  0  0  0  0  0  0  0  0  0
  161.1720  202.5460  150.7460 C   0  0  0  0  0  0  0  0  0  0  0  0
  161.1700  206.7320  150.1500 C   0  0  0  0  0  2  0  0  0  0  0  0
  159.9420  201.7580  150.4460 C   0  0  0  0  0  1  0  0  0  0  0  0
  160.9600  206.0530  146.7670 C   0  0  0  0  0  1  0  0  0  0  0  0
  161.6560  205.8590  147.9610 O   0  0  0  0  0  0  0  0  0  0  0  0
  1  2  1  0  0  0  0
  2 13  1  0  0  0  0
  3 24  1  0  0  0  0
  5 12  1  0  0  0  0
  6 22  1  0  0  0  0
  7 24  1  0  0  0  0
  7  8  1  0  0  0  0
  8 14  1  0  0  0  0
  9 28  1  0  0  0  0
 10  9  1  1  0  0  0
 10 15  1  0  0  0  0
 10  5  1  0  0  0  0
 11  4  1  0  0  0  0
 13 18  1  0  0  0  0
 14 15  1  0  0  0  0
 14 26  1  6  0  0  0
 15  6  1  1  0  0  0
 16 20  1  0  0  0  0
 17 11  2  0  0  0  0
 18  4  2  0  0  0  0
 19 21  1  0  0  0  0
 19 28  1  0  0  0  0
 20 17  1  0  0  0  0
 20 30  1  0  0  0  0
 21  1  1  0  0  0  0
 22 29  1  0  0  0  0
 22 16  1  0  0  0  0
 23 29  1  0  0  0  0
 24 27  1  0  0  0  0
 25 17  1  0  0  0  0
 25 18  1  0  0  0  0
 26 23  1  0  0  0  0
 27 10  1  0  0  0  0
 28 12  1  0  0  0  0
 29 16  1  0  0  0  0
 31 30  2  0  0  0  0
 32 21  1  0  0  0  0
 33 32  1  0  0  0  0
 35 37  1  0  0  0  0
 35 40  1  0  0  0  0
 36 33  1  0  0  0  0
 37 38  1  0  0  0  0
 38 36  1  0  0  0  0
 38 39  1  0  0  0  0
 39 34  2  0  0  0  0
 40 33  1  0  0  0  0
 41 39  1  0  0  0  0
 42 43  1  0  0  0  0
 43 35  1  0  0  0  0
M  END
>  <MODEL>
2

>  <REMARK>
 VINA RESULT:      -1.0      0.838      2.037
  Name = 
  4 active torsions:
  status: ('A' for Active; 'I' for Inactive)
    1  A    between atoms: C_1  and  O_6
    2  A    between atoms: O_6  and  C_31
    3  A    between atoms: C_8  and  C_30
    4  A    between atoms: C_14  and  O_40
                            x       y       z     vdW  Elec       q    Type
                         _______ _______ _______ _____ _____    ______ ____

>  <TORSDO>
F 4

$$$$
