=
 OpenBabel11052410593D

 37 41  0  0  1  0  0  0  0  0999 V2000
  160.2200  210.6500  153.8670 C   0  0  2  0  0  3  0  0  0  0  0  0
  161.1220  205.5700  151.8180 C   0  0  0  0  0  0  0  0  0  0  0  0
  161.6370  207.5780  151.0030 C   0  0  0  0  0  0  0  0  0  0  0  0
  161.0780  204.3040  149.2770 N   0  0  0  0  0  0  0  0  0  0  0  0
  161.8390  209.9990  152.2050 C   0  0  0  0  0  0  0  0  0  0  0  0
  160.7450  203.5220  150.4400 C   0  0  0  0  0  0  0  0  0  0  0  0
  161.5080  208.7910  152.9700 C   0  0  0  0  0  0  0  0  0  0  0  0
  162.1660  208.6720  148.7500 C   0  0  0  0  0  1  0  0  0  0  0  0
  160.3720  202.3310  150.2940 O   0  0  0  0  0  0  0  0  0  0  0  0
  161.1100  206.3850  152.8620 O   0  0  0  0  0  0  0  0  0  0  0  0
  161.9570  208.7680  150.2240 C   0  0  0  0  0  0  0  0  0  0  0  0
  161.6170  210.0530  153.5930 C   0  0  2  0  0  3  0  0  0  0  0  0
  161.4010  207.5730  152.3890 C   0  0  0  0  0  0  0  0  0  0  0  0
  161.4200  206.2620  150.6620 C   0  0  0  0  0  0  0  0  0  0  0  0
  160.8130  204.1060  151.8390 C   0  0  0  0  0  2  0  0  0  0  0  0
  161.4240  205.6620  149.3760 N   0  0  0  0  0  0  0  0  0  0  0  0
  162.0760  210.0670  150.8500 C   0  0  0  0  0  3  0  0  0  0  0  0
  159.5060  213.0010  154.5650 C   0  0  0  0  0  1  0  0  0  0  0  0
  160.0790  212.1400  153.4400 C   0  0  2  0  0  3  0  0  0  0  0  0
  158.0800  212.0950  152.0980 O   0  0  0  0  0  0  0  0  0  0  0  0
  159.3180  212.3610  152.1620 C   0  0  0  0  0  0  0  0  0  0  0  0
  160.0070  212.8160  151.0300 O   0  0  0  0  0  0  0  0  0  0  0  0
  159.3810  213.6450  150.0520 C   0  0  0  0  0  2  0  0  0  0  0  0
  160.1680  212.2770  146.8280 N   0  0  0  0  0  2  0  0  0  0  0  0
  160.1300  213.5850  148.7230 C   0  0  1  0  0  3  0  0  0  0  0  0
  161.2010  212.6930  148.7850 O   0  0  0  0  0  0  0  0  0  0  0  0
  161.4140  212.3280  147.4870 N   0  0  0  0  0  2  0  0  0  0  0  0
  159.2720  213.1020  147.6060 C   0  0  0  0  0  2  0  0  0  0  0  0
  160.4580  211.0660  156.4260 C   0  0  0  0  0  1  0  0  0  0  0  0
  159.6530  210.3850  155.3120 C   0  0  1  0  0  0  0  0  0  0  0  0
  158.2380  210.7780  155.4320 N   0  0  0  0  0  2  0  0  0  0  0  0
  157.9520  211.3100  156.7630 C   0  0  0  0  0  2  0  0  0  0  0  0
  156.5880  211.9680  156.7610 C   0  0  0  0  0  2  0  0  0  0  0  0
  156.0230  211.9060  155.4240 N   0  0  0  0  0  1  0  0  0  0  0  0
  159.7370  208.8810  155.5680 C   0  0  0  0  0  2  0  0  0  0  0  0
  160.4640  208.6140  156.7320 O   0  0  0  0  0  0  0  0  0  0  0  0
  160.3280  207.2420  156.9410 C   0  0  0  0  0  1  0  0  0  0  0  0
  1 19  1  1  0  0  0
  1 30  1  0  0  0  0
  2 15  1  0  0  0  0
  2 10  1  0  0  0  0
  3 13  1  0  0  0  0
  4 16  2  0  0  0  0
  4  6  1  0  0  0  0
  5  7  1  0  0  0  0
  5 12  1  0  0  0  0
  6 15  1  0  0  0  0
  7 12  1  0  0  0  0
  8 11  1  0  0  0  0
  9  6  2  0  0  0  0
 11 17  1  0  0  0  0
 11  3  2  0  0  0  0
 12  1  1  6  0  0  0
 13 10  1  0  0  0  0
 13  7  2  0  0  0  0
 14  3  1  0  0  0  0
 14  2  2  0  0  0  0
 16 14  1  0  0  0  0
 17  5  2  0  0  0  0
 19 18  1  1  0  0  0
 20 21  2  0  0  0  0
 21 19  1  0  0  0  0
 22 21  1  0  0  0  0
 23 22  1  0  0  0  0
 24 27  1  0  0  0  0
 24 28  1  0  0  0  0
 25 26  1  0  0  0  0
 25 23  1  1  0  0  0
 27 26  1  0  0  0  0
 28 25  1  0  0  0  0
 30 31  1  0  0  0  0
 30 35  1  0  0  0  0
 30 29  1  1  0  0  0
 31 32  1  0  0  0  0
 33 32  1  0  0  0  0
 34 33  1  0  0  0  0
 35 36  1  0  0  0  0
 36 37  1  0  0  0  0
M  END
>  <MODEL>
1

>  <REMARK>
 VINA RESULT:      -6.8      0.000      0.000
  Name = 
  12 active torsions:
  status: ('A' for Active; 'I' for Inactive)
    1  A    between atoms: N_7  and  C_29
    2  A    between atoms: N_7  and  C_36
    3  A    between atoms: C_8  and  C_28
    4  A    between atoms: C_13  and  O_14
    5  A    between atoms: C_13  and  C_29
    6  A    between atoms: O_15  and  C_20
    7  A    between atoms: O_15  and  C_28
    8  A    between atoms: C_16  and  C_23
    9  A    between atoms: C_16  and  C_24
   10  A    between atoms: C_16  and  C_29
   11  A    between atoms: C_18  and  C_36
   12  A    between atoms: C_20  and  C_23
                            x       y       z     vdW  Elec       q    Type
                         _______ _______ _______ _____ _____    ______ ____

>  <TORSDO>
F 12

$$$$
=
 OpenBabel11052410593D

 37 41  0  0  1  0  0  0  0  0999 V2000
  161.0250  206.2600  150.1440 C   0  0  2  0  0  3  0  0  0  0  0  0
  160.6380  210.7140  153.4350 C   0  0  0  0  0  0  0  0  0  0  0  0
  160.7560  208.5450  153.9320 C   0  0  0  0  0  0  0  0  0  0  0  0
  159.3150  211.4210  155.8450 N   0  0  0  0  0  0  0  0  0  0  0  0
  161.6030  206.4200  152.4780 C   0  0  0  0  0  0  0  0  0  0  0  0
  159.5670  212.4520  154.8710 C   0  0  0  0  0  0  0  0  0  0  0  0
  161.6470  207.7830  151.9360 C   0  0  0  0  0  0  0  0  0  0  0  0
  160.1540  206.9680  155.8550 C   0  0  0  0  0  1  0  0  0  0  0  0
  159.1300  213.6130  155.0770 O   0  0  0  0  0  0  0  0  0  0  0  0
  161.1660  210.1370  152.3650 O   0  0  0  0  0  0  0  0  0  0  0  0
  160.6950  207.1980  154.4850 C   0  0  0  0  0  0  0  0  0  0  0  0
  162.0890  206.6730  151.1830 C   0  0  2  0  0  3  0  0  0  0  0  0
  161.2290  208.8580  152.6450 C   0  0  0  0  0  0  0  0  0  0  0  0
  160.3570  209.7740  154.4060 C   0  0  0  0  0  0  0  0  0  0  0  0
  160.3300  212.1690  153.5910 C   0  0  0  0  0  2  0  0  0  0  0  0
  159.7120  210.0910  155.6290 N   0  0  0  0  0  0  0  0  0  0  0  0
  161.1490  206.0520  153.7260 C   0  0  0  0  0  3  0  0  0  0  0  0
  159.6890  204.6320  151.5910 C   0  0  0  0  0  1  0  0  0  0  0  0
  160.5150  204.8000  150.3160 C   0  0  2  0  0  3  0  0  0  0  0  0
  162.3180  203.4950  151.2350 O   0  0  0  0  0  0  0  0  0  0  0  0
  161.5830  203.7440  150.2330 C   0  0  0  0  0  0  0  0  0  0  0  0
  161.7870  203.0770  149.0180 O   0  0  0  0  0  0  0  0  0  0  0  0
  160.8230  202.1680  148.4880 C   0  0  0  0  0  2  0  0  0  0  0  0
  160.5360  200.4480  145.3510 N   0  0  0  0  0  2  0  0  0  0  0  0
  161.3620  201.4590  147.2490 C   0  0  1  0  0  3  0  0  0  0  0  0
  161.3530  200.0730  147.4150 O   0  0  0  0  0  0  0  0  0  0  0  0
  161.3140  199.5780  146.1430 N   0  0  0  0  0  2  0  0  0  0  0  0
  160.5360  201.7200  146.0380 C   0  0  0  0  0  2  0  0  0  0  0  0
  162.8430  206.2810  148.2800 C   0  0  0  0  0  1  0  0  0  0  0  0
  161.3870  206.5940  148.6490 C   0  0  1  0  0  0  0  0  0  0  0  0
  160.4930  205.9130  147.6960 N   0  0  0  0  0  2  0  0  0  0  0  0
  161.2310  205.4510  146.5220 C   0  0  0  0  0  2  0  0  0  0  0  0
  160.5140  205.9020  145.2660 C   0  0  0  0  0  2  0  0  0  0  0  0
  161.2550  205.4530  144.1000 N   0  0  0  0  0  1  0  0  0  0  0  0
  161.2020  208.1000  148.4590 C   0  0  0  0  0  2  0  0  0  0  0  0
  162.4140  208.7760  148.6300 O   0  0  0  0  0  0  0  0  0  0  0  0
  162.0660  210.1190  148.7670 C   0  0  0  0  0  1  0  0  0  0  0  0
  1 19  1  6  0  0  0
  2 15  1  0  0  0  0
  2 14  2  0  0  0  0
  3 14  1  0  0  0  0
  3 11  1  0  0  0  0
  5 17  1  0  0  0  0
  6  9  2  0  0  0  0
  6  4  1  0  0  0  0
  7  5  2  0  0  0  0
  7 13  1  0  0  0  0
 10 13  1  0  0  0  0
 10  2  1  0  0  0  0
 11  8  1  0  0  0  0
 12  1  1  6  0  0  0
 12  7  1  0  0  0  0
 12  5  1  0  0  0  0
 13  3  2  0  0  0  0
 14 16  1  0  0  0  0
 15  6  1  0  0  0  0
 16  4  2  0  0  0  0
 17 11  2  0  0  0  0
 19 18  1  1  0  0  0
 21 19  1  0  0  0  0
 21 20  2  0  0  0  0
 22 21  1  0  0  0  0
 23 22  1  0  0  0  0
 24 28  1  0  0  0  0
 24 27  1  0  0  0  0
 25 26  1  0  0  0  0
 25 23  1  1  0  0  0
 27 26  1  0  0  0  0
 28 25  1  0  0  0  0
 30 29  1  6  0  0  0
 30  1  1  0  0  0  0
 31 30  1  0  0  0  0
 32 31  1  0  0  0  0
 33 32  1  0  0  0  0
 34 33  1  0  0  0  0
 35 36  1  0  0  0  0
 35 30  1  0  0  0  0
 36 37  1  0  0  0  0
M  END
>  <MODEL>
2

>  <REMARK>
 VINA RESULT:      -6.6      2.782      9.035
  Name = 
  12 active torsions:
  status: ('A' for Active; 'I' for Inactive)
    1  A    between atoms: N_7  and  C_29
    2  A    between atoms: N_7  and  C_36
    3  A    between atoms: C_8  and  C_28
    4  A    between atoms: C_13  and  O_14
    5  A    between atoms: C_13  and  C_29
    6  A    between atoms: O_15  and  C_20
    7  A    between atoms: O_15  and  C_28
    8  A    between atoms: C_16  and  C_23
    9  A    between atoms: C_16  and  C_24
   10  A    between atoms: C_16  and  C_29
   11  A    between atoms: C_18  and  C_36
   12  A    between atoms: C_20  and  C_23
                            x       y       z     vdW  Elec       q    Type
                         _______ _______ _______ _____ _____    ______ ____

>  <TORSDO>
F 12

$$$$
=
 OpenBabel11052410593D

 37 41  0  0  1  0  0  0  0  0999 V2000
  161.7630  207.5370  151.6010 C   0  0  2  0  0  3  0  0  0  0  0  0
  160.8170  206.1410  146.3120 C   0  0  0  0  0  0  0  0  0  0  0  0
  160.9030  204.8900  148.1520 C   0  0  0  0  0  0  0  0  0  0  0  0
  161.4900  204.0100  144.5620 N   0  0  0  0  0  0  0  0  0  0  0  0
  160.6910  205.5440  150.7740 C   0  0  0  0  0  0  0  0  0  0  0  0
  161.3050  205.3260  144.0040 C   0  0  0  0  0  0  0  0  0  0  0  0
  160.5690  206.5590  149.7210 C   0  0  0  0  0  0  0  0  0  0  0  0
  161.3040  202.4490  148.8120 C   0  0  0  0  0  1  0  0  0  0  0  0
  161.5210  205.5100  142.7790 O   0  0  0  0  0  0  0  0  0  0  0  0
  160.6130  206.9810  147.3170 O   0  0  0  0  0  0  0  0  0  0  0  0
  161.0370  203.8680  149.1840 C   0  0  0  0  0  0  0  0  0  0  0  0
  160.4570  206.8950  151.0870 C   0  0  2  0  0  3  0  0  0  0  0  0
  160.6740  206.2530  148.4060 C   0  0  0  0  0  0  0  0  0  0  0  0
  161.0170  204.8590  146.7810 C   0  0  0  0  0  0  0  0  0  0  0  0
  160.8770  206.5020  144.8610 C   0  0  0  0  0  2  0  0  0  0  0  0
  161.3390  203.7650  145.9370 N   0  0  0  0  0  0  0  0  0  0  0  0
  160.9190  204.1980  150.5890 C   0  0  0  0  0  3  0  0  0  0  0  0
  163.2140  205.8000  152.7870 C   0  0  0  0  0  1  0  0  0  0  0  0
  162.2460  206.9690  152.9670 C   0  0  2  0  0  3  0  0  0  0  0  0
  160.8030  205.3930  154.0770 O   0  0  0  0  0  0  0  0  0  0  0  0
  161.1450  206.6040  153.9240 C   0  0  0  0  0  0  0  0  0  0  0  0
  160.4680  207.6250  154.6030 O   0  0  0  0  0  0  0  0  0  0  0  0
  160.1060  207.5020  155.9780 C   0  0  0  0  0  2  0  0  0  0  0  0
  161.8840  210.5730  156.5170 N   0  0  0  0  0  2  0  0  0  0  0  0
  160.8040  208.5620  156.8260 C   0  0  1  0  0  3  0  0  0  0  0  0
  162.1850  208.3670  156.8460 O   0  0  0  0  0  0  0  0  0  0  0  0
  162.6990  209.5990  157.1300 N   0  0  0  0  0  2  0  0  0  0  0  0
  160.6030  209.9390  156.2950 C   0  0  0  0  0  2  0  0  0  0  0  0
  162.6260  209.7400  152.6880 C   0  0  0  0  0  1  0  0  0  0  0  0
  161.7930  209.1110  151.5640 C   0  0  1  0  0  0  0  0  0  0  0  0
  162.2700  209.6250  150.2680 N   0  0  0  0  0  2  0  0  0  0  0  0
  161.8660  211.0160  150.0750 C   0  0  0  0  0  2  0  0  0  0  0  0
  161.8580  211.3380  148.5940 C   0  0  0  0  0  2  0  0  0  0  0  0
  162.9450  212.2540  148.2930 N   0  0  0  0  0  1  0  0  0  0  0  0
  160.3580  209.6010  151.7550 C   0  0  0  0  0  2  0  0  0  0  0  0
  160.2210  210.2800  152.9690 O   0  0  0  0  0  0  0  0  0  0  0  0
  159.2050  211.2100  152.7550 C   0  0  0  0  0  1  0  0  0  0  0  0
  1 19  1  1  0  0  0
  2 14  2  0  0  0  0
  2 10  1  0  0  0  0
  3 13  2  0  0  0  0
  3 11  1  0  0  0  0
  4 16  2  0  0  0  0
  5 12  1  0  0  0  0
  6  4  1  0  0  0  0
  6 15  1  0  0  0  0
  7  5  2  0  0  0  0
  7 12  1  0  0  0  0
  8 11  1  0  0  0  0
  9  6  2  0  0  0  0
 10 13  1  0  0  0  0
 11 17  2  0  0  0  0
 12  1  1  1  0  0  0
 13  7  1  0  0  0  0
 14  3  1  0  0  0  0
 15  2  1  0  0  0  0
 16 14  1  0  0  0  0
 17  5  1  0  0  0  0
 19 18  1  6  0  0  0
 19 21  1  0  0  0  0
 21 20  2  0  0  0  0
 21 22  1  0  0  0  0
 22 23  1  0  0  0  0
 24 27  1  0  0  0  0
 25 23  1  6  0  0  0
 25 26  1  0  0  0  0
 26 27  1  0  0  0  0
 28 24  1  0  0  0  0
 28 25  1  0  0  0  0
 30  1  1  0  0  0  0
 30 35  1  0  0  0  0
 30 29  1  1  0  0  0
 31 30  1  0  0  0  0
 32 31  1  0  0  0  0
 33 32  1  0  0  0  0
 34 33  1  0  0  0  0
 35 36  1  0  0  0  0
 37 36  1  0  0  0  0
M  END
>  <MODEL>
3

>  <REMARK>
 VINA RESULT:      -6.5      3.064      6.728
  Name = 
  12 active torsions:
  status: ('A' for Active; 'I' for Inactive)
    1  A    between atoms: N_7  and  C_29
    2  A    between atoms: N_7  and  C_36
    3  A    between atoms: C_8  and  C_28
    4  A    between atoms: C_13  and  O_14
    5  A    between atoms: C_13  and  C_29
    6  A    between atoms: O_15  and  C_20
    7  A    between atoms: O_15  and  C_28
    8  A    between atoms: C_16  and  C_23
    9  A    between atoms: C_16  and  C_24
   10  A    between atoms: C_16  and  C_29
   11  A    between atoms: C_18  and  C_36
   12  A    between atoms: C_20  and  C_23
                            x       y       z     vdW  Elec       q    Type
                         _______ _______ _______ _____ _____    ______ ____

>  <TORSDO>
F 12

$$$$
=
 OpenBabel11052410593D

 37 41  0  0  1  0  0  0  0  0999 V2000
  161.4090  208.1100  150.7080 C   0  0  2  0  0  3  0  0  0  0  0  0
  158.5260  212.3780  152.7780 C   0  0  0  0  0  0  0  0  0  0  0  0
  159.5460  210.6820  153.8000 C   0  0  0  0  0  0  0  0  0  0  0  0
  156.6730  212.8220  154.8840 N   0  0  0  0  0  0  0  0  0  0  0  0
  161.4840  208.9870  152.9510 C   0  0  0  0  0  0  0  0  0  0  0  0
  156.5710  213.6310  153.6960 C   0  0  0  0  0  0  0  0  0  0  0  0
  160.9820  210.0650  152.0920 C   0  0  0  0  0  0  0  0  0  0  0  0
  159.4460  209.4260  156.0270 C   0  0  0  0  0  1  0  0  0  0  0  0
  155.6250  214.4530  153.5910 O   0  0  0  0  0  0  0  0  0  0  0  0
  159.4150  211.9280  151.9060 O   0  0  0  0  0  0  0  0  0  0  0  0
  160.0250  209.6110  154.6650 C   0  0  0  0  0  0  0  0  0  0  0  0
  161.9920  209.1810  151.6540 C   0  0  2  0  0  3  0  0  0  0  0  0
  160.0140  210.9220  152.4950 C   0  0  0  0  0  0  0  0  0  0  0  0
  158.5610  211.6330  153.9390 C   0  0  0  0  0  0  0  0  0  0  0  0
  157.5650  213.5040  152.5570 C   0  0  0  0  0  2  0  0  0  0  0  0
  157.6630  211.8350  155.0190 N   0  0  0  0  0  0  0  0  0  0  0  0
  161.0640  208.7010  154.2320 C   0  0  0  0  0  3  0  0  0  0  0  0
  162.6610  206.2550  151.9400 C   0  0  0  0  0  1  0  0  0  0  0  0
  161.3240  206.6920  151.3420 C   0  0  2  0  0  3  0  0  0  0  0  0
  159.6790  205.8060  149.8220 O   0  0  0  0  0  0  0  0  0  0  0  0
  160.7750  205.6260  150.4330 C   0  0  0  0  0  0  0  0  0  0  0  0
  161.4660  204.4130  150.3130 O   0  0  0  0  0  0  0  0  0  0  0  0
  160.9070  203.1820  150.7700 C   0  0  0  0  0  2  0  0  0  0  0  0
  161.3240  200.6290  148.2810 N   0  0  0  0  0  2  0  0  0  0  0  0
  160.4630  202.3130  149.5960 C   0  0  1  0  0  3  0  0  0  0  0  0
  160.9040  202.8390  148.3820 O   0  0  0  0  0  0  0  0  0  0  0  0
  160.9390  201.7650  147.5390 N   0  0  0  0  0  2  0  0  0  0  0  0
  161.0250  200.9360  149.6620 C   0  0  0  0  0  2  0  0  0  0  0  0
  163.2810  207.1920  149.1480 C   0  0  0  0  0  1  0  0  0  0  0  0
  162.0370  208.0820  149.2640 C   0  0  1  0  0  0  0  0  0  0  0  0
  161.0580  207.6750  148.2420 N   0  0  0  0  0  2  0  0  0  0  0  0
  161.6980  206.8970  147.1830 C   0  0  0  0  0  2  0  0  0  0  0  0
  160.6390  206.1670  146.3820 C   0  0  0  0  0  2  0  0  0  0  0  0
  161.2740  205.1680  145.5400 N   0  0  0  0  0  1  0  0  0  0  0  0
  162.4860  209.5060  148.9320 C   0  0  0  0  0  2  0  0  0  0  0  0
  161.4510  210.2260  148.3280 O   0  0  0  0  0  0  0  0  0  0  0  0
  161.9120  211.5390  148.2590 C   0  0  0  0  0  1  0  0  0  0  0  0
  1 19  1  1  0  0  0
  2 14  2  0  0  0  0
  3 14  1  0  0  0  0
  3 11  1  0  0  0  0
  4 16  2  0  0  0  0
  5 17  1  0  0  0  0
  6  4  1  0  0  0  0
  7 13  1  0  0  0  0
  7  5  2  0  0  0  0
  9  6  2  0  0  0  0
 10 13  1  0  0  0  0
 10  2  1  0  0  0  0
 11  8  1  0  0  0  0
 12  1  1  6  0  0  0
 12  7  1  0  0  0  0
 12  5  1  0  0  0  0
 13  3  2  0  0  0  0
 14 16  1  0  0  0  0
 15  2  1  0  0  0  0
 15  6  1  0  0  0  0
 17 11  2  0  0  0  0
 19 18  1  6  0  0  0
 20 21  2  0  0  0  0
 21 19  1  0  0  0  0
 22 21  1  0  0  0  0
 22 23  1  0  0  0  0
 24 28  1  0  0  0  0
 25 28  1  0  0  0  0
 25 23  1  1  0  0  0
 26 25  1  0  0  0  0
 27 24  1  0  0  0  0
 27 26  1  0  0  0  0
 30 29  1  6  0  0  0
 30  1  1  0  0  0  0
 31 30  1  0  0  0  0
 32 31  1  0  0  0  0
 33 32  1  0  0  0  0
 34 33  1  0  0  0  0
 35 30  1  0  0  0  0
 36 35  1  0  0  0  0
 37 36  1  0  0  0  0
M  END
>  <MODEL>
4

>  <REMARK>
 VINA RESULT:      -6.3      2.331      8.694
  Name = 
  12 active torsions:
  status: ('A' for Active; 'I' for Inactive)
    1  A    between atoms: N_7  and  C_29
    2  A    between atoms: N_7  and  C_36
    3  A    between atoms: C_8  and  C_28
    4  A    between atoms: C_13  and  O_14
    5  A    between atoms: C_13  and  C_29
    6  A    between atoms: O_15  and  C_20
    7  A    between atoms: O_15  and  C_28
    8  A    between atoms: C_16  and  C_23
    9  A    between atoms: C_16  and  C_24
   10  A    between atoms: C_16  and  C_29
   11  A    between atoms: C_18  and  C_36
   12  A    between atoms: C_20  and  C_23
                            x       y       z     vdW  Elec       q    Type
                         _______ _______ _______ _____ _____    ______ ____

>  <TORSDO>
F 12

$$$$
=
 OpenBabel11052410593D

 37 41  0  0  1  0  0  0  0  0999 V2000
  161.3710  208.2360  153.7170 C   0  0  2  0  0  3  0  0  0  0  0  0
  161.0040  206.2530  148.5450 C   0  0  0  0  0  0  0  0  0  0  0  0
  161.1590  205.1950  150.4990 C   0  0  0  0  0  0  0  0  0  0  0  0
  162.1120  204.1110  147.0450 N   0  0  0  0  0  0  0  0  0  0  0  0
  160.6740  206.0330  153.0310 C   0  0  0  0  0  0  0  0  0  0  0  0
  161.7660  205.3270  146.3550 C   0  0  0  0  0  0  0  0  0  0  0  0
  160.4690  206.9200  151.8790 C   0  0  0  0  0  0  0  0  0  0  0  0
  161.8840  202.9160  151.4110 C   0  0  0  0  0  1  0  0  0  0  0  0
  162.0320  205.4370  145.1310 O   0  0  0  0  0  0  0  0  0  0  0  0
  160.6080  207.1330  149.4520 O   0  0  0  0  0  0  0  0  0  0  0  0
  161.3780  204.3020  151.6300 C   0  0  0  0  0  0  0  0  0  0  0  0
  160.2160  207.3520  153.1990 C   0  0  2  0  0  3  0  0  0  0  0  0
  160.7060  206.5220  150.6080 C   0  0  0  0  0  0  0  0  0  0  0  0
  161.3670  205.0650  149.1450 C   0  0  0  0  0  0  0  0  0  0  0  0
  161.1060  206.4900  147.0710 C   0  0  0  0  0  2  0  0  0  0  0  0
  161.9090  203.9660  148.4280 N   0  0  0  0  0  0  0  0  0  0  0  0
  161.1170  204.7300  152.9880 C   0  0  0  0  0  3  0  0  0  0  0  0
  162.2260  207.5230  156.0160 C   0  0  0  0  0  1  0  0  0  0  0  0
  161.3260  208.4920  155.2510 C   0  0  2  0  0  3  0  0  0  0  0  0
  159.4670  207.4800  156.4000 O   0  0  0  0  0  0  0  0  0  0  0  0
  159.9440  208.5160  155.8470 C   0  0  0  0  0  0  0  0  0  0  0  0
  159.1760  209.6810  155.7360 O   0  0  0  0  0  0  0  0  0  0  0  0
  159.4230  210.8260  156.5520 C   0  0  0  0  0  2  0  0  0  0  0  0
  156.5630  212.4190  155.0820 N   0  0  0  0  0  2  0  0  0  0  0  0
  158.2320  211.7790  156.5350 C   0  0  1  0  0  3  0  0  0  0  0  0
  158.5650  212.9950  155.9360 O   0  0  0  0  0  0  0  0  0  0  0  0
  157.3730  213.4970  155.4990 N   0  0  0  0  0  2  0  0  0  0  0  0
  157.0870  211.2470  155.7470 C   0  0  0  0  0  2  0  0  0  0  0  0
  162.3580  210.6450  153.6870 C   0  0  0  0  0  1  0  0  0  0  0  0
  161.6190  209.5570  152.8970 C   0  0  1  0  0  0  0  0  0  0  0  0
  162.3440  209.3010  151.6400 N   0  0  0  0  0  2  0  0  0  0  0  0
  162.2470  210.4450  150.7360 C   0  0  0  0  0  2  0  0  0  0  0  0
  162.1700  209.9520  149.3050 C   0  0  0  0  0  2  0  0  0  0  0  0
  161.9860  211.0850  148.4140 N   0  0  0  0  0  1  0  0  0  0  0  0
  160.2520  210.1340  152.5320 C   0  0  0  0  0  2  0  0  0  0  0  0
  160.0540  211.3730  153.1480 O   0  0  0  0  0  0  0  0  0  0  0  0
  158.9540  211.9320  152.4980 C   0  0  0  0  0  1  0  0  0  0  0  0
  1 19  1  1  0  0  0
  2 14  2  0  0  0  0
  2 10  1  0  0  0  0
  3 13  2  0  0  0  0
  3 11  1  0  0  0  0
  4 16  2  0  0  0  0
  5 12  1  0  0  0  0
  6  4  1  0  0  0  0
  6 15  1  0  0  0  0
  7  5  2  0  0  0  0
  7 12  1  0  0  0  0
  8 11  1  0  0  0  0
  9  6  2  0  0  0  0
 10 13  1  0  0  0  0
 11 17  2  0  0  0  0
 12  1  1  1  0  0  0
 13  7  1  0  0  0  0
 14  3  1  0  0  0  0
 15  2  1  0  0  0  0
 16 14  1  0  0  0  0
 17  5  1  0  0  0  0
 19 21  1  0  0  0  0
 19 18  1  1  0  0  0
 21 20  2  0  0  0  0
 22 21  1  0  0  0  0
 22 23  1  0  0  0  0
 24 27  1  0  0  0  0
 24 28  1  0  0  0  0
 25 23  1  6  0  0  0
 26 25  1  0  0  0  0
 27 26  1  0  0  0  0
 28 25  1  0  0  0  0
 30 29  1  1  0  0  0
 30  1  1  0  0  0  0
 31 30  1  0  0  0  0
 32 31  1  0  0  0  0
 33 32  1  0  0  0  0
 34 33  1  0  0  0  0
 35 30  1  0  0  0  0
 35 36  1  0  0  0  0
 37 36  1  0  0  0  0
M  END
>  <MODEL>
5

>  <REMARK>
 VINA RESULT:      -6.2      2.192      5.719
  Name = 
  12 active torsions:
  status: ('A' for Active; 'I' for Inactive)
    1  A    between atoms: N_7  and  C_29
    2  A    between atoms: N_7  and  C_36
    3  A    between atoms: C_8  and  C_28
    4  A    between atoms: C_13  and  O_14
    5  A    between atoms: C_13  and  C_29
    6  A    between atoms: O_15  and  C_20
    7  A    between atoms: O_15  and  C_28
    8  A    between atoms: C_16  and  C_23
    9  A    between atoms: C_16  and  C_24
   10  A    between atoms: C_16  and  C_29
   11  A    between atoms: C_18  and  C_36
   12  A    between atoms: C_20  and  C_23
                            x       y       z     vdW  Elec       q    Type
                         _______ _______ _______ _____ _____    ______ ____

>  <TORSDO>
F 12

$$$$
=
 OpenBabel11052410593D

 37 41  0  0  1  0  0  0  0  0999 V2000
  160.8390  209.9670  152.9830 C   0  0  2  0  0  3  0  0  0  0  0  0
  161.4380  204.6900  151.3670 C   0  0  0  0  0  0  0  0  0  0  0  0
  161.5800  206.5890  150.2110 C   0  0  0  0  0  0  0  0  0  0  0  0
  160.7600  203.1070  149.1090 N   0  0  0  0  0  0  0  0  0  0  0  0
  161.9640  209.1490  151.0160 C   0  0  0  0  0  0  0  0  0  0  0  0
  160.8160  202.4730  150.4020 C   0  0  0  0  0  0  0  0  0  0  0  0
  161.9350  208.0410  151.9780 C   0  0  0  0  0  0  0  0  0  0  0  0
  161.3890  207.3970  147.7900 C   0  0  0  0  0  1  0  0  0  0  0  0
  160.4900  201.2640  150.5080 O   0  0  0  0  0  0  0  0  0  0  0  0
  161.6700  205.6320  152.2690 O   0  0  0  0  0  0  0  0  0  0  0  0
  161.5960  207.6760  149.2400 C   0  0  0  0  0  0  0  0  0  0  0  0
  162.1370  209.3760  152.3930 C   0  0  2  0  0  3  0  0  0  0  0  0
  161.7440  206.7560  151.5980 C   0  0  0  0  0  0  0  0  0  0  0  0
  161.3580  205.2350  150.1020 C   0  0  0  0  0  0  0  0  0  0  0  0
  161.2370  203.2330  151.6450 C   0  0  0  0  0  2  0  0  0  0  0  0
  161.0380  204.4750  148.9470 N   0  0  0  0  0  0  0  0  0  0  0  0
  161.8070  209.0480  149.6510 C   0  0  0  0  0  3  0  0  0  0  0  0
  161.0890  212.1000  151.6000 C   0  0  0  0  0  1  0  0  0  0  0  0
  160.1350  210.9930  152.0500 C   0  0  2  0  0  3  0  0  0  0  0  0
  157.9680  210.8270  153.0870 O   0  0  0  0  0  0  0  0  0  0  0  0
  158.8640  211.5800  152.6010 C   0  0  0  0  0  0  0  0  0  0  0  0
  158.6640  212.9640  152.5210 O   0  0  0  0  0  0  0  0  0  0  0  0
  157.4350  213.5200  152.0570 C   0  0  0  0  0  2  0  0  0  0  0  0
  158.0380  213.5280  148.5190 N   0  0  0  0  0  2  0  0  0  0  0  0
  157.6090  214.1730  150.6890 C   0  0  1  0  0  3  0  0  0  0  0  0
  158.9580  214.3740  150.3920 O   0  0  0  0  0  0  0  0  0  0  0  0
  159.0030  214.4230  149.0290 N   0  0  0  0  0  2  0  0  0  0  0  0
  157.0790  213.3280  149.5830 C   0  0  0  0  0  2  0  0  0  0  0  0
  162.3830  210.4320  155.0280 C   0  0  0  0  0  1  0  0  0  0  0  0
  160.9570  210.4890  154.4650 C   0  0  1  0  0  0  0  0  0  0  0  0
  160.4360  211.8590  154.6120 N   0  0  0  0  0  2  0  0  0  0  0  0
  160.0330  212.1210  155.9920 C   0  0  0  0  0  2  0  0  0  0  0  0
  158.9630  213.1930  156.0110 C   0  0  0  0  0  2  0  0  0  0  0  0
  157.6610  212.5730  156.1910 N   0  0  0  0  0  1  0  0  0  0  0  0
  160.1040  209.5730  155.3420 C   0  0  0  0  0  2  0  0  0  0  0  0
  160.6640  208.2940  155.4210 O   0  0  0  0  0  0  0  0  0  0  0  0
  159.7100  207.5180  156.0780 C   0  0  0  0  0  1  0  0  0  0  0  0
  1 19  1  6  0  0  0
  1 30  1  0  0  0  0
  2 15  1  0  0  0  0
  2 10  1  0  0  0  0
  3 13  1  0  0  0  0
  4  6  1  0  0  0  0
  5  7  1  0  0  0  0
  5 12  1  0  0  0  0
  6  9  2  0  0  0  0
  6 15  1  0  0  0  0
  7 12  1  0  0  0  0
  8 11  1  0  0  0  0
 11 17  1  0  0  0  0
 11  3  2  0  0  0  0
 12  1  1  1  0  0  0
 13  7  2  0  0  0  0
 13 10  1  0  0  0  0
 14  3  1  0  0  0  0
 14  2  2  0  0  0  0
 16  4  2  0  0  0  0
 16 14  1  0  0  0  0
 17  5  2  0  0  0  0
 19 18  1  1  0  0  0
 19 21  1  0  0  0  0
 21 20  2  0  0  0  0
 22 21  1  0  0  0  0
 23 22  1  0  0  0  0
 24 27  1  0  0  0  0
 24 28  1  0  0  0  0
 25 23  1  1  0  0  0
 26 25  1  0  0  0  0
 27 26  1  0  0  0  0
 28 25  1  0  0  0  0
 30 31  1  0  0  0  0
 30 29  1  1  0  0  0
 30 35  1  0  0  0  0
 31 32  1  0  0  0  0
 32 33  1  0  0  0  0
 33 34  1  0  0  0  0
 35 36  1  0  0  0  0
 36 37  1  0  0  0  0
M  END
>  <MODEL>
6

>  <REMARK>
 VINA RESULT:      -6.0      1.708      1.993
  Name = 
  12 active torsions:
  status: ('A' for Active; 'I' for Inactive)
    1  A    between atoms: N_7  and  C_29
    2  A    between atoms: N_7  and  C_36
    3  A    between atoms: C_8  and  C_28
    4  A    between atoms: C_13  and  O_14
    5  A    between atoms: C_13  and  C_29
    6  A    between atoms: O_15  and  C_20
    7  A    between atoms: O_15  and  C_28
    8  A    between atoms: C_16  and  C_23
    9  A    between atoms: C_16  and  C_24
   10  A    between atoms: C_16  and  C_29
   11  A    between atoms: C_18  and  C_36
   12  A    between atoms: C_20  and  C_23
                            x       y       z     vdW  Elec       q    Type
                         _______ _______ _______ _____ _____    ______ ____

>  <TORSDO>
F 12

$$$$
=
 OpenBabel11052410593D

 37 41  0  0  1  0  0  0  0  0999 V2000
  160.2270  210.8360  153.4930 C   0  0  2  0  0  3  0  0  0  0  0  0
  161.1960  205.5390  152.1440 C   0  0  0  0  0  0  0  0  0  0  0  0
  161.6520  207.4240  151.0490 C   0  0  0  0  0  0  0  0  0  0  0  0
  161.1280  203.9330  149.8030 N   0  0  0  0  0  0  0  0  0  0  0  0
  161.8270  209.9910  151.9000 C   0  0  0  0  0  0  0  0  0  0  0  0
  160.8360  203.3140  151.0710 C   0  0  0  0  0  0  0  0  0  0  0  0
  161.5370  208.8950  152.8320 C   0  0  0  0  0  0  0  0  0  0  0  0
  162.1120  208.2050  148.6550 C   0  0  0  0  0  1  0  0  0  0  0  0
  160.4860  202.1070  151.0990 O   0  0  0  0  0  0  0  0  0  0  0  0
  161.1880  206.4900  153.0660 O   0  0  0  0  0  0  0  0  0  0  0  0
  161.9300  208.5000  150.1050 C   0  0  0  0  0  0  0  0  0  0  0  0
  161.6300  210.2330  153.2720 C   0  0  2  0  0  3  0  0  0  0  0  0
  161.4440  207.6060  152.4270 C   0  0  0  0  0  0  0  0  0  0  0  0
  161.4570  206.0700  150.8970 C   0  0  0  0  0  0  0  0  0  0  0  0
  160.9200  204.0860  152.3740 C   0  0  0  0  0  2  0  0  0  0  0  0
  161.4480  205.2980  149.7070 N   0  0  0  0  0  0  0  0  0  0  0  0
  162.0340  209.8760  150.5440 C   0  0  0  0  0  3  0  0  0  0  0  0
  159.3090  213.1410  154.0990 C   0  0  0  0  0  1  0  0  0  0  0  0
  160.1150  212.3330  153.0830 C   0  0  2  0  0  3  0  0  0  0  0  0
  158.3620  212.4810  151.4390 O   0  0  0  0  0  0  0  0  0  0  0  0
  159.6010  212.5690  151.6890 C   0  0  0  0  0  0  0  0  0  0  0  0
  160.5170  212.8350  150.6630 O   0  0  0  0  0  0  0  0  0  0  0  0
  160.1260  213.4960  149.4600 C   0  0  0  0  0  2  0  0  0  0  0  0
  162.1990  213.6600  146.5350 N   0  0  0  0  0  2  0  0  0  0  0  0
  160.8580  212.9160  148.2530 C   0  0  1  0  0  3  0  0  0  0  0  0
  160.1020  213.0550  147.0880 O   0  0  0  0  0  0  0  0  0  0  0  0
  161.0230  213.0280  146.0810 N   0  0  0  0  0  2  0  0  0  0  0  0
  162.1460  213.6110  147.9790 C   0  0  0  0  0  2  0  0  0  0  0  0
  159.2150  209.0850  155.1340 C   0  0  0  0  0  1  0  0  0  0  0  0
  159.5950  210.5540  154.9080 C   0  0  1  0  0  0  0  0  0  0  0  0
  160.4720  210.9980  156.0050 N   0  0  0  0  0  2  0  0  0  0  0  0
  160.8800  209.8700  156.8400 C   0  0  0  0  0  2  0  0  0  0  0  0
  162.3540  209.5910  156.6270 C   0  0  0  0  0  2  0  0  0  0  0  0
  163.1350  210.6930  157.1630 N   0  0  0  0  0  1  0  0  0  0  0  0
  158.2990  211.3600  154.9980 C   0  0  0  0  0  2  0  0  0  0  0  0
  157.7430  211.2670  156.2780 O   0  0  0  0  0  0  0  0  0  0  0  0
  156.4260  211.7010  156.1360 C   0  0  0  0  0  1  0  0  0  0  0  0
  1 19  1  1  0  0  0
  1 30  1  0  0  0  0
  2 15  1  0  0  0  0
  2 10  1  0  0  0  0
  3 13  1  0  0  0  0
  4  6  1  0  0  0  0
  5  7  1  0  0  0  0
  5 12  1  0  0  0  0
  6  9  2  0  0  0  0
  6 15  1  0  0  0  0
  7 12  1  0  0  0  0
  8 11  1  0  0  0  0
 11 17  1  0  0  0  0
 11  3  2  0  0  0  0
 12  1  1  6  0  0  0
 13  7  2  0  0  0  0
 13 10  1  0  0  0  0
 14  3  1  0  0  0  0
 14  2  2  0  0  0  0
 16  4  2  0  0  0  0
 16 14  1  0  0  0  0
 17  5  2  0  0  0  0
 19 18  1  1  0  0  0
 20 21  2  0  0  0  0
 21 19  1  0  0  0  0
 22 21  1  0  0  0  0
 23 22  1  0  0  0  0
 24 28  1  0  0  0  0
 25 23  1  1  0  0  0
 26 25  1  0  0  0  0
 27 24  1  0  0  0  0
 27 26  1  0  0  0  0
 28 25  1  0  0  0  0
 30 35  1  0  0  0  0
 30 29  1  1  0  0  0
 30 31  1  0  0  0  0
 31 32  1  0  0  0  0
 33 32  1  0  0  0  0
 33 34  1  0  0  0  0
 35 36  1  0  0  0  0
 37 36  1  0  0  0  0
M  END
>  <MODEL>
7

>  <REMARK>
 VINA RESULT:      -5.9      1.466      2.355
  Name = 
  12 active torsions:
  status: ('A' for Active; 'I' for Inactive)
    1  A    between atoms: N_7  and  C_29
    2  A    between atoms: N_7  and  C_36
    3  A    between atoms: C_8  and  C_28
    4  A    between atoms: C_13  and  O_14
    5  A    between atoms: C_13  and  C_29
    6  A    between atoms: O_15  and  C_20
    7  A    between atoms: O_15  and  C_28
    8  A    between atoms: C_16  and  C_23
    9  A    between atoms: C_16  and  C_24
   10  A    between atoms: C_16  and  C_29
   11  A    between atoms: C_18  and  C_36
   12  A    between atoms: C_20  and  C_23
                            x       y       z     vdW  Elec       q    Type
                         _______ _______ _______ _____ _____    ______ ____

>  <TORSDO>
F 12

$$$$
=
 OpenBabel11052410593D

 37 41  0  0  1  0  0  0  0  0999 V2000
  160.9520  205.7160  150.6220 C   0  0  2  0  0  3  0  0  0  0  0  0
  160.6780  210.4470  153.5130 C   0  0  0  0  0  0  0  0  0  0  0  0
  160.6320  208.3260  154.1900 C   0  0  0  0  0  0  0  0  0  0  0  0
  159.2780  211.4330  155.7770 N   0  0  0  0  0  0  0  0  0  0  0  0
  161.4150  206.0380  152.9650 C   0  0  0  0  0  0  0  0  0  0  0  0
  159.6470  212.3610  154.7390 C   0  0  0  0  0  0  0  0  0  0  0  0
  161.5760  207.3460  152.3170 C   0  0  0  0  0  0  0  0  0  0  0  0
  159.8290  206.9550  156.1970 C   0  0  0  0  0  1  0  0  0  0  0  0
  159.2740  213.5590  154.8240 O   0  0  0  0  0  0  0  0  0  0  0  0
  161.2230  209.7520  152.5260 O   0  0  0  0  0  0  0  0  0  0  0  0
  160.4550  207.0350  154.8460 C   0  0  0  0  0  0  0  0  0  0  0  0
  161.9840  206.1520  151.6830 C   0  0  2  0  0  3  0  0  0  0  0  0
  161.1900  208.4990  152.9110 C   0  0  0  0  0  0  0  0  0  0  0  0
  160.2870  209.6110  154.5390 C   0  0  0  0  0  0  0  0  0  0  0  0
  160.4560  211.9270  153.5320 C   0  0  0  0  0  2  0  0  0  0  0  0
  159.6000  210.0680  155.6930 N   0  0  0  0  0  0  0  0  0  0  0  0
  160.8740  205.8050  154.2100 C   0  0  0  0  0  3  0  0  0  0  0  0
  159.3780  204.0280  151.7170 C   0  0  0  0  0  1  0  0  0  0  0  0
  160.5310  204.2220  150.7330 C   0  0  2  0  0  3  0  0  0  0  0  0
  162.6950  203.6780  151.6370 O   0  0  0  0  0  0  0  0  0  0  0  0
  161.6550  203.2700  151.0390 C   0  0  0  0  0  0  0  0  0  0  0  0
  161.5570  201.9410  150.6070 O   0  0  0  0  0  0  0  0  0  0  0  0
  160.6350  201.5470  149.5910 C   0  0  0  0  0  2  0  0  0  0  0  0
  160.8200  200.8050  146.0840 N   0  0  0  0  0  2  0  0  0  0  0  0
  161.3570  201.2570  148.2780 C   0  0  1  0  0  3  0  0  0  0  0  0
  161.4460  199.8850  148.0410 O   0  0  0  0  0  0  0  0  0  0  0  0
  161.5810  199.7820  146.6870 N   0  0  0  0  0  2  0  0  0  0  0  0
  160.6430  201.8200  147.0990 C   0  0  0  0  0  2  0  0  0  0  0  0
  160.0820  206.5780  148.3240 C   0  0  0  0  0  1  0  0  0  0  0  0
  161.3000  206.1300  149.1430 C   0  0  1  0  0  0  0  0  0  0  0  0
  162.3280  207.1840  149.0900 N   0  0  0  0  0  2  0  0  0  0  0  0
  161.8360  208.3630  148.3800 C   0  0  0  0  0  2  0  0  0  0  0  0
  162.1840  209.6090  149.1690 C   0  0  0  0  0  2  0  0  0  0  0  0
  161.9710  210.7810  148.3380 N   0  0  0  0  0  1  0  0  0  0  0  0
  161.8680  204.8960  148.4430 C   0  0  0  0  0  2  0  0  0  0  0  0
  161.5850  204.9250  147.0740 O   0  0  0  0  0  0  0  0  0  0  0  0
  162.8240  204.8340  146.4430 C   0  0  0  0  0  1  0  0  0  0  0  0
  1 19  1  6  0  0  0
  2 15  1  0  0  0  0
  2 14  2  0  0  0  0
  3 14  1  0  0  0  0
  3 11  1  0  0  0  0
  5 17  1  0  0  0  0
  6  9  2  0  0  0  0
  6  4  1  0  0  0  0
  7 13  1  0  0  0  0
  7  5  2  0  0  0  0
 10 13  1  0  0  0  0
 10  2  1  0  0  0  0
 11  8  1  0  0  0  0
 12  1  1  6  0  0  0
 12  7  1  0  0  0  0
 12  5  1  0  0  0  0
 13  3  2  0  0  0  0
 14 16  1  0  0  0  0
 15  6  1  0  0  0  0
 16  4  2  0  0  0  0
 17 11  2  0  0  0  0
 19 21  1  0  0  0  0
 19 18  1  1  0  0  0
 21 20  2  0  0  0  0
 22 21  1  0  0  0  0
 23 22  1  0  0  0  0
 24 27  1  0  0  0  0
 24 28  1  0  0  0  0
 25 23  1  1  0  0  0
 26 25  1  0  0  0  0
 27 26  1  0  0  0  0
 28 25  1  0  0  0  0
 30 29  1  6  0  0  0
 30  1  1  0  0  0  0
 31 30  1  0  0  0  0
 32 31  1  0  0  0  0
 32 33  1  0  0  0  0
 34 33  1  0  0  0  0
 35 30  1  0  0  0  0
 36 35  1  0  0  0  0
 37 36  1  0  0  0  0
M  END
>  <MODEL>
8

>  <REMARK>
 VINA RESULT:      -5.9      2.474      8.826
  Name = 
  12 active torsions:
  status: ('A' for Active; 'I' for Inactive)
    1  A    between atoms: N_7  and  C_29
    2  A    between atoms: N_7  and  C_36
    3  A    between atoms: C_8  and  C_28
    4  A    between atoms: C_13  and  O_14
    5  A    between atoms: C_13  and  C_29
    6  A    between atoms: O_15  and  C_20
    7  A    between atoms: O_15  and  C_28
    8  A    between atoms: C_16  and  C_23
    9  A    between atoms: C_16  and  C_24
   10  A    between atoms: C_16  and  C_29
   11  A    between atoms: C_18  and  C_36
   12  A    between atoms: C_20  and  C_23
                            x       y       z     vdW  Elec       q    Type
                         _______ _______ _______ _____ _____    ______ ____

>  <TORSDO>
F 12

$$$$
=
 OpenBabel11052410593D

 37 41  0  0  1  0  0  0  0  0999 V2000
  161.0970  210.2140  151.4530 C   0  0  2  0  0  3  0  0  0  0  0  0
  161.4620  204.6960  150.9570 C   0  0  0  0  0  0  0  0  0  0  0  0
  161.5630  206.3040  149.4180 C   0  0  0  0  0  0  0  0  0  0  0  0
  160.5890  202.7010  149.1350 N   0  0  0  0  0  0  0  0  0  0  0  0
  162.0600  208.9600  149.6350 C   0  0  0  0  0  0  0  0  0  0  0  0
  160.7230  202.3510  150.5270 C   0  0  0  0  0  0  0  0  0  0  0  0
  162.0760  208.0810  150.8100 C   0  0  0  0  0  0  0  0  0  0  0  0
  161.2180  206.5920  146.8990 C   0  0  0  0  0  1  0  0  0  0  0  0
  160.3790  201.2040  150.9080 O   0  0  0  0  0  0  0  0  0  0  0  0
  161.7780  205.7980  151.6210 O   0  0  0  0  0  0  0  0  0  0  0  0
  161.5330  207.1620  148.2400 C   0  0  0  0  0  0  0  0  0  0  0  0
  162.3360  209.4650  150.9180 C   0  0  2  0  0  3  0  0  0  0  0  0
  161.8290  206.7530  150.7240 C   0  0  0  0  0  0  0  0  0  0  0  0
  161.3030  204.9670  149.6130 C   0  0  0  0  0  0  0  0  0  0  0  0
  161.2490  203.3390  151.5500 C   0  0  0  0  0  2  0  0  0  0  0  0
  160.8850  203.9930  148.6690 N   0  0  0  0  0  0  0  0  0  0  0  0
  161.8030  208.5810  148.3360 C   0  0  0  0  0  3  0  0  0  0  0  0
  159.8160  212.4180  151.6170 C   0  0  0  0  0  1  0  0  0  0  0  0
  161.0720  211.7260  151.0880 C   0  0  2  0  0  3  0  0  0  0  0  0
  162.4190  211.9430  149.1040 O   0  0  0  0  0  0  0  0  0  0  0  0
  161.2680  212.0260  149.6270 C   0  0  0  0  0  0  0  0  0  0  0  0
  160.1700  212.4490  148.8670 O   0  0  0  0  0  0  0  0  0  0  0  0
  160.1230  213.7440  148.2690 C   0  0  0  0  0  2  0  0  0  0  0  0
  158.2000  212.5810  145.4700 N   0  0  0  0  0  2  0  0  0  0  0  0
  159.7540  213.6520  146.7910 C   0  0  1  0  0  3  0  0  0  0  0  0
  160.3320  212.5320  146.1930 O   0  0  0  0  0  0  0  0  0  0  0  0
  159.5300  212.2670  145.1200 N   0  0  0  0  0  2  0  0  0  0  0  0
  158.2880  213.5060  146.5780 C   0  0  0  0  0  2  0  0  0  0  0  0
  161.9190  210.3170  153.9220 C   0  0  0  0  0  1  0  0  0  0  0  0
  160.7680  209.9600  152.9720 C   0  0  1  0  0  0  0  0  0  0  0  0
  159.5520  210.6720  153.4020 N   0  0  0  0  0  2  0  0  0  0  0  0
  159.4810  210.7570  154.8590 C   0  0  0  0  0  2  0  0  0  0  0  0
  158.7180  212.0050  155.2550 C   0  0  0  0  0  2  0  0  0  0  0  0
  159.6580  213.0660  155.5730 N   0  0  0  0  0  1  0  0  0  0  0  0
  160.5100  208.4630  153.1410 C   0  0  0  0  0  2  0  0  0  0  0  0
  161.2730  207.9410  154.1900 O   0  0  0  0  0  0  0  0  0  0  0  0
  160.4660  206.9680  154.7780 C   0  0  0  0  0  1  0  0  0  0  0  0
  1 19  1  1  0  0  0
  1 30  1  0  0  0  0
  2 15  1  0  0  0  0
  2 10  1  0  0  0  0
  3 14  1  0  0  0  0
  3 13  1  0  0  0  0
  4  6  1  0  0  0  0
  5  7  1  0  0  0  0
  5 12  1  0  0  0  0
  6  9  2  0  0  0  0
  6 15  1  0  0  0  0
  7 12  1  0  0  0  0
  8 11  1  0  0  0  0
 11 17  1  0  0  0  0
 11  3  2  0  0  0  0
 12  1  1  1  0  0  0
 13  7  2  0  0  0  0
 13 10  1  0  0  0  0
 14  2  2  0  0  0  0
 16  4  2  0  0  0  0
 16 14  1  0  0  0  0
 17  5  2  0  0  0  0
 19 18  1  6  0  0  0
 20 21  2  0  0  0  0
 21 19  1  0  0  0  0
 22 21  1  0  0  0  0
 23 22  1  0  0  0  0
 24 28  1  0  0  0  0
 25 23  1  1  0  0  0
 26 25  1  0  0  0  0
 27 24  1  0  0  0  0
 27 26  1  0  0  0  0
 28 25  1  0  0  0  0
 30 35  1  0  0  0  0
 30 31  1  0  0  0  0
 30 29  1  1  0  0  0
 31 32  1  0  0  0  0
 32 33  1  0  0  0  0
 33 34  1  0  0  0  0
 35 36  1  0  0  0  0
 36 37  1  0  0  0  0
M  END
>  <MODEL>
9

>  <REMARK>
 VINA RESULT:      -5.6      1.769      2.527
  Name = 
  12 active torsions:
  status: ('A' for Active; 'I' for Inactive)
    1  A    between atoms: N_7  and  C_29
    2  A    between atoms: N_7  and  C_36
    3  A    between atoms: C_8  and  C_28
    4  A    between atoms: C_13  and  O_14
    5  A    between atoms: C_13  and  C_29
    6  A    between atoms: O_15  and  C_20
    7  A    between atoms: O_15  and  C_28
    8  A    between atoms: C_16  and  C_23
    9  A    between atoms: C_16  and  C_24
   10  A    between atoms: C_16  and  C_29
   11  A    between atoms: C_18  and  C_36
   12  A    between atoms: C_20  and  C_23
                            x       y       z     vdW  Elec       q    Type
                         _______ _______ _______ _____ _____    ______ ____

>  <TORSDO>
F 12

$$$$
