=
 OpenBabel11052409453D

 31 33  0  0  1  0  0  0  0  0999 V2000
  162.5440  206.6080  151.8080 C   0  0  0  0  0  2  0  0  0  0  0  0
  161.2620  205.9240  152.2720 C   0  0  0  0  0  2  0  0  0  0  0  0
  161.1460  205.9520  153.7900 C   0  0  0  0  0  2  0  0  0  0  0  0
  161.3460  207.3650  154.3640 C   0  0  0  0  0  2  0  0  0  0  0  0
  160.1750  207.9420  155.0470 N   0  0  0  0  0  0  0  0  0  0  0  0
  159.9560  207.2180  156.2910 C   0  0  0  0  0  1  0  0  0  0  0  0
  160.0670  210.2050  154.1440 C   0  0  1  0  0  3  0  0  0  0  0  0
  161.5020  209.9250  154.5320 C   0  0  0  0  0  2  0  0  0  0  0  0
  160.3700  209.3560  155.3670 C   0  0  2  0  0  3  0  0  0  0  0  0
  159.3580  212.3770  152.2830 N   0  0  0  0  0  2  0  0  0  0  0  0
  159.0330  213.7220  154.1670 O   0  0  0  0  0  0  0  0  0  0  0  0
  159.3440  212.5950  153.6980 C   0  0  0  0  0  0  0  0  0  0  0  0
  159.6820  211.5330  154.5930 N   0  0  0  0  0  2  0  0  0  0  0  0
  160.1450  213.5350  150.2920 C   0  0  0  0  0  1  0  0  0  0  0  0
  159.0380  213.4250  151.3240 C   0  0  1  0  0  3  0  0  0  0  0  0
  157.8400  213.1150  150.6830 O   0  0  0  0  0  1  0  0  0  0  0  0
  162.3020  207.4990  150.5940 C   0  0  2  0  0  3  0  0  0  0  0  0
  162.1390  209.9740  150.8710 C   0  0  0  0  0  1  0  0  0  0  0  0
  161.3890  208.6610  150.9590 C   0  0  0  0  0  2  0  0  0  0  0  0
  161.7320  206.7230  149.4980 N   0  0  0  0  0  0  0  0  0  0  0  0
  161.6960  207.1750  148.3080 N   0  0  0  0  0  0  0  0  0  0  0  0
  161.1380  206.4070  147.2400 C   0  0  0  0  0  0  0  0  0  0  0  0
  159.8940  206.4460  147.0410 O   0  0  0  0  0  0  0  0  0  0  0  0
  161.2680  204.2760  144.6450 N   0  0  0  0  0  0  0  0  0  0  0  0
  160.7790  201.8620  146.0570 S   0  0  0  0  0  0  0  0  0  0  0  0
  160.5970  202.4110  147.7970 C   0  0  0  0  0  2  0  0  0  0  0  0
  161.5560  203.4250  145.7280 C   0  0  2  0  0  3  0  0  0  0  0  0
  161.6350  203.4990  148.0750 C   0  0  0  0  0  2  0  0  0  0  0  0
  161.9460  204.1010  146.7550 C   0  0  2  0  0  3  0  0  0  0  0  0
  162.0190  205.5460  146.3770 C   0  0  1  0  0  3  0  0  0  0  0  0
  161.5970  205.6050  144.9670 N   0  0  0  0  0  0  0  0  0  0  0  0
  1  2  1  0  0  0  0
  2  3  1  0  0  0  0
  3  4  1  0  0  0  0
  4  5  1  0  0  0  0
  5  6  1  0  0  0  0
  7  8  1  0  0  0  0
  7 13  1  1  0  0  0
  7  9  1  0  0  0  0
  8  9  1  0  0  0  0
  9  5  1  6  0  0  0
 10 12  1  0  0  0  0
 12 11  2  0  0  0  0
 12 13  1  0  0  0  0
 15 14  1  6  0  0  0
 15 10  1  0  0  0  0
 16 15  1  0  0  0  0
 17 19  1  1  0  0  0
 17  1  1  0  0  0  0
 18 19  1  0  0  0  0
 20 17  1  0  0  0  0
 21 20  2  0  0  0  0
 22 21  1  0  0  0  0
 23 22  2  0  0  0  0
 24 31  2  0  0  0  0
 25 26  1  0  0  0  0
 26 28  1  0  0  0  0
 27 24  1  1  0  0  0
 27 25  1  0  0  0  0
 27 29  1  0  0  0  0
 29 28  1  1  0  0  0
 30 29  1  0  0  0  0
 30 22  1  1  0  0  0
 31 30  1  0  0  0  0
M  END
>  <MODEL>
1

>  <REMARK>
 VINA RESULT:      -6.6      0.000      0.000
  Name = 
  12 active torsions:
  status: ('A' for Active; 'I' for Inactive)
    1  A    between atoms: C_3  and  N_28
    2  A    between atoms: C_7  and  C_13
    3  A    between atoms: C_7  and  C_29
    4  A    between atoms: N_9  and  C_25
    5  A    between atoms: C_10  and  N_12
    6  A    between atoms: C_10  and  C_26
    7  A    between atoms: C_13  and  C_15
    8  A    between atoms: N_14  and  C_24
    9  A    between atoms: C_15  and  N_16
   10  A    between atoms: N_16  and  C_27
   11  A    between atoms: C_18  and  C_25
   12  A    between atoms: C_25  and  C_29
                            x       y       z     vdW  Elec       q    Type
                         _______ _______ _______ _____ _____    ______ ____

>  <TORSDO>
F 12

$$$$
=
 OpenBabel11052409453D

 31 33  0  0  1  0  0  0  0  0999 V2000
  162.4250  206.7150  151.9130 C   0  0  0  0  0  2  0  0  0  0  0  0
  161.0810  206.2710  152.4800 C   0  0  0  0  0  2  0  0  0  0  0  0
  161.1170  206.2270  154.0020 C   0  0  0  0  0  2  0  0  0  0  0  0
  161.1940  207.6320  154.6240 C   0  0  0  0  0  2  0  0  0  0  0  0
  160.0800  207.9890  155.5210 N   0  0  0  0  0  0  0  0  0  0  0  0
  160.0690  207.0610  156.6420 C   0  0  0  0  0  1  0  0  0  0  0  0
  159.2290  210.2680  155.3540 C   0  0  1  0  0  3  0  0  0  0  0  0
  160.6880  210.2840  154.9520 C   0  0  0  0  0  2  0  0  0  0  0  0
  160.2160  209.3460  156.0490 C   0  0  2  0  0  3  0  0  0  0  0  0
  157.4720  212.5060  154.5870 N   0  0  0  0  0  2  0  0  0  0  0  0
  157.9160  213.4180  156.6930 O   0  0  0  0  0  0  0  0  0  0  0  0
  158.1020  212.4800  155.8720 C   0  0  0  0  0  0  0  0  0  0  0  0
  158.9450  211.3860  156.2380 N   0  0  0  0  0  2  0  0  0  0  0  0
  157.1450  214.1920  152.8610 C   0  0  0  0  0  1  0  0  0  0  0  0
  156.6150  213.6010  154.1550 C   0  0  1  0  0  3  0  0  0  0  0  0
  155.3230  213.1230  153.9470 O   0  0  0  0  0  1  0  0  0  0  0  0
  162.2550  207.6470  150.7190 C   0  0  2  0  0  3  0  0  0  0  0  0
  162.4290  209.9480  151.6710 C   0  0  0  0  0  1  0  0  0  0  0  0
  161.4850  208.8970  151.1230 C   0  0  0  0  0  2  0  0  0  0  0  0
  161.5770  206.9570  149.6260 N   0  0  0  0  0  0  0  0  0  0  0  0
  162.0130  207.0120  148.4300 N   0  0  0  0  0  0  0  0  0  0  0  0
  161.3440  206.3320  147.3660 C   0  0  0  0  0  0  0  0  0  0  0  0
  160.0930  206.4370  147.2620 O   0  0  0  0  0  0  0  0  0  0  0  0
  161.1890  204.3580  144.6520 N   0  0  0  0  0  0  0  0  0  0  0  0
  160.6690  201.8890  145.9540 S   0  0  0  0  0  0  0  0  0  0  0  0
  160.6320  202.3400  147.7300 C   0  0  0  0  0  2  0  0  0  0  0  0
  161.5030  203.4300  145.6610 C   0  0  2  0  0  3  0  0  0  0  0  0
  161.7420  203.3580  147.9970 C   0  0  0  0  0  2  0  0  0  0  0  0
  161.9960  204.0240  146.6950 C   0  0  2  0  0  3  0  0  0  0  0  0
  162.1180  205.4830  146.3970 C   0  0  1  0  0  3  0  0  0  0  0  0
  161.6070  205.6480  145.0250 N   0  0  0  0  0  0  0  0  0  0  0  0
  1  2  1  0  0  0  0
  2  3  1  0  0  0  0
  3  4  1  0  0  0  0
  4  5  1  0  0  0  0
  5  6  1  0  0  0  0
  7  9  1  0  0  0  0
  7 13  1  1  0  0  0
  8  7  1  0  0  0  0
  8  9  1  0  0  0  0
  9  5  1  6  0  0  0
 10 12  1  0  0  0  0
 12 13  1  0  0  0  0
 12 11  2  0  0  0  0
 15 14  1  6  0  0  0
 15 10  1  0  0  0  0
 16 15  1  0  0  0  0
 17 19  1  1  0  0  0
 17  1  1  0  0  0  0
 19 18  1  0  0  0  0
 20 17  1  0  0  0  0
 21 20  2  0  0  0  0
 22 21  1  0  0  0  0
 23 22  2  0  0  0  0
 24 31  2  0  0  0  0
 25 26  1  0  0  0  0
 26 28  1  0  0  0  0
 27 24  1  1  0  0  0
 27 25  1  0  0  0  0
 27 29  1  0  0  0  0
 29 28  1  1  0  0  0
 30 29  1  0  0  0  0
 30 22  1  1  0  0  0
 31 30  1  0  0  0  0
M  END
>  <MODEL>
2

>  <REMARK>
 VINA RESULT:      -6.5      1.508      1.596
  Name = 
  12 active torsions:
  status: ('A' for Active; 'I' for Inactive)
    1  A    between atoms: C_3  and  N_28
    2  A    between atoms: C_7  and  C_13
    3  A    between atoms: C_7  and  C_29
    4  A    between atoms: N_9  and  C_25
    5  A    between atoms: C_10  and  N_12
    6  A    between atoms: C_10  and  C_26
    7  A    between atoms: C_13  and  C_15
    8  A    between atoms: N_14  and  C_24
    9  A    between atoms: C_15  and  N_16
   10  A    between atoms: N_16  and  C_27
   11  A    between atoms: C_18  and  C_25
   12  A    between atoms: C_25  and  C_29
                            x       y       z     vdW  Elec       q    Type
                         _______ _______ _______ _____ _____    ______ ____

>  <TORSDO>
F 12

$$$$
=
 OpenBabel11052409453D

 31 33  0  0  1  0  0  0  0  0999 V2000
  161.1880  206.7550  150.6700 C   0  0  0  0  0  2  0  0  0  0  0  0
  162.1720  207.7380  150.0450 C   0  0  0  0  0  2  0  0  0  0  0  0
  161.8110  208.0240  148.5930 C   0  0  0  0  0  2  0  0  0  0  0  0
  161.0410  206.8620  147.9440 C   0  0  0  0  0  2  0  0  0  0  0  0
  161.7370  206.1810  146.8380 N   0  0  0  0  0  0  0  0  0  0  0  0
  162.6340  205.1800  147.3970 C   0  0  0  0  0  1  0  0  0  0  0  0
  161.5530  204.5020  145.0790 C   0  0  1  0  0  3  0  0  0  0  0  0
  161.1460  205.8370  144.4950 C   0  0  0  0  0  2  0  0  0  0  0  0
  160.8030  205.5070  145.9360 C   0  0  2  0  0  3  0  0  0  0  0  0
  161.1020  202.0300  146.6190 N   0  0  0  0  0  2  0  0  0  0  0  0
  159.5790  201.4150  144.9550 O   0  0  0  0  0  0  0  0  0  0  0  0
  160.3990  202.2660  145.3940 C   0  0  0  0  0  0  0  0  0  0  0  0
  160.6180  203.4710  144.6590 N   0  0  0  0  0  2  0  0  0  0  0  0
  161.5640  199.6400  146.6780 C   0  0  0  0  0  1  0  0  0  0  0  0
  160.9300  200.8150  147.4020 C   0  0  1  0  0  3  0  0  0  0  0  0
  161.5430  200.9750  148.6430 O   0  0  0  0  0  1  0  0  0  0  0  0
  161.8360  205.9350  151.7810 C   0  0  2  0  0  3  0  0  0  0  0  0
  160.8010  204.0770  150.4740 C   0  0  0  0  0  1  0  0  0  0  0  0
  161.2100  204.5490  151.8550 C   0  0  0  0  0  2  0  0  0  0  0  0
  161.7110  206.6240  153.0610 N   0  0  0  0  0  0  0  0  0  0  0  0
  160.9920  207.6680  153.1890 N   0  0  0  0  0  0  0  0  0  0  0  0
  160.8740  208.3350  154.4470 C   0  0  0  0  0  0  0  0  0  0  0  0
  160.1190  207.8500  155.3320 O   0  0  0  0  0  0  0  0  0  0  0  0
  161.3090  210.9340  156.5320 N   0  0  0  0  0  0  0  0  0  0  0  0
  159.3080  212.6550  155.4850 S   0  0  0  0  0  0  0  0  0  0  0  0
  158.5880  211.6870  154.1050 C   0  0  0  0  0  2  0  0  0  0  0  0
  160.7010  211.5560  155.4250 C   0  0  2  0  0  3  0  0  0  0  0  0
  159.7210  210.9660  153.3730 C   0  0  0  0  0  2  0  0  0  0  0  0
  160.8130  210.8240  154.3680 C   0  0  2  0  0  3  0  0  0  0  0  0
  161.6220  209.6140  154.7060 C   0  0  1  0  0  3  0  0  0  0  0  0
  161.9560  209.7510  156.1350 N   0  0  0  0  0  0  0  0  0  0  0  0
  2  1  1  0  0  0  0
  3  2  1  0  0  0  0
  4  3  1  0  0  0  0
  5  6  1  0  0  0  0
  5  4  1  0  0  0  0
  7 13  1  6  0  0  0
  7  9  1  0  0  0  0
  8  7  1  0  0  0  0
  8  9  1  0  0  0  0
  9  5  1  1  0  0  0
 10 15  1  0  0  0  0
 11 12  2  0  0  0  0
 12 10  1  0  0  0  0
 13 12  1  0  0  0  0
 15 14  1  6  0  0  0
 15 16  1  0  0  0  0
 17  1  1  6  0  0  0
 17 19  1  0  0  0  0
 17 20  1  0  0  0  0
 18 19  1  0  0  0  0
 20 21  2  0  0  0  0
 21 22  1  0  0  0  0
 22 23  2  0  0  0  0
 26 25  1  0  0  0  0
 27 25  1  1  0  0  0
 27 24  1  0  0  0  0
 28 26  1  0  0  0  0
 29 28  1  1  0  0  0
 29 30  1  0  0  0  0
 29 27  1  0  0  0  0
 30 22  1  1  0  0  0
 30 31  1  0  0  0  0
 31 24  2  0  0  0  0
M  END
>  <MODEL>
3

>  <REMARK>
 VINA RESULT:      -5.9      3.789     10.136
  Name = 
  12 active torsions:
  status: ('A' for Active; 'I' for Inactive)
    1  A    between atoms: C_3  and  N_28
    2  A    between atoms: C_7  and  C_13
    3  A    between atoms: C_7  and  C_29
    4  A    between atoms: N_9  and  C_25
    5  A    between atoms: C_10  and  N_12
    6  A    between atoms: C_10  and  C_26
    7  A    between atoms: C_13  and  C_15
    8  A    between atoms: N_14  and  C_24
    9  A    between atoms: C_15  and  N_16
   10  A    between atoms: N_16  and  C_27
   11  A    between atoms: C_18  and  C_25
   12  A    between atoms: C_25  and  C_29
                            x       y       z     vdW  Elec       q    Type
                         _______ _______ _______ _____ _____    ______ ____

>  <TORSDO>
F 12

$$$$
=
 OpenBabel11052409453D

 31 33  0  0  1  0  0  0  0  0999 V2000
  161.3780  209.3980  154.9260 C   0  0  0  0  0  2  0  0  0  0  0  0
  160.8250  210.7010  154.3590 C   0  0  0  0  0  2  0  0  0  0  0  0
  160.4320  211.6600  155.4750 C   0  0  0  0  0  2  0  0  0  0  0  0
  159.1900  212.4940  155.1170 C   0  0  0  0  0  2  0  0  0  0  0  0
  158.3000  211.9000  154.1050 N   0  0  0  0  0  0  0  0  0  0  0  0
  157.1330  211.3470  154.7770 C   0  0  0  0  0  1  0  0  0  0  0  0
  158.7730  212.8980  151.9310 C   0  0  1  0  0  3  0  0  0  0  0  0
  158.8810  213.9850  152.9770 C   0  0  0  0  0  2  0  0  0  0  0  0
  157.8410  212.8900  153.1310 C   0  0  2  0  0  3  0  0  0  0  0  0
  160.0210  213.3370  149.2970 N   0  0  0  0  0  2  0  0  0  0  0  0
  157.9230  214.0510  148.5570 O   0  0  0  0  0  0  0  0  0  0  0  0
  158.6310  213.6120  149.5010 C   0  0  0  0  0  0  0  0  0  0  0  0
  158.0330  213.3880  150.7800 N   0  0  0  0  0  2  0  0  0  0  0  0
  162.0540  214.1760  148.2540 C   0  0  0  0  0  1  0  0  0  0  0  0
  160.6870  213.5600  148.0220 C   0  0  1  0  0  3  0  0  0  0  0  0
  160.8380  212.3430  147.3600 O   0  0  0  0  0  1  0  0  0  0  0  0
  160.3920  208.2460  154.7610 C   0  0  2  0  0  3  0  0  0  0  0  0
  161.1650  207.9040  157.1100 C   0  0  0  0  0  1  0  0  0  0  0  0
  160.0540  207.6360  156.1150 C   0  0  0  0  0  2  0  0  0  0  0  0
  160.9360  207.2340  153.8630 N   0  0  0  0  0  0  0  0  0  0  0  0
  160.9590  207.4050  152.6010 N   0  0  0  0  0  0  0  0  0  0  0  0
  161.4960  206.4090  151.7280 C   0  0  0  0  0  0  0  0  0  0  0  0
  162.7460  206.2600  151.6610 O   0  0  0  0  0  0  0  0  0  0  0  0
  161.2630  203.7530  149.6830 N   0  0  0  0  0  0  0  0  0  0  0  0
  161.8580  205.0550  147.2310 S   0  0  0  0  0  0  0  0  0  0  0  0
  162.1220  206.8010  147.7240 C   0  0  0  0  0  2  0  0  0  0  0  0
  161.0440  204.8200  148.7910 C   0  0  2  0  0  3  0  0  0  0  0  0
  161.0840  207.1690  148.7860 C   0  0  0  0  0  2  0  0  0  0  0  0
  160.6970  205.8880  149.4270 C   0  0  2  0  0  3  0  0  0  0  0  0
  160.5850  205.5640  150.8820 C   0  0  1  0  0  3  0  0  0  0  0  0
  160.9320  204.1360  150.9950 N   0  0  0  0  0  0  0  0  0  0  0  0
  2  1  1  0  0  0  0
  2  3  1  0  0  0  0
  4  3  1  0  0  0  0
  5  6  1  0  0  0  0
  5  4  1  0  0  0  0
  7 13  1  6  0  0  0
  7  8  1  0  0  0  0
  7  9  1  0  0  0  0
  8  9  1  0  0  0  0
  9  5  1  1  0  0  0
 10 12  1  0  0  0  0
 11 12  2  0  0  0  0
 12 13  1  0  0  0  0
 15 14  1  1  0  0  0
 15 10  1  0  0  0  0
 16 15  1  0  0  0  0
 17  1  1  1  0  0  0
 17 19  1  0  0  0  0
 19 18  1  0  0  0  0
 20 17  1  0  0  0  0
 21 20  2  0  0  0  0
 22 21  1  0  0  0  0
 23 22  2  0  0  0  0
 24 31  2  0  0  0  0
 25 26  1  0  0  0  0
 26 28  1  0  0  0  0
 27 25  1  1  0  0  0
 27 29  1  0  0  0  0
 27 24  1  0  0  0  0
 29 28  1  1  0  0  0
 29 30  1  0  0  0  0
 30 31  1  0  0  0  0
 30 22  1  1  0  0  0
M  END
>  <MODEL>
4

>  <REMARK>
 VINA RESULT:      -5.9      2.749      4.728
  Name = 
  12 active torsions:
  status: ('A' for Active; 'I' for Inactive)
    1  A    between atoms: C_3  and  N_28
    2  A    between atoms: C_7  and  C_13
    3  A    between atoms: C_7  and  C_29
    4  A    between atoms: N_9  and  C_25
    5  A    between atoms: C_10  and  N_12
    6  A    between atoms: C_10  and  C_26
    7  A    between atoms: C_13  and  C_15
    8  A    between atoms: N_14  and  C_24
    9  A    between atoms: C_15  and  N_16
   10  A    between atoms: N_16  and  C_27
   11  A    between atoms: C_18  and  C_25
   12  A    between atoms: C_25  and  C_29
                            x       y       z     vdW  Elec       q    Type
                         _______ _______ _______ _____ _____    ______ ____

>  <TORSDO>
F 12

$$$$
=
 OpenBabel11052409453D

 31 33  0  0  1  0  0  0  0  0999 V2000
  161.1620  208.1600  153.0170 C   0  0  0  0  0  2  0  0  0  0  0  0
  161.2660  208.7150  151.6000 C   0  0  0  0  0  2  0  0  0  0  0  0
  161.6460  207.6210  150.6100 C   0  0  0  0  0  2  0  0  0  0  0  0
  161.1320  206.2380  151.0450 C   0  0  0  0  0  2  0  0  0  0  0  0
  160.7340  205.3380  149.9490 N   0  0  0  0  0  0  0  0  0  0  0  0
  161.1890  205.9070  148.6890 C   0  0  0  0  0  1  0  0  0  0  0  0
  160.2290  202.9560  150.0880 C   0  0  1  0  0  3  0  0  0  0  0  0
  160.8690  203.3740  151.3940 C   0  0  0  0  0  2  0  0  0  0  0  0
  161.3250  204.0070  150.0920 C   0  0  2  0  0  3  0  0  0  0  0  0
  160.8160  202.3950  147.2550 N   0  0  0  0  0  2  0  0  0  0  0  0
  161.5680  200.2940  147.9520 O   0  0  0  0  0  0  0  0  0  0  0  0
  161.0820  201.4140  148.2630 C   0  0  0  0  0  0  0  0  0  0  0  0
  160.8020  201.6980  149.6350 N   0  0  0  0  0  2  0  0  0  0  0  0
  159.8950  201.4110  145.2270 C   0  0  0  0  0  1  0  0  0  0  0  0
  161.0670  202.1550  145.8410 C   0  0  1  0  0  3  0  0  0  0  0  0
  161.2290  203.3750  145.1880 O   0  0  0  0  0  1  0  0  0  0  0  0
  161.0030  209.2710  154.0490 C   0  0  2  0  0  3  0  0  0  0  0  0
  160.5310  207.2790  155.4770 C   0  0  0  0  0  1  0  0  0  0  0  0
  160.2630  208.7560  155.2760 C   0  0  0  0  0  2  0  0  0  0  0  0
  160.3020  210.4100  153.4670 N   0  0  0  0  0  0  0  0  0  0  0  0
  159.8720  211.3690  154.1880 N   0  0  0  0  0  0  0  0  0  0  0  0
  159.1880  212.4820  153.6100 C   0  0  0  0  0  0  0  0  0  0  0  0
  159.1070  212.5690  152.3550 O   0  0  0  0  0  0  0  0  0  0  0  0
  158.6650  213.5310  156.7580 N   0  0  0  0  0  0  0  0  0  0  0  0
  156.2280  212.1620  157.2600 S   0  0  0  0  0  0  0  0  0  0  0  0
  155.9060  211.2690  155.6920 C   0  0  0  0  0  2  0  0  0  0  0  0
  157.3620  213.1850  156.3530 C   0  0  2  0  0  3  0  0  0  0  0  0
  156.2770  212.1860  154.5250 C   0  0  0  0  0  2  0  0  0  0  0  0
  157.2770  213.1380  155.0670 C   0  0  2  0  0  3  0  0  0  0  0  0
  158.5910  213.5490  154.4850 C   0  0  1  0  0  3  0  0  0  0  0  0
  159.4610  213.8330  155.6400 N   0  0  0  0  0  0  0  0  0  0  0  0
  2  1  1  0  0  0  0
  3  4  1  0  0  0  0
  3  2  1  0  0  0  0
  5  4  1  0  0  0  0
  6  5  1  0  0  0  0
  7 13  1  6  0  0  0
  7  9  1  0  0  0  0
  7  8  1  0  0  0  0
  9  5  1  1  0  0  0
  9  8  1  0  0  0  0
 10 12  1  0  0  0  0
 11 12  2  0  0  0  0
 12 13  1  0  0  0  0
 15 14  1  6  0  0  0
 15 10  1  0  0  0  0
 16 15  1  0  0  0  0
 17  1  1  6  0  0  0
 17 19  1  0  0  0  0
 19 18  1  0  0  0  0
 20 17  1  0  0  0  0
 20 21  2  0  0  0  0
 22 21  1  0  0  0  0
 23 22  2  0  0  0  0
 26 25  1  0  0  0  0
 27 24  1  6  0  0  0
 27 25  1  0  0  0  0
 28 26  1  0  0  0  0
 29 28  1  1  0  0  0
 29 27  1  0  0  0  0
 30 22  1  1  0  0  0
 30 29  1  0  0  0  0
 30 31  1  0  0  0  0
 31 24  2  0  0  0  0
M  END
>  <MODEL>
5

>  <REMARK>
 VINA RESULT:      -5.9      3.841     10.230
  Name = 
  12 active torsions:
  status: ('A' for Active; 'I' for Inactive)
    1  A    between atoms: C_3  and  N_28
    2  A    between atoms: C_7  and  C_13
    3  A    between atoms: C_7  and  C_29
    4  A    between atoms: N_9  and  C_25
    5  A    between atoms: C_10  and  N_12
    6  A    between atoms: C_10  and  C_26
    7  A    between atoms: C_13  and  C_15
    8  A    between atoms: N_14  and  C_24
    9  A    between atoms: C_15  and  N_16
   10  A    between atoms: N_16  and  C_27
   11  A    between atoms: C_18  and  C_25
   12  A    between atoms: C_25  and  C_29
                            x       y       z     vdW  Elec       q    Type
                         _______ _______ _______ _____ _____    ______ ____

>  <TORSDO>
F 12

$$$$
=
 OpenBabel11052409453D

 31 33  0  0  1  0  0  0  0  0999 V2000
  161.5440  204.5940  151.8840 C   0  0  0  0  0  2  0  0  0  0  0  0
  161.9660  206.0240  152.2080 C   0  0  0  0  0  2  0  0  0  0  0  0
  160.9540  206.6980  153.1260 C   0  0  0  0  0  2  0  0  0  0  0  0
  161.1730  208.2170  153.2200 C   0  0  0  0  0  2  0  0  0  0  0  0
  160.5780  208.8710  154.3980 N   0  0  0  0  0  0  0  0  0  0  0  0
  161.2510  208.3820  155.5930 C   0  0  0  0  0  1  0  0  0  0  0  0
  159.6130  210.9270  153.5110 C   0  0  1  0  0  3  0  0  0  0  0  0
  160.9990  210.7720  152.9260 C   0  0  0  0  0  2  0  0  0  0  0  0
  160.7260  210.3260  154.3510 C   0  0  2  0  0  3  0  0  0  0  0  0
  158.1950  212.9200  151.8670 N   0  0  0  0  0  2  0  0  0  0  0  0
  158.6010  214.4500  153.5860 O   0  0  0  0  0  0  0  0  0  0  0  0
  158.7280  213.2760  153.1470 C   0  0  0  0  0  0  0  0  0  0  0  0
  159.4070  212.3010  153.9400 N   0  0  0  0  0  2  0  0  0  0  0  0
  157.4540  213.3470  149.5870 C   0  0  0  0  0  1  0  0  0  0  0  0
  157.5080  213.8750  151.0090 C   0  0  1  0  0  3  0  0  0  0  0  0
  156.2100  214.0670  151.4780 O   0  0  0  0  0  1  0  0  0  0  0  0
  160.5640  204.5450  150.7180 C   0  0  2  0  0  3  0  0  0  0  0  0
  161.3990  202.2000  150.9050 C   0  0  0  0  0  1  0  0  0  0  0  0
  160.4260  203.1210  150.1980 C   0  0  0  0  0  2  0  0  0  0  0  0
  160.9960  205.4410  149.6510 N   0  0  0  0  0  0  0  0  0  0  0  0
  160.9980  205.0740  148.4310 N   0  0  0  0  0  0  0  0  0  0  0  0
  161.4210  205.9600  147.3920 C   0  0  0  0  0  0  0  0  0  0  0  0
  161.4890  207.1950  147.6280 O   0  0  0  0  0  0  0  0  0  0  0  0
  160.2210  204.6810  144.5260 N   0  0  0  0  0  0  0  0  0  0  0  0
  160.1830  201.9410  145.2680 S   0  0  0  0  0  0  0  0  0  0  0  0
  160.8250  201.9520  146.9860 C   0  0  0  0  0  2  0  0  0  0  0  0
  160.8740  203.5670  145.0830 C   0  0  2  0  0  3  0  0  0  0  0  0
  161.9730  202.9610  147.0690 C   0  0  0  0  0  2  0  0  0  0  0  0
  161.7300  203.9340  145.9760 C   0  0  2  0  0  3  0  0  0  0  0  0
  161.7590  205.4270  146.0270 C   0  0  1  0  0  3  0  0  0  0  0  0
  160.7720  205.8730  145.0270 N   0  0  0  0  0  0  0  0  0  0  0  0
  1  2  1  0  0  0  0
  2  3  1  0  0  0  0
  3  4  1  0  0  0  0
  4  5  1  0  0  0  0
  5  6  1  0  0  0  0
  7 13  1  1  0  0  0
  7  9  1  0  0  0  0
  8  7  1  0  0  0  0
  8  9  1  0  0  0  0
  9  5  1  6  0  0  0
 10 12  1  0  0  0  0
 12 11  2  0  0  0  0
 12 13  1  0  0  0  0
 15 14  1  6  0  0  0
 15 16  1  0  0  0  0
 15 10  1  0  0  0  0
 17 19  1  6  0  0  0
 17  1  1  0  0  0  0
 19 18  1  0  0  0  0
 20 17  1  0  0  0  0
 21 20  2  0  0  0  0
 22 23  2  0  0  0  0
 22 21  1  0  0  0  0
 24 31  2  0  0  0  0
 25 26  1  0  0  0  0
 26 28  1  0  0  0  0
 27 24  1  1  0  0  0
 27 25  1  0  0  0  0
 27 29  1  0  0  0  0
 29 30  1  0  0  0  0
 29 28  1  1  0  0  0
 30 22  1  1  0  0  0
 31 30  1  0  0  0  0
M  END
>  <MODEL>
6

>  <REMARK>
 VINA RESULT:      -5.8      1.486      2.294
  Name = 
  12 active torsions:
  status: ('A' for Active; 'I' for Inactive)
    1  A    between atoms: C_3  and  N_28
    2  A    between atoms: C_7  and  C_13
    3  A    between atoms: C_7  and  C_29
    4  A    between atoms: N_9  and  C_25
    5  A    between atoms: C_10  and  N_12
    6  A    between atoms: C_10  and  C_26
    7  A    between atoms: C_13  and  C_15
    8  A    between atoms: N_14  and  C_24
    9  A    between atoms: C_15  and  N_16
   10  A    between atoms: N_16  and  C_27
   11  A    between atoms: C_18  and  C_25
   12  A    between atoms: C_25  and  C_29
                            x       y       z     vdW  Elec       q    Type
                         _______ _______ _______ _____ _____    ______ ____

>  <TORSDO>
F 12

$$$$
=
 OpenBabel11052409453D

 31 33  0  0  1  0  0  0  0  0999 V2000
  160.7600  206.9220  153.9350 C   0  0  0  0  0  2  0  0  0  0  0  0
  161.8490  206.0330  153.3450 C   0  0  0  0  0  2  0  0  0  0  0  0
  161.8790  206.1390  151.8260 C   0  0  0  0  0  2  0  0  0  0  0  0
  160.8910  207.1910  151.2950 C   0  0  0  0  0  2  0  0  0  0  0  0
  161.1720  207.6970  149.9400 N   0  0  0  0  0  0  0  0  0  0  0  0
  161.9670  208.9120  150.0510 C   0  0  0  0  0  1  0  0  0  0  0  0
  161.3070  206.6200  147.7560 C   0  0  1  0  0  3  0  0  0  0  0  0
  161.0370  205.5490  148.7890 C   0  0  0  0  0  2  0  0  0  0  0  0
  161.9230  206.7290  149.1400 C   0  0  2  0  0  3  0  0  0  0  0  0
  161.2600  203.9620  146.4850 N   0  0  0  0  0  2  0  0  0  0  0  0
  163.2600  204.5620  145.4350 O   0  0  0  0  0  0  0  0  0  0  0  0
  162.3250  204.8800  146.2170 C   0  0  0  0  0  0  0  0  0  0  0  0
  162.3340  206.1700  146.8310 N   0  0  0  0  0  2  0  0  0  0  0  0
  160.8340  201.6130  146.9640 C   0  0  0  0  0  1  0  0  0  0  0  0
  161.2060  202.6290  145.9010 C   0  0  1  0  0  3  0  0  0  0  0  0
  160.2480  202.6080  144.8890 O   0  0  0  0  0  1  0  0  0  0  0  0
  161.3410  208.0120  154.8280 C   0  0  2  0  0  3  0  0  0  0  0  0
  159.7300  206.9550  156.4150 C   0  0  0  0  0  1  0  0  0  0  0  0
  161.0300  207.7240  156.2910 C   0  0  0  0  0  2  0  0  0  0  0  0
  160.8230  209.3190  154.4400 N   0  0  0  0  0  0  0  0  0  0  0  0
  160.3400  210.1270  155.2990 N   0  0  0  0  0  0  0  0  0  0  0  0
  159.8370  211.4070  154.9110 C   0  0  0  0  0  0  0  0  0  0  0  0
  160.2520  212.4370  155.5060 O   0  0  0  0  0  0  0  0  0  0  0  0
  158.0000  213.4960  153.0260 N   0  0  0  0  0  0  0  0  0  0  0  0
  155.7740  213.7870  154.7640 S   0  0  0  0  0  0  0  0  0  0  0  0
  156.2080  212.7310  156.1990 C   0  0  0  0  0  2  0  0  0  0  0  0
  157.0160  212.9120  153.8450 C   0  0  2  0  0  3  0  0  0  0  0  0
  156.8690  211.4530  155.6800 C   0  0  0  0  0  2  0  0  0  0  0  0
  157.4410  211.8070  154.3580 C   0  0  2  0  0  3  0  0  0  0  0  0
  158.8070  211.5230  153.8210 C   0  0  1  0  0  3  0  0  0  0  0  0
  159.1160  212.6480  152.9200 N   0  0  0  0  0  0  0  0  0  0  0  0
  2  1  1  0  0  0  0
  3  2  1  0  0  0  0
  4  3  1  0  0  0  0
  5  6  1  0  0  0  0
  5  4  1  0  0  0  0
  7 13  1  6  0  0  0
  7  8  1  0  0  0  0
  7  9  1  0  0  0  0
  8  9  1  0  0  0  0
  9  5  1  1  0  0  0
 11 12  2  0  0  0  0
 12 10  1  0  0  0  0
 12 13  1  0  0  0  0
 15 10  1  0  0  0  0
 15 14  1  1  0  0  0
 16 15  1  0  0  0  0
 17  1  1  6  0  0  0
 17 19  1  0  0  0  0
 19 18  1  0  0  0  0
 20 17  1  0  0  0  0
 20 21  2  0  0  0  0
 22 21  1  0  0  0  0
 22 23  2  0  0  0  0
 25 26  1  0  0  0  0
 27 24  1  1  0  0  0
 27 29  1  0  0  0  0
 27 25  1  0  0  0  0
 28 26  1  0  0  0  0
 29 28  1  1  0  0  0
 30 29  1  0  0  0  0
 30 22  1  1  0  0  0
 31 24  2  0  0  0  0
 31 30  1  0  0  0  0
M  END
>  <MODEL>
7

>  <REMARK>
 VINA RESULT:      -5.7      3.453      9.630
  Name = 
  12 active torsions:
  status: ('A' for Active; 'I' for Inactive)
    1  A    between atoms: C_3  and  N_28
    2  A    between atoms: C_7  and  C_13
    3  A    between atoms: C_7  and  C_29
    4  A    between atoms: N_9  and  C_25
    5  A    between atoms: C_10  and  N_12
    6  A    between atoms: C_10  and  C_26
    7  A    between atoms: C_13  and  C_15
    8  A    between atoms: N_14  and  C_24
    9  A    between atoms: C_15  and  N_16
   10  A    between atoms: N_16  and  C_27
   11  A    between atoms: C_18  and  C_25
   12  A    between atoms: C_25  and  C_29
                            x       y       z     vdW  Elec       q    Type
                         _______ _______ _______ _____ _____    ______ ____

>  <TORSDO>
F 12

$$$$
=
 OpenBabel11052409453D

 31 33  0  0  1  0  0  0  0  0999 V2000
  160.7400  205.0270  151.9220 C   0  0  0  0  0  2  0  0  0  0  0  0
  161.7250  206.1910  151.9540 C   0  0  0  0  0  2  0  0  0  0  0  0
  161.0230  207.4920  152.3210 C   0  0  0  0  0  2  0  0  0  0  0  0
  161.5160  208.0620  153.6620 C   0  0  0  0  0  2  0  0  0  0  0  0
  160.4580  208.4780  154.6000 N   0  0  0  0  0  0  0  0  0  0  0  0
  160.2440  207.4100  155.5650 C   0  0  0  0  0  1  0  0  0  0  0  0
  160.0720  210.8810  154.7550 C   0  0  1  0  0  3  0  0  0  0  0  0
  161.5280  210.6630  154.4030 C   0  0  0  0  0  2  0  0  0  0  0  0
  160.8220  209.6920  155.3310 C   0  0  2  0  0  3  0  0  0  0  0  0
  157.5770  212.3590  155.2770 N   0  0  0  0  0  2  0  0  0  0  0  0
  158.7420  213.4950  156.9540 O   0  0  0  0  0  0  0  0  0  0  0  0
  158.7550  212.6230  156.0460 C   0  0  0  0  0  0  0  0  0  0  0  0
  159.9580  211.8950  155.7900 N   0  0  0  0  0  2  0  0  0  0  0  0
  155.6220  213.2780  154.1530 C   0  0  0  0  0  1  0  0  0  0  0  0
  156.3280  213.0790  155.4820 C   0  0  1  0  0  3  0  0  0  0  0  0
  155.5060  212.3450  156.3350 O   0  0  0  0  0  1  0  0  0  0  0  0
  160.4760  204.5480  150.4990 C   0  0  2  0  0  3  0  0  0  0  0  0
  161.2950  202.5070  151.6790 C   0  0  0  0  0  1  0  0  0  0  0  0
  160.7230  203.0510  150.3860 C   0  0  0  0  0  2  0  0  0  0  0  0
  161.3110  205.2800  149.5530 N   0  0  0  0  0  0  0  0  0  0  0  0
  160.9840  205.3970  148.3270 N   0  0  0  0  0  0  0  0  0  0  0  0
  161.8070  206.1170  147.4060 C   0  0  0  0  0  0  0  0  0  0  0  0
  162.3560  207.1880  147.7810 O   0  0  0  0  0  0  0  0  0  0  0  0
  160.3060  204.9370  144.6410 N   0  0  0  0  0  0  0  0  0  0  0  0
  160.2910  202.1790  145.3140 S   0  0  0  0  0  0  0  0  0  0  0  0
  161.0990  202.1330  146.9580 C   0  0  0  0  0  2  0  0  0  0  0  0
  160.9910  203.7980  145.1030 C   0  0  2  0  0  3  0  0  0  0  0  0
  162.2680  203.1200  146.9540 C   0  0  0  0  0  2  0  0  0  0  0  0
  161.9370  204.1260  145.9150 C   0  0  2  0  0  3  0  0  0  0  0  0
  161.9990  205.6170  146.0010 C   0  0  1  0  0  3  0  0  0  0  0  0
  160.9270  206.1060  145.1160 N   0  0  0  0  0  0  0  0  0  0  0  0
  1  2  1  0  0  0  0
  2  3  1  0  0  0  0
  3  4  1  0  0  0  0
  4  5  1  0  0  0  0
  5  6  1  0  0  0  0
  7  9  1  0  0  0  0
  7 13  1  1  0  0  0
  8  7  1  0  0  0  0
  8  9  1  0  0  0  0
  9  5  1  6  0  0  0
 10 15  1  0  0  0  0
 10 12  1  0  0  0  0
 12 11  2  0  0  0  0
 13 12  1  0  0  0  0
 15 14  1  6  0  0  0
 15 16  1  0  0  0  0
 17 19  1  1  0  0  0
 17  1  1  0  0  0  0
 19 18  1  0  0  0  0
 20 17  1  0  0  0  0
 21 20  2  0  0  0  0
 22 23  2  0  0  0  0
 22 21  1  0  0  0  0
 24 31  2  0  0  0  0
 25 26  1  0  0  0  0
 27 24  1  1  0  0  0
 27 25  1  0  0  0  0
 27 29  1  0  0  0  0
 28 26  1  0  0  0  0
 29 30  1  0  0  0  0
 29 28  1  1  0  0  0
 30 22  1  1  0  0  0
 31 30  1  0  0  0  0
M  END
>  <MODEL>
8

>  <REMARK>
 VINA RESULT:      -5.6      2.252      2.912
  Name = 
  12 active torsions:
  status: ('A' for Active; 'I' for Inactive)
    1  A    between atoms: C_3  and  N_28
    2  A    between atoms: C_7  and  C_13
    3  A    between atoms: C_7  and  C_29
    4  A    between atoms: N_9  and  C_25
    5  A    between atoms: C_10  and  N_12
    6  A    between atoms: C_10  and  C_26
    7  A    between atoms: C_13  and  C_15
    8  A    between atoms: N_14  and  C_24
    9  A    between atoms: C_15  and  N_16
   10  A    between atoms: N_16  and  C_27
   11  A    between atoms: C_18  and  C_25
   12  A    between atoms: C_25  and  C_29
                            x       y       z     vdW  Elec       q    Type
                         _______ _______ _______ _____ _____    ______ ____

>  <TORSDO>
F 12

$$$$
=
 OpenBabel11052409453D

 31 33  0  0  1  0  0  0  0  0999 V2000
  160.5160  208.9790  152.9520 C   0  0  0  0  0  2  0  0  0  0  0  0
  161.2230  210.0710  152.1550 C   0  0  0  0  0  2  0  0  0  0  0  0
  162.2680  209.4760  151.2200 C   0  0  0  0  0  2  0  0  0  0  0  0
  161.7910  208.1660  150.5700 C   0  0  0  0  0  2  0  0  0  0  0  0
  161.5150  208.2410  149.1250 N   0  0  0  0  0  0  0  0  0  0  0  0
  162.0120  209.5130  148.6200 C   0  0  0  0  0  1  0  0  0  0  0  0
  161.1540  206.4220  147.5410 C   0  0  1  0  0  3  0  0  0  0  0  0
  161.6420  205.8200  148.8410 C   0  0  0  0  0  2  0  0  0  0  0  0
  162.1760  207.1650  148.3850 C   0  0  2  0  0  3  0  0  0  0  0  0
  161.2050  203.5090  147.0950 N   0  0  0  0  0  2  0  0  0  0  0  0
  162.5170  203.9420  145.2100 O   0  0  0  0  0  0  0  0  0  0  0  0
  161.8840  204.3960  146.2000 C   0  0  0  0  0  0  0  0  0  0  0  0
  161.8470  205.8080  146.4200 N   0  0  0  0  0  2  0  0  0  0  0  0
  160.8370  201.3890  148.2350 C   0  0  0  0  0  1  0  0  0  0  0  0
  161.2210  202.0630  146.9300 C   0  0  1  0  0  3  0  0  0  0  0  0
  160.3090  201.7010  145.9400 O   0  0  0  0  0  1  0  0  0  0  0  0
  161.2120  208.7070  154.2800 C   0  0  2  0  0  3  0  0  0  0  0  0
  161.0890  206.2960  153.6460 C   0  0  0  0  0  1  0  0  0  0  0  0
  160.9010  207.2980  154.7670 C   0  0  0  0  0  2  0  0  0  0  0  0
  160.8110  209.6950  155.2760 N   0  0  0  0  0  0  0  0  0  0  0  0
  159.6380  210.1910  155.2890 N   0  0  0  0  0  0  0  0  0  0  0  0
  159.2520  211.1570  156.2690 C   0  0  0  0  0  0  0  0  0  0  0  0
  160.1020  211.5470  157.1130 O   0  0  0  0  0  0  0  0  0  0  0  0
  156.3320  211.4270  154.6280 N   0  0  0  0  0  0  0  0  0  0  0  0
  156.8790  213.8110  153.1850 S   0  0  0  0  0  0  0  0  0  0  0  0
  158.5760  214.2560  153.7160 C   0  0  0  0  0  2  0  0  0  0  0  0
  156.7930  212.7570  154.6120 C   0  0  2  0  0  3  0  0  0  0  0  0
  158.7030  213.9840  155.2160 C   0  0  0  0  0  2  0  0  0  0  0  0
  157.6880  212.9460  155.5220 C   0  0  2  0  0  3  0  0  0  0  0  0
  157.8450  211.6840  156.3080 C   0  0  1  0  0  3  0  0  0  0  0  0
  156.9040  210.7250  155.7030 N   0  0  0  0  0  0  0  0  0  0  0  0
  2  1  1  0  0  0  0
  3  2  1  0  0  0  0
  4  3  1  0  0  0  0
  5  4  1  0  0  0  0
  6  5  1  0  0  0  0
  7 13  1  6  0  0  0
  7  9  1  0  0  0  0
  7  8  1  0  0  0  0
  9  8  1  0  0  0  0
  9  5  1  1  0  0  0
 11 12  2  0  0  0  0
 12 13  1  0  0  0  0
 12 10  1  0  0  0  0
 15 10  1  0  0  0  0
 15 14  1  1  0  0  0
 16 15  1  0  0  0  0
 17  1  1  6  0  0  0
 17 19  1  0  0  0  0
 17 20  1  0  0  0  0
 18 19  1  0  0  0  0
 20 21  2  0  0  0  0
 21 22  1  0  0  0  0
 22 23  2  0  0  0  0
 24 31  2  0  0  0  0
 25 26  1  0  0  0  0
 26 28  1  0  0  0  0
 27 25  1  6  0  0  0
 27 24  1  0  0  0  0
 27 29  1  0  0  0  0
 29 28  1  6  0  0  0
 29 30  1  0  0  0  0
 30 22  1  6  0  0  0
 31 30  1  0  0  0  0
M  END
>  <MODEL>
9

>  <REMARK>
 VINA RESULT:      -5.6      3.466     10.060
  Name = 
  12 active torsions:
  status: ('A' for Active; 'I' for Inactive)
    1  A    between atoms: C_3  and  N_28
    2  A    between atoms: C_7  and  C_13
    3  A    between atoms: C_7  and  C_29
    4  A    between atoms: N_9  and  C_25
    5  A    between atoms: C_10  and  N_12
    6  A    between atoms: C_10  and  C_26
    7  A    between atoms: C_13  and  C_15
    8  A    between atoms: N_14  and  C_24
    9  A    between atoms: C_15  and  N_16
   10  A    between atoms: N_16  and  C_27
   11  A    between atoms: C_18  and  C_25
   12  A    between atoms: C_25  and  C_29
                            x       y       z     vdW  Elec       q    Type
                         _______ _______ _______ _____ _____    ______ ____

>  <TORSDO>
F 12

$$$$
