=
 OpenBabel11052411203D

 68 79  0  0  1  0  0  0  0  0999 V2000
  160.2180  207.2390  148.4680 S   0  0  0  0  0  0  0  0  0  0  0  0
  161.7170  207.8050  149.3910 C   0  0  1  0  0  3  0  0  0  0  0  0
  161.0550  210.5790  147.4730 C   0  0  0  0  0  0  0  0  0  0  0  0
  158.3630  213.2720  148.7840 C   0  0  0  0  0  1  0  0  0  0  0  0
  160.7590  208.2580  147.0340 C   0  0  0  0  0  2  0  0  0  0  0  0
  160.4830  211.7840  147.4290 C   0  0  0  0  0  0  0  0  0  0  0  0
  160.5630  213.3140  147.0800 N   0  0  0  0  0  0  0  0  0  0  0  0
  162.1800  209.0480  148.8450 N   0  0  0  0  0  2  0  0  0  0  0  0
  159.8260  212.7770  148.1960 C   0  0  1  0  0  0  0  0  0  0  0  0
  161.5350  209.3820  147.6100 C   0  0  0  0  0  0  0  0  0  0  0  0
  159.2580  212.5430  146.5590 C   0  0  1  0  0  0  0  0  0  0  0  0
  157.7050  212.0180  146.8420 C   0  0  0  0  0  1  0  0  0  0  0  0
  159.2770  212.7900  145.0000 C   0  0  2  0  0  3  0  0  0  0  0  0
  159.6570  211.4420  145.5520 C   0  0  0  0  0  2  0  0  0  0  0  0
  161.5190  212.2910  144.4630 C   0  0  0  0  0  2  0  0  0  0  0  0
  160.2410  213.3560  140.8770 N   0  0  0  0  0  0  0  0  0  0  0  0
  159.9280  212.7980  142.2280 C   0  0  2  0  0  3  0  0  0  0  0  0
  163.0580  211.7010  139.3500 C   0  0  0  0  0  2  0  0  0  0  0  0
  159.2330  213.4050  139.8780 C   0  0  0  0  0  0  0  0  0  0  0  0
  160.5470  213.3800  144.5140 N   0  0  1  0  0  0  0  0  0  0  0  0
  157.9080  213.1380  140.2220 O   0  0  0  0  0  1  0  0  0  0  0  0
  162.4880  212.2210  140.6790 C   0  0  2  0  0  3  0  0  0  0  0  0
  161.0290  210.2110  140.4810 N   0  0  0  0  0  2  0  0  0  0  0  0
  161.1410  212.9320  143.2010 C   0  0  2  0  0  0  0  0  0  0  0  0
  163.2960  210.1940  139.4040 C   0  0  0  0  0  2  0  0  0  0  0  0
  159.4750  213.8060  138.6990 O   0  0  0  0  0  0  0  0  0  0  0  0
  161.7190  211.1010  141.4370 C   0  0  2  0  0  3  0  0  0  0  0  0
  161.9940  209.4250  139.7060 C   0  0  0  0  0  2  0  0  0  0  0  0
  161.6160  213.3940  140.4270 C   0  0  0  0  0  0  0  0  0  0  0  0
  160.7260  211.5870  142.5560 C   0  0  2  0  0  3  0  0  0  0  0  0
  162.0700  214.4530  139.9150 O   0  0  0  0  0  0  0  0  0  0  0  0
  160.0130  212.5930  150.7860 C   0  0  1  0  0  3  0  0  0  0  0  0
  160.1920  213.9310  150.3050 O   0  0  0  0  0  0  0  0  0  0  0  0
  160.7330  212.9060  149.4930 C   0  0  2  0  0  3  0  0  0  0  0  0
  160.0980  210.4330  152.7800 O   0  0  0  0  0  0  0  0  0  0  0  0
  160.8940  212.4880  151.9710 N   0  0  0  0  0  2  0  0  0  0  0  0
  160.4230  211.6320  153.0190 C   0  0  0  0  0  0  0  0  0  0  0  0
  160.2080  212.2180  154.4040 C   0  0  0  0  0  2  0  0  0  0  0  0
  159.0750  211.6140  155.0730 N   0  0  0  0  0  2  0  0  0  0  0  0
  159.0880  212.0130  156.4950 C   0  0  1  0  0  3  0  0  0  0  0  0
  160.0970  212.9700  156.7640 O   0  0  0  0  0  1  0  0  0  0  0  0
  156.5650  211.6010  156.1880 C   0  0  0  0  0  2  0  0  0  0  0  0
  157.6530  212.4040  156.9410 C   0  0  2  0  0  3  0  0  0  0  0  0
  156.1230  214.4510  156.7820 C   0  0  0  0  0  2  0  0  0  0  0  0
  155.2180  213.7190  155.7940 C   0  0  2  0  0  3  0  0  0  0  0  0
  157.5560  213.9230  156.6740 C   0  0  0  0  0  2  0  0  0  0  0  0
  155.2040  212.2540  156.2520 C   0  0  0  0  0  2  0  0  0  0  0  0
  154.9190  213.0290  153.6800 C   0  0  0  0  0  1  0  0  0  0  0  0
  155.7000  213.8640  154.4940 O   0  0  0  0  0  0  0  0  0  0  0  0
  161.6350  207.8320  150.8800 C   0  0  0  0  0  0  0  0  0  0  0  0
  161.8030  208.8810  151.4970 O   0  0  0  0  0  0  0  0  0  0  0  0
  161.0210  206.6290  151.5260 C   0  0  0  0  0  2  0  0  0  0  0  0
  161.9430  205.5900  152.0730 C   0  0  0  0  0  0  0  0  0  0  0  0
  163.2250  205.8450  152.1550 C   0  0  0  0  0  2  0  0  0  0  0  0
  161.5340  204.2280  151.8290 N   0  0  0  0  0  2  0  0  0  0  0  0
  160.3880  203.8820  151.0780 N   0  0  0  0  0  2  0  0  0  0  0  0
  161.2360  203.9220  148.1080 C   0  0  0  0  0  2  0  0  0  0  0  0
  162.9490  205.1150  146.7530 C   0  0  0  0  0  1  0  0  0  0  0  0
  162.1730  201.9550  150.3910 S   0  0  0  0  0  0  0  0  0  0  0  0
  160.4760  202.4420  150.7890 C   0  0  2  0  0  3  0  0  0  0  0  0
  159.8830  202.1020  149.4310 C   0  0  1  0  0  0  0  0  0  0  0  0
  162.1370  202.9540  146.0730 O   0  0  0  0  0  0  0  0  0  0  0  0
  160.9410  202.3010  145.6670 C   0  0  0  0  0  2  0  0  0  0  0  0
  158.8190  201.0090  149.3890 C   0  0  0  0  0  1  0  0  0  0  0  0
  160.5300  202.5680  148.1410 C   0  0  1  0  0  0  0  0  0  0  0  0
  159.9640  202.0580  146.8340 C   0  0  0  0  0  2  0  0  0  0  0  0
  161.7500  204.1790  146.6890 C   0  0  1  0  0  3  0  0  0  0  0  0
  161.2050  201.4760  148.9270 C   0  0  1  0  0  3  0  0  0  0  0  0
  1  2  1  0  0  0  0
  2 50  1  1  0  0  0
  3 10  2  0  0  0  0
  5 10  1  0  0  0  0
  5  1  1  0  0  0  0
  6  3  2  0  0  0  0
  6  9  1  0  0  0  0
  7  6  1  0  0  0  0
  7  9  1  0  0  0  0
  8  2  1  0  0  0  0
  9  4  1  1  0  0  0
  9 34  1  0  0  0  0
 10  8  1  0  0  0  0
 11 12  1  1  0  0  0
 11  7  1  0  0  0  0
 13 14  1  6  0  0  0
 13 11  1  0  0  0  0
 14 11  1  0  0  0  0
 17 16  1  6  0  0  0
 17 30  1  0  0  0  0
 17 24  1  0  0  0  0
 18 25  1  0  0  0  0
 19 21  1  0  0  0  0
 19 16  1  0  0  0  0
 20 15  1  1  0  0  0
 20 13  1  0  0  0  0
 22 18  1  6  0  0  0
 22 27  1  0  0  0  0
 24 15  1  6  0  0  0
 24 20  1  0  0  0  0
 25 28  1  0  0  0  0
 26 19  2  0  0  0  0
 27 23  1  6  0  0  0
 27 30  1  0  0  0  0
 28 23  1  0  0  0  0
 29 22  1  0  0  0  0
 29 16  1  0  0  0  0
 30 24  1  0  0  0  0
 31 29  2  0  0  0  0
 32 36  1  0  0  0  0
 33 32  1  0  0  0  0
 34 33  1  0  0  0  0
 34 32  1  0  0  0  0
 35 37  2  0  0  0  0
 36 37  1  0  0  0  0
 37 38  1  0  0  0  0
 38 39  1  0  0  0  0
 39 40  1  0  0  0  0
 40 41  1  0  0  0  0
 40 43  1  0  0  0  0
 42 47  1  0  0  0  0
 42 43  1  0  0  0  0
 45 47  1  0  0  0  0
 45 44  1  0  0  0  0
 46 44  1  0  0  0  0
 46 43  1  0  0  0  0
 48 49  1  0  0  0  0
 49 45  1  0  0  0  0
 50 51  2  0  0  0  0
 50 52  1  0  0  0  0
 52 53  1  0  0  0  0
 53 54  2  0  0  0  0
 55 53  1  0  0  0  0
 56 55  1  0  0  0  0
 57 65  1  0  0  0  0
 59 60  1  0  0  0  0
 60 56  1  0  0  0  0
 61 60  1  0  0  0  0
 62 67  1  0  0  0  0
 63 62  1  0  0  0  0
 63 66  1  0  0  0  0
 64 61  1  0  0  0  0
 65 68  1  0  0  0  0
 65 61  1  0  0  0  0
 66 65  1  0  0  0  0
 67 58  1  0  0  0  0
 67 57  1  0  0  0  0
 68 61  1  0  0  0  0
 68 59  1  0  0  0  0
M  END
>  <MODEL>
1

>  <REMARK>
 VINA RESULT:      -0.2      0.000      0.000
  Name = 
  15 active torsions:
  status: ('A' for Active; 'I' for Inactive)
    1  A    between atoms: C_7  and  N_29
    2  A    between atoms: C_8  and  C_12
    3  A    between atoms: C_8  and  N_38
    4  A    between atoms: C_9  and  C_17
    5  A    between atoms: C_16  and  N_39
    6  A    between atoms: C_17  and  C_47
    7  A    between atoms: N_22  and  C_28
    8  A    between atoms: O_23  and  C_57
    9  A    between atoms: C_30  and  N_36
   10  A    between atoms: C_30  and  C_47
   11  A    between atoms: N_31  and  C_35
   12  A    between atoms: N_31  and  N_36
   13  A    between atoms: N_38  and  C_50
   14  A    between atoms: C_43  and  C_64
   15  A    between atoms: C_50  and  C_51
                            x       y       z     vdW  Elec       q    Type
                         _______ _______ _______ _____ _____    ______ ____

>  <TORSDO>
F 15

$$$$
=
 OpenBabel11052411203D

 68 79  0  0  1  0  0  0  0  0999 V2000
  160.1050  207.3130  148.2980 S   0  0  0  0  0  0  0  0  0  0  0  0
  161.5310  207.9850  149.2640 C   0  0  1  0  0  3  0  0  0  0  0  0
  160.8190  210.6570  147.2230 C   0  0  0  0  0  0  0  0  0  0  0  0
  157.9410  213.2510  148.3210 C   0  0  0  0  0  1  0  0  0  0  0  0
  160.6580  208.3100  146.8530 C   0  0  0  0  0  2  0  0  0  0  0  0
  160.1910  211.8280  147.1120 C   0  0  0  0  0  0  0  0  0  0  0  0
  160.2100  213.3480  146.7140 N   0  0  0  0  0  0  0  0  0  0  0  0
  161.9550  209.2310  148.6960 N   0  0  0  0  0  2  0  0  0  0  0  0
  159.4520  212.8120  147.8140 C   0  0  1  0  0  0  0  0  0  0  0  0
  161.3510  209.4910  147.4220 C   0  0  0  0  0  0  0  0  0  0  0  0
  158.9700  212.4950  146.1640 C   0  0  1  0  0  0  0  0  0  0  0  0
  157.4690  211.8300  146.4300 C   0  0  0  0  0  1  0  0  0  0  0  0
  158.9550  212.8140  144.6180 C   0  0  2  0  0  3  0  0  0  0  0  0
  159.4510  211.4780  145.1050 C   0  0  0  0  0  2  0  0  0  0  0  0
  161.2720  212.5780  144.2430 C   0  0  0  0  0  2  0  0  0  0  0  0
  160.0970  213.1970  140.5190 N   0  0  0  0  0  0  0  0  0  0  0  0
  159.7730  212.7030  141.8930 C   0  0  2  0  0  3  0  0  0  0  0  0
  163.1940  211.8220  139.2830 C   0  0  0  0  0  2  0  0  0  0  0  0
  159.1560  213.0380  139.4670 C   0  0  0  0  0  0  0  0  0  0  0  0
  160.1670  213.5290  144.1530 N   0  0  1  0  0  0  0  0  0  0  0  0
  157.8570  212.6240  139.7620 O   0  0  0  0  0  1  0  0  0  0  0  0
  162.4790  212.3590  140.5330 C   0  0  2  0  0  3  0  0  0  0  0  0
  161.3060  210.1640  140.4230 N   0  0  0  0  0  2  0  0  0  0  0  0
  160.8950  213.0690  142.9140 C   0  0  2  0  0  0  0  0  0  0  0  0
  163.6190  210.3680  139.4730 C   0  0  0  0  0  2  0  0  0  0  0  0
  159.4190  213.3790  138.2740 O   0  0  0  0  0  0  0  0  0  0  0  0
  161.8130  211.2060  141.3380 C   0  0  2  0  0  3  0  0  0  0  0  0
  162.4100  209.4580  139.7670 C   0  0  0  0  0  2  0  0  0  0  0  0
  161.4810  213.3840  140.1410 C   0  0  0  0  0  0  0  0  0  0  0  0
  160.6980  211.6370  142.3600 C   0  0  2  0  0  3  0  0  0  0  0  0
  161.8270  214.4530  139.5700 O   0  0  0  0  0  0  0  0  0  0  0  0
  159.4560  213.3930  150.3520 C   0  0  1  0  0  3  0  0  0  0  0  0
  160.1260  214.3750  149.5510 O   0  0  0  0  0  0  0  0  0  0  0  0
  160.2910  213.0300  149.1440 C   0  0  2  0  0  3  0  0  0  0  0  0
  159.2270  211.4320  152.5310 O   0  0  0  0  0  0  0  0  0  0  0  0
  160.1920  213.3760  151.6370 N   0  0  0  0  0  2  0  0  0  0  0  0
  159.5700  212.6390  152.6960 C   0  0  0  0  0  0  0  0  0  0  0  0
  159.2230  213.3610  153.9870 C   0  0  0  0  0  2  0  0  0  0  0  0
  158.1200  212.7260  154.6770 N   0  0  0  0  0  2  0  0  0  0  0  0
  158.1250  213.1570  156.0900 C   0  0  1  0  0  3  0  0  0  0  0  0
  156.8110  213.3030  156.6000 O   0  0  0  0  0  1  0  0  0  0  0  0
  160.5600  212.5990  156.7130 C   0  0  0  0  0  2  0  0  0  0  0  0
  159.0680  212.2380  156.9130 C   0  0  2  0  0  3  0  0  0  0  0  0
  159.7590  209.7730  156.9240 C   0  0  0  0  0  2  0  0  0  0  0  0
  161.1560  210.1450  156.4330 C   0  0  2  0  0  3  0  0  0  0  0  0
  158.7380  210.8050  156.4380 C   0  0  0  0  0  2  0  0  0  0  0  0
  161.4920  211.4790  157.1130 C   0  0  0  0  0  2  0  0  0  0  0  0
  161.0230  208.9330  154.5490 C   0  0  0  0  0  1  0  0  0  0  0  0
  161.1740  210.2380  155.0420 O   0  0  0  0  0  0  0  0  0  0  0  0
  161.3800  208.0560  150.7460 C   0  0  0  0  0  0  0  0  0  0  0  0
  161.3720  209.1410  151.3220 O   0  0  0  0  0  0  0  0  0  0  0  0
  160.9150  206.8030  151.4210 C   0  0  0  0  0  2  0  0  0  0  0  0
  161.9490  205.9230  152.0390 C   0  0  0  0  0  0  0  0  0  0  0  0
  163.2140  206.2490  151.9410 C   0  0  0  0  0  2  0  0  0  0  0  0
  161.6090  204.5210  152.0760 N   0  0  0  0  0  2  0  0  0  0  0  0
  160.3800  204.0060  151.6070 N   0  0  0  0  0  2  0  0  0  0  0  0
  161.2190  203.9630  148.6340 C   0  0  0  0  0  2  0  0  0  0  0  0
  162.8420  205.2060  147.2150 C   0  0  0  0  0  1  0  0  0  0  0  0
  162.2960  202.1790  151.0040 S   0  0  0  0  0  0  0  0  0  0  0  0
  160.5690  202.5630  151.3860 C   0  0  2  0  0  3  0  0  0  0  0  0
  160.0000  202.1180  150.0500 C   0  0  1  0  0  0  0  0  0  0  0  0
  162.1830  202.9630  146.6440 O   0  0  0  0  0  0  0  0  0  0  0  0
  161.0360  202.2090  146.2760 C   0  0  0  0  0  2  0  0  0  0  0  0
  159.0160  200.9520  150.0650 C   0  0  0  0  0  1  0  0  0  0  0  0
  160.6100  202.5650  148.7350 C   0  0  1  0  0  0  0  0  0  0  0  0
  160.0800  201.9540  147.4580 C   0  0  0  0  0  2  0  0  0  0  0  0
  161.7110  204.1860  147.2020 C   0  0  1  0  0  3  0  0  0  0  0  0
  161.3610  201.5620  149.5700 C   0  0  1  0  0  3  0  0  0  0  0  0
  1  2  1  0  0  0  0
  2 50  1  1  0  0  0
  3 10  2  0  0  0  0
  5 10  1  0  0  0  0
  5  1  1  0  0  0  0
  6  3  2  0  0  0  0
  6  9  1  0  0  0  0
  7  6  1  0  0  0  0
  7  9  1  0  0  0  0
  8  2  1  0  0  0  0
  9  4  1  1  0  0  0
  9 34  1  0  0  0  0
 10  8  1  0  0  0  0
 11 12  1  1  0  0  0
 11  7  1  0  0  0  0
 13 14  1  6  0  0  0
 13 11  1  0  0  0  0
 14 11  1  0  0  0  0
 17 16  1  6  0  0  0
 17 30  1  0  0  0  0
 17 24  1  0  0  0  0
 18 25  1  0  0  0  0
 19 21  1  0  0  0  0
 19 16  1  0  0  0  0
 20 15  1  1  0  0  0
 20 13  1  0  0  0  0
 22 18  1  6  0  0  0
 22 27  1  0  0  0  0
 24 20  1  0  0  0  0
 24 15  1  6  0  0  0
 25 28  1  0  0  0  0
 26 19  2  0  0  0  0
 27 23  1  6  0  0  0
 27 30  1  0  0  0  0
 28 23  1  0  0  0  0
 29 16  1  0  0  0  0
 29 22  1  0  0  0  0
 30 24  1  0  0  0  0
 31 29  2  0  0  0  0
 32 36  1  0  0  0  0
 33 32  1  0  0  0  0
 34 33  1  0  0  0  0
 34 32  1  0  0  0  0
 35 37  2  0  0  0  0
 36 37  1  0  0  0  0
 37 38  1  0  0  0  0
 38 39  1  0  0  0  0
 39 40  1  0  0  0  0
 40 41  1  0  0  0  0
 40 43  1  0  0  0  0
 42 43  1  0  0  0  0
 42 47  1  0  0  0  0
 45 44  1  0  0  0  0
 45 47  1  0  0  0  0
 46 43  1  0  0  0  0
 46 44  1  0  0  0  0
 48 49  1  0  0  0  0
 49 45  1  0  0  0  0
 50 51  2  0  0  0  0
 50 52  1  0  0  0  0
 52 53  1  0  0  0  0
 53 55  1  0  0  0  0
 54 53  2  0  0  0  0
 56 55  1  0  0  0  0
 57 65  1  0  0  0  0
 59 60  1  0  0  0  0
 60 56  1  0  0  0  0
 61 64  1  0  0  0  0
 61 60  1  0  0  0  0
 62 67  1  0  0  0  0
 63 62  1  0  0  0  0
 63 66  1  0  0  0  0
 65 68  1  0  0  0  0
 65 61  1  0  0  0  0
 66 65  1  0  0  0  0
 67 58  1  0  0  0  0
 67 57  1  0  0  0  0
 68 61  1  0  0  0  0
 68 59  1  0  0  0  0
M  END
>  <MODEL>
2

>  <REMARK>
 VINA RESULT:       0.1      1.141      2.064
  Name = 
  15 active torsions:
  status: ('A' for Active; 'I' for Inactive)
    1  A    between atoms: C_7  and  N_29
    2  A    between atoms: C_8  and  C_12
    3  A    between atoms: C_8  and  N_38
    4  A    between atoms: C_9  and  C_17
    5  A    between atoms: C_16  and  N_39
    6  A    between atoms: C_17  and  C_47
    7  A    between atoms: N_22  and  C_28
    8  A    between atoms: O_23  and  C_57
    9  A    between atoms: C_30  and  N_36
   10  A    between atoms: C_30  and  C_47
   11  A    between atoms: N_31  and  C_35
   12  A    between atoms: N_31  and  N_36
   13  A    between atoms: N_38  and  C_50
   14  A    between atoms: C_43  and  C_64
   15  A    between atoms: C_50  and  C_51
                            x       y       z     vdW  Elec       q    Type
                         _______ _______ _______ _____ _____    ______ ____

>  <TORSDO>
F 15

$$$$
=
 OpenBabel11052411203D

 68 79  0  0  1  0  0  0  0  0999 V2000
  162.8360  206.0440  147.1930 S   0  0  0  0  0  0  0  0  0  0  0  0
  161.1230  206.1040  146.5000 C   0  0  1  0  0  3  0  0  0  0  0  0
  161.1020  208.8920  148.5090 C   0  0  0  0  0  0  0  0  0  0  0  0
  162.5630  212.3570  147.0690 C   0  0  0  0  0  1  0  0  0  0  0  0
  162.1950  206.7900  148.7490 C   0  0  0  0  0  2  0  0  0  0  0  0
  161.2500  210.2160  148.5660 C   0  0  0  0  0  0  0  0  0  0  0  0
  160.7250  211.6240  149.0260 N   0  0  0  0  0  0  0  0  0  0  0  0
  160.3610  207.1080  147.1810 N   0  0  0  0  0  2  0  0  0  0  0  0
  161.4360  211.3900  147.7950 C   0  0  1  0  0  0  0  0  0  0  0  0
  161.0240  207.6070  148.3500 C   0  0  0  0  0  0  0  0  0  0  0  0
  162.2680  211.3180  149.3300 C   0  0  1  0  0  0  0  0  0  0  0  0
  163.8530  211.3450  148.8260 C   0  0  0  0  0  1  0  0  0  0  0  0
  162.3830  211.5080  150.8930 C   0  0  2  0  0  3  0  0  0  0  0  0
  162.3920  210.1230  150.3020 C   0  0  0  0  0  2  0  0  0  0  0  0
  160.4010  210.3420  151.4170 C   0  0  0  0  0  2  0  0  0  0  0  0
  161.7700  210.9230  155.0800 N   0  0  0  0  0  0  0  0  0  0  0  0
  162.0580  210.7630  153.6220 C   0  0  2  0  0  3  0  0  0  0  0  0
  159.6210  208.3090  156.3290 C   0  0  0  0  0  2  0  0  0  0  0  0
  162.8400  211.0200  156.0090 C   0  0  0  0  0  0  0  0  0  0  0  0
  161.0700  211.6320  151.5690 N   0  0  1  0  0  0  0  0  0  0  0  0
  164.1450  211.1850  155.5430 O   0  0  0  0  0  0  0  0  0  0  0  0
  159.8990  209.2270  155.1290 C   0  0  2  0  0  3  0  0  0  0  0  0
  161.8120  207.6700  154.7780 N   0  0  0  0  0  2  0  0  0  0  0  0
  160.7500  210.7790  152.7730 C   0  0  2  0  0  0  0  0  0  0  0  0
  159.7490  206.8380  155.9390 C   0  0  0  0  0  2  0  0  0  0  0  0
  162.6400  211.0870  157.2600 O   0  0  0  0  0  1  0  0  0  0  0  0
  160.8280  208.5320  154.0920 C   0  0  2  0  0  3  0  0  0  0  0  0
  161.1560  206.5160  155.3990 C   0  0  0  0  0  2  0  0  0  0  0  0
  160.4850  210.5070  155.5990 C   0  0  0  0  0  0  0  0  0  0  0  0
  161.5450  209.4830  153.0650 C   0  0  2  0  0  3  0  0  0  0  0  0
  159.8480  211.2790  156.3650 O   0  0  0  0  0  0  0  0  0  0  0  0
  160.3530  212.3980  145.6520 C   0  0  1  0  0  3  0  0  0  0  0  0
  159.4380  212.3020  146.7510 O   0  0  0  0  0  0  0  0  0  0  0  0
  160.3680  211.2430  146.6290 C   0  0  2  0  0  3  0  0  0  0  0  0
  161.2820  212.0280  142.8870 O   0  0  0  0  0  0  0  0  0  0  0  0
  159.5300  212.1710  144.4430 N   0  0  0  0  0  2  0  0  0  0  0  0
  160.1530  212.5090  143.1980 C   0  0  0  0  0  0  0  0  0  0  0  0
  159.4930  213.5440  142.3040 C   0  0  0  0  0  2  0  0  0  0  0  0
  159.8070  213.3260  140.9070 N   0  0  0  0  0  2  0  0  0  0  0  0
  159.0540  212.1510  140.4230 C   0  0  1  0  0  3  0  0  0  0  0  0
  157.6910  212.4570  140.1940 O   0  0  0  0  0  1  0  0  0  0  0  0
  159.2380  210.1100  138.8630 C   0  0  0  0  0  2  0  0  0  0  0  0
  159.8080  211.5030  139.2300 C   0  0  2  0  0  3  0  0  0  0  0  0
  162.1450  210.5690  138.7610 C   0  0  0  0  0  2  0  0  0  0  0  0
  161.5850  209.1510  138.6990 C   0  0  2  0  0  3  0  0  0  0  0  0
  161.2830  211.4360  139.6830 C   0  0  0  0  0  2  0  0  0  0  0  0
  160.2010  209.2800  138.0470 C   0  0  0  0  0  2  0  0  0  0  0  0
  161.9580  207.2680  139.8610 C   0  0  0  0  0  1  0  0  0  0  0  0
  161.5210  208.5960  139.9770 O   0  0  0  0  0  0  0  0  0  0  0  0
  160.9880  206.1930  145.0170 C   0  0  0  0  0  0  0  0  0  0  0  0
  160.8140  207.2780  144.4690 O   0  0  0  0  0  0  0  0  0  0  0  0
  161.4030  204.9790  144.2450 C   0  0  0  0  0  2  0  0  0  0  0  0
  160.6170  203.7270  144.4450 C   0  0  0  0  0  0  0  0  0  0  0  0
  159.3100  203.7680  144.3700 C   0  0  0  0  0  2  0  0  0  0  0  0
  161.2160  202.7710  145.3450 N   0  0  0  0  0  2  0  0  0  0  0  0
  161.2440  202.9350  146.7490 N   0  0  0  0  0  2  0  0  0  0  0  0
  161.1140  203.7250  149.7320 C   0  0  0  0  0  2  0  0  0  0  0  0
  160.3160  205.6950  151.0280 C   0  0  0  0  0  1  0  0  0  0  0  0
  159.0380  202.0420  148.0550 S   0  0  0  0  0  0  0  0  0  0  0  0
  160.6690  201.7170  147.3400 C   0  0  2  0  0  3  0  0  0  0  0  0
  161.3520  201.3470  148.6460 C   0  0  1  0  0  0  0  0  0  0  0  0
  160.3520  203.5050  152.0260 O   0  0  0  0  0  0  0  0  0  0  0  0
  161.2590  202.4740  152.3940 C   0  0  0  0  0  2  0  0  0  0  0  0
  161.8940  199.9260  148.7710 C   0  0  0  0  0  1  0  0  0  0  0  0
  161.2180  202.2100  149.8870 C   0  0  1  0  0  0  0  0  0  0  0  0
  161.8010  201.6900  151.1820 C   0  0  0  0  0  2  0  0  0  0  0  0
  161.0460  204.3620  151.1230 C   0  0  1  0  0  3  0  0  0  0  0  0
  160.0270  201.4030  149.4430 C   0  0  1  0  0  3  0  0  0  0  0  0
  1  5  1  0  0  0  0
  2 50  1  6  0  0  0
  2  8  1  0  0  0  0
  2  1  1  0  0  0  0
  3  6  2  0  0  0  0
  6  7  1  0  0  0  0
  7 11  1  0  0  0  0
  8 10  1  0  0  0  0
  9  4  1  6  0  0  0
  9  6  1  0  0  0  0
  9  7  1  0  0  0  0
 10  3  2  0  0  0  0
 10  5  1  0  0  0  0
 11 12  1  6  0  0  0
 11 14  1  0  0  0  0
 11 13  1  0  0  0  0
 13 14  1  1  0  0  0
 13 20  1  0  0  0  0
 16 29  1  0  0  0  0
 16 19  1  0  0  0  0
 17 16  1  1  0  0  0
 19 26  1  0  0  0  0
 20 15  1  6  0  0  0
 20 24  1  0  0  0  0
 21 19  2  0  0  0  0
 22 29  1  0  0  0  0
 22 18  1  1  0  0  0
 23 28  1  0  0  0  0
 24 15  1  1  0  0  0
 24 30  1  0  0  0  0
 24 17  1  0  0  0  0
 25 18  1  0  0  0  0
 27 23  1  1  0  0  0
 27 22  1  0  0  0  0
 28 25  1  0  0  0  0
 29 31  2  0  0  0  0
 30 17  1  0  0  0  0
 30 27  1  0  0  0  0
 32 34  1  0  0  0  0
 32 33  1  0  0  0  0
 34 33  1  0  0  0  0
 34  9  1  0  0  0  0
 35 37  2  0  0  0  0
 36 32  1  0  0  0  0
 37 36  1  0  0  0  0
 38 37  1  0  0  0  0
 39 38  1  0  0  0  0
 40 39  1  0  0  0  0
 41 40  1  0  0  0  0
 42 43  1  0  0  0  0
 43 46  1  0  0  0  0
 43 40  1  0  0  0  0
 44 46  1  0  0  0  0
 45 44  1  0  0  0  0
 45 49  1  0  0  0  0
 47 45  1  0  0  0  0
 47 42  1  0  0  0  0
 48 49  1  0  0  0  0
 51 50  2  0  0  0  0
 52 53  1  0  0  0  0
 52 50  1  0  0  0  0
 53 55  1  0  0  0  0
 54 53  2  0  0  0  0
 55 56  1  0  0  0  0
 56 60  1  0  0  0  0
 57 65  1  0  0  0  0
 57 67  1  0  0  0  0
 58 67  1  0  0  0  0
 59 68  1  0  0  0  0
 60 59  1  0  0  0  0
 60 61  1  0  0  0  0
 61 64  1  0  0  0  0
 61 68  1  0  0  0  0
 61 65  1  0  0  0  0
 62 63  1  0  0  0  0
 65 66  1  0  0  0  0
 66 63  1  0  0  0  0
 67 62  1  0  0  0  0
 68 65  1  0  0  0  0
M  END
>  <MODEL>
3

>  <REMARK>
 VINA RESULT:       2.5      2.861     10.940
  Name = 
  15 active torsions:
  status: ('A' for Active; 'I' for Inactive)
    1  A    between atoms: C_7  and  N_29
    2  A    between atoms: C_8  and  C_12
    3  A    between atoms: C_8  and  N_38
    4  A    between atoms: C_9  and  C_17
    5  A    between atoms: C_16  and  N_39
    6  A    between atoms: C_17  and  C_47
    7  A    between atoms: N_22  and  C_28
    8  A    between atoms: O_23  and  C_57
    9  A    between atoms: C_30  and  N_36
   10  A    between atoms: C_30  and  C_47
   11  A    between atoms: N_31  and  C_35
   12  A    between atoms: N_31  and  N_36
   13  A    between atoms: N_38  and  C_50
   14  A    between atoms: C_43  and  C_64
   15  A    between atoms: C_50  and  C_51
                            x       y       z     vdW  Elec       q    Type
                         _______ _______ _______ _____ _____    ______ ____

>  <TORSDO>
F 15

$$$$
