=
 OpenBabel11042420423D

 65 68  0  0  1  0  0  0  0  0999 V2000
  160.6500  205.4810  146.0150 C   0  0  1  0  0  3  0  0  0  0  0  0
  163.1590  206.2030  141.0440 N   0  0  0  0  0  0  0  0  0  0  0  0
  162.7590  205.0960  144.5460 C   0  0  0  0  0  0  0  0  0  0  0  0
  163.5510  204.5640  145.7430 C   0  0  0  0  0  1  0  0  0  0  0  0
  162.7350  205.8680  142.2720 C   0  0  0  0  0  0  0  0  0  0  0  0
  160.7920  206.1610  143.5800 C   0  0  0  0  0  3  0  0  0  0  0  0
  163.4280  205.2380  143.3200 C   0  0  0  0  0  3  0  0  0  0  0  0
  161.4990  206.2580  142.4270 C   0  0  0  0  0  0  0  0  0  0  0  0
  161.3810  205.5180  144.6740 C   0  0  0  0  0  0  0  0  0  0  0  0
  162.0770  206.8360  140.5150 C   0  0  0  0  0  0  0  0  0  0  0  0
  161.0190  206.9580  141.4160 N   0  0  0  0  0  2  0  0  0  0  0  0
  162.0890  207.5790  139.2160 C   0  0  0  0  0  2  0  0  0  0  0  0
  162.0900  209.1130  139.2790 C   0  0  0  0  0  2  0  0  0  0  0  0
  161.4380  210.0010  138.1070 C   0  0  0  0  0  2  0  0  0  0  0  0
  158.8160  211.0160  137.0880 O   0  0  0  0  0  0  0  0  0  0  0  0
  159.5200  209.6960  137.9550 P   0  0  0  0  0  0  0  0  0  0  0  0
  158.9230  209.6950  139.3740 O   0  0  0  0  0  1  0  0  0  0  0  0
  159.1830  208.1980  137.1230 O   0  0  0  0  0  1  0  0  0  0  0  0
  160.4440  202.4580  145.4150 O   0  0  0  0  0  0  0  0  0  0  0  0
  160.7880  202.8500  146.5670 C   0  0  0  0  0  0  0  0  0  0  0  0
  160.9020  204.2450  146.8980 N   0  0  0  0  0  2  0  0  0  0  0  0
  161.1760  201.8810  147.7040 C   0  0  2  0  0  3  0  0  0  0  0  0
  161.7820  200.6980  147.2990 O   0  0  0  0  0  0  0  0  0  0  0  0
  161.0230  200.3490  146.2690 O   0  0  0  0  0  1  0  0  0  0  0  0
  160.3250  201.9490  149.0210 C   0  0  0  0  0  2  0  0  0  0  0  0
  161.1810  202.2600  150.2690 C   0  0  2  0  0  3  0  0  0  0  0  0
  161.1370  200.9490  151.0350 C   0  0  0  0  0  1  0  0  0  0  0  0
  160.6630  203.4820  151.1130 C   0  0  0  0  0  2  0  0  0  0  0  0
  161.5140  203.8320  152.3990 C   0  0  0  0  0  2  0  0  0  0  0  0
  160.9000  205.0100  153.1070 N   0  0  0  0  0  2  0  0  0  0  0  0
  161.6360  206.2520  153.2430 C   0  0  1  0  0  3  0  0  0  0  0  0
  163.1210  206.6930  151.4460 O   0  0  0  0  0  0  0  0  0  0  0  0
  161.9820  206.7680  151.9190 C   0  0  0  0  0  0  0  0  0  0  0  0
  160.8110  207.1440  151.0600 C   0  0  0  0  0  2  0  0  0  0  0  0
  160.1960  206.0580  150.3320 N   0  0  0  0  0  1  0  0  0  0  0  0
  161.0970  208.6470  153.8330 N   0  0  0  0  0  1  0  0  0  0  0  0
  160.7240  207.2580  153.9940 C   0  0  2  0  0  3  0  0  0  0  0  0
  160.7430  207.0800  155.5290 C   0  0  0  0  0  2  0  0  0  0  0  0
  159.7520  207.8350  156.1600 O   0  0  0  0  0  1  0  0  0  0  0  0
  160.4870  206.8150  146.8750 C   0  0  0  0  0  2  0  0  0  0  0  0
  161.8210  207.3010  147.4830 C   0  0  0  0  0  2  0  0  0  0  0  0
  161.4860  208.2560  148.4530 N   0  0  0  0  0  2  0  0  0  0  0  0
  161.5670  209.5380  147.9830 C   0  0  0  0  0  2  0  0  0  0  0  0
  161.6740  213.1870  148.0690 C   0  0  0  0  0  0  0  0  0  0  0  0
  161.1840  211.9770  150.9570 C   0  0  0  0  0  3  0  0  0  0  0  0
  160.7830  213.1890  150.5790 C   0  0  0  0  0  0  0  0  0  0  0  0
  161.2970  210.7140  150.1150 C   0  0  0  0  0  3  0  0  0  0  0  0
  161.0080  213.9530  149.2450 C   0  0  0  0  0  2  0  0  0  0  0  0
  161.7090  211.8840  147.8630 C   0  0  0  0  0  3  0  0  0  0  0  0
  161.2980  210.6760  148.7580 C   0  0  0  0  0  0  0  0  0  0  0  0
  160.0710  214.0190  151.7240 C   0  0  2  0  0  3  0  0  0  0  0  0
  159.9510  213.0700  152.8170 O   0  0  0  0  0  0  0  0  0  0  0  0
  158.6400  214.4530  151.2800 C   0  0  0  0  0  2  0  0  0  0  0  0
  158.7470  213.3920  153.4200 C   0  0  2  0  0  3  0  0  0  0  0  0
  157.8870  214.3850  152.5860 C   0  0  0  0  0  2  0  0  0  0  0  0
  158.9590  213.7780  154.8630 C   0  0  0  0  0  2  0  0  0  0  0  0
  160.0580  212.8110  156.4660 C   0  0  0  0  0  1  0  0  0  0  0  0
  158.9120  212.6640  155.6830 O   0  0  0  0  0  0  0  0  0  0  0  0
  162.3570  213.9870  147.0080 C   0  0  0  0  0  2  0  0  0  0  0  0
  161.7840  214.2010  145.6580 C   0  0  1  0  0  3  0  0  0  0  0  0
  162.7340  213.9680  144.6850 O   0  0  0  0  0  1  0  0  0  0  0  0
  159.4220  214.3090  145.7600 O   0  0  0  0  0  0  0  0  0  0  0  0
  160.4370  213.6530  145.3900 C   0  0  0  0  0  0  0  0  0  0  0  0
  160.2650  212.4090  144.8560 O   0  0  0  0  0  0  0  0  0  0  0  0
  160.2200  212.1300  143.4600 C   0  0  0  0  0  1  0  0  0  0  0  0
  1 40  1  1  0  0  0
  1 21  1  0  0  0  0
  2  5  1  0  0  0  0
  3  9  1  0  0  0  0
  3  4  1  0  0  0  0
  5  8  2  0  0  0  0
  5  7  1  0  0  0  0
  6  9  2  0  0  0  0
  7  3  2  0  0  0  0
  8  6  1  0  0  0  0
  9  1  1  0  0  0  0
 10  2  2  0  0  0  0
 10 11  1  0  0  0  0
 11  8  1  0  0  0  0
 12 13  1  0  0  0  0
 12 10  1  0  0  0  0
 14 13  1  0  0  0  0
 15 16  2  0  0  0  0
 16 14  1  0  0  0  0
 16 17  1  0  0  0  0
 18 16  1  0  0  0  0
 19 20  2  0  0  0  0
 20 21  1  0  0  0  0
 20 22  1  0  0  0  0
 22 25  1  6  0  0  0
 23 22  1  0  0  0  0
 24 23  1  0  0  0  0
 25 26  1  0  0  0  0
 26 27  1  1  0  0  0
 26 28  1  0  0  0  0
 28 29  1  0  0  0  0
 29 30  1  0  0  0  0
 30 31  1  0  0  0  0
 31 33  1  6  0  0  0
 31 37  1  0  0  0  0
 32 33  2  0  0  0  0
 34 33  1  0  0  0  0
 35 34  1  0  0  0  0
 37 36  1  1  0  0  0
 37 38  1  0  0  0  0
 38 39  1  0  0  0  0
 40 41  1  0  0  0  0
 41 42  1  0  0  0  0
 43 42  1  0  0  0  0
 43 50  1  0  0  0  0
 44 48  1  0  0  0  0
 46 45  2  0  0  0  0
 47 45  1  0  0  0  0
 48 46  1  0  0  0  0
 49 44  2  0  0  0  0
 49 50  1  0  0  0  0
 50 47  2  0  0  0  0
 51 46  1  6  0  0  0
 51 52  1  0  0  0  0
 52 54  1  0  0  0  0
 53 51  1  0  0  0  0
 53 55  1  0  0  0  0
 54 56  1  1  0  0  0
 55 54  1  0  0  0  0
 56 58  1  0  0  0  0
 58 57  1  0  0  0  0
 59 44  1  0  0  0  0
 60 61  1  6  0  0  0
 60 59  1  0  0  0  0
 63 60  1  0  0  0  0
 63 62  2  0  0  0  0
 64 63  1  0  0  0  0
 65 64  1  0  0  0  0
M  END
>  <MODEL>
1

>  <REMARK>
 VINA RESULT:       1.0      0.000      0.000
  Name = 
  29 active torsions:
  status: ('A' for Active; 'I' for Inactive)
    1  A    between atoms: O_2  and  C_61
    2  A    between atoms: O_3  and  C_28
    3  A    between atoms: C_4  and  C_14
    4  A    between atoms: C_4  and  C_46
    5  A    between atoms: C_5  and  N_38
    6  A    between atoms: C_5  and  C_57
    7  A    between atoms: C_7  and  CA_16
    8  A    between atoms: C_7  and  N_38
    9  A    between atoms: C_7  and  C_62
   10  A    between atoms: C_10  and  C_42
   11  A    between atoms: C_10  and  C_44
   12  A    between atoms: C_10  and  N_58
   13  A    between atoms: C_11  and  C_30
   14  A    between atoms: CA_16  and  C_17
   15  A    between atoms: P_19  and  C_50
   16  A    between atoms: O_22  and  C_59
   17  A    between atoms: C_25  and  C_33
   18  A    between atoms: C_25  and  C_49
   19  A    between atoms: C_28  and  C_40
   20  A    between atoms: C_28  and  C_43
   21  A    between atoms: C_33  and  C_50
   22  A    between atoms: C_34  and  C_59
   23  A    between atoms: C_39  and  C_62
   24  A    between atoms: C_40  and  C_52
   25  A    between atoms: C_41  and  C_44
   26  A    between atoms: C_41  and  N_51
   27  A    between atoms: C_46  and  C_61
   28  A    between atoms: C_52  and  C_57
   29  A    between atoms: C_63  and  C_65
                            x       y       z     vdW  Elec       q    Type
                         _______ _______ _______ _____ _____    ______ ____

>  <TORSDO>
F 29

$$$$
=
 OpenBabel11042420423D

 65 68  0  0  1  0  0  0  0  0999 V2000
  160.6270  205.4120  145.0930 C   0  0  1  0  0  3  0  0  0  0  0  0
  163.0390  206.9480  140.2610 N   0  0  0  0  0  0  0  0  0  0  0  0
  162.6480  205.1720  143.4760 C   0  0  0  0  0  0  0  0  0  0  0  0
  163.4250  204.3400  144.4990 C   0  0  0  0  0  1  0  0  0  0  0  0
  162.6250  206.4000  141.4130 C   0  0  0  0  0  0  0  0  0  0  0  0
  160.7560  206.5700  142.8450 C   0  0  0  0  0  3  0  0  0  0  0  0
  163.2890  205.5110  142.2750 C   0  0  0  0  0  3  0  0  0  0  0  0
  161.4330  206.8490  141.7030 C   0  0  0  0  0  0  0  0  0  0  0  0
  161.3170  205.6680  143.7540 C   0  0  0  0  0  0  0  0  0  0  0  0
  162.0030  207.7620  139.9250 C   0  0  0  0  0  0  0  0  0  0  0  0
  160.9880  207.7800  140.8810 N   0  0  0  0  0  2  0  0  0  0  0  0
  162.0420  208.7560  138.8060 C   0  0  0  0  0  2  0  0  0  0  0  0
  162.2760  210.2270  139.1760 C   0  0  0  0  0  2  0  0  0  0  0  0
  161.4670  211.4140  138.4520 C   0  0  0  0  0  2  0  0  0  0  0  0
  160.1260  212.2460  140.9930 O   0  0  0  0  0  1  0  0  0  0  0  0
  159.7850  211.7960  139.3590 P   0  0  0  0  0  0  0  0  0  0  0  0
  158.9570  210.4980  139.3930 O   0  0  0  0  0  1  0  0  0  0  0  0
  158.9160  213.0840  138.5620 O   0  0  0  0  0  0  0  0  0  0  0  0
  159.3090  202.8080  144.0840 O   0  0  0  0  0  0  0  0  0  0  0  0
  160.0410  202.7860  145.1160 C   0  0  0  0  0  0  0  0  0  0  0  0
  160.6800  203.9690  145.6250 N   0  0  0  0  0  2  0  0  0  0  0  0
  160.3680  201.4890  145.8870 C   0  0  2  0  0  3  0  0  0  0  0  0
  160.5170  200.3510  145.1040 O   0  0  0  0  0  0  0  0  0  0  0  0
  161.1210  199.5250  145.9470 O   0  0  0  0  0  1  0  0  0  0  0  0
  159.8660  201.3950  147.3710 C   0  0  0  0  0  2  0  0  0  0  0  0
  160.8800  201.9730  148.3820 C   0  0  2  0  0  3  0  0  0  0  0  0
  161.5050  200.7220  148.9750 C   0  0  0  0  0  1  0  0  0  0  0  0
  160.2390  202.9120  149.4680 C   0  0  0  0  0  2  0  0  0  0  0  0
  160.3810  204.4640  149.1990 C   0  0  0  0  0  2  0  0  0  0  0  0
  161.2710  205.0800  150.2450 N   0  0  0  0  0  2  0  0  0  0  0  0
  160.8420  205.1460  151.6300 C   0  0  1  0  0  3  0  0  0  0  0  0
  160.2660  203.3230  153.0350 O   0  0  0  0  0  0  0  0  0  0  0  0
  161.0870  203.8600  152.2840 C   0  0  0  0  0  0  0  0  0  0  0  0
  162.2760  203.1050  151.7690 C   0  0  0  0  0  2  0  0  0  0  0  0
  162.2920  201.6900  152.0650 N   0  0  0  0  0  1  0  0  0  0  0  0
  162.8250  205.8090  153.0440 N   0  0  0  0  0  1  0  0  0  0  0  0
  161.6590  206.2690  152.3210 C   0  0  2  0  0  3  0  0  0  0  0  0
  160.8660  207.0270  153.4090 C   0  0  0  0  0  2  0  0  0  0  0  0
  160.4750  206.1920  154.4570 O   0  0  0  0  0  1  0  0  0  0  0  0
  160.7250  206.4920  146.2630 C   0  0  0  0  0  2  0  0  0  0  0  0
  162.1340  206.5670  146.8910 C   0  0  0  0  0  2  0  0  0  0  0  0
  161.9710  207.1520  148.1550 N   0  0  0  0  0  2  0  0  0  0  0  0
  161.7670  208.5020  148.0900 C   0  0  0  0  0  2  0  0  0  0  0  0
  161.5020  211.9530  149.2540 C   0  0  0  0  0  0  0  0  0  0  0  0
  161.9210  209.9470  151.6720 C   0  0  0  0  0  3  0  0  0  0  0  0
  161.3080  211.1230  151.7780 C   0  0  0  0  0  0  0  0  0  0  0  0
  161.9430  208.9970  150.4820 C   0  0  0  0  0  3  0  0  0  0  0  0
  161.0910  212.2450  150.7240 C   0  0  0  0  0  2  0  0  0  0  0  0
  161.6210  210.7810  148.6600 C   0  0  0  0  0  3  0  0  0  0  0  0
  161.5910  209.3240  149.2130 C   0  0  0  0  0  0  0  0  0  0  0  0
  160.8370  211.4750  153.2480 C   0  0  2  0  0  3  0  0  0  0  0  0
  161.5040  210.4830  154.0720 O   0  0  0  0  0  0  0  0  0  0  0  0
  159.2950  211.2890  153.3920 C   0  0  0  0  0  2  0  0  0  0  0  0
  160.5970  210.2100  155.0830 C   0  0  2  0  0  3  0  0  0  0  0  0
  159.1820  210.8020  154.8160 C   0  0  0  0  0  2  0  0  0  0  0  0
  161.1870  210.5340  156.4330 C   0  0  0  0  0  2  0  0  0  0  0  0
  160.8260  212.5730  157.0830 C   0  0  0  0  0  1  0  0  0  0  0  0
  160.3030  211.2840  157.1890 O   0  0  0  0  0  0  0  0  0  0  0  0
  161.7930  213.1170  148.3640 C   0  0  0  0  0  2  0  0  0  0  0  0
  161.0240  213.4080  147.1310 C   0  0  1  0  0  3  0  0  0  0  0  0
  161.5020  212.6630  146.0730 O   0  0  0  0  0  1  0  0  0  0  0  0
  159.0330  213.6640  148.3860 O   0  0  0  0  0  0  0  0  0  0  0  0
  159.5510  213.4950  147.2460 C   0  0  0  0  0  0  0  0  0  0  0  0
  158.7370  213.2840  146.1720 O   0  0  0  0  0  0  0  0  0  0  0  0
  157.3140  213.2850  146.2280 C   0  0  0  0  0  1  0  0  0  0  0  0
  1 21  1  0  0  0  0
  1 40  1  1  0  0  0
  2  5  1  0  0  0  0
  3  9  1  0  0  0  0
  3  4  1  0  0  0  0
  5  8  2  0  0  0  0
  5  7  1  0  0  0  0
  6  9  2  0  0  0  0
  7  3  2  0  0  0  0
  8  6  1  0  0  0  0
  9  1  1  0  0  0  0
 10  2  2  0  0  0  0
 10 11  1  0  0  0  0
 11  8  1  0  0  0  0
 12 13  1  0  0  0  0
 12 10  1  0  0  0  0
 14 13  1  0  0  0  0
 14 16  1  0  0  0  0
 16 17  1  0  0  0  0
 16 15  1  0  0  0  0
 18 16  2  0  0  0  0
 19 20  2  0  0  0  0
 20 21  1  0  0  0  0
 20 22  1  0  0  0  0
 22 25  1  1  0  0  0
 23 22  1  0  0  0  0
 23 24  1  0  0  0  0
 25 26  1  0  0  0  0
 26 27  1  1  0  0  0
 26 28  1  0  0  0  0
 29 28  1  0  0  0  0
 29 30  1  0  0  0  0
 31 30  1  6  0  0  0
 31 33  1  0  0  0  0
 31 37  1  0  0  0  0
 33 32  2  0  0  0  0
 34 35  1  0  0  0  0
 34 33  1  0  0  0  0
 37 36  1  1  0  0  0
 37 38  1  0  0  0  0
 38 39  1  0  0  0  0
 40 41  1  0  0  0  0
 41 42  1  0  0  0  0
 43 42  1  0  0  0  0
 43 50  1  0  0  0  0
 44 48  1  0  0  0  0
 45 46  2  0  0  0  0
 47 45  1  0  0  0  0
 48 46  1  0  0  0  0
 49 50  1  0  0  0  0
 49 44  2  0  0  0  0
 50 47  2  0  0  0  0
 51 46  1  6  0  0  0
 51 53  1  0  0  0  0
 51 52  1  0  0  0  0
 52 54  1  0  0  0  0
 53 55  1  0  0  0  0
 54 56  1  1  0  0  0
 55 54  1  0  0  0  0
 56 58  1  0  0  0  0
 57 58  1  0  0  0  0
 59 44  1  0  0  0  0
 60 61  1  6  0  0  0
 60 63  1  0  0  0  0
 60 59  1  0  0  0  0
 63 62  2  0  0  0  0
 64 65  1  0  0  0  0
 64 63  1  0  0  0  0
M  END
>  <MODEL>
2

>  <REMARK>
 VINA RESULT:       1.7      1.811      2.489
  Name = 
  29 active torsions:
  status: ('A' for Active; 'I' for Inactive)
    1  A    between atoms: O_2  and  C_61
    2  A    between atoms: O_3  and  C_28
    3  A    between atoms: C_4  and  C_14
    4  A    between atoms: C_4  and  C_46
    5  A    between atoms: C_5  and  N_38
    6  A    between atoms: C_5  and  C_57
    7  A    between atoms: C_7  and  CA_16
    8  A    between atoms: C_7  and  N_38
    9  A    between atoms: C_7  and  C_62
   10  A    between atoms: C_10  and  C_42
   11  A    between atoms: C_10  and  C_44
   12  A    between atoms: C_10  and  N_58
   13  A    between atoms: C_11  and  C_30
   14  A    between atoms: CA_16  and  C_17
   15  A    between atoms: P_19  and  C_50
   16  A    between atoms: O_22  and  C_59
   17  A    between atoms: C_25  and  C_33
   18  A    between atoms: C_25  and  C_49
   19  A    between atoms: C_28  and  C_40
   20  A    between atoms: C_28  and  C_43
   21  A    between atoms: C_33  and  C_50
   22  A    between atoms: C_34  and  C_59
   23  A    between atoms: C_39  and  C_62
   24  A    between atoms: C_40  and  C_52
   25  A    between atoms: C_41  and  C_44
   26  A    between atoms: C_41  and  N_51
   27  A    between atoms: C_46  and  C_61
   28  A    between atoms: C_52  and  C_57
   29  A    between atoms: C_63  and  C_65
                            x       y       z     vdW  Elec       q    Type
                         _______ _______ _______ _____ _____    ______ ____

>  <TORSDO>
F 29

$$$$
=
 OpenBabel11042420423D

 65 68  0  0  1  0  0  0  0  0999 V2000
  161.7540  206.2130  151.1020 C   0  0  1  0  0  3  0  0  0  0  0  0
  160.1040  208.2930  156.0500 N   0  0  0  0  0  0  0  0  0  0  0  0
  160.7130  205.7510  153.4380 C   0  0  0  0  0  0  0  0  0  0  0  0
  160.3700  204.3120  153.0500 C   0  0  0  0  0  1  0  0  0  0  0  0
  160.4810  207.5800  154.9780 C   0  0  0  0  0  0  0  0  0  0  0  0
  161.4890  207.9930  152.8830 C   0  0  0  0  0  3  0  0  0  0  0  0
  160.2960  206.2160  154.6950 C   0  0  0  0  0  3  0  0  0  0  0  0
  161.0660  208.3680  154.1170 C   0  0  0  0  0  0  0  0  0  0  0  0
  161.3800  206.6480  152.5180 C   0  0  0  0  0  0  0  0  0  0  0  0
  160.4970  209.5540  155.7270 C   0  0  0  0  0  0  0  0  0  0  0  0
  161.0480  209.6450  154.4490 N   0  0  0  0  0  2  0  0  0  0  0  0
  160.1380  210.7750  156.5140 C   0  0  0  0  0  2  0  0  0  0  0  0
  158.6590  211.1860  156.5440 C   0  0  0  0  0  2  0  0  0  0  0  0
  158.1490  212.5410  155.8430 C   0  0  0  0  0  2  0  0  0  0  0  0
  155.6250  213.2910  157.2610 O   0  0  0  0  0  1  0  0  0  0  0  0
  156.2040  212.6270  155.7740 P   0  0  0  0  0  0  0  0  0  0  0  0
  155.6660  211.1880  155.6610 O   0  0  0  0  0  1  0  0  0  0  0  0
  155.6620  213.6130  154.4380 O   0  0  0  0  0  0  0  0  0  0  0  0
  162.7250  203.3440  151.7030 O   0  0  0  0  0  0  0  0  0  0  0  0
  161.7210  203.5260  150.9550 C   0  0  0  0  0  0  0  0  0  0  0  0
  161.2270  204.8410  150.6460 N   0  0  0  0  0  2  0  0  0  0  0  0
  160.8980  202.3670  150.3550 C   0  0  2  0  0  3  0  0  0  0  0  0
  159.5940  202.2570  150.8200 O   0  0  0  0  0  0  0  0  0  0  0  0
  158.9220  202.9200  149.8890 O   0  0  0  0  0  1  0  0  0  0  0  0
  161.6950  201.1060  149.8630 C   0  0  0  0  0  2  0  0  0  0  0  0
  161.1140  200.5020  148.5660 C   0  0  2  0  0  3  0  0  0  0  0  0
  162.3630  200.1130  147.7950 C   0  0  0  0  0  1  0  0  0  0  0  0
  160.1790  201.4810  147.7650 C   0  0  0  0  0  2  0  0  0  0  0  0
  160.2520  201.3590  146.1910 C   0  0  0  0  0  2  0  0  0  0  0  0
  160.0290  202.7100  145.5670 N   0  0  0  0  0  2  0  0  0  0  0  0
  161.1500  203.4830  145.0650 C   0  0  1  0  0  3  0  0  0  0  0  0
  159.4870  205.1020  144.5750 O   0  0  0  0  0  0  0  0  0  0  0  0
  160.6680  204.7450  144.5050 C   0  0  0  0  0  0  0  0  0  0  0  0
  161.7420  205.7030  144.0850 C   0  0  0  0  0  2  0  0  0  0  0  0
  162.0070  205.7620  142.6660 N   0  0  0  0  0  1  0  0  0  0  0  0
  161.4850  204.3940  147.3960 N   0  0  0  0  0  1  0  0  0  0  0  0
  162.1060  203.7510  146.2580 C   0  0  2  0  0  3  0  0  0  0  0  0
  163.2630  204.7170  145.9150 C   0  0  0  0  0  2  0  0  0  0  0  0
  163.7910  205.3330  147.0520 O   0  0  0  0  0  1  0  0  0  0  0  0
  161.7690  207.2800  149.9160 C   0  0  0  0  0  2  0  0  0  0  0  0
  163.1980  207.7300  149.5360 C   0  0  0  0  0  2  0  0  0  0  0  0
  163.0490  208.8080  148.6520 N   0  0  0  0  0  2  0  0  0  0  0  0
  161.9220  209.5420  148.8980 C   0  0  0  0  0  2  0  0  0  0  0  0
  160.8900  213.0400  149.0660 C   0  0  0  0  0  0  0  0  0  0  0  0
  160.3530  211.8140  146.1930 C   0  0  0  0  0  3  0  0  0  0  0  0
  160.5650  213.1080  146.4230 C   0  0  0  0  0  0  0  0  0  0  0  0
  160.9350  210.6160  146.9310 C   0  0  0  0  0  3  0  0  0  0  0  0
  160.7640  213.8740  147.7610 C   0  0  0  0  0  3  0  0  0  0  0  0
  161.2720  211.7840  149.1960 C   0  0  0  0  0  2  0  0  0  0  0  0
  161.5350  210.6610  148.1470 C   0  0  0  0  0  0  0  0  0  0  0  0
  160.4770  214.0160  145.1290 C   0  0  2  0  0  3  0  0  0  0  0  0
  159.8850  213.1420  144.1320 O   0  0  0  0  0  0  0  0  0  0  0  0
  161.9030  214.4290  144.6490 C   0  0  0  0  0  2  0  0  0  0  0  0
  160.4970  213.5110  142.9460 C   0  0  2  0  0  3  0  0  0  0  0  0
  161.7200  214.4520  143.1510 C   0  0  0  0  0  2  0  0  0  0  0  0
  159.4760  213.9900  141.9440 C   0  0  0  0  0  2  0  0  0  0  0  0
  159.5520  212.0290  141.0160 C   0  0  0  0  0  1  0  0  0  0  0  0
  158.6510  212.9520  141.5470 O   0  0  0  0  0  0  0  0  0  0  0  0
  160.5640  213.7120  150.3610 C   0  0  0  0  0  2  0  0  0  0  0  0
  159.3970  213.3410  151.1960 C   0  0  1  0  0  3  0  0  0  0  0  0
  159.7580  213.2610  152.5250 O   0  0  0  0  0  1  0  0  0  0  0  0
  157.2450  214.0950  151.8320 O   0  0  0  0  0  0  0  0  0  0  0  0
  158.1110  214.0150  150.9150 C   0  0  0  0  0  0  0  0  0  0  0  0
  157.7920  214.4510  149.6610 O   0  0  0  0  0  0  0  0  0  0  0  0
  157.1590  213.6500  148.6680 C   0  0  0  0  0  1  0  0  0  0  0  0
  1 40  1  6  0  0  0
  1  9  1  0  0  0  0
  3  7  1  0  0  0  0
  4  3  1  0  0  0  0
  5  2  1  0  0  0  0
  6  8  2  0  0  0  0
  7  5  2  0  0  0  0
  8 11  1  0  0  0  0
  8  5  1  0  0  0  0
  9  6  1  0  0  0  0
  9  3  2  0  0  0  0
 10  2  2  0  0  0  0
 10 12  1  0  0  0  0
 11 10  1  0  0  0  0
 12 13  1  0  0  0  0
 14 13  1  0  0  0  0
 16 14  1  0  0  0  0
 16 15  1  0  0  0  0
 17 16  1  0  0  0  0
 18 16  2  0  0  0  0
 20 19  2  0  0  0  0
 21 20  1  0  0  0  0
 21  1  1  0  0  0  0
 22 25  1  1  0  0  0
 22 23  1  0  0  0  0
 22 20  1  0  0  0  0
 24 23  1  0  0  0  0
 26 27  1  6  0  0  0
 26 25  1  0  0  0  0
 28 26  1  0  0  0  0
 29 28  1  0  0  0  0
 30 29  1  0  0  0  0
 31 33  1  1  0  0  0
 31 30  1  0  0  0  0
 31 37  1  0  0  0  0
 33 32  2  0  0  0  0
 34 33  1  0  0  0  0
 35 34  1  0  0  0  0
 37 36  1  1  0  0  0
 38 37  1  0  0  0  0
 38 39  1  0  0  0  0
 41 40  1  0  0  0  0
 42 43  1  0  0  0  0
 42 41  1  0  0  0  0
 44 49  1  0  0  0  0
 44 59  1  0  0  0  0
 45 46  2  0  0  0  0
 45 47  1  0  0  0  0
 46 48  1  0  0  0  0
 47 50  2  0  0  0  0
 48 44  2  0  0  0  0
 50 43  1  0  0  0  0
 50 49  1  0  0  0  0
 51 46  1  1  0  0  0
 52 51  1  0  0  0  0
 53 51  1  0  0  0  0
 54 56  1  6  0  0  0
 54 55  1  0  0  0  0
 54 52  1  0  0  0  0
 55 53  1  0  0  0  0
 57 58  1  0  0  0  0
 58 56  1  0  0  0  0
 59 60  1  0  0  0  0
 60 61  1  1  0  0  0
 63 60  1  0  0  0  0
 63 62  2  0  0  0  0
 64 63  1  0  0  0  0
 65 64  1  0  0  0  0
M  END
>  <MODEL>
3

>  <REMARK>
 VINA RESULT:       2.1      3.322      9.653
  Name = 
  29 active torsions:
  status: ('A' for Active; 'I' for Inactive)
    1  A    between atoms: O_2  and  C_61
    2  A    between atoms: O_3  and  C_28
    3  A    between atoms: C_4  and  C_14
    4  A    between atoms: C_4  and  C_46
    5  A    between atoms: C_5  and  N_38
    6  A    between atoms: C_5  and  C_57
    7  A    between atoms: C_7  and  CA_16
    8  A    between atoms: C_7  and  N_38
    9  A    between atoms: C_7  and  C_62
   10  A    between atoms: C_10  and  C_42
   11  A    between atoms: C_10  and  C_44
   12  A    between atoms: C_10  and  N_58
   13  A    between atoms: C_11  and  C_30
   14  A    between atoms: CA_16  and  C_17
   15  A    between atoms: P_19  and  C_50
   16  A    between atoms: O_22  and  C_59
   17  A    between atoms: C_25  and  C_33
   18  A    between atoms: C_25  and  C_49
   19  A    between atoms: C_28  and  C_40
   20  A    between atoms: C_28  and  C_43
   21  A    between atoms: C_33  and  C_50
   22  A    between atoms: C_34  and  C_59
   23  A    between atoms: C_39  and  C_62
   24  A    between atoms: C_40  and  C_52
   25  A    between atoms: C_41  and  C_44
   26  A    between atoms: C_41  and  N_51
   27  A    between atoms: C_46  and  C_61
   28  A    between atoms: C_52  and  C_57
   29  A    between atoms: C_63  and  C_65
                            x       y       z     vdW  Elec       q    Type
                         _______ _______ _______ _____ _____    ______ ____

>  <TORSDO>
F 29

$$$$
=
 OpenBabel11042420423D

 65 68  0  0  1  0  0  0  0  0999 V2000
  160.6770  205.7080  146.2130 C   0  0  1  0  0  3  0  0  0  0  0  0
  163.1220  205.8690  141.1610 N   0  0  0  0  0  0  0  0  0  0  0  0
  162.7500  205.1210  144.7600 C   0  0  0  0  0  0  0  0  0  0  0  0
  163.5460  204.6860  145.9920 C   0  0  0  0  0  1  0  0  0  0  0  0
  162.7090  205.6680  142.4210 C   0  0  0  0  0  0  0  0  0  0  0  0
  160.7970  206.1420  143.7210 C   0  0  0  0  0  3  0  0  0  0  0  0
  163.4020  205.1230  143.5170 C   0  0  0  0  0  3  0  0  0  0  0  0
  161.4870  206.1060  142.5540 C   0  0  0  0  0  0  0  0  0  0  0  0
  161.3860  205.5920  144.8650 C   0  0  0  0  0  0  0  0  0  0  0  0
  162.0490  206.4770  140.5870 C   0  0  0  0  0  0  0  0  0  0  0  0
  161.0100  206.7170  141.4860 N   0  0  0  0  0  2  0  0  0  0  0  0
  162.0600  207.0890  139.2210 C   0  0  0  0  0  2  0  0  0  0  0  0
  161.1440  208.2970  138.9810 C   0  0  0  0  0  2  0  0  0  0  0  0
  161.6920  209.8040  139.1040 C   0  0  0  0  0  2  0  0  0  0  0  0
  160.6490  212.6050  139.0040 O   0  0  0  0  0  0  0  0  0  0  0  0
  160.2840  211.0400  139.6390 P   0  0  0  0  0  0  0  0  0  0  0  0
  160.2960  211.1410  141.1750 O   0  0  0  0  0  1  0  0  0  0  0  0
  158.7260  210.5150  139.0500 O   0  0  0  0  0  1  0  0  0  0  0  0
  160.6260  202.6380  145.8830 O   0  0  0  0  0  0  0  0  0  0  0  0
  160.8890  203.1470  147.0110 C   0  0  0  0  0  0  0  0  0  0  0  0
  160.9270  204.5690  147.2180 N   0  0  0  0  0  2  0  0  0  0  0  0
  161.2500  202.3010  148.2510 C   0  0  2  0  0  3  0  0  0  0  0  0
  161.6460  200.9950  147.9890 O   0  0  0  0  0  0  0  0  0  0  0  0
  161.4680  200.4200  149.1700 O   0  0  0  0  0  1  0  0  0  0  0  0
  160.5490  202.6830  149.6040 C   0  0  0  0  0  2  0  0  0  0  0  0
  161.4810  203.4590  150.5590 C   0  0  2  0  0  3  0  0  0  0  0  0
  161.4500  202.6060  151.8160 C   0  0  0  0  0  1  0  0  0  0  0  0
  161.0390  204.9470  150.8170 C   0  0  0  0  0  2  0  0  0  0  0  0
  161.4810  205.5590  152.2060 C   0  0  0  0  0  2  0  0  0  0  0  0
  160.3310  206.3140  152.8160 N   0  0  0  0  0  2  0  0  0  0  0  0
  160.5650  207.5360  153.5620 C   0  0  1  0  0  3  0  0  0  0  0  0
  160.4670  206.1070  155.4540 O   0  0  0  0  0  0  0  0  0  0  0  0
  160.5170  207.2540  154.9970 C   0  0  0  0  0  0  0  0  0  0  0  0
  160.8130  208.4280  155.8830 C   0  0  0  0  0  2  0  0  0  0  0  0
  160.3380  208.3180  157.2430 N   0  0  0  0  0  1  0  0  0  0  0  0
  162.3040  209.3590  153.7230 N   0  0  0  0  0  1  0  0  0  0  0  0
  161.9660  208.0680  153.1620 C   0  0  2  0  0  3  0  0  0  0  0  0
  162.1230  208.3100  151.6440 C   0  0  0  0  0  2  0  0  0  0  0  0
  163.0230  207.4170  151.0580 O   0  0  0  0  0  1  0  0  0  0  0  0
  160.5440  207.1280  146.9290 C   0  0  0  0  0  2  0  0  0  0  0  0
  161.7960  207.5000  147.7540 C   0  0  0  0  0  2  0  0  0  0  0  0
  161.3510  208.3350  148.7880 N   0  0  0  0  0  2  0  0  0  0  0  0
  161.3930  209.6600  148.4530 C   0  0  0  0  0  2  0  0  0  0  0  0
  160.6600  213.2300  148.6880 C   0  0  0  0  0  0  0  0  0  0  0  0
  161.0160  211.9320  151.5580 C   0  0  0  0  0  3  0  0  0  0  0  0
  160.2800  213.0150  151.3160 C   0  0  0  0  0  0  0  0  0  0  0  0
  161.2610  210.7340  150.6500 C   0  0  0  0  0  3  0  0  0  0  0  0
  160.0660  213.8130  149.9990 C   0  0  0  0  0  2  0  0  0  0  0  0
  160.9580  211.9730  148.4180 C   0  0  0  0  0  3  0  0  0  0  0  0
  161.0160  210.7000  149.3160 C   0  0  0  0  0  0  0  0  0  0  0  0
  159.6210  213.6490  152.6080 C   0  0  2  0  0  3  0  0  0  0  0  0
  159.2350  212.4960  153.4010 O   0  0  0  0  0  0  0  0  0  0  0  0
  158.3380  214.4520  152.2340 C   0  0  0  0  0  2  0  0  0  0  0  0
  158.0550  212.8820  154.0160 C   0  0  2  0  0  3  0  0  0  0  0  0
  157.4650  214.2030  153.4400 C   0  0  0  0  0  2  0  0  0  0  0  0
  158.1960  212.8400  155.5170 C   0  0  0  0  0  2  0  0  0  0  0  0
  160.2900  212.2930  155.6820 C   0  0  0  0  0  1  0  0  0  0  0  0
  159.0080  211.7890  155.9070 O   0  0  0  0  0  0  0  0  0  0  0  0
  160.9260  214.1720  147.5590 C   0  0  0  0  0  2  0  0  0  0  0  0
  160.9990  213.7420  146.1420 C   0  0  1  0  0  3  0  0  0  0  0  0
  160.1010  214.4510  145.3730 O   0  0  0  0  0  1  0  0  0  0  0  0
  163.2930  213.1800  146.3010 O   0  0  0  0  0  0  0  0  0  0  0  0
  162.3420  213.5460  145.5540 C   0  0  0  0  0  0  0  0  0  0  0  0
  162.6040  213.8610  144.2520 O   0  0  0  0  0  0  0  0  0  0  0  0
  162.8840  212.9050  143.2340 C   0  0  0  0  0  1  0  0  0  0  0  0
  1 40  1  1  0  0  0
  1 21  1  0  0  0  0
  2  5  1  0  0  0  0
  3  9  1  0  0  0  0
  3  4  1  0  0  0  0
  5  8  2  0  0  0  0
  5  7  1  0  0  0  0
  6  9  2  0  0  0  0
  7  3  2  0  0  0  0
  8  6  1  0  0  0  0
  9  1  1  0  0  0  0
 10  2  2  0  0  0  0
 10 11  1  0  0  0  0
 11  8  1  0  0  0  0
 12 10  1  0  0  0  0
 13 14  1  0  0  0  0
 13 12  1  0  0  0  0
 14 16  1  0  0  0  0
 15 16  2  0  0  0  0
 16 17  1  0  0  0  0
 18 16  1  0  0  0  0
 19 20  2  0  0  0  0
 20 21  1  0  0  0  0
 20 22  1  0  0  0  0
 22 25  1  1  0  0  0
 23 22  1  0  0  0  0
 23 24  1  0  0  0  0
 25 26  1  0  0  0  0
 26 28  1  0  0  0  0
 26 27  1  1  0  0  0
 28 29  1  0  0  0  0
 29 30  1  0  0  0  0
 31 30  1  6  0  0  0
 31 33  1  0  0  0  0
 33 32  2  0  0  0  0
 33 34  1  0  0  0  0
 34 35  1  0  0  0  0
 37 31  1  0  0  0  0
 37 36  1  1  0  0  0
 38 37  1  0  0  0  0
 39 38  1  0  0  0  0
 40 41  1  0  0  0  0
 41 42  1  0  0  0  0
 43 42  1  0  0  0  0
 43 50  1  0  0  0  0
 44 48  1  0  0  0  0
 46 45  2  0  0  0  0
 47 45  1  0  0  0  0
 48 46  1  0  0  0  0
 49 44  2  0  0  0  0
 49 50  1  0  0  0  0
 50 47  2  0  0  0  0
 51 46  1  6  0  0  0
 51 52  1  0  0  0  0
 52 54  1  0  0  0  0
 53 51  1  0  0  0  0
 53 55  1  0  0  0  0
 54 56  1  1  0  0  0
 55 54  1  0  0  0  0
 56 58  1  0  0  0  0
 57 58  1  0  0  0  0
 59 44  1  0  0  0  0
 60 61  1  6  0  0  0
 60 59  1  0  0  0  0
 63 60  1  0  0  0  0
 63 62  2  0  0  0  0
 64 63  1  0  0  0  0
 65 64  1  0  0  0  0
M  END
>  <MODEL>
4

>  <REMARK>
 VINA RESULT:       2.2      1.226      2.140
  Name = 
  29 active torsions:
  status: ('A' for Active; 'I' for Inactive)
    1  A    between atoms: O_2  and  C_61
    2  A    between atoms: O_3  and  C_28
    3  A    between atoms: C_4  and  C_14
    4  A    between atoms: C_4  and  C_46
    5  A    between atoms: C_5  and  N_38
    6  A    between atoms: C_5  and  C_57
    7  A    between atoms: C_7  and  CA_16
    8  A    between atoms: C_7  and  N_38
    9  A    between atoms: C_7  and  C_62
   10  A    between atoms: C_10  and  C_42
   11  A    between atoms: C_10  and  C_44
   12  A    between atoms: C_10  and  N_58
   13  A    between atoms: C_11  and  C_30
   14  A    between atoms: CA_16  and  C_17
   15  A    between atoms: P_19  and  C_50
   16  A    between atoms: O_22  and  C_59
   17  A    between atoms: C_25  and  C_33
   18  A    between atoms: C_25  and  C_49
   19  A    between atoms: C_28  and  C_40
   20  A    between atoms: C_28  and  C_43
   21  A    between atoms: C_33  and  C_50
   22  A    between atoms: C_34  and  C_59
   23  A    between atoms: C_39  and  C_62
   24  A    between atoms: C_40  and  C_52
   25  A    between atoms: C_41  and  C_44
   26  A    between atoms: C_41  and  N_51
   27  A    between atoms: C_46  and  C_61
   28  A    between atoms: C_52  and  C_57
   29  A    between atoms: C_63  and  C_65
                            x       y       z     vdW  Elec       q    Type
                         _______ _______ _______ _____ _____    ______ ____

>  <TORSDO>
F 29

$$$$
=
 OpenBabel11042420423D

 65 68  0  0  1  0  0  0  0  0999 V2000
  160.7460  205.3580  145.4070 C   0  0  1  0  0  3  0  0  0  0  0  0
  163.0120  206.6770  140.4430 N   0  0  0  0  0  0  0  0  0  0  0  0
  162.7390  205.0810  143.7630 C   0  0  0  0  0  0  0  0  0  0  0  0
  163.5610  204.3330  144.8160 C   0  0  0  0  0  1  0  0  0  0  0  0
  162.6380  206.1850  141.6330 C   0  0  0  0  0  0  0  0  0  0  0  0
  160.7940  206.3860  143.0940 C   0  0  0  0  0  3  0  0  0  0  0  0
  163.3460  205.3670  142.5310 C   0  0  0  0  0  3  0  0  0  0  0  0
  161.4400  206.6160  141.9230 C   0  0  0  0  0  0  0  0  0  0  0  0
  161.4010  205.5550  144.0410 C   0  0  0  0  0  0  0  0  0  0  0  0
  161.9460  207.4400  140.0830 C   0  0  0  0  0  0  0  0  0  0  0  0
  160.9510  207.4850  141.0590 N   0  0  0  0  0  2  0  0  0  0  0  0
  161.9330  208.3670  138.9080 C   0  0  0  0  0  2  0  0  0  0  0  0
  160.8780  209.4830  138.9000 C   0  0  0  0  0  2  0  0  0  0  0  0
  159.7020  209.5180  137.8030 C   0  0  0  0  0  2  0  0  0  0  0  0
  158.6450  211.4440  139.8330 O   0  0  0  0  0  1  0  0  0  0  0  0
  158.1830  210.5760  138.4120 P   0  0  0  0  0  0  0  0  0  0  0  0
  157.0520  209.6060  138.8010 O   0  0  0  0  0  1  0  0  0  0  0  0
  157.6610  211.6980  137.1800 O   0  0  0  0  0  0  0  0  0  0  0  0
  159.6230  202.6930  144.3240 O   0  0  0  0  0  0  0  0  0  0  0  0
  160.2310  202.7160  145.4330 C   0  0  0  0  0  0  0  0  0  0  0  0
  160.7750  203.9300  145.9810 N   0  0  0  0  0  2  0  0  0  0  0  0
  160.5010  201.4490  146.2710 C   0  0  2  0  0  3  0  0  0  0  0  0
  161.0830  200.3910  145.5830 O   0  0  0  0  0  0  0  0  0  0  0  0
  161.4150  199.5780  146.5760 O   0  0  0  0  0  1  0  0  0  0  0  0
  159.5660  201.1980  147.5070 C   0  0  0  0  0  2  0  0  0  0  0  0
  160.1630  201.7370  148.8250 C   0  0  2  0  0  3  0  0  0  0  0  0
  159.1850  201.2190  149.8670 C   0  0  0  0  0  1  0  0  0  0  0  0
  160.3270  203.3010  148.8630 C   0  0  0  0  0  2  0  0  0  0  0  0
  161.7870  203.8260  149.1710 C   0  0  0  0  0  2  0  0  0  0  0  0
  161.7210  204.9410  150.1800 N   0  0  0  0  0  2  0  0  0  0  0  0
  161.8670  204.6610  151.5960 C   0  0  1  0  0  3  0  0  0  0  0  0
  160.1600  206.2450  152.0470 O   0  0  0  0  0  0  0  0  0  0  0  0
  161.2290  205.7210  152.3760 C   0  0  0  0  0  0  0  0  0  0  0  0
  161.8100  205.9390  153.7420 C   0  0  0  0  0  2  0  0  0  0  0  0
  160.9800  206.6820  154.6620 N   0  0  0  0  0  1  0  0  0  0  0  0
  160.3350  203.2770  153.0490 N   0  0  0  0  0  1  0  0  0  0  0  0
  161.1830  203.2970  151.8770 C   0  0  2  0  0  3  0  0  0  0  0  0
  162.1830  202.1540  152.1660 C   0  0  0  0  0  2  0  0  0  0  0  0
  162.0010  201.0650  151.3110 O   0  0  0  0  0  1  0  0  0  0  0  0
  160.9100  206.4680  146.5410 C   0  0  0  0  0  2  0  0  0  0  0  0
  162.3850  206.7100  146.9310 C   0  0  0  0  0  2  0  0  0  0  0  0
  162.3750  207.1190  148.2720 N   0  0  0  0  0  2  0  0  0  0  0  0
  161.6820  208.2820  148.4660 C   0  0  0  0  0  2  0  0  0  0  0  0
  161.2310  211.4830  150.1620 C   0  0  0  0  0  0  0  0  0  0  0  0
  162.0230  209.1940  152.2060 C   0  0  0  0  0  3  0  0  0  0  0  0
  161.3260  210.2790  152.5360 C   0  0  0  0  0  0  0  0  0  0  0  0
  162.0220  208.4350  150.8870 C   0  0  0  0  0  3  0  0  0  0  0  0
  160.9250  211.5160  151.6850 C   0  0  0  0  0  2  0  0  0  0  0  0
  161.3950  210.4280  149.3880 C   0  0  0  0  0  3  0  0  0  0  0  0
  161.5360  208.9090  149.7120 C   0  0  0  0  0  0  0  0  0  0  0  0
  160.9550  210.3650  154.0730 C   0  0  2  0  0  3  0  0  0  0  0  0
  160.1020  211.5360  154.1590 O   0  0  0  0  0  0  0  0  0  0  0  0
  162.2330  210.6130  154.9340 C   0  0  0  0  0  2  0  0  0  0  0  0
  160.4150  212.1010  155.3840 C   0  0  2  0  0  3  0  0  0  0  0  0
  161.6860  211.4840  156.0390 C   0  0  0  0  0  2  0  0  0  0  0  0
  159.1970  212.1600  156.2720 C   0  0  0  0  0  2  0  0  0  0  0  0
  157.0400  212.3150  156.0850 C   0  0  0  0  0  1  0  0  0  0  0  0
  158.1190  211.5320  155.6730 O   0  0  0  0  0  0  0  0  0  0  0  0
  161.3460  212.7880  149.4420 C   0  0  0  0  0  2  0  0  0  0  0  0
  162.0230  212.9350  148.1320 C   0  0  1  0  0  3  0  0  0  0  0  0
  163.1660  212.1650  148.0870 O   0  0  0  0  0  1  0  0  0  0  0  0
  160.3940  211.9370  146.7340 O   0  0  0  0  0  0  0  0  0  0  0  0
  161.1790  212.9110  146.9170 C   0  0  0  0  0  0  0  0  0  0  0  0
  161.3100  213.8520  145.9380 O   0  0  0  0  0  0  0  0  0  0  0  0
  161.4410  213.5570  144.5500 C   0  0  0  0  0  1  0  0  0  0  0  0
  1 21  1  0  0  0  0
  1 40  1  1  0  0  0
  2  5  1  0  0  0  0
  3  9  1  0  0  0  0
  3  4  1  0  0  0  0
  5  8  2  0  0  0  0
  5  7  1  0  0  0  0
  6  9  2  0  0  0  0
  7  3  2  0  0  0  0
  8  6  1  0  0  0  0
  9  1  1  0  0  0  0
 10  2  2  0  0  0  0
 10 11  1  0  0  0  0
 11  8  1  0  0  0  0
 12 10  1  0  0  0  0
 13 12  1  0  0  0  0
 14 16  1  0  0  0  0
 14 13  1  0  0  0  0
 16 17  1  0  0  0  0
 16 15  1  0  0  0  0
 18 16  2  0  0  0  0
 19 20  2  0  0  0  0
 20 21  1  0  0  0  0
 20 22  1  0  0  0  0
 22 25  1  6  0  0  0
 23 22  1  0  0  0  0
 23 24  1  0  0  0  0
 25 26  1  0  0  0  0
 26 28  1  0  0  0  0
 26 27  1  1  0  0  0
 28 29  1  0  0  0  0
 29 30  1  0  0  0  0
 31 30  1  6  0  0  0
 31 37  1  0  0  0  0
 31 33  1  0  0  0  0
 32 33  2  0  0  0  0
 33 34  1  0  0  0  0
 34 35  1  0  0  0  0
 37 38  1  0  0  0  0
 37 36  1  1  0  0  0
 39 38  1  0  0  0  0
 40 41  1  0  0  0  0
 41 42  1  0  0  0  0
 42 43  1  0  0  0  0
 43 50  1  0  0  0  0
 44 48  1  0  0  0  0
 45 46  2  0  0  0  0
 47 45  1  0  0  0  0
 48 46  1  0  0  0  0
 49 50  1  0  0  0  0
 49 44  2  0  0  0  0
 50 47  2  0  0  0  0
 51 46  1  6  0  0  0
 51 52  1  0  0  0  0
 51 53  1  0  0  0  0
 52 54  1  0  0  0  0
 53 55  1  0  0  0  0
 54 55  1  0  0  0  0
 54 56  1  1  0  0  0
 58 57  1  0  0  0  0
 58 56  1  0  0  0  0
 59 44  1  0  0  0  0
 60 61  1  6  0  0  0
 60 59  1  0  0  0  0
 62 63  2  0  0  0  0
 63 60  1  0  0  0  0
 64 63  1  0  0  0  0
 65 64  1  0  0  0  0
M  END
>  <MODEL>
5

>  <REMARK>
 VINA RESULT:       2.9      1.696      2.868
  Name = 
  29 active torsions:
  status: ('A' for Active; 'I' for Inactive)
    1  A    between atoms: O_2  and  C_61
    2  A    between atoms: O_3  and  C_28
    3  A    between atoms: C_4  and  C_14
    4  A    between atoms: C_4  and  C_46
    5  A    between atoms: C_5  and  N_38
    6  A    between atoms: C_5  and  C_57
    7  A    between atoms: C_7  and  CA_16
    8  A    between atoms: C_7  and  N_38
    9  A    between atoms: C_7  and  C_62
   10  A    between atoms: C_10  and  C_42
   11  A    between atoms: C_10  and  C_44
   12  A    between atoms: C_10  and  N_58
   13  A    between atoms: C_11  and  C_30
   14  A    between atoms: CA_16  and  C_17
   15  A    between atoms: P_19  and  C_50
   16  A    between atoms: O_22  and  C_59
   17  A    between atoms: C_25  and  C_33
   18  A    between atoms: C_25  and  C_49
   19  A    between atoms: C_28  and  C_40
   20  A    between atoms: C_28  and  C_43
   21  A    between atoms: C_33  and  C_50
   22  A    between atoms: C_34  and  C_59
   23  A    between atoms: C_39  and  C_62
   24  A    between atoms: C_40  and  C_52
   25  A    between atoms: C_41  and  C_44
   26  A    between atoms: C_41  and  N_51
   27  A    between atoms: C_46  and  C_61
   28  A    between atoms: C_52  and  C_57
   29  A    between atoms: C_63  and  C_65
                            x       y       z     vdW  Elec       q    Type
                         _______ _______ _______ _____ _____    ______ ____

>  <TORSDO>
F 29

$$$$
=
 OpenBabel11042420423D

 65 68  0  0  1  0  0  0  0  0999 V2000
  161.2050  206.5550  148.1090 C   0  0  1  0  0  3  0  0  0  0  0  0
  162.6840  205.3900  142.8190 N   0  0  0  0  0  0  0  0  0  0  0  0
  162.7670  205.2300  146.5090 C   0  0  0  0  0  0  0  0  0  0  0  0
  163.6270  204.7450  147.6780 C   0  0  0  0  0  1  0  0  0  0  0  0
  162.4610  205.4720  144.1390 C   0  0  0  0  0  0  0  0  0  0  0  0
  160.9950  206.6250  145.5870 C   0  0  0  0  0  3  0  0  0  0  0  0
  163.1690  204.8940  145.2070 C   0  0  0  0  0  3  0  0  0  0  0  0
  161.4370  206.2510  144.3600 C   0  0  0  0  0  0  0  0  0  0  0  0
  161.6120  206.0770  146.7160 C   0  0  0  0  0  0  0  0  0  0  0  0
  161.7220  206.2010  142.3010 C   0  0  0  0  0  0  0  0  0  0  0  0
  160.9550  206.8340  143.2780 N   0  0  0  0  0  2  0  0  0  0  0  0
  161.6520  206.6100  140.8630 C   0  0  0  0  0  2  0  0  0  0  0  0
  162.4490  207.8520  140.4420 C   0  0  0  0  0  2  0  0  0  0  0  0
  161.7720  209.3100  140.3980 C   0  0  0  0  0  2  0  0  0  0  0  0
  159.7540  210.0520  138.3190 O   0  0  0  0  0  1  0  0  0  0  0  0
  161.4580  209.9020  138.5690 P   0  0  0  0  0  0  0  0  0  0  0  0
  161.9780  208.8090  137.6170 O   0  0  0  0  0  0  0  0  0  0  0  0
  162.2350  211.4360  138.2600 O   0  0  0  0  0  1  0  0  0  0  0  0
  159.3240  205.8450  150.4530 O   0  0  0  0  0  0  0  0  0  0  0  0
  160.4270  205.2390  150.3240 C   0  0  0  0  0  0  0  0  0  0  0  0
  161.3380  205.5300  149.2500 N   0  0  0  0  0  2  0  0  0  0  0  0
  160.8750  204.0980  151.2620 C   0  0  2  0  0  3  0  0  0  0  0  0
  161.0560  204.4540  152.5930 O   0  0  0  0  0  0  0  0  0  0  0  0
  161.0870  205.7770  152.5120 O   0  0  0  0  0  1  0  0  0  0  0  0
  161.6930  202.9230  150.6160 C   0  0  0  0  0  2  0  0  0  0  0  0
  160.8340  201.6640  150.3700 C   0  0  2  0  0  3  0  0  0  0  0  0
  161.8620  200.6510  149.8970 C   0  0  0  0  0  1  0  0  0  0  0  0
  159.6640  201.8770  149.3400 C   0  0  0  0  0  2  0  0  0  0  0  0
  159.8030  201.0870  147.9770 C   0  0  0  0  0  2  0  0  0  0  0  0
  160.4200  201.9810  146.9350 N   0  0  0  0  0  2  0  0  0  0  0  0
  160.6960  201.4770  145.6030 C   0  0  1  0  0  3  0  0  0  0  0  0
  159.1160  199.9340  144.7370 O   0  0  0  0  0  0  0  0  0  0  0  0
  160.1050  200.1480  145.4460 C   0  0  0  0  0  0  0  0  0  0  0  0
  160.9380  199.0180  145.9750 C   0  0  0  0  0  2  0  0  0  0  0  0
  161.9900  198.5560  145.0990 N   0  0  0  0  0  1  0  0  0  0  0  0
  160.9770  203.4920  144.1070 N   0  0  0  0  0  1  0  0  0  0  0  0
  160.0720  202.4700  144.5870 C   0  0  2  0  0  3  0  0  0  0  0  0
  158.9070  203.2990  145.1720 C   0  0  0  0  0  2  0  0  0  0  0  0
  157.6760  202.9530  144.6100 O   0  0  0  0  0  1  0  0  0  0  0  0
  161.5590  208.0370  148.5830 C   0  0  0  0  0  2  0  0  0  0  0  0
  162.7690  208.0840  149.5420 C   0  0  0  0  0  2  0  0  0  0  0  0
  162.4280  208.9830  150.5620 N   0  0  0  0  0  2  0  0  0  0  0  0
  161.2960  209.6980  150.2800 C   0  0  0  0  0  2  0  0  0  0  0  0
  160.2550  213.1880  150.5400 C   0  0  0  0  0  0  0  0  0  0  0  0
  160.4310  211.8190  153.3940 C   0  0  0  0  0  3  0  0  0  0  0  0
  159.6370  212.8480  153.1090 C   0  0  0  0  0  0  0  0  0  0  0  0
  160.8610  210.6770  152.4830 C   0  0  0  0  0  3  0  0  0  0  0  0
  159.4890  213.6750  151.8010 C   0  0  0  0  0  2  0  0  0  0  0  0
  160.6800  211.9690  150.2670 C   0  0  0  0  0  3  0  0  0  0  0  0
  160.7530  210.6730  151.1300 C   0  0  0  0  0  0  0  0  0  0  0  0
  158.8040  213.3820  154.3460 C   0  0  2  0  0  3  0  0  0  0  0  0
  158.2910  212.1730  154.9650 O   0  0  0  0  0  0  0  0  0  0  0  0
  157.6000  214.2490  153.8650 C   0  0  0  0  0  2  0  0  0  0  0  0
  157.0390  212.5330  155.4350 C   0  0  2  0  0  3  0  0  0  0  0  0
  156.5570  213.9160  154.9050 C   0  0  0  0  0  2  0  0  0  0  0  0
  156.9570  212.3540  156.9310 C   0  0  0  0  0  2  0  0  0  0  0  0
  155.2560  211.2730  156.1260 C   0  0  0  0  0  1  0  0  0  0  0  0
  156.0680  211.3450  157.2580 O   0  0  0  0  0  0  0  0  0  0  0  0
  160.5530  214.1880  149.4710 C   0  0  0  0  0  2  0  0  0  0  0  0
  159.7470  214.3200  148.2350 C   0  0  1  0  0  3  0  0  0  0  0  0
  160.5000  213.9970  147.1260 O   0  0  0  0  0  1  0  0  0  0  0  0
  158.0140  212.9600  147.3680 O   0  0  0  0  0  0  0  0  0  0  0  0
  158.3670  213.7860  148.2570 C   0  0  0  0  0  0  0  0  0  0  0  0
  157.4360  214.2480  149.1420 O   0  0  0  0  0  0  0  0  0  0  0  0
  156.0280  214.1350  148.9610 C   0  0  0  0  0  1  0  0  0  0  0  0
  1 40  1  1  0  0  0
  1 21  1  0  0  0  0
  2  5  1  0  0  0  0
  3  9  1  0  0  0  0
  3  4  1  0  0  0  0
  5  8  2  0  0  0  0
  5  7  1  0  0  0  0
  6  9  2  0  0  0  0
  7  3  2  0  0  0  0
  8  6  1  0  0  0  0
  9  1  1  0  0  0  0
 10  2  2  0  0  0  0
 10 11  1  0  0  0  0
 11  8  1  0  0  0  0
 12 10  1  0  0  0  0
 13 12  1  0  0  0  0
 14 13  1  0  0  0  0
 15 16  1  0  0  0  0
 16 14  1  0  0  0  0
 17 16  2  0  0  0  0
 18 16  1  0  0  0  0
 20 19  2  0  0  0  0
 20 22  1  0  0  0  0
 21 20  1  0  0  0  0
 22 25  1  6  0  0  0
 22 23  1  0  0  0  0
 24 23  1  0  0  0  0
 26 27  1  6  0  0  0
 26 25  1  0  0  0  0
 28 26  1  0  0  0  0
 29 28  1  0  0  0  0
 30 29  1  0  0  0  0
 31 33  1  1  0  0  0
 31 30  1  0  0  0  0
 32 33  2  0  0  0  0
 33 34  1  0  0  0  0
 35 34  1  0  0  0  0
 37 36  1  1  0  0  0
 37 38  1  0  0  0  0
 37 31  1  0  0  0  0
 39 38  1  0  0  0  0
 40 41  1  0  0  0  0
 41 42  1  0  0  0  0
 43 42  1  0  0  0  0
 43 50  1  0  0  0  0
 44 48  1  0  0  0  0
 46 45  2  0  0  0  0
 47 45  1  0  0  0  0
 48 46  1  0  0  0  0
 49 44  2  0  0  0  0
 49 50  1  0  0  0  0
 50 47  2  0  0  0  0
 51 46  1  6  0  0  0
 51 52  1  0  0  0  0
 52 54  1  0  0  0  0
 53 51  1  0  0  0  0
 53 55  1  0  0  0  0
 54 56  1  1  0  0  0
 55 54  1  0  0  0  0
 56 58  1  0  0  0  0
 57 58  1  0  0  0  0
 59 44  1  0  0  0  0
 60 61  1  6  0  0  0
 60 63  1  0  0  0  0
 60 59  1  0  0  0  0
 62 63  2  0  0  0  0
 63 64  1  0  0  0  0
 65 64  1  0  0  0  0
M  END
>  <MODEL>
6

>  <REMARK>
 VINA RESULT:       3.7      2.250      5.045
  Name = 
  29 active torsions:
  status: ('A' for Active; 'I' for Inactive)
    1  A    between atoms: O_2  and  C_61
    2  A    between atoms: O_3  and  C_28
    3  A    between atoms: C_4  and  C_14
    4  A    between atoms: C_4  and  C_46
    5  A    between atoms: C_5  and  N_38
    6  A    between atoms: C_5  and  C_57
    7  A    between atoms: C_7  and  CA_16
    8  A    between atoms: C_7  and  N_38
    9  A    between atoms: C_7  and  C_62
   10  A    between atoms: C_10  and  C_42
   11  A    between atoms: C_10  and  C_44
   12  A    between atoms: C_10  and  N_58
   13  A    between atoms: C_11  and  C_30
   14  A    between atoms: CA_16  and  C_17
   15  A    between atoms: P_19  and  C_50
   16  A    between atoms: O_22  and  C_59
   17  A    between atoms: C_25  and  C_33
   18  A    between atoms: C_25  and  C_49
   19  A    between atoms: C_28  and  C_40
   20  A    between atoms: C_28  and  C_43
   21  A    between atoms: C_33  and  C_50
   22  A    between atoms: C_34  and  C_59
   23  A    between atoms: C_39  and  C_62
   24  A    between atoms: C_40  and  C_52
   25  A    between atoms: C_41  and  C_44
   26  A    between atoms: C_41  and  N_51
   27  A    between atoms: C_46  and  C_61
   28  A    between atoms: C_52  and  C_57
   29  A    between atoms: C_63  and  C_65
                            x       y       z     vdW  Elec       q    Type
                         _______ _______ _______ _____ _____    ______ ____

>  <TORSDO>
F 29

$$$$
