=
 OpenBabel11052410373D

 25 28  0  0  1  0  0  0  0  0999 V2000
  161.2970  206.4440  147.4280 C   0  0  0  0  0  0  0  0  0  0  0  0
  162.8050  207.6090  148.9230 C   0  0  0  0  0  3  0  0  0  0  0  0
  160.7400  206.6680  149.7730 C   0  0  0  0  0  3  0  0  0  0  0  0
  162.4880  207.1460  147.6430 C   0  0  0  0  0  3  0  0  0  0  0  0
  161.9340  207.3720  149.9920 C   0  0  0  0  0  0  0  0  0  0  0  0
  160.4240  206.2050  148.4930 C   0  0  0  0  0  3  0  0  0  0  0  0
  162.1430  206.8140  152.3580 N   0  0  0  0  0  0  0  0  0  0  0  0
  162.2900  207.8870  151.3520 C   0  0  0  0  0  0  0  0  0  0  0  0
  160.0310  210.3690  153.0130 N   0  0  0  0  0  0  0  0  0  0  0  0
  160.6070  208.0870  153.7620 C   0  0  0  0  0  3  0  0  0  0  0  0
  161.4020  206.8780  153.4380 C   0  0  0  0  0  0  0  0  0  0  0  0
  161.4530  209.0750  151.7270 C   0  0  0  0  0  0  0  0  0  0  0  0
  161.3580  205.7640  154.3220 N   0  0  0  0  0  1  0  0  0  0  0  0
  161.2910  210.2750  151.1910 C   0  0  0  0  0  0  0  0  0  0  0  0
  160.6600  209.1020  152.9120 C   0  0  2  0  0  3  0  0  0  0  0  0
  160.4020  211.0540  152.0030 N   0  0  0  0  0  0  0  0  0  0  0  0
  162.4460  211.1570  148.9830 C   0  0  0  0  0  3  0  0  0  0  0  0
  161.9180  210.7560  149.9900 C   0  0  0  0  0  0  0  0  0  0  0  0
  160.0830  205.8880  144.9310 C   0  0  0  0  0  2  0  0  0  0  0  0
  161.2510  205.1570  144.9060 C   0  0  1  0  0  3  0  0  0  0  0  0
  160.9750  205.9730  146.1240 N   0  0  0  0  0  0  0  0  0  0  0  0
  160.9740  203.7010  145.2210 C   0  0  0  0  0  2  0  0  0  0  0  0
  161.5890  203.3560  146.4240 O   0  0  0  0  0  0  0  0  0  0  0  0
  160.9790  202.1600  146.8000 C   0  0  0  0  0  2  0  0  0  0  0  0
  160.9550  202.0590  148.3110 C   0  0  0  0  0  1  0  0  0  0  0  0
  1  4  2  0  0  0  0
  1  6  1  0  0  0  0
  2  5  2  0  0  0  0
  3  5  1  0  0  0  0
  4  2  1  0  0  0  0
  5  8  1  0  0  0  0
  6  3  2  0  0  0  0
  7 11  1  0  0  0  0
  8 12  1  0  0  0  0
  8  7  2  0  0  0  0
 11 10  2  0  0  0  0
 11 13  1  0  0  0  0
 12 15  1  0  0  0  0
 14 12  2  0  0  0  0
 14 16  1  0  0  0  0
 15  9  1  0  0  0  0
 15 10  1  1  0  0  0
 16  9  2  0  0  0  0
 17 18  3  0  0  0  0
 18 14  1  0  0  0  0
 19 21  1  0  0  0  0
 20 19  1  0  0  0  0
 20 22  1  1  0  0  0
 20 21  1  0  0  0  0
 21  1  1  0  0  0  0
 22 23  1  0  0  0  0
 23 24  1  0  0  0  0
 24 25  1  0  0  0  0
M  END
>  <MODEL>
1

>  <REMARK>
 VINA RESULT:      -6.7      0.000      0.000
  Name = 
  6 active torsions:
  status: ('A' for Active; 'I' for Inactive)
    1  A    between atoms: C_3  and  N_21
    2  A    between atoms: C_4  and  C_22
    3  A    between atoms: O_7  and  C_11
    4  A    between atoms: O_7  and  C_12
    5  A    between atoms: C_11  and  C_20
    6  A    between atoms: C_17  and  C_19
                            x       y       z     vdW  Elec       q    Type
                         _______ _______ _______ _____ _____    ______ ____

>  <TORSDO>
F 6

$$$$
=
 OpenBabel11052410373D

 25 28  0  0  1  0  0  0  0  0999 V2000
  161.5100  208.0160  150.3730 C   0  0  0  0  0  0  0  0  0  0  0  0
  160.8010  208.2580  152.6770 C   0  0  0  0  0  3  0  0  0  0  0  0
  162.1260  209.9930  151.6270 C   0  0  0  0  0  3  0  0  0  0  0  0
  160.8320  207.5180  151.4910 C   0  0  0  0  0  3  0  0  0  0  0  0
  161.4470  209.4960  152.7500 C   0  0  0  0  0  0  0  0  0  0  0  0
  162.1570  209.2530  150.4420 C   0  0  0  0  0  3  0  0  0  0  0  0
  161.8350  209.4030  155.1570 N   0  0  0  0  0  0  0  0  0  0  0  0
  161.4090  210.2650  154.0350 C   0  0  0  0  0  0  0  0  0  0  0  0
  158.0990  211.2670  155.4680 N   0  0  0  0  0  0  0  0  0  0  0  0
  159.7990  209.7710  156.4510 C   0  0  0  0  0  3  0  0  0  0  0  0
  161.1380  209.1680  156.2430 C   0  0  0  0  0  0  0  0  0  0  0  0
  160.0460  210.8330  154.2970 C   0  0  0  0  0  0  0  0  0  0  0  0
  161.6760  208.3150  157.2470 N   0  0  0  0  0  1  0  0  0  0  0  0
  159.2750  211.6820  153.6350 C   0  0  0  0  0  0  0  0  0  0  0  0
  159.3220  210.5490  155.4920 C   0  0  2  0  0  3  0  0  0  0  0  0
  158.0740  211.9290  154.3780 N   0  0  0  0  0  0  0  0  0  0  0  0
  159.8390  212.8070  151.3100 C   0  0  0  0  0  3  0  0  0  0  0  0
  159.5830  212.2940  152.3700 C   0  0  0  0  0  0  0  0  0  0  0  0
  161.2520  207.0790  147.7150 C   0  0  0  0  0  2  0  0  0  0  0  0
  161.8570  206.0340  148.3820 C   0  0  1  0  0  3  0  0  0  0  0  0
  161.5410  207.2630  149.1670 N   0  0  0  0  0  0  0  0  0  0  0  0
  160.8410  204.9630  148.7230 C   0  0  0  0  0  2  0  0  0  0  0  0
  161.4260  203.7030  148.5870 O   0  0  0  0  0  0  0  0  0  0  0  0
  160.7960  202.9190  149.5520 C   0  0  0  0  0  2  0  0  0  0  0  0
  160.6610  203.7110  150.8360 C   0  0  0  0  0  1  0  0  0  0  0  0
  1  6  2  0  0  0  0
  1  4  1  0  0  0  0
  2  5  1  0  0  0  0
  3  5  2  0  0  0  0
  4  2  2  0  0  0  0
  5  8  1  0  0  0  0
  6  3  1  0  0  0  0
  7 11  1  0  0  0  0
  8 12  1  0  0  0  0
  8  7  2  0  0  0  0
  9 15  1  0  0  0  0
 11 10  2  0  0  0  0
 11 13  1  0  0  0  0
 12 15  1  0  0  0  0
 14 12  2  0  0  0  0
 14 16  1  0  0  0  0
 15 10  1  1  0  0  0
 16  9  2  0  0  0  0
 17 18  3  0  0  0  0
 18 14  1  0  0  0  0
 19 20  1  0  0  0  0
 19 21  1  0  0  0  0
 20 22  1  1  0  0  0
 20 21  1  0  0  0  0
 21  1  1  0  0  0  0
 23 22  1  0  0  0  0
 23 24  1  0  0  0  0
 24 25  1  0  0  0  0
M  END
>  <MODEL>
2

>  <REMARK>
 VINA RESULT:      -6.5      2.404      3.554
  Name = 
  6 active torsions:
  status: ('A' for Active; 'I' for Inactive)
    1  A    between atoms: C_3  and  N_21
    2  A    between atoms: C_4  and  C_22
    3  A    between atoms: O_7  and  C_11
    4  A    between atoms: O_7  and  C_12
    5  A    between atoms: C_11  and  C_20
    6  A    between atoms: C_17  and  C_19
                            x       y       z     vdW  Elec       q    Type
                         _______ _______ _______ _____ _____    ______ ____

>  <TORSDO>
F 6

$$$$
=
 OpenBabel11052410373D

 25 28  0  0  1  0  0  0  0  0999 V2000
  161.3160  207.7100  150.6840 C   0  0  0  0  0  0  0  0  0  0  0  0
  161.0200  208.4270  152.9790 C   0  0  0  0  0  3  0  0  0  0  0  0
  162.1490  209.8690  151.3940 C   0  0  0  0  0  3  0  0  0  0  0  0
  160.8410  207.4680  151.9780 C   0  0  0  0  0  3  0  0  0  0  0  0
  161.6730  209.6300  152.6920 C   0  0  0  0  0  0  0  0  0  0  0  0
  161.9710  208.9100  150.3930 C   0  0  0  0  0  3  0  0  0  0  0  0
  162.4180  209.9850  154.9880 N   0  0  0  0  0  0  0  0  0  0  0  0
  161.8630  210.6370  153.7830 C   0  0  0  0  0  0  0  0  0  0  0  0
  158.8520  212.1350  155.4300 N   0  0  0  0  0  0  0  0  0  0  0  0
  160.6190  210.7440  156.4520 C   0  0  0  0  0  3  0  0  0  0  0  0
  161.8850  210.0180  156.1860 C   0  0  0  0  0  0  0  0  0  0  0  0
  160.5800  211.3410  154.1120 C   0  0  0  0  0  0  0  0  0  0  0  0
  162.5340  209.3450  157.2580 N   0  0  0  0  0  1  0  0  0  0  0  0
  159.7530  212.0950  153.4050 C   0  0  0  0  0  0  0  0  0  0  0  0
  160.0340  211.3500  155.4290 C   0  0  2  0  0  3  0  0  0  0  0  0
  158.6900  212.5690  154.2420 N   0  0  0  0  0  0  0  0  0  0  0  0
  160.0050  212.6960  150.8430 C   0  0  0  0  0  3  0  0  0  0  0  0
  159.8900  212.4230  152.0110 C   0  0  0  0  0  0  0  0  0  0  0  0
  161.1240  205.3260  149.1690 C   0  0  0  0  0  2  0  0  0  0  0  0
  160.8370  206.3240  148.2620 C   0  0  1  0  0  3  0  0  0  0  0  0
  161.1340  206.7330  149.6660 N   0  0  0  0  0  0  0  0  0  0  0  0
  162.0480  206.6230  147.4010 C   0  0  0  0  0  2  0  0  0  0  0  0
  162.4960  205.4470  146.7990 O   0  0  0  0  0  0  0  0  0  0  0  0
  162.0640  205.5440  145.4770 C   0  0  0  0  0  2  0  0  0  0  0  0
  161.1810  204.3590  145.1460 C   0  0  0  0  0  1  0  0  0  0  0  0
  1  4  1  0  0  0  0
  3  5  2  0  0  0  0
  4  2  2  0  0  0  0
  5  2  1  0  0  0  0
  5  8  1  0  0  0  0
  6  1  2  0  0  0  0
  6  3  1  0  0  0  0
  7 11  1  0  0  0  0
  8 12  1  0  0  0  0
  8  7  2  0  0  0  0
 11 10  2  0  0  0  0
 11 13  1  0  0  0  0
 12 15  1  0  0  0  0
 14 12  2  0  0  0  0
 14 16  1  0  0  0  0
 15  9  1  0  0  0  0
 15 10  1  1  0  0  0
 16  9  2  0  0  0  0
 17 18  3  0  0  0  0
 18 14  1  0  0  0  0
 19 21  1  0  0  0  0
 20 22  1  6  0  0  0
 20 19  1  0  0  0  0
 20 21  1  0  0  0  0
 21  1  1  0  0  0  0
 23 22  1  0  0  0  0
 24 23  1  0  0  0  0
 25 24  1  0  0  0  0
M  END
>  <MODEL>
3

>  <REMARK>
 VINA RESULT:      -6.4      2.454      3.754
  Name = 
  6 active torsions:
  status: ('A' for Active; 'I' for Inactive)
    1  A    between atoms: C_3  and  N_21
    2  A    between atoms: C_4  and  C_22
    3  A    between atoms: O_7  and  C_11
    4  A    between atoms: O_7  and  C_12
    5  A    between atoms: C_11  and  C_20
    6  A    between atoms: C_17  and  C_19
                            x       y       z     vdW  Elec       q    Type
                         _______ _______ _______ _____ _____    ______ ____

>  <TORSDO>
F 6

$$$$
=
 OpenBabel11052410373D

 25 28  0  0  1  0  0  0  0  0999 V2000
  161.5000  207.7990  148.9470 C   0  0  0  0  0  0  0  0  0  0  0  0
  162.1890  209.8040  150.1190 C   0  0  0  0  0  3  0  0  0  0  0  0
  160.9850  208.0630  151.2980 C   0  0  0  0  0  3  0  0  0  0  0  0
  162.1310  209.0480  148.9450 C   0  0  0  0  0  3  0  0  0  0  0  0
  161.6180  209.3160  151.2990 C   0  0  0  0  0  0  0  0  0  0  0  0
  160.9270  207.3080  150.1240 C   0  0  0  0  0  3  0  0  0  0  0  0
  161.9000  209.2850  153.7220 N   0  0  0  0  0  0  0  0  0  0  0  0
  161.6820  210.1480  152.5420 C   0  0  0  0  0  0  0  0  0  0  0  0
  158.5720  211.8250  153.7810 N   0  0  0  0  0  0  0  0  0  0  0  0
  159.9280  210.0950  154.9080 C   0  0  0  0  0  3  0  0  0  0  0  0
  161.1360  209.2440  154.7870 C   0  0  0  0  0  0  0  0  0  0  0  0
  160.4420  210.9730  152.7180 C   0  0  0  0  0  0  0  0  0  0  0  0
  161.4700  208.3630  155.8530 N   0  0  0  0  0  1  0  0  0  0  0  0
  159.8660  211.9130  151.9830 C   0  0  0  0  0  0  0  0  0  0  0  0
  159.6370  210.8950  153.8930 C   0  0  2  0  0  3  0  0  0  0  0  0
  158.7090  212.4190  152.6610 N   0  0  0  0  0  0  0  0  0  0  0  0
  160.7140  212.7830  149.6350 C   0  0  0  0  0  3  0  0  0  0  0  0
  160.3260  212.3860  150.7050 C   0  0  0  0  0  0  0  0  0  0  0  0
  160.7030  206.4110  146.6120 C   0  0  0  0  0  2  0  0  0  0  0  0
  162.0630  206.1930  146.6850 C   0  0  1  0  0  3  0  0  0  0  0  0
  161.4410  207.0300  147.7510 N   0  0  0  0  0  0  0  0  0  0  0  0
  162.3500  204.8170  147.2510 C   0  0  0  0  0  2  0  0  0  0  0  0
  161.3060  204.4280  148.0900 O   0  0  0  0  0  0  0  0  0  0  0  0
  161.2850  203.0370  148.0030 C   0  0  0  0  0  2  0  0  0  0  0  0
  160.6630  202.4610  149.2580 C   0  0  0  0  0  1  0  0  0  0  0  0
  1  6  1  0  0  0  0
  2  5  2  0  0  0  0
  3  5  1  0  0  0  0
  4  1  2  0  0  0  0
  4  2  1  0  0  0  0
  5  8  1  0  0  0  0
  6  3  2  0  0  0  0
  7 11  1  0  0  0  0
  8 12  1  0  0  0  0
  8  7  2  0  0  0  0
  9 15  1  0  0  0  0
 11 10  2  0  0  0  0
 11 13  1  0  0  0  0
 12 15  1  0  0  0  0
 14 16  1  0  0  0  0
 14 12  2  0  0  0  0
 15 10  1  1  0  0  0
 16  9  2  0  0  0  0
 17 18  3  0  0  0  0
 18 14  1  0  0  0  0
 19 20  1  0  0  0  0
 19 21  1  0  0  0  0
 20 22  1  1  0  0  0
 20 21  1  0  0  0  0
 21  1  1  0  0  0  0
 22 23  1  0  0  0  0
 24 23  1  0  0  0  0
 24 25  1  0  0  0  0
M  END
>  <MODEL>
4

>  <REMARK>
 VINA RESULT:      -5.9      1.825      2.304
  Name = 
  6 active torsions:
  status: ('A' for Active; 'I' for Inactive)
    1  A    between atoms: C_3  and  N_21
    2  A    between atoms: C_4  and  C_22
    3  A    between atoms: O_7  and  C_11
    4  A    between atoms: O_7  and  C_12
    5  A    between atoms: C_11  and  C_20
    6  A    between atoms: C_17  and  C_19
                            x       y       z     vdW  Elec       q    Type
                         _______ _______ _______ _____ _____    ______ ____

>  <TORSDO>
F 6

$$$$
=
 OpenBabel11052410373D

 25 28  0  0  1  0  0  0  0  0999 V2000
  161.1770  205.2570  150.6020 C   0  0  0  0  0  0  0  0  0  0  0  0
  161.3320  205.6890  152.9800 C   0  0  0  0  0  3  0  0  0  0  0  0
  161.4160  207.5290  151.4060 C   0  0  0  0  0  3  0  0  0  0  0  0
  161.2010  204.7880  151.9190 C   0  0  0  0  0  3  0  0  0  0  0  0
  161.4400  207.0610  152.7290 C   0  0  0  0  0  0  0  0  0  0  0  0
  161.2850  206.6270  150.3460 C   0  0  0  0  0  3  0  0  0  0  0  0
  161.2300  207.3300  155.1440 N   0  0  0  0  0  0  0  0  0  0  0  0
  161.5910  208.0060  153.8800 C   0  0  0  0  0  0  0  0  0  0  0  0
  159.2110  210.8770  154.2100 N   0  0  0  0  0  0  0  0  0  0  0  0
  159.5460  208.9850  155.7610 C   0  0  0  0  0  3  0  0  0  0  0  0
  160.3260  207.7450  155.9980 C   0  0  0  0  0  0  0  0  0  0  0  0
  160.7620  209.2420  153.6910 C   0  0  0  0  0  0  0  0  0  0  0  0
  160.0840  206.9920  157.1810 N   0  0  0  0  0  1  0  0  0  0  0  0
  160.7470  210.1900  152.7670 C   0  0  0  0  0  0  0  0  0  0  0  0
  159.7860  209.6560  154.6450 C   0  0  2  0  0  3  0  0  0  0  0  0
  159.7750  211.1870  153.1100 N   0  0  0  0  0  0  0  0  0  0  0  0
  162.2880  210.2920  150.6220 C   0  0  0  0  0  3  0  0  0  0  0  0
  161.5860  210.2470  151.6000 C   0  0  0  0  0  0  0  0  0  0  0  0
  161.0490  202.9620  148.9490 C   0  0  0  0  0  2  0  0  0  0  0  0
  160.8240  204.0120  148.0840 C   0  0  1  0  0  3  0  0  0  0  0  0
  161.0440  204.3400  149.5220 N   0  0  0  0  0  0  0  0  0  0  0  0
  162.0840  204.3420  147.3100 C   0  0  0  0  0  2  0  0  0  0  0  0
  161.9730  205.6170  146.7560 O   0  0  0  0  0  0  0  0  0  0  0  0
  162.3370  205.4530  145.4210 C   0  0  0  0  0  2  0  0  0  0  0  0
  161.0940  205.4480  144.5560 C   0  0  0  0  0  1  0  0  0  0  0  0
  1  4  1  0  0  0  0
  3  5  2  0  0  0  0
  4  2  2  0  0  0  0
  5  2  1  0  0  0  0
  5  8  1  0  0  0  0
  6  1  2  0  0  0  0
  6  3  1  0  0  0  0
  7 11  1  0  0  0  0
  8  7  2  0  0  0  0
  9 15  1  0  0  0  0
 10 11  2  0  0  0  0
 11 13  1  0  0  0  0
 12  8  1  0  0  0  0
 12 15  1  0  0  0  0
 14 16  1  0  0  0  0
 14 12  2  0  0  0  0
 15 10  1  1  0  0  0
 16  9  2  0  0  0  0
 17 18  3  0  0  0  0
 18 14  1  0  0  0  0
 19 21  1  0  0  0  0
 20 22  1  6  0  0  0
 20 19  1  0  0  0  0
 20 21  1  0  0  0  0
 21  1  1  0  0  0  0
 23 22  1  0  0  0  0
 24 23  1  0  0  0  0
 25 24  1  0  0  0  0
M  END
>  <MODEL>
5

>  <REMARK>
 VINA RESULT:      -5.8      1.803      3.108
  Name = 
  6 active torsions:
  status: ('A' for Active; 'I' for Inactive)
    1  A    between atoms: C_3  and  N_21
    2  A    between atoms: C_4  and  C_22
    3  A    between atoms: O_7  and  C_11
    4  A    between atoms: O_7  and  C_12
    5  A    between atoms: C_11  and  C_20
    6  A    between atoms: C_17  and  C_19
                            x       y       z     vdW  Elec       q    Type
                         _______ _______ _______ _____ _____    ______ ____

>  <TORSDO>
F 6

$$$$
=
 OpenBabel11052410373D

 25 28  0  0  1  0  0  0  0  0999 V2000
  159.0530  212.2130  154.1070 C   0  0  0  0  0  0  0  0  0  0  0  0
  159.6860  210.5920  152.4220 C   0  0  0  0  0  3  0  0  0  0  0  0
  161.1900  211.0860  154.2560 C   0  0  0  0  0  3  0  0  0  0  0  0
  158.7620  211.5080  152.9340 C   0  0  0  0  0  3  0  0  0  0  0  0
  160.9020  210.3770  153.0790 C   0  0  0  0  0  0  0  0  0  0  0  0
  160.2660  212.0010  154.7670 C   0  0  0  0  0  3  0  0  0  0  0  0
  162.0780  209.6620  151.0650 N   0  0  0  0  0  0  0  0  0  0  0  0
  161.8810  209.3990  152.5060 C   0  0  2  0  0  3  0  0  0  0  0  0
  160.8880  205.8040  152.1730 N   0  0  0  0  0  0  0  0  0  0  0  0
  161.4800  207.3980  150.3820 C   0  0  0  0  0  3  0  0  0  0  0  0
  161.9080  208.7900  150.1010 C   0  0  0  0  0  0  0  0  0  0  0  0
  161.4360  207.9830  152.7240 C   0  0  0  0  0  0  0  0  0  0  0  0
  162.1390  209.1830  148.7530 N   0  0  0  0  0  1  0  0  0  0  0  0
  161.1860  207.2690  153.8100 C   0  0  0  0  0  0  0  0  0  0  0  0
  161.2610  207.0670  151.6450 C   0  0  0  0  0  0  0  0  0  0  0  0
  160.8440  205.9260  153.4420 N   0  0  0  0  0  0  0  0  0  0  0  0
  161.3260  208.1320  156.3050 C   0  0  0  0  0  3  0  0  0  0  0  0
  161.2620  207.7400  155.1680 C   0  0  0  0  0  0  0  0  0  0  0  0
  157.6700  214.1590  155.6280 C   0  0  0  0  0  2  0  0  0  0  0  0
  156.7920  213.8400  154.6140 C   0  0  1  0  0  3  0  0  0  0  0  0
  158.1120  213.1450  154.6270 N   0  0  0  0  0  0  0  0  0  0  0  0
  155.7300  212.8810  155.1130 C   0  0  0  0  0  2  0  0  0  0  0  0
  156.1530  212.2930  156.3050 O   0  0  0  0  0  0  0  0  0  0  0  0
  155.4450  211.0940  156.3750 C   0  0  0  0  0  2  0  0  0  0  0  0
  155.4440  210.4280  155.0150 C   0  0  0  0  0  1  0  0  0  0  0  0
  1 21  1  0  0  0  0
  1  6  1  0  0  0  0
  2  4  1  0  0  0  0
  2  5  2  0  0  0  0
  3  6  2  0  0  0  0
  4  1  2  0  0  0  0
  5  3  1  0  0  0  0
  7  8  1  0  0  0  0
  8 12  1  0  0  0  0
  8  5  1  6  0  0  0
  9 16  2  0  0  0  0
 10 15  2  0  0  0  0
 11 10  1  0  0  0  0
 11  7  2  0  0  0  0
 12 14  2  0  0  0  0
 13 11  1  0  0  0  0
 14 18  1  0  0  0  0
 15  9  1  0  0  0  0
 15 12  1  0  0  0  0
 16 14  1  0  0  0  0
 18 17  3  0  0  0  0
 20 21  1  0  0  0  0
 20 22  1  1  0  0  0
 20 19  1  0  0  0  0
 21 19  1  0  0  0  0
 22 23  1  0  0  0  0
 23 24  1  0  0  0  0
 25 24  1  0  0  0  0
M  END
>  <MODEL>
6

>  <REMARK>
 VINA RESULT:      -5.8      4.525      8.582
  Name = 
  6 active torsions:
  status: ('A' for Active; 'I' for Inactive)
    1  A    between atoms: C_3  and  N_21
    2  A    between atoms: C_4  and  C_22
    3  A    between atoms: O_7  and  C_11
    4  A    between atoms: O_7  and  C_12
    5  A    between atoms: C_11  and  C_20
    6  A    between atoms: C_17  and  C_19
                            x       y       z     vdW  Elec       q    Type
                         _______ _______ _______ _____ _____    ______ ____

>  <TORSDO>
F 6

$$$$
=
 OpenBabel11052410373D

 25 28  0  0  1  0  0  0  0  0999 V2000
  159.1070  211.2900  154.5080 C   0  0  0  0  0  0  0  0  0  0  0  0
  161.2630  210.2570  154.1200 C   0  0  0  0  0  3  0  0  0  0  0  0
  159.7330  210.6020  152.2730 C   0  0  0  0  0  3  0  0  0  0  0  0
  160.3360  210.8300  154.9940 C   0  0  0  0  0  3  0  0  0  0  0  0
  160.9670  210.1410  152.7580 C   0  0  0  0  0  0  0  0  0  0  0  0
  158.8070  211.1750  153.1480 C   0  0  0  0  0  3  0  0  0  0  0  0
  162.2590  210.4150  150.7060 N   0  0  0  0  0  0  0  0  0  0  0  0
  161.9720  209.5130  151.8410 C   0  0  2  0  0  3  0  0  0  0  0  0
  160.9750  206.5330  149.8050 N   0  0  0  0  0  0  0  0  0  0  0  0
  161.6870  208.7590  149.0080 C   0  0  0  0  0  3  0  0  0  0  0  0
  162.1410  210.1040  149.4370 C   0  0  0  0  0  0  0  0  0  0  0  0
  161.5040  208.1770  151.3440 C   0  0  0  0  0  0  0  0  0  0  0  0
  162.4560  211.0760  148.4470 N   0  0  0  0  0  1  0  0  0  0  0  0
  161.1840  207.0450  151.9520 C   0  0  0  0  0  0  0  0  0  0  0  0
  161.3880  207.8820  149.9540 C   0  0  0  0  0  0  0  0  0  0  0  0
  160.8550  206.0460  150.9770 N   0  0  0  0  0  0  0  0  0  0  0  0
  161.1790  206.6340  154.5630 C   0  0  0  0  0  3  0  0  0  0  0  0
  161.1800  206.8200  153.3730 C   0  0  0  0  0  0  0  0  0  0  0  0
  156.9820  211.8010  156.3070 C   0  0  0  0  0  2  0  0  0  0  0  0
  157.5700  213.0340  156.1230 C   0  0  1  0  0  3  0  0  0  0  0  0
  158.1630  211.8730  155.3990 N   0  0  0  0  0  0  0  0  0  0  0  0
  156.7680  213.8630  155.1400 C   0  0  0  0  0  2  0  0  0  0  0  0
  155.6410  213.1480  154.7350 O   0  0  0  0  0  0  0  0  0  0  0  0
  155.2290  213.7790  153.5620 C   0  0  0  0  0  2  0  0  0  0  0  0
  156.4380  214.0890  152.7040 C   0  0  0  0  0  1  0  0  0  0  0  0
  1  4  1  0  0  0  0
  1 21  1  0  0  0  0
  2  4  2  0  0  0  0
  3  5  2  0  0  0  0
  3  6  1  0  0  0  0
  5  2  1  0  0  0  0
  6  1  2  0  0  0  0
  7  8  1  0  0  0  0
  8  5  1  1  0  0  0
  9 15  1  0  0  0  0
  9 16  2  0  0  0  0
 10 11  1  0  0  0  0
 10 15  2  0  0  0  0
 11  7  2  0  0  0  0
 12  8  1  0  0  0  0
 12 14  2  0  0  0  0
 13 11  1  0  0  0  0
 14 18  1  0  0  0  0
 15 12  1  0  0  0  0
 16 14  1  0  0  0  0
 18 17  3  0  0  0  0
 20 22  1  6  0  0  0
 20 19  1  0  0  0  0
 21 20  1  0  0  0  0
 21 19  1  0  0  0  0
 23 22  1  0  0  0  0
 24 23  1  0  0  0  0
 25 24  1  0  0  0  0
M  END
>  <MODEL>
7

>  <REMARK>
 VINA RESULT:      -5.7      4.430      8.687
  Name = 
  6 active torsions:
  status: ('A' for Active; 'I' for Inactive)
    1  A    between atoms: C_3  and  N_21
    2  A    between atoms: C_4  and  C_22
    3  A    between atoms: O_7  and  C_11
    4  A    between atoms: O_7  and  C_12
    5  A    between atoms: C_11  and  C_20
    6  A    between atoms: C_17  and  C_19
                            x       y       z     vdW  Elec       q    Type
                         _______ _______ _______ _____ _____    ______ ____

>  <TORSDO>
F 6

$$$$
=
 OpenBabel11052410373D

 25 28  0  0  1  0  0  0  0  0999 V2000
  161.3530  206.5180  150.8640 C   0  0  0  0  0  0  0  0  0  0  0  0
  160.9270  207.9580  152.7640 C   0  0  0  0  0  3  0  0  0  0  0  0
  162.3230  208.7350  150.9420 C   0  0  0  0  0  3  0  0  0  0  0  0
  160.7460  206.7400  152.1050 C   0  0  0  0  0  3  0  0  0  0  0  0
  161.7160  208.9600  152.1870 C   0  0  0  0  0  0  0  0  0  0  0  0
  162.1410  207.5160  150.2840 C   0  0  0  0  0  3  0  0  0  0  0  0
  161.7820  210.0380  154.3750 N   0  0  0  0  0  0  0  0  0  0  0  0
  161.9050  210.2530  152.9180 C   0  0  0  0  0  0  0  0  0  0  0  0
  159.2830  212.9110  152.6350 N   0  0  0  0  0  0  0  0  0  0  0  0
  160.0180  211.6990  154.6570 C   0  0  0  0  0  3  0  0  0  0  0  0
  160.9530  210.6690  155.1710 C   0  0  0  0  0  0  0  0  0  0  0  0
  160.9270  211.2940  152.4570 C   0  0  0  0  0  0  0  0  0  0  0  0
  160.9460  210.3600  156.5600 N   0  0  0  0  0  1  0  0  0  0  0  0
  160.6910  211.8600  151.2840 C   0  0  0  0  0  0  0  0  0  0  0  0
  160.0400  211.9540  153.3580 C   0  0  2  0  0  3  0  0  0  0  0  0
  159.6660  212.8530  151.4200 N   0  0  0  0  0  0  0  0  0  0  0  0
  161.9280  211.3070  149.0140 C   0  0  0  0  0  3  0  0  0  0  0  0
  161.3650  211.5580  150.0490 C   0  0  0  0  0  0  0  0  0  0  0  0
  161.3160  203.7960  150.0860 C   0  0  0  0  0  2  0  0  0  0  0  0
  160.7030  204.4530  149.0400 C   0  0  1  0  0  3  0  0  0  0  0  0
  161.1670  205.2770  150.1930 N   0  0  0  0  0  0  0  0  0  0  0  0
  161.6710  204.6370  147.8880 C   0  0  0  0  0  2  0  0  0  0  0  0
  161.1190  205.5050  146.9460 O   0  0  0  0  0  0  0  0  0  0  0  0
  162.1930  205.8760  146.1390 C   0  0  0  0  0  2  0  0  0  0  0  0
  163.1760  204.7280  146.0480 C   0  0  0  0  0  1  0  0  0  0  0  0
  1  4  1  0  0  0  0
  3  5  2  0  0  0  0
  4  2  2  0  0  0  0
  5  2  1  0  0  0  0
  5  8  1  0  0  0  0
  6  1  2  0  0  0  0
  6  3  1  0  0  0  0
  7 11  1  0  0  0  0
  8  7  2  0  0  0  0
  9 15  1  0  0  0  0
 10 11  2  0  0  0  0
 11 13  1  0  0  0  0
 12  8  1  0  0  0  0
 12 15  1  0  0  0  0
 14 16  1  0  0  0  0
 14 12  2  0  0  0  0
 15 10  1  1  0  0  0
 16  9  2  0  0  0  0
 17 18  3  0  0  0  0
 18 14  1  0  0  0  0
 19 21  1  0  0  0  0
 20 22  1  6  0  0  0
 20 19  1  0  0  0  0
 20 21  1  0  0  0  0
 21  1  1  0  0  0  0
 23 22  1  0  0  0  0
 24 23  1  0  0  0  0
 25 24  1  0  0  0  0
M  END
>  <MODEL>
8

>  <REMARK>
 VINA RESULT:      -5.4      2.097      3.472
  Name = 
  6 active torsions:
  status: ('A' for Active; 'I' for Inactive)
    1  A    between atoms: C_3  and  N_21
    2  A    between atoms: C_4  and  C_22
    3  A    between atoms: O_7  and  C_11
    4  A    between atoms: O_7  and  C_12
    5  A    between atoms: C_11  and  C_20
    6  A    between atoms: C_17  and  C_19
                            x       y       z     vdW  Elec       q    Type
                         _______ _______ _______ _____ _____    ______ ____

>  <TORSDO>
F 6

$$$$
=
 OpenBabel11052410373D

 25 28  0  0  1  0  0  0  0  0999 V2000
  160.6600  203.7390  150.7510 C   0  0  0  0  0  0  0  0  0  0  0  0
  161.1890  204.6540  152.9300 C   0  0  0  0  0  3  0  0  0  0  0  0
  161.2370  206.0800  150.9720 C   0  0  0  0  0  3  0  0  0  0  0  0
  160.8200  203.5690  152.1310 C   0  0  0  0  0  3  0  0  0  0  0  0
  161.3990  205.9120  152.3560 C   0  0  0  0  0  0  0  0  0  0  0  0
  160.8680  204.9940  150.1730 C   0  0  0  0  0  3  0  0  0  0  0  0
  161.4860  206.7570  154.6440 N   0  0  0  0  0  0  0  0  0  0  0  0
  161.8040  207.0580  153.2310 C   0  0  0  0  0  0  0  0  0  0  0  0
  159.9040  210.2770  153.0210 N   0  0  0  0  0  0  0  0  0  0  0  0
  160.1300  208.7600  154.9570 C   0  0  0  0  0  3  0  0  0  0  0  0
  160.7460  207.4980  155.4320 C   0  0  0  0  0  0  0  0  0  0  0  0
  161.1430  208.3360  152.8060 C   0  0  0  0  0  0  0  0  0  0  0  0
  160.5270  207.0850  156.7760 N   0  0  0  0  0  1  0  0  0  0  0  0
  161.1650  209.0380  151.6840 C   0  0  0  0  0  0  0  0  0  0  0  0
  160.3430  209.1100  153.6970 C   0  0  2  0  0  3  0  0  0  0  0  0
  160.3870  210.2310  151.8420 N   0  0  0  0  0  0  0  0  0  0  0  0
  162.4710  208.3970  149.4770 C   0  0  0  0  0  3  0  0  0  0  0  0
  161.8750  208.6890  150.4830 C   0  0  0  0  0  0  0  0  0  0  0  0
  159.9540  201.1930  149.7340 C   0  0  0  0  0  2  0  0  0  0  0  0
  159.9490  202.0110  148.6240 C   0  0  1  0  0  3  0  0  0  0  0  0
  160.2840  202.6330  149.9380 N   0  0  0  0  0  0  0  0  0  0  0  0
  161.2260  201.8340  147.8280 C   0  0  0  0  0  2  0  0  0  0  0  0
  160.9500  201.1400  146.6490 O   0  0  0  0  0  0  0  0  0  0  0  0
  161.5130  199.8790  146.8460 C   0  0  0  0  0  2  0  0  0  0  0  0
  161.2360  199.0090  145.6370 C   0  0  0  0  0  1  0  0  0  0  0  0
  1  4  1  0  0  0  0
  3  5  2  0  0  0  0
  4  2  2  0  0  0  0
  5  2  1  0  0  0  0
  5  8  1  0  0  0  0
  6  1  2  0  0  0  0
  6  3  1  0  0  0  0
  7 11  1  0  0  0  0
  8  7  2  0  0  0  0
  9 15  1  0  0  0  0
 10 11  2  0  0  0  0
 11 13  1  0  0  0  0
 12  8  1  0  0  0  0
 12 15  1  0  0  0  0
 14 16  1  0  0  0  0
 14 12  2  0  0  0  0
 15 10  1  1  0  0  0
 16  9  2  0  0  0  0
 17 18  3  0  0  0  0
 18 14  1  0  0  0  0
 19 21  1  0  0  0  0
 20 22  1  6  0  0  0
 20 19  1  0  0  0  0
 20 21  1  0  0  0  0
 21  1  1  0  0  0  0
 23 24  1  0  0  0  0
 23 22  1  0  0  0  0
 25 24  1  0  0  0  0
M  END
>  <MODEL>
9

>  <REMARK>
 VINA RESULT:      -5.3      2.350      3.309
  Name = 
  6 active torsions:
  status: ('A' for Active; 'I' for Inactive)
    1  A    between atoms: C_3  and  N_21
    2  A    between atoms: C_4  and  C_22
    3  A    between atoms: O_7  and  C_11
    4  A    between atoms: O_7  and  C_12
    5  A    between atoms: C_11  and  C_20
    6  A    between atoms: C_17  and  C_19
                            x       y       z     vdW  Elec       q    Type
                         _______ _______ _______ _____ _____    ______ ____

>  <TORSDO>
F 6

$$$$
