=
 OpenBabel11052412063D

 50 53  0  0  1  0  0  0  0  0999 V2000
  162.9290  210.8800  148.0800 O   0  0  0  0  0  0  0  0  0  0  0  0
  159.3200  213.1460  149.7730 C   0  0  0  0  0  0  0  0  0  0  0  0
  160.3160  212.3100  147.8890 C   0  0  0  0  0  0  0  0  0  0  0  0
  160.5570  210.5120  152.9010 C   0  0  0  0  0  2  0  0  0  0  0  0
  160.9770  211.9490  148.9810 C   0  0  0  0  0  0  0  0  0  0  0  0
  159.1450  213.1580  148.2840 C   0  0  2  0  0  3  0  0  0  0  0  0
  160.0550  211.3550  154.0280 C   0  0  1  0  0  3  0  0  0  0  0  0
  158.5250  213.9650  150.7430 C   0  0  0  0  0  2  0  0  0  0  0  0
  160.3590  212.4800  150.1450 N   0  0  0  0  0  0  0  0  0  0  0  0
  157.5440  213.1400  151.5830 C   0  0  1  0  0  3  0  0  0  0  0  0
  159.3210  214.4530  147.7980 O   0  0  0  0  0  1  0  0  0  0  0  0
  162.6430  210.7910  150.3980 N   0  0  0  0  0  0  0  0  0  0  0  0
  162.2200  211.1540  149.0840 C   0  0  0  0  0  0  0  0  0  0  0  0
  160.6670  211.9420  146.4870 C   0  0  0  0  0  1  0  0  0  0  0  0
  161.8200  210.2470  152.5600 C   0  0  1  0  0  3  0  0  0  0  0  0
  161.9260  209.9800  151.1120 C   0  0  0  0  0  0  0  0  0  0  0  0
  158.1790  212.0260  152.4240 C   0  0  0  0  0  2  0  0  0  0  0  0
  159.2090  212.5100  153.4590 C   0  0  0  0  0  2  0  0  0  0  0  0
  156.6760  214.0260  152.4160 C   0  0  0  0  0  0  0  0  0  0  0  0
  155.5400  214.3640  151.9910 O   0  0  0  0  0  0  0  0  0  0  0  0
  157.0970  214.4520  153.6700 O   0  0  0  0  0  1  0  0  0  0  0  0
  159.7780  209.3320  155.3540 C   0  0  0  0  0  3  0  0  0  0  0  0
  159.2960  210.5400  155.0340 C   0  0  0  0  0  0  0  0  0  0  0  0
  156.9690  210.2970  155.4540 O   0  0  0  0  0  1  0  0  0  0  0  0
  158.0770  211.1070  155.7100 C   0  0  0  0  0  2  0  0  0  0  0  0
  159.1390  208.4400  156.3720 C   0  0  0  0  0  2  0  0  0  0  0  0
  159.6130  207.0770  156.1950 N   0  0  0  0  0  2  0  0  0  0  0  0
  159.9680  206.9200  154.7930 C   0  0  0  0  0  2  0  0  0  0  0  0
  161.2390  206.0970  154.6570 C   0  0  0  0  0  2  0  0  0  0  0  0
  161.5700  205.8770  153.1900 C   0  0  0  0  0  2  0  0  0  0  0  0
  160.7110  204.7590  152.6250 C   0  0  0  0  0  2  0  0  0  0  0  0
  160.9250  204.1360  150.3810 C   0  0  0  0  0  2  0  0  0  0  0  0
  161.0660  201.7750  150.7490 C   0  0  0  0  0  2  0  0  0  0  0  0
  161.2300  202.5490  152.0410 C   0  0  0  0  0  2  0  0  0  0  0  0
  161.0100  202.8130  149.6570 C   0  0  0  0  0  2  0  0  0  0  0  0
  161.4900  203.9420  151.7070 N   0  0  0  0  0  0  0  0  0  0  0  0
  162.9950  210.7760  153.3560 C   0  0  2  0  0  3  0  0  0  0  0  0
  164.2720  210.7380  152.5290 C   0  0  0  0  0  1  0  0  0  0  0  0
  162.9880  210.9040  155.5710 C   0  0  0  0  0  1  0  0  0  0  0  0
  163.1900  210.0150  154.5130 O   0  0  0  0  0  0  0  0  0  0  0  0
  161.0510  209.0850  150.4720 O   0  0  0  0  0  0  0  0  0  0  0  0
  162.6610  207.2930  150.7940 C   0  0  0  0  0  2  0  0  0  0  0  0
  161.4960  207.4640  148.0210 C   0  0  1  0  0  3  0  0  0  0  0  0
  163.4070  206.7950  149.5520 C   0  0  0  0  0  2  0  0  0  0  0  0
  161.1920  207.6690  150.5300 C   0  0  2  0  0  3  0  0  0  0  0  0
  160.6600  207.0440  149.2400 C   0  0  0  0  0  2  0  0  0  0  0  0
  163.0000  207.5910  148.3140 C   0  0  0  0  0  2  0  0  0  0  0  0
  161.2490  206.5360  146.8790 C   0  0  0  0  0  0  0  0  0  0  0  0
  159.9490  206.2960  146.4590 O   0  0  0  0  0  1  0  0  0  0  0  0
  162.2090  205.9510  146.3080 O   0  0  0  0  0  0  0  0  0  0  0  0
  1 13  2  0  0  0  0
  2  9  2  0  0  0  0
  2  8  1  0  0  0  0
  3  6  1  0  0  0  0
  3  5  2  0  0  0  0
  4  7  1  0  0  0  0
  5 13  1  0  0  0  0
  5  9  1  0  0  0  0
  6 11  1  6  0  0  0
  6  2  1  0  0  0  0
  7 23  1  1  0  0  0
  8 10  1  0  0  0  0
 10 19  1  1  0  0  0
 10 17  1  0  0  0  0
 12 16  2  0  0  0  0
 13 12  1  0  0  0  0
 14  3  1  0  0  0  0
 15  4  1  0  0  0  0
 15 37  1  6  0  0  0
 16 15  1  0  0  0  0
 17 18  1  0  0  0  0
 18  7  1  0  0  0  0
 19 21  1  0  0  0  0
 20 19  2  0  0  0  0
 22 26  1  0  0  0  0
 23 22  2  0  0  0  0
 23 25  1  0  0  0  0
 24 25  1  0  0  0  0
 27 26  1  0  0  0  0
 28 27  1  0  0  0  0
 29 28  1  0  0  0  0
 30 29  1  0  0  0  0
 31 30  1  0  0  0  0
 32 36  1  0  0  0  0
 33 34  1  0  0  0  0
 35 32  1  0  0  0  0
 35 33  1  0  0  0  0
 36 34  1  0  0  0  0
 36 31  1  0  0  0  0
 37 38  1  6  0  0  0
 37 40  1  0  0  0  0
 40 39  1  0  0  0  0
 41 16  1  0  0  0  0
 43 48  1  6  0  0  0
 43 47  1  0  0  0  0
 43 46  1  0  0  0  0
 44 42  1  0  0  0  0
 45 41  1  6  0  0  0
 45 42  1  0  0  0  0
 46 45  1  0  0  0  0
 47 44  1  0  0  0  0
 49 48  1  0  0  0  0
 50 48  2  0  0  0  0
M  END
>  <MODEL>
1

>  <REMARK>
 VINA RESULT:      -0.9      0.000      0.000
  Name = 
  15 active torsions:
  status: ('A' for Active; 'I' for Inactive)
    1  A    between atoms: N_1  and  C_5
    2  A    between atoms: N_1  and  C_15
    3  A    between atoms: C_2  and  C_25
    4  A    between atoms: C_5  and  C_26
    5  A    between atoms: C_7  and  C_30
    6  A    between atoms: C_7  and  C_48
    7  A    between atoms: C_8  and  C_17
    8  A    between atoms: C_15  and  C_48
    9  A    between atoms: C_19  and  C_47
   10  A    between atoms: C_22  and  O_46
   11  A    between atoms: C_29  and  C_39
   12  A    between atoms: C_29  and  O_45
   13  A    between atoms: C_30  and  N_44
   14  A    between atoms: C_35  and  C_47
   15  A    between atoms: C_41  and  O_46
                            x       y       z     vdW  Elec       q    Type
                         _______ _______ _______ _____ _____    ______ ____

>  <TORSDO>
F 15

$$$$
=
 OpenBabel11052412063D

 50 53  0  0  1  0  0  0  0  0999 V2000
  160.7530  211.4370  155.6940 O   0  0  0  0  0  0  0  0  0  0  0  0
  160.8570  206.9470  154.7740 C   0  0  0  0  0  0  0  0  0  0  0  0
  160.0360  208.5770  156.1560 C   0  0  0  0  0  0  0  0  0  0  0  0
  161.3200  208.8750  150.9900 C   0  0  0  0  0  2  0  0  0  0  0  0
  160.7000  209.1030  155.1350 C   0  0  0  0  0  0  0  0  0  0  0  0
  160.0720  207.0830  156.0440 C   0  0  2  0  0  3  0  0  0  0  0  0
  162.0910  207.7730  150.3420 C   0  0  1  0  0  3  0  0  0  0  0  0
  161.3650  205.6570  154.2070 C   0  0  0  0  0  2  0  0  0  0  0  0
  161.2150  208.0850  154.2880 N   0  0  0  0  0  0  0  0  0  0  0  0
  160.6260  205.2100  152.9410 C   0  0  1  0  0  3  0  0  0  0  0  0
  160.8000  206.5530  157.1090 O   0  0  0  0  0  1  0  0  0  0  0  0
  161.5940  210.8270  153.6010 N   0  0  0  0  0  0  0  0  0  0  0  0
  160.9710  210.5290  154.8490 C   0  0  0  0  0  0  0  0  0  0  0  0
  159.3580  209.3340  157.2460 C   0  0  0  0  0  1  0  0  0  0  0  0
  161.7450  210.0900  151.3460 C   0  0  1  0  0  3  0  0  0  0  0  0
  160.9650  210.6030  152.4890 C   0  0  0  0  0  0  0  0  0  0  0  0
  160.6660  206.2050  151.7750 C   0  0  0  0  0  2  0  0  0  0  0  0
  162.0770  206.5360  151.2610 C   0  0  0  0  0  2  0  0  0  0  0  0
  161.0710  203.8490  152.5130 C   0  0  0  0  0  0  0  0  0  0  0  0
  162.1330  203.7200  151.8500 O   0  0  0  0  0  0  0  0  0  0  0  0
  160.3390  202.7220  152.8670 O   0  0  0  0  0  1  0  0  0  0  0  0
  161.2990  206.1850  148.6740 C   0  0  0  0  0  3  0  0  0  0  0  0
  161.5680  207.4640  148.9690 C   0  0  0  0  0  0  0  0  0  0  0  0
  162.4140  209.3850  147.8560 O   0  0  0  0  0  1  0  0  0  0  0  0
  161.2870  208.5750  147.9940 C   0  0  0  0  0  2  0  0  0  0  0  0
  160.7350  205.7510  147.3570 C   0  0  0  0  0  2  0  0  0  0  0  0
  161.7970  205.2170  146.5210 N   0  0  0  0  0  2  0  0  0  0  0  0
  161.2640  205.0830  145.1750 C   0  0  0  0  0  2  0  0  0  0  0  0
  160.7380  203.6730  144.9510 C   0  0  0  0  0  2  0  0  0  0  0  0
  161.1390  202.7730  146.1080 C   0  0  0  0  0  2  0  0  0  0  0  0
  160.4460  201.4260  145.9840 C   0  0  0  0  0  2  0  0  0  0  0  0
  159.4990  201.5550  148.1180 C   0  0  0  0  0  2  0  0  0  0  0  0
  161.5240  201.2310  149.3530 C   0  0  0  0  0  2  0  0  0  0  0  0
  161.7080  200.8960  147.8870 C   0  0  0  0  0  2  0  0  0  0  0  0
  160.0540  201.5220  149.5220 C   0  0  0  0  0  2  0  0  0  0  0  0
  160.3900  200.7680  147.2800 N   0  0  0  0  0  0  0  0  0  0  0  0
  163.1620  210.5540  151.0820 C   0  0  2  0  0  3  0  0  0  0  0  0
  163.9250  210.7370  152.3860 C   0  0  0  0  0  1  0  0  0  0  0  0
  162.1550  211.6430  149.4320 C   0  0  0  0  0  1  0  0  0  0  0  0
  163.1630  211.7700  150.3900 O   0  0  0  0  0  0  0  0  0  0  0  0
  159.5590  210.5610  152.4880 O   0  0  0  0  0  0  0  0  0  0  0  0
  159.5230  212.9020  151.8350 C   0  0  0  0  0  2  0  0  0  0  0  0
  157.7390  212.2100  154.1610 C   0  0  1  0  0  3  0  0  0  0  0  0
  159.1390  213.9200  152.9130 C   0  0  0  0  0  2  0  0  0  0  0  0
  158.7410  211.5790  151.9190 C   0  0  2  0  0  3  0  0  0  0  0  0
  157.4550  211.7210  152.7330 C   0  0  0  0  0  2  0  0  0  0  0  0
  158.8860  213.2300  154.2510 C   0  0  0  0  0  2  0  0  0  0  0  0
  156.4930  212.7480  154.7830 C   0  0  0  0  0  0  0  0  0  0  0  0
  156.1820  212.4160  156.0930 O   0  0  0  0  0  1  0  0  0  0  0  0
  155.7120  213.4830  154.1210 O   0  0  0  0  0  0  0  0  0  0  0  0
  2  6  1  0  0  0  0
  3 14  1  0  0  0  0
  4 15  1  0  0  0  0
  5  3  2  0  0  0  0
  6  3  1  0  0  0  0
  6 11  1  1  0  0  0
  7 23  1  6  0  0  0
  7  4  1  0  0  0  0
  7 18  1  0  0  0  0
  8  2  1  0  0  0  0
  9  2  2  0  0  0  0
  9  5  1  0  0  0  0
 10 19  1  6  0  0  0
 10  8  1  0  0  0  0
 12 13  1  0  0  0  0
 13  5  1  0  0  0  0
 13  1  2  0  0  0  0
 15 37  1  1  0  0  0
 15 16  1  0  0  0  0
 16 12  2  0  0  0  0
 17 10  1  0  0  0  0
 18 17  1  0  0  0  0
 19 21  1  0  0  0  0
 20 19  2  0  0  0  0
 22 23  2  0  0  0  0
 24 25  1  0  0  0  0
 25 23  1  0  0  0  0
 26 22  1  0  0  0  0
 27 26  1  0  0  0  0
 28 27  1  0  0  0  0
 29 28  1  0  0  0  0
 29 30  1  0  0  0  0
 31 30  1  0  0  0  0
 31 36  1  0  0  0  0
 32 35  1  0  0  0  0
 33 35  1  0  0  0  0
 34 33  1  0  0  0  0
 36 34  1  0  0  0  0
 36 32  1  0  0  0  0
 37 38  1  1  0  0  0
 39 40  1  0  0  0  0
 40 37  1  0  0  0  0
 41 16  1  0  0  0  0
 42 45  1  0  0  0  0
 42 44  1  0  0  0  0
 43 47  1  0  0  0  0
 43 48  1  6  0  0  0
 44 47  1  0  0  0  0
 45 41  1  1  0  0  0
 45 46  1  0  0  0  0
 46 43  1  0  0  0  0
 48 49  1  0  0  0  0
 50 48  2  0  0  0  0
M  END
>  <MODEL>
2

>  <REMARK>
 VINA RESULT:      -0.6      2.532      7.920
  Name = 
  15 active torsions:
  status: ('A' for Active; 'I' for Inactive)
    1  A    between atoms: N_1  and  C_5
    2  A    between atoms: N_1  and  C_15
    3  A    between atoms: C_2  and  C_25
    4  A    between atoms: C_5  and  C_26
    5  A    between atoms: C_7  and  C_30
    6  A    between atoms: C_7  and  C_48
    7  A    between atoms: C_8  and  C_17
    8  A    between atoms: C_15  and  C_48
    9  A    between atoms: C_19  and  C_47
   10  A    between atoms: C_22  and  O_46
   11  A    between atoms: C_29  and  C_39
   12  A    between atoms: C_29  and  O_45
   13  A    between atoms: C_30  and  N_44
   14  A    between atoms: C_35  and  C_47
   15  A    between atoms: C_41  and  O_46
                            x       y       z     vdW  Elec       q    Type
                         _______ _______ _______ _____ _____    ______ ____

>  <TORSDO>
F 15

$$$$
=
 OpenBabel11052412063D

 50 53  0  0  1  0  0  0  0  0999 V2000
  160.9220  211.3090  155.6580 O   0  0  0  0  0  0  0  0  0  0  0  0
  160.9610  206.8530  154.5790 C   0  0  0  0  0  0  0  0  0  0  0  0
  160.2170  208.4360  156.0560 C   0  0  0  0  0  0  0  0  0  0  0  0
  161.2410  208.9120  150.8460 C   0  0  0  0  0  2  0  0  0  0  0  0
  160.8310  208.9960  155.0220 C   0  0  0  0  0  0  0  0  0  0  0  0
  160.2410  206.9470  155.8910 C   0  0  2  0  0  3  0  0  0  0  0  0
  161.9740  207.8300  150.1220 C   0  0  1  0  0  3  0  0  0  0  0  0
  161.4340  205.5820  153.9430 C   0  0  0  0  0  2  0  0  0  0  0  0
  161.2990  208.0070  154.1160 N   0  0  0  0  0  0  0  0  0  0  0  0
  160.6310  205.1820  152.7000 C   0  0  1  0  0  3  0  0  0  0  0  0
  161.0190  206.3780  156.8990 O   0  0  0  0  0  1  0  0  0  0  0  0
  161.6540  210.7700  153.5060 N   0  0  0  0  0  0  0  0  0  0  0  0
  161.0940  210.4300  154.7730 C   0  0  0  0  0  0  0  0  0  0  0  0
  159.5980  209.1570  157.2060 C   0  0  0  0  0  1  0  0  0  0  0  0
  161.6890  210.1120  151.2220 C   0  0  1  0  0  3  0  0  0  0  0  0
  160.9690  210.5870  152.4200 C   0  0  0  0  0  0  0  0  0  0  0  0
  160.6160  206.2170  151.5700 C   0  0  0  0  0  2  0  0  0  0  0  0
  162.0010  206.5620  150.9970 C   0  0  0  0  0  2  0  0  0  0  0  0
  161.0480  203.8360  152.2040 C   0  0  0  0  0  0  0  0  0  0  0  0
  160.1850  202.9320  152.0540 O   0  0  0  0  0  1  0  0  0  0  0  0
  162.3740  203.5830  151.8750 O   0  0  0  0  0  0  0  0  0  0  0  0
  160.9350  206.3360  148.5040 C   0  0  0  0  0  3  0  0  0  0  0  0
  161.3810  207.5710  148.7670 C   0  0  0  0  0  0  0  0  0  0  0  0
  162.3400  209.5360  147.8350 O   0  0  0  0  0  1  0  0  0  0  0  0
  161.2290  208.6920  147.7750 C   0  0  0  0  0  2  0  0  0  0  0  0
  160.2870  205.9590  147.2090 C   0  0  0  0  0  2  0  0  0  0  0  0
  161.3020  205.5440  146.2560 N   0  0  0  0  0  2  0  0  0  0  0  0
  160.7500  205.7370  144.9230 C   0  0  0  0  0  2  0  0  0  0  0  0
  161.8450  205.6270  143.8750 C   0  0  0  0  0  2  0  0  0  0  0  0
  161.4410  206.3690  142.6110 C   0  0  0  0  0  2  0  0  0  0  0  0
  162.1700  205.7890  141.4110 C   0  0  0  0  0  2  0  0  0  0  0  0
  161.5100  207.8770  140.5920 C   0  0  0  0  0  2  0  0  0  0  0  0
  161.7500  207.3650  138.2660 C   0  0  0  0  0  2  0  0  0  0  0  0
  162.4000  206.3100  139.1370 C   0  0  0  0  0  2  0  0  0  0  0  0
  161.2980  208.4490  139.2110 C   0  0  0  0  0  2  0  0  0  0  0  0
  162.5330  206.8480  140.4830 N   0  0  0  0  0  0  0  0  0  0  0  0
  163.0930  210.5810  150.9040 C   0  0  2  0  0  3  0  0  0  0  0  0
  163.9370  210.6650  152.1670 C   0  0  0  0  0  1  0  0  0  0  0  0
  162.0290  211.7790  149.3680 C   0  0  0  0  0  1  0  0  0  0  0  0
  163.0660  211.8430  150.3000 O   0  0  0  0  0  0  0  0  0  0  0  0
  159.5650  210.5490  152.4890 O   0  0  0  0  0  0  0  0  0  0  0  0
  159.5090  212.9160  151.9440 C   0  0  0  0  0  2  0  0  0  0  0  0
  157.8470  212.1270  154.3290 C   0  0  1  0  0  3  0  0  0  0  0  0
  159.1890  213.8870  153.0860 C   0  0  0  0  0  2  0  0  0  0  0  0
  158.7240  211.5950  152.0110 C   0  0  2  0  0  3  0  0  0  0  0  0
  157.4840  211.7040  152.8980 C   0  0  0  0  0  2  0  0  0  0  0  0
  159.0040  213.1370  154.4040 C   0  0  0  0  0  2  0  0  0  0  0  0
  156.6400  212.6410  155.0400 C   0  0  0  0  0  0  0  0  0  0  0  0
  156.5300  213.9960  155.3130 O   0  0  0  0  0  0  0  0  0  0  0  0
  155.7310  211.8520  155.4140 O   0  0  0  0  0  1  0  0  0  0  0  0
  2  6  1  0  0  0  0
  3 14  1  0  0  0  0
  4 15  1  0  0  0  0
  5  3  2  0  0  0  0
  6  3  1  0  0  0  0
  6 11  1  1  0  0  0
  7 23  1  6  0  0  0
  7  4  1  0  0  0  0
  7 18  1  0  0  0  0
  8  2  1  0  0  0  0
  9  2  2  0  0  0  0
  9  5  1  0  0  0  0
 10 19  1  6  0  0  0
 10  8  1  0  0  0  0
 12 13  1  0  0  0  0
 13  5  1  0  0  0  0
 13  1  2  0  0  0  0
 15 37  1  1  0  0  0
 15 16  1  0  0  0  0
 16 41  1  0  0  0  0
 16 12  2  0  0  0  0
 17 10  1  0  0  0  0
 18 17  1  0  0  0  0
 20 19  1  0  0  0  0
 21 19  2  0  0  0  0
 22 23  2  0  0  0  0
 25 24  1  0  0  0  0
 25 23  1  0  0  0  0
 26 22  1  0  0  0  0
 27 26  1  0  0  0  0
 28 27  1  0  0  0  0
 29 28  1  0  0  0  0
 30 29  1  0  0  0  0
 31 30  1  0  0  0  0
 33 34  1  0  0  0  0
 33 35  1  0  0  0  0
 34 36  1  0  0  0  0
 35 32  1  0  0  0  0
 36 32  1  0  0  0  0
 36 31  1  0  0  0  0
 37 38  1  1  0  0  0
 39 40  1  0  0  0  0
 40 37  1  0  0  0  0
 42 45  1  0  0  0  0
 42 44  1  0  0  0  0
 43 47  1  0  0  0  0
 43 48  1  6  0  0  0
 44 47  1  0  0  0  0
 45 41  1  1  0  0  0
 45 46  1  0  0  0  0
 46 43  1  0  0  0  0
 48 49  2  0  0  0  0
 48 50  1  0  0  0  0
M  END
>  <MODEL>
3

>  <REMARK>
 VINA RESULT:       0.9      3.578      8.916
  Name = 
  15 active torsions:
  status: ('A' for Active; 'I' for Inactive)
    1  A    between atoms: N_1  and  C_5
    2  A    between atoms: N_1  and  C_15
    3  A    between atoms: C_2  and  C_25
    4  A    between atoms: C_5  and  C_26
    5  A    between atoms: C_7  and  C_30
    6  A    between atoms: C_7  and  C_48
    7  A    between atoms: C_8  and  C_17
    8  A    between atoms: C_15  and  C_48
    9  A    between atoms: C_19  and  C_47
   10  A    between atoms: C_22  and  O_46
   11  A    between atoms: C_29  and  C_39
   12  A    between atoms: C_29  and  O_45
   13  A    between atoms: C_30  and  N_44
   14  A    between atoms: C_35  and  C_47
   15  A    between atoms: C_41  and  O_46
                            x       y       z     vdW  Elec       q    Type
                         _______ _______ _______ _____ _____    ______ ____

>  <TORSDO>
F 15

$$$$
