=
 OpenBabel11052409533D

 56 60  0  0  1  0  0  0  0  0999 V2000
  161.2870  210.7230  148.7240 C   0  0  2  0  0  3  0  0  0  0  0  0
  161.6620  211.0740  150.1610 C   0  0  0  0  0  2  0  0  0  0  0  0
  161.6560  208.3720  148.9790 C   0  0  2  0  0  3  0  0  0  0  0  0
  162.0980  209.5870  148.2870 N   0  0  0  0  0  2  0  0  0  0  0  0
  161.6520  207.5690  151.2430 O   0  0  0  0  0  0  0  0  0  0  0  0
  161.6410  208.5710  150.4770 C   0  0  0  0  0  0  0  0  0  0  0  0
  161.5330  209.8990  151.0250 N   0  0  0  0  0  0  0  0  0  0  0  0
  162.1530  206.4730  147.4720 C   0  0  0  0  0  0  0  0  0  0  0  0
  161.2270  203.9600  147.9970 C   0  0  0  0  0  0  0  0  0  0  0  0
  162.5720  207.2160  148.5830 C   0  0  1  0  0  0  0  0  0  0  0  0
  161.6360  204.6900  149.1760 C   0  0  0  0  0  3  0  0  0  0  0  0
  161.7770  205.8490  146.3230 C   0  0  0  0  0  3  0  0  0  0  0  0
  163.9440  207.3630  148.6820 F   0  0  0  0  0  0  0  0  0  0  0  0
  162.0870  205.9250  148.8260 C   0  0  0  0  0  0  0  0  0  0  0  0
  161.2990  204.5300  146.6420 C   0  0  0  0  0  3  0  0  0  0  0  0
  160.2710  202.1870  149.2550 O   0  0  0  0  0  0  0  0  0  0  0  0
  160.7250  202.5770  148.1450 C   0  0  0  0  0  0  0  0  0  0  0  0
  160.7090  201.6250  146.9870 C   0  0  0  0  0  2  0  0  0  0  0  0
  161.2860  199.3500  146.3290 N   0  0  0  0  0  1  0  0  0  0  0  0
  161.5920  200.4200  147.2660 C   0  0  0  0  0  2  0  0  0  0  0  0
  161.7870  214.1280  146.1330 C   0  0  0  0  0  3  0  0  0  0  0  0
  162.5380  214.0380  147.3050 C   0  0  0  0  0  3  0  0  0  0  0  0
  162.3820  212.9390  148.1520 C   0  0  0  0  0  3  0  0  0  0  0  0
  161.4820  211.9120  147.8270 C   0  0  0  0  0  0  0  0  0  0  0  0
  160.8800  213.1190  145.8030 C   0  0  0  0  0  0  0  0  0  0  0  0
  160.7290  212.0090  146.6460 C   0  0  0  0  0  3  0  0  0  0  0  0
  160.0360  213.2640  144.5880 C   0  0  0  0  0  2  0  0  0  0  0  0
  160.4650  212.2950  143.4950 C   0  0  0  0  0  2  0  0  0  0  0  0
  161.6540  212.8650  142.7410 C   0  0  0  0  0  2  0  0  0  0  0  0
  161.1960  213.7300  141.5780 C   0  0  0  0  0  2  0  0  0  0  0  0
  161.5080  213.0610  140.3190 N   0  0  0  0  0  0  0  0  0  0  0  0
  159.5500  211.8170  140.0830 O   0  0  0  0  0  0  0  0  0  0  0  0
  160.8080  211.8480  140.0040 C   0  0  0  0  0  0  0  0  0  0  0  0
  163.2280  214.4400  137.2020 C   0  0  0  0  0  2  0  0  0  0  0  0
  162.2070  213.8750  138.1490 C   0  0  0  0  0  3  0  0  0  0  0  0
  163.8630  213.7600  139.8810 N   0  0  0  0  0  2  0  0  0  0  0  0
  162.5060  213.6050  139.4290 C   0  0  0  0  0  0  0  0  0  0  0  0
  164.6330  213.9770  137.5760 C   0  0  0  0  0  2  0  0  0  0  0  0
  164.9010  214.3410  139.0330 C   0  0  0  0  0  2  0  0  0  0  0  0
  162.2830  210.0520  140.4490 O   0  0  0  0  0  0  0  0  0  0  0  0
  161.5340  210.6270  139.6130 C   0  0  0  0  0  0  0  0  0  0  0  0
  161.3700  210.1220  138.3120 O   0  0  0  0  0  0  0  0  0  0  0  0
  161.4330  208.7670  137.9460 C   0  0  0  0  0  3  0  0  0  0  0  0
  160.4020  208.0810  137.4820 C   0  0  0  0  0  2  0  0  0  0  0  0
  161.5640  210.1100  152.4640 C   0  0  0  0  0  2  0  0  0  0  0  0
  160.8120  211.3820  152.8420 C   0  0  0  0  0  2  0  0  0  0  0  0
  159.7970  211.1140  153.8520 N   0  0  0  0  0  2  0  0  0  0  0  0
  159.5340  212.3500  154.5780 C   0  0  0  0  0  2  0  0  0  0  0  0
  159.4170  212.0750  156.0680 C   0  0  0  0  0  2  0  0  0  0  0  0
  160.6050  211.2580  156.5430 C   0  0  0  0  0  2  0  0  0  0  0  0
  160.1480  210.0460  157.1980 N   0  0  0  0  0  0  0  0  0  0  0  0
  159.0820  209.5960  156.4910 O   0  0  0  0  0  1  0  0  0  0  0  0
  161.2090  209.0660  157.0310 C   0  0  0  0  0  2  0  0  0  0  0  0
  160.6520  207.7960  156.4850 C   0  0  0  0  0  0  0  0  0  0  0  0
  160.3770  206.8410  157.2600 O   0  0  0  0  0  1  0  0  0  0  0  0
  160.4880  207.6450  155.1140 O   0  0  0  0  0  0  0  0  0  0  0  0
  1 24  1  6  0  0  0
  1  2  1  0  0  0  0
  2  7  1  0  0  0  0
  3  4  1  6  0  0  0
  3  6  1  0  0  0  0
  4  1  1  0  0  0  0
  6  7  1  0  0  0  0
  6  5  2  0  0  0  0
  7 45  1  0  0  0  0
  8 10  1  0  0  0  0
  8 14  1  0  0  0  0
  9 17  1  0  0  0  0
  9 11  1  0  0  0  0
 10 13  1  1  0  0  0
 10 14  1  0  0  0  0
 10  3  1  0  0  0  0
 12 15  1  0  0  0  0
 12  8  2  0  0  0  0
 14 11  2  0  0  0  0
 15  9  2  0  0  0  0
 17 16  2  0  0  0  0
 18 20  1  0  0  0  0
 18 17  1  0  0  0  0
 19 20  1  0  0  0  0
 21 22  1  0  0  0  0
 22 23  2  0  0  0  0
 24 23  1  0  0  0  0
 25 21  2  0  0  0  0
 25 26  1  0  0  0  0
 26 24  2  0  0  0  0
 27 25  1  0  0  0  0
 28 27  1  0  0  0  0
 29 28  1  0  0  0  0
 30 29  1  0  0  0  0
 31 30  1  0  0  0  0
 33 32  2  0  0  0  0
 33 31  1  0  0  0  0
 34 38  1  0  0  0  0
 34 35  1  0  0  0  0
 35 37  2  0  0  0  0
 37 36  1  0  0  0  0
 37 31  1  0  0  0  0
 38 39  1  0  0  0  0
 39 36  1  0  0  0  0
 41 33  1  0  0  0  0
 41 40  2  0  0  0  0
 42 41  1  0  0  0  0
 43 42  1  0  0  0  0
 44 43  2  0  0  0  0
 45 46  1  0  0  0  0
 46 47  1  0  0  0  0
 47 48  1  0  0  0  0
 48 49  1  0  0  0  0
 49 50  1  0  0  0  0
 50 51  1  0  0  0  0
 52 51  1  0  0  0  0
 53 51  1  0  0  0  0
 54 53  1  0  0  0  0
 54 55  1  0  0  0  0
 56 54  2  0  0  0  0
M  END
>  <MODEL>
1

>  <REMARK>
 VINA RESULT:      -5.5      0.000      0.000
  Name = 
  23 active torsions:
  status: ('A' for Active; 'I' for Inactive)
    1  A    between atoms: C_6  and  C_15
    2  A    between atoms: C_6  and  N_56
    3  A    between atoms: C_8  and  C_44
    4  A    between atoms: N_9  and  C_15
    5  A    between atoms: N_9  and  C_31
    6  A    between atoms: C_10  and  C_22
    7  A    between atoms: C_13  and  N_23
    8  A    between atoms: C_13  and  C_30
    9  A    between atoms: C_14  and  O_33
   10  A    between atoms: C_16  and  C_48
   11  A    between atoms: C_17  and  N_23
   12  A    between atoms: C_24  and  C_35
   13  A    between atoms: C_25  and  C_41
   14  A    between atoms: C_28  and  C_31
   15  A    between atoms: C_28  and  C_34
   16  A    between atoms: C_30  and  C_47
   17  A    between atoms: O_33  and  C_36
   18  A    between atoms: C_34  and  N_43
   19  A    between atoms: C_36  and  C_55
   20  A    between atoms: C_37  and  C_39
   21  A    between atoms: C_39  and  C_47
   22  A    between atoms: C_41  and  C_48
   23  A    between atoms: N_43  and  C_44
                            x       y       z     vdW  Elec       q    Type
                         _______ _______ _______ _____ _____    ______ ____

>  <TORSDO>
F 23

$$$$
=
 OpenBabel11052409533D

 56 60  0  0  1  0  0  0  0  0999 V2000
  161.4100  209.9950  152.2300 C   0  0  2  0  0  3  0  0  0  0  0  0
  160.2050  210.9140  152.4100 C   0  0  0  0  0  2  0  0  0  0  0  0
  162.1020  210.9610  150.1520 C   0  0  2  0  0  3  0  0  0  0  0  0
  161.6060  209.7440  150.8020 N   0  0  0  0  0  2  0  0  0  0  0  0
  161.2480  213.1620  149.7050 O   0  0  0  0  0  0  0  0  0  0  0  0
  161.2070  212.1440  150.4480 C   0  0  0  0  0  0  0  0  0  0  0  0
  160.3710  212.1360  151.6200 N   0  0  0  0  0  0  0  0  0  0  0  0
  162.6770  211.7960  147.8950 C   0  0  0  0  0  0  0  0  0  0  0  0
  160.8260  213.0410  146.3230 C   0  0  0  0  0  0  0  0  0  0  0  0
  162.2100  210.7120  148.6500 C   0  0  1  0  0  0  0  0  0  0  0  0
  160.2930  211.9370  147.0900 C   0  0  0  0  0  3  0  0  0  0  0  0
  163.2420  212.8260  147.2110 C   0  0  0  0  0  3  0  0  0  0  0  0
  162.6290  209.4760  148.1880 F   0  0  0  0  0  0  0  0  0  0  0  0
  161.2790  211.3730  147.8390 C   0  0  0  0  0  0  0  0  0  0  0  0
  162.2370  213.4530  146.3940 C   0  0  0  0  0  3  0  0  0  0  0  0
  158.9660  214.4530  145.8880 O   0  0  0  0  0  0  0  0  0  0  0  0
  159.9270  213.7860  145.4160 C   0  0  0  0  0  0  0  0  0  0  0  0
  160.1530  213.8000  143.9330 C   0  0  0  0  0  2  0  0  0  0  0  0
  160.2620  212.3340  141.9880 N   0  0  0  0  0  1  0  0  0  0  0  0
  159.6590  212.5080  143.3010 C   0  0  0  0  0  2  0  0  0  0  0  0
  160.8880  206.2980  154.3790 C   0  0  0  0  0  3  0  0  0  0  0  0
  160.4030  207.4870  154.9250 C   0  0  0  0  0  3  0  0  0  0  0  0
  160.5680  208.6910  154.2360 C   0  0  0  0  0  3  0  0  0  0  0  0
  161.2100  208.7130  152.9880 C   0  0  0  0  0  0  0  0  0  0  0  0
  161.5380  206.3090  153.1430 C   0  0  0  0  0  0  0  0  0  0  0  0
  161.6970  207.5140  152.4450 C   0  0  0  0  0  3  0  0  0  0  0  0
  162.1120  205.0460  152.6100 C   0  0  0  0  0  2  0  0  0  0  0  0
  161.0340  203.9910  152.3990 C   0  0  0  0  0  2  0  0  0  0  0  0
  160.6160  203.9690  150.9390 C   0  0  0  0  0  2  0  0  0  0  0  0
  161.5700  203.1200  150.1140 C   0  0  0  0  0  2  0  0  0  0  0  0
  161.0820  203.0290  148.7410 N   0  0  0  0  0  0  0  0  0  0  0  0
  159.3280  201.5320  149.0860 O   0  0  0  0  0  0  0  0  0  0  0  0
  160.3080  201.8790  148.3710 C   0  0  0  0  0  0  0  0  0  0  0  0
  161.2490  206.4200  146.9950 C   0  0  0  0  0  2  0  0  0  0  0  0
  160.9460  205.3210  147.9740 C   0  0  0  0  0  2  0  0  0  0  0  0
  162.0790  203.7430  146.5680 N   0  0  0  0  0  0  0  0  0  0  0  0
  161.3890  204.0680  147.7870 C   0  0  0  0  0  0  0  0  0  0  0  0
  161.3930  205.8660  145.5800 C   0  0  0  0  0  2  0  0  0  0  0  0
  162.4460  204.7620  145.5890 C   0  0  0  0  0  2  0  0  0  0  0  0
  161.7850  200.5310  147.1060 O   0  0  0  0  0  0  0  0  0  0  0  0
  160.6500  201.0780  147.1830 C   0  0  0  0  0  0  0  0  0  0  0  0
  159.6990  200.9340  146.1590 O   0  0  0  0  0  0  0  0  0  0  0  0
  159.8350  201.4060  144.8430 C   0  0  0  0  0  3  0  0  0  0  0  0
  159.6800  202.6720  144.4950 C   0  0  0  0  0  2  0  0  0  0  0  0
  159.4700  213.2450  151.8940 C   0  0  0  0  0  2  0  0  0  0  0  0
  158.0200  212.7740  151.9120 C   0  0  0  0  0  2  0  0  0  0  0  0
  157.2540  213.4650  152.9410 N   0  0  0  0  0  2  0  0  0  0  0  0
  158.1200  214.4520  153.5720 C   0  0  0  0  0  2  0  0  0  0  0  0
  158.3210  214.1190  155.0420 C   0  0  0  0  0  2  0  0  0  0  0  0
  158.6020  212.6360  155.2060 C   0  0  0  0  0  2  0  0  0  0  0  0
  158.1230  212.1770  156.4970 N   0  0  0  0  0  0  0  0  0  0  0  0
  157.1750  213.0580  156.8990 O   0  0  0  0  0  1  0  0  0  0  0  0
  157.4490  210.9110  156.2570 C   0  0  0  0  0  2  0  0  0  0  0  0
  156.0590  211.1540  155.7750 C   0  0  0  0  0  0  0  0  0  0  0  0
  155.7850  211.0360  154.5500 O   0  0  0  0  0  0  0  0  0  0  0  0
  155.0790  211.5660  156.6670 O   0  0  0  0  0  1  0  0  0  0  0  0
  1  2  1  0  0  0  0
  1 24  1  1  0  0  0
  3  6  1  6  0  0  0
  3  4  1  0  0  0  0
  4  1  1  0  0  0  0
  5  6  2  0  0  0  0
  6  7  1  0  0  0  0
  7 45  1  0  0  0  0
  7  2  1  0  0  0  0
  8 10  1  0  0  0  0
  9 15  2  0  0  0  0
  9 11  1  0  0  0  0
 10 13  1  6  0  0  0
 10  3  1  0  0  0  0
 11 14  2  0  0  0  0
 12  8  2  0  0  0  0
 14  8  1  0  0  0  0
 14 10  1  0  0  0  0
 15 12  1  0  0  0  0
 17 16  2  0  0  0  0
 17  9  1  0  0  0  0
 18 17  1  0  0  0  0
 19 20  1  0  0  0  0
 20 18  1  0  0  0  0
 21 22  1  0  0  0  0
 23 22  2  0  0  0  0
 24 23  1  0  0  0  0
 25 21  2  0  0  0  0
 26 24  2  0  0  0  0
 26 25  1  0  0  0  0
 27 25  1  0  0  0  0
 28 27  1  0  0  0  0
 29 28  1  0  0  0  0
 30 29  1  0  0  0  0
 31 30  1  0  0  0  0
 33 31  1  0  0  0  0
 33 32  2  0  0  0  0
 34 35  1  0  0  0  0
 36 37  2  0  0  0  0
 37 35  1  0  0  0  0
 37 31  1  0  0  0  0
 38 39  1  0  0  0  0
 38 34  1  0  0  0  0
 39 36  1  0  0  0  0
 40 41  2  0  0  0  0
 41 33  1  0  0  0  0
 42 41  1  0  0  0  0
 43 42  1  0  0  0  0
 44 43  2  0  0  0  0
 45 46  1  0  0  0  0
 46 47  1  0  0  0  0
 47 48  1  0  0  0  0
 48 49  1  0  0  0  0
 49 50  1  0  0  0  0
 50 51  1  0  0  0  0
 51 52  1  0  0  0  0
 53 51  1  0  0  0  0
 54 53  1  0  0  0  0
 54 56  1  0  0  0  0
 55 54  2  0  0  0  0
M  END
>  <MODEL>
2

>  <REMARK>
 VINA RESULT:      -5.1      3.791      9.119
  Name = 
  23 active torsions:
  status: ('A' for Active; 'I' for Inactive)
    1  A    between atoms: C_6  and  C_15
    2  A    between atoms: C_6  and  N_56
    3  A    between atoms: C_8  and  C_44
    4  A    between atoms: N_9  and  C_15
    5  A    between atoms: N_9  and  C_31
    6  A    between atoms: C_10  and  C_22
    7  A    between atoms: C_13  and  N_23
    8  A    between atoms: C_13  and  C_30
    9  A    between atoms: C_14  and  O_33
   10  A    between atoms: C_16  and  C_48
   11  A    between atoms: C_17  and  N_23
   12  A    between atoms: C_24  and  C_35
   13  A    between atoms: C_25  and  C_41
   14  A    between atoms: C_28  and  C_31
   15  A    between atoms: C_28  and  C_34
   16  A    between atoms: C_30  and  C_47
   17  A    between atoms: O_33  and  C_36
   18  A    between atoms: C_34  and  N_43
   19  A    between atoms: C_36  and  C_55
   20  A    between atoms: C_37  and  C_39
   21  A    between atoms: C_39  and  C_47
   22  A    between atoms: C_41  and  C_48
   23  A    between atoms: N_43  and  C_44
                            x       y       z     vdW  Elec       q    Type
                         _______ _______ _______ _____ _____    ______ ____

>  <TORSDO>
F 23

$$$$
=
 OpenBabel11052409533D

 56 60  0  0  1  0  0  0  0  0999 V2000
  161.2380  210.7170  149.1200 C   0  0  2  0  0  3  0  0  0  0  0  0
  161.5620  211.1690  150.5420 C   0  0  0  0  0  2  0  0  0  0  0  0
  161.5450  208.3860  149.5660 C   0  0  2  0  0  3  0  0  0  0  0  0
  162.0410  209.5360  148.8040 N   0  0  0  0  0  2  0  0  0  0  0  0
  161.4320  207.7570  151.8820 O   0  0  0  0  0  0  0  0  0  0  0  0
  161.4740  208.6980  151.0440 C   0  0  0  0  0  0  0  0  0  0  0  0
  161.3720  210.0650  151.4840 N   0  0  0  0  0  0  0  0  0  0  0  0
  162.0360  206.3430  148.2580 C   0  0  0  0  0  0  0  0  0  0  0  0
  161.0720  203.9040  149.0140 C   0  0  0  0  0  0  0  0  0  0  0  0
  162.4510  207.1870  149.2980 C   0  0  1  0  0  0  0  0  0  0  0  0
  161.4760  204.7410  150.1220 C   0  0  0  0  0  3  0  0  0  0  0  0
  161.6670  205.6150  147.1710 C   0  0  0  0  0  3  0  0  0  0  0  0
  163.8240  207.3270  149.4000 F   0  0  0  0  0  0  0  0  0  0  0  0
  161.9460  205.9310  149.6580 C   0  0  0  0  0  0  0  0  0  0  0  0
  161.1680  204.3380  147.6110 C   0  0  0  0  0  3  0  0  0  0  0  0
  160.5320  202.1090  150.4720 O   0  0  0  0  0  0  0  0  0  0  0  0
  160.5510  202.5480  149.2900 C   0  0  0  0  0  0  0  0  0  0  0  0
  160.0050  201.6840  148.1920 C   0  0  0  0  0  2  0  0  0  0  0  0
  160.5280  201.1100  145.8810 N   0  0  0  0  0  1  0  0  0  0  0  0
  161.0990  201.3120  147.2040 C   0  0  0  0  0  2  0  0  0  0  0  0
  161.9130  213.9110  146.3100 C   0  0  0  0  0  3  0  0  0  0  0  0
  162.7400  213.7910  147.4280 C   0  0  0  0  0  3  0  0  0  0  0  0
  162.5280  212.7590  148.3450 C   0  0  0  0  0  3  0  0  0  0  0  0
  161.4940  211.8300  148.1450 C   0  0  0  0  0  0  0  0  0  0  0  0
  160.8750  213.0010  146.1060 C   0  0  0  0  0  0  0  0  0  0  0  0
  160.6660  211.9590  147.0190 C   0  0  0  0  0  3  0  0  0  0  0  0
  159.9600  213.1850  144.9490 C   0  0  0  0  0  2  0  0  0  0  0  0
  160.2670  212.1950  143.8340 C   0  0  0  0  0  2  0  0  0  0  0  0
  161.4200  212.7120  142.9910 C   0  0  0  0  0  2  0  0  0  0  0  0
  160.9870  213.9050  142.1540 C   0  0  0  0  0  2  0  0  0  0  0  0
  160.7710  213.4820  140.7740 N   0  0  0  0  0  0  0  0  0  0  0  0
  158.4480  213.2880  140.8220 O   0  0  0  0  0  0  0  0  0  0  0  0
  159.5510  212.7960  140.4580 C   0  0  0  0  0  0  0  0  0  0  0  0
  162.4340  214.3780  137.4560 C   0  0  0  0  0  2  0  0  0  0  0  0
  161.4130  214.1070  138.5250 C   0  0  0  0  0  3  0  0  0  0  0  0
  163.1600  213.4940  140.0510 N   0  0  0  0  0  2  0  0  0  0  0  0
  161.7710  213.7390  139.7650 C   0  0  0  0  0  0  0  0  0  0  0  0
  163.6840  213.5290  137.6680 C   0  0  0  0  0  2  0  0  0  0  0  0
  164.2130  213.7740  139.0780 C   0  0  0  0  0  2  0  0  0  0  0  0
  158.4740  210.9040  139.5290 O   0  0  0  0  0  0  0  0  0  0  0  0
  159.5610  211.5110  139.7380 C   0  0  0  0  0  0  0  0  0  0  0  0
  160.7860  210.9880  139.2900 O   0  0  0  0  0  0  0  0  0  0  0  0
  160.9640  209.7430  138.6620 C   0  0  0  0  0  3  0  0  0  0  0  0
  161.8010  209.5370  137.6610 C   0  0  0  0  0  2  0  0  0  0  0  0
  161.3500  210.3850  152.9040 C   0  0  0  0  0  2  0  0  0  0  0  0
  160.5680  211.6690  153.1580 C   0  0  0  0  0  2  0  0  0  0  0  0
  159.1320  211.4390  153.0660 N   0  0  0  0  0  2  0  0  0  0  0  0
  158.5860  212.3410  152.0600 C   0  0  0  0  0  2  0  0  0  0  0  0
  157.4880  213.2030  152.6600 C   0  0  0  0  0  2  0  0  0  0  0  0
  157.6590  213.2920  154.1660 C   0  0  0  0  0  2  0  0  0  0  0  0
  156.4970  212.7330  154.8350 N   0  0  0  0  0  0  0  0  0  0  0  0
  156.6100  211.3850  154.7550 O   0  0  0  0  0  1  0  0  0  0  0  0
  156.6270  213.0850  156.2400 C   0  0  0  0  0  2  0  0  0  0  0  0
  155.3380  212.8420  156.9500 C   0  0  0  0  0  0  0  0  0  0  0  0
  154.9790  211.6650  157.2240 O   0  0  0  0  0  0  0  0  0  0  0  0
  154.5070  213.9100  157.2610 O   0  0  0  0  0  1  0  0  0  0  0  0
  1 24  1  6  0  0  0
  1  2  1  0  0  0  0
  2  7  1  0  0  0  0
  3  4  1  6  0  0  0
  3  6  1  0  0  0  0
  4  1  1  0  0  0  0
  6  7  1  0  0  0  0
  6  5  2  0  0  0  0
  7 45  1  0  0  0  0
  8 10  1  0  0  0  0
  8 14  1  0  0  0  0
  9 17  1  0  0  0  0
  9 11  1  0  0  0  0
 10 13  1  1  0  0  0
 10  3  1  0  0  0  0
 10 14  1  0  0  0  0
 12 15  1  0  0  0  0
 12  8  2  0  0  0  0
 14 11  2  0  0  0  0
 15  9  2  0  0  0  0
 17 16  2  0  0  0  0
 18 17  1  0  0  0  0
 19 20  1  0  0  0  0
 20 18  1  0  0  0  0
 21 22  1  0  0  0  0
 22 23  2  0  0  0  0
 24 23  1  0  0  0  0
 25 21  2  0  0  0  0
 25 26  1  0  0  0  0
 26 24  2  0  0  0  0
 27 25  1  0  0  0  0
 28 27  1  0  0  0  0
 29 28  1  0  0  0  0
 30 29  1  0  0  0  0
 31 30  1  0  0  0  0
 33 31  1  0  0  0  0
 33 32  2  0  0  0  0
 34 38  1  0  0  0  0
 34 35  1  0  0  0  0
 35 37  2  0  0  0  0
 37 36  1  0  0  0  0
 37 31  1  0  0  0  0
 38 39  1  0  0  0  0
 39 36  1  0  0  0  0
 40 41  2  0  0  0  0
 41 33  1  0  0  0  0
 42 41  1  0  0  0  0
 43 42  1  0  0  0  0
 44 43  2  0  0  0  0
 45 46  1  0  0  0  0
 47 46  1  0  0  0  0
 48 49  1  0  0  0  0
 48 47  1  0  0  0  0
 49 50  1  0  0  0  0
 50 51  1  0  0  0  0
 51 53  1  0  0  0  0
 52 51  1  0  0  0  0
 53 54  1  0  0  0  0
 54 55  2  0  0  0  0
 54 56  1  0  0  0  0
M  END
>  <MODEL>
3

>  <REMARK>
 VINA RESULT:      -4.8      1.785      2.559
  Name = 
  23 active torsions:
  status: ('A' for Active; 'I' for Inactive)
    1  A    between atoms: C_6  and  C_15
    2  A    between atoms: C_6  and  N_56
    3  A    between atoms: C_8  and  C_44
    4  A    between atoms: N_9  and  C_15
    5  A    between atoms: N_9  and  C_31
    6  A    between atoms: C_10  and  C_22
    7  A    between atoms: C_13  and  N_23
    8  A    between atoms: C_13  and  C_30
    9  A    between atoms: C_14  and  O_33
   10  A    between atoms: C_16  and  C_48
   11  A    between atoms: C_17  and  N_23
   12  A    between atoms: C_24  and  C_35
   13  A    between atoms: C_25  and  C_41
   14  A    between atoms: C_28  and  C_31
   15  A    between atoms: C_28  and  C_34
   16  A    between atoms: C_30  and  C_47
   17  A    between atoms: O_33  and  C_36
   18  A    between atoms: C_34  and  N_43
   19  A    between atoms: C_36  and  C_55
   20  A    between atoms: C_37  and  C_39
   21  A    between atoms: C_39  and  C_47
   22  A    between atoms: C_41  and  C_48
   23  A    between atoms: N_43  and  C_44
                            x       y       z     vdW  Elec       q    Type
                         _______ _______ _______ _____ _____    ______ ____

>  <TORSDO>
F 23

$$$$
=
 OpenBabel11052409533D

 56 60  0  0  1  0  0  0  0  0999 V2000
  161.9370  208.3280  152.0110 C   0  0  2  0  0  3  0  0  0  0  0  0
  161.0300  207.1030  151.9300 C   0  0  0  0  0  2  0  0  0  0  0  0
  161.7760  208.5520  154.3880 C   0  0  2  0  0  3  0  0  0  0  0  0
  161.4770  209.1870  153.1010 N   0  0  0  0  0  2  0  0  0  0  0  0
  161.0520  206.5840  155.5610 O   0  0  0  0  0  0  0  0  0  0  0  0
  161.2240  207.1450  154.4450 C   0  0  0  0  0  0  0  0  0  0  0  0
  160.9730  206.4230  153.2250 N   0  0  0  0  0  0  0  0  0  0  0  0
  159.8230  209.6360  155.4530 C   0  0  0  0  0  0  0  0  0  0  0  0
  159.0450  212.1600  154.7640 C   0  0  0  0  0  0  0  0  0  0  0  0
  161.2050  209.4150  155.5100 C   0  0  1  0  0  0  0  0  0  0  0  0
  160.4790  211.9800  154.7980 C   0  0  0  0  0  3  0  0  0  0  0  0
  158.4670  209.7320  155.4310 C   0  0  0  0  0  3  0  0  0  0  0  0
  161.7070  209.2910  156.7940 F   0  0  0  0  0  0  0  0  0  0  0  0
  160.7790  210.7010  155.1530 C   0  0  0  0  0  0  0  0  0  0  0  0
  158.0980  211.0750  155.0670 C   0  0  0  0  0  3  0  0  0  0  0  0
  159.0610  214.2020  153.5510 O   0  0  0  0  0  0  0  0  0  0  0  0
  158.4950  213.4900  154.4240 C   0  0  0  0  0  0  0  0  0  0  0  0
  157.2450  214.0050  155.0730 C   0  0  0  0  0  2  0  0  0  0  0  0
  154.9550  213.1850  155.2450 N   0  0  0  0  0  1  0  0  0  0  0  0
  156.0120  213.5430  154.3120 C   0  0  0  0  0  2  0  0  0  0  0  0
  161.9830  210.4820  148.2810 C   0  0  0  0  0  3  0  0  0  0  0  0
  162.0930  209.0900  148.2740 C   0  0  0  0  0  3  0  0  0  0  0  0
  162.0800  208.3840  149.4780 C   0  0  0  0  0  3  0  0  0  0  0  0
  161.9440  209.0620  150.7000 C   0  0  0  0  0  0  0  0  0  0  0  0
  161.8600  211.1690  149.4900 C   0  0  0  0  0  0  0  0  0  0  0  0
  161.8360  210.4610  150.6990 C   0  0  0  0  0  3  0  0  0  0  0  0
  161.8160  212.6550  149.4840 C   0  0  0  0  0  2  0  0  0  0  0  0
  160.4450  213.1690  149.0650 C   0  0  0  0  0  2  0  0  0  0  0  0
  160.6010  214.4480  148.2610 C   0  0  0  0  0  2  0  0  0  0  0  0
  161.8540  214.4000  147.4020 C   0  0  0  0  0  2  0  0  0  0  0  0
  161.5750  213.6650  146.1720 N   0  0  0  0  0  0  0  0  0  0  0  0
  163.5040  212.3570  146.0960 O   0  0  0  0  0  0  0  0  0  0  0  0
  162.6790  213.0770  145.4680 C   0  0  0  0  0  0  0  0  0  0  0  0
  158.3350  214.3540  144.2740 C   0  0  0  0  0  2  0  0  0  0  0  0
  159.7380  214.4470  144.8020 C   0  0  0  0  0  3  0  0  0  0  0  0
  159.3470  212.5410  146.2050 N   0  0  0  0  0  2  0  0  0  0  0  0
  160.2240  213.5520  145.6770 C   0  0  0  0  0  0  0  0  0  0  0  0
  157.4070  213.7130  145.3020 C   0  0  0  0  0  2  0  0  0  0  0  0
  157.9850  212.3610  145.7120 C   0  0  0  0  0  2  0  0  0  0  0  0
  163.2900  214.4460  143.6380 O   0  0  0  0  0  0  0  0  0  0  0  0
  162.8840  213.3170  144.0300 C   0  0  0  0  0  0  0  0  0  0  0  0
  162.6290  212.2780  143.1200 O   0  0  0  0  0  0  0  0  0  0  0  0
  161.8900  212.3940  141.9300 C   0  0  0  0  0  3  0  0  0  0  0  0
  160.5700  212.4360  141.8840 C   0  0  0  0  0  2  0  0  0  0  0  0
  160.3980  205.0860  153.2620 C   0  0  0  0  0  2  0  0  0  0  0  0
  161.3770  204.0600  152.7020 C   0  0  0  0  0  2  0  0  0  0  0  0
  160.7300  203.1930  151.7250 N   0  0  0  0  0  2  0  0  0  0  0  0
  161.4680  203.2850  150.4710 C   0  0  0  0  0  2  0  0  0  0  0  0
  160.8560  204.3470  149.5720 C   0  0  0  0  0  2  0  0  0  0  0  0
  161.1660  204.0400  148.1180 C   0  0  0  0  0  2  0  0  0  0  0  0
  160.8860  205.2010  147.2920 N   0  0  0  0  0  0  0  0  0  0  0  0
  160.4010  206.1620  148.1170 O   0  0  0  0  0  1  0  0  0  0  0  0
  162.1710  205.6750  146.8030 C   0  0  0  0  0  2  0  0  0  0  0  0
  162.5720  204.9090  145.5890 C   0  0  0  0  0  0  0  0  0  0  0  0
  161.7020  204.5580  144.7470 O   0  0  0  0  0  0  0  0  0  0  0  0
  163.8970  204.5330  145.4130 O   0  0  0  0  0  1  0  0  0  0  0  0
  1 24  1  6  0  0  0
  1  4  1  0  0  0  0
  2  1  1  0  0  0  0
  2  7  1  0  0  0  0
  3  4  1  6  0  0  0
  3  6  1  0  0  0  0
  3 10  1  0  0  0  0
  6  5  2  0  0  0  0
  7 45  1  0  0  0  0
  7  6  1  0  0  0  0
  8 10  1  0  0  0  0
  9 11  2  0  0  0  0
  9 15  1  0  0  0  0
 10 13  1  1  0  0  0
 11 14  1  0  0  0  0
 12  8  1  0  0  0  0
 14  8  2  0  0  0  0
 14 10  1  0  0  0  0
 15 12  2  0  0  0  0
 16 17  2  0  0  0  0
 17  9  1  0  0  0  0
 17 18  1  0  0  0  0
 20 18  1  0  0  0  0
 20 19  1  0  0  0  0
 21 25  1  0  0  0  0
 22 21  2  0  0  0  0
 22 23  1  0  0  0  0
 23 24  2  0  0  0  0
 25 26  2  0  0  0  0
 26 24  1  0  0  0  0
 27 25  1  0  0  0  0
 28 27  1  0  0  0  0
 29 28  1  0  0  0  0
 30 29  1  0  0  0  0
 31 30  1  0  0  0  0
 33 32  2  0  0  0  0
 33 31  1  0  0  0  0
 34 35  1  0  0  0  0
 34 38  1  0  0  0  0
 35 37  2  0  0  0  0
 37 31  1  0  0  0  0
 37 36  1  0  0  0  0
 38 39  1  0  0  0  0
 39 36  1  0  0  0  0
 40 41  2  0  0  0  0
 41 33  1  0  0  0  0
 42 41  1  0  0  0  0
 43 42  1  0  0  0  0
 44 43  2  0  0  0  0
 46 45  1  0  0  0  0
 47 46  1  0  0  0  0
 48 47  1  0  0  0  0
 49 48  1  0  0  0  0
 50 49  1  0  0  0  0
 51 52  1  0  0  0  0
 51 50  1  0  0  0  0
 53 51  1  0  0  0  0
 54 53  1  0  0  0  0
 55 54  2  0  0  0  0
 56 54  1  0  0  0  0
M  END
>  <MODEL>
4

>  <REMARK>
 VINA RESULT:      -4.7      3.294      8.614
  Name = 
  23 active torsions:
  status: ('A' for Active; 'I' for Inactive)
    1  A    between atoms: C_6  and  C_15
    2  A    between atoms: C_6  and  N_56
    3  A    between atoms: C_8  and  C_44
    4  A    between atoms: N_9  and  C_15
    5  A    between atoms: N_9  and  C_31
    6  A    between atoms: C_10  and  C_22
    7  A    between atoms: C_13  and  N_23
    8  A    between atoms: C_13  and  C_30
    9  A    between atoms: C_14  and  O_33
   10  A    between atoms: C_16  and  C_48
   11  A    between atoms: C_17  and  N_23
   12  A    between atoms: C_24  and  C_35
   13  A    between atoms: C_25  and  C_41
   14  A    between atoms: C_28  and  C_31
   15  A    between atoms: C_28  and  C_34
   16  A    between atoms: C_30  and  C_47
   17  A    between atoms: O_33  and  C_36
   18  A    between atoms: C_34  and  N_43
   19  A    between atoms: C_36  and  C_55
   20  A    between atoms: C_37  and  C_39
   21  A    between atoms: C_39  and  C_47
   22  A    between atoms: C_41  and  C_48
   23  A    between atoms: N_43  and  C_44
                            x       y       z     vdW  Elec       q    Type
                         _______ _______ _______ _____ _____    ______ ____

>  <TORSDO>
F 23

$$$$
=
 OpenBabel11052409533D

 56 60  0  0  1  0  0  0  0  0999 V2000
  161.4280  206.6350  152.1610 C   0  0  2  0  0  3  0  0  0  0  0  0
  161.0710  207.5560  150.9970 C   0  0  0  0  0  2  0  0  0  0  0  0
  161.2780  204.6160  150.8840 C   0  0  2  0  0  3  0  0  0  0  0  0
  160.7070  205.3720  152.0030 N   0  0  0  0  0  2  0  0  0  0  0  0
  161.4280  204.8900  148.5020 O   0  0  0  0  0  0  0  0  0  0  0  0
  161.3250  205.4530  149.6260 C   0  0  0  0  0  0  0  0  0  0  0  0
  161.3330  206.8900  149.7200 N   0  0  0  0  0  0  0  0  0  0  0  0
  161.1960  202.1990  150.3600 C   0  0  0  0  0  0  0  0  0  0  0  0
  160.9810  201.3070  147.7900 C   0  0  0  0  0  0  0  0  0  0  0  0
  160.4560  203.3470  150.6740 C   0  0  1  0  0  0  0  0  0  0  0  0
  160.2090  202.4990  148.0600 C   0  0  0  0  0  3  0  0  0  0  0  0
  161.9520  201.0850  150.1730 C   0  0  0  0  0  3  0  0  0  0  0  0
  159.3470  203.1080  151.4670 F   0  0  0  0  0  0  0  0  0  0  0  0
  160.3680  202.8710  149.3590 C   0  0  0  0  0  0  0  0  0  0  0  0
  161.8100  200.6460  148.8100 C   0  0  0  0  0  3  0  0  0  0  0  0
  161.1940  199.4870  146.2790 O   0  0  0  0  0  0  0  0  0  0  0  0
  160.9340  200.7110  146.4370 C   0  0  0  0  0  0  0  0  0  0  0  0
  160.5450  201.5240  145.2390 C   0  0  0  0  0  2  0  0  0  0  0  0
  161.6880  203.6660  145.0160 N   0  0  0  0  0  1  0  0  0  0  0  0
  160.5200  203.0060  145.5790 C   0  0  0  0  0  2  0  0  0  0  0  0
  160.4460  208.5640  155.8850 C   0  0  0  0  0  3  0  0  0  0  0  0
  160.7780  207.2080  155.8780 C   0  0  0  0  0  3  0  0  0  0  0  0
  161.0970  206.5740  154.6750 C   0  0  0  0  0  3  0  0  0  0  0  0
  161.0990  207.2940  153.4700 C   0  0  0  0  0  0  0  0  0  0  0  0
  160.4330  209.2880  154.6920 C   0  0  0  0  0  0  0  0  0  0  0  0
  160.7620  208.6560  153.4850 C   0  0  0  0  0  3  0  0  0  0  0  0
  160.0070  210.7120  154.7070 C   0  0  0  0  0  2  0  0  0  0  0  0
  160.6030  211.4570  155.8940 C   0  0  0  0  0  2  0  0  0  0  0  0
  159.6050  212.4790  156.4110 C   0  0  0  0  0  2  0  0  0  0  0  0
  159.5460  213.6920  155.4960 C   0  0  0  0  0  2  0  0  0  0  0  0
  158.4270  213.5510  154.5700 N   0  0  0  0  0  0  0  0  0  0  0  0
  156.6930  214.1260  156.0200 O   0  0  0  0  0  0  0  0  0  0  0  0
  157.1150  213.3520  155.1170 C   0  0  0  0  0  0  0  0  0  0  0  0
  159.9600  213.0180  151.1140 C   0  0  0  0  0  2  0  0  0  0  0  0
  159.7060  212.9830  152.5950 C   0  0  0  0  0  2  0  0  0  0  0  0
  157.7920  214.4010  152.3110 N   0  0  0  0  0  0  0  0  0  0  0  0
  158.6470  213.5990  153.1440 C   0  0  0  0  0  0  0  0  0  0  0  0
  159.4250  214.3090  150.5000 C   0  0  0  0  0  2  0  0  0  0  0  0
  157.9500  214.4520  150.8600 C   0  0  0  0  0  2  0  0  0  0  0  0
  156.5370  211.0600  155.0010 O   0  0  0  0  0  0  0  0  0  0  0  0
  156.2580  212.2440  154.6630 C   0  0  0  0  0  0  0  0  0  0  0  0
  155.1380  212.5290  153.8640 O   0  0  0  0  0  0  0  0  0  0  0  0
  154.6200  213.8100  153.6060 C   0  0  0  0  0  3  0  0  0  0  0  0
  154.7740  214.4500  152.4600 C   0  0  0  0  0  2  0  0  0  0  0  0
  161.3310  207.7090  148.5170 C   0  0  0  0  0  2  0  0  0  0  0  0
  162.5710  208.5960  148.4620 C   0  0  0  0  0  2  0  0  0  0  0  0
  162.3330  209.8760  149.1170 N   0  0  0  0  0  2  0  0  0  0  0  0
  161.3870  210.6350  148.3100 C   0  0  0  0  0  2  0  0  0  0  0  0
  161.9320  212.0240  148.0190 C   0  0  0  0  0  2  0  0  0  0  0  0
  160.8620  212.8770  147.3620 C   0  0  0  0  0  2  0  0  0  0  0  0
  161.4570  214.0740  146.7930 N   0  0  0  0  0  0  0  0  0  0  0  0
  162.7750  213.8110  146.6200 O   0  0  0  0  0  1  0  0  0  0  0  0
  160.8790  214.2270  145.4670 C   0  0  0  0  0  2  0  0  0  0  0  0
  161.7460  213.5660  144.4510 C   0  0  0  0  0  0  0  0  0  0  0  0
  162.7800  214.1480  144.0270 O   0  0  0  0  0  1  0  0  0  0  0  0
  161.3850  212.3300  143.9310 O   0  0  0  0  0  0  0  0  0  0  0  0
  1 24  1  1  0  0  0
  2  1  1  0  0  0  0
  3  6  1  6  0  0  0
  3  4  1  0  0  0  0
  4  1  1  0  0  0  0
  5  6  2  0  0  0  0
  6  7  1  0  0  0  0
  7  2  1  0  0  0  0
  8 10  1  0  0  0  0
  9 11  2  0  0  0  0
  9 15  1  0  0  0  0
 10  3  1  0  0  0  0
 10 13  1  1  0  0  0
 11 14  1  0  0  0  0
 12  8  1  0  0  0  0
 14  8  2  0  0  0  0
 14 10  1  0  0  0  0
 15 12  2  0  0  0  0
 16 17  2  0  0  0  0
 17  9  1  0  0  0  0
 18 20  1  0  0  0  0
 18 17  1  0  0  0  0
 19 20  1  0  0  0  0
 22 21  1  0  0  0  0
 23 22  2  0  0  0  0
 24 26  2  0  0  0  0
 24 23  1  0  0  0  0
 25 27  1  0  0  0  0
 25 21  2  0  0  0  0
 26 25  1  0  0  0  0
 27 28  1  0  0  0  0
 28 29  1  0  0  0  0
 30 29  1  0  0  0  0
 31 33  1  0  0  0  0
 31 30  1  0  0  0  0
 33 32  2  0  0  0  0
 34 35  1  0  0  0  0
 35 37  1  0  0  0  0
 36 37  2  0  0  0  0
 37 31  1  0  0  0  0
 38 39  1  0  0  0  0
 38 34  1  0  0  0  0
 39 36  1  0  0  0  0
 41 40  2  0  0  0  0
 41 33  1  0  0  0  0
 42 41  1  0  0  0  0
 43 42  1  0  0  0  0
 44 43  2  0  0  0  0
 45  7  1  0  0  0  0
 46 45  1  0  0  0  0
 46 47  1  0  0  0  0
 48 47  1  0  0  0  0
 49 48  1  0  0  0  0
 50 49  1  0  0  0  0
 51 50  1  0  0  0  0
 52 51  1  0  0  0  0
 53 51  1  0  0  0  0
 54 53  1  0  0  0  0
 55 54  1  0  0  0  0
 56 54  2  0  0  0  0
M  END
>  <MODEL>
5

>  <REMARK>
 VINA RESULT:      -4.1      3.930     10.481
  Name = 
  23 active torsions:
  status: ('A' for Active; 'I' for Inactive)
    1  A    between atoms: C_6  and  C_15
    2  A    between atoms: C_6  and  N_56
    3  A    between atoms: C_8  and  C_44
    4  A    between atoms: N_9  and  C_15
    5  A    between atoms: N_9  and  C_31
    6  A    between atoms: C_10  and  C_22
    7  A    between atoms: C_13  and  N_23
    8  A    between atoms: C_13  and  C_30
    9  A    between atoms: C_14  and  O_33
   10  A    between atoms: C_16  and  C_48
   11  A    between atoms: C_17  and  N_23
   12  A    between atoms: C_24  and  C_35
   13  A    between atoms: C_25  and  C_41
   14  A    between atoms: C_28  and  C_31
   15  A    between atoms: C_28  and  C_34
   16  A    between atoms: C_30  and  C_47
   17  A    between atoms: O_33  and  C_36
   18  A    between atoms: C_34  and  N_43
   19  A    between atoms: C_36  and  C_55
   20  A    between atoms: C_37  and  C_39
   21  A    between atoms: C_39  and  C_47
   22  A    between atoms: C_41  and  C_48
   23  A    between atoms: N_43  and  C_44
                            x       y       z     vdW  Elec       q    Type
                         _______ _______ _______ _____ _____    ______ ____

>  <TORSDO>
F 23

$$$$
=
 OpenBabel11052409533D

 56 60  0  0  1  0  0  0  0  0999 V2000
  161.3420  210.5510  149.1740 C   0  0  2  0  0  3  0  0  0  0  0  0
  161.5050  211.1570  150.5650 C   0  0  0  0  0  2  0  0  0  0  0  0
  161.5260  208.2820  149.9120 C   0  0  2  0  0  3  0  0  0  0  0  0
  162.1430  209.3290  149.0930 N   0  0  0  0  0  2  0  0  0  0  0  0
  161.1150  207.9230  152.2520 O   0  0  0  0  0  0  0  0  0  0  0  0
  161.2850  208.7610  151.3250 C   0  0  0  0  0  0  0  0  0  0  0  0
  161.1710  210.1720  151.5950 N   0  0  0  0  0  0  0  0  0  0  0  0
  162.4950  206.3790  148.6620 C   0  0  0  0  0  0  0  0  0  0  0  0
  161.2280  203.9650  148.5360 C   0  0  0  0  0  0  0  0  0  0  0  0
  162.4220  207.0460  149.8920 C   0  0  1  0  0  0  0  0  0  0  0  0
  161.1130  204.6180  149.8210 C   0  0  0  0  0  3  0  0  0  0  0  0
  162.6350  205.8270  147.4270 C   0  0  0  0  0  3  0  0  0  0  0  0
  163.6050  207.0450  150.6100 F   0  0  0  0  0  0  0  0  0  0  0  0
  161.7740  205.8070  149.7980 C   0  0  0  0  0  0  0  0  0  0  0  0
  161.9560  204.5570  147.4030 C   0  0  0  0  0  3  0  0  0  0  0  0
  159.4210  202.5580  147.9080 O   0  0  0  0  0  0  0  0  0  0  0  0
  160.6010  202.6390  148.3450 C   0  0  0  0  0  0  0  0  0  0  0  0
  161.3530  201.3730  148.6260 C   0  0  0  0  0  2  0  0  0  0  0  0
  160.8150  201.9410  150.9350 N   0  0  0  0  0  1  0  0  0  0  0  0
  161.0110  200.8380  150.0070 C   0  0  0  0  0  2  0  0  0  0  0  0
  162.4450  213.4130  146.1490 C   0  0  0  0  0  3  0  0  0  0  0  0
  163.3840  213.0260  147.1060 C   0  0  0  0  0  3  0  0  0  0  0  0
  163.0350  212.0990  148.0910 C   0  0  0  0  0  3  0  0  0  0  0  0
  161.7470  211.5420  148.1200 C   0  0  0  0  0  0  0  0  0  0  0  0
  161.1570  212.8740  146.1740 C   0  0  0  0  0  0  0  0  0  0  0  0
  160.8080  211.9370  147.1550 C   0  0  0  0  0  3  0  0  0  0  0  0
  160.1480  213.3500  145.1910 C   0  0  0  0  0  2  0  0  0  0  0  0
  159.3830  212.1880  144.5730 C   0  0  0  0  0  2  0  0  0  0  0  0
  160.0350  211.7850  143.2610 C   0  0  0  0  0  2  0  0  0  0  0  0
  160.5080  213.0080  142.4920 C   0  0  0  0  0  2  0  0  0  0  0  0
  160.2170  212.8350  141.0720 N   0  0  0  0  0  0  0  0  0  0  0  0
  158.0980  213.8070  141.0230 O   0  0  0  0  0  0  0  0  0  0  0  0
  158.8440  212.8600  140.6530 C   0  0  0  0  0  0  0  0  0  0  0  0
  163.4010  211.5280  139.4200 C   0  0  0  0  0  2  0  0  0  0  0  0
  162.2740  211.7580  140.3870 C   0  0  0  0  0  2  0  0  0  0  0  0
  161.3660  213.4440  138.9420 N   0  0  0  0  0  0  0  0  0  0  0  0
  161.2880  212.6310  140.1260 C   0  0  0  0  0  0  0  0  0  0  0  0
  163.6940  212.7900  138.6140 C   0  0  0  0  0  2  0  0  0  0  0  0
  162.4070  213.2520  137.9360 C   0  0  0  0  0  2  0  0  0  0  0  0
  158.9340  210.7180  139.6510 O   0  0  0  0  0  0  0  0  0  0  0  0
  158.2810  211.7860  139.8170 C   0  0  0  0  0  0  0  0  0  0  0  0
  157.0200  211.9690  139.2260 O   0  0  0  0  0  0  0  0  0  0  0  0
  156.0130  210.9950  139.1260 C   0  0  0  0  0  3  0  0  0  0  0  0
  154.7470  211.2090  139.4420 C   0  0  0  0  0  2  0  0  0  0  0  0
  160.9870  210.6520  152.9560 C   0  0  0  0  0  2  0  0  0  0  0  0
  160.3960  212.0570  152.9600 C   0  0  0  0  0  2  0  0  0  0  0  0
  159.6290  212.3040  154.1750 N   0  0  0  0  0  2  0  0  0  0  0  0
  158.9890  213.6080  154.0560 C   0  0  0  0  0  2  0  0  0  0  0  0
  158.0310  213.8350  155.2150 C   0  0  0  0  0  2  0  0  0  0  0  0
  157.7540  212.5240  155.9270 C   0  0  0  0  0  2  0  0  0  0  0  0
  157.2710  211.5340  154.9810 N   0  0  0  0  0  0  0  0  0  0  0  0
  157.5280  210.3170  155.5220 O   0  0  0  0  0  1  0  0  0  0  0  0
  155.8240  211.6800  154.9400 C   0  0  0  0  0  2  0  0  0  0  0  0
  155.1890  210.7670  155.9320 C   0  0  0  0  0  0  0  0  0  0  0  0
  154.7080  209.6630  155.5590 O   0  0  0  0  0  0  0  0  0  0  0  0
  155.0770  211.1570  157.2600 O   0  0  0  0  0  1  0  0  0  0  0  0
  1 24  1  6  0  0  0
  1  2  1  0  0  0  0
  2  7  1  0  0  0  0
  3  4  1  6  0  0  0
  3  6  1  0  0  0  0
  4  1  1  0  0  0  0
  6  7  1  0  0  0  0
  6  5  2  0  0  0  0
  7 45  1  0  0  0  0
  8 14  1  0  0  0  0
  8 10  1  0  0  0  0
  9 11  1  0  0  0  0
 10  3  1  0  0  0  0
 10 13  1  1  0  0  0
 12  8  2  0  0  0  0
 14 11  2  0  0  0  0
 14 10  1  0  0  0  0
 15 12  1  0  0  0  0
 15  9  2  0  0  0  0
 16 17  2  0  0  0  0
 17  9  1  0  0  0  0
 17 18  1  0  0  0  0
 18 20  1  0  0  0  0
 20 19  1  0  0  0  0
 21 25  2  0  0  0  0
 21 22  1  0  0  0  0
 22 23  2  0  0  0  0
 23 24  1  0  0  0  0
 25 26  1  0  0  0  0
 26 24  2  0  0  0  0
 27 25  1  0  0  0  0
 28 27  1  0  0  0  0
 29 28  1  0  0  0  0
 30 29  1  0  0  0  0
 31 30  1  0  0  0  0
 33 32  2  0  0  0  0
 33 31  1  0  0  0  0
 34 35  1  0  0  0  0
 36 37  2  0  0  0  0
 37 35  1  0  0  0  0
 37 31  1  0  0  0  0
 38 34  1  0  0  0  0
 39 38  1  0  0  0  0
 39 36  1  0  0  0  0
 40 41  2  0  0  0  0
 41 33  1  0  0  0  0
 42 41  1  0  0  0  0
 43 42  1  0  0  0  0
 43 44  2  0  0  0  0
 45 46  1  0  0  0  0
 46 47  1  0  0  0  0
 48 47  1  0  0  0  0
 48 49  1  0  0  0  0
 49 50  1  0  0  0  0
 51 52  1  0  0  0  0
 51 50  1  0  0  0  0
 53 51  1  0  0  0  0
 53 54  1  0  0  0  0
 54 56  1  0  0  0  0
 55 54  2  0  0  0  0
M  END
>  <MODEL>
6

>  <REMARK>
 VINA RESULT:      -3.9      2.173      2.896
  Name = 
  23 active torsions:
  status: ('A' for Active; 'I' for Inactive)
    1  A    between atoms: C_6  and  C_15
    2  A    between atoms: C_6  and  N_56
    3  A    between atoms: C_8  and  C_44
    4  A    between atoms: N_9  and  C_15
    5  A    between atoms: N_9  and  C_31
    6  A    between atoms: C_10  and  C_22
    7  A    between atoms: C_13  and  N_23
    8  A    between atoms: C_13  and  C_30
    9  A    between atoms: C_14  and  O_33
   10  A    between atoms: C_16  and  C_48
   11  A    between atoms: C_17  and  N_23
   12  A    between atoms: C_24  and  C_35
   13  A    between atoms: C_25  and  C_41
   14  A    between atoms: C_28  and  C_31
   15  A    between atoms: C_28  and  C_34
   16  A    between atoms: C_30  and  C_47
   17  A    between atoms: O_33  and  C_36
   18  A    between atoms: C_34  and  N_43
   19  A    between atoms: C_36  and  C_55
   20  A    between atoms: C_37  and  C_39
   21  A    between atoms: C_39  and  C_47
   22  A    between atoms: C_41  and  C_48
   23  A    between atoms: N_43  and  C_44
                            x       y       z     vdW  Elec       q    Type
                         _______ _______ _______ _____ _____    ______ ____

>  <TORSDO>
F 23

$$$$
=
 OpenBabel11052409533D

 56 60  0  0  1  0  0  0  0  0999 V2000
  161.5030  209.4620  152.0890 C   0  0  2  0  0  3  0  0  0  0  0  0
  160.2760  210.3170  152.3970 C   0  0  0  0  0  2  0  0  0  0  0  0
  162.2010  210.7660  150.2080 C   0  0  2  0  0  3  0  0  0  0  0  0
  161.7220  209.4510  150.6430 N   0  0  0  0  0  2  0  0  0  0  0  0
  161.3070  212.9940  150.1100 O   0  0  0  0  0  0  0  0  0  0  0  0
  161.2780  211.8680  150.6770 C   0  0  0  0  0  0  0  0  0  0  0  0
  160.4270  211.6540  151.8190 N   0  0  0  0  0  0  0  0  0  0  0  0
  162.6580  212.0030  148.1140 C   0  0  0  0  0  0  0  0  0  0  0  0
  160.6580  213.2330  146.7230 C   0  0  0  0  0  0  0  0  0  0  0  0
  162.3340  210.7660  148.6870 C   0  0  1  0  0  0  0  0  0  0  0  0
  160.2710  211.9670  147.3040 C   0  0  0  0  0  3  0  0  0  0  0  0
  163.0850  213.1890  147.6050 C   0  0  0  0  0  3  0  0  0  0  0  0
  162.9040  209.6790  148.0480 F   0  0  0  0  0  0  0  0  0  0  0  0
  161.3240  211.4220  147.9720 C   0  0  0  0  0  0  0  0  0  0  0  0
  162.0050  213.8040  146.8790 C   0  0  0  0  0  3  0  0  0  0  0  0
  158.5500  214.2880  146.4280 O   0  0  0  0  0  0  0  0  0  0  0  0
  159.6690  213.9900  145.9260 C   0  0  0  0  0  0  0  0  0  0  0  0
  159.9780  214.4510  144.5330 C   0  0  0  0  0  2  0  0  0  0  0  0
  159.4750  212.5710  143.0640 N   0  0  0  0  0  1  0  0  0  0  0  0
  160.5510  213.3130  143.7040 C   0  0  0  0  0  2  0  0  0  0  0  0
  161.0270  205.4540  153.5960 C   0  0  0  0  0  3  0  0  0  0  0  0
  160.6300  206.5380  154.3820 C   0  0  0  0  0  3  0  0  0  0  0  0
  160.7820  207.8400  153.9020 C   0  0  0  0  0  3  0  0  0  0  0  0
  161.3190  208.0710  152.6260 C   0  0  0  0  0  0  0  0  0  0  0  0
  161.5730  205.6710  152.3300 C   0  0  0  0  0  0  0  0  0  0  0  0
  161.7170  206.9770  151.8420 C   0  0  0  0  0  3  0  0  0  0  0  0
  162.0560  204.5110  151.5350 C   0  0  0  0  0  2  0  0  0  0  0  0
  160.9190  203.8550  150.7620 C   0  0  0  0  0  2  0  0  0  0  0  0
  160.8930  204.3870  149.3400 C   0  0  0  0  0  2  0  0  0  0  0  0
  162.1520  203.9880  148.5880 C   0  0  0  0  0  2  0  0  0  0  0  0
  161.8400  203.8090  147.1730 N   0  0  0  0  0  0  0  0  0  0  0  0
  163.4750  205.2060  146.2710 O   0  0  0  0  0  0  0  0  0  0  0  0
  162.2750  204.8190  146.2500 C   0  0  0  0  0  0  0  0  0  0  0  0
  159.9490  200.4930  147.1630 C   0  0  0  0  0  2  0  0  0  0  0  0
  160.7160  201.7080  147.6010 C   0  0  0  0  0  2  0  0  0  0  0  0
  160.8700  202.4440  145.3230 N   0  0  0  0  0  0  0  0  0  0  0  0
  161.1020  202.6520  146.7270 C   0  0  0  0  0  0  0  0  0  0  0  0
  160.3130  200.1040  145.7330 C   0  0  0  0  0  2  0  0  0  0  0  0
  160.0970  201.3100  144.8240 C   0  0  0  0  0  2  0  0  0  0  0  0
  161.5630  205.3420  144.0550 O   0  0  0  0  0  0  0  0  0  0  0  0
  161.3390  205.4330  145.2930 C   0  0  0  0  0  0  0  0  0  0  0  0
  160.2060  206.1060  145.7810 O   0  0  0  0  0  0  0  0  0  0  0  0
  160.0790  206.6780  147.0580 C   0  0  0  0  0  3  0  0  0  0  0  0
  160.7750  207.7240  147.4690 C   0  0  0  0  0  2  0  0  0  0  0  0
  159.5000  212.6870  152.2540 C   0  0  0  0  0  2  0  0  0  0  0  0
  158.6490  213.1770  151.0870 C   0  0  0  0  0  2  0  0  0  0  0  0
  157.7700  214.2660  151.4960 N   0  0  0  0  0  2  0  0  0  0  0  0
  157.7730  214.3360  152.9520 C   0  0  0  0  0  2  0  0  0  0  0  0
  156.5030  213.7190  153.5150 C   0  0  0  0  0  2  0  0  0  0  0  0
  156.2770  214.1980  154.9380 C   0  0  0  0  0  2  0  0  0  0  0  0
  157.2200  213.5560  155.8370 N   0  0  0  0  0  0  0  0  0  0  0  0
  157.2500  214.2990  156.9700 O   0  0  0  0  0  1  0  0  0  0  0  0
  156.6360  212.2710  156.1900 C   0  0  0  0  0  2  0  0  0  0  0  0
  157.0320  211.2370  155.1930 C   0  0  0  0  0  0  0  0  0  0  0  0
  156.1680  210.7390  154.4220 O   0  0  0  0  0  0  0  0  0  0  0  0
  158.3420  210.7810  155.1510 O   0  0  0  0  0  1  0  0  0  0  0  0
  1  2  1  0  0  0  0
  1 24  1  6  0  0  0
  3  4  1  6  0  0  0
  3  6  1  0  0  0  0
  4  1  1  0  0  0  0
  5  6  2  0  0  0  0
  6  7  1  0  0  0  0
  7 45  1  0  0  0  0
  7  2  1  0  0  0  0
  8 10  1  0  0  0  0
  9 15  2  0  0  0  0
  9 11  1  0  0  0  0
 10 13  1  6  0  0  0
 10  3  1  0  0  0  0
 11 14  2  0  0  0  0
 12  8  2  0  0  0  0
 14  8  1  0  0  0  0
 14 10  1  0  0  0  0
 15 12  1  0  0  0  0
 17 16  2  0  0  0  0
 17  9  1  0  0  0  0
 18 17  1  0  0  0  0
 19 20  1  0  0  0  0
 20 18  1  0  0  0  0
 21 22  1  0  0  0  0
 23 22  2  0  0  0  0
 24 23  1  0  0  0  0
 25 21  2  0  0  0  0
 26 25  1  0  0  0  0
 26 24  2  0  0  0  0
 27 25  1  0  0  0  0
 28 27  1  0  0  0  0
 29 28  1  0  0  0  0
 30 29  1  0  0  0  0
 31 30  1  0  0  0  0
 33 32  2  0  0  0  0
 33 31  1  0  0  0  0
 34 35  1  0  0  0  0
 36 37  2  0  0  0  0
 37 31  1  0  0  0  0
 37 35  1  0  0  0  0
 38 34  1  0  0  0  0
 39 36  1  0  0  0  0
 39 38  1  0  0  0  0
 40 41  2  0  0  0  0
 41 42  1  0  0  0  0
 41 33  1  0  0  0  0
 42 43  1  0  0  0  0
 43 44  2  0  0  0  0
 46 47  1  0  0  0  0
 46 45  1  0  0  0  0
 47 48  1  0  0  0  0
 48 49  1  0  0  0  0
 49 50  1  0  0  0  0
 50 51  1  0  0  0  0
 51 53  1  0  0  0  0
 51 52  1  0  0  0  0
 54 53  1  0  0  0  0
 55 54  2  0  0  0  0
 56 54  1  0  0  0  0
M  END
>  <MODEL>
7

>  <REMARK>
 VINA RESULT:      -3.6      3.750      9.086
  Name = 
  23 active torsions:
  status: ('A' for Active; 'I' for Inactive)
    1  A    between atoms: C_6  and  C_15
    2  A    between atoms: C_6  and  N_56
    3  A    between atoms: C_8  and  C_44
    4  A    between atoms: N_9  and  C_15
    5  A    between atoms: N_9  and  C_31
    6  A    between atoms: C_10  and  C_22
    7  A    between atoms: C_13  and  N_23
    8  A    between atoms: C_13  and  C_30
    9  A    between atoms: C_14  and  O_33
   10  A    between atoms: C_16  and  C_48
   11  A    between atoms: C_17  and  N_23
   12  A    between atoms: C_24  and  C_35
   13  A    between atoms: C_25  and  C_41
   14  A    between atoms: C_28  and  C_31
   15  A    between atoms: C_28  and  C_34
   16  A    between atoms: C_30  and  C_47
   17  A    between atoms: O_33  and  C_36
   18  A    between atoms: C_34  and  N_43
   19  A    between atoms: C_36  and  C_55
   20  A    between atoms: C_37  and  C_39
   21  A    between atoms: C_39  and  C_47
   22  A    between atoms: C_41  and  C_48
   23  A    between atoms: N_43  and  C_44
                            x       y       z     vdW  Elec       q    Type
                         _______ _______ _______ _____ _____    ______ ____

>  <TORSDO>
F 23

$$$$
=
 OpenBabel11052409533D

 56 60  0  0  1  0  0  0  0  0999 V2000
  160.6380  210.1110  151.1910 C   0  0  2  0  0  3  0  0  0  0  0  0
  161.2500  211.1890  150.3000 C   0  0  0  0  0  2  0  0  0  0  0  0
  159.6020  211.6500  152.7030 C   0  0  2  0  0  3  0  0  0  0  0  0
  160.6110  210.5950  152.5710 N   0  0  0  0  0  2  0  0  0  0  0  0
  159.3000  213.8780  151.8570 O   0  0  0  0  0  0  0  0  0  0  0  0
  159.8130  212.7400  151.6770 C   0  0  0  0  0  0  0  0  0  0  0  0
  160.5300  212.4540  150.4610 N   0  0  0  0  0  0  0  0  0  0  0  0
  159.0240  211.4230  155.0980 C   0  0  0  0  0  0  0  0  0  0  0  0
  156.6820  212.4090  156.0960 C   0  0  0  0  0  0  0  0  0  0  0  0
  159.6530  212.2080  154.1220 C   0  0  1  0  0  0  0  0  0  0  0  0
  157.2860  213.2490  155.0850 C   0  0  0  0  0  3  0  0  0  0  0  0
  158.5070  210.5820  156.0330 C   0  0  0  0  0  3  0  0  0  0  0  0
  160.7920  212.8570  154.5650 F   0  0  0  0  0  0  0  0  0  0  0  0
  158.4460  212.6880  154.6470 C   0  0  0  0  0  0  0  0  0  0  0  0
  157.2780  211.1370  156.5350 C   0  0  0  0  0  3  0  0  0  0  0  0
  155.1480  214.0710  156.8190 O   0  0  0  0  0  0  0  0  0  0  0  0
  155.4190  212.8430  156.7310 C   0  0  0  0  0  0  0  0  0  0  0  0
  154.4240  211.8470  157.2470 C   0  0  0  0  0  2  0  0  0  0  0  0
  153.5810  209.5730  156.9990 N   0  0  0  0  0  1  0  0  0  0  0  0
  154.4240  210.5910  156.3910 C   0  0  0  0  0  2  0  0  0  0  0  0
  162.8230  206.4110  150.8800 C   0  0  0  0  0  3  0  0  0  0  0  0
  163.0710  207.4370  149.9660 C   0  0  0  0  0  3  0  0  0  0  0  0
  162.3670  208.6390  150.0580 C   0  0  0  0  0  3  0  0  0  0  0  0
  161.4170  208.8320  151.0740 C   0  0  0  0  0  0  0  0  0  0  0  0
  161.8730  206.5860  151.8880 C   0  0  0  0  0  0  0  0  0  0  0  0
  161.1720  207.7960  151.9890 C   0  0  0  0  0  3  0  0  0  0  0  0
  161.5700  205.4590  152.8090 C   0  0  0  0  0  2  0  0  0  0  0  0
  160.2220  204.8270  152.4880 C   0  0  0  0  0  2  0  0  0  0  0  0
  160.4330  203.4740  151.8310 C   0  0  0  0  0  2  0  0  0  0  0  0
  161.5930  203.5220  150.8500 C   0  0  0  0  0  2  0  0  0  0  0  0
  161.0950  203.3100  149.4940 N   0  0  0  0  0  0  0  0  0  0  0  0
  159.5650  201.6080  149.9400 O   0  0  0  0  0  0  0  0  0  0  0  0
  160.4750  202.0520  149.1880 C   0  0  0  0  0  0  0  0  0  0  0  0
  162.3670  205.3060  146.4990 C   0  0  0  0  0  2  0  0  0  0  0  0
  162.1930  204.2480  147.5510 C   0  0  0  0  0  3  0  0  0  0  0  0
  160.4350  205.5300  148.5630 N   0  0  0  0  0  2  0  0  0  0  0  0
  161.2410  204.3400  148.4930 C   0  0  0  0  0  0  0  0  0  0  0  0
  161.9460  206.6750  147.0270 C   0  0  0  0  0  2  0  0  0  0  0  0
  160.5170  206.5820  147.5530 C   0  0  0  0  0  2  0  0  0  0  0  0
  161.9150  200.5120  148.1140 O   0  0  0  0  0  0  0  0  0  0  0  0
  160.8990  201.2550  148.0240 C   0  0  0  0  0  0  0  0  0  0  0  0
  160.1550  201.3340  146.8350 O   0  0  0  0  0  0  0  0  0  0  0  0
  160.5260  200.7780  145.5990 C   0  0  0  0  0  3  0  0  0  0  0  0
  160.2280  199.5460  145.2260 C   0  0  0  0  0  2  0  0  0  0  0  0
  160.7810  213.5040  149.4860 C   0  0  0  0  0  2  0  0  0  0  0  0
  161.3050  212.9170  148.1800 C   0  0  0  0  0  2  0  0  0  0  0  0
  160.6510  213.5260  147.0290 N   0  0  0  0  0  2  0  0  0  0  0  0
  161.6110  214.4010  146.3660 C   0  0  0  0  0  2  0  0  0  0  0  0
  162.0130  213.8230  145.0190 C   0  0  0  0  0  2  0  0  0  0  0  0
  160.8310  213.8490  144.0660 C   0  0  0  0  0  2  0  0  0  0  0  0
  160.5520  212.5090  143.5800 N   0  0  0  0  0  0  0  0  0  0  0  0
  159.8730  211.8690  144.5630 O   0  0  0  0  0  1  0  0  0  0  0  0
  159.6320  212.6630  142.4630 C   0  0  0  0  0  2  0  0  0  0  0  0
  160.2820  212.2160  141.1990 C   0  0  0  0  0  0  0  0  0  0  0  0
  161.5190  212.3850  141.0290 O   0  0  0  0  0  1  0  0  0  0  0  0
  159.5130  211.6600  140.1850 O   0  0  0  0  0  0  0  0  0  0  0  0
  1 24  1  1  0  0  0
  1  4  1  0  0  0  0
  2  7  1  0  0  0  0
  2  1  1  0  0  0  0
  3  6  1  6  0  0  0
  3 10  1  0  0  0  0
  4  3  1  0  0  0  0
  6  5  2  0  0  0  0
  7  6  1  0  0  0  0
  8 12  1  0  0  0  0
  9 15  1  0  0  0  0
  9 17  1  0  0  0  0
 10 13  1  1  0  0  0
 10 14  1  0  0  0  0
 10  8  1  0  0  0  0
 11  9  2  0  0  0  0
 12 15  2  0  0  0  0
 14 11  1  0  0  0  0
 14  8  2  0  0  0  0
 17 16  2  0  0  0  0
 17 18  1  0  0  0  0
 20 19  1  0  0  0  0
 20 18  1  0  0  0  0
 21 25  1  0  0  0  0
 22 23  1  0  0  0  0
 22 21  2  0  0  0  0
 23 24  2  0  0  0  0
 24 26  1  0  0  0  0
 25 26  2  0  0  0  0
 25 27  1  0  0  0  0
 28 27  1  0  0  0  0
 29 28  1  0  0  0  0
 30 29  1  0  0  0  0
 31 30  1  0  0  0  0
 33 31  1  0  0  0  0
 33 32  2  0  0  0  0
 34 38  1  0  0  0  0
 34 35  1  0  0  0  0
 35 37  2  0  0  0  0
 37 36  1  0  0  0  0
 37 31  1  0  0  0  0
 38 39  1  0  0  0  0
 39 36  1  0  0  0  0
 41 40  2  0  0  0  0
 41 33  1  0  0  0  0
 42 41  1  0  0  0  0
 43 42  1  0  0  0  0
 44 43  2  0  0  0  0
 45  7  1  0  0  0  0
 46 45  1  0  0  0  0
 47 46  1  0  0  0  0
 48 47  1  0  0  0  0
 49 48  1  0  0  0  0
 50 49  1  0  0  0  0
 51 50  1  0  0  0  0
 51 52  1  0  0  0  0
 53 51  1  0  0  0  0
 54 53  1  0  0  0  0
 55 54  1  0  0  0  0
 56 54  2  0  0  0  0
M  END
>  <MODEL>
8

>  <REMARK>
 VINA RESULT:      -3.5      3.443     11.369
  Name = 
  23 active torsions:
  status: ('A' for Active; 'I' for Inactive)
    1  A    between atoms: C_6  and  C_15
    2  A    between atoms: C_6  and  N_56
    3  A    between atoms: C_8  and  C_44
    4  A    between atoms: N_9  and  C_15
    5  A    between atoms: N_9  and  C_31
    6  A    between atoms: C_10  and  C_22
    7  A    between atoms: C_13  and  N_23
    8  A    between atoms: C_13  and  C_30
    9  A    between atoms: C_14  and  O_33
   10  A    between atoms: C_16  and  C_48
   11  A    between atoms: C_17  and  N_23
   12  A    between atoms: C_24  and  C_35
   13  A    between atoms: C_25  and  C_41
   14  A    between atoms: C_28  and  C_31
   15  A    between atoms: C_28  and  C_34
   16  A    between atoms: C_30  and  C_47
   17  A    between atoms: O_33  and  C_36
   18  A    between atoms: C_34  and  N_43
   19  A    between atoms: C_36  and  C_55
   20  A    between atoms: C_37  and  C_39
   21  A    between atoms: C_39  and  C_47
   22  A    between atoms: C_41  and  C_48
   23  A    between atoms: N_43  and  C_44
                            x       y       z     vdW  Elec       q    Type
                         _______ _______ _______ _____ _____    ______ ____

>  <TORSDO>
F 23

$$$$
=
 OpenBabel11052409533D

 56 60  0  0  1  0  0  0  0  0999 V2000
  161.4760  206.4530  152.3780 C   0  0  2  0  0  3  0  0  0  0  0  0
  161.1070  207.4200  151.2560 C   0  0  0  0  0  2  0  0  0  0  0  0
  161.3160  204.4880  151.0200 C   0  0  2  0  0  3  0  0  0  0  0  0
  160.7560  205.1960  152.1750 N   0  0  0  0  0  2  0  0  0  0  0  0
  161.4420  204.8620  148.6490 O   0  0  0  0  0  0  0  0  0  0  0  0
  161.3500  205.3770  149.7970 C   0  0  0  0  0  0  0  0  0  0  0  0
  161.3560  206.8090  149.9500 N   0  0  0  0  0  0  0  0  0  0  0  0
  161.2360  202.0840  150.4380 C   0  0  0  0  0  0  0  0  0  0  0  0
  161.0670  201.2530  147.8440 C   0  0  0  0  0  0  0  0  0  0  0  0
  160.4940  203.2270  150.7640 C   0  0  1  0  0  0  0  0  0  0  0  0
  160.2930  202.4410  148.1280 C   0  0  0  0  0  3  0  0  0  0  0  0
  161.9920  200.9720  150.2400 C   0  0  0  0  0  3  0  0  0  0  0  0
  159.3700  202.9740  151.5310 F   0  0  0  0  0  0  0  0  0  0  0  0
  160.4290  202.7820  149.4380 C   0  0  0  0  0  0  0  0  0  0  0  0
  161.8740  200.5650  148.8640 C   0  0  0  0  0  3  0  0  0  0  0  0
  160.4480  201.3030  145.5520 O   0  0  0  0  0  0  0  0  0  0  0  0
  161.0430  200.6880  146.4780 C   0  0  0  0  0  0  0  0  0  0  0  0
  161.7460  199.4040  146.1520 C   0  0  0  0  0  2  0  0  0  0  0  0
  160.6450  197.6510  144.8640 N   0  0  0  0  0  1  0  0  0  0  0  0
  160.7780  198.2330  146.1920 C   0  0  0  0  0  2  0  0  0  0  0  0
  160.5570  208.2370  156.1890 C   0  0  0  0  0  3  0  0  0  0  0  0
  160.2700  206.8880  155.9720 C   0  0  0  0  0  3  0  0  0  0  0  0
  160.5640  206.3020  154.7400 C   0  0  0  0  0  3  0  0  0  0  0  0
  161.1590  207.0560  153.7160 C   0  0  0  0  0  0  0  0  0  0  0  0
  161.1380  209.0010  155.1750 C   0  0  0  0  0  0  0  0  0  0  0  0
  161.4430  208.4120  153.9400 C   0  0  0  0  0  3  0  0  0  0  0  0
  161.3710  210.4520  155.3970 C   0  0  0  0  0  2  0  0  0  0  0  0
  160.4240  211.0120  156.4500 C   0  0  0  0  0  2  0  0  0  0  0  0
  160.4320  212.5300  156.3930 C   0  0  0  0  0  2  0  0  0  0  0  0
  159.1480  213.1020  156.9710 C   0  0  0  0  0  2  0  0  0  0  0  0
  158.1430  213.2080  155.9170 N   0  0  0  0  0  0  0  0  0  0  0  0
  156.4040  214.1160  157.1770 O   0  0  0  0  0  0  0  0  0  0  0  0
  156.7620  213.2810  156.3020 C   0  0  0  0  0  0  0  0  0  0  0  0
  158.9840  214.4190  152.3960 C   0  0  0  0  0  2  0  0  0  0  0  0
  158.5780  214.3760  153.8420 C   0  0  0  0  0  2  0  0  0  0  0  0
  158.7850  211.9860  153.8380 N   0  0  0  0  0  0  0  0  0  0  0  0
  158.5380  213.2230  154.5290 C   0  0  0  0  0  0  0  0  0  0  0  0
  158.6100  213.1210  151.6860 C   0  0  0  0  0  2  0  0  0  0  0  0
  159.2240  211.9490  152.4460 C   0  0  0  0  0  2  0  0  0  0  0  0
  155.2470  211.4670  156.4200 O   0  0  0  0  0  0  0  0  0  0  0  0
  155.7560  212.3810  155.7130 C   0  0  0  0  0  0  0  0  0  0  0  0
  155.3780  212.5620  154.3730 O   0  0  0  0  0  0  0  0  0  0  0  0
  154.7490  213.7030  153.8460 C   0  0  0  0  0  3  0  0  0  0  0  0
  155.1470  214.3230  152.7490 C   0  0  0  0  0  2  0  0  0  0  0  0
  161.3410  207.6780  148.7820 C   0  0  0  0  0  2  0  0  0  0  0  0
  162.4140  208.7550  148.8940 C   0  0  0  0  0  2  0  0  0  0  0  0
  161.9940  209.9880  148.2400 N   0  0  0  0  0  2  0  0  0  0  0  0
  162.1030  211.0780  149.2010 C   0  0  0  0  0  2  0  0  0  0  0  0
  162.8310  212.2600  148.5820 C   0  0  0  0  0  2  0  0  0  0  0  0
  162.0740  212.7590  147.3640 C   0  0  0  0  0  2  0  0  0  0  0  0
  160.6690  212.9320  147.6870 N   0  0  0  0  0  0  0  0  0  0  0  0
  160.4630  214.2630  147.8390 O   0  0  0  0  0  1  0  0  0  0  0  0
  159.9250  212.5220  146.5060 C   0  0  0  0  0  2  0  0  0  0  0  0
  158.4850  212.8740  146.6590 C   0  0  0  0  0  0  0  0  0  0  0  0
  158.1520  213.9210  147.2770 O   0  0  0  0  0  1  0  0  0  0  0  0
  157.5070  212.0190  146.1690 O   0  0  0  0  0  0  0  0  0  0  0  0
  1 24  1  1  0  0  0
  2  1  1  0  0  0  0
  3  6  1  6  0  0  0
  3  4  1  0  0  0  0
  4  1  1  0  0  0  0
  5  6  2  0  0  0  0
  6  7  1  0  0  0  0
  7  2  1  0  0  0  0
  8 10  1  0  0  0  0
  9 11  2  0  0  0  0
  9 15  1  0  0  0  0
 10  3  1  0  0  0  0
 10 13  1  1  0  0  0
 11 14  1  0  0  0  0
 12  8  1  0  0  0  0
 14  8  2  0  0  0  0
 14 10  1  0  0  0  0
 15 12  2  0  0  0  0
 16 17  2  0  0  0  0
 17  9  1  0  0  0  0
 18 20  1  0  0  0  0
 18 17  1  0  0  0  0
 19 20  1  0  0  0  0
 22 21  1  0  0  0  0
 23 22  2  0  0  0  0
 24 26  2  0  0  0  0
 24 23  1  0  0  0  0
 25 27  1  0  0  0  0
 25 21  2  0  0  0  0
 26 25  1  0  0  0  0
 27 28  1  0  0  0  0
 29 28  1  0  0  0  0
 29 30  1  0  0  0  0
 31 33  1  0  0  0  0
 31 30  1  0  0  0  0
 33 32  2  0  0  0  0
 34 35  1  0  0  0  0
 35 37  1  0  0  0  0
 36 37  2  0  0  0  0
 37 31  1  0  0  0  0
 38 34  1  0  0  0  0
 38 39  1  0  0  0  0
 39 36  1  0  0  0  0
 41 33  1  0  0  0  0
 41 40  2  0  0  0  0
 42 41  1  0  0  0  0
 43 42  1  0  0  0  0
 44 43  2  0  0  0  0
 45 46  1  0  0  0  0
 45  7  1  0  0  0  0
 47 46  1  0  0  0  0
 47 48  1  0  0  0  0
 49 48  1  0  0  0  0
 50 51  1  0  0  0  0
 50 49  1  0  0  0  0
 51 52  1  0  0  0  0
 53 54  1  0  0  0  0
 53 51  1  0  0  0  0
 54 55  1  0  0  0  0
 56 54  2  0  0  0  0
M  END
>  <MODEL>
9

>  <REMARK>
 VINA RESULT:      -3.2      4.903     10.749
  Name = 
  23 active torsions:
  status: ('A' for Active; 'I' for Inactive)
    1  A    between atoms: C_6  and  C_15
    2  A    between atoms: C_6  and  N_56
    3  A    between atoms: C_8  and  C_44
    4  A    between atoms: N_9  and  C_15
    5  A    between atoms: N_9  and  C_31
    6  A    between atoms: C_10  and  C_22
    7  A    between atoms: C_13  and  N_23
    8  A    between atoms: C_13  and  C_30
    9  A    between atoms: C_14  and  O_33
   10  A    between atoms: C_16  and  C_48
   11  A    between atoms: C_17  and  N_23
   12  A    between atoms: C_24  and  C_35
   13  A    between atoms: C_25  and  C_41
   14  A    between atoms: C_28  and  C_31
   15  A    between atoms: C_28  and  C_34
   16  A    between atoms: C_30  and  C_47
   17  A    between atoms: O_33  and  C_36
   18  A    between atoms: C_34  and  N_43
   19  A    between atoms: C_36  and  C_55
   20  A    between atoms: C_37  and  C_39
   21  A    between atoms: C_39  and  C_47
   22  A    between atoms: C_41  and  C_48
   23  A    between atoms: N_43  and  C_44
                            x       y       z     vdW  Elec       q    Type
                         _______ _______ _______ _____ _____    ______ ____

>  <TORSDO>
F 23

$$$$
