=
 OpenBabel11042422473D

 38 42  0  0  1  0  0  0  0  0999 V2000
  158.2370  212.5240  152.8340 C   0  0  0  0  0  3  0  0  0  0  0  0
  160.6770  210.7920  153.0480 C   0  0  0  0  0  0  0  0  0  0  0  0
  161.6550  209.7640  148.7790 C   0  0  2  0  0  3  0  0  0  0  0  0
  161.6840  211.3180  148.6160 C   0  0  1  0  0  3  0  0  0  0  0  0
  161.9620  210.2460  151.1850 C   0  0  1  0  0  3  0  0  0  0  0  0
  158.3880  210.9020  156.0800 N   0  0  0  0  0  1  0  0  0  0  0  0
  161.5460  209.8530  152.4910 O   0  0  0  0  0  0  0  0  0  0  0  0
  161.5590  209.2510  150.1840 N   0  0  0  0  0  0  0  0  0  0  0  0
  160.1300  210.6710  154.4170 C   0  0  0  0  0  0  0  0  0  0  0  0
  158.8940  211.1390  154.7700 C   0  0  0  0  0  0  0  0  0  0  0  0
  159.6140  212.9750  152.4980 C   0  0  0  0  0  2  0  0  0  0  0  0
  160.9880  212.0010  149.7630 C   0  0  0  0  0  0  0  0  0  0  0  0
  161.1740  211.4900  150.9790 C   0  0  0  0  0  0  0  0  0  0  0  0
  160.4530  211.7860  152.2060 C   0  0  0  0  0  0  0  0  0  0  0  0
  157.9730  211.7400  153.8360 N   0  0  0  0  0  0  0  0  0  0  0  0
  162.6540  209.1330  148.0190 O   0  0  0  0  0  1  0  0  0  0  0  0
  163.0820  211.8560  148.4850 C   0  0  0  0  0  3  0  0  0  0  0  0
  163.4350  212.7590  147.6170 N   0  0  0  0  0  0  0  0  0  0  0  0
  162.5820  213.4350  146.6800 C   0  0  0  0  0  0  0  0  0  0  0  0
  161.9170  214.4530  147.0180 O   0  0  0  0  0  0  0  0  0  0  0  0
  163.2750  213.9420  144.3590 C   0  0  0  0  0  2  0  0  0  0  0  0
  161.7640  213.9640  144.4210 C   0  0  0  0  0  2  0  0  0  0  0  0
  162.5410  212.9650  145.2620 C   0  0  0  0  0  3  0  0  0  0  0  0
  160.1630  213.1120  149.5690 O   0  0  0  0  0  0  0  0  0  0  0  0
  159.2820  213.2130  148.4590 C   0  0  0  0  0  1  0  0  0  0  0  0
  162.2440  210.3070  155.7250 C   0  0  0  0  0  2  0  0  0  0  0  0
  161.0250  209.9340  155.3470 C   0  0  0  0  0  3  0  0  0  0  0  0
  162.3750  208.0550  150.3910 C   0  0  0  0  0  2  0  0  0  0  0  0
  161.3230  203.8470  149.7980 C   0  0  0  0  0  2  0  0  0  0  0  0
  160.9750  204.9160  148.7690 C   0  0  1  0  0  3  0  0  0  0  0  0
  161.5240  206.8000  150.2550 C   0  0  1  0  0  3  0  0  0  0  0  0
  161.8730  206.1250  148.9410 C   0  0  0  0  0  2  0  0  0  0  0  0
  161.7310  205.8730  151.4670 C   0  0  1  0  0  3  0  0  0  0  0  0
  160.7890  206.2870  152.5860 C   0  0  0  0  0  1  0  0  0  0  0  0
  161.7050  203.5990  152.0930 O   0  0  0  0  0  0  0  0  0  0  0  0
  161.5680  204.3940  151.1790 C   0  0  0  0  0  0  0  0  0  0  0  0
  161.1410  204.3670  147.4230 C   0  0  0  0  0  0  0  0  0  0  0  0
  161.2720  203.9320  146.3580 N   0  0  0  0  0  0  0  0  0  0  0  0
  1 15  2  0  0  0  0
  2  9  1  0  0  0  0
  3 16  1  1  0  0  0
  3  8  1  0  0  0  0
  4 17  1  1  0  0  0
  4  3  1  0  0  0  0
  4 12  1  0  0  0  0
  5 13  1  6  0  0  0
  5  7  1  0  0  0  0
  7  2  1  0  0  0  0
  8 28  1  0  0  0  0
  8  5  1  0  0  0  0
  9 10  2  0  0  0  0
  9 27  1  0  0  0  0
 10  6  1  0  0  0  0
 11  1  1  0  0  0  0
 12 13  2  0  0  0  0
 13 14  1  0  0  0  0
 14 11  1  0  0  0  0
 14  2  2  0  0  0  0
 15 10  1  0  0  0  0
 18 17  2  0  0  0  0
 19 20  2  0  0  0  0
 19 18  1  0  0  0  0
 21 22  1  0  0  0  0
 21 23  1  0  0  0  0
 22 23  1  0  0  0  0
 23 19  1  0  0  0  0
 24 12  1  0  0  0  0
 25 24  1  0  0  0  0
 27 26  2  0  0  0  0
 29 36  1  0  0  0  0
 30 37  1  6  0  0  0
 30 32  1  0  0  0  0
 30 29  1  0  0  0  0
 31 28  1  1  0  0  0
 31 33  1  0  0  0  0
 32 31  1  0  0  0  0
 33 34  1  1  0  0  0
 36 33  1  0  0  0  0
 36 35  2  0  0  0  0
 38 37  3  0  0  0  0
M  END
>  <MODEL>
1

>  <REMARK>
 VINA RESULT:      -6.0      0.000      0.000
  Name = 
  8 active torsions:
  status: ('A' for Active; 'I' for Inactive)
    1  A    between atoms: C_1  and  C_13
    2  A    between atoms: C_3  and  N_20
    3  A    between atoms: C_3  and  C_37
    4  A    between atoms: O_6  and  C_33
    5  A    between atoms: C_7  and  C_12
    6  A    between atoms: C_16  and  C_32
    7  A    between atoms: C_22  and  C_27
    8  A    between atoms: N_23  and  C_32
                            x       y       z     vdW  Elec       q    Type
                         _______ _______ _______ _____ _____    ______ ____

>  <TORSDO>
F 8

$$$$
=
 OpenBabel11042422473D

 38 42  0  0  1  0  0  0  0  0999 V2000
  160.3930  214.4210  149.1350 C   0  0  0  0  0  3  0  0  0  0  0  0
  160.8340  211.8430  150.6050 C   0  0  0  0  0  0  0  0  0  0  0  0
  159.4620  212.7360  154.7950 C   0  0  2  0  0  3  0  0  0  0  0  0
  158.1350  213.1250  154.0690 C   0  0  1  0  0  3  0  0  0  0  0  0
  159.9480  211.4730  152.7260 C   0  0  1  0  0  3  0  0  0  0  0  0
  162.9850  212.4470  147.5300 N   0  0  0  0  0  1  0  0  0  0  0  0
  160.9870  211.1460  151.8030 O   0  0  0  0  0  0  0  0  0  0  0  0
  160.5010  212.0630  153.9510 N   0  0  0  0  0  0  0  0  0  0  0  0
  161.7360  211.6590  149.4460 C   0  0  0  0  0  0  0  0  0  0  0  0
  162.0330  212.6640  148.5670 C   0  0  0  0  0  0  0  0  0  0  0  0
  159.3050  213.4870  149.5310 C   0  0  0  0  0  2  0  0  0  0  0  0
  158.3610  213.3480  152.5970 C   0  0  0  0  0  0  0  0  0  0  0  0
  159.1990  212.5180  151.9780 C   0  0  0  0  0  0  0  0  0  0  0  0
  159.7800  212.6400  150.6510 C   0  0  0  0  0  0  0  0  0  0  0  0
  161.5530  214.0170  148.7100 N   0  0  0  0  0  0  0  0  0  0  0  0
  159.2260  212.0870  156.0180 O   0  0  0  0  0  1  0  0  0  0  0  0
  157.0520  212.0990  154.2610 C   0  0  0  0  0  3  0  0  0  0  0  0
  155.8440  212.3810  154.6520 N   0  0  0  0  0  0  0  0  0  0  0  0
  155.3060  213.6850  154.9190 C   0  0  0  0  0  0  0  0  0  0  0  0
  154.9520  214.4520  153.9810 O   0  0  0  0  0  0  0  0  0  0  0  0
  156.3890  213.9830  157.1250 C   0  0  0  0  0  2  0  0  0  0  0  0
  155.3170  212.9250  157.2590 C   0  0  0  0  0  2  0  0  0  0  0  0
  155.0960  214.1110  156.3370 C   0  0  0  0  0  3  0  0  0  0  0  0
  157.7390  214.3890  151.9040 O   0  0  0  0  0  0  0  0  0  0  0  0
  156.4350  214.2580  151.3550 C   0  0  0  0  0  1  0  0  0  0  0  0
  161.7890  209.2320  148.8030 C   0  0  0  0  0  2  0  0  0  0  0  0
  162.3350  210.3010  149.3740 C   0  0  0  0  0  3  0  0  0  0  0  0
  161.2010  211.0040  154.6780 C   0  0  0  0  0  2  0  0  0  0  0  0
  160.7540  206.6580  154.3910 C   0  0  0  0  0  2  0  0  0  0  0  0
  160.9030  207.5360  153.1540 C   0  0  1  0  0  3  0  0  0  0  0  0
  160.5790  209.6490  154.3750 C   0  0  1  0  0  3  0  0  0  0  0  0
  161.5510  208.8560  153.5190 C   0  0  0  0  0  2  0  0  0  0  0  0
  160.2120  208.9180  155.6800 C   0  0  1  0  0  3  0  0  0  0  0  0
  158.8280  209.3570  156.1310 C   0  0  0  0  0  1  0  0  0  0  0  0
  159.9840  206.7580  156.5990 O   0  0  0  0  0  0  0  0  0  0  0  0
  160.2740  207.4060  155.6080 C   0  0  0  0  0  0  0  0  0  0  0  0
  161.7260  206.8410  152.1630 C   0  0  0  0  0  0  0  0  0  0  0  0
  162.3760  206.2910  151.3780 N   0  0  0  0  0  0  0  0  0  0  0  0
  1 11  1  0  0  0  0
  2 14  2  0  0  0  0
  2  7  1  0  0  0  0
  3 16  1  1  0  0  0
  4 17  1  6  0  0  0
  4  3  1  0  0  0  0
  5  7  1  6  0  0  0
  5  8  1  0  0  0  0
  6 10  1  0  0  0  0
  8 28  1  0  0  0  0
  8  3  1  0  0  0  0
  9  2  1  0  0  0  0
 10 15  1  0  0  0  0
 10  9  2  0  0  0  0
 11 14  1  0  0  0  0
 12  4  1  0  0  0  0
 13 12  2  0  0  0  0
 13  5  1  0  0  0  0
 14 13  1  0  0  0  0
 15  1  2  0  0  0  0
 17 18  2  0  0  0  0
 18 19  1  0  0  0  0
 19 23  1  0  0  0  0
 20 19  2  0  0  0  0
 21 22  1  0  0  0  0
 23 21  1  0  0  0  0
 23 22  1  0  0  0  0
 24 12  1  0  0  0  0
 25 24  1  0  0  0  0
 26 27  2  0  0  0  0
 27  9  1  0  0  0  0
 29 36  1  0  0  0  0
 30 37  1  6  0  0  0
 30 32  1  0  0  0  0
 30 29  1  0  0  0  0
 31 28  1  1  0  0  0
 31 33  1  0  0  0  0
 32 31  1  0  0  0  0
 33 34  1  6  0  0  0
 36 33  1  0  0  0  0
 36 35  2  0  0  0  0
 38 37  3  0  0  0  0
M  END
>  <MODEL>
2

>  <REMARK>
 VINA RESULT:      -4.2      2.899      7.118
  Name = 
  8 active torsions:
  status: ('A' for Active; 'I' for Inactive)
    1  A    between atoms: C_1  and  C_13
    2  A    between atoms: C_3  and  N_20
    3  A    between atoms: C_3  and  C_37
    4  A    between atoms: O_6  and  C_33
    5  A    between atoms: C_7  and  C_12
    6  A    between atoms: C_16  and  C_32
    7  A    between atoms: C_22  and  C_27
    8  A    between atoms: N_23  and  C_32
                            x       y       z     vdW  Elec       q    Type
                         _______ _______ _______ _____ _____    ______ ____

>  <TORSDO>
F 8

$$$$
