=
 OpenBabel11052411393D

 43 47  0  0  1  0  0  0  0  0999 V2000
  160.9690  207.7600  153.0670 C   0  0  0  0  0  0  0  0  0  0  0  0
  161.1770  209.1320  153.3430 C   0  0  0  0  0  0  0  0  0  0  0  0
  160.6600  208.6940  155.6490 C   0  0  0  0  0  0  0  0  0  0  0  0
  160.4580  207.3780  155.3890 N   0  0  0  0  0  0  0  0  0  0  0  0
  160.6010  206.9020  154.1210 C   0  0  0  0  0  3  0  0  0  0  0  0
  157.9250  213.6410  154.6810 O   0  0  0  0  0  0  0  0  0  0  0  0
  160.5980  209.3170  156.9860 C   0  0  0  0  0  2  0  0  0  0  0  0
  158.3170  213.2160  155.8010 C   0  0  0  0  0  0  0  0  0  0  0  0
  160.1840  211.9060  154.7110 C   0  0  0  0  0  2  0  0  0  0  0  0
  161.0140  210.7720  156.7290 C   0  0  2  0  0  3  0  0  0  0  0  0
  159.8750  211.7000  157.1100 C   0  0  0  0  0  2  0  0  0  0  0  0
  159.4290  212.3150  155.8770 N   0  0  0  0  0  0  0  0  0  0  0  0
  161.0090  209.5760  154.6630 C   0  0  0  0  0  0  0  0  0  0  0  0
  161.2440  210.9370  155.2090 C   0  0  1  0  0  3  0  0  0  0  0  0
  161.5060  205.3500  150.1790 C   0  0  0  0  0  3  0  0  0  0  0  0
  161.2070  207.5830  149.3060 C   0  0  0  0  0  3  0  0  0  0  0  0
  161.0590  208.0700  150.6060 C   0  0  0  0  0  3  0  0  0  0  0  0
  161.4350  206.2180  149.0820 C   0  0  0  0  0  0  0  0  0  0  0  0
  161.3510  205.8270  151.4840 C   0  0  0  0  0  0  0  0  0  0  0  0
  161.1330  207.2060  151.7060 C   0  0  0  0  0  0  0  0  0  0  0  0
  161.6300  203.2980  145.2800 O   0  0  0  0  0  1  0  0  0  0  0  0
  161.5880  205.7040  147.7480 N   0  0  0  0  0  0  0  0  0  0  0  0
  162.1950  204.3810  145.9600 C   0  0  1  0  0  3  0  0  0  0  0  0
  161.5040  206.5320  146.6720 O   0  0  0  0  0  0  0  0  0  0  0  0
  161.5080  205.6720  145.5590 C   0  0  0  0  0  2  0  0  0  0  0  0
  161.9730  204.3360  147.4560 C   0  0  2  0  0  3  0  0  0  0  0  0
  160.8500  203.3860  147.8760 C   0  0  0  0  0  2  0  0  0  0  0  0
  161.3930  202.1800  148.3230 O   0  0  0  0  0  1  0  0  0  0  0  0
  161.4940  204.8590  152.6130 C   0  0  0  0  0  2  0  0  0  0  0  0
  160.5660  203.7570  152.4360 N   0  0  0  0  0  2  0  0  0  0  0  0
  161.3350  202.6470  151.9050 C   0  0  0  0  0  1  0  0  0  0  0  0
  160.7080  210.9250  151.6660 C   0  0  0  0  0  0  0  0  0  0  0  0
  161.1750  211.8440  150.6830 N   0  0  0  0  0  1  0  0  0  0  0  0
  159.4790  210.8940  151.9430 O   0  0  0  0  0  0  0  0  0  0  0  0
  161.6240  210.0380  152.3250 N   0  0  0  0  0  0  0  0  0  0  0  0
  163.0290  210.0220  151.9480 C   0  0  0  0  0  1  0  0  0  0  0  0
  157.6080  213.6710  157.0410 C   0  0  0  0  0  2  0  0  0  0  0  0
  156.0940  213.4330  156.9970 C   0  0  1  0  0  3  0  0  0  0  0  0
  155.4670  214.3320  156.1300 O   0  0  0  0  0  1  0  0  0  0  0  0
  155.5900  211.8150  155.3010 F   0  0  0  0  0  0  0  0  0  0  0  0
  156.6460  211.1150  157.1700 F   0  0  0  0  0  0  0  0  0  0  0  0
  155.7000  211.9920  156.6690 C   0  0  0  0  0  0  0  0  0  0  0  0
  154.4800  211.7120  157.2540 F   0  0  0  0  0  0  0  0  0  0  0  0
  1  2  2  0  0  0  0
  1  5  1  0  0  0  0
  2 13  1  0  0  0  0
  3  7  1  0  0  0  0
  4  3  1  0  0  0  0
  5  4  2  0  0  0  0
  6  8  2  0  0  0  0
  8 12  1  0  0  0  0
  8 37  1  0  0  0  0
  9 12  1  0  0  0  0
 10  7  1  6  0  0  0
 10 11  1  0  0  0  0
 12 11  1  0  0  0  0
 13 14  1  0  0  0  0
 13  3  2  0  0  0  0
 14  9  1  6  0  0  0
 14 10  1  0  0  0  0
 15 19  1  0  0  0  0
 16 17  2  0  0  0  0
 17 20  1  0  0  0  0
 18 16  1  0  0  0  0
 18 15  2  0  0  0  0
 19 20  2  0  0  0  0
 19 29  1  0  0  0  0
 20  1  1  0  0  0  0
 22 18  1  0  0  0  0
 23 21  1  6  0  0  0
 23 26  1  0  0  0  0
 24 22  1  0  0  0  0
 25 23  1  0  0  0  0
 25 24  1  0  0  0  0
 26 22  1  0  0  0  0
 26 27  1  6  0  0  0
 27 28  1  0  0  0  0
 30 29  1  0  0  0  0
 31 30  1  0  0  0  0
 32 34  2  0  0  0  0
 32 35  1  0  0  0  0
 33 32  1  0  0  0  0
 35  2  1  0  0  0  0
 36 35  1  0  0  0  0
 38 39  1  6  0  0  0
 38 37  1  0  0  0  0
 40 42  1  0  0  0  0
 42 38  1  0  0  0  0
 42 41  1  0  0  0  0
 42 43  1  0  0  0  0
M  END
>  <MODEL>
1

>  <REMARK>
 VINA RESULT:      -7.1      0.000      0.000
  Name = 
  9 active torsions:
  status: ('A' for Active; 'I' for Inactive)
    1  A    between atoms: N_2  and  C_23
    2  A    between atoms: C_3  and  C_42
    3  A    between atoms: C_4  and  N_40
    4  A    between atoms: C_5  and  C_43
    5  A    between atoms: N_7  and  C_35
    6  A    between atoms: C_18  and  C_27
    7  A    between atoms: C_18  and  C_31
    8  A    between atoms: C_19  and  C_31
    9  A    between atoms: C_23  and  C_36
                            x       y       z     vdW  Elec       q    Type
                         _______ _______ _______ _____ _____    ______ ____

>  <TORSDO>
F 9

$$$$
