=
 OpenBabel11042420193D

 51 56  0  0  1  0  0  0  0  0999 V2000
  163.0050  207.5930  150.6860 C   0  0  0  0  0  2  0  0  0  0  0  0
  161.0370  205.8970  153.4470 C   0  0  0  0  0  3  0  0  0  0  0  0
  162.5880  209.7160  152.3020 C   0  0  1  0  0  3  0  0  0  0  0  0
  160.4380  203.6840  152.6890 C   0  0  0  0  0  3  0  0  0  0  0  0
  160.4470  204.6560  153.6890 C   0  0  0  0  0  3  0  0  0  0  0  0
  162.1920  208.4380  152.9000 N   0  0  0  0  0  2  0  0  0  0  0  0
  161.6230  206.1530  152.1990 C   0  0  0  0  0  0  0  0  0  0  0  0
  161.5470  209.7360  149.9870 C   0  0  1  0  0  3  0  0  0  0  0  0
  162.2510  207.4160  151.9320 N   0  0  0  0  0  0  0  0  0  0  0  0
  160.7610  208.4340  149.8070 C   0  0  0  0  0  2  0  0  0  0  0  0
  161.5420  210.2130  151.3920 N   0  0  0  0  0  0  0  0  0  0  0  0
  161.5940  205.1860  151.2390 N   0  0  0  0  0  0  0  0  0  0  0  0
  162.2640  208.4150  149.6170 C   0  0  2  0  0  3  0  0  0  0  0  0
  161.0140  203.9720  151.4490 C   0  0  0  0  0  0  0  0  0  0  0  0
  161.2900  204.5530  148.3950 C   0  0  0  0  0  2  0  0  0  0  0  0
  161.0090  202.9720  150.4250 N   0  0  0  0  0  2  0  0  0  0  0  0
  161.0950  204.9220  145.8980 C   0  0  0  0  0  3  0  0  0  0  0  0
  161.3030  202.2230  148.1800 N   0  0  0  0  0  0  0  0  0  0  0  0
  161.2500  203.2070  149.0320 C   0  0  0  0  0  0  0  0  0  0  0  0
  160.8080  203.9130  145.0600 C   0  0  0  0  0  3  0  0  0  0  0  0
  161.5290  204.2750  147.1260 C   0  0  2  0  0  3  0  0  0  0  0  0
  161.0170  202.6160  145.7490 C   0  0  0  0  0  0  0  0  0  0  0  0
  161.5010  202.8880  146.9470 C   0  0  0  0  0  0  0  0  0  0  0  0
  160.5290  201.3100  145.2850 C   0  0  0  0  0  0  0  0  0  0  0  0
  159.5520  201.2480  144.4940 O   0  0  0  0  0  0  0  0  0  0  0  0
  161.1430  200.1360  145.7100 O   0  0  0  0  0  1  0  0  0  0  0  0
  164.2600  210.7610  153.6670 O   0  0  0  0  0  1  0  0  0  0  0  0
  162.8900  210.7420  153.3950 C   0  0  2  0  0  3  0  0  0  0  0  0
  162.1300  210.4140  154.6690 C   0  0  0  0  0  2  0  0  0  0  0  0
  162.9490  210.8310  155.8780 C   0  0  0  0  0  2  0  0  0  0  0  0
  160.0750  209.1720  157.1590 C   0  0  1  0  0  3  0  0  0  0  0  0
  160.9230  211.4190  157.1710 C   0  0  0  0  0  0  0  0  0  0  0  0
  161.5690  209.2120  157.1260 C   0  0  0  0  0  0  0  0  0  0  0  0
  162.2570  208.2020  157.1170 O   0  0  0  0  0  0  0  0  0  0  0  0
  162.1510  210.5770  157.1480 C   0  0  1  0  0  3  0  0  0  0  0  0
  160.9600  212.6370  157.2610 O   0  0  0  0  0  0  0  0  0  0  0  0
  159.6360  210.6490  157.1320 C   0  0  1  0  0  3  0  0  0  0  0  0
  159.5910  208.4460  156.0660 O   0  0  0  0  0  1  0  0  0  0  0  0
  158.8240  211.0220  155.8940 C   0  0  0  0  0  2  0  0  0  0  0  0
  157.4770  211.1580  156.2270 O   0  0  0  0  0  1  0  0  0  0  0  0
  160.2020  210.2290  151.9890 C   0  0  0  0  0  2  0  0  0  0  0  0
  159.8490  211.6470  152.3910 C   0  0  0  0  0  2  0  0  0  0  0  0
  160.3160  212.6200  151.3190 C   0  0  0  0  0  2  0  0  0  0  0  0
  158.1810  213.6030  151.7900 O   0  0  0  0  0  1  0  0  0  0  0  0
  159.4580  213.8800  151.2990 C   0  0  2  0  0  3  0  0  0  0  0  0
  159.3740  214.4530  149.8900 C   0  0  0  0  0  2  0  0  0  0  0  0
  159.4790  213.3430  148.8540 C   0  0  0  0  0  2  0  0  0  0  0  0
  161.3300  213.7330  147.3560 C   0  0  0  0  0  0  0  0  0  0  0  0
  160.0770  213.8540  147.6410 N   0  0  0  0  0  0  0  0  0  0  0  0
  161.8370  214.2960  146.0750 C   0  0  0  0  0  1  0  0  0  0  0  0
  162.3010  213.0580  148.2780 C   0  0  0  0  0  1  0  0  0  0  0  0
  1  9  1  0  0  0  0
  2  5  1  0  0  0  0
  3  6  1  0  0  0  0
  3 28  1  1  0  0  0
  4  5  2  0  0  0  0
  7  2  2  0  0  0  0
  8 10  1  1  0  0  0
  8 11  1  0  0  0  0
  9  7  1  0  0  0  0
  9  6  1  0  0  0  0
 11 41  1  0  0  0  0
 11  3  1  0  0  0  0
 12 14  2  0  0  0  0
 12  7  1  0  0  0  0
 13 10  1  1  0  0  0
 13  8  1  0  0  0  0
 13  1  1  0  0  0  0
 14  4  1  0  0  0  0
 15 19  1  0  0  0  0
 16 14  1  0  0  0  0
 18 19  2  0  0  0  0
 19 16  1  0  0  0  0
 20 22  1  0  0  0  0
 20 17  2  0  0  0  0
 21 17  1  6  0  0  0
 21 15  1  0  0  0  0
 22 23  2  0  0  0  0
 23 21  1  0  0  0  0
 23 18  1  0  0  0  0
 24 26  1  0  0  0  0
 24 22  1  0  0  0  0
 25 24  2  0  0  0  0
 28 27  1  1  0  0  0
 28 29  1  0  0  0  0
 29 30  1  0  0  0  0
 31 38  1  6  0  0  0
 32 36  2  0  0  0  0
 33 35  1  0  0  0  0
 33 31  1  0  0  0  0
 34 33  2  0  0  0  0
 35 30  1  6  0  0  0
 35 32  1  0  0  0  0
 37 39  1  6  0  0  0
 37 31  1  0  0  0  0
 37 32  1  0  0  0  0
 39 40  1  0  0  0  0
 41 42  1  0  0  0  0
 43 42  1  0  0  0  0
 45 43  1  0  0  0  0
 45 44  1  6  0  0  0
 46 45  1  0  0  0  0
 47 46  1  0  0  0  0
 48 49  2  0  0  0  0
 48 51  1  0  0  0  0
 49 47  1  0  0  0  0
 50 48  1  0  0  0  0
M  END
>  <MODEL>
1

>  <REMARK>
 VINA RESULT:      -4.0      0.000      0.000
  Name = 
  14 active torsions:
  status: ('A' for Active; 'I' for Inactive)
    1  A    between atoms: C_3  and  C_33
    2  A    between atoms: C_3  and  C_47
    3  A    between atoms: C_6  and  C_44
    4  A    between atoms: C_7  and  C_40
    5  A    between atoms: C_12  and  C_44
    6  A    between atoms: C_12  and  C_46
    7  A    between atoms: N_14  and  C_51
    8  A    between atoms: N_18  and  C_33
    9  A    between atoms: C_19  and  C_36
   10  A    between atoms: C_30  and  C_46
   11  A    between atoms: N_37  and  C_39
   12  A    between atoms: C_39  and  C_45
   13  A    between atoms: C_45  and  C_49
   14  A    between atoms: C_47  and  C_49
                            x       y       z     vdW  Elec       q    Type
                         _______ _______ _______ _____ _____    ______ ____

>  <TORSDO>
F 14

$$$$
=
 OpenBabel11042420193D

 51 56  0  0  1  0  0  0  0  0999 V2000
  162.4520  212.0590  146.3820 C   0  0  0  0  0  2  0  0  0  0  0  0
  158.7070  212.5490  146.0510 C   0  0  0  0  0  3  0  0  0  0  0  0
  161.7220  211.6480  148.9490 C   0  0  1  0  0  3  0  0  0  0  0  0
  158.2620  213.4640  143.8610 C   0  0  0  0  0  3  0  0  0  0  0  0
  157.7980  212.9780  145.0840 C   0  0  0  0  0  3  0  0  0  0  0  0
  160.5880  211.7410  148.0260 N   0  0  0  0  0  2  0  0  0  0  0  0
  160.0820  212.6040  145.7820 C   0  0  0  0  0  0  0  0  0  0  0  0
  163.1990  213.6430  148.4170 C   0  0  1  0  0  3  0  0  0  0  0  0
  161.0360  212.1520  146.7550 N   0  0  0  0  0  0  0  0  0  0  0  0
  162.5320  214.4420  147.2930 C   0  0  0  0  0  2  0  0  0  0  0  0
  162.2120  212.9890  149.3110 N   0  0  0  0  0  0  0  0  0  0  0  0
  160.5060  213.0890  144.5810 N   0  0  0  0  0  0  0  0  0  0  0  0
  163.3230  213.1990  146.9390 C   0  0  2  0  0  3  0  0  0  0  0  0
  159.6380  213.5230  143.6260 C   0  0  0  0  0  0  0  0  0  0  0  0
  161.2020  211.8270  141.5250 C   0  0  0  0  0  2  0  0  0  0  0  0
  160.1130  214.0180  142.3690 N   0  0  0  0  0  2  0  0  0  0  0  0
  162.8140  210.6850  139.9420 C   0  0  0  0  0  3  0  0  0  0  0  0
  161.0590  213.7490  140.1980 N   0  0  0  0  0  0  0  0  0  0  0  0
  160.7280  213.2280  141.3450 C   0  0  0  0  0  0  0  0  0  0  0  0
  163.4130  211.3560  138.9440 C   0  0  0  0  0  3  0  0  0  0  0  0
  161.6950  211.5240  140.3370 C   0  0  2  0  0  3  0  0  0  0  0  0
  162.7110  212.6420  138.7160 C   0  0  0  0  0  0  0  0  0  0  0  0
  161.6670  212.6620  139.5250 C   0  0  0  0  0  0  0  0  0  0  0  0
  163.2300  213.7760  137.9390 C   0  0  0  0  0  0  0  0  0  0  0  0
  162.4520  214.4500  137.2140 O   0  0  0  0  0  0  0  0  0  0  0  0
  164.5770  214.1170  138.0010 O   0  0  0  0  0  1  0  0  0  0  0  0
  160.7720  211.7170  151.1500 O   0  0  0  0  0  1  0  0  0  0  0  0
  161.3260  210.8590  150.1980 C   0  0  2  0  0  3  0  0  0  0  0  0
  162.5310  210.1540  150.7970 C   0  0  0  0  0  2  0  0  0  0  0  0
  162.5570  208.7050  150.3450 C   0  0  0  0  0  2  0  0  0  0  0  0
  160.5000  205.8030  150.3810 C   0  0  1  0  0  3  0  0  0  0  0  0
  161.0160  207.5370  148.8010 C   0  0  0  0  0  0  0  0  0  0  0  0
  160.8220  207.1000  151.0510 C   0  0  0  0  0  0  0  0  0  0  0  0
  160.7970  207.2410  152.2650 O   0  0  0  0  0  0  0  0  0  0  0  0
  161.1350  208.2140  150.1210 C   0  0  1  0  0  3  0  0  0  0  0  0
  161.1360  208.1330  147.7410 O   0  0  0  0  0  0  0  0  0  0  0  0
  160.6840  206.0770  148.8750 C   0  0  1  0  0  3  0  0  0  0  0  0
  161.3480  204.7960  150.8530 O   0  0  0  0  0  1  0  0  0  0  0  0
  161.7890  205.2400  148.2340 C   0  0  0  0  0  2  0  0  0  0  0  0
  161.3210  203.9550  147.9610 O   0  0  0  0  0  1  0  0  0  0  0  0
  161.1540  213.9000  149.7620 C   0  0  0  0  0  2  0  0  0  0  0  0
  159.8020  213.3000  149.4310 C   0  0  0  0  0  2  0  0  0  0  0  0
  158.7020  214.3090  149.7250 C   0  0  0  0  0  2  0  0  0  0  0  0
  156.3880  213.8540  150.1540 O   0  0  0  0  0  1  0  0  0  0  0  0
  157.6710  213.7410  150.6940 C   0  0  2  0  0  3  0  0  0  0  0  0
  157.7460  214.4500  152.0390 C   0  0  0  0  0  2  0  0  0  0  0  0
  157.1200  213.5950  153.1310 C   0  0  0  0  0  2  0  0  0  0  0  0
  157.8480  211.7150  154.4570 C   0  0  0  0  0  0  0  0  0  0  0  0
  158.1240  212.7460  153.7320 N   0  0  0  0  0  0  0  0  0  0  0  0
  158.9640  210.9110  155.0240 C   0  0  0  0  0  1  0  0  0  0  0  0
  156.4390  211.3060  154.7660 C   0  0  0  0  0  1  0  0  0  0  0  0
  1  9  1  0  0  0  0
  3 11  1  0  0  0  0
  3 28  1  1  0  0  0
  4  5  2  0  0  0  0
  5  2  1  0  0  0  0
  6  3  1  0  0  0  0
  7  2  2  0  0  0  0
  7  9  1  0  0  0  0
  8 10  1  6  0  0  0
  8 11  1  0  0  0  0
  9  6  1  0  0  0  0
 11 41  1  0  0  0  0
 12  7  1  0  0  0  0
 13  1  1  1  0  0  0
 13 10  1  0  0  0  0
 13  8  1  0  0  0  0
 14  4  1  0  0  0  0
 14 12  2  0  0  0  0
 16 14  1  0  0  0  0
 18 19  2  0  0  0  0
 19 15  1  0  0  0  0
 19 16  1  0  0  0  0
 20 17  2  0  0  0  0
 21 17  1  1  0  0  0
 21 15  1  0  0  0  0
 22 20  1  0  0  0  0
 22 23  2  0  0  0  0
 23 18  1  0  0  0  0
 23 21  1  0  0  0  0
 24 26  1  0  0  0  0
 24 22  1  0  0  0  0
 25 24  2  0  0  0  0
 28 29  1  0  0  0  0
 28 27  1  1  0  0  0
 30 29  1  0  0  0  0
 31 38  1  1  0  0  0
 31 33  1  0  0  0  0
 32 37  1  0  0  0  0
 32 35  1  0  0  0  0
 33 34  2  0  0  0  0
 35 30  1  1  0  0  0
 35 33  1  0  0  0  0
 36 32  2  0  0  0  0
 37 39  1  1  0  0  0
 37 31  1  0  0  0  0
 40 39  1  0  0  0  0
 42 43  1  0  0  0  0
 42 41  1  0  0  0  0
 43 45  1  0  0  0  0
 45 44  1  6  0  0  0
 45 46  1  0  0  0  0
 46 47  1  0  0  0  0
 47 49  1  0  0  0  0
 48 51  1  0  0  0  0
 48 50  1  0  0  0  0
 49 48  2  0  0  0  0
M  END
>  <MODEL>
2

>  <REMARK>
 VINA RESULT:      -1.3      4.949      9.039
  Name = 
  14 active torsions:
  status: ('A' for Active; 'I' for Inactive)
    1  A    between atoms: C_3  and  C_33
    2  A    between atoms: C_3  and  C_47
    3  A    between atoms: C_6  and  C_44
    4  A    between atoms: C_7  and  C_40
    5  A    between atoms: C_12  and  C_44
    6  A    between atoms: C_12  and  C_46
    7  A    between atoms: N_14  and  C_51
    8  A    between atoms: N_18  and  C_33
    9  A    between atoms: C_19  and  C_36
   10  A    between atoms: C_30  and  C_46
   11  A    between atoms: N_37  and  C_39
   12  A    between atoms: C_39  and  C_45
   13  A    between atoms: C_45  and  C_49
   14  A    between atoms: C_47  and  C_49
                            x       y       z     vdW  Elec       q    Type
                         _______ _______ _______ _____ _____    ______ ____

>  <TORSDO>
F 14

$$$$
