=
 OpenBabel11052411223D

 41 46  0  0  1  0  0  0  0  0999 V2000
  161.5400  208.0200  151.1690 C   0  0  1  0  0  0  0  0  0  0  0  0
  162.6110  207.1650  151.8060 C   0  0  0  0  0  2  0  0  0  0  0  0
  160.6410  207.1320  153.2090 N   0  0  0  0  0  0  0  0  0  0  0  0
  162.0240  206.6640  153.1260 C   0  0  0  0  0  2  0  0  0  0  0  0
  160.5300  208.2480  152.2820 C   0  0  0  0  0  2  0  0  0  0  0  0
  162.7780  210.0280  151.7060 O   0  0  0  0  0  1  0  0  0  0  0  0
  162.1410  209.3360  150.6720 C   0  0  0  0  0  2  0  0  0  0  0  0
  160.4580  207.6760  154.5470 C   0  0  0  0  0  2  0  0  0  0  0  0
  160.8700  209.1480  154.5840 C   0  0  0  0  0  2  0  0  0  0  0  0
  159.7560  209.9730  155.0410 N   0  0  0  0  0  2  0  0  0  0  0  0
  159.9730  211.3360  154.5570 C   0  0  1  0  0  3  0  0  0  0  0  0
  159.4000  213.1940  152.1120 C   0  0  1  0  0  3  0  0  0  0  0  0
  157.1990  213.9350  152.1360 C   0  0  0  0  0  3  0  0  0  0  0  0
  158.8930  211.7430  153.6520 N   0  0  0  0  0  0  0  0  0  0  0  0
  159.3960  211.6860  152.2760 C   0  0  0  0  0  2  0  0  0  0  0  0
  157.5410  213.7130  153.4950 N   0  0  0  0  0  2  0  0  0  0  0  0
  158.2080  213.6530  151.3290 C   0  0  0  0  0  3  0  0  0  0  0  0
  158.9060  213.2050  153.5560 C   0  0  2  0  0  3  0  0  0  0  0  0
  160.0880  212.2720  155.6860 N   0  0  0  0  0  2  0  0  0  0  0  0
  159.4550  211.7050  156.8750 C   0  0  0  0  0  2  0  0  0  0  0  0
  158.2340  212.5270  157.2520 C   0  0  0  0  0  2  0  0  0  0  0  0
  156.9820  211.9210  156.6440 C   0  0  0  0  0  1  0  0  0  0  0  0
  160.9490  207.2670  150.0570 N   0  0  0  0  0  2  0  0  0  0  0  0
  161.9340  207.0120  149.0080 C   0  0  0  0  0  2  0  0  0  0  0  0
  161.1430  206.6490  146.6110 C   0  0  1  0  0  0  0  0  0  0  0  0
  160.7680  206.2220  145.1880 C   0  0  2  0  0  3  0  0  0  0  0  0
  162.2980  205.7500  146.9390 N   0  0  0  0  0  2  0  0  0  0  0  0
  161.3520  206.0610  147.9770 C   0  0  1  0  0  0  0  0  0  0  0  0
  159.9100  206.0220  146.2450 O   0  0  0  0  0  0  0  0  0  0  0  0
  161.2180  204.8590  144.6150 C   0  0  0  0  0  0  0  0  0  0  0  0
  161.4570  204.9840  143.2550 F   0  0  0  0  0  0  0  0  0  0  0  0
  162.3600  204.3630  145.2360 F   0  0  0  0  0  0  0  0  0  0  0  0
  160.1880  203.9570  144.7960 F   0  0  0  0  0  0  0  0  0  0  0  0
  160.6120  204.8000  148.4640 C   0  0  0  0  0  2  0  0  0  0  0  0
  159.9610  201.7070  149.0970 C   0  0  0  0  0  0  0  0  0  0  0  0
  161.6100  203.1280  150.0880 C   0  0  1  0  0  3  0  0  0  0  0  0
  160.9080  202.1860  147.6620 S   0  0  0  0  0  0  0  0  0  0  0  0
  161.5420  203.5940  148.6290 C   0  0  1  0  0  3  0  0  0  0  0  0
  161.7050  204.2020  150.9780 O   0  0  0  0  0  1  0  0  0  0  0  0
  158.9690  201.0030  149.0080 O   0  0  0  0  0  0  0  0  0  0  0  0
  160.3900  202.2790  150.3960 C   0  0  0  0  0  2  0  0  0  0  0  0
  1  7  1  6  0  0  0
  1  2  1  0  0  0  0
  1  5  1  0  0  0  0
  2  4  1  0  0  0  0
  3  8  1  0  0  0  0
  4  3  1  0  0  0  0
  5  3  1  0  0  0  0
  7  6  1  0  0  0  0
  8  9  1  0  0  0  0
  9 10  1  0  0  0  0
 11 10  1  1  0  0  0
 11 19  1  0  0  0  0
 12 17  1  6  0  0  0
 12 15  1  0  0  0  0
 12 18  1  0  0  0  0
 13 16  1  0  0  0  0
 14 11  1  0  0  0  0
 15 14  1  0  0  0  0
 17 13  2  0  0  0  0
 18 16  1  6  0  0  0
 18 14  1  0  0  0  0
 19 20  1  0  0  0  0
 20 21  1  0  0  0  0
 22 21  1  0  0  0  0
 23  1  1  0  0  0  0
 24 23  1  0  0  0  0
 25 29  1  1  0  0  0
 25 27  1  0  0  0  0
 25 28  1  0  0  0  0
 26 30  1  1  0  0  0
 26 29  1  0  0  0  0
 26 25  1  0  0  0  0
 27 28  1  0  0  0  0
 28 34  1  1  0  0  0
 28 24  1  0  0  0  0
 30 33  1  0  0  0  0
 30 32  1  0  0  0  0
 31 30  1  0  0  0  0
 35 41  1  0  0  0  0
 36 41  1  0  0  0  0
 36 39  1  1  0  0  0
 37 38  1  0  0  0  0
 37 35  1  0  0  0  0
 38 34  1  1  0  0  0
 38 36  1  0  0  0  0
 40 35  2  0  0  0  0
M  END
>  <MODEL>
1

>  <REMARK>
 VINA RESULT:      -6.1      0.000      0.000
  Name = 
  15 active torsions:
  status: ('A' for Active; 'I' for Inactive)
    1  A    between atoms: C_2  and  N_26
    2  A    between atoms: C_2  and  C_30
    3  A    between atoms: C_5  and  C_32
    4  A    between atoms: C_6  and  C_7
    5  A    between atoms: N_11  and  C_31
    6  A    between atoms: C_12  and  C_19
    7  A    between atoms: C_12  and  N_21
    8  A    between atoms: C_15  and  N_21
    9  A    between atoms: C_15  and  C_39
   10  A    between atoms: C_19  and  C_41
   11  A    between atoms: C_23  and  C_41
   12  A    between atoms: C_30  and  N_34
   13  A    between atoms: C_31  and  N_34
   14  A    between atoms: C_31  and  N_40
   15  A    between atoms: C_32  and  N_40
                            x       y       z     vdW  Elec       q    Type
                         _______ _______ _______ _____ _____    ______ ____

>  <TORSDO>
F 15

$$$$
=
 OpenBabel11052411223D

 41 46  0  0  1  0  0  0  0  0999 V2000
  162.0390  207.5630  151.0960 C   0  0  1  0  0  0  0  0  0  0  0  0
  160.6860  207.5420  151.7690 C   0  0  0  0  0  2  0  0  0  0  0  0
  161.5320  209.8090  151.7720 N   0  0  0  0  0  0  0  0  0  0  0  0
  160.4230  208.9750  152.2340 C   0  0  0  0  0  2  0  0  0  0  0  0
  162.6360  208.9030  151.4930 C   0  0  0  0  0  2  0  0  0  0  0  0
  162.4090  205.8870  152.8010 O   0  0  0  0  0  1  0  0  0  0  0  0
  162.8930  206.3930  151.5910 C   0  0  0  0  0  2  0  0  0  0  0  0
  161.9390  210.6340  152.9000 C   0  0  0  0  0  2  0  0  0  0  0  0
  160.7320  210.9720  153.7760 C   0  0  0  0  0  2  0  0  0  0  0  0
  161.1510  211.1620  155.1610 N   0  0  0  0  0  2  0  0  0  0  0  0
  159.9600  211.0870  156.0080 C   0  0  1  0  0  3  0  0  0  0  0  0
  157.2020  212.3300  156.7870 C   0  0  1  0  0  3  0  0  0  0  0  0
  155.8420  212.5610  154.9170 C   0  0  0  0  0  3  0  0  0  0  0  0
  158.8870  211.9320  155.4710 N   0  0  0  0  0  0  0  0  0  0  0  0
  158.5520  212.9470  156.4730 C   0  0  0  0  0  2  0  0  0  0  0  0
  156.6930  211.4600  154.6370 N   0  0  0  0  0  2  0  0  0  0  0  0
  156.0970  213.0790  156.1070 C   0  0  0  0  0  3  0  0  0  0  0  0
  157.6080  211.2790  155.7580 C   0  0  2  0  0  3  0  0  0  0  0  0
  159.5100  209.6940  156.1420 N   0  0  0  0  0  2  0  0  0  0  0  0
  160.3240  208.9960  157.1350 C   0  0  0  0  0  2  0  0  0  0  0  0
  160.2320  207.4950  156.9160 C   0  0  0  0  0  2  0  0  0  0  0  0
  160.3950  207.1660  155.4430 C   0  0  0  0  0  1  0  0  0  0  0  0
  161.8350  207.4770  149.6450 N   0  0  0  0  0  2  0  0  0  0  0  0
  160.6780  206.6450  149.3220 C   0  0  0  0  0  2  0  0  0  0  0  0
  160.4930  206.1980  146.8180 C   0  0  1  0  0  0  0  0  0  0  0  0
  160.6020  205.8560  145.3280 C   0  0  2  0  0  3  0  0  0  0  0  0
  161.9260  206.3580  147.2330 N   0  0  0  0  0  2  0  0  0  0  0  0
  161.0090  205.7370  148.1510 C   0  0  1  0  0  0  0  0  0  0  0  0
  160.1150  204.9460  146.2380 O   0  0  0  0  0  0  0  0  0  0  0  0
  161.9220  205.3320  144.7200 C   0  0  0  0  0  0  0  0  0  0  0  0
  161.8170  205.3010  143.3380 F   0  0  0  0  0  0  0  0  0  0  0  0
  163.0240  206.1040  145.0770 F   0  0  0  0  0  0  0  0  0  0  0  0
  162.1210  204.0430  145.1720 F   0  0  0  0  0  0  0  0  0  0  0  0
  161.3960  204.2720  148.4330 C   0  0  0  0  0  2  0  0  0  0  0  0
  161.5040  202.1780  150.8810 C   0  0  0  0  0  0  0  0  0  0  0  0
  160.3420  201.9950  148.8000 C   0  0  1  0  0  3  0  0  0  0  0  0
  160.4650  203.6280  150.9400 S   0  0  0  0  0  0  0  0  0  0  0  0
  160.2800  203.4900  149.1330 C   0  0  1  0  0  3  0  0  0  0  0  0
  160.5990  201.7710  147.4440 O   0  0  0  0  0  1  0  0  0  0  0  0
  162.3110  201.9270  151.7610 O   0  0  0  0  0  0  0  0  0  0  0  0
  161.4000  201.3360  149.6650 C   0  0  0  0  0  2  0  0  0  0  0  0
  1  5  1  0  0  0  0
  1  7  1  1  0  0  0
  1  2  1  0  0  0  0
  2  4  1  0  0  0  0
  3  4  1  0  0  0  0
  3  8  1  0  0  0  0
  5  3  1  0  0  0  0
  7  6  1  0  0  0  0
  8  9  1  0  0  0  0
  9 10  1  0  0  0  0
 11 10  1  6  0  0  0
 11 19  1  0  0  0  0
 12 17  1  6  0  0  0
 13 17  2  0  0  0  0
 14 18  1  0  0  0  0
 14 11  1  0  0  0  0
 14 15  1  0  0  0  0
 15 12  1  0  0  0  0
 16 13  1  0  0  0  0
 18 16  1  6  0  0  0
 18 12  1  0  0  0  0
 19 20  1  0  0  0  0
 21 20  1  0  0  0  0
 22 21  1  0  0  0  0
 23  1  1  0  0  0  0
 24 23  1  0  0  0  0
 25 29  1  6  0  0  0
 25 27  1  0  0  0  0
 25 28  1  0  0  0  0
 26 30  1  1  0  0  0
 26 29  1  0  0  0  0
 26 25  1  0  0  0  0
 27 28  1  0  0  0  0
 28 34  1  1  0  0  0
 28 24  1  0  0  0  0
 30 32  1  0  0  0  0
 30 33  1  0  0  0  0
 31 30  1  0  0  0  0
 35 37  1  0  0  0  0
 35 40  2  0  0  0  0
 36 39  1  6  0  0  0
 36 38  1  0  0  0  0
 36 41  1  0  0  0  0
 38 34  1  6  0  0  0
 38 37  1  0  0  0  0
 41 35  1  0  0  0  0
M  END
>  <MODEL>
2

>  <REMARK>
 VINA RESULT:      -6.1      1.916      2.921
  Name = 
  15 active torsions:
  status: ('A' for Active; 'I' for Inactive)
    1  A    between atoms: C_2  and  N_26
    2  A    between atoms: C_2  and  C_30
    3  A    between atoms: C_5  and  C_32
    4  A    between atoms: C_6  and  C_7
    5  A    between atoms: N_11  and  C_31
    6  A    between atoms: C_12  and  C_19
    7  A    between atoms: C_12  and  N_21
    8  A    between atoms: C_15  and  N_21
    9  A    between atoms: C_15  and  C_39
   10  A    between atoms: C_19  and  C_41
   11  A    between atoms: C_23  and  C_41
   12  A    between atoms: C_30  and  N_34
   13  A    between atoms: C_31  and  N_34
   14  A    between atoms: C_31  and  N_40
   15  A    between atoms: C_32  and  N_40
                            x       y       z     vdW  Elec       q    Type
                         _______ _______ _______ _____ _____    ______ ____

>  <TORSDO>
F 15

$$$$
=
 OpenBabel11052411223D

 41 46  0  0  1  0  0  0  0  0999 V2000
  161.5480  208.1380  151.0540 C   0  0  1  0  0  0  0  0  0  0  0  0
  162.5750  207.2630  151.7350 C   0  0  0  0  0  2  0  0  0  0  0  0
  160.5980  207.3830  153.1240 N   0  0  0  0  0  0  0  0  0  0  0  0
  161.9580  206.8480  153.0710 C   0  0  0  0  0  2  0  0  0  0  0  0
  160.5440  208.4610  152.1480 C   0  0  0  0  0  2  0  0  0  0  0  0
  162.7080  210.2060  151.5330 O   0  0  0  0  0  1  0  0  0  0  0  0
  162.2130  209.4020  150.5030 C   0  0  0  0  0  2  0  0  0  0  0  0
  160.4340  207.9930  154.4350 C   0  0  0  0  0  2  0  0  0  0  0  0
  161.1450  209.3470  154.4860 C   0  0  0  0  0  2  0  0  0  0  0  0
  160.4920  210.2240  155.4520 N   0  0  0  0  0  2  0  0  0  0  0  0
  159.3800  210.8940  154.7770 C   0  0  1  0  0  3  0  0  0  0  0  0
  156.7230  212.5140  155.0460 C   0  0  1  0  0  3  0  0  0  0  0  0
  156.3380  213.1070  157.2590 C   0  0  0  0  0  3  0  0  0  0  0  0
  158.2850  211.1570  155.7170 N   0  0  0  0  0  0  0  0  0  0  0  0
  157.0150  211.0260  154.9960 C   0  0  0  0  0  2  0  0  0  0  0  0
  157.7480  213.0140  157.1290 N   0  0  0  0  0  2  0  0  0  0  0  0
  155.7270  212.8310  156.1190 C   0  0  0  0  0  3  0  0  0  0  0  0
  158.0660  212.6050  155.7660 C   0  0  2  0  0  3  0  0  0  0  0  0
  159.8360  212.1410  154.1450 N   0  0  0  0  0  2  0  0  0  0  0  0
  159.6920  212.0510  152.6930 C   0  0  0  0  0  2  0  0  0  0  0  0
  159.3470  213.4170  152.1230 C   0  0  0  0  0  2  0  0  0  0  0  0
  158.1380  213.3170  151.2100 C   0  0  0  0  0  1  0  0  0  0  0  0
  160.9280  207.3660  149.9710 N   0  0  0  0  0  2  0  0  0  0  0  0
  161.8990  207.0410  148.9290 C   0  0  0  0  0  2  0  0  0  0  0  0
  160.9950  206.6510  146.5760 C   0  0  1  0  0  0  0  0  0  0  0  0
  160.5560  206.2100  145.1760 C   0  0  2  0  0  3  0  0  0  0  0  0
  162.1790  205.7720  146.8510 N   0  0  0  0  0  2  0  0  0  0  0  0
  161.2810  206.0750  147.9330 C   0  0  1  0  0  0  0  0  0  0  0  0
  159.7550  206.0030  146.2760 O   0  0  0  0  0  0  0  0  0  0  0  0
  160.9980  204.8510  144.5890 C   0  0  0  0  0  0  0  0  0  0  0  0
  161.5720  205.0480  143.3420 F   0  0  0  0  0  0  0  0  0  0  0  0
  161.9000  204.1780  145.4060 F   0  0  0  0  0  0  0  0  0  0  0  0
  159.8730  204.0650  144.4310 F   0  0  0  0  0  0  0  0  0  0  0  0
  160.5860  204.8060  148.4640 C   0  0  0  0  0  2  0  0  0  0  0  0
  160.0680  201.7080  149.1900 C   0  0  0  0  0  0  0  0  0  0  0  0
  161.5700  203.2600  150.2160 C   0  0  1  0  0  3  0  0  0  0  0  0
  161.0770  202.1830  147.7950 S   0  0  0  0  0  0  0  0  0  0  0  0
  161.5690  203.6630  148.7370 C   0  0  1  0  0  3  0  0  0  0  0  0
  161.5490  204.3720  151.0630 O   0  0  0  0  0  1  0  0  0  0  0  0
  159.1240  200.9450  149.0710 O   0  0  0  0  0  0  0  0  0  0  0  0
  160.3820  202.3550  150.4860 C   0  0  0  0  0  2  0  0  0  0  0  0
  1  7  1  6  0  0  0
  1  2  1  0  0  0  0
  1  5  1  0  0  0  0
  2  4  1  0  0  0  0
  3  8  1  0  0  0  0
  4  3  1  0  0  0  0
  5  3  1  0  0  0  0
  7  6  1  0  0  0  0
  8  9  1  0  0  0  0
  9 10  1  0  0  0  0
 11 19  1  1  0  0  0
 11 10  1  0  0  0  0
 11 14  1  0  0  0  0
 12 15  1  1  0  0  0
 12 18  1  0  0  0  0
 12 17  1  0  0  0  0
 14 18  1  0  0  0  0
 15 14  1  0  0  0  0
 16 13  1  0  0  0  0
 17 13  2  0  0  0  0
 18 16  1  1  0  0  0
 20 19  1  0  0  0  0
 21 20  1  0  0  0  0
 22 21  1  0  0  0  0
 23  1  1  0  0  0  0
 24 23  1  0  0  0  0
 25 29  1  1  0  0  0
 25 27  1  0  0  0  0
 25 28  1  0  0  0  0
 26 30  1  1  0  0  0
 26 29  1  0  0  0  0
 26 25  1  0  0  0  0
 27 28  1  0  0  0  0
 28 34  1  1  0  0  0
 28 24  1  0  0  0  0
 30 32  1  0  0  0  0
 31 30  1  0  0  0  0
 33 30  1  0  0  0  0
 35 41  1  0  0  0  0
 36 41  1  0  0  0  0
 36 39  1  1  0  0  0
 37 38  1  0  0  0  0
 37 35  1  0  0  0  0
 38 34  1  1  0  0  0
 38 36  1  0  0  0  0
 40 35  2  0  0  0  0
M  END
>  <MODEL>
3

>  <REMARK>
 VINA RESULT:      -5.8      0.863      2.187
  Name = 
  15 active torsions:
  status: ('A' for Active; 'I' for Inactive)
    1  A    between atoms: C_2  and  N_26
    2  A    between atoms: C_2  and  C_30
    3  A    between atoms: C_5  and  C_32
    4  A    between atoms: C_6  and  C_7
    5  A    between atoms: N_11  and  C_31
    6  A    between atoms: C_12  and  C_19
    7  A    between atoms: C_12  and  N_21
    8  A    between atoms: C_15  and  N_21
    9  A    between atoms: C_15  and  C_39
   10  A    between atoms: C_19  and  C_41
   11  A    between atoms: C_23  and  C_41
   12  A    between atoms: C_30  and  N_34
   13  A    between atoms: C_31  and  N_34
   14  A    between atoms: C_31  and  N_40
   15  A    between atoms: C_32  and  N_40
                            x       y       z     vdW  Elec       q    Type
                         _______ _______ _______ _____ _____    ______ ____

>  <TORSDO>
F 15

$$$$
=
 OpenBabel11052411223D

 41 46  0  0  1  0  0  0  0  0999 V2000
  160.8570  209.7840  154.1340 C   0  0  1  0  0  0  0  0  0  0  0  0
  161.6440  210.4540  153.0320 C   0  0  0  0  0  2  0  0  0  0  0  0
  161.0980  208.1980  152.3490 N   0  0  0  0  0  0  0  0  0  0  0  0
  161.8260  209.3990  151.9400 C   0  0  0  0  0  2  0  0  0  0  0  0
  160.9090  208.3050  153.7880 C   0  0  0  0  0  2  0  0  0  0  0  0
  162.7670  210.6400  155.3450 O   0  0  0  0  0  1  0  0  0  0  0  0
  161.5000  210.0710  155.4930 C   0  0  0  0  0  2  0  0  0  0  0  0
  161.9860  207.0680  152.1240 C   0  0  0  0  0  2  0  0  0  0  0  0
  162.1430  206.8030  150.6260 C   0  0  0  0  0  2  0  0  0  0  0  0
  160.8380  206.5750  150.0140 N   0  0  0  0  0  2  0  0  0  0  0  0
  160.9450  205.4040  149.1440 C   0  0  1  0  0  3  0  0  0  0  0  0
  160.8530  205.2210  146.0270 C   0  0  1  0  0  3  0  0  0  0  0  0
  162.9880  204.9540  145.1510 C   0  0  0  0  0  3  0  0  0  0  0  0
  161.7390  205.7150  147.9500 N   0  0  0  0  0  0  0  0  0  0  0  0
  160.8750  206.3980  146.9840 C   0  0  0  0  0  2  0  0  0  0  0  0
  163.0310  204.3740  146.4450 N   0  0  0  0  0  2  0  0  0  0  0  0
  161.7900  205.4440  144.8790 C   0  0  0  0  0  3  0  0  0  0  0  0
  161.7270  204.5400  147.0760 C   0  0  2  0  0  3  0  0  0  0  0  0
  161.5260  204.2680  149.8750 N   0  0  0  0  0  2  0  0  0  0  0  0
  160.4670  203.4750  150.4950 C   0  0  0  0  0  2  0  0  0  0  0  0
  160.8200  201.9980  150.4260 C   0  0  0  0  0  2  0  0  0  0  0  0
  160.7960  201.5170  148.9860 C   0  0  0  0  0  1  0  0  0  0  0  0
  159.4810  210.2940  154.0940 N   0  0  0  0  0  2  0  0  0  0  0  0
  159.1660  211.0640  155.2950 C   0  0  0  0  0  2  0  0  0  0  0  0
  156.8650  211.6320  156.2360 C   0  0  1  0  0  0  0  0  0  0  0  0
  155.5190  212.1850  156.7140 C   0  0  2  0  0  3  0  0  0  0  0  0
  157.6900  212.8700  156.0460 N   0  0  0  0  0  2  0  0  0  0  0  0
  157.8460  211.7900  155.1090 C   0  0  1  0  0  0  0  0  0  0  0  0
  155.6400  211.5430  155.5020 O   0  0  0  0  0  0  0  0  0  0  0  0
  155.1330  213.6640  156.4860 C   0  0  0  0  0  0  0  0  0  0  0  0
  154.8360  213.8650  155.1460 F   0  0  0  0  0  0  0  0  0  0  0  0
  154.0470  214.0630  157.2590 F   0  0  0  0  0  0  0  0  0  0  0  0
  156.2220  214.4470  156.8140 F   0  0  0  0  0  0  0  0  0  0  0  0
  157.4220  212.2080  153.6880 C   0  0  0  0  0  2  0  0  0  0  0  0
  156.8470  213.9860  151.0620 C   0  0  0  0  0  0  0  0  0  0  0  0
  158.8260  213.8790  152.3980 C   0  0  1  0  0  3  0  0  0  0  0  0
  156.2060  214.4520  152.6620 S   0  0  0  0  0  0  0  0  0  0  0  0
  157.6850  213.6910  153.4040 C   0  0  1  0  0  3  0  0  0  0  0  0
  159.9010  213.0230  152.6570 O   0  0  0  0  0  1  0  0  0  0  0  0
  156.1220  213.8690  150.0870 O   0  0  0  0  0  0  0  0  0  0  0  0
  158.2920  213.6650  150.9930 C   0  0  0  0  0  2  0  0  0  0  0  0
  1  7  1  1  0  0  0
  2  1  1  0  0  0  0
  3  5  1  0  0  0  0
  4  3  1  0  0  0  0
  4  2  1  0  0  0  0
  5  1  1  0  0  0  0
  6  7  1  0  0  0  0
  8  3  1  0  0  0  0
  9  8  1  0  0  0  0
 10  9  1  0  0  0  0
 11 19  1  1  0  0  0
 11 10  1  0  0  0  0
 12 17  1  6  0  0  0
 12 15  1  0  0  0  0
 12 18  1  0  0  0  0
 13 16  1  0  0  0  0
 14 11  1  0  0  0  0
 15 14  1  0  0  0  0
 17 13  2  0  0  0  0
 18 16  1  6  0  0  0
 18 14  1  0  0  0  0
 19 20  1  0  0  0  0
 21 20  1  0  0  0  0
 22 21  1  0  0  0  0
 23  1  1  0  0  0  0
 23 24  1  0  0  0  0
 25 29  1  6  0  0  0
 25 26  1  0  0  0  0
 26 30  1  6  0  0  0
 27 25  1  0  0  0  0
 28 34  1  6  0  0  0
 28 24  1  0  0  0  0
 28 27  1  0  0  0  0
 28 25  1  0  0  0  0
 29 26  1  0  0  0  0
 30 33  1  0  0  0  0
 30 32  1  0  0  0  0
 31 30  1  0  0  0  0
 35 37  1  0  0  0  0
 36 39  1  1  0  0  0
 36 38  1  0  0  0  0
 37 38  1  0  0  0  0
 38 34  1  6  0  0  0
 40 35  2  0  0  0  0
 41 35  1  0  0  0  0
 41 36  1  0  0  0  0
M  END
>  <MODEL>
4

>  <REMARK>
 VINA RESULT:      -5.8      5.664     10.595
  Name = 
  15 active torsions:
  status: ('A' for Active; 'I' for Inactive)
    1  A    between atoms: C_2  and  N_26
    2  A    between atoms: C_2  and  C_30
    3  A    between atoms: C_5  and  C_32
    4  A    between atoms: C_6  and  C_7
    5  A    between atoms: N_11  and  C_31
    6  A    between atoms: C_12  and  C_19
    7  A    between atoms: C_12  and  N_21
    8  A    between atoms: C_15  and  N_21
    9  A    between atoms: C_15  and  C_39
   10  A    between atoms: C_19  and  C_41
   11  A    between atoms: C_23  and  C_41
   12  A    between atoms: C_30  and  N_34
   13  A    between atoms: C_31  and  N_34
   14  A    between atoms: C_31  and  N_40
   15  A    between atoms: C_32  and  N_40
                            x       y       z     vdW  Elec       q    Type
                         _______ _______ _______ _____ _____    ______ ____

>  <TORSDO>
F 15

$$$$
=
 OpenBabel11052411223D

 41 46  0  0  1  0  0  0  0  0999 V2000
  160.9130  208.9730  153.3560 C   0  0  1  0  0  0  0  0  0  0  0  0
  162.0180  209.9940  153.2040 C   0  0  0  0  0  2  0  0  0  0  0  0
  161.5440  209.0190  151.0410 N   0  0  0  0  0  0  0  0  0  0  0  0
  162.4310  209.9540  151.7330 C   0  0  0  0  0  2  0  0  0  0  0  0
  160.9670  208.1660  152.0700 C   0  0  0  0  0  2  0  0  0  0  0  0
  160.9380  206.7490  154.3060 O   0  0  0  0  0  1  0  0  0  0  0  0
  161.1680  208.0990  154.5850 C   0  0  0  0  0  2  0  0  0  0  0  0
  162.3870  208.1700  150.2140 C   0  0  0  0  0  2  0  0  0  0  0  0
  161.5420  207.4210  149.1820 C   0  0  0  0  0  2  0  0  0  0  0  0
  162.3390  207.1210  147.9970 N   0  0  0  0  0  2  0  0  0  0  0  0
  161.8680  205.8520  147.4440 C   0  0  1  0  0  3  0  0  0  0  0  0
  160.7470  203.0230  148.1500 C   0  0  1  0  0  3  0  0  0  0  0  0
  160.8070  202.6590  150.4440 C   0  0  0  0  0  3  0  0  0  0  0  0
  162.0080  204.7730  148.4280 N   0  0  0  0  0  0  0  0  0  0  0  0
  162.1170  203.5010  147.7080 C   0  0  0  0  0  2  0  0  0  0  0  0
  160.6720  204.0620  150.2830 N   0  0  0  0  0  2  0  0  0  0  0  0
  160.8580  202.0410  149.2760 C   0  0  0  0  0  3  0  0  0  0  0  0
  160.6660  204.3720  148.8590 C   0  0  2  0  0  3  0  0  0  0  0  0
  160.4720  205.9710  146.9960 N   0  0  0  0  0  2  0  0  0  0  0  0
  160.4270  206.3030  145.5740 C   0  0  0  0  0  2  0  0  0  0  0  0
  160.7610  205.0730  144.7460 C   0  0  0  0  0  2  0  0  0  0  0  0
  161.3340  205.4820  143.4010 C   0  0  0  0  0  1  0  0  0  0  0  0
  159.6380  209.6890  153.4850 N   0  0  0  0  0  2  0  0  0  0  0  0
  159.7940  210.9130  154.2680 C   0  0  0  0  0  2  0  0  0  0  0  0
  157.7640  211.2940  155.7630 C   0  0  1  0  0  0  0  0  0  0  0  0
  156.5510  211.7420  156.5850 C   0  0  2  0  0  3  0  0  0  0  0  0
  158.4770  212.5830  155.4840 N   0  0  0  0  0  2  0  0  0  0  0  0
  158.4430  211.5800  154.4540 C   0  0  1  0  0  0  0  0  0  0  0  0
  156.4030  211.1920  155.3320 O   0  0  0  0  0  0  0  0  0  0  0  0
  156.0720  213.2110  156.5710 C   0  0  0  0  0  0  0  0  0  0  0  0
  156.9990  214.0080  157.2260 F   0  0  0  0  0  0  0  0  0  0  0  0
  155.8740  213.7020  155.2850 F   0  0  0  0  0  0  0  0  0  0  0  0
  154.8760  213.2780  157.2590 F   0  0  0  0  0  0  0  0  0  0  0  0
  157.6800  212.0720  153.2090 C   0  0  0  0  0  2  0  0  0  0  0  0
  156.6990  213.9040  150.7450 C   0  0  0  0  0  0  0  0  0  0  0  0
  158.9190  213.5450  151.5580 C   0  0  1  0  0  3  0  0  0  0  0  0
  156.5380  214.4520  152.4370 S   0  0  0  0  0  0  0  0  0  0  0  0
  158.0480  213.5070  152.8190 C   0  0  1  0  0  3  0  0  0  0  0  0
  159.9080  212.5570  151.5740 O   0  0  0  0  0  1  0  0  0  0  0  0
  155.7470  213.8800  149.9830 O   0  0  0  0  0  0  0  0  0  0  0  0
  158.0310  213.3980  150.3360 C   0  0  0  0  0  2  0  0  0  0  0  0
  1 23  1  0  0  0  0
  1  7  1  1  0  0  0
  2  1  1  0  0  0  0
  3  4  1  0  0  0  0
  3  5  1  0  0  0  0
  4  2  1  0  0  0  0
  5  1  1  0  0  0  0
  6  7  1  0  0  0  0
  8  3  1  0  0  0  0
  9  8  1  0  0  0  0
 10  9  1  0  0  0  0
 11 19  1  1  0  0  0
 11 10  1  0  0  0  0
 11 14  1  0  0  0  0
 12 15  1  6  0  0  0
 12 18  1  0  0  0  0
 12 17  1  0  0  0  0
 14 18  1  0  0  0  0
 15 14  1  0  0  0  0
 16 13  1  0  0  0  0
 17 13  2  0  0  0  0
 18 16  1  1  0  0  0
 20 19  1  0  0  0  0
 21 20  1  0  0  0  0
 22 21  1  0  0  0  0
 23 24  1  0  0  0  0
 24 28  1  0  0  0  0
 25 29  1  6  0  0  0
 25 26  1  0  0  0  0
 26 30  1  6  0  0  0
 27 25  1  0  0  0  0
 28 34  1  6  0  0  0
 28 27  1  0  0  0  0
 28 25  1  0  0  0  0
 29 26  1  0  0  0  0
 30 31  1  0  0  0  0
 30 33  1  0  0  0  0
 32 30  1  0  0  0  0
 35 37  1  0  0  0  0
 36 39  1  1  0  0  0
 36 38  1  0  0  0  0
 37 38  1  0  0  0  0
 38 34  1  6  0  0  0
 40 35  2  0  0  0  0
 41 35  1  0  0  0  0
 41 36  1  0  0  0  0
M  END
>  <MODEL>
5

>  <REMARK>
 VINA RESULT:      -5.7      5.340     10.610
  Name = 
  15 active torsions:
  status: ('A' for Active; 'I' for Inactive)
    1  A    between atoms: C_2  and  N_26
    2  A    between atoms: C_2  and  C_30
    3  A    between atoms: C_5  and  C_32
    4  A    between atoms: C_6  and  C_7
    5  A    between atoms: N_11  and  C_31
    6  A    between atoms: C_12  and  C_19
    7  A    between atoms: C_12  and  N_21
    8  A    between atoms: C_15  and  N_21
    9  A    between atoms: C_15  and  C_39
   10  A    between atoms: C_19  and  C_41
   11  A    between atoms: C_23  and  C_41
   12  A    between atoms: C_30  and  N_34
   13  A    between atoms: C_31  and  N_34
   14  A    between atoms: C_31  and  N_40
   15  A    between atoms: C_32  and  N_40
                            x       y       z     vdW  Elec       q    Type
                         _______ _______ _______ _____ _____    ______ ____

>  <TORSDO>
F 15

$$$$
=
 OpenBabel11052411223D

 41 46  0  0  1  0  0  0  0  0999 V2000
  162.0500  207.3420  151.2530 C   0  0  1  0  0  0  0  0  0  0  0  0
  160.6020  207.5200  151.6500 C   0  0  0  0  0  2  0  0  0  0  0  0
  161.6840  209.6840  151.6300 N   0  0  0  0  0  0  0  0  0  0  0  0
  160.4220  209.0110  151.9370 C   0  0  0  0  0  2  0  0  0  0  0  0
  162.7110  208.6530  151.6460 C   0  0  0  0  0  2  0  0  0  0  0  0
  162.1120  206.0190  153.2770 O   0  0  0  0  0  1  0  0  0  0  0  0
  162.6600  206.1540  151.9990 C   0  0  0  0  0  2  0  0  0  0  0  0
  161.9680  210.5780  152.7440 C   0  0  0  0  0  2  0  0  0  0  0  0
  160.6840  211.2540  153.2250 C   0  0  0  0  0  2  0  0  0  0  0  0
  160.7080  211.4090  154.6760 N   0  0  0  0  0  2  0  0  0  0  0  0
  159.4160  210.9650  155.2000 C   0  0  1  0  0  3  0  0  0  0  0  0
  161.4800  208.8400  156.1910 C   0  0  1  0  0  3  0  0  0  0  0  0
  160.3980  207.0140  157.1350 C   0  0  0  0  0  3  0  0  0  0  0  0
  159.5990  209.9310  156.2240 N   0  0  0  0  0  0  0  0  0  0  0  0
  160.9250  210.1020  156.8240 C   0  0  0  0  0  2  0  0  0  0  0  0
  159.4940  207.5390  156.1750 N   0  0  0  0  0  2  0  0  0  0  0  0
  161.5190  207.7150  157.1790 C   0  0  0  0  0  3  0  0  0  0  0  0
  160.0940  208.7190  155.5650 C   0  0  2  0  0  3  0  0  0  0  0  0
  158.6590  212.1050  155.7390 N   0  0  0  0  0  2  0  0  0  0  0  0
  157.4500  211.6320  156.4110 C   0  0  0  0  0  2  0  0  0  0  0  0
  156.3590  211.3680  155.3850 C   0  0  0  0  0  2  0  0  0  0  0  0
  156.2230  212.5510  154.4430 C   0  0  0  0  0  1  0  0  0  0  0  0
  162.1070  207.1280  149.8020 N   0  0  0  0  0  2  0  0  0  0  0  0
  160.8390  206.6110  149.2930 C   0  0  0  0  0  2  0  0  0  0  0  0
  160.5090  206.2240  146.7940 C   0  0  1  0  0  0  0  0  0  0  0  0
  160.5300  205.9140  145.2940 C   0  0  2  0  0  3  0  0  0  0  0  0
  161.9650  206.3570  147.1310 N   0  0  0  0  0  2  0  0  0  0  0  0
  161.0930  205.7260  148.0850 C   0  0  1  0  0  0  0  0  0  0  0  0
  160.0830  204.9890  146.2090 O   0  0  0  0  0  0  0  0  0  0  0  0
  161.8070  205.3890  144.6010 C   0  0  0  0  0  0  0  0  0  0  0  0
  161.6280  205.4010  143.2260 F   0  0  0  0  0  0  0  0  0  0  0  0
  162.9390  206.1340  144.9200 F   0  0  0  0  0  0  0  0  0  0  0  0
  162.0090  204.0840  145.0040 F   0  0  0  0  0  0  0  0  0  0  0  0
  161.4760  204.2510  148.3130 C   0  0  0  0  0  2  0  0  0  0  0  0
  161.5580  202.1150  150.7250 C   0  0  0  0  0  0  0  0  0  0  0  0
  160.4420  201.9560  148.6170 C   0  0  1  0  0  3  0  0  0  0  0  0
  160.5000  203.5520  150.7880 S   0  0  0  0  0  0  0  0  0  0  0  0
  160.3550  203.4440  148.9750 C   0  0  1  0  0  3  0  0  0  0  0  0
  160.7310  201.7590  147.2630 O   0  0  0  0  0  1  0  0  0  0  0  0
  162.3480  201.8570  151.6180 O   0  0  0  0  0  0  0  0  0  0  0  0
  161.4900  201.2930  149.4930 C   0  0  0  0  0  2  0  0  0  0  0  0
  1  5  1  0  0  0  0
  1  2  1  0  0  0  0
  1  7  1  1  0  0  0
  2  4  1  0  0  0  0
  3  5  1  0  0  0  0
  3  4  1  0  0  0  0
  3  8  1  0  0  0  0
  7  6  1  0  0  0  0
  8  9  1  0  0  0  0
  9 10  1  0  0  0  0
 11 10  1  1  0  0  0
 11 19  1  0  0  0  0
 11 14  1  0  0  0  0
 12 15  1  1  0  0  0
 12 17  1  0  0  0  0
 13 17  2  0  0  0  0
 14 15  1  0  0  0  0
 16 13  1  0  0  0  0
 18 16  1  1  0  0  0
 18 12  1  0  0  0  0
 18 14  1  0  0  0  0
 19 20  1  0  0  0  0
 21 20  1  0  0  0  0
 22 21  1  0  0  0  0
 23  1  1  0  0  0  0
 24 23  1  0  0  0  0
 25 29  1  6  0  0  0
 25 27  1  0  0  0  0
 25 28  1  0  0  0  0
 26 30  1  1  0  0  0
 26 29  1  0  0  0  0
 26 25  1  0  0  0  0
 27 28  1  0  0  0  0
 28 34  1  1  0  0  0
 28 24  1  0  0  0  0
 30 32  1  0  0  0  0
 30 33  1  0  0  0  0
 31 30  1  0  0  0  0
 35 37  1  0  0  0  0
 35 40  2  0  0  0  0
 36 39  1  6  0  0  0
 36 38  1  0  0  0  0
 36 41  1  0  0  0  0
 38 34  1  6  0  0  0
 38 37  1  0  0  0  0
 41 35  1  0  0  0  0
M  END
>  <MODEL>
6

>  <REMARK>
 VINA RESULT:      -5.6      1.859      3.493
  Name = 
  15 active torsions:
  status: ('A' for Active; 'I' for Inactive)
    1  A    between atoms: C_2  and  N_26
    2  A    between atoms: C_2  and  C_30
    3  A    between atoms: C_5  and  C_32
    4  A    between atoms: C_6  and  C_7
    5  A    between atoms: N_11  and  C_31
    6  A    between atoms: C_12  and  C_19
    7  A    between atoms: C_12  and  N_21
    8  A    between atoms: C_15  and  N_21
    9  A    between atoms: C_15  and  C_39
   10  A    between atoms: C_19  and  C_41
   11  A    between atoms: C_23  and  C_41
   12  A    between atoms: C_30  and  N_34
   13  A    between atoms: C_31  and  N_34
   14  A    between atoms: C_31  and  N_40
   15  A    between atoms: C_32  and  N_40
                            x       y       z     vdW  Elec       q    Type
                         _______ _______ _______ _____ _____    ______ ____

>  <TORSDO>
F 15

$$$$
=
 OpenBabel11052411223D

 41 46  0  0  1  0  0  0  0  0999 V2000
  162.1670  207.5780  151.1240 C   0  0  1  0  0  0  0  0  0  0  0  0
  160.8150  207.4720  151.7920 C   0  0  0  0  0  2  0  0  0  0  0  0
  161.5560  209.7730  151.8770 N   0  0  0  0  0  0  0  0  0  0  0  0
  160.4860  208.8730  152.3080 C   0  0  0  0  0  2  0  0  0  0  0  0
  162.7010  208.9290  151.5690 C   0  0  0  0  0  2  0  0  0  0  0  0
  162.5820  205.8250  152.7370 O   0  0  0  0  0  1  0  0  0  0  0  0
  163.0730  206.4330  151.5790 C   0  0  0  0  0  2  0  0  0  0  0  0
  161.9240  210.5760  153.0340 C   0  0  0  0  0  2  0  0  0  0  0  0
  160.7060  210.8090  153.9300 C   0  0  0  0  0  2  0  0  0  0  0  0
  160.1140  212.1130  153.6470 N   0  0  0  0  0  2  0  0  0  0  0  0
  158.6620  211.9450  153.5810 C   0  0  1  0  0  3  0  0  0  0  0  0
  156.2110  211.3500  155.4240 C   0  0  1  0  0  3  0  0  0  0  0  0
  155.5250  213.2730  156.5340 C   0  0  0  0  0  3  0  0  0  0  0  0
  158.0320  212.3810  154.8330 N   0  0  0  0  0  0  0  0  0  0  0  0
  157.7060  211.1920  155.6250 C   0  0  0  0  0  2  0  0  0  0  0  0
  156.1080  213.7200  155.3200 N   0  0  0  0  0  2  0  0  0  0  0  0
  155.5660  211.9540  156.6340 C   0  0  0  0  0  3  0  0  0  0  0  0
  156.6000  212.5630  154.5830 C   0  0  2  0  0  3  0  0  0  0  0  0
  158.1090  212.6830  152.4350 N   0  0  0  0  0  2  0  0  0  0  0  0
  159.0520  213.7090  151.9950 C   0  0  0  0  0  2  0  0  0  0  0  0
  158.7480  214.1090  150.5600 C   0  0  0  0  0  2  0  0  0  0  0  0
  157.3780  213.5990  150.1500 C   0  0  0  0  0  1  0  0  0  0  0  0
  161.9670  207.5350  149.6700 N   0  0  0  0  0  2  0  0  0  0  0  0
  160.7910  206.7420  149.3210 C   0  0  0  0  0  2  0  0  0  0  0  0
  160.6200  206.2030  146.8340 C   0  0  1  0  0  0  0  0  0  0  0  0
  160.7370  205.8070  145.3590 C   0  0  2  0  0  3  0  0  0  0  0  0
  162.0500  206.3800  147.2500 N   0  0  0  0  0  2  0  0  0  0  0  0
  161.1300  205.7920  148.1850 C   0  0  1  0  0  0  0  0  0  0  0  0
  160.2470  204.9290  146.2990 O   0  0  0  0  0  0  0  0  0  0  0  0
  162.0610  205.2640  144.7770 C   0  0  0  0  0  0  0  0  0  0  0  0
  163.0800  206.1750  145.0110 F   0  0  0  0  0  0  0  0  0  0  0  0
  162.4190  204.0300  145.3110 F   0  0  0  0  0  0  0  0  0  0  0  0
  161.9050  205.1260  143.4110 F   0  0  0  0  0  0  0  0  0  0  0  0
  161.5170  204.3390  148.5230 C   0  0  0  0  0  2  0  0  0  0  0  0
  161.5040  202.2240  150.9550 C   0  0  0  0  0  0  0  0  0  0  0  0
  160.4440  202.0610  148.8180 C   0  0  1  0  0  3  0  0  0  0  0  0
  160.4640  203.6760  150.9760 S   0  0  0  0  0  0  0  0  0  0  0  0
  160.3670  203.5530  149.1610 C   0  0  1  0  0  3  0  0  0  0  0  0
  160.7680  201.8470  147.4750 O   0  0  0  0  0  1  0  0  0  0  0  0
  162.2660  201.9650  151.8720 O   0  0  0  0  0  0  0  0  0  0  0  0
  161.4590  201.3930  149.7290 C   0  0  0  0  0  2  0  0  0  0  0  0
  1  5  1  0  0  0  0
  1  7  1  1  0  0  0
  1  2  1  0  0  0  0
  2  4  1  0  0  0  0
  3  4  1  0  0  0  0
  3  8  1  0  0  0  0
  5  3  1  0  0  0  0
  7  6  1  0  0  0  0
  8  9  1  0  0  0  0
 10  9  1  0  0  0  0
 11 19  1  6  0  0  0
 11 10  1  0  0  0  0
 11 14  1  0  0  0  0
 12 15  1  1  0  0  0
 12 17  1  0  0  0  0
 13 17  2  0  0  0  0
 14 15  1  0  0  0  0
 16 13  1  0  0  0  0
 18 14  1  0  0  0  0
 18 16  1  1  0  0  0
 18 12  1  0  0  0  0
 20 19  1  0  0  0  0
 21 20  1  0  0  0  0
 22 21  1  0  0  0  0
 23  1  1  0  0  0  0
 24 23  1  0  0  0  0
 25 29  1  6  0  0  0
 25 27  1  0  0  0  0
 25 28  1  0  0  0  0
 26 30  1  1  0  0  0
 26 29  1  0  0  0  0
 26 25  1  0  0  0  0
 27 28  1  0  0  0  0
 28 34  1  1  0  0  0
 28 24  1  0  0  0  0
 30 31  1  0  0  0  0
 30 32  1  0  0  0  0
 33 30  1  0  0  0  0
 35 37  1  0  0  0  0
 35 40  2  0  0  0  0
 36 39  1  6  0  0  0
 36 38  1  0  0  0  0
 36 41  1  0  0  0  0
 38 34  1  6  0  0  0
 38 37  1  0  0  0  0
 41 35  1  0  0  0  0
M  END
>  <MODEL>
7

>  <REMARK>
 VINA RESULT:      -5.5      1.742      3.195
  Name = 
  15 active torsions:
  status: ('A' for Active; 'I' for Inactive)
    1  A    between atoms: C_2  and  N_26
    2  A    between atoms: C_2  and  C_30
    3  A    between atoms: C_5  and  C_32
    4  A    between atoms: C_6  and  C_7
    5  A    between atoms: N_11  and  C_31
    6  A    between atoms: C_12  and  C_19
    7  A    between atoms: C_12  and  N_21
    8  A    between atoms: C_15  and  N_21
    9  A    between atoms: C_15  and  C_39
   10  A    between atoms: C_19  and  C_41
   11  A    between atoms: C_23  and  C_41
   12  A    between atoms: C_30  and  N_34
   13  A    between atoms: C_31  and  N_34
   14  A    between atoms: C_31  and  N_40
   15  A    between atoms: C_32  and  N_40
                            x       y       z     vdW  Elec       q    Type
                         _______ _______ _______ _____ _____    ______ ____

>  <TORSDO>
F 15

$$$$
=
 OpenBabel11052411223D

 41 46  0  0  1  0  0  0  0  0999 V2000
  162.0000  207.6500  151.0040 C   0  0  1  0  0  0  0  0  0  0  0  0
  160.9100  207.1890  151.9440 C   0  0  0  0  0  2  0  0  0  0  0  0
  161.1330  209.5920  152.1160 N   0  0  0  0  0  0  0  0  0  0  0  0
  160.4220  208.4420  152.6730 C   0  0  0  0  0  2  0  0  0  0  0  0
  162.3220  209.0620  151.4660 C   0  0  0  0  0  2  0  0  0  0  0  0
  163.0700  205.8150  152.1600 O   0  0  0  0  0  1  0  0  0  0  0  0
  163.2160  206.7280  151.1130 C   0  0  0  0  0  2  0  0  0  0  0  0
  161.5900  210.3920  153.2430 C   0  0  0  0  0  2  0  0  0  0  0  0
  160.3980  210.9830  153.9960 C   0  0  0  0  0  2  0  0  0  0  0  0
  159.4110  211.5000  153.0540 N   0  0  0  0  0  2  0  0  0  0  0  0
  159.0410  212.8500  153.4800 C   0  0  1  0  0  3  0  0  0  0  0  0
  157.7870  213.4560  150.6840 C   0  0  1  0  0  3  0  0  0  0  0  0
  159.3450  214.4530  149.2790 C   0  0  0  0  0  3  0  0  0  0  0  0
  159.1330  213.7920  152.3590 N   0  0  0  0  0  0  0  0  0  0  0  0
  157.7770  214.2150  151.9980 C   0  0  0  0  0  2  0  0  0  0  0  0
  160.0970  213.6480  150.1730 N   0  0  0  0  0  2  0  0  0  0  0  0
  158.0490  214.3780  149.5330 C   0  0  0  0  0  3  0  0  0  0  0  0
  159.1830  213.0180  151.1170 C   0  0  2  0  0  3  0  0  0  0  0  0
  157.6890  212.8560  154.0580 N   0  0  0  0  0  2  0  0  0  0  0  0
  157.4370  211.6010  154.7620 C   0  0  0  0  0  2  0  0  0  0  0  0
  156.0380  211.6140  155.3560 C   0  0  0  0  0  2  0  0  0  0  0  0
  155.3310  210.3010  155.0690 C   0  0  0  0  0  1  0  0  0  0  0  0
  161.4650  207.6440  149.6370 N   0  0  0  0  0  2  0  0  0  0  0  0
  160.4770  206.5820  149.4610 C   0  0  0  0  0  2  0  0  0  0  0  0
  160.4500  206.1020  146.9570 C   0  0  1  0  0  0  0  0  0  0  0  0
  160.6540  205.7460  145.4810 C   0  0  2  0  0  3  0  0  0  0  0  0
  161.8520  206.3040  147.4520 N   0  0  0  0  0  2  0  0  0  0  0  0
  160.8990  205.6700  148.3230 C   0  0  1  0  0  0  0  0  0  0  0  0
  160.1390  204.8340  146.3730 O   0  0  0  0  0  0  0  0  0  0  0  0
  162.0210  205.2510  144.9570 C   0  0  0  0  0  0  0  0  0  0  0  0
  162.9950  206.1980  145.2340 F   0  0  0  0  0  0  0  0  0  0  0  0
  162.4000  204.0310  145.5090 F   0  0  0  0  0  0  0  0  0  0  0  0
  161.9290  205.1070  143.5870 F   0  0  0  0  0  0  0  0  0  0  0  0
  161.3060  204.2190  148.6470 C   0  0  0  0  0  2  0  0  0  0  0  0
  161.4830  202.1220  151.0880 C   0  0  0  0  0  0  0  0  0  0  0  0
  160.2440  201.9530  149.0500 C   0  0  1  0  0  3  0  0  0  0  0  0
  160.4610  203.5820  151.1850 S   0  0  0  0  0  0  0  0  0  0  0  0
  160.2080  203.4480  149.3860 C   0  0  1  0  0  3  0  0  0  0  0  0
  160.4500  201.7260  147.6850 O   0  0  0  0  0  1  0  0  0  0  0  0
  162.3180  201.8630  151.9380 O   0  0  0  0  0  0  0  0  0  0  0  0
  161.3260  201.2820  149.8760 C   0  0  0  0  0  2  0  0  0  0  0  0
  1  7  1  1  0  0  0
  1  5  1  0  0  0  0
  1  2  1  0  0  0  0
  2  4  1  0  0  0  0
  3  4  1  0  0  0  0
  3  8  1  0  0  0  0
  5  3  1  0  0  0  0
  7  6  1  0  0  0  0
  8  9  1  0  0  0  0
 10  9  1  0  0  0  0
 11 10  1  6  0  0  0
 11 19  1  0  0  0  0
 12 17  1  6  0  0  0
 12 18  1  0  0  0  0
 12 15  1  0  0  0  0
 13 17  2  0  0  0  0
 13 16  1  0  0  0  0
 14 11  1  0  0  0  0
 15 14  1  0  0  0  0
 18 16  1  6  0  0  0
 18 14  1  0  0  0  0
 19 20  1  0  0  0  0
 20 21  1  0  0  0  0
 22 21  1  0  0  0  0
 23  1  1  0  0  0  0
 24 23  1  0  0  0  0
 25 29  1  6  0  0  0
 25 27  1  0  0  0  0
 25 28  1  0  0  0  0
 26 30  1  1  0  0  0
 26 29  1  0  0  0  0
 26 25  1  0  0  0  0
 27 28  1  0  0  0  0
 28 34  1  1  0  0  0
 28 24  1  0  0  0  0
 30 31  1  0  0  0  0
 30 32  1  0  0  0  0
 33 30  1  0  0  0  0
 35 37  1  0  0  0  0
 35 40  2  0  0  0  0
 36 39  1  6  0  0  0
 36 38  1  0  0  0  0
 36 41  1  0  0  0  0
 38 34  1  6  0  0  0
 38 37  1  0  0  0  0
 41 35  1  0  0  0  0
M  END
>  <MODEL>
8

>  <REMARK>
 VINA RESULT:      -5.2      1.736      2.511
  Name = 
  15 active torsions:
  status: ('A' for Active; 'I' for Inactive)
    1  A    between atoms: C_2  and  N_26
    2  A    between atoms: C_2  and  C_30
    3  A    between atoms: C_5  and  C_32
    4  A    between atoms: C_6  and  C_7
    5  A    between atoms: N_11  and  C_31
    6  A    between atoms: C_12  and  C_19
    7  A    between atoms: C_12  and  N_21
    8  A    between atoms: C_15  and  N_21
    9  A    between atoms: C_15  and  C_39
   10  A    between atoms: C_19  and  C_41
   11  A    between atoms: C_23  and  C_41
   12  A    between atoms: C_30  and  N_34
   13  A    between atoms: C_31  and  N_34
   14  A    between atoms: C_31  and  N_40
   15  A    between atoms: C_32  and  N_40
                            x       y       z     vdW  Elec       q    Type
                         _______ _______ _______ _____ _____    ______ ____

>  <TORSDO>
F 15

$$$$
=
 OpenBabel11052411223D

 41 46  0  0  1  0  0  0  0  0999 V2000
  161.8490  208.3510  150.3750 C   0  0  1  0  0  0  0  0  0  0  0  0
  162.9770  207.4610  150.8450 C   0  0  0  0  0  2  0  0  0  0  0  0
  160.9860  206.9450  152.1170 N   0  0  0  0  0  0  0  0  0  0  0  0
  162.4070  206.6230  151.9890 C   0  0  0  0  0  2  0  0  0  0  0  0
  160.7980  208.2320  151.4660 C   0  0  0  0  0  2  0  0  0  0  0  0
  162.6980  210.3440  151.4500 O   0  0  0  0  0  1  0  0  0  0  0  0
  162.3420  209.7900  150.2170 C   0  0  0  0  0  2  0  0  0  0  0  0
  160.7250  207.1480  153.5350 C   0  0  0  0  0  2  0  0  0  0  0  0
  161.2840  208.4970  153.9920 C   0  0  0  0  0  2  0  0  0  0  0  0
  160.2020  209.4630  154.1520 N   0  0  0  0  0  2  0  0  0  0  0  0
  160.6360  210.4710  155.1200 C   0  0  1  0  0  3  0  0  0  0  0  0
  157.6780  211.2570  154.4950 C   0  0  1  0  0  3  0  0  0  0  0  0
  157.5490  213.4470  153.7290 C   0  0  0  0  0  3  0  0  0  0  0  0
  159.7320  211.6270  155.1050 N   0  0  0  0  0  0  0  0  0  0  0  0
  158.4870  211.2500  155.7790 C   0  0  0  0  0  2  0  0  0  0  0  0
  158.8350  212.9840  153.3490 N   0  0  0  0  0  2  0  0  0  0  0  0
  156.8700  212.5140  154.3760 C   0  0  0  0  0  3  0  0  0  0  0  0
  159.0040  211.6200  153.8340 C   0  0  2  0  0  3  0  0  0  0  0  0
  160.7170  209.8900  156.4690 N   0  0  0  0  0  2  0  0  0  0  0  0
  161.8810  210.4220  157.1750 C   0  0  0  0  0  2  0  0  0  0  0  0
  162.9640  210.7960  156.1770 C   0  0  0  0  0  2  0  0  0  0  0  0
  164.1370  211.4450  156.8910 C   0  0  0  0  0  1  0  0  0  0  0  0
  161.3530  207.8300  149.0960 N   0  0  0  0  0  2  0  0  0  0  0  0
  160.7200  206.5240  149.2660 C   0  0  0  0  0  2  0  0  0  0  0  0
  160.4620  206.1390  146.7580 C   0  0  1  0  0  0  0  0  0  0  0  0
  160.5280  205.8340  145.2580 C   0  0  2  0  0  3  0  0  0  0  0  0
  161.9060  206.2940  147.1340 N   0  0  0  0  0  2  0  0  0  0  0  0
  161.0200  205.6470  148.0630 C   0  0  1  0  0  0  0  0  0  0  0  0
  160.0720  204.8990  146.1590 O   0  0  0  0  0  0  0  0  0  0  0  0
  161.8320  205.3320  144.5980 C   0  0  0  0  0  0  0  0  0  0  0  0
  162.8840  206.1590  144.9600 F   0  0  0  0  0  0  0  0  0  0  0  0
  162.1410  204.0200  144.9440 F   0  0  0  0  0  0  0  0  0  0  0  0
  161.6730  205.4010  143.2280 F   0  0  0  0  0  0  0  0  0  0  0  0
  161.4210  204.1770  148.2970 C   0  0  0  0  0  2  0  0  0  0  0  0
  161.5710  202.1430  150.7930 C   0  0  0  0  0  0  0  0  0  0  0  0
  160.4470  201.8710  148.7010 C   0  0  1  0  0  3  0  0  0  0  0  0
  160.4780  203.5550  150.8050 S   0  0  0  0  0  0  0  0  0  0  0  0
  160.3240  203.3700  149.0000 C   0  0  1  0  0  3  0  0  0  0  0  0
  160.7320  201.6260  147.3540 O   0  0  0  0  0  1  0  0  0  0  0  0
  162.3740  201.9430  151.6900 O   0  0  0  0  0  0  0  0  0  0  0  0
  161.5170  201.2710  149.5950 C   0  0  0  0  0  2  0  0  0  0  0  0
  1  7  1  6  0  0  0
  1  2  1  0  0  0  0
  1  5  1  0  0  0  0
  2  4  1  0  0  0  0
  3  8  1  0  0  0  0
  4  3  1  0  0  0  0
  5  3  1  0  0  0  0
  7  6  1  0  0  0  0
  8  9  1  0  0  0  0
  9 10  1  0  0  0  0
 11 10  1  6  0  0  0
 11 19  1  0  0  0  0
 12 17  1  1  0  0  0
 12 15  1  0  0  0  0
 13 17  2  0  0  0  0
 14 11  1  0  0  0  0
 14 15  1  0  0  0  0
 16 13  1  0  0  0  0
 18 16  1  1  0  0  0
 18 12  1  0  0  0  0
 18 14  1  0  0  0  0
 19 20  1  0  0  0  0
 21 22  1  0  0  0  0
 21 20  1  0  0  0  0
 23 24  1  0  0  0  0
 23  1  1  0  0  0  0
 25 29  1  6  0  0  0
 25 27  1  0  0  0  0
 25 28  1  0  0  0  0
 26 30  1  1  0  0  0
 26 29  1  0  0  0  0
 26 25  1  0  0  0  0
 27 28  1  0  0  0  0
 28 34  1  1  0  0  0
 28 24  1  0  0  0  0
 30 32  1  0  0  0  0
 30 31  1  0  0  0  0
 33 30  1  0  0  0  0
 35 37  1  0  0  0  0
 35 40  2  0  0  0  0
 36 39  1  6  0  0  0
 36 38  1  0  0  0  0
 36 41  1  0  0  0  0
 38 34  1  6  0  0  0
 38 37  1  0  0  0  0
 41 35  1  0  0  0  0
M  END
>  <MODEL>
9

>  <REMARK>
 VINA RESULT:      -4.9      1.656      2.423
  Name = 
  15 active torsions:
  status: ('A' for Active; 'I' for Inactive)
    1  A    between atoms: C_2  and  N_26
    2  A    between atoms: C_2  and  C_30
    3  A    between atoms: C_5  and  C_32
    4  A    between atoms: C_6  and  C_7
    5  A    between atoms: N_11  and  C_31
    6  A    between atoms: C_12  and  C_19
    7  A    between atoms: C_12  and  N_21
    8  A    between atoms: C_15  and  N_21
    9  A    between atoms: C_15  and  C_39
   10  A    between atoms: C_19  and  C_41
   11  A    between atoms: C_23  and  C_41
   12  A    between atoms: C_30  and  N_34
   13  A    between atoms: C_31  and  N_34
   14  A    between atoms: C_31  and  N_40
   15  A    between atoms: C_32  and  N_40
                            x       y       z     vdW  Elec       q    Type
                         _______ _______ _______ _____ _____    ______ ____

>  <TORSDO>
F 15

$$$$
