=
 OpenBabel11042422163D

 52 53  0  0  1  0  0  0  0  0999 V2000
  159.7790  212.0280  151.9560 N   0  0  0  0  0  0  0  0  0  0  0  0
  159.7740  210.9780  154.1910 C   0  0  0  0  0  2  0  0  0  0  0  0
  159.6870  212.3060  153.4030 C   0  0  2  0  0  3  0  0  0  0  0  0
  157.2290  212.2030  154.0060 C   0  0  0  0  0  2  0  0  0  0  0  0
  156.8810  211.8430  156.3430 O   0  0  0  0  0  1  0  0  0  0  0  0
  157.4660  211.2810  155.2080 C   0  0  2  0  0  3  0  0  0  0  0  0
  158.9520  210.9960  155.4840 C   0  0  1  0  0  3  0  0  0  0  0  0
  158.4250  213.1180  153.7700 C   0  0  0  0  0  2  0  0  0  0  0  0
  159.0850  209.6630  156.2020 C   0  0  0  0  0  2  0  0  0  0  0  0
  160.5000  209.4940  156.7220 C   0  0  0  0  0  2  0  0  0  0  0  0
  161.0640  208.1460  156.3100 C   0  0  0  0  0  2  0  0  0  0  0  0
  159.9640  207.2640  155.7360 C   0  0  0  0  0  1  0  0  0  0  0  0
  159.3800  213.1800  151.1460 C   0  0  0  0  0  2  0  0  0  0  0  0
  160.4500  213.4780  150.1180 C   0  0  0  0  0  2  0  0  0  0  0  0
  159.7990  213.9780  148.8430 C   0  0  0  0  0  2  0  0  0  0  0  0
  159.8940  212.9010  147.7740 C   0  0  0  0  0  2  0  0  0  0  0  0
  162.0500  212.2000  147.0370 O   0  0  0  0  0  0  0  0  0  0  0  0
  161.1420  213.0720  146.9710 C   0  0  0  0  0  0  0  0  0  0  0  0
  161.3030  214.2270  146.1410 N   0  0  0  0  0  2  0  0  0  0  0  0
  162.4970  214.4530  145.3440 C   0  0  0  0  0  2  0  0  0  0  0  0
  162.5470  213.4560  144.1970 C   0  0  0  0  0  2  0  0  0  0  0  0
  163.7120  214.3150  140.6560 N   0  0  0  0  0  2  0  0  0  0  0  0
  163.2810  214.0150  143.0690 N   0  0  0  0  0  2  0  0  0  0  0  0
  161.7740  213.2730  141.4430 O   0  0  0  0  0  0  0  0  0  0  0  0
  162.8740  213.8350  141.7100 C   0  0  0  0  0  0  0  0  0  0  0  0
  163.4210  214.0730  139.2520 C   0  0  0  0  0  2  0  0  0  0  0  0
  164.7080  213.7800  138.4980 C   0  0  0  0  0  1  0  0  0  0  0  0
  161.1490  211.6290  151.5930 C   0  0  0  0  0  2  0  0  0  0  0  0
  161.3560  210.1100  151.5180 C   0  0  0  0  0  2  0  0  0  0  0  0
  162.3150  209.7750  150.5240 O   0  0  0  0  0  0  0  0  0  0  0  0
  161.9730  209.1030  149.3480 C   0  0  0  0  0  0  0  0  0  0  0  0
  161.3940  209.7140  148.4070 O   0  0  0  0  0  0  0  0  0  0  0  0
  162.2740  207.6440  149.2280 C   0  0  2  0  0  3  0  0  0  0  0  0
  161.2290  206.9510  148.5480 O   0  0  0  0  0  0  0  0  0  0  0  0
  162.7410  205.3200  145.6010 C   0  0  0  0  0  3  0  0  0  0  0  0
  161.6890  205.3720  144.6830 C   0  0  0  0  0  3  0  0  0  0  0  0
  161.3650  206.4370  147.2550 C   0  0  0  0  0  0  0  0  0  0  0  0
  160.4770  205.9610  145.0450 C   0  0  0  0  0  3  0  0  0  0  0  0
  162.5790  205.8510  146.8820 C   0  0  0  0  0  3  0  0  0  0  0  0
  160.3150  206.4930  146.3260 C   0  0  0  0  0  3  0  0  0  0  0  0
  162.4750  207.0550  150.6130 C   0  0  0  0  0  2  0  0  0  0  0  0
  161.1490  206.8120  151.3260 C   0  0  0  0  0  2  0  0  0  0  0  0
  161.3360  204.2810  151.1740 C   0  0  0  0  0  0  0  0  0  0  0  0
  161.1940  203.0230  151.8320 N   0  0  0  0  0  2  0  0  0  0  0  0
  161.1080  205.4810  151.9170 N   0  0  0  0  0  2  0  0  0  0  0  0
  161.6610  204.3320  149.9530 O   0  0  0  0  0  0  0  0  0  0  0  0
  161.2120  201.7580  151.1150 C   0  0  0  0  0  2  0  0  0  0  0  0
  159.9130  201.5770  150.4000 C   0  0  0  0  0  3  0  0  0  0  0  0
  159.7840  201.3710  149.0870 C   0  0  0  0  0  3  0  0  0  0  0  0
  160.8780  201.2450  148.1090 C   0  0  0  0  0  0  0  0  0  0  0  0
  161.1160  202.3540  147.1530 C   0  0  0  0  0  1  0  0  0  0  0  0
  161.5890  200.2060  148.0380 O   0  0  0  0  0  0  0  0  0  0  0  0
  2  7  1  0  0  0  0
  3  1  1  6  0  0  0
  3  8  1  0  0  0  0
  3  2  1  0  0  0  0
  4  6  1  0  0  0  0
  6  7  1  0  0  0  0
  6  5  1  1  0  0  0
  7  9  1  6  0  0  0
  8  4  1  0  0  0  0
  9 10  1  0  0  0  0
 11 10  1  0  0  0  0
 12 11  1  0  0  0  0
 13  1  1  0  0  0  0
 14 13  1  0  0  0  0
 15 14  1  0  0  0  0
 16 15  1  0  0  0  0
 18 17  2  0  0  0  0
 18 16  1  0  0  0  0
 19 18  1  0  0  0  0
 20 19  1  0  0  0  0
 21 20  1  0  0  0  0
 22 25  1  0  0  0  0
 23 21  1  0  0  0  0
 24 25  2  0  0  0  0
 25 23  1  0  0  0  0
 26 22  1  0  0  0  0
 27 26  1  0  0  0  0
 28  1  1  0  0  0  0
 29 28  1  0  0  0  0
 30 29  1  0  0  0  0
 31 30  1  0  0  0  0
 32 31  2  0  0  0  0
 33 31  1  0  0  0  0
 33 41  1  1  0  0  0
 34 33  1  0  0  0  0
 35 39  1  0  0  0  0
 36 38  1  0  0  0  0
 36 35  2  0  0  0  0
 37 34  1  0  0  0  0
 38 40  2  0  0  0  0
 39 37  2  0  0  0  0
 40 37  1  0  0  0  0
 41 42  1  0  0  0  0
 42 45  1  0  0  0  0
 43 44  1  0  0  0  0
 43 45  1  0  0  0  0
 46 43  2  0  0  0  0
 47 44  1  0  0  0  0
 48 47  1  0  0  0  0
 49 48  2  0  0  0  0
 50 49  1  0  0  0  0
 51 50  1  0  0  0  0
 52 50  2  0  0  0  0
M  END
>  <MODEL>
1

>  <REMARK>
 VINA RESULT:      -6.0      0.000      0.000
  Name = 
  26 active torsions:
  status: ('A' for Active; 'I' for Inactive)
    1  A    between atoms: C_1  and  N_24
    2  A    between atoms: C_1  and  C_28
    3  A    between atoms: O_2  and  C_12
    4  A    between atoms: O_2  and  C_21
    5  A    between atoms: N_3  and  C_20
    6  A    between atoms: C_5  and  C_8
    7  A    between atoms: C_5  and  N_43
    8  A    between atoms: C_7  and  C_11
    9  A    between atoms: C_8  and  N_22
   10  A    between atoms: C_10  and  N_13
   11  A    between atoms: C_11  and  C_49
   12  A    between atoms: C_12  and  C_48
   13  A    between atoms: N_13  and  C_36
   14  A    between atoms: N_13  and  C_48
   15  A    between atoms: C_16  and  O_40
   16  A    between atoms: C_19  and  C_38
   17  A    between atoms: C_21  and  C_42
   18  A    between atoms: N_27  and  C_31
   19  A    between atoms: C_31  and  C_47
   20  A    between atoms: C_35  and  C_36
   21  A    between atoms: C_35  and  C_37
   22  A    between atoms: C_37  and  C_45
   23  A    between atoms: C_39  and  C_45
   24  A    between atoms: O_40  and  C_42
   25  A    between atoms: C_42  and  C_47
   26  A    between atoms: C_49  and  C_50
                            x       y       z     vdW  Elec       q    Type
                         _______ _______ _______ _____ _____    ______ ____

>  <TORSDO>
F 26

$$$$
=
 OpenBabel11042422163D

 52 53  0  0  1  0  0  0  0  0999 V2000
  160.9250  207.4610  149.4670 N   0  0  0  0  0  0  0  0  0  0  0  0
  161.1130  205.0390  149.0230 C   0  0  0  0  0  2  0  0  0  0  0  0
  160.3970  206.3560  148.6410 C   0  0  2  0  0  3  0  0  0  0  0  0
  161.8480  206.2420  146.5680 C   0  0  0  0  0  2  0  0  0  0  0  0
  161.7150  204.1170  145.4820 O   0  0  0  0  0  1  0  0  0  0  0  0
  162.0630  204.7280  146.6870 C   0  0  2  0  0  3  0  0  0  0  0  0
  161.2720  204.0810  147.8370 C   0  0  1  0  0  3  0  0  0  0  0  0
  160.4910  206.6510  147.1270 C   0  0  0  0  0  2  0  0  0  0  0  0
  161.9810  202.8140  148.2860 C   0  0  0  0  0  2  0  0  0  0  0  0
  161.0730  201.6150  148.0910 C   0  0  0  0  0  2  0  0  0  0  0  0
  159.9890  201.5850  149.1530 C   0  0  0  0  0  2  0  0  0  0  0  0
  160.5900  201.2580  150.5130 C   0  0  0  0  0  1  0  0  0  0  0  0
  160.8480  207.1640  150.8990 C   0  0  0  0  0  2  0  0  0  0  0  0
  161.8390  208.0240  151.6530 C   0  0  0  0  0  2  0  0  0  0  0  0
  161.1350  209.2560  152.1860 C   0  0  0  0  0  2  0  0  0  0  0  0
  161.9270  209.8250  153.3510 C   0  0  0  0  0  2  0  0  0  0  0  0
  160.6510  211.8310  153.5180 O   0  0  0  0  0  0  0  0  0  0  0  0
  161.1040  210.8140  154.1090 C   0  0  0  0  0  0  0  0  0  0  0  0
  160.8410  210.6060  155.5000 N   0  0  0  0  0  2  0  0  0  0  0  0
  160.0550  211.5370  156.2920 C   0  0  0  0  0  2  0  0  0  0  0  0
  158.6180  211.0480  156.3840 C   0  0  0  0  0  2  0  0  0  0  0  0
  156.5690  213.1340  153.9160 N   0  0  0  0  0  2  0  0  0  0  0  0
  157.8600  211.4770  155.2150 N   0  0  0  0  0  2  0  0  0  0  0  0
  157.7580  213.7280  155.8370 O   0  0  0  0  0  0  0  0  0  0  0  0
  157.4070  212.8210  155.0310 C   0  0  0  0  0  0  0  0  0  0  0  0
  155.9800  214.4500  153.7230 C   0  0  0  0  0  2  0  0  0  0  0  0
  154.9610  214.4020  152.5960 C   0  0  0  0  0  1  0  0  0  0  0  0
  162.3210  207.7540  149.1050 C   0  0  0  0  0  2  0  0  0  0  0  0
  162.4900  209.0200  148.2530 C   0  0  0  0  0  2  0  0  0  0  0  0
  161.9030  210.1460  148.8900 O   0  0  0  0  0  0  0  0  0  0  0  0
  161.5370  211.2980  148.1900 C   0  0  0  0  0  0  0  0  0  0  0  0
  160.5420  211.2870  147.4140 O   0  0  0  0  0  0  0  0  0  0  0  0
  162.3590  212.5370  148.3470 C   0  0  2  0  0  3  0  0  0  0  0  0
  161.5420  213.6710  148.6350 O   0  0  0  0  0  0  0  0  0  0  0  0
  157.8610  213.6850  148.9210 C   0  0  0  0  0  3  0  0  0  0  0  0
  157.6850  213.3690  150.2710 C   0  0  0  0  0  3  0  0  0  0  0  0
  160.2670  213.5730  149.1990 C   0  0  0  0  0  0  0  0  0  0  0  0
  158.7970  213.1610  151.0880 C   0  0  0  0  0  3  0  0  0  0  0  0
  159.1480  213.7860  148.3880 C   0  0  0  0  0  3  0  0  0  0  0  0
  160.0840  213.2640  150.5550 C   0  0  0  0  0  3  0  0  0  0  0  0
  163.1570  212.7770  147.0780 C   0  0  0  0  0  2  0  0  0  0  0  0
  162.2980  213.3860  145.9730 C   0  0  0  0  0  2  0  0  0  0  0  0
  162.0220  212.8160  143.5110 C   0  0  0  0  0  0  0  0  0  0  0  0
  162.6490  212.4390  142.2860 N   0  0  0  0  0  2  0  0  0  0  0  0
  162.8380  213.0710  144.6570 N   0  0  0  0  0  2  0  0  0  0  0  0
  160.7650  212.9260  143.5780 O   0  0  0  0  0  0  0  0  0  0  0  0
  161.8970  211.9730  141.1320 C   0  0  0  0  0  2  0  0  0  0  0  0
  162.8410  211.6840  140.0120 C   0  0  0  0  0  3  0  0  0  0  0  0
  162.5540  210.9390  138.9400 C   0  0  0  0  0  3  0  0  0  0  0  0
  161.2610  210.3010  138.6390 C   0  0  0  0  0  0  0  0  0  0  0  0
  160.9450  208.9930  139.2640 C   0  0  0  0  0  1  0  0  0  0  0  0
  160.4370  210.8160  137.8370 O   0  0  0  0  0  0  0  0  0  0  0  0
  1 13  1  0  0  0  0
  3  2  1  0  0  0  0
  3  1  1  1  0  0  0
  4  6  1  0  0  0  0
  4  8  1  0  0  0  0
  6  5  1  6  0  0  0
  6  7  1  0  0  0  0
  7  9  1  1  0  0  0
  7  2  1  0  0  0  0
  8  3  1  0  0  0  0
 10  9  1  0  0  0  0
 10 11  1  0  0  0  0
 11 12  1  0  0  0  0
 13 14  1  0  0  0  0
 14 15  1  0  0  0  0
 15 16  1  0  0  0  0
 16 18  1  0  0  0  0
 17 18  2  0  0  0  0
 18 19  1  0  0  0  0
 19 20  1  0  0  0  0
 20 21  1  0  0  0  0
 22 25  1  0  0  0  0
 23 21  1  0  0  0  0
 25 23  1  0  0  0  0
 25 24  2  0  0  0  0
 26 22  1  0  0  0  0
 27 26  1  0  0  0  0
 28  1  1  0  0  0  0
 29 30  1  0  0  0  0
 29 28  1  0  0  0  0
 31 33  1  0  0  0  0
 31 30  1  0  0  0  0
 32 31  2  0  0  0  0
 33 41  1  6  0  0  0
 33 34  1  0  0  0  0
 34 37  1  0  0  0  0
 35 36  1  0  0  0  0
 36 38  2  0  0  0  0
 37 40  2  0  0  0  0
 39 35  2  0  0  0  0
 39 37  1  0  0  0  0
 40 38  1  0  0  0  0
 42 41  1  0  0  0  0
 43 46  2  0  0  0  0
 43 45  1  0  0  0  0
 44 43  1  0  0  0  0
 45 42  1  0  0  0  0
 47 44  1  0  0  0  0
 48 47  1  0  0  0  0
 49 48  2  0  0  0  0
 50 49  1  0  0  0  0
 50 51  1  0  0  0  0
 52 50  2  0  0  0  0
M  END
>  <MODEL>
2

>  <REMARK>
 VINA RESULT:      -5.6      2.345     10.454
  Name = 
  26 active torsions:
  status: ('A' for Active; 'I' for Inactive)
    1  A    between atoms: C_1  and  N_24
    2  A    between atoms: C_1  and  C_28
    3  A    between atoms: O_2  and  C_12
    4  A    between atoms: O_2  and  C_21
    5  A    between atoms: N_3  and  C_20
    6  A    between atoms: C_5  and  C_8
    7  A    between atoms: C_5  and  N_43
    8  A    between atoms: C_7  and  C_11
    9  A    between atoms: C_8  and  N_22
   10  A    between atoms: C_10  and  N_13
   11  A    between atoms: C_11  and  C_49
   12  A    between atoms: C_12  and  C_48
   13  A    between atoms: N_13  and  C_36
   14  A    between atoms: N_13  and  C_48
   15  A    between atoms: C_16  and  O_40
   16  A    between atoms: C_19  and  C_38
   17  A    between atoms: C_21  and  C_42
   18  A    between atoms: N_27  and  C_31
   19  A    between atoms: C_31  and  C_47
   20  A    between atoms: C_35  and  C_36
   21  A    between atoms: C_35  and  C_37
   22  A    between atoms: C_37  and  C_45
   23  A    between atoms: C_39  and  C_45
   24  A    between atoms: O_40  and  C_42
   25  A    between atoms: C_42  and  C_47
   26  A    between atoms: C_49  and  C_50
                            x       y       z     vdW  Elec       q    Type
                         _______ _______ _______ _____ _____    ______ ____

>  <TORSDO>
F 26

$$$$
=
 OpenBabel11042422163D

 52 53  0  0  1  0  0  0  0  0999 V2000
  159.9790  211.9940  152.2210 N   0  0  0  0  0  0  0  0  0  0  0  0
  160.1200  211.4590  154.6270 C   0  0  0  0  0  2  0  0  0  0  0  0
  159.6060  212.4650  153.5690 C   0  0  2  0  0  3  0  0  0  0  0  0
  157.3410  211.4560  154.0890 C   0  0  0  0  0  2  0  0  0  0  0  0
  156.8820  211.4110  156.4340 O   0  0  0  0  0  1  0  0  0  0  0  0
  157.7780  210.9500  155.4690 C   0  0  2  0  0  3  0  0  0  0  0  0
  159.2080  211.3660  155.8550 C   0  0  1  0  0  3  0  0  0  0  0  0
  158.0890  212.7280  153.7070 C   0  0  0  0  0  2  0  0  0  0  0  0
  159.7740  210.3640  156.8470 C   0  0  0  0  0  2  0  0  0  0  0  0
  160.8480  209.5250  156.1800 C   0  0  0  0  0  2  0  0  0  0  0  0
  162.1010  209.4790  157.0360 C   0  0  0  0  0  2  0  0  0  0  0  0
  163.0850  210.5510  156.5910 C   0  0  0  0  0  1  0  0  0  0  0  0
  160.2320  213.1050  151.3000 C   0  0  0  0  0  2  0  0  0  0  0  0
  159.9350  212.6700  149.8810 C   0  0  0  0  0  2  0  0  0  0  0  0
  161.1830  212.8220  149.0350 C   0  0  0  0  0  2  0  0  0  0  0  0
  160.8690  213.6820  147.8220 C   0  0  0  0  0  2  0  0  0  0  0  0
  162.9680  213.0110  146.9150 O   0  0  0  0  0  0  0  0  0  0  0  0
  161.7710  213.3310  146.6850 C   0  0  0  0  0  0  0  0  0  0  0  0
  161.2740  213.3670  145.3430 N   0  0  0  0  0  2  0  0  0  0  0  0
  162.1050  213.0450  144.1960 C   0  0  0  0  0  2  0  0  0  0  0  0
  161.2910  213.1740  142.9180 C   0  0  0  0  0  2  0  0  0  0  0  0
  161.4620  210.2780  140.4240 N   0  0  0  0  0  2  0  0  0  0  0  0
  161.1340  211.8730  142.2810 N   0  0  0  0  0  2  0  0  0  0  0  0
  162.5860  212.3240  140.5060 O   0  0  0  0  0  0  0  0  0  0  0  0
  161.7610  211.5320  141.0420 C   0  0  0  0  0  0  0  0  0  0  0  0
  161.9740  209.9080  139.1150 C   0  0  0  0  0  2  0  0  0  0  0  0
  160.8590  209.9780  138.0830 C   0  0  0  0  0  1  0  0  0  0  0  0
  161.1710  211.1330  152.2850 C   0  0  0  0  0  2  0  0  0  0  0  0
  161.0350  209.8210  151.5000 C   0  0  0  0  0  2  0  0  0  0  0  0
  162.1320  209.6410  150.6140 O   0  0  0  0  0  0  0  0  0  0  0  0
  162.0370  208.8750  149.4500 C   0  0  0  0  0  0  0  0  0  0  0  0
  161.6190  209.3900  148.3770 O   0  0  0  0  0  0  0  0  0  0  0  0
  162.4100  207.4280  149.4980 C   0  0  2  0  0  3  0  0  0  0  0  0
  162.9740  206.9940  148.2630 O   0  0  0  0  0  0  0  0  0  0  0  0
  160.0430  206.1920  146.1660 C   0  0  0  0  0  3  0  0  0  0  0  0
  160.6350  205.4790  145.1200 C   0  0  0  0  0  3  0  0  0  0  0  0
  162.2120  206.4770  147.2120 C   0  0  0  0  0  0  0  0  0  0  0  0
  162.0130  205.2580  145.1200 C   0  0  0  0  0  3  0  0  0  0  0  0
  160.8300  206.6890  147.2080 C   0  0  0  0  0  3  0  0  0  0  0  0
  162.7990  205.7530  146.1630 C   0  0  0  0  0  3  0  0  0  0  0  0
  161.1800  206.6010  149.8300 C   0  0  0  0  0  2  0  0  0  0  0  0
  161.3790  205.7680  151.0920 C   0  0  0  0  0  2  0  0  0  0  0  0
  160.7700  203.5520  150.0040 C   0  0  0  0  0  0  0  0  0  0  0  0
  159.9090  202.4140  149.9930 N   0  0  0  0  0  2  0  0  0  0  0  0
  160.6080  204.5330  151.0320 N   0  0  0  0  0  2  0  0  0  0  0  0
  161.6650  203.6860  149.1210 O   0  0  0  0  0  0  0  0  0  0  0  0
  159.8700  201.4730  148.8850 C   0  0  0  0  0  2  0  0  0  0  0  0
  161.2100  200.8310  148.7350 C   0  0  0  0  0  3  0  0  0  0  0  0
  161.7000  200.3370  147.5950 C   0  0  0  0  0  3  0  0  0  0  0  0
  161.0430  200.3620  146.2770 C   0  0  0  0  0  0  0  0  0  0  0  0
  160.6410  201.6690  145.7010 C   0  0  0  0  0  1  0  0  0  0  0  0
  160.7800  199.3030  145.6460 O   0  0  0  0  0  0  0  0  0  0  0  0
  1 28  1  0  0  0  0
  2  7  1  0  0  0  0
  3  1  1  6  0  0  0
  3  8  1  0  0  0  0
  3  2  1  0  0  0  0
  4  6  1  0  0  0  0
  6  7  1  0  0  0  0
  6  5  1  1  0  0  0
  7  9  1  1  0  0  0
  8  4  1  0  0  0  0
 10  9  1  0  0  0  0
 10 11  1  0  0  0  0
 12 11  1  0  0  0  0
 13  1  1  0  0  0  0
 14 13  1  0  0  0  0
 15 14  1  0  0  0  0
 16 15  1  0  0  0  0
 18 17  2  0  0  0  0
 18 16  1  0  0  0  0
 19 18  1  0  0  0  0
 20 19  1  0  0  0  0
 21 20  1  0  0  0  0
 22 25  1  0  0  0  0
 23 21  1  0  0  0  0
 24 25  2  0  0  0  0
 25 23  1  0  0  0  0
 26 22  1  0  0  0  0
 27 26  1  0  0  0  0
 29 28  1  0  0  0  0
 30 29  1  0  0  0  0
 31 33  1  0  0  0  0
 31 30  1  0  0  0  0
 32 31  2  0  0  0  0
 33 41  1  6  0  0  0
 34 33  1  0  0  0  0
 35 39  1  0  0  0  0
 36 35  2  0  0  0  0
 37 34  1  0  0  0  0
 38 36  1  0  0  0  0
 38 40  2  0  0  0  0
 39 37  2  0  0  0  0
 40 37  1  0  0  0  0
 41 42  1  0  0  0  0
 43 45  1  0  0  0  0
 44 43  1  0  0  0  0
 45 42  1  0  0  0  0
 46 43  2  0  0  0  0
 47 44  1  0  0  0  0
 48 47  1  0  0  0  0
 49 48  2  0  0  0  0
 50 49  1  0  0  0  0
 51 50  1  0  0  0  0
 52 50  2  0  0  0  0
M  END
>  <MODEL>
3

>  <REMARK>
 VINA RESULT:      -5.5      1.693      2.014
  Name = 
  26 active torsions:
  status: ('A' for Active; 'I' for Inactive)
    1  A    between atoms: C_1  and  N_24
    2  A    between atoms: C_1  and  C_28
    3  A    between atoms: O_2  and  C_12
    4  A    between atoms: O_2  and  C_21
    5  A    between atoms: N_3  and  C_20
    6  A    between atoms: C_5  and  C_8
    7  A    between atoms: C_5  and  N_43
    8  A    between atoms: C_7  and  C_11
    9  A    between atoms: C_8  and  N_22
   10  A    between atoms: C_10  and  N_13
   11  A    between atoms: C_11  and  C_49
   12  A    between atoms: C_12  and  C_48
   13  A    between atoms: N_13  and  C_36
   14  A    between atoms: N_13  and  C_48
   15  A    between atoms: C_16  and  O_40
   16  A    between atoms: C_19  and  C_38
   17  A    between atoms: C_21  and  C_42
   18  A    between atoms: N_27  and  C_31
   19  A    between atoms: C_31  and  C_47
   20  A    between atoms: C_35  and  C_36
   21  A    between atoms: C_35  and  C_37
   22  A    between atoms: C_37  and  C_45
   23  A    between atoms: C_39  and  C_45
   24  A    between atoms: O_40  and  C_42
   25  A    between atoms: C_42  and  C_47
   26  A    between atoms: C_49  and  C_50
                            x       y       z     vdW  Elec       q    Type
                         _______ _______ _______ _____ _____    ______ ____

>  <TORSDO>
F 26

$$$$
=
 OpenBabel11042422163D

 52 53  0  0  1  0  0  0  0  0999 V2000
  162.2670  209.8280  149.2230 N   0  0  0  0  0  0  0  0  0  0  0  0
  160.8480  210.9710  147.5560 C   0  0  0  0  0  2  0  0  0  0  0  0
  161.5610  211.0910  148.9240 C   0  0  2  0  0  3  0  0  0  0  0  0
  163.1950  212.5520  147.6530 C   0  0  0  0  0  2  0  0  0  0  0  0
  162.0960  214.2670  146.4030 O   0  0  0  0  0  1  0  0  0  0  0  0
  162.1850  212.8820  146.5480 C   0  0  2  0  0  3  0  0  0  0  0  0
  160.7820  212.3030  146.7990 C   0  0  1  0  0  3  0  0  0  0  0  0
  162.4950  212.3200  148.9870 C   0  0  0  0  0  2  0  0  0  0  0  0
  160.0710  212.1090  145.4710 C   0  0  0  0  0  2  0  0  0  0  0  0
  159.3900  213.3990  145.0540 C   0  0  0  0  0  2  0  0  0  0  0  0
  159.4420  213.5710  143.5470 C   0  0  0  0  0  2  0  0  0  0  0  0
  160.8830  213.5110  143.0570 C   0  0  0  0  0  1  0  0  0  0  0  0
  162.4000  209.5990  150.6630 C   0  0  0  0  0  2  0  0  0  0  0  0
  161.3540  208.6050  151.1210 C   0  0  0  0  0  2  0  0  0  0  0  0
  161.9190  207.7630  152.2470 C   0  0  0  0  0  2  0  0  0  0  0  0
  160.7810  207.0680  152.9760 C   0  0  0  0  0  2  0  0  0  0  0  0
  159.9220  206.9440  155.1960 O   0  0  0  0  0  0  0  0  0  0  0  0
  160.7690  207.4580  154.4180 C   0  0  0  0  0  0  0  0  0  0  0  0
  161.7110  208.4200  154.9040 N   0  0  0  0  0  2  0  0  0  0  0  0
  161.7420  208.8470  156.2930 C   0  0  0  0  0  2  0  0  0  0  0  0
  160.9510  210.1350  156.4530 C   0  0  0  0  0  2  0  0  0  0  0  0
  160.3280  211.9550  153.1460 N   0  0  0  0  0  2  0  0  0  0  0  0
  161.1100  210.9800  155.2760 N   0  0  0  0  0  2  0  0  0  0  0  0
  158.8920  210.7750  154.5630 O   0  0  0  0  0  0  0  0  0  0  0  0
  160.0560  211.2110  154.3360 C   0  0  0  0  0  0  0  0  0  0  0  0
  159.3400  212.1370  152.0940 C   0  0  0  0  0  2  0  0  0  0  0  0
  159.6990  213.3490  151.2500 C   0  0  0  0  0  1  0  0  0  0  0  0
  161.5660  208.6870  148.6110 C   0  0  0  0  0  2  0  0  0  0  0  0
  162.5040  207.6230  148.0240 C   0  0  0  0  0  2  0  0  0  0  0  0
  161.9000  206.9650  146.9190 O   0  0  0  0  0  0  0  0  0  0  0  0
  162.3060  205.7010  146.4850 C   0  0  0  0  0  0  0  0  0  0  0  0
  163.5150  205.3510  146.5750 O   0  0  0  0  0  0  0  0  0  0  0  0
  161.2950  204.7770  145.8850 C   0  0  2  0  0  3  0  0  0  0  0  0
  161.3070  203.5040  146.5280 O   0  0  0  0  0  0  0  0  0  0  0  0
  160.8240  201.8460  149.7920 C   0  0  0  0  0  3  0  0  0  0  0  0
  160.7290  202.9440  150.6510 C   0  0  0  0  0  3  0  0  0  0  0  0
  161.1080  203.3380  147.9010 C   0  0  0  0  0  0  0  0  0  0  0  0
  160.8170  204.2390  150.1380 C   0  0  0  0  0  3  0  0  0  0  0  0
  161.0130  202.0430  148.4220 C   0  0  0  0  0  3  0  0  0  0  0  0
  161.0040  204.4360  148.7680 C   0  0  0  0  0  3  0  0  0  0  0  0
  161.5790  204.6150  144.4020 C   0  0  0  0  0  2  0  0  0  0  0  0
  161.6900  205.9620  143.6950 C   0  0  0  0  0  2  0  0  0  0  0  0
  162.0990  206.5730  141.2610 C   0  0  0  0  0  0  0  0  0  0  0  0
  161.6940  206.4290  139.9000 N   0  0  0  0  0  2  0  0  0  0  0  0
  161.4110  205.8310  142.2710 N   0  0  0  0  0  2  0  0  0  0  0  0
  163.0540  207.3430  141.5650 O   0  0  0  0  0  0  0  0  0  0  0  0
  162.1990  207.2830  138.8380 C   0  0  0  0  0  2  0  0  0  0  0  0
  161.0730  208.0830  138.2710 C   0  0  0  0  0  3  0  0  0  0  0  0
  160.7460  209.3220  138.6500 C   0  0  0  0  0  3  0  0  0  0  0  0
  161.4420  210.1420  139.6560 C   0  0  0  0  0  0  0  0  0  0  0  0
  160.6390  210.9800  140.5790 C   0  0  0  0  0  1  0  0  0  0  0  0
  162.7000  210.1780  139.7280 O   0  0  0  0  0  0  0  0  0  0  0  0
  1 13  1  0  0  0  0
  2  3  1  0  0  0  0
  3  8  1  0  0  0  0
  3  1  1  6  0  0  0
  4  8  1  0  0  0  0
  6  5  1  1  0  0  0
  6  7  1  0  0  0  0
  6  4  1  0  0  0  0
  7  9  1  6  0  0  0
  7  2  1  0  0  0  0
 10  9  1  0  0  0  0
 11 10  1  0  0  0  0
 12 11  1  0  0  0  0
 13 14  1  0  0  0  0
 14 15  1  0  0  0  0
 15 16  1  0  0  0  0
 16 18  1  0  0  0  0
 18 19  1  0  0  0  0
 18 17  2  0  0  0  0
 19 20  1  0  0  0  0
 20 21  1  0  0  0  0
 22 25  1  0  0  0  0
 23 21  1  0  0  0  0
 25 24  2  0  0  0  0
 25 23  1  0  0  0  0
 26 22  1  0  0  0  0
 27 26  1  0  0  0  0
 28  1  1  0  0  0  0
 29 28  1  0  0  0  0
 30 29  1  0  0  0  0
 31 32  2  0  0  0  0
 31 30  1  0  0  0  0
 33 41  1  6  0  0  0
 33 31  1  0  0  0  0
 33 34  1  0  0  0  0
 34 37  1  0  0  0  0
 35 36  1  0  0  0  0
 37 39  1  0  0  0  0
 37 40  2  0  0  0  0
 38 36  2  0  0  0  0
 39 35  2  0  0  0  0
 40 38  1  0  0  0  0
 42 41  1  0  0  0  0
 43 46  2  0  0  0  0
 43 45  1  0  0  0  0
 44 43  1  0  0  0  0
 45 42  1  0  0  0  0
 47 44  1  0  0  0  0
 48 49  2  0  0  0  0
 48 47  1  0  0  0  0
 49 50  1  0  0  0  0
 50 52  2  0  0  0  0
 50 51  1  0  0  0  0
M  END
>  <MODEL>
4

>  <REMARK>
 VINA RESULT:      -4.9      3.270      9.650
  Name = 
  26 active torsions:
  status: ('A' for Active; 'I' for Inactive)
    1  A    between atoms: C_1  and  N_24
    2  A    between atoms: C_1  and  C_28
    3  A    between atoms: O_2  and  C_12
    4  A    between atoms: O_2  and  C_21
    5  A    between atoms: N_3  and  C_20
    6  A    between atoms: C_5  and  C_8
    7  A    between atoms: C_5  and  N_43
    8  A    between atoms: C_7  and  C_11
    9  A    between atoms: C_8  and  N_22
   10  A    between atoms: C_10  and  N_13
   11  A    between atoms: C_11  and  C_49
   12  A    between atoms: C_12  and  C_48
   13  A    between atoms: N_13  and  C_36
   14  A    between atoms: N_13  and  C_48
   15  A    between atoms: C_16  and  O_40
   16  A    between atoms: C_19  and  C_38
   17  A    between atoms: C_21  and  C_42
   18  A    between atoms: N_27  and  C_31
   19  A    between atoms: C_31  and  C_47
   20  A    between atoms: C_35  and  C_36
   21  A    between atoms: C_35  and  C_37
   22  A    between atoms: C_37  and  C_45
   23  A    between atoms: C_39  and  C_45
   24  A    between atoms: O_40  and  C_42
   25  A    between atoms: C_42  and  C_47
   26  A    between atoms: C_49  and  C_50
                            x       y       z     vdW  Elec       q    Type
                         _______ _______ _______ _____ _____    ______ ____

>  <TORSDO>
F 26

$$$$
=
 OpenBabel11042422163D

 52 53  0  0  1  0  0  0  0  0999 V2000
  160.1960  211.3410  152.0970 N   0  0  0  0  0  0  0  0  0  0  0  0
  158.5620  212.4610  153.5700 C   0  0  0  0  0  2  0  0  0  0  0  0
  159.2730  211.1300  153.2300 C   0  0  2  0  0  3  0  0  0  0  0  0
  160.5950  211.5970  155.3390 C   0  0  0  0  0  2  0  0  0  0  0  0
  159.1850  212.0860  157.2060 O   0  0  0  0  0  1  0  0  0  0  0  0
  159.5180  212.5200  155.9220 C   0  0  2  0  0  3  0  0  0  0  0  0
  158.2460  212.6040  155.0630 C   0  0  1  0  0  3  0  0  0  0  0  0
  159.9770  210.5160  154.4610 C   0  0  0  0  0  2  0  0  0  0  0  0
  157.5500  213.9310  155.3200 C   0  0  0  0  0  2  0  0  0  0  0  0
  156.9370  214.4530  154.0350 C   0  0  0  0  0  2  0  0  0  0  0  0
  155.5460  213.8810  153.8330 C   0  0  0  0  0  2  0  0  0  0  0  0
  154.5840  214.4520  154.8660 C   0  0  0  0  0  1  0  0  0  0  0  0
  160.3170  212.7560  151.7410 C   0  0  0  0  0  2  0  0  0  0  0  0
  159.9930  212.9430  150.2740 C   0  0  0  0  0  2  0  0  0  0  0  0
  161.2690  212.8520  149.4600 C   0  0  0  0  0  2  0  0  0  0  0  0
  161.2810  213.9590  148.4180 C   0  0  0  0  0  2  0  0  0  0  0  0
  159.5730  212.7840  147.2410 O   0  0  0  0  0  0  0  0  0  0  0  0
  160.6050  213.5040  147.1660 C   0  0  0  0  0  0  0  0  0  0  0  0
  161.1360  213.8790  145.8920 N   0  0  0  0  0  2  0  0  0  0  0  0
  160.5280  213.4600  144.6400 C   0  0  0  0  0  2  0  0  0  0  0  0
  161.5310  212.6600  143.8230 C   0  0  0  0  0  2  0  0  0  0  0  0
  160.6140  211.2620  140.3820 N   0  0  0  0  0  2  0  0  0  0  0  0
  160.8580  211.9550  142.7400 N   0  0  0  0  0  2  0  0  0  0  0  0
  162.5480  212.3150  141.1650 O   0  0  0  0  0  0  0  0  0  0  0  0
  161.3920  211.8710  141.4160 C   0  0  0  0  0  0  0  0  0  0  0  0
  161.0410  211.2380  138.9920 C   0  0  0  0  0  2  0  0  0  0  0  0
  161.4210  209.8210  138.5910 C   0  0  0  0  0  1  0  0  0  0  0  0
  161.5290  210.8010  152.4090 C   0  0  0  0  0  2  0  0  0  0  0  0
  161.8380  209.4660  151.7170 C   0  0  0  0  0  2  0  0  0  0  0  0
  160.8370  208.4990  152.0040 O   0  0  0  0  0  0  0  0  0  0  0  0
  161.1250  207.1390  152.1390 C   0  0  0  0  0  0  0  0  0  0  0  0
  161.8230  206.7250  153.1050 O   0  0  0  0  0  0  0  0  0  0  0  0
  160.6210  206.1820  151.1070 C   0  0  2  0  0  3  0  0  0  0  0  0
  160.3030  204.9160  151.6820 O   0  0  0  0  0  0  0  0  0  0  0  0
  161.8560  201.6120  151.1320 C   0  0  0  0  0  3  0  0  0  0  0  0
  161.2800  201.2320  149.9160 C   0  0  0  0  0  3  0  0  0  0  0  0
  160.6210  203.6980  151.0750 C   0  0  0  0  0  0  0  0  0  0  0  0
  160.3800  202.0850  149.2750 C   0  0  0  0  0  3  0  0  0  0  0  0
  161.5270  202.8410  151.7080 C   0  0  0  0  0  3  0  0  0  0  0  0
  160.0520  203.3140  149.8510 C   0  0  0  0  0  3  0  0  0  0  0  0
  161.6690  206.0140  150.0210 C   0  0  0  0  0  2  0  0  0  0  0  0
  161.8150  207.2730  149.1720 C   0  0  0  0  0  2  0  0  0  0  0  0
  162.0280  205.9420  147.0160 C   0  0  0  0  0  0  0  0  0  0  0  0
  162.7830  205.6810  145.8330 N   0  0  0  0  0  2  0  0  0  0  0  0
  162.4640  206.9760  147.9020 N   0  0  0  0  0  2  0  0  0  0  0  0
  160.9890  205.2700  147.2730 O   0  0  0  0  0  0  0  0  0  0  0  0
  162.5310  204.5300  144.9820 C   0  0  0  0  0  2  0  0  0  0  0  0
  161.1280  204.5890  144.4750 C   0  0  0  0  0  3  0  0  0  0  0  0
  160.2290  203.6080  144.5930 C   0  0  0  0  0  3  0  0  0  0  0  0
  160.4290  202.3140  145.2670 C   0  0  0  0  0  0  0  0  0  0  0  0
  159.4630  201.2170  145.0140 C   0  0  0  0  0  1  0  0  0  0  0  0
  161.3740  202.1280  146.0800 O   0  0  0  0  0  0  0  0  0  0  0  0
  1 28  1  0  0  0  0
  2  7  1  0  0  0  0
  3  1  1  6  0  0  0
  3  2  1  0  0  0  0
  3  8  1  0  0  0  0
  4  6  1  0  0  0  0
  6  5  1  1  0  0  0
  7  9  1  6  0  0  0
  7  6  1  0  0  0  0
  8  4  1  0  0  0  0
 10  9  1  0  0  0  0
 11 10  1  0  0  0  0
 11 12  1  0  0  0  0
 13  1  1  0  0  0  0
 14 13  1  0  0  0  0
 15 14  1  0  0  0  0
 16 15  1  0  0  0  0
 18 17  2  0  0  0  0
 18 16  1  0  0  0  0
 19 18  1  0  0  0  0
 20 19  1  0  0  0  0
 21 20  1  0  0  0  0
 22 25  1  0  0  0  0
 23 21  1  0  0  0  0
 24 25  2  0  0  0  0
 25 23  1  0  0  0  0
 26 22  1  0  0  0  0
 27 26  1  0  0  0  0
 29 30  1  0  0  0  0
 29 28  1  0  0  0  0
 30 31  1  0  0  0  0
 31 32  2  0  0  0  0
 33 41  1  6  0  0  0
 33 34  1  0  0  0  0
 33 31  1  0  0  0  0
 35 39  1  0  0  0  0
 36 35  2  0  0  0  0
 37 34  1  0  0  0  0
 37 39  2  0  0  0  0
 38 40  2  0  0  0  0
 38 36  1  0  0  0  0
 40 37  1  0  0  0  0
 42 41  1  0  0  0  0
 43 46  2  0  0  0  0
 43 45  1  0  0  0  0
 44 43  1  0  0  0  0
 45 42  1  0  0  0  0
 47 44  1  0  0  0  0
 48 49  2  0  0  0  0
 48 47  1  0  0  0  0
 49 50  1  0  0  0  0
 50 52  2  0  0  0  0
 51 50  1  0  0  0  0
M  END
>  <MODEL>
5

>  <REMARK>
 VINA RESULT:      -4.6      2.273      4.125
  Name = 
  26 active torsions:
  status: ('A' for Active; 'I' for Inactive)
    1  A    between atoms: C_1  and  N_24
    2  A    between atoms: C_1  and  C_28
    3  A    between atoms: O_2  and  C_12
    4  A    between atoms: O_2  and  C_21
    5  A    between atoms: N_3  and  C_20
    6  A    between atoms: C_5  and  C_8
    7  A    between atoms: C_5  and  N_43
    8  A    between atoms: C_7  and  C_11
    9  A    between atoms: C_8  and  N_22
   10  A    between atoms: C_10  and  N_13
   11  A    between atoms: C_11  and  C_49
   12  A    between atoms: C_12  and  C_48
   13  A    between atoms: N_13  and  C_36
   14  A    between atoms: N_13  and  C_48
   15  A    between atoms: C_16  and  O_40
   16  A    between atoms: C_19  and  C_38
   17  A    between atoms: C_21  and  C_42
   18  A    between atoms: N_27  and  C_31
   19  A    between atoms: C_31  and  C_47
   20  A    between atoms: C_35  and  C_36
   21  A    between atoms: C_35  and  C_37
   22  A    between atoms: C_37  and  C_45
   23  A    between atoms: C_39  and  C_45
   24  A    between atoms: O_40  and  C_42
   25  A    between atoms: C_42  and  C_47
   26  A    between atoms: C_49  and  C_50
                            x       y       z     vdW  Elec       q    Type
                         _______ _______ _______ _____ _____    ______ ____

>  <TORSDO>
F 26

$$$$
=
 OpenBabel11042422163D

 52 53  0  0  1  0  0  0  0  0999 V2000
  162.2700  209.6740  149.3010 N   0  0  0  0  0  0  0  0  0  0  0  0
  160.8420  211.1750  147.9580 C   0  0  0  0  0  2  0  0  0  0  0  0
  161.7860  211.0630  149.1790 C   0  0  2  0  0  3  0  0  0  0  0  0
  163.4350  212.2780  147.6870 C   0  0  0  0  0  2  0  0  0  0  0  0
  162.4990  214.2510  146.7170 O   0  0  0  0  0  1  0  0  0  0  0  0
  162.3370  212.8680  146.7940 C   0  0  2  0  0  3  0  0  0  0  0  0
  160.9110  212.5440  147.2730 C   0  0  1  0  0  3  0  0  0  0  0  0
  162.9390  212.0900  149.1170 C   0  0  0  0  0  2  0  0  0  0  0  0
  159.9610  212.5800  146.0880 C   0  0  0  0  0  2  0  0  0  0  0  0
  159.2420  213.9140  146.0400 C   0  0  0  0  0  2  0  0  0  0  0  0
  157.7730  213.7450  146.3850 C   0  0  0  0  0  2  0  0  0  0  0  0
  157.3380  212.3040  146.1580 C   0  0  0  0  0  1  0  0  0  0  0  0
  161.5070  208.9090  150.2890 C   0  0  0  0  0  2  0  0  0  0  0  0
  162.4080  207.8900  150.9540 C   0  0  0  0  0  2  0  0  0  0  0  0
  161.7610  207.4080  152.2370 C   0  0  0  0  0  2  0  0  0  0  0  0
  160.9110  208.5230  152.8230 C   0  0  0  0  0  2  0  0  0  0  0  0
  160.8020  207.2880  154.8590 O   0  0  0  0  0  0  0  0  0  0  0  0
  160.8720  208.4210  154.3130 C   0  0  0  0  0  0  0  0  0  0  0  0
  160.9040  209.6100  155.1090 N   0  0  0  0  0  2  0  0  0  0  0  0
  160.8590  209.5760  156.5620 C   0  0  0  0  0  2  0  0  0  0  0  0
  159.6630  210.3720  157.0590 C   0  0  0  0  0  2  0  0  0  0  0  0
  157.1410  212.3270  154.9480 N   0  0  0  0  0  2  0  0  0  0  0  0
  158.9880  211.0240  155.9440 N   0  0  0  0  0  2  0  0  0  0  0  0
  157.3740  212.0860  157.2610 O   0  0  0  0  0  0  0  0  0  0  0  0
  157.8100  211.8190  156.1050 C   0  0  0  0  0  0  0  0  0  0  0  0
  155.8810  213.0490  155.0260 C   0  0  0  0  0  2  0  0  0  0  0  0
  155.5690  213.6940  153.6850 C   0  0  0  0  0  1  0  0  0  0  0  0
  162.2070  208.9880  148.0000 C   0  0  0  0  0  2  0  0  0  0  0  0
  162.0190  207.4680  148.1050 C   0  0  0  0  0  2  0  0  0  0  0  0
  162.0890  206.8560  146.8250 O   0  0  0  0  0  0  0  0  0  0  0  0
  161.0410  206.0970  146.2980 C   0  0  0  0  0  0  0  0  0  0  0  0
  159.8430  206.4520  146.4730 O   0  0  0  0  0  0  0  0  0  0  0  0
  161.3560  204.8410  145.5500 C   0  0  2  0  0  3  0  0  0  0  0  0
  162.0470  203.9040  146.3740 O   0  0  0  0  0  0  0  0  0  0  0  0
  160.4480  201.3590  148.5190 C   0  0  0  0  0  3  0  0  0  0  0  0
  160.3350  202.0470  149.7300 C   0  0  0  0  0  3  0  0  0  0  0  0
  161.4740  203.3050  147.4990 C   0  0  0  0  0  0  0  0  0  0  0  0
  160.7840  203.3650  149.8270 C   0  0  0  0  0  3  0  0  0  0  0  0
  161.0160  201.9870  147.4080 C   0  0  0  0  0  3  0  0  0  0  0  0
  161.3500  203.9930  148.7160 C   0  0  0  0  0  3  0  0  0  0  0  0
  162.1920  205.1780  144.3280 C   0  0  0  0  0  2  0  0  0  0  0  0
  161.4330  206.0680  143.3490 C   0  0  0  0  0  2  0  0  0  0  0  0
  162.0130  206.6920  140.9530 C   0  0  0  0  0  0  0  0  0  0  0  0
  162.2380  206.2490  139.6150 N   0  0  0  0  0  2  0  0  0  0  0  0
  161.7520  205.7210  141.9700 N   0  0  0  0  0  2  0  0  0  0  0  0
  162.0460  207.9250  141.2330 O   0  0  0  0  0  0  0  0  0  0  0  0
  162.3140  207.1650  138.4890 C   0  0  0  0  0  2  0  0  0  0  0  0
  160.9520  207.7050  138.2000 C   0  0  0  0  0  3  0  0  0  0  0  0
  160.6330  209.0020  138.1640 C   0  0  0  0  0  3  0  0  0  0  0  0
  161.5530  210.1350  138.3630 C   0  0  0  0  0  0  0  0  0  0  0  0
  162.4130  210.5650  137.2330 C   0  0  0  0  0  1  0  0  0  0  0  0
  161.6560  210.7200  139.4740 O   0  0  0  0  0  0  0  0  0  0  0  0
  1 13  1  0  0  0  0
  2  3  1  0  0  0  0
  3  1  1  6  0  0  0
  4  8  1  0  0  0  0
  6  5  1  1  0  0  0
  6  7  1  0  0  0  0
  6  4  1  0  0  0  0
  7  9  1  6  0  0  0
  7  2  1  0  0  0  0
  8  3  1  0  0  0  0
 10  9  1  0  0  0  0
 10 11  1  0  0  0  0
 12 11  1  0  0  0  0
 13 14  1  0  0  0  0
 14 15  1  0  0  0  0
 15 16  1  0  0  0  0
 16 18  1  0  0  0  0
 18 17  2  0  0  0  0
 18 19  1  0  0  0  0
 19 20  1  0  0  0  0
 20 21  1  0  0  0  0
 22 26  1  0  0  0  0
 22 25  1  0  0  0  0
 23 25  1  0  0  0  0
 23 21  1  0  0  0  0
 25 24  2  0  0  0  0
 27 26  1  0  0  0  0
 28 29  1  0  0  0  0
 28  1  1  0  0  0  0
 30 29  1  0  0  0  0
 31 32  2  0  0  0  0
 31 30  1  0  0  0  0
 33 41  1  6  0  0  0
 33 31  1  0  0  0  0
 33 34  1  0  0  0  0
 34 37  1  0  0  0  0
 35 36  1  0  0  0  0
 36 38  2  0  0  0  0
 37 40  2  0  0  0  0
 39 37  1  0  0  0  0
 39 35  2  0  0  0  0
 40 38  1  0  0  0  0
 42 41  1  0  0  0  0
 43 46  2  0  0  0  0
 43 45  1  0  0  0  0
 44 43  1  0  0  0  0
 45 42  1  0  0  0  0
 47 44  1  0  0  0  0
 48 47  1  0  0  0  0
 49 48  2  0  0  0  0
 49 50  1  0  0  0  0
 50 52  2  0  0  0  0
 51 50  1  0  0  0  0
M  END
>  <MODEL>
6

>  <REMARK>
 VINA RESULT:      -4.5      3.320     10.072
  Name = 
  26 active torsions:
  status: ('A' for Active; 'I' for Inactive)
    1  A    between atoms: C_1  and  N_24
    2  A    between atoms: C_1  and  C_28
    3  A    between atoms: O_2  and  C_12
    4  A    between atoms: O_2  and  C_21
    5  A    between atoms: N_3  and  C_20
    6  A    between atoms: C_5  and  C_8
    7  A    between atoms: C_5  and  N_43
    8  A    between atoms: C_7  and  C_11
    9  A    between atoms: C_8  and  N_22
   10  A    between atoms: C_10  and  N_13
   11  A    between atoms: C_11  and  C_49
   12  A    between atoms: C_12  and  C_48
   13  A    between atoms: N_13  and  C_36
   14  A    between atoms: N_13  and  C_48
   15  A    between atoms: C_16  and  O_40
   16  A    between atoms: C_19  and  C_38
   17  A    between atoms: C_21  and  C_42
   18  A    between atoms: N_27  and  C_31
   19  A    between atoms: C_31  and  C_47
   20  A    between atoms: C_35  and  C_36
   21  A    between atoms: C_35  and  C_37
   22  A    between atoms: C_37  and  C_45
   23  A    between atoms: C_39  and  C_45
   24  A    between atoms: O_40  and  C_42
   25  A    between atoms: C_42  and  C_47
   26  A    between atoms: C_49  and  C_50
                            x       y       z     vdW  Elec       q    Type
                         _______ _______ _______ _____ _____    ______ ____

>  <TORSDO>
F 26

$$$$
=
 OpenBabel11042422163D

 52 53  0  0  1  0  0  0  0  0999 V2000
  162.0290  207.9120  149.3450 N   0  0  0  0  0  0  0  0  0  0  0  0
  161.2260  208.7800  151.5130 C   0  0  0  0  0  2  0  0  0  0  0  0
  161.0060  207.7340  150.3950 C   0  0  2  0  0  3  0  0  0  0  0  0
  161.9720  206.1090  152.0820 C   0  0  0  0  0  2  0  0  0  0  0  0
  160.8880  206.2540  154.2070 O   0  0  0  0  0  1  0  0  0  0  0  0
  161.6190  206.9980  153.2800 C   0  0  2  0  0  3  0  0  0  0  0  0
  160.8310  208.2630  152.9010 C   0  0  1  0  0  3  0  0  0  0  0  0
  160.9690  206.2910  150.9480 C   0  0  0  0  0  2  0  0  0  0  0  0
  161.0740  209.3410  153.9440 C   0  0  0  0  0  2  0  0  0  0  0  0
  159.8660  210.2530  154.0380 C   0  0  0  0  0  2  0  0  0  0  0  0
  159.4080  210.3890  155.4790 C   0  0  0  0  0  2  0  0  0  0  0  0
  158.0430  211.0600  155.5400 C   0  0  0  0  0  1  0  0  0  0  0  0
  161.5640  207.4460  148.0380 C   0  0  0  0  0  2  0  0  0  0  0  0
  162.6920  206.7400  147.3150 C   0  0  0  0  0  2  0  0  0  0  0  0
  162.5320  205.2410  147.4740 C   0  0  0  0  0  2  0  0  0  0  0  0
  161.1580  204.8260  146.9750 C   0  0  0  0  0  2  0  0  0  0  0  0
  161.9410  203.3570  145.2690 O   0  0  0  0  0  0  0  0  0  0  0  0
  161.2280  203.4960  146.2990 C   0  0  0  0  0  0  0  0  0  0  0  0
  160.4810  202.3910  146.8190 N   0  0  0  0  0  2  0  0  0  0  0  0
  160.5020  201.0760  146.2010 C   0  0  0  0  0  2  0  0  0  0  0  0
  161.4390  200.1600  146.9730 C   0  0  0  0  0  2  0  0  0  0  0  0
  161.3170  201.7170  150.4660 N   0  0  0  0  0  2  0  0  0  0  0  0
  161.8190  200.7720  148.2400 N   0  0  0  0  0  2  0  0  0  0  0  0
  159.7060  200.5710  149.2190 O   0  0  0  0  0  0  0  0  0  0  0  0
  160.8900  201.0050  149.3010 C   0  0  0  0  0  0  0  0  0  0  0  0
  160.4040  202.0880  151.5350 C   0  0  0  0  0  2  0  0  0  0  0  0
  160.9820  203.2470  152.3320 C   0  0  0  0  0  1  0  0  0  0  0  0
  162.4260  209.3260  149.2460 C   0  0  0  0  0  2  0  0  0  0  0  0
  161.4720  210.1820  148.4020 C   0  0  0  0  0  2  0  0  0  0  0  0
  162.1270  211.3450  147.9140 O   0  0  0  0  0  0  0  0  0  0  0  0
  161.8290  212.6270  148.3830 C   0  0  0  0  0  0  0  0  0  0  0  0
  161.4720  212.8030  149.5810 O   0  0  0  0  0  0  0  0  0  0  0  0
  161.9090  213.7850  147.4410 C   0  0  2  0  0  3  0  0  0  0  0  0
  160.6530  214.4510  147.3270 O   0  0  0  0  0  0  0  0  0  0  0  0
  158.1570  212.3430  145.6090 C   0  0  0  0  0  3  0  0  0  0  0  0
  157.0770  212.4120  146.4930 C   0  0  0  0  0  3  0  0  0  0  0  0
  159.4530  213.7850  147.0640 C   0  0  0  0  0  0  0  0  0  0  0  0
  157.1800  213.1720  147.6590 C   0  0  0  0  0  3  0  0  0  0  0  0
  159.3400  213.0280  145.8940 C   0  0  0  0  0  3  0  0  0  0  0  0
  158.3630  213.8570  147.9440 C   0  0  0  0  0  3  0  0  0  0  0  0
  162.3650  213.2950  146.0780 C   0  0  0  0  0  2  0  0  0  0  0  0
  162.5970  214.4490  145.1080 C   0  0  0  0  0  2  0  0  0  0  0  0
  162.5660  214.1870  142.5790 C   0  0  0  0  0  0  0  0  0  0  0  0
  161.7840  214.0360  141.3950 N   0  0  0  0  0  2  0  0  0  0  0  0
  161.9050  214.2210  143.8460 N   0  0  0  0  0  2  0  0  0  0  0  0
  163.8240  214.2870  142.5060 O   0  0  0  0  0  0  0  0  0  0  0  0
  162.3430  214.1880  140.0620 C   0  0  0  0  0  2  0  0  0  0  0  0
  161.2530  214.0500  139.0510 C   0  0  0  0  0  3  0  0  0  0  0  0
  160.9580  212.9270  138.3900 C   0  0  0  0  0  3  0  0  0  0  0  0
  161.6130  211.6180  138.5530 C   0  0  0  0  0  0  0  0  0  0  0  0
  162.8970  211.3670  137.8530 C   0  0  0  0  0  1  0  0  0  0  0  0
  161.0940  210.6960  139.2380 O   0  0  0  0  0  0  0  0  0  0  0  0
  2  7  1  0  0  0  0
  3  1  1  6  0  0  0
  3  8  1  0  0  0  0
  3  2  1  0  0  0  0
  4  6  1  0  0  0  0
  6  5  1  1  0  0  0
  7  6  1  0  0  0  0
  7  9  1  1  0  0  0
  8  4  1  0  0  0  0
  9 10  1  0  0  0  0
 10 11  1  0  0  0  0
 11 12  1  0  0  0  0
 13  1  1  0  0  0  0
 14 15  1  0  0  0  0
 14 13  1  0  0  0  0
 16 15  1  0  0  0  0
 17 18  2  0  0  0  0
 18 19  1  0  0  0  0
 18 16  1  0  0  0  0
 20 19  1  0  0  0  0
 20 21  1  0  0  0  0
 21 23  1  0  0  0  0
 22 26  1  0  0  0  0
 23 25  1  0  0  0  0
 24 25  2  0  0  0  0
 25 22  1  0  0  0  0
 26 27  1  0  0  0  0
 28  1  1  0  0  0  0
 29 28  1  0  0  0  0
 30 31  1  0  0  0  0
 30 29  1  0  0  0  0
 31 32  2  0  0  0  0
 33 41  1  6  0  0  0
 33 31  1  0  0  0  0
 34 33  1  0  0  0  0
 35 39  2  0  0  0  0
 35 36  1  0  0  0  0
 36 38  2  0  0  0  0
 37 34  1  0  0  0  0
 37 40  2  0  0  0  0
 38 40  1  0  0  0  0
 39 37  1  0  0  0  0
 42 41  1  0  0  0  0
 43 45  1  0  0  0  0
 44 43  1  0  0  0  0
 45 42  1  0  0  0  0
 46 43  2  0  0  0  0
 47 44  1  0  0  0  0
 48 47  1  0  0  0  0
 49 50  1  0  0  0  0
 49 48  2  0  0  0  0
 50 52  2  0  0  0  0
 51 50  1  0  0  0  0
M  END
>  <MODEL>
7

>  <REMARK>
 VINA RESULT:      -4.3      2.386     10.394
  Name = 
  26 active torsions:
  status: ('A' for Active; 'I' for Inactive)
    1  A    between atoms: C_1  and  N_24
    2  A    between atoms: C_1  and  C_28
    3  A    between atoms: O_2  and  C_12
    4  A    between atoms: O_2  and  C_21
    5  A    between atoms: N_3  and  C_20
    6  A    between atoms: C_5  and  C_8
    7  A    between atoms: C_5  and  N_43
    8  A    between atoms: C_7  and  C_11
    9  A    between atoms: C_8  and  N_22
   10  A    between atoms: C_10  and  N_13
   11  A    between atoms: C_11  and  C_49
   12  A    between atoms: C_12  and  C_48
   13  A    between atoms: N_13  and  C_36
   14  A    between atoms: N_13  and  C_48
   15  A    between atoms: C_16  and  O_40
   16  A    between atoms: C_19  and  C_38
   17  A    between atoms: C_21  and  C_42
   18  A    between atoms: N_27  and  C_31
   19  A    between atoms: C_31  and  C_47
   20  A    between atoms: C_35  and  C_36
   21  A    between atoms: C_35  and  C_37
   22  A    between atoms: C_37  and  C_45
   23  A    between atoms: C_39  and  C_45
   24  A    between atoms: O_40  and  C_42
   25  A    between atoms: C_42  and  C_47
   26  A    between atoms: C_49  and  C_50
                            x       y       z     vdW  Elec       q    Type
                         _______ _______ _______ _____ _____    ______ ____

>  <TORSDO>
F 26

$$$$
=
 OpenBabel11042422163D

 52 53  0  0  1  0  0  0  0  0999 V2000
  160.9140  210.3770  153.7240 N   0  0  0  0  0  0  0  0  0  0  0  0
  159.4300  211.8910  154.9890 C   0  0  0  0  0  2  0  0  0  0  0  0
  160.5220  211.7900  153.8990 C   0  0  2  0  0  3  0  0  0  0  0  0
  158.6020  212.2140  152.3020 C   0  0  0  0  0  2  0  0  0  0  0  0
  157.3070  214.1230  152.9260 O   0  0  0  0  0  1  0  0  0  0  0  0
  157.7300  212.8720  153.3770 C   0  0  2  0  0  3  0  0  0  0  0  0
  158.4360  213.0290  154.7350 C   0  0  1  0  0  3  0  0  0  0  0  0
  160.0830  212.4510  152.5740 C   0  0  0  0  0  2  0  0  0  0  0  0
  157.3960  213.0670  155.8420 C   0  0  0  0  0  2  0  0  0  0  0  0
  156.8880  211.6660  156.1250 C   0  0  0  0  0  2  0  0  0  0  0  0
  155.9190  211.2190  155.0460 C   0  0  0  0  0  2  0  0  0  0  0  0
  155.0080  210.1200  155.5760 C   0  0  0  0  0  1  0  0  0  0  0  0
  161.1230  209.7000  155.0060 C   0  0  0  0  0  2  0  0  0  0  0  0
  160.5300  208.3080  154.9510 C   0  0  0  0  0  2  0  0  0  0  0  0
  161.5700  207.3380  154.4260 C   0  0  0  0  0  2  0  0  0  0  0  0
  160.9450  205.9600  154.2810 C   0  0  0  0  0  2  0  0  0  0  0  0
  162.3060  205.8580  152.3270 O   0  0  0  0  0  0  0  0  0  0  0  0
  161.4100  205.3060  153.0210 C   0  0  0  0  0  0  0  0  0  0  0  0
  160.8310  204.0650  152.6060 N   0  0  0  0  0  2  0  0  0  0  0  0
  161.2360  203.3860  151.3860 C   0  0  0  0  0  2  0  0  0  0  0  0
  160.8450  201.9180  151.4610 C   0  0  0  0  0  2  0  0  0  0  0  0
  161.3530  200.5890  147.9100 N   0  0  0  0  0  2  0  0  0  0  0  0
  161.3580  201.1960  150.3040 N   0  0  0  0  0  2  0  0  0  0  0  0
  160.0690  202.3570  148.7370 O   0  0  0  0  0  0  0  0  0  0  0  0
  160.8830  201.4210  148.9730 C   0  0  0  0  0  0  0  0  0  0  0  0
  160.8350  200.6840  146.5540 C   0  0  0  0  0  2  0  0  0  0  0  0
  161.1860  199.4260  145.7760 C   0  0  0  0  0  1  0  0  0  0  0  0
  159.8940  209.6500  152.9500 C   0  0  0  0  0  2  0  0  0  0  0  0
  160.4730  208.6240  151.9670 C   0  0  0  0  0  2  0  0  0  0  0  0
  161.5060  209.1990  151.1790 O   0  0  0  0  0  0  0  0  0  0  0  0
  162.1950  208.4770  150.2010 C   0  0  0  0  0  0  0  0  0  0  0  0
  162.9850  207.5490  150.5290 O   0  0  0  0  0  0  0  0  0  0  0  0
  162.0080  208.8380  148.7620 C   0  0  2  0  0  3  0  0  0  0  0  0
  162.7630  207.9800  147.9090 O   0  0  0  0  0  0  0  0  0  0  0  0
  160.6400  205.8310  145.7850 C   0  0  0  0  0  3  0  0  0  0  0  0
  161.1440  204.5610  146.0820 C   0  0  0  0  0  3  0  0  0  0  0  0
  162.2330  206.8300  147.3160 C   0  0  0  0  0  0  0  0  0  0  0  0
  162.1860  204.4220  146.9990 C   0  0  0  0  0  3  0  0  0  0  0  0
  161.1830  206.9610  146.4010 C   0  0  0  0  0  3  0  0  0  0  0  0
  162.7290  205.5520  147.6160 C   0  0  0  0  0  3  0  0  0  0  0  0
  162.4210  210.2830  148.5470 C   0  0  0  0  0  2  0  0  0  0  0  0
  161.2140  211.1980  148.3680 C   0  0  0  0  0  2  0  0  0  0  0  0
  160.6480  212.5010  146.2590 C   0  0  0  0  0  0  0  0  0  0  0  0
  161.0480  213.4920  145.3140 N   0  0  0  0  0  2  0  0  0  0  0  0
  161.4870  212.2400  147.3870 N   0  0  0  0  0  2  0  0  0  0  0  0
  159.5670  211.8660  146.1000 O   0  0  0  0  0  0  0  0  0  0  0  0
  160.3660  213.6850  144.0450 C   0  0  0  0  0  2  0  0  0  0  0  0
  159.9620  212.3570  143.4950 C   0  0  0  0  0  3  0  0  0  0  0  0
  160.5020  211.7770  142.4190 C   0  0  0  0  0  3  0  0  0  0  0  0
  161.6060  212.3060  141.6000 C   0  0  0  0  0  0  0  0  0  0  0  0
  161.4660  212.3080  140.1240 C   0  0  0  0  0  1  0  0  0  0  0  0
  162.6780  212.7190  142.1190 O   0  0  0  0  0  0  0  0  0  0  0  0
  1 13  1  0  0  0  0
  3  1  1  6  0  0  0
  3  2  1  0  0  0  0
  4  8  1  0  0  0  0
  4  6  1  0  0  0  0
  6  5  1  6  0  0  0
  6  7  1  0  0  0  0
  7  2  1  0  0  0  0
  7  9  1  1  0  0  0
  8  3  1  0  0  0  0
  9 10  1  0  0  0  0
 11 12  1  0  0  0  0
 11 10  1  0  0  0  0
 14 13  1  0  0  0  0
 15 14  1  0  0  0  0
 16 15  1  0  0  0  0
 17 18  2  0  0  0  0
 18 16  1  0  0  0  0
 19 18  1  0  0  0  0
 20 21  1  0  0  0  0
 20 19  1  0  0  0  0
 22 25  1  0  0  0  0
 23 21  1  0  0  0  0
 24 25  2  0  0  0  0
 25 23  1  0  0  0  0
 26 22  1  0  0  0  0
 27 26  1  0  0  0  0
 28  1  1  0  0  0  0
 29 28  1  0  0  0  0
 30 29  1  0  0  0  0
 31 32  2  0  0  0  0
 31 30  1  0  0  0  0
 33 41  1  1  0  0  0
 33 31  1  0  0  0  0
 34 33  1  0  0  0  0
 35 36  2  0  0  0  0
 35 39  1  0  0  0  0
 36 38  1  0  0  0  0
 37 40  1  0  0  0  0
 37 34  1  0  0  0  0
 38 40  2  0  0  0  0
 39 37  2  0  0  0  0
 42 41  1  0  0  0  0
 43 45  1  0  0  0  0
 44 43  1  0  0  0  0
 45 42  1  0  0  0  0
 46 43  2  0  0  0  0
 47 44  1  0  0  0  0
 48 47  1  0  0  0  0
 49 48  2  0  0  0  0
 50 52  2  0  0  0  0
 50 49  1  0  0  0  0
 51 50  1  0  0  0  0
M  END
>  <MODEL>
8

>  <REMARK>
 VINA RESULT:      -4.1      2.046      8.693
  Name = 
  26 active torsions:
  status: ('A' for Active; 'I' for Inactive)
    1  A    between atoms: C_1  and  N_24
    2  A    between atoms: C_1  and  C_28
    3  A    between atoms: O_2  and  C_12
    4  A    between atoms: O_2  and  C_21
    5  A    between atoms: N_3  and  C_20
    6  A    between atoms: C_5  and  C_8
    7  A    between atoms: C_5  and  N_43
    8  A    between atoms: C_7  and  C_11
    9  A    between atoms: C_8  and  N_22
   10  A    between atoms: C_10  and  N_13
   11  A    between atoms: C_11  and  C_49
   12  A    between atoms: C_12  and  C_48
   13  A    between atoms: N_13  and  C_36
   14  A    between atoms: N_13  and  C_48
   15  A    between atoms: C_16  and  O_40
   16  A    between atoms: C_19  and  C_38
   17  A    between atoms: C_21  and  C_42
   18  A    between atoms: N_27  and  C_31
   19  A    between atoms: C_31  and  C_47
   20  A    between atoms: C_35  and  C_36
   21  A    between atoms: C_35  and  C_37
   22  A    between atoms: C_37  and  C_45
   23  A    between atoms: C_39  and  C_45
   24  A    between atoms: O_40  and  C_42
   25  A    between atoms: C_42  and  C_47
   26  A    between atoms: C_49  and  C_50
                            x       y       z     vdW  Elec       q    Type
                         _______ _______ _______ _____ _____    ______ ____

>  <TORSDO>
F 26

$$$$
=
 OpenBabel11042422163D

 52 53  0  0  1  0  0  0  0  0999 V2000
  161.9690  213.1930  148.3710 N   0  0  0  0  0  0  0  0  0  0  0  0
  162.6870  213.4350  146.0220 C   0  0  0  0  0  2  0  0  0  0  0  0
  161.7760  212.6650  147.0060 C   0  0  2  0  0  3  0  0  0  0  0  0
  159.9210  214.0340  145.9550 C   0  0  0  0  0  2  0  0  0  0  0  0
  159.9500  213.9210  143.5680 O   0  0  0  0  0  1  0  0  0  0  0  0
  160.7160  214.2980  144.6710 C   0  0  2  0  0  3  0  0  0  0  0  0
  162.0730  213.5750  144.6240 C   0  0  1  0  0  3  0  0  0  0  0  0
  160.2950  212.6880  146.5660 C   0  0  0  0  0  2  0  0  0  0  0  0
  163.0210  214.3390  143.7150 C   0  0  0  0  0  2  0  0  0  0  0  0
  163.0960  213.6640  142.3590 C   0  0  0  0  0  2  0  0  0  0  0  0
  162.5380  212.2540  142.4300 C   0  0  0  0  0  2  0  0  0  0  0  0
  161.4950  212.0410  141.3420 C   0  0  0  0  0  1  0  0  0  0  0  0
  161.2540  214.4530  148.5820 C   0  0  0  0  0  2  0  0  0  0  0  0
  160.5890  214.4420  149.9420 C   0  0  0  0  0  2  0  0  0  0  0  0
  159.1410  214.0190  149.7910 C   0  0  0  0  0  2  0  0  0  0  0  0
  158.8190  212.9500  150.8230 C   0  0  0  0  0  2  0  0  0  0  0  0
  157.0860  214.4280  151.5260 O   0  0  0  0  0  0  0  0  0  0  0  0
  157.8520  213.4750  151.8330 C   0  0  0  0  0  0  0  0  0  0  0  0
  157.8070  212.9010  153.1430 N   0  0  0  0  0  2  0  0  0  0  0  0
  156.8950  213.3740  154.1700 C   0  0  0  0  0  2  0  0  0  0  0  0
  157.6380  213.5250  155.4880 C   0  0  0  0  0  2  0  0  0  0  0  0
  159.4990  210.3690  156.5910 N   0  0  0  0  0  2  0  0  0  0  0  0
  157.9520  212.2160  156.0470 N   0  0  0  0  0  2  0  0  0  0  0  0
  160.2700  212.4430  155.8400 O   0  0  0  0  0  0  0  0  0  0  0  0
  159.2860  211.7090  156.1390 C   0  0  0  0  0  0  0  0  0  0  0  0
  160.8140  209.7480  156.6060 C   0  0  0  0  0  2  0  0  0  0  0  0
  161.0800  209.0650  155.2740 C   0  0  0  0  0  1  0  0  0  0  0  0
  161.5270  212.2090  149.3730 C   0  0  0  0  0  2  0  0  0  0  0  0
  162.4720  211.0090  149.5270 C   0  0  0  0  0  2  0  0  0  0  0  0
  161.8250  209.7990  149.1570 O   0  0  0  0  0  0  0  0  0  0  0  0
  161.6200  208.7520  150.0580 C   0  0  0  0  0  0  0  0  0  0  0  0
  161.3320  208.9910  151.2630 O   0  0  0  0  0  0  0  0  0  0  0  0
  161.7780  207.3420  149.5840 C   0  0  2  0  0  3  0  0  0  0  0  0
  162.4060  206.5280  150.5720 O   0  0  0  0  0  0  0  0  0  0  0  0
  160.7690  203.2550  151.0650 C   0  0  0  0  0  3  0  0  0  0  0  0
  160.4910  203.2860  152.4340 C   0  0  0  0  0  3  0  0  0  0  0  0
  161.7640  205.4620  151.2080 C   0  0  0  0  0  0  0  0  0  0  0  0
  160.8420  204.4050  153.1920 C   0  0  0  0  0  3  0  0  0  0  0  0
  161.4030  204.3410  150.4550 C   0  0  0  0  0  3  0  0  0  0  0  0
  161.4750  205.4900  152.5810 C   0  0  0  0  0  3  0  0  0  0  0  0
  162.5910  207.3290  148.3020 C   0  0  0  0  0  2  0  0  0  0  0  0
  161.7380  207.6710  147.0850 C   0  0  0  0  0  2  0  0  0  0  0  0
  161.4900  205.1740  146.6710 C   0  0  0  0  0  0  0  0  0  0  0  0
  160.6980  204.1180  146.1310 N   0  0  0  0  0  2  0  0  0  0  0  0
  160.9820  206.5110  146.6330 N   0  0  0  0  0  2  0  0  0  0  0  0
  162.6210  204.9300  147.1790 O   0  0  0  0  0  0  0  0  0  0  0  0
  161.2100  202.7690  145.9480 C   0  0  0  0  0  2  0  0  0  0  0  0
  160.9350  201.9670  147.1770 C   0  0  0  0  0  3  0  0  0  0  0  0
  160.8740  200.6330  147.2240 C   0  0  0  0  0  3  0  0  0  0  0  0
  161.0980  199.7070  146.1010 C   0  0  0  0  0  0  0  0  0  0  0  0
  160.2930  199.8700  144.8660 C   0  0  0  0  0  1  0  0  0  0  0  0
  161.9270  198.7600  146.1770 O   0  0  0  0  0  0  0  0  0  0  0  0
  1 13  1  0  0  0  0
  1 28  1  0  0  0  0
  2  3  1  0  0  0  0
  3  1  1  1  0  0  0
  4  8  1  0  0  0  0
  6  5  1  6  0  0  0
  6  4  1  0  0  0  0
  7  9  1  6  0  0  0
  7  6  1  0  0  0  0
  7  2  1  0  0  0  0
  8  3  1  0  0  0  0
 10 11  1  0  0  0  0
 10  9  1  0  0  0  0
 12 11  1  0  0  0  0
 13 14  1  0  0  0  0
 15 14  1  0  0  0  0
 15 16  1  0  0  0  0
 16 18  1  0  0  0  0
 17 18  2  0  0  0  0
 18 19  1  0  0  0  0
 19 20  1  0  0  0  0
 20 21  1  0  0  0  0
 21 23  1  0  0  0  0
 22 26  1  0  0  0  0
 23 25  1  0  0  0  0
 24 25  2  0  0  0  0
 25 22  1  0  0  0  0
 27 26  1  0  0  0  0
 28 29  1  0  0  0  0
 30 29  1  0  0  0  0
 30 31  1  0  0  0  0
 31 32  2  0  0  0  0
 33 41  1  6  0  0  0
 33 31  1  0  0  0  0
 33 34  1  0  0  0  0
 34 37  1  0  0  0  0
 35 36  1  0  0  0  0
 36 38  2  0  0  0  0
 37 40  2  0  0  0  0
 39 35  2  0  0  0  0
 39 37  1  0  0  0  0
 40 38  1  0  0  0  0
 42 41  1  0  0  0  0
 43 46  2  0  0  0  0
 44 43  1  0  0  0  0
 45 43  1  0  0  0  0
 45 42  1  0  0  0  0
 47 44  1  0  0  0  0
 47 48  1  0  0  0  0
 48 49  2  0  0  0  0
 50 52  2  0  0  0  0
 50 49  1  0  0  0  0
 51 50  1  0  0  0  0
M  END
>  <MODEL>
9

>  <REMARK>
 VINA RESULT:      -4.0      2.528      8.825
  Name = 
  26 active torsions:
  status: ('A' for Active; 'I' for Inactive)
    1  A    between atoms: C_1  and  N_24
    2  A    between atoms: C_1  and  C_28
    3  A    between atoms: O_2  and  C_12
    4  A    between atoms: O_2  and  C_21
    5  A    between atoms: N_3  and  C_20
    6  A    between atoms: C_5  and  C_8
    7  A    between atoms: C_5  and  N_43
    8  A    between atoms: C_7  and  C_11
    9  A    between atoms: C_8  and  N_22
   10  A    between atoms: C_10  and  N_13
   11  A    between atoms: C_11  and  C_49
   12  A    between atoms: C_12  and  C_48
   13  A    between atoms: N_13  and  C_36
   14  A    between atoms: N_13  and  C_48
   15  A    between atoms: C_16  and  O_40
   16  A    between atoms: C_19  and  C_38
   17  A    between atoms: C_21  and  C_42
   18  A    between atoms: N_27  and  C_31
   19  A    between atoms: C_31  and  C_47
   20  A    between atoms: C_35  and  C_36
   21  A    between atoms: C_35  and  C_37
   22  A    between atoms: C_37  and  C_45
   23  A    between atoms: C_39  and  C_45
   24  A    between atoms: O_40  and  C_42
   25  A    between atoms: C_42  and  C_47
   26  A    between atoms: C_49  and  C_50
                            x       y       z     vdW  Elec       q    Type
                         _______ _______ _______ _____ _____    ______ ____

>  <TORSDO>
F 26

$$$$
