=
 OpenBabel11052409543D

 56 63  0  0  1  0  0  0  0  0999 V2000
  162.2400  210.6680  149.5720 C   0  0  0  0  0  0  0  0  0  0  0  0
  162.7040  210.6340  150.9990 C   0  0  0  0  0  2  0  0  0  0  0  0
  161.7890  209.5710  148.9420 C   0  0  0  0  0  3  0  0  0  0  0  0
  161.3440  208.7760  152.0170 C   0  0  1  0  0  3  0  0  0  0  0  0
  160.6980  208.2420  150.7470 C   0  0  0  0  0  2  0  0  0  0  0  0
  161.5590  210.2860  151.9420 C   0  0  0  0  0  2  0  0  0  0  0  0
  161.7050  208.2230  149.5960 C   0  0  1  0  0  3  0  0  0  0  0  0
  161.5130  204.8210  146.9170 O   0  0  0  0  0  0  0  0  0  0  0  0
  161.2630  204.9240  148.2930 C   0  0  2  0  0  3  0  0  0  0  0  0
  162.0450  205.9520  148.8400 O   0  0  0  0  0  0  0  0  0  0  0  0
  160.9060  206.9950  146.0390 C   0  0  0  0  0  2  0  0  0  0  0  0
  161.7370  207.6460  147.1530 C   0  0  0  0  0  2  0  0  0  0  0  0
  160.4810  205.5490  146.3150 C   0  0  0  0  0  2  0  0  0  0  0  0
  161.3700  207.1540  148.5580 C   0  0  2  0  0  3  0  0  0  0  0  0
  160.4810  203.2080  149.8580 C   0  0  2  0  0  3  0  0  0  0  0  0
  160.6660  202.6300  148.5920 O   0  0  0  0  0  0  0  0  0  0  0  0
  161.5980  203.6120  148.9780 C   0  0  1  0  0  3  0  0  0  0  0  0
  160.9870  202.2550  150.9210 C   0  0  0  0  0  2  0  0  0  0  0  0
  161.0240  202.9540  152.2670 C   0  0  0  0  0  2  0  0  0  0  0  0
  160.6600  204.4230  152.1120 C   0  0  0  0  0  2  0  0  0  0  0  0
  161.4260  205.2410  153.0380 N   0  0  0  0  0  2  0  0  0  0  0  0
  162.6150  205.6900  152.3360 C   0  0  0  0  0  1  0  0  0  0  0  0
  160.5120  208.4690  153.1270 O   0  0  0  0  0  0  0  0  0  0  0  0
  159.4920  210.2330  154.2410 N   0  0  0  0  0  0  0  0  0  0  0  0
  161.5210  211.4920  155.7070 O   0  0  0  0  0  0  0  0  0  0  0  0
  160.2830  211.3590  156.3540 C   0  0  2  0  0  3  0  0  0  0  0  0
  161.3070  209.1690  155.2970 O   0  0  0  0  0  0  0  0  0  0  0  0
  158.0220  210.6510  156.0100 O   0  0  0  0  0  1  0  0  0  0  0  0
  162.1610  210.2350  155.7200 C   0  0  2  0  0  3  0  0  0  0  0  0
  159.1490  211.1370  155.3460 C   0  0  2  0  0  3  0  0  0  0  0  0
  160.4170  209.3170  154.2290 C   0  0  0  0  0  0  0  0  0  0  0  0
  162.7800  209.9280  157.0750 C   0  0  0  0  0  1  0  0  0  0  0  0
  160.0190  212.5620  157.2610 C   0  0  0  0  0  2  0  0  0  0  0  0
  157.9000  213.7100  156.7220 F   0  0  0  0  0  0  0  0  0  0  0  0
  159.8180  214.4530  155.8580 O   0  0  0  0  0  0  0  0  0  0  0  0
  159.2470  213.6440  156.5700 C   0  0  0  0  0  0  0  0  0  0  0  0
  162.2770  211.9760  148.8490 C   0  0  0  0  0  2  0  0  0  0  0  0
  158.3140  213.1640  147.5460 C   0  0  2  0  0  3  0  0  0  0  0  0
  157.8030  211.8810  147.4660 F   0  0  0  0  0  0  0  0  0  0  0  0
  160.7490  212.9190  146.9340 C   0  0  0  0  0  0  0  0  0  0  0  0
  159.9710  213.0680  149.3230 C   0  0  0  0  0  0  0  0  0  0  0  0
  163.2040  212.6280  146.2390 C   0  0  0  0  0  1  0  0  0  0  0  0
  159.4430  213.3180  146.5610 C   0  0  0  0  0  0  0  0  0  0  0  0
  157.9300  214.1900  144.9250 F   0  0  0  0  0  0  0  0  0  0  0  0
  161.5170  213.5360  144.7030 C   0  0  0  0  0  3  0  0  0  0  0  0
  158.7870  213.4190  148.9090 N   0  0  0  0  0  0  0  0  0  0  0  0
  159.1860  213.8150  145.2770 C   0  0  0  0  0  0  0  0  0  0  0  0
  159.9840  214.4140  143.1120 F   0  0  0  0  0  0  0  0  0  0  0  0
  161.7930  213.0290  145.9760 C   0  0  0  0  0  0  0  0  0  0  0  0
  160.2250  213.9290  144.3540 C   0  0  0  0  0  0  0  0  0  0  0  0
  160.8890  212.3520  148.3410 C   0  0  2  0  0  3  0  0  0  0  0  0
  160.3160  213.3710  150.6460 O   0  0  0  0  0  0  0  0  0  0  0  0
  159.6610  212.8330  151.7830 C   0  0  2  0  0  3  0  0  0  0  0  0
  157.6320  213.4740  153.0220 C   0  0  0  0  0  2  0  0  0  0  0  0
  158.1680  213.0630  151.6650 C   0  0  1  0  0  3  0  0  0  0  0  0
  158.9920  213.9530  152.5550 C   0  0  2  0  0  3  0  0  0  0  0  0
  1  2  1  0  0  0  0
  2  6  1  0  0  0  0
  3  1  2  0  0  0  0
  4 23  1  1  0  0  0
  5  4  1  0  0  0  0
  6  4  1  0  0  0  0
  7  3  1  6  0  0  0
  7  5  1  0  0  0  0
  9  8  1  6  0  0  0
  9 10  1  0  0  0  0
  9 17  1  0  0  0  0
 11 13  1  0  0  0  0
 11 12  1  0  0  0  0
 13  8  1  0  0  0  0
 14 12  1  6  0  0  0
 14 10  1  0  0  0  0
 14  7  1  0  0  0  0
 15 18  1  1  0  0  0
 16 15  1  0  0  0  0
 17 16  1  6  0  0  0
 17 15  1  0  0  0  0
 18 19  1  0  0  0  0
 20 19  1  0  0  0  0
 20 21  1  0  0  0  0
 22 21  1  0  0  0  0
 23 31  1  0  0  0  0
 24 30  1  0  0  0  0
 25 29  1  0  0  0  0
 25 26  1  0  0  0  0
 26 33  1  6  0  0  0
 27 29  1  0  0  0  0
 29 32  1  1  0  0  0
 30 28  1  1  0  0  0
 30 26  1  0  0  0  0
 31 24  2  0  0  0  0
 31 27  1  0  0  0  0
 35 36  2  0  0  0  0
 36 34  1  0  0  0  0
 36 33  1  0  0  0  0
 37  1  1  0  0  0  0
 38 39  1  1  0  0  0
 38 46  1  0  0  0  0
 40 51  1  0  0  0  0
 41 52  1  0  0  0  0
 43 40  1  0  0  0  0
 43 38  1  0  0  0  0
 44 47  1  0  0  0  0
 45 49  1  0  0  0  0
 46 41  2  0  0  0  0
 47 43  2  0  0  0  0
 48 50  1  0  0  0  0
 49 42  1  0  0  0  0
 49 40  2  0  0  0  0
 50 45  2  0  0  0  0
 50 47  1  0  0  0  0
 51 37  1  1  0  0  0
 51 41  1  0  0  0  0
 53 52  1  6  0  0  0
 53 56  1  0  0  0  0
 55 53  1  0  0  0  0
 55 56  1  0  0  0  0
 55 54  1  1  0  0  0
 56 54  1  1  0  0  0
M  END
>  <MODEL>
1

>  <REMARK>
 VINA RESULT:      -5.3      0.000      0.000
  Name = 
  14 active torsions:
  status: ('A' for Active; 'I' for Inactive)
    1  A    between atoms: O_1  and  C_37
    2  A    between atoms: O_1  and  C_52
    3  A    between atoms: C_3  and  C_53
    4  A    between atoms: C_5  and  C_13
    5  A    between atoms: C_7  and  N_24
    6  A    between atoms: C_7  and  C_49
    7  A    between atoms: C_8  and  O_22
    8  A    between atoms: C_10  and  C_31
    9  A    between atoms: C_13  and  C_49
   10  A    between atoms: C_16  and  C_55
   11  A    between atoms: C_19  and  O_22
   12  A    between atoms: C_31  and  C_34
   13  A    between atoms: C_50  and  C_53
   14  A    between atoms: C_51  and  C_56
                            x       y       z     vdW  Elec       q    Type
                         _______ _______ _______ _____ _____    ______ ____

>  <TORSDO>
F 14

$$$$
=
 OpenBabel11052409543D

 56 63  0  0  1  0  0  0  0  0999 V2000
  160.2250  211.9630  152.5700 C   0  0  0  0  0  0  0  0  0  0  0  0
  159.8520  212.6160  151.2710 C   0  0  0  0  0  2  0  0  0  0  0  0
  160.6820  210.7020  152.6290 C   0  0  0  0  0  3  0  0  0  0  0  0
  161.3470  211.4860  149.5910 C   0  0  1  0  0  3  0  0  0  0  0  0
  161.9360  210.4110  150.4940 C   0  0  0  0  0  2  0  0  0  0  0  0
  161.0660  212.7720  150.3650 C   0  0  0  0  0  2  0  0  0  0  0  0
  160.8610  209.8350  151.4180 C   0  0  1  0  0  3  0  0  0  0  0  0
  160.9410  205.5940  152.3080 O   0  0  0  0  0  0  0  0  0  0  0  0
  161.0770  206.2820  151.0940 C   0  0  2  0  0  3  0  0  0  0  0  0
  160.3590  207.4850  151.1500 O   0  0  0  0  0  0  0  0  0  0  0  0
  161.8450  207.1190  153.9590 C   0  0  0  0  0  2  0  0  0  0  0  0
  160.9890  208.2390  153.3510 C   0  0  0  0  0  2  0  0  0  0  0  0
  162.0920  205.9240  153.0320 C   0  0  0  0  0  2  0  0  0  0  0  0
  161.1760  208.4000  151.8390 C   0  0  2  0  0  3  0  0  0  0  0  0
  161.6470  205.1130  149.0170 C   0  0  2  0  0  3  0  0  0  0  0  0
  161.1990  204.1800  149.9650 O   0  0  0  0  0  0  0  0  0  0  0  0
  160.5500  205.4280  149.9560 C   0  0  1  0  0  3  0  0  0  0  0  0
  161.0730  204.7600  147.6600 C   0  0  0  0  0  2  0  0  0  0  0  0
  161.1240  203.2570  147.4530 C   0  0  0  0  0  2  0  0  0  0  0  0
  161.3220  202.9310  145.9800 C   0  0  0  0  0  2  0  0  0  0  0  0
  160.6670  201.6790  145.6410 N   0  0  0  0  0  2  0  0  0  0  0  0
  161.2090  200.6570  146.5190 C   0  0  0  0  0  1  0  0  0  0  0  0
  162.2570  211.7560  148.5350 O   0  0  0  0  0  0  0  0  0  0  0  0
  162.6570  212.9460  146.5810 N   0  0  0  0  0  0  0  0  0  0  0  0
  160.2120  214.1220  145.8850 O   0  0  0  0  0  0  0  0  0  0  0  0
  160.9690  213.6000  144.8260 C   0  0  2  0  0  3  0  0  0  0  0  0
  160.5250  211.9920  146.8700 O   0  0  0  0  0  0  0  0  0  0  0  0
  163.0860  212.6070  144.3090 O   0  0  0  0  0  1  0  0  0  0  0  0
  159.6080  213.0450  146.5670 C   0  0  2  0  0  3  0  0  0  0  0  0
  162.4440  213.4480  145.2190 C   0  0  2  0  0  3  0  0  0  0  0  0
  161.8280  212.2510  147.3050 C   0  0  0  0  0  0  0  0  0  0  0  0
  158.3950  212.5100  145.8200 C   0  0  0  0  0  1  0  0  0  0  0  0
  160.7940  214.4530  143.5680 C   0  0  0  0  0  2  0  0  0  0  0  0
  158.8550  213.2510  142.6210 F   0  0  0  0  0  0  0  0  0  0  0  0
  160.7160  213.4880  141.4130 O   0  0  0  0  0  0  0  0  0  0  0  0
  160.1230  213.7060  142.4570 C   0  0  0  0  0  0  0  0  0  0  0  0
  160.0900  212.7620  153.8260 C   0  0  0  0  0  2  0  0  0  0  0  0
  156.7370  211.5010  156.2720 C   0  0  2  0  0  3  0  0  0  0  0  0
  156.6340  210.2340  155.7260 F   0  0  0  0  0  0  0  0  0  0  0  0
  157.5270  212.9530  154.3680 C   0  0  0  0  0  0  0  0  0  0  0  0
  159.0980  212.0590  156.1190 C   0  0  0  0  0  0  0  0  0  0  0  0
  158.2690  214.4020  152.3810 C   0  0  0  0  0  1  0  0  0  0  0  0
  156.4690  212.5310  155.2060 C   0  0  0  0  0  0  0  0  0  0  0  0
  154.1610  212.6160  155.8330 F   0  0  0  0  0  0  0  0  0  0  0  0
  155.9480  214.3850  153.1850 C   0  0  0  0  0  3  0  0  0  0  0  0
  158.0770  211.6850  156.8350 N   0  0  0  0  0  0  0  0  0  0  0  0
  155.1720  213.0310  155.0290 C   0  0  0  0  0  0  0  0  0  0  0  0
  153.6660  214.4530  153.8490 F   0  0  0  0  0  0  0  0  0  0  0  0
  157.2460  213.8920  153.3380 C   0  0  0  0  0  0  0  0  0  0  0  0
  154.9170  213.9620  154.0220 C   0  0  0  0  0  0  0  0  0  0  0  0
  158.8800  212.3010  154.6310 C   0  0  2  0  0  3  0  0  0  0  0  0
  160.3300  212.2090  156.7690 O   0  0  0  0  0  0  0  0  0  0  0  0
  161.1070  211.1300  157.2610 C   0  0  2  0  0  3  0  0  0  0  0  0
  162.7290  209.6020  156.2120 C   0  0  0  0  0  2  0  0  0  0  0  0
  162.4150  211.0580  156.5000 C   0  0  1  0  0  3  0  0  0  0  0  0
  161.3010  210.1060  156.1590 C   0  0  2  0  0  3  0  0  0  0  0  0
  1  3  2  0  0  0  0
  1 37  1  0  0  0  0
  2  1  1  0  0  0  0
  4 23  1  6  0  0  0
  4  6  1  0  0  0  0
  4  5  1  0  0  0  0
  6  2  1  0  0  0  0
  7  5  1  6  0  0  0
  7 14  1  0  0  0  0
  7  3  1  0  0  0  0
  8 13  1  0  0  0  0
  9 10  1  1  0  0  0
  9  8  1  0  0  0  0
 10 14  1  0  0  0  0
 12 11  1  0  0  0  0
 13 11  1  0  0  0  0
 14 12  1  1  0  0  0
 15 18  1  6  0  0  0
 15 17  1  0  0  0  0
 15 16  1  0  0  0  0
 17 16  1  1  0  0  0
 17  9  1  0  0  0  0
 19 18  1  0  0  0  0
 20 19  1  0  0  0  0
 21 20  1  0  0  0  0
 21 22  1  0  0  0  0
 24 31  2  0  0  0  0
 25 29  1  0  0  0  0
 26 33  1  6  0  0  0
 26 30  1  0  0  0  0
 26 25  1  0  0  0  0
 27 31  1  0  0  0  0
 29 32  1  6  0  0  0
 29 27  1  0  0  0  0
 30 28  1  6  0  0  0
 30 24  1  0  0  0  0
 31 23  1  0  0  0  0
 35 36  2  0  0  0  0
 36 34  1  0  0  0  0
 36 33  1  0  0  0  0
 38 39  1  6  0  0  0
 38 46  1  0  0  0  0
 40 51  1  0  0  0  0
 40 43  1  0  0  0  0
 41 52  1  0  0  0  0
 41 46  2  0  0  0  0
 42 49  1  0  0  0  0
 43 38  1  0  0  0  0
 45 49  1  0  0  0  0
 45 50  2  0  0  0  0
 47 43  2  0  0  0  0
 47 44  1  0  0  0  0
 48 50  1  0  0  0  0
 49 40  2  0  0  0  0
 50 47  1  0  0  0  0
 51 37  1  1  0  0  0
 51 41  1  0  0  0  0
 53 52  1  6  0  0  0
 55 54  1  1  0  0  0
 55 53  1  0  0  0  0
 56 54  1  1  0  0  0
 56 55  1  0  0  0  0
 56 53  1  0  0  0  0
M  END
>  <MODEL>
2

>  <REMARK>
 VINA RESULT:      -4.4      2.927      8.250
  Name = 
  14 active torsions:
  status: ('A' for Active; 'I' for Inactive)
    1  A    between atoms: O_1  and  C_37
    2  A    between atoms: O_1  and  C_52
    3  A    between atoms: C_3  and  C_53
    4  A    between atoms: C_5  and  C_13
    5  A    between atoms: C_7  and  N_24
    6  A    between atoms: C_7  and  C_49
    7  A    between atoms: C_8  and  O_22
    8  A    between atoms: C_10  and  C_31
    9  A    between atoms: C_13  and  C_49
   10  A    between atoms: C_16  and  C_55
   11  A    between atoms: C_19  and  O_22
   12  A    between atoms: C_31  and  C_34
   13  A    between atoms: C_50  and  C_53
   14  A    between atoms: C_51  and  C_56
                            x       y       z     vdW  Elec       q    Type
                         _______ _______ _______ _____ _____    ______ ____

>  <TORSDO>
F 14

$$$$
=
 OpenBabel11052409543D

 56 63  0  0  1  0  0  0  0  0999 V2000
  161.6210  210.1890  150.8890 C   0  0  0  0  0  0  0  0  0  0  0  0
  160.3060  210.1420  151.6120 C   0  0  0  0  0  2  0  0  0  0  0  0
  161.8470  211.0390  149.8750 C   0  0  0  0  0  3  0  0  0  0  0  0
  159.4380  212.4960  151.4120 C   0  0  1  0  0  3  0  0  0  0  0  0
  160.4830  213.0460  150.4520 C   0  0  0  0  0  2  0  0  0  0  0  0
  160.0360  211.4480  152.3480 C   0  0  0  0  0  2  0  0  0  0  0  0
  160.8210  212.0140  149.3740 C   0  0  1  0  0  3  0  0  0  0  0  0
  161.9570  213.1110  145.3380 O   0  0  0  0  0  0  0  0  0  0  0  0
  160.6970  213.0220  145.9480 C   0  0  2  0  0  3  0  0  0  0  0  0
  160.7290  212.0510  146.9590 O   0  0  0  0  0  0  0  0  0  0  0  0
  163.4480  213.7250  147.1450 C   0  0  0  0  0  2  0  0  0  0  0  0
  162.8340  212.6040  147.9950 C   0  0  0  0  0  2  0  0  0  0  0  0
  162.5800  214.1910  145.9710 C   0  0  0  0  0  2  0  0  0  0  0  0
  161.3050  212.6710  148.0830 C   0  0  2  0  0  3  0  0  0  0  0  0
  160.0460  213.1660  143.5890 C   0  0  2  0  0  3  0  0  0  0  0  0
  160.2310  211.8180  143.9370 O   0  0  0  0  0  0  0  0  0  0  0  0
  159.6500  212.6460  144.9150 C   0  0  1  0  0  3  0  0  0  0  0  0
  158.8240  213.2890  142.7030 C   0  0  0  0  0  2  0  0  0  0  0  0
  159.1570  212.8250  141.2970 C   0  0  0  0  0  2  0  0  0  0  0  0
  159.9210  213.9070  140.5490 C   0  0  0  0  0  2  0  0  0  0  0  0
  160.8520  213.3150  139.6020 N   0  0  0  0  0  2  0  0  0  0  0  0
  160.1650  212.2110  138.9550 C   0  0  0  0  0  1  0  0  0  0  0  0
  158.9010  213.5650  152.1770 O   0  0  0  0  0  0  0  0  0  0  0  0
  157.0630  213.1830  153.5440 N   0  0  0  0  0  0  0  0  0  0  0  0
  157.6360  214.4530  155.9750 O   0  0  0  0  0  0  0  0  0  0  0  0
  157.0120  213.2010  156.0650 C   0  0  2  0  0  3  0  0  0  0  0  0
  159.1780  213.3380  154.5650 O   0  0  0  0  0  0  0  0  0  0  0  0
  156.0210  211.4680  154.7430 O   0  0  0  0  0  1  0  0  0  0  0  0
  158.9940  214.2460  155.6530 C   0  0  2  0  0  3  0  0  0  0  0  0
  156.3070  212.8340  154.7530 C   0  0  2  0  0  3  0  0  0  0  0  0
  158.3490  213.3580  153.4400 C   0  0  0  0  0  0  0  0  0  0  0  0
  159.8030  213.8100  156.8660 C   0  0  0  0  0  1  0  0  0  0  0  0
  156.0580  213.1610  157.2610 C   0  0  0  0  0  2  0  0  0  0  0  0
  153.6690  212.5390  157.1860 F   0  0  0  0  0  0  0  0  0  0  0  0
  154.3510  214.4530  156.2630 O   0  0  0  0  0  0  0  0  0  0  0  0
  154.6390  213.4370  156.8730 C   0  0  0  0  0  0  0  0  0  0  0  0
  162.7050  209.2600  151.3340 C   0  0  0  0  0  2  0  0  0  0  0  0
  161.1260  205.2280  151.5740 C   0  0  2  0  0  3  0  0  0  0  0  0
  162.3120  204.6360  151.9670 F   0  0  0  0  0  0  0  0  0  0  0  0
  161.8290  207.1290  150.0740 C   0  0  0  0  0  0  0  0  0  0  0  0
  161.2140  207.4780  152.4890 C   0  0  0  0  0  0  0  0  0  0  0  0
  162.5920  209.0110  148.5010 C   0  0  0  0  0  1  0  0  0  0  0  0
  161.2930  205.8260  150.2010 C   0  0  0  0  0  0  0  0  0  0  0  0
  160.4480  203.8250  149.1980 F   0  0  0  0  0  0  0  0  0  0  0  0
  161.6700  206.9000  147.6520 C   0  0  0  0  0  3  0  0  0  0  0  0
  160.7490  206.2620  152.5400 N   0  0  0  0  0  0  0  0  0  0  0  0
  160.9550  205.0770  149.0670 C   0  0  0  0  0  0  0  0  0  0  0  0
  160.8090  204.9010  146.6940 F   0  0  0  0  0  0  0  0  0  0  0  0
  162.0220  207.6600  148.7690 C   0  0  0  0  0  0  0  0  0  0  0  0
  161.1380  205.6190  147.7950 C   0  0  0  0  0  0  0  0  0  0  0  0
  162.1990  207.8230  151.3800 C   0  0  2  0  0  3  0  0  0  0  0  0
  160.7770  208.3840  153.4640 O   0  0  0  0  0  0  0  0  0  0  0  0
  161.2970  208.4480  154.7820 C   0  0  2  0  0  3  0  0  0  0  0  0
  161.1800  210.1450  156.5620 C   0  0  0  0  0  2  0  0  0  0  0  0
  160.3560  209.2460  155.6610 C   0  0  1  0  0  3  0  0  0  0  0  0
  161.6080  209.8900  155.1310 C   0  0  2  0  0  3  0  0  0  0  0  0
  1 37  1  0  0  0  0
  1  2  1  0  0  0  0
  2  6  1  0  0  0  0
  3  1  2  0  0  0  0
  4 23  1  1  0  0  0
  4  6  1  0  0  0  0
  5  4  1  0  0  0  0
  7  3  1  1  0  0  0
  7  5  1  0  0  0  0
  8 13  1  0  0  0  0
  9  8  1  6  0  0  0
  9 10  1  0  0  0  0
 10 14  1  0  0  0  0
 11 12  1  0  0  0  0
 13 11  1  0  0  0  0
 14 12  1  6  0  0  0
 14  7  1  0  0  0  0
 15 18  1  6  0  0  0
 15 16  1  0  0  0  0
 15 17  1  0  0  0  0
 17 16  1  6  0  0  0
 17  9  1  0  0  0  0
 19 18  1  0  0  0  0
 20 19  1  0  0  0  0
 21 20  1  0  0  0  0
 22 21  1  0  0  0  0
 23 31  1  0  0  0  0
 24 30  1  0  0  0  0
 25 26  1  0  0  0  0
 26 33  1  1  0  0  0
 27 29  1  0  0  0  0
 29 25  1  0  0  0  0
 29 32  1  1  0  0  0
 30 28  1  1  0  0  0
 30 26  1  0  0  0  0
 31 24  2  0  0  0  0
 31 27  1  0  0  0  0
 35 36  2  0  0  0  0
 36 34  1  0  0  0  0
 36 33  1  0  0  0  0
 38 39  1  1  0  0  0
 38 46  1  0  0  0  0
 40 43  1  0  0  0  0
 40 51  1  0  0  0  0
 41 46  2  0  0  0  0
 41 52  1  0  0  0  0
 42 49  1  0  0  0  0
 43 38  1  0  0  0  0
 45 50  2  0  0  0  0
 45 49  1  0  0  0  0
 47 44  1  0  0  0  0
 47 43  2  0  0  0  0
 48 50  1  0  0  0  0
 49 40  2  0  0  0  0
 50 47  1  0  0  0  0
 51 37  1  6  0  0  0
 51 41  1  0  0  0  0
 53 52  1  6  0  0  0
 53 56  1  0  0  0  0
 53 55  1  0  0  0  0
 55 54  1  1  0  0  0
 56 55  1  0  0  0  0
 56 54  1  1  0  0  0
M  END
>  <MODEL>
3

>  <REMARK>
 VINA RESULT:      -4.1      3.394      7.707
  Name = 
  14 active torsions:
  status: ('A' for Active; 'I' for Inactive)
    1  A    between atoms: O_1  and  C_37
    2  A    between atoms: O_1  and  C_52
    3  A    between atoms: C_3  and  C_53
    4  A    between atoms: C_5  and  C_13
    5  A    between atoms: C_7  and  N_24
    6  A    between atoms: C_7  and  C_49
    7  A    between atoms: C_8  and  O_22
    8  A    between atoms: C_10  and  C_31
    9  A    between atoms: C_13  and  C_49
   10  A    between atoms: C_16  and  C_55
   11  A    between atoms: C_19  and  O_22
   12  A    between atoms: C_31  and  C_34
   13  A    between atoms: C_50  and  C_53
   14  A    between atoms: C_51  and  C_56
                            x       y       z     vdW  Elec       q    Type
                         _______ _______ _______ _____ _____    ______ ____

>  <TORSDO>
F 14

$$$$
=
 OpenBabel11052409543D

 56 63  0  0  1  0  0  0  0  0999 V2000
  161.6880  210.0350  150.9030 C   0  0  0  0  0  0  0  0  0  0  0  0
  160.3560  210.0060  151.5930 C   0  0  0  0  0  2  0  0  0  0  0  0
  161.9550  210.8910  149.9020 C   0  0  0  0  0  3  0  0  0  0  0  0
  159.5350  212.3770  151.3930 C   0  0  1  0  0  3  0  0  0  0  0  0
  160.6120  212.9160  150.4640 C   0  0  0  0  0  2  0  0  0  0  0  0
  160.0910  211.3100  152.3340 C   0  0  0  0  0  2  0  0  0  0  0  0
  160.9590  211.8870  149.3860 C   0  0  1  0  0  3  0  0  0  0  0  0
  162.0360  213.0940  145.3650 O   0  0  0  0  0  0  0  0  0  0  0  0
  160.8280  213.2110  146.0680 C   0  0  2  0  0  3  0  0  0  0  0  0
  160.7200  212.1650  146.9960 O   0  0  0  0  0  0  0  0  0  0  0  0
  163.7380  213.2190  147.0830 C   0  0  0  0  0  2  0  0  0  0  0  0
  162.9560  212.1760  147.8940 C   0  0  0  0  0  2  0  0  0  0  0  0
  162.9140  213.9600  146.0250 C   0  0  0  0  0  2  0  0  0  0  0  0
  161.4860  212.5470  148.1120 C   0  0  2  0  0  3  0  0  0  0  0  0
  158.7530  214.2970  145.3460 C   0  0  2  0  0  3  0  0  0  0  0  0
  159.6720  214.3020  144.2840 O   0  0  0  0  0  0  0  0  0  0  0  0
  159.6600  213.1550  145.1010 C   0  0  1  0  0  3  0  0  0  0  0  0
  157.3730  213.9770  144.8100 C   0  0  0  0  0  2  0  0  0  0  0  0
  156.4460  213.6140  145.9550 C   0  0  0  0  0  2  0  0  0  0  0  0
  156.9770  214.1750  147.2650 C   0  0  0  0  0  2  0  0  0  0  0  0
  157.0200  213.1390  148.2840 N   0  0  0  0  0  2  0  0  0  0  0  0
  156.6080  213.7490  149.5370 C   0  0  0  0  0  1  0  0  0  0  0  0
  158.9980  213.4490  152.1550 O   0  0  0  0  0  0  0  0  0  0  0  0
  157.1550  213.1340  153.5320 N   0  0  0  0  0  0  0  0  0  0  0  0
  157.8110  214.3290  155.9790 O   0  0  0  0  0  0  0  0  0  0  0  0
  157.1250  213.1070  156.0530 C   0  0  2  0  0  3  0  0  0  0  0  0
  159.2840  213.1640  154.5360 O   0  0  0  0  0  0  0  0  0  0  0  0
  156.0380  211.4510  154.7090 O   0  0  0  0  0  1  0  0  0  0  0  0
  159.1540  214.0600  155.6420 C   0  0  2  0  0  3  0  0  0  0  0  0
  156.3920  212.8010  154.7410 C   0  0  2  0  0  3  0  0  0  0  0  0
  158.4470  213.2470  153.4190 C   0  0  0  0  0  0  0  0  0  0  0  0
  159.9500  213.5620  156.8390 C   0  0  0  0  0  1  0  0  0  0  0  0
  156.1810  213.0930  157.2570 C   0  0  0  0  0  2  0  0  0  0  0  0
  154.0060  212.2070  156.4920 F   0  0  0  0  0  0  0  0  0  0  0  0
  154.2490  214.3950  156.8610 O   0  0  0  0  0  0  0  0  0  0  0  0
  154.7480  213.2810  156.8650 C   0  0  0  0  0  0  0  0  0  0  0  0
  162.7440  209.0840  151.3650 C   0  0  0  0  0  2  0  0  0  0  0  0
  161.0810  205.0840  151.5720 C   0  0  2  0  0  3  0  0  0  0  0  0
  162.2570  204.4630  151.9510 F   0  0  0  0  0  0  0  0  0  0  0  0
  161.8140  206.9870  150.0880 C   0  0  0  0  0  0  0  0  0  0  0  0
  161.2230  207.3210  152.5120 C   0  0  0  0  0  0  0  0  0  0  0  0
  162.6080  208.8690  148.5310 C   0  0  0  0  0  1  0  0  0  0  0  0
  161.2520  205.6930  150.2060 C   0  0  0  0  0  0  0  0  0  0  0  0
  160.3570  203.7220  149.1860 F   0  0  0  0  0  0  0  0  0  0  0  0
  161.6350  206.7870  147.6650 C   0  0  0  0  0  3  0  0  0  0  0  0
  160.7330  206.1160  152.5530 N   0  0  0  0  0  0  0  0  0  0  0  0
  160.8900  204.9640  149.0660 C   0  0  0  0  0  0  0  0  0  0  0  0
  160.7250  204.8170  146.6920 F   0  0  0  0  0  0  0  0  0  0  0  0
  162.0100  207.5270  148.7890 C   0  0  0  0  0  0  0  0  0  0  0  0
  161.0770  205.5160  147.7980 C   0  0  0  0  0  0  0  0  0  0  0  0
  162.2080  207.6570  151.3990 C   0  0  2  0  0  3  0  0  0  0  0  0
  160.8130  208.2260  153.5000 O   0  0  0  0  0  0  0  0  0  0  0  0
  161.1480  208.1120  154.8730 C   0  0  2  0  0  3  0  0  0  0  0  0
  160.4000  209.2990  156.8960 C   0  0  0  0  0  2  0  0  0  0  0  0
  159.9410  208.4590  155.7200 C   0  0  1  0  0  3  0  0  0  0  0  0
  161.0370  209.4720  155.5330 C   0  0  2  0  0  3  0  0  0  0  0  0
  1 37  1  0  0  0  0
  1  2  1  0  0  0  0
  2  6  1  0  0  0  0
  3  1  2  0  0  0  0
  4 23  1  1  0  0  0
  4  6  1  0  0  0  0
  5  4  1  0  0  0  0
  7  3  1  1  0  0  0
  7  5  1  0  0  0  0
  8 13  1  0  0  0  0
  9  8  1  6  0  0  0
  9 10  1  0  0  0  0
 10 14  1  0  0  0  0
 11 12  1  0  0  0  0
 13 11  1  0  0  0  0
 14 12  1  6  0  0  0
 14  7  1  0  0  0  0
 15 18  1  6  0  0  0
 16 15  1  0  0  0  0
 17 16  1  6  0  0  0
 17 15  1  0  0  0  0
 17  9  1  0  0  0  0
 18 19  1  0  0  0  0
 19 20  1  0  0  0  0
 20 21  1  0  0  0  0
 21 22  1  0  0  0  0
 23 31  1  0  0  0  0
 24 30  1  0  0  0  0
 25 26  1  0  0  0  0
 26 33  1  1  0  0  0
 27 29  1  0  0  0  0
 29 25  1  0  0  0  0
 29 32  1  1  0  0  0
 30 28  1  6  0  0  0
 30 26  1  0  0  0  0
 31 24  2  0  0  0  0
 31 27  1  0  0  0  0
 34 36  1  0  0  0  0
 35 36  2  0  0  0  0
 36 33  1  0  0  0  0
 38 39  1  1  0  0  0
 38 46  1  0  0  0  0
 40 43  1  0  0  0  0
 40 51  1  0  0  0  0
 41 46  2  0  0  0  0
 41 52  1  0  0  0  0
 42 49  1  0  0  0  0
 43 38  1  0  0  0  0
 45 50  2  0  0  0  0
 45 49  1  0  0  0  0
 47 44  1  0  0  0  0
 47 43  2  0  0  0  0
 48 50  1  0  0  0  0
 49 40  2  0  0  0  0
 50 47  1  0  0  0  0
 51 37  1  6  0  0  0
 51 41  1  0  0  0  0
 53 52  1  6  0  0  0
 53 56  1  0  0  0  0
 53 55  1  0  0  0  0
 55 54  1  1  0  0  0
 56 55  1  0  0  0  0
 56 54  1  1  0  0  0
M  END
>  <MODEL>
4

>  <REMARK>
 VINA RESULT:      -3.9      3.142      7.318
  Name = 
  14 active torsions:
  status: ('A' for Active; 'I' for Inactive)
    1  A    between atoms: O_1  and  C_37
    2  A    between atoms: O_1  and  C_52
    3  A    between atoms: C_3  and  C_53
    4  A    between atoms: C_5  and  C_13
    5  A    between atoms: C_7  and  N_24
    6  A    between atoms: C_7  and  C_49
    7  A    between atoms: C_8  and  O_22
    8  A    between atoms: C_10  and  C_31
    9  A    between atoms: C_13  and  C_49
   10  A    between atoms: C_16  and  C_55
   11  A    between atoms: C_19  and  O_22
   12  A    between atoms: C_31  and  C_34
   13  A    between atoms: C_50  and  C_53
   14  A    between atoms: C_51  and  C_56
                            x       y       z     vdW  Elec       q    Type
                         _______ _______ _______ _____ _____    ______ ____

>  <TORSDO>
F 14

$$$$
