=
 OpenBabel11042421443D

 51 54  0  0  1  0  0  0  0  0999 V2000
  161.1770  206.8760  151.3610 C   0  0  0  0  0  0  0  0  0  0  0  0
  160.7340  206.1380  149.2250 C   0  0  0  0  0  3  0  0  0  0  0  0
  160.8520  207.4070  150.0070 C   0  0  2  0  0  3  0  0  0  0  0  0
  160.9610  205.0940  150.0170 C   0  0  0  0  0  0  0  0  0  0  0  0
  161.2370  205.5530  151.3720 C   0  0  0  0  0  3  0  0  0  0  0  0
  160.1030  207.2720  156.6260 O   0  0  0  0  0  0  0  0  0  0  0  0
  161.3670  207.7150  152.5080 N   0  0  0  0  0  2  0  0  0  0  0  0
  161.1960  208.3840  154.8760 N   0  0  0  0  0  2  0  0  0  0  0  0
  160.8920  207.4500  153.8330 C   0  0  0  0  0  0  0  0  0  0  0  0
  160.2170  206.4140  154.0810 O   0  0  0  0  0  0  0  0  0  0  0  0
  160.7950  208.2540  156.2440 C   0  0  0  0  0  0  0  0  0  0  0  0
  161.2060  209.3080  157.2200 C   0  0  0  0  0  3  0  0  0  0  0  0
  162.7170  209.4730  157.2460 C   0  0  0  0  0  2  0  0  0  0  0  0
  161.6690  211.6640  157.2610 C   0  0  0  0  0  2  0  0  0  0  0  0
  160.6260  210.6560  156.8460 C   0  0  0  0  0  2  0  0  0  0  0  0
  162.9990  210.9580  157.1030 C   0  0  0  0  0  2  0  0  0  0  0  0
  160.7620  200.9630  148.8410 C   0  0  0  0  0  3  0  0  0  0  0  0
  161.5730  203.2170  148.4140 C   0  0  0  0  0  0  0  0  0  0  0  0
  160.9010  203.6770  149.5720 C   0  0  0  0  0  0  0  0  0  0  0  0
  160.0920  201.4140  149.9750 C   0  0  0  0  0  3  0  0  0  0  0  0
  160.1620  202.7590  150.3370 C   0  0  0  0  0  3  0  0  0  0  0  0
  161.4970  201.8580  148.0650 C   0  0  0  0  0  3  0  0  0  0  0  0
  162.2970  204.1130  147.6140 O   0  0  0  0  0  0  0  0  0  0  0  0
  163.0810  203.7110  146.4960 C   0  0  0  0  0  2  0  0  0  0  0  0
  161.3430  204.8410  145.1780 C   0  0  0  0  0  3  0  0  0  0  0  0
  162.3340  203.9500  145.2230 C   0  0  0  0  0  3  0  0  0  0  0  0
  160.5920  205.0900  143.9120 C   0  0  0  0  0  2  0  0  0  0  0  0
  161.4540  205.8550  142.9240 C   0  0  0  0  0  1  0  0  0  0  0  0
  162.0080  208.2460  149.4820 C   0  0  0  0  0  2  0  0  0  0  0  0
  161.8550  209.6870  149.9310 C   0  0  0  0  0  2  0  0  0  0  0  0
  161.0550  212.3900  149.7080 O   0  0  0  0  0  0  0  0  0  0  0  0
  161.8090  211.9380  148.8050 C   0  0  0  0  0  0  0  0  0  0  0  0
  162.2410  210.5760  148.8480 N   0  0  0  0  0  2  0  0  0  0  0  0
  162.2420  212.8090  147.7030 C   0  0  0  0  0  0  0  0  0  0  0  0
  163.4660  213.0850  147.5680 O   0  0  0  0  0  0  0  0  0  0  0  0
  161.2320  213.3640  146.7480 C   0  0  0  0  0  2  0  0  0  0  0  0
  160.9260  212.4410  145.7430 O   0  0  0  0  0  0  0  0  0  0  0  0
  161.2210  213.0790  144.5840 N   0  0  0  0  0  2  0  0  0  0  0  0
  159.2710  212.3610  143.5240 O   0  0  0  0  0  0  0  0  0  0  0  0
  160.3290  213.0430  143.4700 C   0  0  0  0  0  0  0  0  0  0  0  0
  160.6580  213.8090  142.2280 C   0  0  0  0  0  2  0  0  0  0  0  0
  162.1700  211.9660  141.9750 O   0  0  0  0  0  1  0  0  0  0  0  0
  161.6510  213.0810  141.3100 C   0  0  1  0  0  0  0  0  0  0  0  0
  159.0590  212.9690  138.4220 C   0  0  0  0  0  2  0  0  0  0  0  0
  158.6860  211.6040  138.6140 O   0  0  0  0  0  0  0  0  0  0  0  0
  160.9200  212.6160  140.0320 C   0  0  2  0  0  3  0  0  0  0  0  0
  159.4430  210.7290  139.4040 C   0  0  0  0  0  3  0  0  0  0  0  0
  159.7290  213.5150  139.6800 C   0  0  0  0  0  2  0  0  0  0  0  0
  160.4890  211.1720  140.1070 C   0  0  0  0  0  3  0  0  0  0  0  0
  163.6280  213.4550  139.9690 O   0  0  0  0  0  1  0  0  0  0  0  0
  162.8090  214.0200  140.9510 C   0  0  0  0  0  2  0  0  0  0  0  0
  1  5  2  0  0  0  0
  1  7  1  0  0  0  0
  2  3  1  0  0  0  0
  2  4  2  0  0  0  0
  3 29  1  6  0  0  0
  3  1  1  0  0  0  0
  4  5  1  0  0  0  0
  7  9  1  0  0  0  0
  8 11  1  0  0  0  0
  9 10  2  0  0  0  0
  9  8  1  0  0  0  0
 11  6  2  0  0  0  0
 11 12  1  0  0  0  0
 12 13  1  0  0  0  0
 15 12  1  0  0  0  0
 15 14  1  0  0  0  0
 16 13  1  0  0  0  0
 16 14  1  0  0  0  0
 17 20  1  0  0  0  0
 18 19  2  0  0  0  0
 19  4  1  0  0  0  0
 19 21  1  0  0  0  0
 20 21  2  0  0  0  0
 22 18  1  0  0  0  0
 22 17  2  0  0  0  0
 23 18  1  0  0  0  0
 24 23  1  0  0  0  0
 25 26  2  0  0  0  0
 26 24  1  0  0  0  0
 27 25  1  0  0  0  0
 28 27  1  0  0  0  0
 29 30  1  0  0  0  0
 32 33  1  0  0  0  0
 32 31  2  0  0  0  0
 33 30  1  0  0  0  0
 34 32  1  0  0  0  0
 35 34  2  0  0  0  0
 36 34  1  0  0  0  0
 37 36  1  0  0  0  0
 38 37  1  0  0  0  0
 40 39  2  0  0  0  0
 40 38  1  0  0  0  0
 41 40  1  0  0  0  0
 43 42  1  1  0  0  0
 43 41  1  0  0  0  0
 44 45  1  0  0  0  0
 44 48  1  0  0  0  0
 45 47  1  0  0  0  0
 46 49  1  0  0  0  0
 46 43  1  1  0  0  0
 47 49  2  0  0  0  0
 48 46  1  0  0  0  0
 50 51  1  0  0  0  0
 51 43  1  0  0  0  0
M  END
>  <MODEL>
1

>  <REMARK>
 VINA RESULT:      -6.6      0.000      0.000
  Name = 
  18 active torsions:
  status: ('A' for Active; 'I' for Inactive)
    1  A    between atoms: N_3  and  C_12
    2  A    between atoms: C_4  and  C_20
    3  A    between atoms: C_4  and  C_24
    4  A    between atoms: C_6  and  C_8
    5  A    between atoms: C_7  and  C_40
    6  A    between atoms: C_7  and  C_48
    7  A    between atoms: C_8  and  C_46
    8  A    between atoms: O_11  and  N_26
    9  A    between atoms: O_11  and  C_46
   10  A    between atoms: C_13  and  O_43
   11  A    between atoms: C_16  and  C_37
   12  A    between atoms: C_17  and  C_50
   13  A    between atoms: N_19  and  C_24
   14  A    between atoms: C_22  and  C_40
   15  A    between atoms: C_28  and  C_33
   16  A    between atoms: C_34  and  C_45
   17  A    between atoms: C_39  and  C_40
   18  A    between atoms: O_43  and  C_45
                            x       y       z     vdW  Elec       q    Type
                         _______ _______ _______ _____ _____    ______ ____

>  <TORSDO>
F 18

$$$$
=
 OpenBabel11042421443D

 51 54  0  0  1  0  0  0  0  0999 V2000
  161.3680  207.2350  150.6020 C   0  0  0  0  0  0  0  0  0  0  0  0
  162.3140  209.2020  151.3380 C   0  0  0  0  0  3  0  0  0  0  0  0
  162.4580  208.1880  150.2480 C   0  0  2  0  0  3  0  0  0  0  0  0
  161.3140  208.8610  152.1450 C   0  0  0  0  0  0  0  0  0  0  0  0
  160.7140  207.6140  151.6890 C   0  0  0  0  0  3  0  0  0  0  0  0
  161.2690  201.8610  150.9840 O   0  0  0  0  0  0  0  0  0  0  0  0
  161.0980  206.0390  149.8580 N   0  0  0  0  0  2  0  0  0  0  0  0
  160.8590  203.6130  149.4820 N   0  0  0  0  0  2  0  0  0  0  0  0
  161.1930  204.6990  150.3550 C   0  0  0  0  0  0  0  0  0  0  0  0
  161.5650  204.4750  151.5390 O   0  0  0  0  0  0  0  0  0  0  0  0
  160.9010  202.2260  149.8350 C   0  0  0  0  0  0  0  0  0  0  0  0
  160.5050  201.2090  148.8150 C   0  0  0  0  0  3  0  0  0  0  0  0
  160.0580  201.8730  147.5230 C   0  0  0  0  0  2  0  0  0  0  0  0
  161.4870  199.9790  147.0010 C   0  0  0  0  0  2  0  0  0  0  0  0
  161.6690  200.3070  148.4620 C   0  0  0  0  0  2  0  0  0  0  0  0
  160.8150  201.1930  146.3960 C   0  0  0  0  0  2  0  0  0  0  0  0
  160.1120  210.9940  155.6800 C   0  0  0  0  0  3  0  0  0  0  0  0
  160.5550  211.0030  153.2880 C   0  0  0  0  0  0  0  0  0  0  0  0
  160.9100  209.6330  153.3490 C   0  0  0  0  0  0  0  0  0  0  0  0
  160.4690  209.6500  155.7460 C   0  0  0  0  0  3  0  0  0  0  0  0
  160.8640  208.9760  154.5900 C   0  0  0  0  0  3  0  0  0  0  0  0
  160.1560  211.6670  154.4600 C   0  0  0  0  0  3  0  0  0  0  0  0
  160.6170  211.6940  152.0690 O   0  0  0  0  0  0  0  0  0  0  0  0
  159.7080  212.7280  151.7050 C   0  0  0  0  0  2  0  0  0  0  0  0
  160.9630  212.6980  149.5940 C   0  0  0  0  0  3  0  0  0  0  0  0
  160.0970  213.3250  150.3910 C   0  0  0  0  0  3  0  0  0  0  0  0
  161.3560  213.2830  148.2780 C   0  0  0  0  0  2  0  0  0  0  0  0
  161.0270  212.3230  147.1490 C   0  0  0  0  0  1  0  0  0  0  0  0
  162.1780  208.8240  148.8940 C   0  0  0  0  0  2  0  0  0  0  0  0
  161.1780  207.9880  148.1190 C   0  0  0  0  0  2  0  0  0  0  0  0
  159.9340  206.1750  146.3400 O   0  0  0  0  0  0  0  0  0  0  0  0
  161.1710  206.3660  146.1940 C   0  0  0  0  0  0  0  0  0  0  0  0
  161.8660  207.2580  147.0670 N   0  0  0  0  0  2  0  0  0  0  0  0
  161.9030  205.6660  145.1280 C   0  0  0  0  0  0  0  0  0  0  0  0
  163.0170  205.1300  145.3810 O   0  0  0  0  0  0  0  0  0  0  0  0
  161.3250  205.5940  143.7490 C   0  0  0  0  0  2  0  0  0  0  0  0
  162.2880  205.8940  142.7810 O   0  0  0  0  0  0  0  0  0  0  0  0
  161.5770  206.2860  141.6950 N   0  0  0  0  0  2  0  0  0  0  0  0
  163.4530  207.1180  140.5860 O   0  0  0  0  0  0  0  0  0  0  0  0
  162.2140  206.8860  140.5670 C   0  0  0  0  0  0  0  0  0  0  0  0
  161.4070  207.2510  139.3620 C   0  0  0  0  0  2  0  0  0  0  0  0
  162.1220  209.1380  138.0670 O   0  0  0  0  0  1  0  0  0  0  0  0
  161.3020  208.7670  139.1370 C   0  0  1  0  0  0  0  0  0  0  0  0
  157.9610  209.0580  137.1820 C   0  0  0  0  0  2  0  0  0  0  0  0
  157.8340  210.4730  137.3200 O   0  0  0  0  0  0  0  0  0  0  0  0
  159.8400  209.1350  138.8080 C   0  0  2  0  0  3  0  0  0  0  0  0
  158.6030  211.2040  138.2360 C   0  0  0  0  0  3  0  0  0  0  0  0
  159.4050  208.6310  137.4270 C   0  0  0  0  0  2  0  0  0  0  0  0
  159.5740  210.6150  138.9380 C   0  0  0  0  0  3  0  0  0  0  0  0
  162.8570  210.3420  140.1100 O   0  0  0  0  0  1  0  0  0  0  0  0
  161.7700  209.5110  140.3930 C   0  0  0  0  0  2  0  0  0  0  0  0
  1  5  2  0  0  0  0
  2  4  2  0  0  0  0
  3 29  1  6  0  0  0
  3  1  1  0  0  0  0
  3  2  1  0  0  0  0
  4 19  1  0  0  0  0
  5  4  1  0  0  0  0
  7  9  1  0  0  0  0
  7  1  1  0  0  0  0
  8 11  1  0  0  0  0
  8  9  1  0  0  0  0
  9 10  2  0  0  0  0
 11  6  2  0  0  0  0
 12 11  1  0  0  0  0
 13 12  1  0  0  0  0
 14 15  1  0  0  0  0
 15 12  1  0  0  0  0
 16 14  1  0  0  0  0
 16 13  1  0  0  0  0
 17 20  1  0  0  0  0
 18 19  2  0  0  0  0
 18 22  1  0  0  0  0
 19 21  1  0  0  0  0
 21 20  2  0  0  0  0
 22 17  2  0  0  0  0
 23 18  1  0  0  0  0
 24 23  1  0  0  0  0
 25 26  2  0  0  0  0
 26 24  1  0  0  0  0
 27 25  1  0  0  0  0
 28 27  1  0  0  0  0
 30 29  1  0  0  0  0
 32 31  2  0  0  0  0
 32 33  1  0  0  0  0
 33 30  1  0  0  0  0
 34 35  2  0  0  0  0
 34 32  1  0  0  0  0
 36 34  1  0  0  0  0
 37 36  1  0  0  0  0
 38 37  1  0  0  0  0
 40 39  2  0  0  0  0
 40 38  1  0  0  0  0
 41 40  1  0  0  0  0
 43 42  1  6  0  0  0
 43 41  1  0  0  0  0
 43 51  1  0  0  0  0
 44 45  1  0  0  0  0
 44 48  1  0  0  0  0
 45 47  1  0  0  0  0
 46 49  1  0  0  0  0
 46 43  1  6  0  0  0
 47 49  2  0  0  0  0
 48 46  1  0  0  0  0
 50 51  1  0  0  0  0
M  END
>  <MODEL>
2

>  <REMARK>
 VINA RESULT:      -6.4      2.932      7.740
  Name = 
  18 active torsions:
  status: ('A' for Active; 'I' for Inactive)
    1  A    between atoms: N_3  and  C_12
    2  A    between atoms: C_4  and  C_20
    3  A    between atoms: C_4  and  C_24
    4  A    between atoms: C_6  and  C_8
    5  A    between atoms: C_7  and  C_40
    6  A    between atoms: C_7  and  C_48
    7  A    between atoms: C_8  and  C_46
    8  A    between atoms: O_11  and  N_26
    9  A    between atoms: O_11  and  C_46
   10  A    between atoms: C_13  and  O_43
   11  A    between atoms: C_16  and  C_37
   12  A    between atoms: C_17  and  C_50
   13  A    between atoms: N_19  and  C_24
   14  A    between atoms: C_22  and  C_40
   15  A    between atoms: C_28  and  C_33
   16  A    between atoms: C_34  and  C_45
   17  A    between atoms: C_39  and  C_40
   18  A    between atoms: O_43  and  C_45
                            x       y       z     vdW  Elec       q    Type
                         _______ _______ _______ _____ _____    ______ ____

>  <TORSDO>
F 18

$$$$
=
 OpenBabel11042421443D

 51 54  0  0  1  0  0  0  0  0999 V2000
  161.3510  206.7060  151.4950 C   0  0  0  0  0  0  0  0  0  0  0  0
  160.9360  206.1580  149.2970 C   0  0  0  0  0  3  0  0  0  0  0  0
  161.0530  207.3550  150.1860 C   0  0  2  0  0  3  0  0  0  0  0  0
  161.1380  205.0480  150.0010 C   0  0  0  0  0  0  0  0  0  0  0  0
  161.3960  205.3870  151.3940 C   0  0  0  0  0  3  0  0  0  0  0  0
  159.3650  210.8020  154.3800 O   0  0  0  0  0  0  0  0  0  0  0  0
  161.5300  207.4420  152.7130 N   0  0  0  0  0  2  0  0  0  0  0  0
  161.0330  209.1550  154.4160 N   0  0  0  0  0  2  0  0  0  0  0  0
  160.7340  208.5490  153.1540 C   0  0  0  0  0  0  0  0  0  0  0  0
  159.7870  208.9840  152.4440 O   0  0  0  0  0  0  0  0  0  0  0  0
  160.3270  210.2600  154.9900 C   0  0  0  0  0  0  0  0  0  0  0  0
  160.7500  210.7710  156.3290 C   0  0  0  0  0  3  0  0  0  0  0  0
  162.0020  210.0620  156.8160 C   0  0  0  0  0  2  0  0  0  0  0  0
  162.2030  212.4420  157.2580 C   0  0  0  0  0  2  0  0  0  0  0  0
  161.0790  212.2480  156.2700 C   0  0  0  0  0  2  0  0  0  0  0  0
  162.9780  211.1420  157.2470 C   0  0  0  0  0  2  0  0  0  0  0  0
  160.9180  201.0340  148.4750 C   0  0  0  0  0  3  0  0  0  0  0  0
  161.7410  203.3120  148.2420 C   0  0  0  0  0  0  0  0  0  0  0  0
  161.0710  203.6750  149.4360 C   0  0  0  0  0  0  0  0  0  0  0  0
  160.2510  201.3890  149.6440 C   0  0  0  0  0  3  0  0  0  0  0  0
  160.3270  202.6980  150.1200 C   0  0  0  0  0  3  0  0  0  0  0  0
  161.6570  201.9890  147.7780 C   0  0  0  0  0  3  0  0  0  0  0  0
  162.4690  204.2700  147.5220 O   0  0  0  0  0  0  0  0  0  0  0  0
  162.3000  204.5000  146.1270 C   0  0  0  0  0  2  0  0  0  0  0  0
  160.8540  202.9190  144.9260 C   0  0  0  0  0  3  0  0  0  0  0  0
  160.9600  204.0160  145.6770 C   0  0  0  0  0  3  0  0  0  0  0  0
  159.5190  202.4250  144.4740 C   0  0  0  0  0  2  0  0  0  0  0  0
  159.4130  200.9240  144.6710 C   0  0  0  0  0  1  0  0  0  0  0  0
  162.2260  208.2220  149.7530 C   0  0  0  0  0  2  0  0  0  0  0  0
  161.9910  209.6630  150.1610 C   0  0  0  0  0  2  0  0  0  0  0  0
  160.9580  212.1880  149.4130 O   0  0  0  0  0  0  0  0  0  0  0  0
  162.0310  211.8200  148.8630 C   0  0  0  0  0  0  0  0  0  0  0  0
  162.6020  210.5500  149.1840 N   0  0  0  0  0  2  0  0  0  0  0  0
  162.6950  212.6960  147.8870 C   0  0  0  0  0  0  0  0  0  0  0  0
  163.7720  212.3240  147.3430 O   0  0  0  0  0  0  0  0  0  0  0  0
  162.0930  214.0220  147.5420 C   0  0  0  0  0  2  0  0  0  0  0  0
  162.4380  214.4130  146.2450 O   0  0  0  0  0  0  0  0  0  0  0  0
  161.3770  214.0550  145.4810 N   0  0  0  0  0  2  0  0  0  0  0  0
  162.6550  212.6940  144.0820 O   0  0  0  0  0  0  0  0  0  0  0  0
  161.5190  213.1420  144.3930 C   0  0  0  0  0  0  0  0  0  0  0  0
  160.3150  212.7240  143.6100 C   0  0  0  0  0  2  0  0  0  0  0  0
  161.4690  213.9580  141.9080 O   0  0  0  0  0  1  0  0  0  0  0  0
  160.4130  213.0650  142.1150 C   0  0  1  0  0  0  0  0  0  0  0  0
  162.2910  210.3730  140.0410 C   0  0  0  0  0  2  0  0  0  0  0  0
  161.3530  210.3390  138.9640 O   0  0  0  0  0  0  0  0  0  0  0  0
  160.6770  211.7730  141.3120 C   0  0  2  0  0  3  0  0  0  0  0  0
  160.0780  210.9100  139.0700 C   0  0  0  0  0  3  0  0  0  0  0  0
  162.1310  211.6640  140.8390 C   0  0  0  0  0  2  0  0  0  0  0  0
  159.7290  211.6130  140.1490 C   0  0  0  0  0  3  0  0  0  0  0  0
  158.4000  214.2550  142.7290 O   0  0  0  0  0  1  0  0  0  0  0  0
  159.1120  213.7270  141.6480 C   0  0  0  0  0  2  0  0  0  0  0  0
  1  7  1  0  0  0  0
  2  4  2  0  0  0  0
  2  3  1  0  0  0  0
  3 29  1  6  0  0  0
  3  1  1  0  0  0  0
  4  5  1  0  0  0  0
  5  1  2  0  0  0  0
  6 11  2  0  0  0  0
  7  9  1  0  0  0  0
  8 11  1  0  0  0  0
  9  8  1  0  0  0  0
 10  9  2  0  0  0  0
 11 12  1  0  0  0  0
 12 13  1  0  0  0  0
 13 16  1  0  0  0  0
 15 12  1  0  0  0  0
 15 14  1  0  0  0  0
 16 14  1  0  0  0  0
 17 20  1  0  0  0  0
 18 19  2  0  0  0  0
 19  4  1  0  0  0  0
 19 21  1  0  0  0  0
 20 21  2  0  0  0  0
 22 18  1  0  0  0  0
 22 17  2  0  0  0  0
 23 18  1  0  0  0  0
 24 23  1  0  0  0  0
 25 26  2  0  0  0  0
 26 24  1  0  0  0  0
 27 28  1  0  0  0  0
 27 25  1  0  0  0  0
 29 30  1  0  0  0  0
 32 33  1  0  0  0  0
 32 31  2  0  0  0  0
 33 30  1  0  0  0  0
 34 32  1  0  0  0  0
 35 34  2  0  0  0  0
 36 34  1  0  0  0  0
 37 36  1  0  0  0  0
 38 37  1  0  0  0  0
 39 40  2  0  0  0  0
 40 38  1  0  0  0  0
 41 40  1  0  0  0  0
 43 42  1  6  0  0  0
 43 41  1  0  0  0  0
 44 48  1  0  0  0  0
 45 47  1  0  0  0  0
 45 44  1  0  0  0  0
 46 43  1  6  0  0  0
 47 49  2  0  0  0  0
 48 46  1  0  0  0  0
 49 46  1  0  0  0  0
 51 43  1  0  0  0  0
 51 50  1  0  0  0  0
M  END
>  <MODEL>
3

>  <REMARK>
 VINA RESULT:      -6.0      1.526      2.082
  Name = 
  18 active torsions:
  status: ('A' for Active; 'I' for Inactive)
    1  A    between atoms: N_3  and  C_12
    2  A    between atoms: C_4  and  C_20
    3  A    between atoms: C_4  and  C_24
    4  A    between atoms: C_6  and  C_8
    5  A    between atoms: C_7  and  C_40
    6  A    between atoms: C_7  and  C_48
    7  A    between atoms: C_8  and  C_46
    8  A    between atoms: O_11  and  N_26
    9  A    between atoms: O_11  and  C_46
   10  A    between atoms: C_13  and  O_43
   11  A    between atoms: C_16  and  C_37
   12  A    between atoms: C_17  and  C_50
   13  A    between atoms: N_19  and  C_24
   14  A    between atoms: C_22  and  C_40
   15  A    between atoms: C_28  and  C_33
   16  A    between atoms: C_34  and  C_45
   17  A    between atoms: C_39  and  C_40
   18  A    between atoms: O_43  and  C_45
                            x       y       z     vdW  Elec       q    Type
                         _______ _______ _______ _____ _____    ______ ____

>  <TORSDO>
F 18

$$$$
=
 OpenBabel11042421443D

 51 54  0  0  1  0  0  0  0  0999 V2000
  161.4820  210.8640  150.5720 C   0  0  0  0  0  0  0  0  0  0  0  0
  160.9950  209.5010  152.3640 C   0  0  0  0  0  3  0  0  0  0  0  0
  161.2230  209.4300  150.8880 C   0  0  2  0  0  3  0  0  0  0  0  0
  161.1130  210.7580  152.7810 C   0  0  0  0  0  0  0  0  0  0  0  0
  161.4170  211.6270  151.6520 C   0  0  0  0  0  3  0  0  0  0  0  0
  159.7700  214.3690  146.8550 O   0  0  0  0  0  0  0  0  0  0  0  0
  161.7380  211.3410  149.2440 N   0  0  0  0  0  2  0  0  0  0  0  0
  161.4120  212.7420  147.2410 N   0  0  0  0  0  2  0  0  0  0  0  0
  161.0030  212.3620  148.5600 C   0  0  0  0  0  0  0  0  0  0  0  0
  160.0120  212.9180  149.1060 O   0  0  0  0  0  0  0  0  0  0  0  0
  160.7810  213.7440  146.4360 C   0  0  0  0  0  0  0  0  0  0  0  0
  161.3370  214.0380  145.0810 C   0  0  0  0  0  3  0  0  0  0  0  0
  162.8480  214.1970  145.1310 C   0  0  0  0  0  2  0  0  0  0  0  0
  162.2440  212.8600  143.1950 C   0  0  0  0  0  2  0  0  0  0  0  0
  161.0480  212.9090  144.1150 C   0  0  0  0  0  2  0  0  0  0  0  0
  163.4180  213.3140  144.0350 C   0  0  0  0  0  2  0  0  0  0  0  0
  160.6090  211.9160  156.8920 C   0  0  0  0  0  3  0  0  0  0  0  0
  159.9900  212.1940  154.5550 C   0  0  0  0  0  0  0  0  0  0  0  0
  160.9250  211.1940  154.1890 C   0  0  0  0  0  0  0  0  0  0  0  0
  161.5350  210.9390  156.5350 C   0  0  0  0  0  3  0  0  0  0  0  0
  161.6900  210.5810  155.1960 C   0  0  0  0  0  3  0  0  0  0  0  0
  159.8420  212.5400  155.9080 C   0  0  0  0  0  3  0  0  0  0  0  0
  159.2300  212.8430  153.5710 O   0  0  0  0  0  0  0  0  0  0  0  0
  157.9170  212.4380  153.1970 C   0  0  0  0  0  2  0  0  0  0  0  0
  156.5050  211.2570  154.8230 C   0  0  0  0  0  3  0  0  0  0  0  0
  157.0210  212.4090  154.3930 C   0  0  0  0  0  3  0  0  0  0  0  0
  155.6110  211.2160  156.0190 C   0  0  0  0  0  2  0  0  0  0  0  0
  156.1300  212.1440  157.1030 C   0  0  0  0  0  1  0  0  0  0  0  0
  162.4580  208.5950  150.5840 C   0  0  0  0  0  2  0  0  0  0  0  0
  162.1010  207.4510  149.6550 C   0  0  0  0  0  2  0  0  0  0  0  0
  162.9980  206.1890  152.0220 O   0  0  0  0  0  0  0  0  0  0  0  0
  161.8620  205.8560  151.5880 C   0  0  0  0  0  0  0  0  0  0  0  0
  161.3520  206.4450  150.3900 N   0  0  0  0  0  2  0  0  0  0  0  0
  161.0600  204.8600  152.3130 C   0  0  0  0  0  0  0  0  0  0  0  0
  161.0120  204.8910  153.5730 O   0  0  0  0  0  0  0  0  0  0  0  0
  160.3040  203.8140  151.5540 C   0  0  0  0  0  2  0  0  0  0  0  0
  160.9400  202.5710  151.6360 O   0  0  0  0  0  0  0  0  0  0  0  0
  161.5080  202.3900  150.4190 N   0  0  0  0  0  2  0  0  0  0  0  0
  160.3940  200.3760  150.0370 O   0  0  0  0  0  0  0  0  0  0  0  0
  161.1790  201.2630  149.6070 C   0  0  0  0  0  0  0  0  0  0  0  0
  161.7790  201.1270  148.2440 C   0  0  0  0  0  2  0  0  0  0  0  0
  159.6520  202.0670  147.6560 O   0  0  0  0  0  1  0  0  0  0  0  0
  160.9030  201.7250  147.1320 C   0  0  1  0  0  0  0  0  0  0  0  0
  162.1620  205.3900  146.8910 C   0  0  0  0  0  2  0  0  0  0  0  0
  161.5810  205.6600  145.6140 O   0  0  0  0  0  0  0  0  0  0  0  0
  161.5830  202.9930  146.5720 C   0  0  2  0  0  3  0  0  0  0  0  0
  161.1000  204.6380  144.7840 C   0  0  0  0  0  3  0  0  0  0  0  0
  161.4850  204.1830  147.5340 C   0  0  0  0  0  2  0  0  0  0  0  0
  161.0620  203.3730  145.2070 C   0  0  0  0  0  3  0  0  0  0  0  0
  161.2990  199.4720  146.3490 O   0  0  0  0  0  1  0  0  0  0  0  0
  160.7020  200.6910  146.0180 C   0  0  0  0  0  2  0  0  0  0  0  0
  1  3  1  0  0  0  0
  1  5  2  0  0  0  0
  2  4  2  0  0  0  0
  3 29  1  1  0  0  0
  3  2  1  0  0  0  0
  4 19  1  0  0  0  0
  5  4  1  0  0  0  0
  7  1  1  0  0  0  0
  8  9  1  0  0  0  0
  9 10  2  0  0  0  0
  9  7  1  0  0  0  0
 11  6  2  0  0  0  0
 11  8  1  0  0  0  0
 12 13  1  0  0  0  0
 12 11  1  0  0  0  0
 14 16  1  0  0  0  0
 14 15  1  0  0  0  0
 15 12  1  0  0  0  0
 16 13  1  0  0  0  0
 18 22  1  0  0  0  0
 19 18  2  0  0  0  0
 19 21  1  0  0  0  0
 20 17  1  0  0  0  0
 21 20  2  0  0  0  0
 22 17  2  0  0  0  0
 23 18  1  0  0  0  0
 24 23  1  0  0  0  0
 24 26  1  0  0  0  0
 25 27  1  0  0  0  0
 26 25  2  0  0  0  0
 27 28  1  0  0  0  0
 30 33  1  0  0  0  0
 30 29  1  0  0  0  0
 32 31  2  0  0  0  0
 32 34  1  0  0  0  0
 33 32  1  0  0  0  0
 34 35  2  0  0  0  0
 36 37  1  0  0  0  0
 36 34  1  0  0  0  0
 38 37  1  0  0  0  0
 40 39  2  0  0  0  0
 40 38  1  0  0  0  0
 41 40  1  0  0  0  0
 43 42  1  1  0  0  0
 43 41  1  0  0  0  0
 44 48  1  0  0  0  0
 45 44  1  0  0  0  0
 46 43  1  1  0  0  0
 46 48  1  0  0  0  0
 47 49  2  0  0  0  0
 47 45  1  0  0  0  0
 49 46  1  0  0  0  0
 51 50  1  0  0  0  0
 51 43  1  0  0  0  0
M  END
>  <MODEL>
4

>  <REMARK>
 VINA RESULT:      -5.9      3.019     10.905
  Name = 
  18 active torsions:
  status: ('A' for Active; 'I' for Inactive)
    1  A    between atoms: N_3  and  C_12
    2  A    between atoms: C_4  and  C_20
    3  A    between atoms: C_4  and  C_24
    4  A    between atoms: C_6  and  C_8
    5  A    between atoms: C_7  and  C_40
    6  A    between atoms: C_7  and  C_48
    7  A    between atoms: C_8  and  C_46
    8  A    between atoms: O_11  and  N_26
    9  A    between atoms: O_11  and  C_46
   10  A    between atoms: C_13  and  O_43
   11  A    between atoms: C_16  and  C_37
   12  A    between atoms: C_17  and  C_50
   13  A    between atoms: N_19  and  C_24
   14  A    between atoms: C_22  and  C_40
   15  A    between atoms: C_28  and  C_33
   16  A    between atoms: C_34  and  C_45
   17  A    between atoms: C_39  and  C_40
   18  A    between atoms: O_43  and  C_45
                            x       y       z     vdW  Elec       q    Type
                         _______ _______ _______ _____ _____    ______ ____

>  <TORSDO>
F 18

$$$$
=
 OpenBabel11042421443D

 51 54  0  0  1  0  0  0  0  0999 V2000
  161.8890  208.6630  150.3090 C   0  0  0  0  0  0  0  0  0  0  0  0
  161.6420  208.5050  148.0250 C   0  0  0  0  0  3  0  0  0  0  0  0
  161.6330  209.5240  149.1200 C   0  0  2  0  0  3  0  0  0  0  0  0
  161.8690  207.2970  148.5320 C   0  0  0  0  0  0  0  0  0  0  0  0
  162.0210  207.3880  149.9780 C   0  0  0  0  0  3  0  0  0  0  0  0
  160.0920  207.8190  155.3190 O   0  0  0  0  0  0  0  0  0  0  0  0
  161.9490  209.1730  151.6490 N   0  0  0  0  0  2  0  0  0  0  0  0
  161.4710  209.2420  154.0670 N   0  0  0  0  0  2  0  0  0  0  0  0
  161.2790  208.6240  152.7900 C   0  0  0  0  0  0  0  0  0  0  0  0
  160.5310  207.6160  152.6740 O   0  0  0  0  0  0  0  0  0  0  0  0
  160.8740  208.8080  155.2940 C   0  0  0  0  0  0  0  0  0  0  0  0
  161.1860  209.5500  156.5520 C   0  0  0  0  0  3  0  0  0  0  0  0
  162.6830  209.5820  156.8130 C   0  0  0  0  0  2  0  0  0  0  0  0
  161.7440  211.7780  157.2550 C   0  0  0  0  0  2  0  0  0  0  0  0
  160.7270  210.9910  156.4650 C   0  0  0  0  0  2  0  0  0  0  0  0
  163.0490  211.0290  157.0940 C   0  0  0  0  0  2  0  0  0  0  0  0
  162.0280  203.7490  146.1080 C   0  0  0  0  0  3  0  0  0  0  0  0
  161.3440  204.8340  148.1750 C   0  0  0  0  0  0  0  0  0  0  0  0
  161.9200  206.0490  147.7270 C   0  0  0  0  0  0  0  0  0  0  0  0
  162.6030  204.9390  145.6680 C   0  0  0  0  0  3  0  0  0  0  0  0
  162.5490  206.0780  146.4710 C   0  0  0  0  0  3  0  0  0  0  0  0
  161.4040  203.6970  147.3530 C   0  0  0  0  0  3  0  0  0  0  0  0
  160.7330  204.7650  149.4350 O   0  0  0  0  0  0  0  0  0  0  0  0
  160.8560  203.6470  150.3090 C   0  0  0  0  0  2  0  0  0  0  0  0
  161.2880  201.4810  149.2340 C   0  0  0  0  0  3  0  0  0  0  0  0
  160.4030  202.3990  149.6230 C   0  0  0  0  0  3  0  0  0  0  0  0
  160.8460  200.2290  148.5510 C   0  0  0  0  0  2  0  0  0  0  0  0
  161.5710  200.0590  147.2290 C   0  0  0  0  0  1  0  0  0  0  0  0
  162.7750  210.5120  148.9330 C   0  0  0  0  0  2  0  0  0  0  0  0
  162.2330  211.9240  148.8230 C   0  0  0  0  0  2  0  0  0  0  0  0
  161.6200  214.4490  147.7050 O   0  0  0  0  0  0  0  0  0  0  0  0
  161.3970  213.4340  146.9900 C   0  0  0  0  0  0  0  0  0  0  0  0
  161.6710  212.1270  147.4980 N   0  0  0  0  0  2  0  0  0  0  0  0
  160.8510  213.5940  145.6350 C   0  0  0  0  0  0  0  0  0  0  0  0
  159.7770  213.0120  145.3200 O   0  0  0  0  0  0  0  0  0  0  0  0
  161.5690  214.4470  144.6360 C   0  0  0  0  0  2  0  0  0  0  0  0
  162.7520  213.8360  144.2070 O   0  0  0  0  0  0  0  0  0  0  0  0
  162.8330  214.1270  142.8860 N   0  0  0  0  0  2  0  0  0  0  0  0
  162.2470  211.9680  142.2260 O   0  0  0  0  0  0  0  0  0  0  0  0
  162.5350  213.1480  141.8910 C   0  0  0  0  0  0  0  0  0  0  0  0
  162.5760  213.5210  140.4430 C   0  0  0  0  0  2  0  0  0  0  0  0
  162.8030  211.1450  140.2060 O   0  0  0  0  0  1  0  0  0  0  0  0
  162.4870  212.3110  139.5010 C   0  0  1  0  0  0  0  0  0  0  0  0
  158.9930  213.3560  138.1690 C   0  0  0  0  0  2  0  0  0  0  0  0
  158.2430  212.5600  139.0870 O   0  0  0  0  0  0  0  0  0  0  0  0
  161.0500  212.1970  138.9490 C   0  0  2  0  0  3  0  0  0  0  0  0
  158.8360  211.5450  139.8490 C   0  0  0  0  0  3  0  0  0  0  0  0
  160.4120  213.5670  138.6900 C   0  0  0  0  0  2  0  0  0  0  0  0
  160.1580  211.3570  139.8300 C   0  0  0  0  0  3  0  0  0  0  0  0
  164.7070  212.9770  138.8140 O   0  0  0  0  0  1  0  0  0  0  0  0
  163.4880  212.4740  138.3510 C   0  0  0  0  0  2  0  0  0  0  0  0
  1  7  1  0  0  0  0
  2  4  2  0  0  0  0
  2  3  1  0  0  0  0
  3 29  1  6  0  0  0
  3  1  1  0  0  0  0
  4  5  1  0  0  0  0
  5  1  2  0  0  0  0
  7  9  1  0  0  0  0
  8 11  1  0  0  0  0
  9  8  1  0  0  0  0
 10  9  2  0  0  0  0
 11  6  2  0  0  0  0
 11 12  1  0  0  0  0
 12 13  1  0  0  0  0
 13 16  1  0  0  0  0
 15 12  1  0  0  0  0
 15 14  1  0  0  0  0
 16 14  1  0  0  0  0
 17 22  1  0  0  0  0
 18 23  1  0  0  0  0
 19 18  1  0  0  0  0
 19  4  1  0  0  0  0
 20 17  2  0  0  0  0
 20 21  1  0  0  0  0
 21 19  2  0  0  0  0
 22 18  2  0  0  0  0
 23 24  1  0  0  0  0
 25 26  2  0  0  0  0
 26 24  1  0  0  0  0
 27 25  1  0  0  0  0
 28 27  1  0  0  0  0
 30 29  1  0  0  0  0
 32 33  1  0  0  0  0
 32 31  2  0  0  0  0
 33 30  1  0  0  0  0
 34 32  1  0  0  0  0
 35 34  2  0  0  0  0
 36 34  1  0  0  0  0
 37 36  1  0  0  0  0
 38 37  1  0  0  0  0
 40 39  2  0  0  0  0
 40 38  1  0  0  0  0
 41 40  1  0  0  0  0
 43 42  1  1  0  0  0
 43 41  1  0  0  0  0
 44 48  1  0  0  0  0
 44 45  1  0  0  0  0
 45 47  1  0  0  0  0
 46 43  1  1  0  0  0
 46 49  1  0  0  0  0
 48 46  1  0  0  0  0
 49 47  2  0  0  0  0
 51 50  1  0  0  0  0
 51 43  1  0  0  0  0
M  END
>  <MODEL>
5

>  <REMARK>
 VINA RESULT:      -5.4      1.507      2.986
  Name = 
  18 active torsions:
  status: ('A' for Active; 'I' for Inactive)
    1  A    between atoms: N_3  and  C_12
    2  A    between atoms: C_4  and  C_20
    3  A    between atoms: C_4  and  C_24
    4  A    between atoms: C_6  and  C_8
    5  A    between atoms: C_7  and  C_40
    6  A    between atoms: C_7  and  C_48
    7  A    between atoms: C_8  and  C_46
    8  A    between atoms: O_11  and  N_26
    9  A    between atoms: O_11  and  C_46
   10  A    between atoms: C_13  and  O_43
   11  A    between atoms: C_16  and  C_37
   12  A    between atoms: C_17  and  C_50
   13  A    between atoms: N_19  and  C_24
   14  A    between atoms: C_22  and  C_40
   15  A    between atoms: C_28  and  C_33
   16  A    between atoms: C_34  and  C_45
   17  A    between atoms: C_39  and  C_40
   18  A    between atoms: O_43  and  C_45
                            x       y       z     vdW  Elec       q    Type
                         _______ _______ _______ _____ _____    ______ ____

>  <TORSDO>
F 18

$$$$
=
 OpenBabel11042421443D

 51 54  0  0  1  0  0  0  0  0999 V2000
  160.8650  207.2230  150.8290 C   0  0  0  0  0  0  0  0  0  0  0  0
  160.7350  205.6400  149.1600 C   0  0  0  0  0  3  0  0  0  0  0  0
  160.6860  207.1230  149.3520 C   0  0  2  0  0  3  0  0  0  0  0  0
  160.9130  205.0370  150.3310 C   0  0  0  0  0  0  0  0  0  0  0  0
  160.9910  206.0320  151.3930 C   0  0  0  0  0  3  0  0  0  0  0  0
  160.8540  209.3630  155.7740 O   0  0  0  0  0  0  0  0  0  0  0  0
  160.8640  208.4700  151.5370 N   0  0  0  0  0  2  0  0  0  0  0  0
  160.8900  209.9540  153.5060 N   0  0  0  0  0  2  0  0  0  0  0  0
  160.8600  208.6300  152.9600 C   0  0  0  0  0  0  0  0  0  0  0  0
  160.8310  207.6260  153.7220 O   0  0  0  0  0  0  0  0  0  0  0  0
  160.8950  210.2730  154.9020 C   0  0  0  0  0  0  0  0  0  0  0  0
  160.9440  211.7070  155.3150 C   0  0  0  0  0  3  0  0  0  0  0  0
  159.8330  212.5070  154.6550 C   0  0  0  0  0  2  0  0  0  0  0  0
  160.0050  213.1470  156.9930 C   0  0  0  0  0  2  0  0  0  0  0  0
  160.7570  211.8510  156.8120 C   0  0  0  0  0  2  0  0  0  0  0  0
  159.1400  213.2870  155.7590 C   0  0  0  0  0  2  0  0  0  0  0  0
  161.1820  200.7900  150.9490 C   0  0  0  0  0  3  0  0  0  0  0  0
  160.8140  202.6590  149.4350 C   0  0  0  0  0  0  0  0  0  0  0  0
  160.9840  203.5630  150.5120 C   0  0  0  0  0  0  0  0  0  0  0  0
  161.3400  201.6760  152.0120 C   0  0  0  0  0  3  0  0  0  0  0  0
  161.2420  203.0500  151.7940 C   0  0  0  0  0  3  0  0  0  0  0  0
  160.9200  201.2780  149.6700 C   0  0  0  0  0  3  0  0  0  0  0  0
  160.5290  203.1380  148.1480 O   0  0  0  0  0  0  0  0  0  0  0  0
  161.3750  202.9220  147.0230 C   0  0  0  0  0  2  0  0  0  0  0  0
  161.1680  200.5820  146.3050 C   0  0  0  0  0  3  0  0  0  0  0  0
  160.8080  201.8560  146.1430 C   0  0  0  0  0  3  0  0  0  0  0  0
  160.6040  199.5090  145.4330 C   0  0  0  0  0  2  0  0  0  0  0  0
  161.5560  198.3290  145.3580 C   0  0  0  0  0  1  0  0  0  0  0  0
  161.8530  207.7870  148.6380 C   0  0  0  0  0  2  0  0  0  0  0  0
  162.5690  206.7810  147.7570 C   0  0  0  0  0  2  0  0  0  0  0  0
  163.3280  205.0400  145.6610 O   0  0  0  0  0  0  0  0  0  0  0  0
  162.2620  205.6950  145.5070 C   0  0  0  0  0  0  0  0  0  0  0  0
  161.8260  206.6030  146.5200 N   0  0  0  0  0  2  0  0  0  0  0  0
  161.4670  205.5280  144.2810 C   0  0  0  0  0  0  0  0  0  0  0  0
  160.6860  204.5430  144.1710 O   0  0  0  0  0  0  0  0  0  0  0  0
  161.5850  206.5260  143.1720 C   0  0  0  0  0  2  0  0  0  0  0  0
  162.1250  205.9420  142.0220 O   0  0  0  0  0  0  0  0  0  0  0  0
  161.5860  206.6410  140.9930 N   0  0  0  0  0  2  0  0  0  0  0  0
  163.3970  206.2370  139.5790 O   0  0  0  0  0  0  0  0  0  0  0  0
  162.2550  206.7460  139.7360 C   0  0  0  0  0  0  0  0  0  0  0  0
  161.6020  207.4730  138.6040 C   0  0  0  0  0  2  0  0  0  0  0  0
  161.9750  209.6690  137.7150 O   0  0  0  0  0  1  0  0  0  0  0  0
  161.4940  208.9880  138.8370 C   0  0  1  0  0  0  0  0  0  0  0  0
  157.7270  209.5910  138.1180 C   0  0  0  0  0  2  0  0  0  0  0  0
  157.6970  210.9310  138.6110 O   0  0  0  0  0  0  0  0  0  0  0  0
  160.0140  209.3650  139.0650 C   0  0  2  0  0  3  0  0  0  0  0  0
  158.7350  211.4610  139.3900 C   0  0  0  0  0  3  0  0  0  0  0  0
  159.1620  209.1760  137.8050 C   0  0  0  0  0  2  0  0  0  0  0  0
  159.8530  210.7650  139.6070 C   0  0  0  0  0  3  0  0  0  0  0  0
  162.9830  210.6080  139.8380 O   0  0  0  0  0  1  0  0  0  0  0  0
  162.3390  209.3870  140.0520 C   0  0  0  0  0  2  0  0  0  0  0  0
  1  5  2  0  0  0  0
  1  7  1  0  0  0  0
  2  3  1  0  0  0  0
  2  4  2  0  0  0  0
  3 29  1  6  0  0  0
  3  1  1  0  0  0  0
  4 19  1  0  0  0  0
  4  5  1  0  0  0  0
  7  9  1  0  0  0  0
  8 11  1  0  0  0  0
  9  8  1  0  0  0  0
  9 10  2  0  0  0  0
 11 12  1  0  0  0  0
 11  6  2  0  0  0  0
 12 15  1  0  0  0  0
 13 12  1  0  0  0  0
 13 16  1  0  0  0  0
 15 14  1  0  0  0  0
 16 14  1  0  0  0  0
 17 20  1  0  0  0  0
 18 22  1  0  0  0  0
 18 19  2  0  0  0  0
 19 21  1  0  0  0  0
 21 20  2  0  0  0  0
 22 17  2  0  0  0  0
 23 18  1  0  0  0  0
 24 23  1  0  0  0  0
 26 25  2  0  0  0  0
 26 24  1  0  0  0  0
 27 25  1  0  0  0  0
 28 27  1  0  0  0  0
 30 29  1  0  0  0  0
 32 31  2  0  0  0  0
 32 33  1  0  0  0  0
 33 30  1  0  0  0  0
 34 32  1  0  0  0  0
 35 34  2  0  0  0  0
 36 34  1  0  0  0  0
 37 36  1  0  0  0  0
 38 37  1  0  0  0  0
 39 40  2  0  0  0  0
 40 38  1  0  0  0  0
 41 43  1  0  0  0  0
 41 40  1  0  0  0  0
 43 42  1  6  0  0  0
 43 51  1  0  0  0  0
 44 45  1  0  0  0  0
 45 47  1  0  0  0  0
 46 43  1  6  0  0  0
 46 49  1  0  0  0  0
 47 49  2  0  0  0  0
 48 44  1  0  0  0  0
 48 46  1  0  0  0  0
 50 51  1  0  0  0  0
M  END
>  <MODEL>
6

>  <REMARK>
 VINA RESULT:      -5.2      3.105      4.512
  Name = 
  18 active torsions:
  status: ('A' for Active; 'I' for Inactive)
    1  A    between atoms: N_3  and  C_12
    2  A    between atoms: C_4  and  C_20
    3  A    between atoms: C_4  and  C_24
    4  A    between atoms: C_6  and  C_8
    5  A    between atoms: C_7  and  C_40
    6  A    between atoms: C_7  and  C_48
    7  A    between atoms: C_8  and  C_46
    8  A    between atoms: O_11  and  N_26
    9  A    between atoms: O_11  and  C_46
   10  A    between atoms: C_13  and  O_43
   11  A    between atoms: C_16  and  C_37
   12  A    between atoms: C_17  and  C_50
   13  A    between atoms: N_19  and  C_24
   14  A    between atoms: C_22  and  C_40
   15  A    between atoms: C_28  and  C_33
   16  A    between atoms: C_34  and  C_45
   17  A    between atoms: C_39  and  C_40
   18  A    between atoms: O_43  and  C_45
                            x       y       z     vdW  Elec       q    Type
                         _______ _______ _______ _____ _____    ______ ____

>  <TORSDO>
F 18

$$$$
=
 OpenBabel11042421443D

 51 54  0  0  1  0  0  0  0  0999 V2000
  161.9250  210.0480  149.8130 C   0  0  0  0  0  0  0  0  0  0  0  0
  161.3810  208.3180  151.2330 C   0  0  0  0  0  3  0  0  0  0  0  0
  161.6600  208.5810  149.7870 C   0  0  2  0  0  3  0  0  0  0  0  0
  161.4810  209.4470  151.9270 C   0  0  0  0  0  0  0  0  0  0  0  0
  161.8200  210.5480  151.0340 C   0  0  0  0  0  3  0  0  0  0  0  0
  160.2200  214.1980  146.8280 O   0  0  0  0  0  0  0  0  0  0  0  0
  162.2250  210.8120  148.6370 N   0  0  0  0  0  2  0  0  0  0  0  0
  161.9280  212.5980  146.9620 N   0  0  0  0  0  2  0  0  0  0  0  0
  161.4710  211.9240  148.1410 C   0  0  0  0  0  0  0  0  0  0  0  0
  160.4220  212.3060  148.7280 O   0  0  0  0  0  0  0  0  0  0  0  0
  161.2860  213.7220  146.3510 C   0  0  0  0  0  0  0  0  0  0  0  0
  161.8970  214.3270  145.1290 C   0  0  0  0  0  3  0  0  0  0  0  0
  163.1090  213.5330  144.6710 C   0  0  0  0  0  2  0  0  0  0  0  0
  161.7590  214.1250  142.7400 C   0  0  0  0  0  2  0  0  0  0  0  0
  160.9170  214.3340  143.9750 C   0  0  0  0  0  2  0  0  0  0  0  0
  162.9250  213.2690  143.1870 C   0  0  0  0  0  2  0  0  0  0  0  0
  160.7790  209.6390  156.1650 C   0  0  0  0  0  3  0  0  0  0  0  0
  160.7490  210.7370  153.9930 C   0  0  0  0  0  0  0  0  0  0  0  0
  161.2420  209.5540  153.3900 C   0  0  0  0  0  0  0  0  0  0  0  0
  161.2730  208.4780  155.5770 C   0  0  0  0  0  3  0  0  0  0  0  0
  161.5010  208.4360  154.2010 C   0  0  0  0  0  3  0  0  0  0  0  0
  160.5200  210.7610  155.3790 C   0  0  0  0  0  3  0  0  0  0  0  0
  160.5060  211.8780  153.2160 O   0  0  0  0  0  0  0  0  0  0  0  0
  159.2000  212.3590  152.9120 C   0  0  0  0  0  2  0  0  0  0  0  0
  157.1140  212.8640  154.1050 C   0  0  0  0  0  3  0  0  0  0  0  0
  158.3480  212.3610  154.1400 C   0  0  0  0  0  3  0  0  0  0  0  0
  156.2520  212.8680  155.3250 C   0  0  0  0  0  2  0  0  0  0  0  0
  155.9130  211.4480  155.7410 C   0  0  0  0  0  1  0  0  0  0  0  0
  162.9080  207.8320  149.3440 C   0  0  0  0  0  2  0  0  0  0  0  0
  162.5650  206.3910  149.0160 C   0  0  0  0  0  2  0  0  0  0  0  0
  160.0690  206.2400  147.6940 O   0  0  0  0  0  0  0  0  0  0  0  0
  161.1030  206.1900  146.9760 C   0  0  0  0  0  0  0  0  0  0  0  0
  162.3970  206.2480  147.5790 N   0  0  0  0  0  2  0  0  0  0  0  0
  160.9800  206.0680  145.5160 C   0  0  0  0  0  0  0  0  0  0  0  0
  159.9920  206.5850  144.9250 O   0  0  0  0  0  0  0  0  0  0  0  0
  162.0270  205.3350  144.7370 C   0  0  0  0  0  2  0  0  0  0  0  0
  161.6820  203.9900  144.5670 O   0  0  0  0  0  0  0  0  0  0  0  0
  161.1810  203.6070  145.7670 N   0  0  0  0  0  2  0  0  0  0  0  0
  160.0950  201.7410  144.8820 O   0  0  0  0  0  0  0  0  0  0  0  0
  160.3930  202.4240  145.8990 C   0  0  0  0  0  0  0  0  0  0  0  0
  159.9080  201.9990  147.2480 C   0  0  0  0  0  2  0  0  0  0  0  0
  162.1990  202.4250  147.8180 O   0  0  0  0  0  1  0  0  0  0  0  0
  161.0440  201.7700  148.2570 C   0  0  1  0  0  0  0  0  0  0  0  0
  160.4660  204.3130  151.1330 C   0  0  0  0  0  2  0  0  0  0  0  0
  161.1530  203.5600  152.1340 O   0  0  0  0  0  0  0  0  0  0  0  0
  160.6300  202.3380  149.6320 C   0  0  2  0  0  3  0  0  0  0  0  0
  161.4900  202.2120  151.9510 C   0  0  0  0  0  3  0  0  0  0  0  0
  160.8840  203.8460  149.7420 C   0  0  0  0  0  2  0  0  0  0  0  0
  161.2820  201.6070  150.7790 C   0  0  0  0  0  3  0  0  0  0  0  0
  161.8930  199.7780  147.1820 O   0  0  0  0  0  1  0  0  0  0  0  0
  161.3440  200.2700  148.3690 C   0  0  0  0  0  2  0  0  0  0  0  0
  1  5  2  0  0  0  0
  2  4  2  0  0  0  0
  3 29  1  1  0  0  0
  3  1  1  0  0  0  0
  3  2  1  0  0  0  0
  4 19  1  0  0  0  0
  5  4  1  0  0  0  0
  7  1  1  0  0  0  0
  8  9  1  0  0  0  0
  9  7  1  0  0  0  0
  9 10  2  0  0  0  0
 11  6  2  0  0  0  0
 11  8  1  0  0  0  0
 12 11  1  0  0  0  0
 13 12  1  0  0  0  0
 14 16  1  0  0  0  0
 14 15  1  0  0  0  0
 15 12  1  0  0  0  0
 16 13  1  0  0  0  0
 18 22  1  0  0  0  0
 19 18  2  0  0  0  0
 19 21  1  0  0  0  0
 20 17  1  0  0  0  0
 21 20  2  0  0  0  0
 22 17  2  0  0  0  0
 23 18  1  0  0  0  0
 24 23  1  0  0  0  0
 24 26  1  0  0  0  0
 25 26  2  0  0  0  0
 25 27  1  0  0  0  0
 27 28  1  0  0  0  0
 30 29  1  0  0  0  0
 32 33  1  0  0  0  0
 32 31  2  0  0  0  0
 33 30  1  0  0  0  0
 34 32  1  0  0  0  0
 35 34  2  0  0  0  0
 36 34  1  0  0  0  0
 37 36  1  0  0  0  0
 37 38  1  0  0  0  0
 38 40  1  0  0  0  0
 39 40  2  0  0  0  0
 40 41  1  0  0  0  0
 41 43  1  0  0  0  0
 43 42  1  6  0  0  0
 43 51  1  0  0  0  0
 44 45  1  0  0  0  0
 46 43  1  6  0  0  0
 46 48  1  0  0  0  0
 46 49  1  0  0  0  0
 47 45  1  0  0  0  0
 48 44  1  0  0  0  0
 49 47  2  0  0  0  0
 50 51  1  0  0  0  0
M  END
>  <MODEL>
7

>  <REMARK>
 VINA RESULT:      -5.2      3.086     10.852
  Name = 
  18 active torsions:
  status: ('A' for Active; 'I' for Inactive)
    1  A    between atoms: N_3  and  C_12
    2  A    between atoms: C_4  and  C_20
    3  A    between atoms: C_4  and  C_24
    4  A    between atoms: C_6  and  C_8
    5  A    between atoms: C_7  and  C_40
    6  A    between atoms: C_7  and  C_48
    7  A    between atoms: C_8  and  C_46
    8  A    between atoms: O_11  and  N_26
    9  A    between atoms: O_11  and  C_46
   10  A    between atoms: C_13  and  O_43
   11  A    between atoms: C_16  and  C_37
   12  A    between atoms: C_17  and  C_50
   13  A    between atoms: N_19  and  C_24
   14  A    between atoms: C_22  and  C_40
   15  A    between atoms: C_28  and  C_33
   16  A    between atoms: C_34  and  C_45
   17  A    between atoms: C_39  and  C_40
   18  A    between atoms: O_43  and  C_45
                            x       y       z     vdW  Elec       q    Type
                         _______ _______ _______ _____ _____    ______ ____

>  <TORSDO>
F 18

$$$$
=
 OpenBabel11042421443D

 51 54  0  0  1  0  0  0  0  0999 V2000
  161.5360  210.3170  150.6820 C   0  0  0  0  0  0  0  0  0  0  0  0
  160.9840  208.8110  152.3350 C   0  0  0  0  0  3  0  0  0  0  0  0
  161.1730  208.8810  150.8530 C   0  0  2  0  0  3  0  0  0  0  0  0
  161.2090  210.0040  152.8770 C   0  0  0  0  0  0  0  0  0  0  0  0
  161.5540  210.9630  151.8370 C   0  0  0  0  0  3  0  0  0  0  0  0
  160.0900  214.3780  147.4490 O   0  0  0  0  0  0  0  0  0  0  0  0
  161.7990  210.9130  149.4040 N   0  0  0  0  0  2  0  0  0  0  0  0
  161.5600  212.5580  147.5820 N   0  0  0  0  0  2  0  0  0  0  0  0
  161.1560  212.0750  148.8680 C   0  0  0  0  0  0  0  0  0  0  0  0
  160.2480  212.6650  149.5150 O   0  0  0  0  0  0  0  0  0  0  0  0
  161.0150  213.7040  146.9200 C   0  0  0  0  0  0  0  0  0  0  0  0
  161.5560  214.0920  145.5830 C   0  0  0  0  0  3  0  0  0  0  0  0
  163.0750  214.1230  145.5930 C   0  0  0  0  0  2  0  0  0  0  0  0
  162.3080  213.0460  143.5560 C   0  0  0  0  0  2  0  0  0  0  0  0
  161.1470  213.0950  144.5180 C   0  0  0  0  0  2  0  0  0  0  0  0
  163.5390  213.3150  144.3940 C   0  0  0  0  0  2  0  0  0  0  0  0
  160.8570  210.7450  157.0990 C   0  0  0  0  0  3  0  0  0  0  0  0
  160.5100  211.5000  154.8120 C   0  0  0  0  0  0  0  0  0  0  0  0
  161.0860  210.3000  154.3290 C   0  0  0  0  0  0  0  0  0  0  0  0
  161.4320  209.5670  156.6270 C   0  0  0  0  0  3  0  0  0  0  0  0
  161.5450  209.3470  155.2550 C   0  0  0  0  0  3  0  0  0  0  0  0
  160.4000  211.7050  156.1970 C   0  0  0  0  0  3  0  0  0  0  0  0
  160.0680  212.4820  153.9140 O   0  0  0  0  0  0  0  0  0  0  0  0
  159.2080  213.5560  154.2840 C   0  0  0  0  0  2  0  0  0  0  0  0
  156.8950  213.0680  154.9500 C   0  0  0  0  0  3  0  0  0  0  0  0
  157.7870  213.2170  153.9700 C   0  0  0  0  0  3  0  0  0  0  0  0
  155.4710  212.7330  154.6460 C   0  0  0  0  0  2  0  0  0  0  0  0
  154.9770  213.5380  153.4590 C   0  0  0  0  0  1  0  0  0  0  0  0
  162.3320  207.9930  150.4250 C   0  0  0  0  0  2  0  0  0  0  0  0
  162.7070  207.0450  151.5480 C   0  0  0  0  0  2  0  0  0  0  0  0
  161.2450  205.4360  153.3570 O   0  0  0  0  0  0  0  0  0  0  0  0
  161.4590  204.9610  152.2090 C   0  0  0  0  0  0  0  0  0  0  0  0
  162.2030  205.7150  151.2490 N   0  0  0  0  0  2  0  0  0  0  0  0
  160.9470  203.6290  151.8560 C   0  0  0  0  0  0  0  0  0  0  0  0
  160.6830  202.7980  152.7680 O   0  0  0  0  0  0  0  0  0  0  0  0
  160.7410  203.2650  150.4190 C   0  0  0  0  0  2  0  0  0  0  0  0
  160.3690  204.3810  149.6620 O   0  0  0  0  0  0  0  0  0  0  0  0
  161.2410  204.4030  148.6250 N   0  0  0  0  0  2  0  0  0  0  0  0
  160.5220  206.4920  147.8760 O   0  0  0  0  0  0  0  0  0  0  0  0
  161.3150  205.5220  147.7410 C   0  0  0  0  0  0  0  0  0  0  0  0
  162.3320  205.5380  146.6440 C   0  0  0  0  0  2  0  0  0  0  0  0
  162.9590  204.3910  144.6340 O   0  0  0  0  0  1  0  0  0  0  0  0
  161.8530  204.8390  145.3630 C   0  0  1  0  0  0  0  0  0  0  0  0
  160.8310  201.3260  146.6620 C   0  0  0  0  0  2  0  0  0  0  0  0
  160.1080  200.9430  145.4920 O   0  0  0  0  0  0  0  0  0  0  0  0
  160.9690  203.6300  145.7390 C   0  0  2  0  0  3  0  0  0  0  0  0
  159.7310  201.8710  144.5120 C   0  0  0  0  0  3  0  0  0  0  0  0
  161.7800  202.4780  146.3420 C   0  0  0  0  0  2  0  0  0  0  0  0
  160.1360  203.1410  144.5800 C   0  0  0  0  0  3  0  0  0  0  0  0
  159.7200  205.8680  144.8760 O   0  0  0  0  0  1  0  0  0  0  0  0
  161.0640  205.8280  144.4960 C   0  0  0  0  0  2  0  0  0  0  0  0
  1  3  1  0  0  0  0
  1  5  2  0  0  0  0
  2  4  2  0  0  0  0
  3 29  1  1  0  0  0
  3  2  1  0  0  0  0
  4 19  1  0  0  0  0
  5  4  1  0  0  0  0
  7  1  1  0  0  0  0
  8  9  1  0  0  0  0
  9  7  1  0  0  0  0
  9 10  2  0  0  0  0
 11  6  2  0  0  0  0
 11  8  1  0  0  0  0
 12 13  1  0  0  0  0
 12 11  1  0  0  0  0
 14 16  1  0  0  0  0
 14 15  1  0  0  0  0
 15 12  1  0  0  0  0
 16 13  1  0  0  0  0
 18 22  1  0  0  0  0
 19 18  2  0  0  0  0
 19 21  1  0  0  0  0
 20 17  1  0  0  0  0
 21 20  2  0  0  0  0
 22 17  2  0  0  0  0
 23 24  1  0  0  0  0
 23 18  1  0  0  0  0
 26 24  1  0  0  0  0
 26 25  2  0  0  0  0
 27 25  1  0  0  0  0
 28 27  1  0  0  0  0
 29 30  1  0  0  0  0
 32 31  2  0  0  0  0
 33 30  1  0  0  0  0
 33 32  1  0  0  0  0
 34 32  1  0  0  0  0
 34 35  2  0  0  0  0
 36 34  1  0  0  0  0
 37 36  1  0  0  0  0
 38 37  1  0  0  0  0
 40 39  2  0  0  0  0
 40 38  1  0  0  0  0
 41 40  1  0  0  0  0
 43 42  1  6  0  0  0
 43 41  1  0  0  0  0
 45 44  1  0  0  0  0
 46 43  1  6  0  0  0
 46 48  1  0  0  0  0
 47 49  2  0  0  0  0
 47 45  1  0  0  0  0
 48 44  1  0  0  0  0
 49 46  1  0  0  0  0
 51 50  1  0  0  0  0
 51 43  1  0  0  0  0
M  END
>  <MODEL>
8

>  <REMARK>
 VINA RESULT:      -5.1      3.101     10.112
  Name = 
  18 active torsions:
  status: ('A' for Active; 'I' for Inactive)
    1  A    between atoms: N_3  and  C_12
    2  A    between atoms: C_4  and  C_20
    3  A    between atoms: C_4  and  C_24
    4  A    between atoms: C_6  and  C_8
    5  A    between atoms: C_7  and  C_40
    6  A    between atoms: C_7  and  C_48
    7  A    between atoms: C_8  and  C_46
    8  A    between atoms: O_11  and  N_26
    9  A    between atoms: O_11  and  C_46
   10  A    between atoms: C_13  and  O_43
   11  A    between atoms: C_16  and  C_37
   12  A    between atoms: C_17  and  C_50
   13  A    between atoms: N_19  and  C_24
   14  A    between atoms: C_22  and  C_40
   15  A    between atoms: C_28  and  C_33
   16  A    between atoms: C_34  and  C_45
   17  A    between atoms: C_39  and  C_40
   18  A    between atoms: O_43  and  C_45
                            x       y       z     vdW  Elec       q    Type
                         _______ _______ _______ _____ _____    ______ ____

>  <TORSDO>
F 18

$$$$
=
 OpenBabel11042421443D

 51 54  0  0  1  0  0  0  0  0999 V2000
  161.5450  206.5110  150.5080 C   0  0  0  0  0  0  0  0  0  0  0  0
  162.3300  208.4820  151.4050 C   0  0  0  0  0  3  0  0  0  0  0  0
  162.4850  207.6230  150.1900 C   0  0  2  0  0  3  0  0  0  0  0  0
  161.4540  207.9320  152.2400 C   0  0  0  0  0  0  0  0  0  0  0  0
  160.9560  206.6820  151.6820 C   0  0  0  0  0  3  0  0  0  0  0  0
  160.3920  201.2470  150.5070 O   0  0  0  0  0  0  0  0  0  0  0  0
  161.3430  205.3830  149.6460 N   0  0  0  0  0  2  0  0  0  0  0  0
  160.8290  203.0420  149.0650 N   0  0  0  0  0  2  0  0  0  0  0  0
  161.0290  204.0490  150.0630 C   0  0  0  0  0  0  0  0  0  0  0  0
  160.9300  203.7640  151.2870 O   0  0  0  0  0  0  0  0  0  0  0  0
  160.5080  201.6710  149.3250 C   0  0  0  0  0  0  0  0  0  0  0  0
  160.3140  200.7420  148.1720 C   0  0  0  0  0  3  0  0  0  0  0  0
  159.9100  201.5010  146.9180 C   0  0  0  0  0  2  0  0  0  0  0  0
  161.5760  199.8280  146.3450 C   0  0  0  0  0  2  0  0  0  0  0  0
  161.5950  200.0050  147.8430 C   0  0  0  0  0  2  0  0  0  0  0  0
  160.8310  201.0310  145.8060 C   0  0  0  0  0  2  0  0  0  0  0  0
  160.3200  209.4950  156.0820 C   0  0  0  0  0  3  0  0  0  0  0  0
  160.9420  209.9020  153.7650 C   0  0  0  0  0  0  0  0  0  0  0  0
  161.0790  208.5080  153.5580 C   0  0  0  0  0  0  0  0  0  0  0  0
  160.4640  208.1240  155.8850 C   0  0  0  0  0  3  0  0  0  0  0  0
  160.8390  207.6360  154.6330 C   0  0  0  0  0  3  0  0  0  0  0  0
  160.5580  210.3780  155.0300 C   0  0  0  0  0  3  0  0  0  0  0  0
  161.2000  210.8000  152.7200 O   0  0  0  0  0  0  0  0  0  0  0  0
  160.1840  211.5420  152.0510 C   0  0  0  0  0  2  0  0  0  0  0  0
  158.0810  212.4700  152.9160 C   0  0  0  0  0  3  0  0  0  0  0  0
  159.4050  212.3580  153.0310 C   0  0  0  0  0  3  0  0  0  0  0  0
  157.2930  213.2800  153.8920 C   0  0  0  0  0  2  0  0  0  0  0  0
  157.3530  212.6550  155.2740 C   0  0  0  0  0  1  0  0  0  0  0  0
  162.0110  208.3700  148.9520 C   0  0  0  0  0  2  0  0  0  0  0  0
  161.0180  207.5250  148.1780 C   0  0  0  0  0  2  0  0  0  0  0  0
  159.7160  206.2060  146.0410 O   0  0  0  0  0  0  0  0  0  0  0  0
  160.9760  206.2180  146.0270 C   0  0  0  0  0  0  0  0  0  0  0  0
  161.6990  206.8550  147.0820 N   0  0  0  0  0  2  0  0  0  0  0  0
  161.7060  205.5730  144.9250 C   0  0  0  0  0  0  0  0  0  0  0  0
  162.7500  204.9080  145.1700 O   0  0  0  0  0  0  0  0  0  0  0  0
  161.2080  205.7070  143.5200 C   0  0  0  0  0  2  0  0  0  0  0  0
  162.2510  206.0120  142.6400 O   0  0  0  0  0  0  0  0  0  0  0  0
  161.6430  206.2730  141.4580 N   0  0  0  0  0  2  0  0  0  0  0  0
  163.3570  207.6730  140.7190 O   0  0  0  0  0  0  0  0  0  0  0  0
  162.2560  207.1090  140.4760 C   0  0  0  0  0  0  0  0  0  0  0  0
  161.5840  207.3250  139.1580 C   0  0  0  0  0  2  0  0  0  0  0  0
  159.7990  208.8560  139.6290 O   0  0  0  0  0  1  0  0  0  0  0  0
  161.0340  208.7500  138.9830 C   0  0  1  0  0  0  0  0  0  0  0  0
  162.3850  211.6820  141.1380 C   0  0  0  0  0  2  0  0  0  0  0  0
  163.0330  212.3660  140.0650 O   0  0  0  0  0  0  0  0  0  0  0  0
  162.0230  209.7590  139.6050 C   0  0  2  0  0  3  0  0  0  0  0  0
  163.2670  211.7530  138.8260 C   0  0  0  0  0  3  0  0  0  0  0  0
  161.3410  210.7130  140.5930 C   0  0  0  0  0  2  0  0  0  0  0  0
  162.7880  210.5360  138.5620 C   0  0  0  0  0  3  0  0  0  0  0  0
  159.4990  208.8790  137.1200 O   0  0  0  0  0  1  0  0  0  0  0  0
  160.8350  209.0480  137.4920 C   0  0  0  0  0  2  0  0  0  0  0  0
  1  5  2  0  0  0  0
  2  4  2  0  0  0  0
  3 29  1  6  0  0  0
  3  1  1  0  0  0  0
  3  2  1  0  0  0  0
  4 19  1  0  0  0  0
  5  4  1  0  0  0  0
  7  9  1  0  0  0  0
  7  1  1  0  0  0  0
  8 11  1  0  0  0  0
  8  9  1  0  0  0  0
  9 10  2  0  0  0  0
 11  6  2  0  0  0  0
 12 11  1  0  0  0  0
 13 12  1  0  0  0  0
 14 15  1  0  0  0  0
 15 12  1  0  0  0  0
 16 14  1  0  0  0  0
 16 13  1  0  0  0  0
 18 22  1  0  0  0  0
 19 18  2  0  0  0  0
 19 21  1  0  0  0  0
 20 17  1  0  0  0  0
 21 20  2  0  0  0  0
 22 17  2  0  0  0  0
 23 18  1  0  0  0  0
 24 23  1  0  0  0  0
 24 26  1  0  0  0  0
 25 26  2  0  0  0  0
 25 27  1  0  0  0  0
 27 28  1  0  0  0  0
 30 29  1  0  0  0  0
 32 31  2  0  0  0  0
 32 33  1  0  0  0  0
 33 30  1  0  0  0  0
 34 35  2  0  0  0  0
 34 32  1  0  0  0  0
 36 34  1  0  0  0  0
 37 36  1  0  0  0  0
 38 37  1  0  0  0  0
 40 39  2  0  0  0  0
 40 38  1  0  0  0  0
 41 40  1  0  0  0  0
 43 41  1  0  0  0  0
 43 42  1  1  0  0  0
 45 44  1  0  0  0  0
 46 43  1  6  0  0  0
 46 48  1  0  0  0  0
 47 45  1  0  0  0  0
 48 44  1  0  0  0  0
 49 47  2  0  0  0  0
 49 46  1  0  0  0  0
 50 51  1  0  0  0  0
 51 43  1  0  0  0  0
M  END
>  <MODEL>
9

>  <REMARK>
 VINA RESULT:      -5.1      3.080      8.223
  Name = 
  18 active torsions:
  status: ('A' for Active; 'I' for Inactive)
    1  A    between atoms: N_3  and  C_12
    2  A    between atoms: C_4  and  C_20
    3  A    between atoms: C_4  and  C_24
    4  A    between atoms: C_6  and  C_8
    5  A    between atoms: C_7  and  C_40
    6  A    between atoms: C_7  and  C_48
    7  A    between atoms: C_8  and  C_46
    8  A    between atoms: O_11  and  N_26
    9  A    between atoms: O_11  and  C_46
   10  A    between atoms: C_13  and  O_43
   11  A    between atoms: C_16  and  C_37
   12  A    between atoms: C_17  and  C_50
   13  A    between atoms: N_19  and  C_24
   14  A    between atoms: C_22  and  C_40
   15  A    between atoms: C_28  and  C_33
   16  A    between atoms: C_34  and  C_45
   17  A    between atoms: C_39  and  C_40
   18  A    between atoms: O_43  and  C_45
                            x       y       z     vdW  Elec       q    Type
                         _______ _______ _______ _____ _____    ______ ____

>  <TORSDO>
F 18

$$$$
