=
 OpenBabel11052411493D

 40 43  0  0  1  0  0  0  0  0999 V2000
  160.8000  211.0560  152.3820 C   0  0  0  0  0  2  0  0  0  0  0  0
  160.2410  210.1620  154.5450 C   0  0  0  0  0  0  0  0  0  0  0  0
  159.8290  210.8130  153.4950 C   0  0  0  0  0  0  0  0  0  0  0  0
  160.6570  209.4910  155.5960 C   0  0  0  0  0  0  0  0  0  0  0  0
  161.1790  210.2320  156.7970 C   0  0  0  0  0  3  0  0  0  0  0  0
  160.8010  211.7020  156.7490 C   0  0  0  0  0  1  0  0  0  0  0  0
  162.6830  210.0780  156.9480 C   0  0  0  0  0  1  0  0  0  0  0  0
  160.5690  208.0080  155.6340 C   0  0  0  0  0  0  0  0  0  0  0  0
  159.7380  207.3800  156.4640 C   0  0  0  0  0  2  0  0  0  0  0  0
  161.4310  207.1790  154.7340 C   0  0  0  0  0  2  0  0  0  0  0  0
  160.6440  206.6490  153.5410 C   0  0  0  0  0  2  0  0  0  0  0  0
  162.5830  205.8000  152.5460 C   0  0  0  0  0  1  0  0  0  0  0  0
  161.2590  205.4380  153.0210 N   0  0  0  0  0  2  0  0  0  0  0  0
  158.4370  211.1420  153.3870 N   0  0  0  0  0  2  0  0  0  0  0  0
  158.3470  213.4010  154.3070 C   0  0  0  0  0  3  0  0  0  0  0  0
  157.6910  214.3970  154.9630 N   0  0  0  0  0  0  0  0  0  0  0  0
  156.4200  211.9830  154.5670 C   0  0  0  0  0  3  0  0  0  0  0  0
  155.7640  213.0150  155.2380 C   0  0  0  0  0  3  0  0  0  0  0  0
  156.4250  214.2290  155.4290 C   0  0  0  0  0  3  0  0  0  0  0  0
  157.7270  212.1650  154.1000 C   0  0  0  0  0  0  0  0  0  0  0  0
  161.8220  209.9340  152.3130 C   0  0  2  0  0  3  0  0  0  0  0  0
  162.9540  210.2860  153.0510 O   0  0  0  0  0  1  0  0  0  0  0  0
  162.1990  209.6800  150.8610 C   0  0  0  0  0  2  0  0  0  0  0  0
  161.4520  208.4760  150.3120 C   0  0  0  0  0  2  0  0  0  0  0  0
  162.2300  207.8640  149.1650 C   0  0  0  0  0  2  0  0  0  0  0  0
  161.2710  207.2590  148.1600 C   0  0  0  0  0  2  0  0  0  0  0  0
  160.8180  200.9620  147.2550 N   0  0  0  0  0  0  0  0  0  0  0  0
  161.0980  203.8880  149.6640 C   0  0  0  0  0  3  0  0  0  0  0  0
  161.2190  203.9930  144.9610 C   0  0  0  0  0  2  0  0  0  0  0  0
  161.3010  205.8090  148.2650 N   0  0  0  0  0  0  0  0  0  0  0  0
  161.3180  205.3550  145.7130 C   0  0  1  0  0  3  0  0  0  0  0  0
  160.7200  200.8550  149.7260 C   0  0  0  0  0  1  0  0  0  0  0  0
  161.1780  202.9880  146.0700 C   0  0  0  0  0  0  0  0  0  0  0  0
  160.9310  201.6150  146.0550 C   0  0  0  0  0  3  0  0  0  0  0  0
  161.1760  205.1900  149.5320 N   0  0  0  0  0  0  0  0  0  0  0  0
  161.4340  204.9970  147.1250 N   0  0  0  0  0  0  0  0  0  0  0  0
  160.9030  201.6170  148.4590 C   0  0  0  0  0  0  0  0  0  0  0  0
  162.4640  206.0350  145.3050 O   0  0  0  0  0  1  0  0  0  0  0  0
  161.3020  203.6200  147.2540 C   0  0  0  0  0  0  0  0  0  0  0  0
  161.1270  203.0070  148.4720 C   0  0  0  0  0  0  0  0  0  0  0  0
  1  3  1  0  0  0  0
  2  4  2  0  0  0  0
  3  2  2  0  0  0  0
  4  8  1  0  0  0  0
  4  5  1  0  0  0  0
  5  7  1  0  0  0  0
  6  5  1  0  0  0  0
  8  9  2  0  0  0  0
 10  8  1  0  0  0  0
 11 10  1  0  0  0  0
 12 13  1  0  0  0  0
 13 11  1  0  0  0  0
 14  3  1  0  0  0  0
 14 20  1  0  0  0  0
 15 16  1  0  0  0  0
 16 19  2  0  0  0  0
 17 18  2  0  0  0  0
 18 19  1  0  0  0  0
 20 15  2  0  0  0  0
 20 17  1  0  0  0  0
 21  1  1  0  0  0  0
 21 22  1  1  0  0  0
 23 21  1  0  0  0  0
 24 23  1  0  0  0  0
 25 24  1  0  0  0  0
 26 30  1  0  0  0  0
 26 25  1  0  0  0  0
 27 37  1  0  0  0  0
 29 31  1  0  0  0  0
 29 33  1  0  0  0  0
 30 35  1  0  0  0  0
 31 38  1  6  0  0  0
 31 36  1  0  0  0  0
 33 39  2  0  0  0  0
 34 33  1  0  0  0  0
 34 27  2  0  0  0  0
 35 28  2  0  0  0  0
 36 39  1  0  0  0  0
 36 30  1  0  0  0  0
 37 40  2  0  0  0  0
 37 32  1  0  0  0  0
 39 40  1  0  0  0  0
 40 28  1  0  0  0  0
M  END
>  <MODEL>
1

>  <REMARK>
 VINA RESULT:      -7.4      0.000      0.000
  Name = 
  14 active torsions:
  status: ('A' for Active; 'I' for Inactive)
    1  A    between atoms: C_2  and  C_39
    2  A    between atoms: C_7  and  C_8
    3  A    between atoms: C_7  and  C_31
    4  A    between atoms: C_8  and  C_40
    5  A    between atoms: C_9  and  N_11
    6  A    between atoms: C_9  and  C_37
    7  A    between atoms: C_13  and  C_37
    8  A    between atoms: C_13  and  C_39
    9  A    between atoms: C_14  and  C_30
   10  A    between atoms: C_14  and  C_38
   11  A    between atoms: N_16  and  C_30
   12  A    between atoms: N_20  and  C_31
   13  A    between atoms: N_20  and  C_34
   14  A    between atoms: C_38  and  C_40
                            x       y       z     vdW  Elec       q    Type
                         _______ _______ _______ _____ _____    ______ ____

>  <TORSDO>
F 14

$$$$
=
 OpenBabel11052411493D

 40 43  0  0  1  0  0  0  0  0999 V2000
  159.6300  210.7580  152.5740 C   0  0  0  0  0  2  0  0  0  0  0  0
  158.6330  212.1430  154.2710 C   0  0  0  0  0  0  0  0  0  0  0  0
  159.2200  212.0930  153.1090 C   0  0  0  0  0  0  0  0  0  0  0  0
  158.0260  212.1850  155.4360 C   0  0  0  0  0  0  0  0  0  0  0  0
  158.8280  212.4160  156.6880 C   0  0  0  0  0  3  0  0  0  0  0  0
  159.9540  213.4050  156.4500 C   0  0  0  0  0  1  0  0  0  0  0  0
  159.3760  211.1170  157.2550 C   0  0  0  0  0  1  0  0  0  0  0  0
  156.5480  212.0610  155.5270 C   0  0  0  0  0  0  0  0  0  0  0  0
  155.9390  210.8810  155.4290 C   0  0  0  0  0  2  0  0  0  0  0  0
  155.7010  213.2800  155.7240 C   0  0  0  0  0  2  0  0  0  0  0  0
  155.7150  214.1730  154.4890 C   0  0  0  0  0  2  0  0  0  0  0  0
  154.9370  214.4330  152.2980 C   0  0  0  0  0  1  0  0  0  0  0  0
  155.2180  213.4490  153.3290 N   0  0  0  0  0  2  0  0  0  0  0  0
  159.3220  213.2970  152.3350 N   0  0  0  0  0  2  0  0  0  0  0  0
  160.2050  213.2380  150.0600 C   0  0  0  0  0  3  0  0  0  0  0  0
  160.0430  213.3490  148.7140 N   0  0  0  0  0  0  0  0  0  0  0  0
  157.8730  213.7440  150.3680 C   0  0  0  0  0  3  0  0  0  0  0  0
  157.7250  213.8550  148.9850 C   0  0  0  0  0  3  0  0  0  0  0  0
  158.8370  213.6530  148.1650 C   0  0  0  0  0  3  0  0  0  0  0  0
  159.1230  213.4410  150.9210 C   0  0  0  0  0  0  0  0  0  0  0  0
  160.4420  209.9970  153.6090 C   0  0  2  0  0  3  0  0  0  0  0  0
  161.5900  210.7250  153.9300 O   0  0  0  0  0  1  0  0  0  0  0  0
  160.8240  208.6330  153.0510 C   0  0  0  0  0  2  0  0  0  0  0  0
  161.8920  208.7690  151.9790 C   0  0  0  0  0  2  0  0  0  0  0  0
  162.1000  207.4370  151.2850 C   0  0  0  0  0  2  0  0  0  0  0  0
  160.7890  206.9580  150.6950 C   0  0  0  0  0  2  0  0  0  0  0  0
  161.3010  202.2640  146.4070 N   0  0  0  0  0  0  0  0  0  0  0  0
  160.8840  203.3230  150.0330 C   0  0  0  0  0  3  0  0  0  0  0  0
  161.5760  206.0740  146.2780 C   0  0  0  0  0  2  0  0  0  0  0  0
  161.0010  205.7050  149.9870 N   0  0  0  0  0  0  0  0  0  0  0  0
  161.3960  206.7750  147.6600 C   0  0  1  0  0  3  0  0  0  0  0  0
  160.9120  200.7750  148.3450 C   0  0  0  0  0  1  0  0  0  0  0  0
  161.5320  204.6170  146.6210 C   0  0  0  0  0  0  0  0  0  0  0  0
  161.4750  203.4850  145.8090 C   0  0  0  0  0  3  0  0  0  0  0  0
  160.8030  204.4740  150.6560 N   0  0  0  0  0  0  0  0  0  0  0  0
  161.3830  205.6860  148.6330 N   0  0  0  0  0  0  0  0  0  0  0  0
  161.1470  202.1270  147.7640 C   0  0  0  0  0  0  0  0  0  0  0  0
  162.4830  207.6120  147.9060 O   0  0  0  0  0  1  0  0  0  0  0  0
  161.4210  204.4740  147.9570 C   0  0  0  0  0  0  0  0  0  0  0  0
  161.1800  203.2730  148.5810 C   0  0  0  0  0  0  0  0  0  0  0  0
  1  3  1  0  0  0  0
  1 21  1  0  0  0  0
  2  4  2  0  0  0  0
  3  2  2  0  0  0  0
  4  8  1  0  0  0  0
  4  5  1  0  0  0  0
  5  7  1  0  0  0  0
  6  5  1  0  0  0  0
  8 10  1  0  0  0  0
  9  8  2  0  0  0  0
 11 10  1  0  0  0  0
 12 13  1  0  0  0  0
 13 11  1  0  0  0  0
 14  3  1  0  0  0  0
 15 20  1  0  0  0  0
 16 15  2  0  0  0  0
 17 20  2  0  0  0  0
 18 17  1  0  0  0  0
 19 16  1  0  0  0  0
 19 18  2  0  0  0  0
 20 14  1  0  0  0  0
 21 22  1  6  0  0  0
 23 21  1  0  0  0  0
 24 23  1  0  0  0  0
 25 24  1  0  0  0  0
 26 25  1  0  0  0  0
 27 37  1  0  0  0  0
 28 35  2  0  0  0  0
 29 33  1  0  0  0  0
 29 31  1  0  0  0  0
 30 35  1  0  0  0  0
 30 26  1  0  0  0  0
 31 38  1  1  0  0  0
 31 36  1  0  0  0  0
 33 39  2  0  0  0  0
 34 27  2  0  0  0  0
 34 33  1  0  0  0  0
 36 30  1  0  0  0  0
 37 32  1  0  0  0  0
 37 40  2  0  0  0  0
 39 40  1  0  0  0  0
 39 36  1  0  0  0  0
 40 28  1  0  0  0  0
M  END
>  <MODEL>
2

>  <REMARK>
 VINA RESULT:      -7.2      2.276      4.422
  Name = 
  14 active torsions:
  status: ('A' for Active; 'I' for Inactive)
    1  A    between atoms: C_2  and  C_39
    2  A    between atoms: C_7  and  C_8
    3  A    between atoms: C_7  and  C_31
    4  A    between atoms: C_8  and  C_40
    5  A    between atoms: C_9  and  N_11
    6  A    between atoms: C_9  and  C_37
    7  A    between atoms: C_13  and  C_37
    8  A    between atoms: C_13  and  C_39
    9  A    between atoms: C_14  and  C_30
   10  A    between atoms: C_14  and  C_38
   11  A    between atoms: N_16  and  C_30
   12  A    between atoms: N_20  and  C_31
   13  A    between atoms: N_20  and  C_34
   14  A    between atoms: C_38  and  C_40
                            x       y       z     vdW  Elec       q    Type
                         _______ _______ _______ _____ _____    ______ ____

>  <TORSDO>
F 14

$$$$
=
 OpenBabel11052411493D

 40 43  0  0  1  0  0  0  0  0999 V2000
  160.0270  210.3240  152.3800 C   0  0  0  0  0  2  0  0  0  0  0  0
  159.5330  211.8180  154.2010 C   0  0  0  0  0  0  0  0  0  0  0  0
  159.9300  211.6970  152.9670 C   0  0  0  0  0  0  0  0  0  0  0  0
  159.1160  211.9340  155.4430 C   0  0  0  0  0  0  0  0  0  0  0  0
  160.1170  211.9990  156.5640 C   0  0  0  0  0  3  0  0  0  0  0  0
  160.4130  213.4340  156.9600 C   0  0  0  0  0  1  0  0  0  0  0  0
  161.4050  211.2720  156.2140 C   0  0  0  0  0  1  0  0  0  0  0  0
  157.6670  212.0570  155.7490 C   0  0  0  0  0  0  0  0  0  0  0  0
  157.1830  211.7770  156.9570 C   0  0  0  0  0  2  0  0  0  0  0  0
  156.7080  212.4960  154.6860 C   0  0  0  0  0  2  0  0  0  0  0  0
  155.4360  213.0800  155.2900 C   0  0  0  0  0  2  0  0  0  0  0  0
  154.8760  213.9490  153.1910 C   0  0  0  0  0  1  0  0  0  0  0  0
  155.0500  214.2960  154.5910 N   0  0  0  0  0  2  0  0  0  0  0  0
  160.1200  212.8840  152.1830 N   0  0  0  0  0  2  0  0  0  0  0  0
  158.0530  213.2760  150.9450 C   0  0  0  0  0  3  0  0  0  0  0  0
  157.3900  213.6270  149.8100 N   0  0  0  0  0  0  0  0  0  0  0  0
  160.1470  213.5850  149.8010 C   0  0  0  0  0  3  0  0  0  0  0  0
  159.4510  213.9420  148.6450 C   0  0  0  0  0  3  0  0  0  0  0  0
  158.0560  213.9560  148.6700 C   0  0  0  0  0  3  0  0  0  0  0  0
  159.4500  213.2390  150.9650 C   0  0  0  0  0  0  0  0  0  0  0  0
  161.0690  209.5030  153.1200 C   0  0  2  0  0  3  0  0  0  0  0  0
  162.2220  209.3960  152.3380 O   0  0  0  0  0  1  0  0  0  0  0  0
  160.5070  208.1210  153.4190 C   0  0  0  0  0  2  0  0  0  0  0  0
  161.6130  207.1690  153.8450 C   0  0  0  0  0  2  0  0  0  0  0  0
  161.9120  206.1910  152.7260 C   0  0  0  0  0  2  0  0  0  0  0  0
  160.8110  206.2510  151.6870 C   0  0  0  0  0  2  0  0  0  0  0  0
  161.2630  202.7240  146.3910 N   0  0  0  0  0  0  0  0  0  0  0  0
  160.9220  202.8810  150.1730 C   0  0  0  0  0  3  0  0  0  0  0  0
  161.5020  206.4590  147.1710 C   0  0  0  0  0  2  0  0  0  0  0  0
  161.0170  205.2060  150.6960 N   0  0  0  0  0  0  0  0  0  0  0  0
  161.3490  206.8070  148.6840 C   0  0  1  0  0  3  0  0  0  0  0  0
  160.9320  200.8100  147.9250 C   0  0  0  0  0  1  0  0  0  0  0  0
  161.4780  204.9620  147.1570 C   0  0  0  0  0  0  0  0  0  0  0  0
  161.4130  204.0550  146.0990 C   0  0  0  0  0  3  0  0  0  0  0  0
  160.8450  203.8480  151.0550 N   0  0  0  0  0  0  0  0  0  0  0  0
  161.3670  205.5170  149.3690 N   0  0  0  0  0  0  0  0  0  0  0  0
  161.1420  202.2650  147.6800 C   0  0  0  0  0  0  0  0  0  0  0  0
  162.4340  207.5760  149.1000 O   0  0  0  0  0  1  0  0  0  0  0  0
  161.4000  204.5020  148.4220 C   0  0  0  0  0  0  0  0  0  0  0  0
  161.1840  203.1830  148.7460 C   0  0  0  0  0  0  0  0  0  0  0  0
  1  3  1  0  0  0  0
  1 21  1  0  0  0  0
  2  4  2  0  0  0  0
  3  2  2  0  0  0  0
  4  8  1  0  0  0  0
  4  5  1  0  0  0  0
  5  6  1  0  0  0  0
  7  5  1  0  0  0  0
  8  9  2  0  0  0  0
 10 11  1  0  0  0  0
 10  8  1  0  0  0  0
 12 13  1  0  0  0  0
 13 11  1  0  0  0  0
 14  3  1  0  0  0  0
 15 20  1  0  0  0  0
 16 15  2  0  0  0  0
 17 20  2  0  0  0  0
 18 19  2  0  0  0  0
 18 17  1  0  0  0  0
 19 16  1  0  0  0  0
 20 14  1  0  0  0  0
 21 22  1  6  0  0  0
 21 23  1  0  0  0  0
 23 24  1  0  0  0  0
 25 24  1  0  0  0  0
 26 25  1  0  0  0  0
 27 37  1  0  0  0  0
 28 35  2  0  0  0  0
 29 31  1  0  0  0  0
 30 35  1  0  0  0  0
 30 26  1  0  0  0  0
 31 38  1  1  0  0  0
 31 36  1  0  0  0  0
 33 29  1  0  0  0  0
 33 39  2  0  0  0  0
 34 27  2  0  0  0  0
 34 33  1  0  0  0  0
 36 30  1  0  0  0  0
 37 32  1  0  0  0  0
 37 40  2  0  0  0  0
 39 40  1  0  0  0  0
 39 36  1  0  0  0  0
 40 28  1  0  0  0  0
M  END
>  <MODEL>
3

>  <REMARK>
 VINA RESULT:      -6.9      2.220      4.432
  Name = 
  14 active torsions:
  status: ('A' for Active; 'I' for Inactive)
    1  A    between atoms: C_2  and  C_39
    2  A    between atoms: C_7  and  C_8
    3  A    between atoms: C_7  and  C_31
    4  A    between atoms: C_8  and  C_40
    5  A    between atoms: C_9  and  N_11
    6  A    between atoms: C_9  and  C_37
    7  A    between atoms: C_13  and  C_37
    8  A    between atoms: C_13  and  C_39
    9  A    between atoms: C_14  and  C_30
   10  A    between atoms: C_14  and  C_38
   11  A    between atoms: N_16  and  C_30
   12  A    between atoms: N_20  and  C_31
   13  A    between atoms: N_20  and  C_34
   14  A    between atoms: C_38  and  C_40
                            x       y       z     vdW  Elec       q    Type
                         _______ _______ _______ _____ _____    ______ ____

>  <TORSDO>
F 14

$$$$
=
 OpenBabel11052411493D

 40 43  0  0  1  0  0  0  0  0999 V2000
  160.0360  209.4190  152.4220 C   0  0  0  0  0  2  0  0  0  0  0  0
  160.2750  210.7670  154.4010 C   0  0  0  0  0  0  0  0  0  0  0  0
  160.4270  210.6880  153.1100 C   0  0  0  0  0  0  0  0  0  0  0  0
  160.1050  210.8460  155.7020 C   0  0  0  0  0  0  0  0  0  0  0  0
  161.2430  210.5070  156.6270 C   0  0  0  0  0  3  0  0  0  0  0  0
  162.5790  210.9150  156.0340 C   0  0  0  0  0  1  0  0  0  0  0  0
  161.2540  209.0320  156.9910 C   0  0  0  0  0  1  0  0  0  0  0  0
  158.8170  211.3190  156.2720 C   0  0  0  0  0  0  0  0  0  0  0  0
  158.7760  212.2120  157.2590 C   0  0  0  0  0  2  0  0  0  0  0  0
  157.5200  210.7870  155.7460 C   0  0  0  0  0  2  0  0  0  0  0  0
  156.3530  211.6950  156.1150 C   0  0  0  0  0  2  0  0  0  0  0  0
  156.3020  213.3650  154.4770 C   0  0  0  0  0  1  0  0  0  0  0  0
  155.6550  212.1420  154.9200 N   0  0  0  0  0  2  0  0  0  0  0  0
  160.8260  211.8630  152.3890 N   0  0  0  0  0  2  0  0  0  0  0  0
  160.5930  212.9840  150.2330 C   0  0  0  0  0  3  0  0  0  0  0  0
  159.8630  213.6920  149.3290 N   0  0  0  0  0  0  0  0  0  0  0  0
  158.7160  212.9990  151.7390 C   0  0  0  0  0  3  0  0  0  0  0  0
  157.9820  213.7260  150.8010 C   0  0  0  0  0  3  0  0  0  0  0  0
  158.5820  214.0680  149.5870 C   0  0  0  0  0  3  0  0  0  0  0  0
  160.0380  212.6270  151.4650 C   0  0  0  0  0  0  0  0  0  0  0  0
  161.1880  208.4270  152.4420 C   0  0  2  0  0  3  0  0  0  0  0  0
  161.4670  208.0090  151.1390 O   0  0  0  0  0  1  0  0  0  0  0  0
  160.8150  207.2340  153.3090 C   0  0  0  0  0  2  0  0  0  0  0  0
  161.6550  206.0200  152.9480 C   0  0  0  0  0  2  0  0  0  0  0  0
  160.7940  204.9810  152.2590 C   0  0  0  0  0  2  0  0  0  0  0  0
  161.6730  204.0020  151.5090 C   0  0  0  0  0  2  0  0  0  0  0  0
  161.0900  203.1080  145.2200 N   0  0  0  0  0  0  0  0  0  0  0  0
  161.4170  205.5120  148.1450 C   0  0  0  0  0  3  0  0  0  0  0  0
  161.0180  200.8260  148.2860 C   0  0  0  0  0  2  0  0  0  0  0  0
  161.4260  204.1180  150.0800 N   0  0  0  0  0  0  0  0  0  0  0  0
  161.1790  201.5740  149.6450 C   0  0  1  0  0  3  0  0  0  0  0  0
  161.3250  205.5690  145.0900 C   0  0  0  0  0  1  0  0  0  0  0  0
  160.9730  201.9360  147.2820 C   0  0  0  0  0  0  0  0  0  0  0  0
  161.0030  201.9140  145.8880 C   0  0  0  0  0  3  0  0  0  0  0  0
  161.5330  205.3780  149.4440 N   0  0  0  0  0  0  0  0  0  0  0  0
  161.0970  202.9920  149.3030 N   0  0  0  0  0  0  0  0  0  0  0  0
  161.1830  204.3100  145.8770 C   0  0  0  0  0  0  0  0  0  0  0  0
  160.1270  201.2350  150.4950 O   0  0  0  0  0  1  0  0  0  0  0  0
  161.0230  203.1220  147.9220 C   0  0  0  0  0  0  0  0  0  0  0  0
  161.1770  204.3300  147.2840 C   0  0  0  0  0  0  0  0  0  0  0  0
  1 21  1  0  0  0  0
  1  3  1  0  0  0  0
  2  4  2  0  0  0  0
  3  2  2  0  0  0  0
  4  8  1  0  0  0  0
  4  5  1  0  0  0  0
  5  7  1  0  0  0  0
  6  5  1  0  0  0  0
  8  9  2  0  0  0  0
 10 11  1  0  0  0  0
 10  8  1  0  0  0  0
 12 13  1  0  0  0  0
 13 11  1  0  0  0  0
 14  3  1  0  0  0  0
 15 20  1  0  0  0  0
 16 19  1  0  0  0  0
 16 15  2  0  0  0  0
 18 17  1  0  0  0  0
 19 18  2  0  0  0  0
 20 17  2  0  0  0  0
 20 14  1  0  0  0  0
 21 22  1  6  0  0  0
 21 23  1  0  0  0  0
 24 23  1  0  0  0  0
 25 24  1  0  0  0  0
 26 25  1  0  0  0  0
 27 37  2  0  0  0  0
 27 34  1  0  0  0  0
 28 35  2  0  0  0  0
 29 31  1  0  0  0  0
 30 26  1  0  0  0  0
 31 38  1  1  0  0  0
 32 37  1  0  0  0  0
 33 39  1  0  0  0  0
 33 29  1  0  0  0  0
 34 33  2  0  0  0  0
 35 30  1  0  0  0  0
 36 31  1  0  0  0  0
 36 30  1  0  0  0  0
 37 40  1  0  0  0  0
 39 36  1  0  0  0  0
 40 39  2  0  0  0  0
 40 28  1  0  0  0  0
M  END
>  <MODEL>
4

>  <REMARK>
 VINA RESULT:      -6.6      2.350      4.338
  Name = 
  14 active torsions:
  status: ('A' for Active; 'I' for Inactive)
    1  A    between atoms: C_2  and  C_39
    2  A    between atoms: C_7  and  C_8
    3  A    between atoms: C_7  and  C_31
    4  A    between atoms: C_8  and  C_40
    5  A    between atoms: C_9  and  N_11
    6  A    between atoms: C_9  and  C_37
    7  A    between atoms: C_13  and  C_37
    8  A    between atoms: C_13  and  C_39
    9  A    between atoms: C_14  and  C_30
   10  A    between atoms: C_14  and  C_38
   11  A    between atoms: N_16  and  C_30
   12  A    between atoms: N_20  and  C_31
   13  A    between atoms: N_20  and  C_34
   14  A    between atoms: C_38  and  C_40
                            x       y       z     vdW  Elec       q    Type
                         _______ _______ _______ _____ _____    ______ ____

>  <TORSDO>
F 14

$$$$
=
 OpenBabel11052411493D

 40 43  0  0  1  0  0  0  0  0999 V2000
  159.8390  210.7250  152.6980 C   0  0  0  0  0  2  0  0  0  0  0  0
  159.0200  212.2610  154.3600 C   0  0  0  0  0  0  0  0  0  0  0  0
  159.5200  212.1100  153.1670 C   0  0  0  0  0  0  0  0  0  0  0  0
  158.5000  212.4050  155.5590 C   0  0  0  0  0  0  0  0  0  0  0  0
  159.3980  212.6830  156.7340 C   0  0  0  0  0  3  0  0  0  0  0  0
  159.7630  214.1530  156.8170 C   0  0  0  0  0  1  0  0  0  0  0  0
  160.6540  211.8270  156.7000 C   0  0  0  0  0  1  0  0  0  0  0  0
  157.0290  212.3520  155.7600 C   0  0  0  0  0  0  0  0  0  0  0  0
  156.4950  211.9370  156.9070 C   0  0  0  0  0  2  0  0  0  0  0  0
  156.1030  212.7620  154.6560 C   0  0  0  0  0  2  0  0  0  0  0  0
  156.5340  214.0820  154.0280 C   0  0  0  0  0  2  0  0  0  0  0  0
  154.2810  214.3920  153.4790 C   0  0  0  0  0  1  0  0  0  0  0  0
  155.6330  214.4520  152.9480 N   0  0  0  0  0  2  0  0  0  0  0  0
  159.6130  213.2540  152.3070 N   0  0  0  0  0  2  0  0  0  0  0  0
  157.8460  213.1330  150.6270 C   0  0  0  0  0  3  0  0  0  0  0  0
  157.4130  213.2360  149.3410 N   0  0  0  0  0  0  0  0  0  0  0  0
  160.0740  213.6900  149.9060 C   0  0  0  0  0  3  0  0  0  0  0  0
  159.6120  213.7900  148.5930 C   0  0  0  0  0  3  0  0  0  0  0  0
  158.2620  213.5560  148.3280 C   0  0  0  0  0  3  0  0  0  0  0  0
  159.1910  213.3500  150.9390 C   0  0  0  0  0  0  0  0  0  0  0  0
  160.8350  210.0620  153.6350 C   0  0  2  0  0  3  0  0  0  0  0  0
  162.0710  209.9450  152.9950 O   0  0  0  0  0  1  0  0  0  0  0  0
  160.3170  208.6880  154.0350 C   0  0  0  0  0  2  0  0  0  0  0  0
  161.2130  207.5920  153.4800 C   0  0  0  0  0  2  0  0  0  0  0  0
  160.9570  207.4170  151.9970 C   0  0  0  0  0  2  0  0  0  0  0  0
  162.2110  206.9040  151.3180 C   0  0  0  0  0  2  0  0  0  0  0  0
  161.0520  202.5960  146.7600 N   0  0  0  0  0  0  0  0  0  0  0  0
  161.7710  206.2040  147.7160 C   0  0  0  0  0  3  0  0  0  0  0  0
  161.0920  202.5330  150.5810 C   0  0  0  0  0  2  0  0  0  0  0  0
  161.8530  206.1950  150.1000 N   0  0  0  0  0  0  0  0  0  0  0  0
  161.4120  203.9090  151.2400 C   0  0  1  0  0  3  0  0  0  0  0  0
  161.4290  204.4890  145.2090 C   0  0  0  0  0  1  0  0  0  0  0  0
  161.0340  202.8540  149.1200 C   0  0  0  0  0  0  0  0  0  0  0  0
  160.9460  202.0250  148.0010 C   0  0  0  0  0  3  0  0  0  0  0  0
  161.9860  206.8360  148.8450 N   0  0  0  0  0  0  0  0  0  0  0  0
  161.3910  204.8670  150.1370 N   0  0  0  0  0  0  0  0  0  0  0  0
  161.2740  203.9400  146.5860 C   0  0  0  0  0  0  0  0  0  0  0  0
  160.4160  204.2310  152.1610 O   0  0  0  0  0  1  0  0  0  0  0  0
  161.2110  204.1790  148.9440 C   0  0  0  0  0  0  0  0  0  0  0  0
  161.3870  204.7720  147.7160 C   0  0  0  0  0  0  0  0  0  0  0  0
  1  3  1  0  0  0  0
  1 21  1  0  0  0  0
  2  4  2  0  0  0  0
  3  2  2  0  0  0  0
  4  8  1  0  0  0  0
  4  5  1  0  0  0  0
  5  6  1  0  0  0  0
  7  5  1  0  0  0  0
  8  9  2  0  0  0  0
 10  8  1  0  0  0  0
 11 10  1  0  0  0  0
 13 12  1  0  0  0  0
 13 11  1  0  0  0  0
 14  3  1  0  0  0  0
 15 20  1  0  0  0  0
 16 15  2  0  0  0  0
 17 20  2  0  0  0  0
 18 17  1  0  0  0  0
 19 18  2  0  0  0  0
 19 16  1  0  0  0  0
 20 14  1  0  0  0  0
 21 22  1  6  0  0  0
 21 23  1  0  0  0  0
 24 23  1  0  0  0  0
 25 24  1  0  0  0  0
 26 25  1  0  0  0  0
 27 34  1  0  0  0  0
 28 35  2  0  0  0  0
 29 31  1  0  0  0  0
 30 36  1  0  0  0  0
 30 26  1  0  0  0  0
 31 38  1  1  0  0  0
 32 37  1  0  0  0  0
 33 29  1  0  0  0  0
 34 33  2  0  0  0  0
 35 30  1  0  0  0  0
 36 31  1  0  0  0  0
 37 27  2  0  0  0  0
 37 40  1  0  0  0  0
 39 33  1  0  0  0  0
 39 36  1  0  0  0  0
 40 28  1  0  0  0  0
 40 39  2  0  0  0  0
M  END
>  <MODEL>
5

>  <REMARK>
 VINA RESULT:      -6.5      2.411      4.949
  Name = 
  14 active torsions:
  status: ('A' for Active; 'I' for Inactive)
    1  A    between atoms: C_2  and  C_39
    2  A    between atoms: C_7  and  C_8
    3  A    between atoms: C_7  and  C_31
    4  A    between atoms: C_8  and  C_40
    5  A    between atoms: C_9  and  N_11
    6  A    between atoms: C_9  and  C_37
    7  A    between atoms: C_13  and  C_37
    8  A    between atoms: C_13  and  C_39
    9  A    between atoms: C_14  and  C_30
   10  A    between atoms: C_14  and  C_38
   11  A    between atoms: N_16  and  C_30
   12  A    between atoms: N_20  and  C_31
   13  A    between atoms: N_20  and  C_34
   14  A    between atoms: C_38  and  C_40
                            x       y       z     vdW  Elec       q    Type
                         _______ _______ _______ _____ _____    ______ ____

>  <TORSDO>
F 14

$$$$
=
 OpenBabel11052411493D

 40 43  0  0  1  0  0  0  0  0999 V2000
  160.5030  208.2480  152.7190 C   0  0  0  0  0  2  0  0  0  0  0  0
  160.4110  210.3930  153.8060 C   0  0  0  0  0  0  0  0  0  0  0  0
  160.9820  209.6540  152.8990 C   0  0  0  0  0  0  0  0  0  0  0  0
  159.8200  211.1390  154.7140 C   0  0  0  0  0  0  0  0  0  0  0  0
  160.3970  211.2270  156.1000 C   0  0  0  0  0  3  0  0  0  0  0  0
  161.9030  211.4120  156.0620 C   0  0  0  0  0  1  0  0  0  0  0  0
  160.0350  210.0150  156.9420 C   0  0  0  0  0  1  0  0  0  0  0  0
  158.6160  211.9400  154.3710 C   0  0  0  0  0  0  0  0  0  0  0  0
  158.7150  213.1890  153.9170 C   0  0  0  0  0  2  0  0  0  0  0  0
  157.2480  211.3550  154.5400 C   0  0  0  0  0  2  0  0  0  0  0  0
  156.8390  211.3120  156.0080 C   0  0  0  0  0  2  0  0  0  0  0  0
  155.9080  213.4240  156.3870 C   0  0  0  0  0  1  0  0  0  0  0  0
  155.5840  212.0190  156.2090 N   0  0  0  0  0  2  0  0  0  0  0  0
  161.9410  210.2580  152.0200 N   0  0  0  0  0  2  0  0  0  0  0  0
  162.2370  210.7030  149.6380 C   0  0  0  0  0  3  0  0  0  0  0  0
  161.9880  211.4400  148.5220 N   0  0  0  0  0  0  0  0  0  0  0  0
  160.8440  212.1930  150.9150 C   0  0  0  0  0  3  0  0  0  0  0  0
  160.6010  212.9380  149.7610 C   0  0  0  0  0  3  0  0  0  0  0  0
  161.1900  212.5410  148.5600 C   0  0  0  0  0  3  0  0  0  0  0  0
  161.6760  211.0680  150.8650 C   0  0  0  0  0  0  0  0  0  0  0  0
  160.6220  207.4750  154.0220 C   0  0  2  0  0  3  0  0  0  0  0  0
  161.6460  208.0230  154.7980 O   0  0  0  0  0  1  0  0  0  0  0  0
  160.9160  206.0130  153.7200 C   0  0  0  0  0  2  0  0  0  0  0  0
  162.0860  205.8860  152.7570 C   0  0  0  0  0  2  0  0  0  0  0  0
  161.9700  204.5960  151.9700 C   0  0  0  0  0  2  0  0  0  0  0  0
  160.6570  204.5750  151.2140 C   0  0  0  0  0  2  0  0  0  0  0  0
  161.0610  203.3930  144.9590 N   0  0  0  0  0  0  0  0  0  0  0  0
  160.8110  202.0610  148.5100 C   0  0  0  0  0  3  0  0  0  0  0  0
  161.2300  206.5390  147.1240 C   0  0  0  0  0  2  0  0  0  0  0  0
  160.8630  204.0040  149.8920 N   0  0  0  0  0  0  0  0  0  0  0  0
  161.1060  206.2680  148.6550 C   0  0  1  0  0  3  0  0  0  0  0  0
  160.8140  201.0240  145.6340 C   0  0  0  0  0  1  0  0  0  0  0  0
  161.2410  205.1640  146.5300 C   0  0  0  0  0  0  0  0  0  0  0  0
  161.1710  204.7370  145.2040 C   0  0  0  0  0  3  0  0  0  0  0  0
  160.7330  202.6070  149.6990 N   0  0  0  0  0  0  0  0  0  0  0  0
  161.1720  204.8150  148.7860 N   0  0  0  0  0  0  0  0  0  0  0  0
  160.9830  202.4660  145.9700 C   0  0  0  0  0  0  0  0  0  0  0  0
  162.1820  206.8500  149.3230 O   0  0  0  0  0  1  0  0  0  0  0  0
  161.2060  204.2480  147.5190 C   0  0  0  0  0  0  0  0  0  0  0  0
  161.0300  202.9000  147.3080 C   0  0  0  0  0  0  0  0  0  0  0  0
  1  3  1  0  0  0  0
  1 21  1  0  0  0  0
  2  4  2  0  0  0  0
  3  2  2  0  0  0  0
  4  5  1  0  0  0  0
  5  7  1  0  0  0  0
  6  5  1  0  0  0  0
  8 10  1  0  0  0  0
  8  4  1  0  0  0  0
  9  8  2  0  0  0  0
 10 11  1  0  0  0  0
 11 13  1  0  0  0  0
 13 12  1  0  0  0  0
 14  3  1  0  0  0  0
 15 20  1  0  0  0  0
 16 19  1  0  0  0  0
 16 15  2  0  0  0  0
 18 17  1  0  0  0  0
 19 18  2  0  0  0  0
 20 17  2  0  0  0  0
 20 14  1  0  0  0  0
 21 22  1  1  0  0  0
 23 21  1  0  0  0  0
 24 23  1  0  0  0  0
 25 24  1  0  0  0  0
 26 25  1  0  0  0  0
 27 34  2  0  0  0  0
 27 37  1  0  0  0  0
 28 35  2  0  0  0  0
 29 31  1  0  0  0  0
 30 26  1  0  0  0  0
 31 36  1  0  0  0  0
 31 38  1  1  0  0  0
 32 37  1  0  0  0  0
 33 29  1  0  0  0  0
 33 39  2  0  0  0  0
 34 33  1  0  0  0  0
 35 30  1  0  0  0  0
 36 30  1  0  0  0  0
 37 40  2  0  0  0  0
 39 36  1  0  0  0  0
 40 39  1  0  0  0  0
 40 28  1  0  0  0  0
M  END
>  <MODEL>
6

>  <REMARK>
 VINA RESULT:      -6.5      2.033      4.707
  Name = 
  14 active torsions:
  status: ('A' for Active; 'I' for Inactive)
    1  A    between atoms: C_2  and  C_39
    2  A    between atoms: C_7  and  C_8
    3  A    between atoms: C_7  and  C_31
    4  A    between atoms: C_8  and  C_40
    5  A    between atoms: C_9  and  N_11
    6  A    between atoms: C_9  and  C_37
    7  A    between atoms: C_13  and  C_37
    8  A    between atoms: C_13  and  C_39
    9  A    between atoms: C_14  and  C_30
   10  A    between atoms: C_14  and  C_38
   11  A    between atoms: N_16  and  C_30
   12  A    between atoms: N_20  and  C_31
   13  A    between atoms: N_20  and  C_34
   14  A    between atoms: C_38  and  C_40
                            x       y       z     vdW  Elec       q    Type
                         _______ _______ _______ _____ _____    ______ ____

>  <TORSDO>
F 14

$$$$
=
 OpenBabel11052411493D

 40 43  0  0  1  0  0  0  0  0999 V2000
  160.5490  210.4860  152.2850 C   0  0  0  0  0  2  0  0  0  0  0  0
  159.0000  211.4870  153.8310 C   0  0  0  0  0  0  0  0  0  0  0  0
  160.0950  210.8000  153.6760 C   0  0  0  0  0  0  0  0  0  0  0  0
  157.9030  212.1950  153.9820 C   0  0  0  0  0  0  0  0  0  0  0  0
  156.5840  211.4970  154.1770 C   0  0  0  0  0  3  0  0  0  0  0  0
  155.4890  212.4770  154.5540 C   0  0  0  0  0  1  0  0  0  0  0  0
  156.6800  210.3880  155.2100 C   0  0  0  0  0  1  0  0  0  0  0  0
  157.9560  213.6800  154.0160 C   0  0  0  0  0  0  0  0  0  0  0  0
  157.7620  214.3590  155.1450 C   0  0  0  0  0  2  0  0  0  0  0  0
  158.2230  214.4530  152.7620 C   0  0  0  0  0  2  0  0  0  0  0  0
  157.2220  214.1020  151.6680 C   0  0  0  0  0  2  0  0  0  0  0  0
  159.3230  213.6640  150.7380 C   0  0  0  0  0  1  0  0  0  0  0  0
  157.9110  213.7970  150.4230 N   0  0  0  0  0  2  0  0  0  0  0  0
  160.8900  210.4950  154.8300 N   0  0  0  0  0  2  0  0  0  0  0  0
  161.9200  209.0280  156.4870 C   0  0  0  0  0  3  0  0  0  0  0  0
  161.9090  207.9090  157.2610 N   0  0  0  0  0  0  0  0  0  0  0  0
  159.7830  208.4010  155.5750 C   0  0  0  0  0  3  0  0  0  0  0  0
  159.7890  207.2570  156.3740 C   0  0  0  0  0  3  0  0  0  0  0  0
  160.8750  207.0260  157.2210 C   0  0  0  0  0  3  0  0  0  0  0  0
  160.8580  209.2970  155.6180 C   0  0  0  0  0  0  0  0  0  0  0  0
  161.6840  209.4760  152.3110 C   0  0  2  0  0  3  0  0  0  0  0  0
  162.7760  209.9820  151.6020 O   0  0  0  0  0  1  0  0  0  0  0  0
  161.2140  208.1690  151.6890 C   0  0  0  0  0  2  0  0  0  0  0  0
  162.2980  207.5700  150.8080 C   0  0  0  0  0  2  0  0  0  0  0  0
  161.9600  207.7970  149.3480 C   0  0  0  0  0  2  0  0  0  0  0  0
  160.6300  207.1490  149.0230 C   0  0  0  0  0  2  0  0  0  0  0  0
  160.9340  200.9380  147.6040 N   0  0  0  0  0  0  0  0  0  0  0  0
  160.5070  203.6560  150.2260 C   0  0  0  0  0  3  0  0  0  0  0  0
  161.4530  204.1790  145.6460 C   0  0  0  0  0  2  0  0  0  0  0  0
  160.7760  205.7020  149.0290 N   0  0  0  0  0  0  0  0  0  0  0  0
  161.2890  205.4750  146.4980 C   0  0  1  0  0  3  0  0  0  0  0  0
  160.4080  200.6090  150.0010 C   0  0  0  0  0  1  0  0  0  0  0  0
  161.3090  203.0810  146.6530 C   0  0  0  0  0  0  0  0  0  0  0  0
  161.1980  201.7000  146.4960 C   0  0  0  0  0  3  0  0  0  0  0  0
  160.4860  204.9670  150.2030 N   0  0  0  0  0  0  0  0  0  0  0  0
  161.1850  205.0050  147.8780 N   0  0  0  0  0  0  0  0  0  0  0  0
  160.7420  201.4910  148.8460 C   0  0  0  0  0  0  0  0  0  0  0  0
  162.4220  206.2750  146.3580 O   0  0  0  0  0  1  0  0  0  0  0  0
  161.1610  203.6160  147.8820 C   0  0  0  0  0  0  0  0  0  0  0  0
  160.8300  202.8870  149.0000 C   0  0  0  0  0  0  0  0  0  0  0  0
  1 21  1  0  0  0  0
  1  3  1  0  0  0  0
  2  4  2  0  0  0  0
  3  2  2  0  0  0  0
  3 14  1  0  0  0  0
  4  8  1  0  0  0  0
  4  5  1  0  0  0  0
  5  6  1  0  0  0  0
  5  7  1  0  0  0  0
  8  9  2  0  0  0  0
 10  8  1  0  0  0  0
 11 10  1  0  0  0  0
 13 12  1  0  0  0  0
 13 11  1  0  0  0  0
 14 20  1  0  0  0  0
 15 16  1  0  0  0  0
 17 20  1  0  0  0  0
 17 18  2  0  0  0  0
 18 19  1  0  0  0  0
 19 16  2  0  0  0  0
 20 15  2  0  0  0  0
 21 22  1  6  0  0  0
 23 21  1  0  0  0  0
 24 23  1  0  0  0  0
 25 24  1  0  0  0  0
 26 30  1  0  0  0  0
 26 25  1  0  0  0  0
 27 37  1  0  0  0  0
 29 31  1  0  0  0  0
 29 33  1  0  0  0  0
 30 35  1  0  0  0  0
 31 38  1  1  0  0  0
 31 36  1  0  0  0  0
 33 39  2  0  0  0  0
 34 33  1  0  0  0  0
 34 27  2  0  0  0  0
 35 28  2  0  0  0  0
 36 39  1  0  0  0  0
 36 30  1  0  0  0  0
 37 40  2  0  0  0  0
 37 32  1  0  0  0  0
 39 40  1  0  0  0  0
 40 28  1  0  0  0  0
M  END
>  <MODEL>
7

>  <REMARK>
 VINA RESULT:      -6.4      1.589      4.528
  Name = 
  14 active torsions:
  status: ('A' for Active; 'I' for Inactive)
    1  A    between atoms: C_2  and  C_39
    2  A    between atoms: C_7  and  C_8
    3  A    between atoms: C_7  and  C_31
    4  A    between atoms: C_8  and  C_40
    5  A    between atoms: C_9  and  N_11
    6  A    between atoms: C_9  and  C_37
    7  A    between atoms: C_13  and  C_37
    8  A    between atoms: C_13  and  C_39
    9  A    between atoms: C_14  and  C_30
   10  A    between atoms: C_14  and  C_38
   11  A    between atoms: N_16  and  C_30
   12  A    between atoms: N_20  and  C_31
   13  A    between atoms: N_20  and  C_34
   14  A    between atoms: C_38  and  C_40
                            x       y       z     vdW  Elec       q    Type
                         _______ _______ _______ _____ _____    ______ ____

>  <TORSDO>
F 14

$$$$
=
 OpenBabel11052411493D

 40 43  0  0  1  0  0  0  0  0999 V2000
  160.2590  210.2750  151.9770 C   0  0  0  0  0  2  0  0  0  0  0  0
  160.7210  210.8890  154.2580 C   0  0  0  0  0  0  0  0  0  0  0  0
  160.4070  211.2950  153.0610 C   0  0  0  0  0  0  0  0  0  0  0  0
  161.0230  210.4710  155.4670 C   0  0  0  0  0  0  0  0  0  0  0  0
  162.4610  210.4330  155.9070 C   0  0  0  0  0  3  0  0  0  0  0  0
  162.7310  211.4420  157.0080 C   0  0  0  0  0  1  0  0  0  0  0  0
  163.4140  210.6530  154.7440 C   0  0  0  0  0  1  0  0  0  0  0  0
  159.9550  210.0870  156.4260 C   0  0  0  0  0  0  0  0  0  0  0  0
  159.4020  210.9770  157.2480 C   0  0  0  0  0  2  0  0  0  0  0  0
  159.4800  208.6680  156.4950 C   0  0  0  0  0  2  0  0  0  0  0  0
  160.6480  207.6930  156.5760 C   0  0  0  0  0  2  0  0  0  0  0  0
  161.0390  206.9950  154.3770 C   0  0  0  0  0  1  0  0  0  0  0  0
  160.4580  206.5900  155.6460 N   0  0  0  0  0  2  0  0  0  0  0  0
  160.0790  212.6780  152.8650 N   0  0  0  0  0  2  0  0  0  0  0  0
  157.8400  213.5870  152.5200 C   0  0  0  0  0  3  0  0  0  0  0  0
  156.8790  214.1210  151.7180 N   0  0  0  0  0  0  0  0  0  0  0  0
  159.3140  213.4280  150.6240 C   0  0  0  0  0  3  0  0  0  0  0  0
  158.3170  213.9760  149.8160 C   0  0  0  0  0  3  0  0  0  0  0  0
  157.0910  214.3190  150.3890 C   0  0  0  0  0  3  0  0  0  0  0  0
  159.0800  213.2200  151.9890 C   0  0  0  0  0  0  0  0  0  0  0  0
  161.5970  209.6180  151.6800 C   0  0  2  0  0  3  0  0  0  0  0  0
  162.3440  210.4420  150.8340 O   0  0  0  0  0  1  0  0  0  0  0  0
  161.3640  208.2650  151.0240 C   0  0  0  0  0  2  0  0  0  0  0  0
  162.5970  207.8180  150.2570 C   0  0  0  0  0  2  0  0  0  0  0  0
  162.2920  207.7670  148.7730 C   0  0  0  0  0  2  0  0  0  0  0  0
  160.9350  207.1290  148.5510 C   0  0  0  0  0  2  0  0  0  0  0  0
  160.9560  200.8690  147.3320 N   0  0  0  0  0  0  0  0  0  0  0  0
  160.9440  203.6830  149.8860 C   0  0  0  0  0  3  0  0  0  0  0  0
  161.2290  204.0310  145.2020 C   0  0  0  0  0  2  0  0  0  0  0  0
  161.0630  205.6810  148.5890 N   0  0  0  0  0  0  0  0  0  0  0  0
  161.2040  205.3580  146.0210 C   0  0  1  0  0  3  0  0  0  0  0  0
  160.7760  200.6330  149.7900 C   0  0  0  0  0  1  0  0  0  0  0  0
  161.2170  202.9710  146.2590 C   0  0  0  0  0  0  0  0  0  0  0  0
  161.0680  201.5870  146.1700 C   0  0  0  0  0  3  0  0  0  0  0  0
  160.9350  204.9930  149.8190 N   0  0  0  0  0  0  0  0  0  0  0  0
  161.2940  204.9380  147.4170 N   0  0  0  0  0  0  0  0  0  0  0  0
  160.9520  201.4680  148.5680 C   0  0  0  0  0  0  0  0  0  0  0  0
  162.3150  206.1330  145.6910 O   0  0  0  0  0  1  0  0  0  0  0  0
  161.2530  203.5510  147.4770 C   0  0  0  0  0  0  0  0  0  0  0  0
  161.0780  202.8670  148.6560 C   0  0  0  0  0  0  0  0  0  0  0  0
  1  3  1  0  0  0  0
  2  4  2  0  0  0  0
  3  2  2  0  0  0  0
  4  5  1  0  0  0  0
  4  8  1  0  0  0  0
  5  6  1  0  0  0  0
  7  5  1  0  0  0  0
  8 10  1  0  0  0  0
  8  9  2  0  0  0  0
 10 11  1  0  0  0  0
 12 13  1  0  0  0  0
 13 11  1  0  0  0  0
 14  3  1  0  0  0  0
 16 15  2  0  0  0  0
 17 20  2  0  0  0  0
 18 19  2  0  0  0  0
 18 17  1  0  0  0  0
 19 16  1  0  0  0  0
 20 15  1  0  0  0  0
 20 14  1  0  0  0  0
 21 22  1  6  0  0  0
 21  1  1  0  0  0  0
 23 21  1  0  0  0  0
 24 23  1  0  0  0  0
 25 24  1  0  0  0  0
 26 30  1  0  0  0  0
 26 25  1  0  0  0  0
 27 37  1  0  0  0  0
 29 31  1  0  0  0  0
 29 33  1  0  0  0  0
 30 35  1  0  0  0  0
 31 38  1  6  0  0  0
 31 36  1  0  0  0  0
 33 39  2  0  0  0  0
 34 33  1  0  0  0  0
 34 27  2  0  0  0  0
 35 28  2  0  0  0  0
 36 39  1  0  0  0  0
 36 30  1  0  0  0  0
 37 40  2  0  0  0  0
 37 32  1  0  0  0  0
 39 40  1  0  0  0  0
 40 28  1  0  0  0  0
M  END
>  <MODEL>
8

>  <REMARK>
 VINA RESULT:      -6.2      1.683      2.228
  Name = 
  14 active torsions:
  status: ('A' for Active; 'I' for Inactive)
    1  A    between atoms: C_2  and  C_39
    2  A    between atoms: C_7  and  C_8
    3  A    between atoms: C_7  and  C_31
    4  A    between atoms: C_8  and  C_40
    5  A    between atoms: C_9  and  N_11
    6  A    between atoms: C_9  and  C_37
    7  A    between atoms: C_13  and  C_37
    8  A    between atoms: C_13  and  C_39
    9  A    between atoms: C_14  and  C_30
   10  A    between atoms: C_14  and  C_38
   11  A    between atoms: N_16  and  C_30
   12  A    between atoms: N_20  and  C_31
   13  A    between atoms: N_20  and  C_34
   14  A    between atoms: C_38  and  C_40
                            x       y       z     vdW  Elec       q    Type
                         _______ _______ _______ _____ _____    ______ ____

>  <TORSDO>
F 14

$$$$
=
 OpenBabel11052411493D

 40 43  0  0  1  0  0  0  0  0999 V2000
  160.1880  210.8610  151.6450 C   0  0  0  0  0  2  0  0  0  0  0  0
  159.5650  212.9180  150.5630 C   0  0  0  0  0  0  0  0  0  0  0  0
  159.8380  212.3150  151.6840 C   0  0  0  0  0  0  0  0  0  0  0  0
  159.3050  213.5250  149.4260 C   0  0  0  0  0  0  0  0  0  0  0  0
  157.8820  213.6420  148.9500 C   0  0  0  0  0  3  0  0  0  0  0  0
  156.9020  213.5390  150.1040 C   0  0  0  0  0  1  0  0  0  0  0  0
  157.5550  212.6090  147.8850 C   0  0  0  0  0  1  0  0  0  0  0  0
  160.3950  214.1450  148.6300 C   0  0  0  0  0  0  0  0  0  0  0  0
  161.5710  214.4500  149.1760 C   0  0  0  0  0  2  0  0  0  0  0  0
  160.1870  214.4530  147.1790 C   0  0  0  0  0  2  0  0  0  0  0  0
  160.6990  213.3250  146.2910 C   0  0  0  0  0  2  0  0  0  0  0  0
  159.5290  212.2070  144.6020 C   0  0  0  0  0  1  0  0  0  0  0  0
  160.1780  213.4630  144.9400 N   0  0  0  0  0  2  0  0  0  0  0  0
  159.9310  213.0960  152.8840 N   0  0  0  0  0  2  0  0  0  0  0  0
  160.0580  211.9580  155.0400 C   0  0  0  0  0  3  0  0  0  0  0  0
  159.5500  211.6700  156.2690 N   0  0  0  0  0  0  0  0  0  0  0  0
  158.1400  213.3390  154.5870 C   0  0  0  0  0  3  0  0  0  0  0  0
  157.6330  213.0310  155.8500 C   0  0  0  0  0  3  0  0  0  0  0  0
  158.3620  212.1840  156.6860 C   0  0  0  0  0  3  0  0  0  0  0  0
  159.3590  212.7950  154.1650 C   0  0  0  0  0  0  0  0  0  0  0  0
  161.6950  210.6750  151.7120 C   0  0  2  0  0  3  0  0  0  0  0  0
  162.1700  210.2570  150.4670 O   0  0  0  0  0  1  0  0  0  0  0  0
  162.0310  209.6410  152.7770 C   0  0  0  0  0  2  0  0  0  0  0  0
  161.0350  208.4930  152.7480 C   0  0  0  0  0  2  0  0  0  0  0  0
  161.5290  207.4020  151.8200 C   0  0  0  0  0  2  0  0  0  0  0  0
  160.4680  207.0920  150.7840 C   0  0  0  0  0  2  0  0  0  0  0  0
  161.4500  202.3750  146.6040 N   0  0  0  0  0  0  0  0  0  0  0  0
  160.8670  203.4650  150.1980 C   0  0  0  0  0  3  0  0  0  0  0  0
  161.4240  206.1920  146.4040 C   0  0  0  0  0  2  0  0  0  0  0  0
  160.7950  205.8470  150.1070 N   0  0  0  0  0  0  0  0  0  0  0  0
  161.1570  206.9020  147.7670 C   0  0  1  0  0  3  0  0  0  0  0  0
  161.1360  200.8960  148.5640 C   0  0  0  0  0  1  0  0  0  0  0  0
  161.4870  204.7430  146.7750 C   0  0  0  0  0  0  0  0  0  0  0  0
  161.5400  203.5950  145.9850 C   0  0  0  0  0  3  0  0  0  0  0  0
  160.6800  204.6160  150.7960 N   0  0  0  0  0  0  0  0  0  0  0  0
  161.2080  205.8340  148.7620 N   0  0  0  0  0  0  0  0  0  0  0  0
  161.2770  202.2510  147.9610 C   0  0  0  0  0  0  0  0  0  0  0  0
  162.1680  207.8280  148.0190 O   0  0  0  0  0  1  0  0  0  0  0  0
  161.3580  204.6160  148.1120 C   0  0  0  0  0  0  0  0  0  0  0  0
  161.1990  203.4110  148.7540 C   0  0  0  0  0  0  0  0  0  0  0  0
  1  3  1  0  0  0  0
  1 21  1  0  0  0  0
  2  3  2  0  0  0  0
  3 14  1  0  0  0  0
  4  2  2  0  0  0  0
  5  4  1  0  0  0  0
  5  6  1  0  0  0  0
  7  5  1  0  0  0  0
  8  9  2  0  0  0  0
  8  4  1  0  0  0  0
 10  8  1  0  0  0  0
 11 10  1  0  0  0  0
 12 13  1  0  0  0  0
 13 11  1  0  0  0  0
 14 20  1  0  0  0  0
 15 16  1  0  0  0  0
 16 19  2  0  0  0  0
 17 18  2  0  0  0  0
 18 19  1  0  0  0  0
 20 17  1  0  0  0  0
 20 15  2  0  0  0  0
 21 22  1  6  0  0  0
 21 23  1  0  0  0  0
 24 23  1  0  0  0  0
 25 24  1  0  0  0  0
 26 25  1  0  0  0  0
 27 37  1  0  0  0  0
 28 35  2  0  0  0  0
 29 33  1  0  0  0  0
 29 31  1  0  0  0  0
 30 26  1  0  0  0  0
 30 35  1  0  0  0  0
 31 38  1  1  0  0  0
 31 36  1  0  0  0  0
 33 39  2  0  0  0  0
 34 27  2  0  0  0  0
 34 33  1  0  0  0  0
 36 30  1  0  0  0  0
 37 32  1  0  0  0  0
 37 40  2  0  0  0  0
 39 40  1  0  0  0  0
 39 36  1  0  0  0  0
 40 28  1  0  0  0  0
M  END
>  <MODEL>
9

>  <REMARK>
 VINA RESULT:      -6.0      3.214      5.298
  Name = 
  14 active torsions:
  status: ('A' for Active; 'I' for Inactive)
    1  A    between atoms: C_2  and  C_39
    2  A    between atoms: C_7  and  C_8
    3  A    between atoms: C_7  and  C_31
    4  A    between atoms: C_8  and  C_40
    5  A    between atoms: C_9  and  N_11
    6  A    between atoms: C_9  and  C_37
    7  A    between atoms: C_13  and  C_37
    8  A    between atoms: C_13  and  C_39
    9  A    between atoms: C_14  and  C_30
   10  A    between atoms: C_14  and  C_38
   11  A    between atoms: N_16  and  C_30
   12  A    between atoms: N_20  and  C_31
   13  A    between atoms: N_20  and  C_34
   14  A    between atoms: C_38  and  C_40
                            x       y       z     vdW  Elec       q    Type
                         _______ _______ _______ _____ _____    ______ ____

>  <TORSDO>
F 14

$$$$
