=
 OpenBabel11052411203D

 68 75  0  0  1  0  0  0  0  0999 V2000
  161.9640  212.0100  151.8280 N   0  0  0  0  0  2  0  0  0  0  0  0
  161.3060  212.2980  150.5640 C   0  0  1  0  0  3  0  0  0  0  0  0
  160.5220  213.4840  150.6610 O   0  0  0  0  0  0  0  0  0  0  0  0
  158.3760  213.9980  151.4720 C   0  0  0  0  0  2  0  0  0  0  0  0
  159.6400  213.6990  151.7170 C   0  0  0  0  0  3  0  0  0  0  0  0
  162.3270  212.3990  149.4390 C   0  0  0  0  0  2  0  0  0  0  0  0
  160.8350  213.1910  141.4270 N   0  0  0  0  0  0  0  0  0  0  0  0
  160.3090  212.2840  148.1180 C   0  0  0  0  0  3  0  0  0  0  0  0
  160.8650  212.7640  145.1210 N   0  0  0  0  0  0  0  0  0  0  0  0
  162.1770  212.8660  145.6740 C   0  0  0  0  0  3  0  0  0  0  0  0
  161.3900  213.1580  142.6740 C   0  0  0  0  0  3  0  0  0  0  0  0
  160.5530  212.8720  143.7440 C   0  0  0  0  0  0  0  0  0  0  0  0
  161.6290  212.4870  148.1230 C   0  0  0  0  0  0  0  0  0  0  0  0
  158.6900  212.6560  142.2910 N   0  0  0  0  0  0  0  0  0  0  0  0
  158.5400  212.3510  144.7410 N   0  0  0  0  0  2  0  0  0  0  0  0
  159.5970  212.4440  145.7090 C   0  0  0  0  0  0  0  0  0  0  0  0
  159.3600  212.2500  147.0000 C   0  0  0  0  0  3  0  0  0  0  0  0
  162.4920  212.7430  146.9590 C   0  0  0  0  0  3  0  0  0  0  0  0
  159.2310  212.6310  143.5330 C   0  0  0  0  0  0  0  0  0  0  0  0
  159.4990  212.9420  141.2260 C   0  0  0  0  0  0  0  0  0  0  0  0
  158.9070  212.9800  139.8440 C   0  0  2  0  0  3  0  0  0  0  0  0
  159.8060  212.3500  138.7610 C   0  0  2  0  0  3  0  0  0  0  0  0
  160.1220  213.2590  137.7450 O   0  0  0  0  0  1  0  0  0  0  0  0
  159.2980  210.9990  138.2080 C   0  0  1  0  0  0  0  0  0  0  0  0
  156.9900  210.6030  138.7570 C   0  0  0  0  0  2  0  0  0  0  0  0
  158.3890  210.3370  139.2360 C   0  0  0  0  0  2  0  0  0  0  0  0
  158.4920  211.2610  137.0130 N   0  0  0  0  0  2  0  0  0  0  0  0
  157.1480  210.7560  137.2690 C   0  0  0  0  0  2  0  0  0  0  0  0
  160.4330  210.0400  137.8190 C   0  0  0  0  0  2  0  0  0  0  0  0
  162.8430  209.9490  138.0820 N   0  0  0  0  0  1  0  0  0  0  0  0
  161.5900  210.0260  138.8090 C   0  0  0  0  0  2  0  0  0  0  0  0
  158.3370  214.3590  139.4870 C   0  0  0  0  0  2  0  0  0  0  0  0
  156.8940  214.2940  139.0120 C   0  0  0  0  0  2  0  0  0  0  0  0
  155.5300  213.8380  137.3410 C   0  0  0  0  0  1  0  0  0  0  0  0
  156.8680  214.0950  137.6330 O   0  0  0  0  0  0  0  0  0  0  0  0
  161.9690  210.5620  151.9510 C   0  0  0  0  0  2  0  0  0  0  0  0
  161.2510  209.7170  154.8880 C   0  0  1  0  0  3  0  0  0  0  0  0
  160.3950  208.4590  154.7540 C   0  0  1  0  0  3  0  0  0  0  0  0
  160.5230  210.9450  154.3010 C   0  0  2  0  0  3  0  0  0  0  0  0
  160.5270  207.8580  153.3810 C   0  0  0  0  0  3  0  0  0  0  0  0
  159.6100  211.6080  155.3210 C   0  0  0  0  0  1  0  0  0  0  0  0
  160.5410  210.0250  152.1270 C   0  0  1  0  0  3  0  0  0  0  0  0
  160.5320  208.5170  152.2140 C   0  0  0  0  0  0  0  0  0  0  0  0
  159.7620  210.6410  153.1440 O   0  0  0  0  0  0  0  0  0  0  0  0
  160.7550  207.5030  155.7080 O   0  0  0  0  0  0  0  0  0  0  0  0
  159.5430  207.0520  156.2370 C   0  0  0  0  0  1  0  0  0  0  0  0
  161.6450  209.9430  156.2130 O   0  0  0  0  0  0  0  0  0  0  0  0
  162.9790  210.3420  156.1250 C   0  0  0  0  0  1  0  0  0  0  0  0
  160.5950  207.7380  151.0490 O   0  0  0  0  0  0  0  0  0  0  0  0
  162.9190  208.1250  150.9770 C   0  0  0  0  0  1  0  0  0  0  0  0
  161.7890  207.2640  150.4170 C   0  0  2  0  0  0  0  0  0  0  0  0
  161.7220  207.5270  148.9050 C   0  0  0  0  0  2  0  0  0  0  0  0
  162.0360  208.8360  148.5870 F   0  0  0  0  0  0  0  0  0  0  0  0
  161.9560  205.8830  150.7290 O   0  0  0  0  0  0  0  0  0  0  0  0
  160.1180  205.6240  149.1870 O   0  0  0  0  0  1  0  0  0  0  0  0
  161.6910  203.7660  149.5710 C   0  0  1  0  0  3  0  0  0  0  0  0
  161.0220  205.0380  150.0810 C   0  0  1  0  0  0  0  0  0  0  0  0
  160.6520  203.7050  150.6890 C   0  0  0  0  0  2  0  0  0  0  0  0
  161.1060  203.2640  148.2400 C   0  0  1  0  0  3  0  0  0  0  0  0
  161.5540  202.7730  145.7560 C   0  0  0  0  0  2  0  0  0  0  0  0
  160.4300  203.3970  145.1790 O   0  0  0  0  0  0  0  0  0  0  0  0
  161.1570  205.5910  145.8230 C   0  0  0  0  0  2  0  0  0  0  0  0
  160.8690  204.6300  144.6700 C   0  0  0  0  0  2  0  0  0  0  0  0
  162.2600  205.0050  146.7040 C   0  0  0  0  0  2  0  0  0  0  0  0
  162.0150  203.5210  147.0150 C   0  0  1  0  0  3  0  0  0  0  0  0
  161.4930  200.8520  148.0830 O   0  0  0  0  0  0  0  0  0  0  0  0
  160.5210  201.8400  148.3460 C   0  0  1  0  0  3  0  0  0  0  0  0
  161.1480  201.0500  149.4320 C   0  0  0  0  0  2  0  0  0  0  0  0
  1 36  1  0  0  0  0
  2  6  1  6  0  0  0
  2  3  1  0  0  0  0
  2  1  1  0  0  0  0
  3  5  1  0  0  0  0
  4  5  2  0  0  0  0
  7 11  1  0  0  0  0
  8 13  2  0  0  0  0
  9 10  1  0  0  0  0
  9 16  1  0  0  0  0
 10 18  2  0  0  0  0
 11 12  2  0  0  0  0
 12  9  1  0  0  0  0
 13  6  1  0  0  0  0
 14 19  2  0  0  0  0
 15 16  1  0  0  0  0
 16 17  2  0  0  0  0
 17  8  1  0  0  0  0
 18 13  1  0  0  0  0
 19 12  1  0  0  0  0
 19 15  1  0  0  0  0
 20  7  2  0  0  0  0
 20 14  1  0  0  0  0
 21 32  1  6  0  0  0
 21 20  1  0  0  0  0
 22 23  1  6  0  0  0
 22 21  1  0  0  0  0
 24 29  1  6  0  0  0
 24 22  1  0  0  0  0
 24 26  1  0  0  0  0
 25 26  1  0  0  0  0
 27 28  1  0  0  0  0
 27 24  1  0  0  0  0
 28 25  1  0  0  0  0
 29 31  1  0  0  0  0
 30 31  1  0  0  0  0
 33 32  1  0  0  0  0
 34 35  1  0  0  0  0
 35 33  1  0  0  0  0
 37 47  1  1  0  0  0
 38 37  1  0  0  0  0
 38 45  1  1  0  0  0
 39 37  1  0  0  0  0
 39 41  1  1  0  0  0
 40 38  1  0  0  0  0
 42 36  1  1  0  0  0
 42 43  1  0  0  0  0
 42 44  1  0  0  0  0
 43 40  2  0  0  0  0
 44 39  1  0  0  0  0
 45 46  1  0  0  0  0
 48 47  1  0  0  0  0
 49 43  1  0  0  0  0
 51 54  1  0  0  0  0
 51 50  1  1  0  0  0
 51 49  1  0  0  0  0
 52 51  1  0  0  0  0
 53 52  1  0  0  0  0
 56 59  1  6  0  0  0
 56 57  1  0  0  0  0
 56 58  1  0  0  0  0
 57 55  1  6  0  0  0
 57 58  1  0  0  0  0
 57 54  1  0  0  0  0
 59 65  1  6  0  0  0
 61 60  1  0  0  0  0
 62 64  1  0  0  0  0
 63 61  1  0  0  0  0
 63 62  1  0  0  0  0
 64 65  1  0  0  0  0
 65 60  1  6  0  0  0
 66 67  1  0  0  0  0
 66 68  1  0  0  0  0
 67 59  1  1  0  0  0
 67 68  1  0  0  0  0
M  END
>  <MODEL>
1

>  <REMARK>
 VINA RESULT:      -3.8      0.000      0.000
  Name = 
  25 active torsions:
  status: ('A' for Active; 'I' for Inactive)
    1  A    between atoms: C_1  and  C_12
    2  A    between atoms: C_1  and  C_23
    3  A    between atoms: C_1  and  C_65
    4  A    between atoms: C_2  and  C_8
    5  A    between atoms: C_2  and  C_23
    6  A    between atoms: C_6  and  O_49
    7  A    between atoms: C_8  and  C_67
    8  A    between atoms: C_12  and  C_42
    9  A    between atoms: O_13  and  C_17
   10  A    between atoms: C_14  and  C_39
   11  A    between atoms: N_20  and  C_31
   12  A    between atoms: N_20  and  C_56
   13  A    between atoms: O_24  and  C_25
   14  A    between atoms: O_24  and  C_64
   15  A    between atoms: C_26  and  C_40
   16  A    between atoms: C_26  and  C_56
   17  A    between atoms: C_31  and  C_43
   18  A    between atoms: C_33  and  C_39
   19  A    between atoms: C_38  and  C_64
   20  A    between atoms: C_39  and  C_68
   21  A    between atoms: C_42  and  O_51
   22  A    between atoms: C_48  and  O_63
   23  A    between atoms: C_53  and  O_66
   24  A    between atoms: C_56  and  O_66
   25  A    between atoms: O_63  and  C_64
                            x       y       z     vdW  Elec       q    Type
                         _______ _______ _______ _____ _____    ______ ____

>  <TORSDO>
F 25

$$$$
=
 OpenBabel11052411203D

 68 75  0  0  1  0  0  0  0  0999 V2000
  161.6250  211.9030  151.4950 N   0  0  0  0  0  2  0  0  0  0  0  0
  161.1110  212.1970  150.1670 C   0  0  1  0  0  3  0  0  0  0  0  0
  160.3820  213.4220  150.1680 O   0  0  0  0  0  0  0  0  0  0  0  0
  158.5860  213.7350  151.6520 C   0  0  0  0  0  2  0  0  0  0  0  0
  159.0150  213.4640  150.4310 C   0  0  0  0  0  3  0  0  0  0  0  0
  162.2440  212.2270  149.1500 C   0  0  0  0  0  2  0  0  0  0  0  0
  161.4940  213.5290  141.1010 N   0  0  0  0  0  0  0  0  0  0  0  0
  160.4360  211.8880  147.5860 C   0  0  0  0  0  3  0  0  0  0  0  0
  161.2090  212.7520  144.7260 N   0  0  0  0  0  0  0  0  0  0  0  0
  162.4110  213.0300  145.4430 C   0  0  0  0  0  3  0  0  0  0  0  0
  161.9090  213.4720  142.4000 C   0  0  0  0  0  3  0  0  0  0  0  0
  161.0310  212.9380  143.3340 C   0  0  0  0  0  0  0  0  0  0  0  0
  161.6860  212.3200  147.7690 C   0  0  0  0  0  0  0  0  0  0  0  0
  159.4080  212.5400  141.6500 N   0  0  0  0  0  0  0  0  0  0  0  0
  159.0570  211.9720  144.0320 N   0  0  0  0  0  2  0  0  0  0  0  0
  159.9680  212.1550  145.1270 C   0  0  0  0  0  0  0  0  0  0  0  0
  159.6350  211.7950  146.3600 C   0  0  0  0  0  3  0  0  0  0  0  0
  162.6050  212.8390  146.7430 C   0  0  0  0  0  3  0  0  0  0  0  0
  159.8080  212.4880  142.9430 C   0  0  0  0  0  0  0  0  0  0  0  0
  160.2570  213.0670  140.7190 C   0  0  0  0  0  0  0  0  0  0  0  0
  159.8200  213.1370  139.2810 C   0  0  2  0  0  3  0  0  0  0  0  0
  160.9690  212.9590  138.2680 C   0  0  2  0  0  3  0  0  0  0  0  0
  160.6510  213.4900  137.0130 O   0  0  0  0  0  1  0  0  0  0  0  0
  161.5310  211.5230  138.1760 C   0  0  1  0  0  0  0  0  0  0  0  0
  163.8020  211.3840  138.9540 C   0  0  0  0  0  2  0  0  0  0  0  0
  162.9810  211.5710  137.7110 C   0  0  0  0  0  2  0  0  0  0  0  0
  161.5200  210.9340  139.5180 N   0  0  0  0  0  2  0  0  0  0  0  0
  162.8960  210.5980  139.8630 C   0  0  0  0  0  2  0  0  0  0  0  0
  160.7140  210.6130  137.2470 C   0  0  0  0  0  2  0  0  0  0  0  0
  160.1790  208.2720  137.5880 N   0  0  0  0  0  1  0  0  0  0  0  0
  161.2310  209.1830  137.1780 C   0  0  0  0  0  2  0  0  0  0  0  0
  158.8950  214.3280  139.0050 C   0  0  0  0  0  2  0  0  0  0  0  0
  157.5440  213.9080  138.4450 C   0  0  0  0  0  2  0  0  0  0  0  0
  156.8940  211.9280  137.7260 C   0  0  0  0  0  1  0  0  0  0  0  0
  157.2420  212.6200  138.8840 O   0  0  0  0  0  0  0  0  0  0  0  0
  161.9630  210.4900  151.4840 C   0  0  0  0  0  2  0  0  0  0  0  0
  161.2050  210.3090  154.5250 C   0  0  1  0  0  3  0  0  0  0  0  0
  160.7420  208.8700  154.7460 C   0  0  1  0  0  3  0  0  0  0  0  0
  160.2340  211.0620  153.5910 C   0  0  2  0  0  3  0  0  0  0  0  0
  161.1740  207.9820  153.6120 C   0  0  0  0  0  3  0  0  0  0  0  0
  159.0760  211.6840  154.3560 C   0  0  0  0  0  1  0  0  0  0  0  0
  160.7250  209.6300  151.7810 C   0  0  1  0  0  3  0  0  0  0  0  0
  161.1190  208.2690  152.3030 C   0  0  0  0  0  0  0  0  0  0  0  0
  159.7080  210.2470  152.5590 O   0  0  0  0  0  0  0  0  0  0  0  0
  161.2500  208.3590  155.9450 O   0  0  0  0  0  0  0  0  0  0  0  0
  160.1230  208.1140  156.7340 C   0  0  0  0  0  1  0  0  0  0  0  0
  161.3840  210.9920  155.7340 O   0  0  0  0  0  0  0  0  0  0  0  0
  162.6830  210.6760  156.1330 C   0  0  0  0  0  1  0  0  0  0  0  0
  161.5110  207.2540  151.4170 O   0  0  0  0  0  0  0  0  0  0  0  0
  160.3870  205.7330  152.8240 C   0  0  0  0  0  1  0  0  0  0  0  0
  161.2650  205.8530  151.5800 C   0  0  2  0  0  0  0  0  0  0  0  0
  162.5810  205.1190  151.8780 C   0  0  0  0  0  2  0  0  0  0  0  0
  163.5830  205.9840  152.2780 F   0  0  0  0  0  0  0  0  0  0  0  0
  160.6140  205.3630  150.4100 O   0  0  0  0  0  0  0  0  0  0  0  0
  162.4660  203.9680  149.7420 O   0  0  0  0  0  1  0  0  0  0  0  0
  160.7770  204.6680  148.0890 C   0  0  1  0  0  3  0  0  0  0  0  0
  161.5090  204.9320  149.4010 C   0  0  1  0  0  0  0  0  0  0  0  0
  161.7860  205.8090  148.2020 C   0  0  0  0  0  2  0  0  0  0  0  0
  161.3600  203.4870  147.2960 C   0  0  1  0  0  3  0  0  0  0  0  0
  161.5730  200.9780  147.8190 C   0  0  0  0  0  2  0  0  0  0  0  0
  162.0710  201.0470  149.1340 O   0  0  0  0  0  0  0  0  0  0  0  0
  160.0380  201.9890  149.9910 C   0  0  0  0  0  2  0  0  0  0  0  0
  160.9860  200.7920  149.9900 C   0  0  0  0  0  2  0  0  0  0  0  0
  159.5020  202.2090  148.5760 C   0  0  0  0  0  2  0  0  0  0  0  0
  160.6220  202.1470  147.5260 C   0  0  1  0  0  3  0  0  0  0  0  0
  161.0700  202.9070  144.9350 O   0  0  0  0  0  0  0  0  0  0  0  0
  161.6440  203.8430  145.8200 C   0  0  1  0  0  3  0  0  0  0  0  0
  160.4050  204.1410  145.0620 C   0  0  0  0  0  2  0  0  0  0  0  0
  2  6  1  6  0  0  0
  2  3  1  0  0  0  0
  2  1  1  0  0  0  0
  3  5  1  0  0  0  0
  5  4  2  0  0  0  0
  7 11  1  0  0  0  0
  8 13  2  0  0  0  0
  9 16  1  0  0  0  0
  9 10  1  0  0  0  0
 10 18  2  0  0  0  0
 11 12  2  0  0  0  0
 12  9  1  0  0  0  0
 13  6  1  0  0  0  0
 14 19  2  0  0  0  0
 15 16  1  0  0  0  0
 16 17  2  0  0  0  0
 17  8  1  0  0  0  0
 18 13  1  0  0  0  0
 19 12  1  0  0  0  0
 19 15  1  0  0  0  0
 20  7  2  0  0  0  0
 20 14  1  0  0  0  0
 21 32  1  1  0  0  0
 21 20  1  0  0  0  0
 22 23  1  6  0  0  0
 22 21  1  0  0  0  0
 24 29  1  6  0  0  0
 24 22  1  0  0  0  0
 24 27  1  0  0  0  0
 25 28  1  0  0  0  0
 26 24  1  0  0  0  0
 26 25  1  0  0  0  0
 27 28  1  0  0  0  0
 31 29  1  0  0  0  0
 31 30  1  0  0  0  0
 33 35  1  0  0  0  0
 33 32  1  0  0  0  0
 34 35  1  0  0  0  0
 36  1  1  0  0  0  0
 37 38  1  0  0  0  0
 37 47  1  1  0  0  0
 38 45  1  1  0  0  0
 39 41  1  1  0  0  0
 39 37  1  0  0  0  0
 40 38  1  0  0  0  0
 42 36  1  1  0  0  0
 42 43  1  0  0  0  0
 42 44  1  0  0  0  0
 43 40  2  0  0  0  0
 44 39  1  0  0  0  0
 45 46  1  0  0  0  0
 47 48  1  0  0  0  0
 49 51  1  0  0  0  0
 49 43  1  0  0  0  0
 51 52  1  0  0  0  0
 51 50  1  1  0  0  0
 52 53  1  0  0  0  0
 54 51  1  0  0  0  0
 56 59  1  6  0  0  0
 56 58  1  0  0  0  0
 56 57  1  0  0  0  0
 57 55  1  1  0  0  0
 57 54  1  0  0  0  0
 58 57  1  0  0  0  0
 59 67  1  6  0  0  0
 60 61  1  0  0  0  0
 61 63  1  0  0  0  0
 63 62  1  0  0  0  0
 64 62  1  0  0  0  0
 65 59  1  1  0  0  0
 65 60  1  0  0  0  0
 65 64  1  0  0  0  0
 66 68  1  0  0  0  0
 66 67  1  0  0  0  0
 67 68  1  6  0  0  0
M  END
>  <MODEL>
2

>  <REMARK>
 VINA RESULT:      -2.8      1.372      2.582
  Name = 
  25 active torsions:
  status: ('A' for Active; 'I' for Inactive)
    1  A    between atoms: C_1  and  C_12
    2  A    between atoms: C_1  and  C_23
    3  A    between atoms: C_1  and  C_65
    4  A    between atoms: C_2  and  C_8
    5  A    between atoms: C_2  and  C_23
    6  A    between atoms: C_6  and  O_49
    7  A    between atoms: C_8  and  C_67
    8  A    between atoms: C_12  and  C_42
    9  A    between atoms: O_13  and  C_17
   10  A    between atoms: C_14  and  C_39
   11  A    between atoms: N_20  and  C_31
   12  A    between atoms: N_20  and  C_56
   13  A    between atoms: O_24  and  C_25
   14  A    between atoms: O_24  and  C_64
   15  A    between atoms: C_26  and  C_40
   16  A    between atoms: C_26  and  C_56
   17  A    between atoms: C_31  and  C_43
   18  A    between atoms: C_33  and  C_39
   19  A    between atoms: C_38  and  C_64
   20  A    between atoms: C_39  and  C_68
   21  A    between atoms: C_42  and  O_51
   22  A    between atoms: C_48  and  O_63
   23  A    between atoms: C_53  and  O_66
   24  A    between atoms: C_56  and  O_66
   25  A    between atoms: O_63  and  C_64
                            x       y       z     vdW  Elec       q    Type
                         _______ _______ _______ _____ _____    ______ ____

>  <TORSDO>
F 25

$$$$
=
 OpenBabel11052411203D

 68 75  0  0  1  0  0  0  0  0999 V2000
  161.0900  211.2600  151.3350 N   0  0  0  0  0  2  0  0  0  0  0  0
  160.8960  212.1470  150.2000 C   0  0  1  0  0  3  0  0  0  0  0  0
  160.6780  213.4870  150.6370 O   0  0  0  0  0  0  0  0  0  0  0  0
  158.7440  214.4330  149.6930 C   0  0  0  0  0  2  0  0  0  0  0  0
  160.0600  214.4340  149.8240 C   0  0  0  0  0  3  0  0  0  0  0  0
  162.0780  212.0610  149.2450 C   0  0  0  0  0  2  0  0  0  0  0  0
  161.9790  214.1230  141.3210 N   0  0  0  0  0  0  0  0  0  0  0  0
  160.3610  212.0090  147.5480 C   0  0  0  0  0  3  0  0  0  0  0  0
  161.3900  213.0560  144.8350 N   0  0  0  0  0  0  0  0  0  0  0  0
  162.5580  213.1710  145.6460 C   0  0  0  0  0  3  0  0  0  0  0  0
  162.2990  213.9190  142.6320 C   0  0  0  0  0  3  0  0  0  0  0  0
  161.3220  213.3780  143.4570 C   0  0  0  0  0  0  0  0  0  0  0  0
  161.6250  212.3200  147.8470 C   0  0  0  0  0  0  0  0  0  0  0  0
  159.7920  213.2630  141.6480 N   0  0  0  0  0  0  0  0  0  0  0  0
  159.2370  212.5190  143.9410 N   0  0  0  0  0  2  0  0  0  0  0  0
  160.0830  212.5290  145.1010 C   0  0  0  0  0  0  0  0  0  0  0  0
  159.6400  212.0910  146.2730 C   0  0  0  0  0  3  0  0  0  0  0  0
  162.6480  212.8510  146.9320 C   0  0  0  0  0  3  0  0  0  0  0  0
  160.0980  213.0660  142.9520 C   0  0  0  0  0  0  0  0  0  0  0  0
  160.7400  213.8000  140.8230 C   0  0  0  0  0  0  0  0  0  0  0  0
  160.4080  214.0310  139.3740 C   0  0  2  0  0  3  0  0  0  0  0  0
  158.9390  213.7340  139.0140 C   0  0  2  0  0  3  0  0  0  0  0  0
  158.0560  214.1500  140.0180 O   0  0  0  0  0  1  0  0  0  0  0  0
  158.6690  212.2830  138.5550 C   0  0  1  0  0  0  0  0  0  0  0  0
  156.4160  211.5860  139.0240 C   0  0  0  0  0  2  0  0  0  0  0  0
  157.8070  211.5720  139.5900 C   0  0  0  0  0  2  0  0  0  0  0  0
  157.9070  212.3270  137.3040 N   0  0  0  0  0  2  0  0  0  0  0  0
  156.6390  211.6450  137.5370 C   0  0  0  0  0  2  0  0  0  0  0  0
  159.9540  211.4800  138.3040 C   0  0  0  0  0  2  0  0  0  0  0  0
  161.0410  209.7780  139.6480 N   0  0  0  0  0  1  0  0  0  0  0  0
  159.8890  210.0450  138.8080 C   0  0  0  0  0  2  0  0  0  0  0  0
  161.4430  213.4100  138.4280 C   0  0  0  0  0  2  0  0  0  0  0  0
  162.3170  214.4510  137.7450 C   0  0  0  0  0  2  0  0  0  0  0  0
  163.7400  212.9100  138.4250 C   0  0  0  0  0  1  0  0  0  0  0  0
  163.6430  214.2700  138.1340 O   0  0  0  0  0  0  0  0  0  0  0  0
  160.3920  211.8830  152.4470 C   0  0  0  0  0  2  0  0  0  0  0  0
  160.7580  211.2460  155.5000 C   0  0  1  0  0  3  0  0  0  0  0  0
  160.3990  209.7690  155.6560 C   0  0  1  0  0  3  0  0  0  0  0  0
  159.5220  212.0730  155.0870 C   0  0  2  0  0  3  0  0  0  0  0  0
  160.3980  209.0690  154.3240 C   0  0  0  0  0  3  0  0  0  0  0  0
  158.7110  212.5260  156.2910 C   0  0  0  0  0  1  0  0  0  0  0  0
  159.3360  210.9310  153.0300 C   0  0  1  0  0  3  0  0  0  0  0  0
  159.8850  209.5310  153.1750 C   0  0  0  0  0  0  0  0  0  0  0  0
  158.6620  211.3840  154.1970 O   0  0  0  0  0  0  0  0  0  0  0  0
  161.2950  209.1230  156.5120 O   0  0  0  0  0  0  0  0  0  0  0  0
  161.4850  207.8610  155.9420 C   0  0  0  0  0  1  0  0  0  0  0  0
  161.3550  211.7630  156.6560 O   0  0  0  0  0  0  0  0  0  0  0  0
  162.6850  211.3480  156.5860 C   0  0  0  0  0  1  0  0  0  0  0  0
  159.9350  208.6690  152.0690 O   0  0  0  0  0  0  0  0  0  0  0  0
  161.1770  206.6870  152.3540 C   0  0  0  0  0  1  0  0  0  0  0  0
  161.1000  207.9990  151.5770 C   0  0  2  0  0  0  0  0  0  0  0  0
  162.3580  208.8080  151.9230 C   0  0  0  0  0  2  0  0  0  0  0  0
  163.4780  208.3470  151.2550 F   0  0  0  0  0  0  0  0  0  0  0  0
  160.9490  207.7880  150.1750 O   0  0  0  0  0  0  0  0  0  0  0  0
  160.0890  205.5450  149.9500 O   0  0  0  0  0  1  0  0  0  0  0  0
  161.8390  206.3640  148.4210 C   0  0  1  0  0  3  0  0  0  0  0  0
  161.1490  206.4430  149.7790 C   0  0  1  0  0  0  0  0  0  0  0  0
  162.5460  205.8760  149.6830 C   0  0  0  0  0  2  0  0  0  0  0  0
  161.3560  205.1830  147.5620 C   0  0  1  0  0  3  0  0  0  0  0  0
  161.9350  204.1280  145.2900 C   0  0  0  0  0  2  0  0  0  0  0  0
  160.8470  203.2450  145.1480 O   0  0  0  0  0  0  0  0  0  0  0  0
  159.2580  205.0310  144.9480 C   0  0  0  0  0  2  0  0  0  0  0  0
  159.9460  203.8540  144.2590 C   0  0  0  0  0  2  0  0  0  0  0  0
  160.3120  206.0610  145.3570 C   0  0  0  0  0  2  0  0  0  0  0  0
  161.5200  205.4010  146.0400 C   0  0  1  0  0  3  0  0  0  0  0  0
  161.1980  203.4590  149.2930 O   0  0  0  0  0  0  0  0  0  0  0  0
  161.8480  203.8200  148.0940 C   0  0  1  0  0  3  0  0  0  0  0  0
  160.7700  202.8020  148.1240 C   0  0  0  0  0  2  0  0  0  0  0  0
  1 36  1  0  0  0  0
  2  6  1  6  0  0  0
  2  3  1  0  0  0  0
  2  1  1  0  0  0  0
  4  5  2  0  0  0  0
  5  3  1  0  0  0  0
  7 11  1  0  0  0  0
  8 13  2  0  0  0  0
  9 16  1  0  0  0  0
  9 10  1  0  0  0  0
 10 18  2  0  0  0  0
 11 12  2  0  0  0  0
 12  9  1  0  0  0  0
 13  6  1  0  0  0  0
 14 19  2  0  0  0  0
 15 16  1  0  0  0  0
 16 17  2  0  0  0  0
 17  8  1  0  0  0  0
 18 13  1  0  0  0  0
 19 12  1  0  0  0  0
 19 15  1  0  0  0  0
 20  7  2  0  0  0  0
 20 14  1  0  0  0  0
 21 32  1  6  0  0  0
 21 20  1  0  0  0  0
 22 21  1  0  0  0  0
 22 23  1  1  0  0  0
 24 29  1  6  0  0  0
 24 22  1  0  0  0  0
 24 26  1  0  0  0  0
 25 26  1  0  0  0  0
 27 28  1  0  0  0  0
 27 24  1  0  0  0  0
 28 25  1  0  0  0  0
 29 31  1  0  0  0  0
 31 30  1  0  0  0  0
 33 35  1  0  0  0  0
 33 32  1  0  0  0  0
 35 34  1  0  0  0  0
 37 38  1  0  0  0  0
 37 47  1  1  0  0  0
 38 45  1  1  0  0  0
 39 37  1  0  0  0  0
 39 41  1  1  0  0  0
 40 38  1  0  0  0  0
 42 36  1  1  0  0  0
 42 43  1  0  0  0  0
 42 44  1  0  0  0  0
 43 40  2  0  0  0  0
 44 39  1  0  0  0  0
 46 45  1  0  0  0  0
 48 47  1  0  0  0  0
 49 43  1  0  0  0  0
 51 52  1  0  0  0  0
 51 49  1  0  0  0  0
 51 50  1  1  0  0  0
 53 52  1  0  0  0  0
 54 51  1  0  0  0  0
 56 59  1  6  0  0  0
 56 58  1  0  0  0  0
 56 57  1  0  0  0  0
 57 55  1  1  0  0  0
 57 54  1  0  0  0  0
 58 57  1  0  0  0  0
 59 65  1  6  0  0  0
 61 60  1  0  0  0  0
 62 64  1  0  0  0  0
 63 62  1  0  0  0  0
 63 61  1  0  0  0  0
 64 65  1  0  0  0  0
 65 60  1  6  0  0  0
 67 59  1  6  0  0  0
 67 68  1  0  0  0  0
 67 66  1  0  0  0  0
 68 66  1  0  0  0  0
M  END
>  <MODEL>
3

>  <REMARK>
 VINA RESULT:      -2.3      1.528      2.294
  Name = 
  25 active torsions:
  status: ('A' for Active; 'I' for Inactive)
    1  A    between atoms: C_1  and  C_12
    2  A    between atoms: C_1  and  C_23
    3  A    between atoms: C_1  and  C_65
    4  A    between atoms: C_2  and  C_8
    5  A    between atoms: C_2  and  C_23
    6  A    between atoms: C_6  and  O_49
    7  A    between atoms: C_8  and  C_67
    8  A    between atoms: C_12  and  C_42
    9  A    between atoms: O_13  and  C_17
   10  A    between atoms: C_14  and  C_39
   11  A    between atoms: N_20  and  C_31
   12  A    between atoms: N_20  and  C_56
   13  A    between atoms: O_24  and  C_25
   14  A    between atoms: O_24  and  C_64
   15  A    between atoms: C_26  and  C_40
   16  A    between atoms: C_26  and  C_56
   17  A    between atoms: C_31  and  C_43
   18  A    between atoms: C_33  and  C_39
   19  A    between atoms: C_38  and  C_64
   20  A    between atoms: C_39  and  C_68
   21  A    between atoms: C_42  and  O_51
   22  A    between atoms: C_48  and  O_63
   23  A    between atoms: C_53  and  O_66
   24  A    between atoms: C_56  and  O_66
   25  A    between atoms: O_63  and  C_64
                            x       y       z     vdW  Elec       q    Type
                         _______ _______ _______ _____ _____    ______ ____

>  <TORSDO>
F 25

$$$$
=
 OpenBabel11052411203D

 68 75  0  0  1  0  0  0  0  0999 V2000
  161.1660  211.0970  151.4720 N   0  0  0  0  0  2  0  0  0  0  0  0
  161.0040  212.0210  150.3610 C   0  0  1  0  0  3  0  0  0  0  0  0
  160.7400  213.3390  150.8350 O   0  0  0  0  0  0  0  0  0  0  0  0
  158.8470  214.0510  149.6360 C   0  0  0  0  0  2  0  0  0  0  0  0
  160.0790  214.2840  150.0530 C   0  0  0  0  0  3  0  0  0  0  0  0
  162.2300  211.9930  149.4580 C   0  0  0  0  0  2  0  0  0  0  0  0
  162.4850  214.0050  141.5250 N   0  0  0  0  0  0  0  0  0  0  0  0
  160.5520  212.0770  147.7230 C   0  0  0  0  0  3  0  0  0  0  0  0
  161.7280  213.0150  145.0290 N   0  0  0  0  0  0  0  0  0  0  0  0
  162.8840  213.0350  145.8660 C   0  0  0  0  0  3  0  0  0  0  0  0
  162.7570  213.7820  142.8440 C   0  0  0  0  0  3  0  0  0  0  0  0
  161.7190  213.3330  143.6480 C   0  0  0  0  0  0  0  0  0  0  0  0
  161.8310  212.2810  148.0490 C   0  0  0  0  0  0  0  0  0  0  0  0
  160.2250  213.3370  141.8050 N   0  0  0  0  0  0  0  0  0  0  0  0
  159.5580  212.6570  144.0890 N   0  0  0  0  0  2  0  0  0  0  0  0
  160.3760  212.6030  145.2680 C   0  0  0  0  0  0  0  0  0  0  0  0
  159.8700  212.2120  146.4310 C   0  0  0  0  0  3  0  0  0  0  0  0
  162.9170  212.7160  147.1550 C   0  0  0  0  0  3  0  0  0  0  0  0
  160.4840  213.1230  143.1170 C   0  0  0  0  0  0  0  0  0  0  0  0
  161.2350  213.7860  141.0000 C   0  0  0  0  0  0  0  0  0  0  0  0
  160.9560  214.0350  139.5430 C   0  0  2  0  0  3  0  0  0  0  0  0
  159.4930  213.7730  139.1320 C   0  0  2  0  0  3  0  0  0  0  0  0
  158.5960  214.0660  140.1650 O   0  0  0  0  0  1  0  0  0  0  0  0
  159.2390  212.3830  138.5060 C   0  0  1  0  0  0  0  0  0  0  0  0
  156.9370  211.7120  138.6880 C   0  0  0  0  0  2  0  0  0  0  0  0
  158.2670  211.6000  139.3780 C   0  0  0  0  0  2  0  0  0  0  0  0
  158.6030  212.5730  137.2000 N   0  0  0  0  0  2  0  0  0  0  0  0
  157.3040  211.9100  137.2430 C   0  0  0  0  0  2  0  0  0  0  0  0
  160.5260  211.5700  138.2980 C   0  0  0  0  0  2  0  0  0  0  0  0
  160.7040  209.1530  138.2120 N   0  0  0  0  0  1  0  0  0  0  0  0
  160.3330  210.3250  137.4430 C   0  0  0  0  0  2  0  0  0  0  0  0
  162.0080  213.3980  138.6260 C   0  0  0  0  0  2  0  0  0  0  0  0
  162.7890  214.4270  137.8220 C   0  0  0  0  0  2  0  0  0  0  0  0
  164.3440  213.0500  138.5630 C   0  0  0  0  0  1  0  0  0  0  0  0
  164.0460  213.9120  137.5090 O   0  0  0  0  0  0  0  0  0  0  0  0
  160.2860  211.5820  152.5210 C   0  0  0  0  0  2  0  0  0  0  0  0
  160.7640  210.7310  155.5060 C   0  0  1  0  0  3  0  0  0  0  0  0
  160.5900  209.2130  155.5310 C   0  0  1  0  0  3  0  0  0  0  0  0
  159.4310  211.4330  155.1680 C   0  0  2  0  0  3  0  0  0  0  0  0
  160.6590  208.6370  154.1430 C   0  0  0  0  0  3  0  0  0  0  0  0
  158.5860  211.6750  156.4090 C   0  0  0  0  0  1  0  0  0  0  0  0
  159.3610  210.4600  153.0190 C   0  0  1  0  0  3  0  0  0  0  0  0
  160.0790  209.1310  153.0400 C   0  0  0  0  0  0  0  0  0  0  0  0
  158.6510  210.7230  154.2220 O   0  0  0  0  0  0  0  0  0  0  0  0
  161.5690  208.6090  156.3250 O   0  0  0  0  0  0  0  0  0  0  0  0
  161.1730  207.2730  156.4270 C   0  0  0  0  0  1  0  0  0  0  0  0
  161.3070  211.2150  156.7020 O   0  0  0  0  0  0  0  0  0  0  0  0
  160.7390  212.4780  156.8650 C   0  0  0  0  0  1  0  0  0  0  0  0
  160.2210  208.3820  151.8620 O   0  0  0  0  0  0  0  0  0  0  0  0
  161.6200  206.5070  151.5710 C   0  0  0  0  0  1  0  0  0  0  0  0
  161.4580  207.9920  151.2560 C   0  0  2  0  0  0  0  0  0  0  0  0
  162.6260  208.7310  151.9250 C   0  0  0  0  0  2  0  0  0  0  0  0
  162.9460  209.9070  151.2710 F   0  0  0  0  0  0  0  0  0  0  0  0
  161.3800  208.2410  149.8540 O   0  0  0  0  0  0  0  0  0  0  0  0
  162.8920  206.5470  149.0400 O   0  0  0  0  0  1  0  0  0  0  0  0
  160.4830  206.0690  149.2440 C   0  0  1  0  0  3  0  0  0  0  0  0
  161.6020  207.0900  149.0610 C   0  0  1  0  0  0  0  0  0  0  0  0
  160.6840  206.7730  147.9030 C   0  0  0  0  0  2  0  0  0  0  0  0
  160.9740  204.6130  149.1860 C   0  0  1  0  0  3  0  0  0  0  0  0
  159.6300  202.4550  149.5780 C   0  0  0  0  0  2  0  0  0  0  0  0
  160.5880  201.5000  149.1860 O   0  0  0  0  0  0  0  0  0  0  0  0
  162.0420  202.0170  151.0230 C   0  0  0  0  0  2  0  0  0  0  0  0
  161.1390  200.9730  150.3670 C   0  0  0  0  0  2  0  0  0  0  0  0
  161.2120  203.2500  151.3790 C   0  0  0  0  0  2  0  0  0  0  0  0
  160.3010  203.6790  150.2190 C   0  0  1  0  0  3  0  0  0  0  0  0
  162.2190  204.4860  147.0830 O   0  0  0  0  0  0  0  0  0  0  0  0
  161.0470  204.0660  147.7440 C   0  0  1  0  0  3  0  0  0  0  0  0
  162.2010  203.1560  147.5420 C   0  0  0  0  0  2  0  0  0  0  0  0
  1 36  1  0  0  0  0
  2  6  1  1  0  0  0
  2  3  1  0  0  0  0
  2  1  1  0  0  0  0
  4  5  2  0  0  0  0
  5  3  1  0  0  0  0
  7 11  1  0  0  0  0
  8 13  2  0  0  0  0
  9 16  1  0  0  0  0
  9 10  1  0  0  0  0
 10 18  2  0  0  0  0
 11 12  2  0  0  0  0
 12  9  1  0  0  0  0
 13  6  1  0  0  0  0
 14 19  2  0  0  0  0
 15 16  1  0  0  0  0
 16 17  2  0  0  0  0
 17  8  1  0  0  0  0
 18 13  1  0  0  0  0
 19 12  1  0  0  0  0
 19 15  1  0  0  0  0
 20  7  2  0  0  0  0
 20 14  1  0  0  0  0
 21 32  1  6  0  0  0
 21 20  1  0  0  0  0
 22 21  1  0  0  0  0
 22 23  1  1  0  0  0
 24 29  1  6  0  0  0
 24 22  1  0  0  0  0
 24 26  1  0  0  0  0
 25 26  1  0  0  0  0
 27 28  1  0  0  0  0
 27 24  1  0  0  0  0
 28 25  1  0  0  0  0
 31 30  1  0  0  0  0
 31 29  1  0  0  0  0
 33 32  1  0  0  0  0
 35 33  1  0  0  0  0
 35 34  1  0  0  0  0
 37 38  1  0  0  0  0
 37 47  1  1  0  0  0
 38 45  1  1  0  0  0
 39 37  1  0  0  0  0
 39 41  1  1  0  0  0
 40 38  1  0  0  0  0
 42 36  1  1  0  0  0
 42 43  1  0  0  0  0
 42 44  1  0  0  0  0
 43 40  2  0  0  0  0
 44 39  1  0  0  0  0
 45 46  1  0  0  0  0
 47 48  1  0  0  0  0
 49 43  1  0  0  0  0
 51 50  1  1  0  0  0
 51 49  1  0  0  0  0
 51 52  1  0  0  0  0
 53 52  1  0  0  0  0
 54 51  1  0  0  0  0
 56 59  1  6  0  0  0
 57 55  1  6  0  0  0
 57 56  1  0  0  0  0
 57 54  1  0  0  0  0
 58 57  1  0  0  0  0
 58 56  1  0  0  0  0
 59 67  1  6  0  0  0
 60 65  1  0  0  0  0
 61 60  1  0  0  0  0
 61 63  1  0  0  0  0
 62 64  1  0  0  0  0
 63 62  1  0  0  0  0
 65 59  1  6  0  0  0
 65 64  1  0  0  0  0
 66 68  1  0  0  0  0
 66 67  1  0  0  0  0
 67 68  1  1  0  0  0
M  END
>  <MODEL>
4

>  <REMARK>
 VINA RESULT:      -1.4      1.624      2.852
  Name = 
  25 active torsions:
  status: ('A' for Active; 'I' for Inactive)
    1  A    between atoms: C_1  and  C_12
    2  A    between atoms: C_1  and  C_23
    3  A    between atoms: C_1  and  C_65
    4  A    between atoms: C_2  and  C_8
    5  A    between atoms: C_2  and  C_23
    6  A    between atoms: C_6  and  O_49
    7  A    between atoms: C_8  and  C_67
    8  A    between atoms: C_12  and  C_42
    9  A    between atoms: O_13  and  C_17
   10  A    between atoms: C_14  and  C_39
   11  A    between atoms: N_20  and  C_31
   12  A    between atoms: N_20  and  C_56
   13  A    between atoms: O_24  and  C_25
   14  A    between atoms: O_24  and  C_64
   15  A    between atoms: C_26  and  C_40
   16  A    between atoms: C_26  and  C_56
   17  A    between atoms: C_31  and  C_43
   18  A    between atoms: C_33  and  C_39
   19  A    between atoms: C_38  and  C_64
   20  A    between atoms: C_39  and  C_68
   21  A    between atoms: C_42  and  O_51
   22  A    between atoms: C_48  and  O_63
   23  A    between atoms: C_53  and  O_66
   24  A    between atoms: C_56  and  O_66
   25  A    between atoms: O_63  and  C_64
                            x       y       z     vdW  Elec       q    Type
                         _______ _______ _______ _____ _____    ______ ____

>  <TORSDO>
F 25

$$$$
