=
 OpenBabel11052411193D

 31 31  0  0  1  0  0  0  0  0999 V2000
  160.8500  207.8810  153.2080 C   0  0  0  0  0  0  0  0  0  0  0  0
  161.0970  208.8250  154.1440 C   0  0  0  0  0  0  0  0  0  0  0  0
  160.5500  206.5740  153.5820 O   0  0  0  0  0  1  0  0  0  0  0  0
  161.0540  208.4540  155.6320 C   0  0  2  0  0  0  0  0  0  0  0  0
  161.9300  207.3910  155.8600 O   0  0  0  0  0  1  0  0  0  0  0  0
  159.6790  208.0110  156.1090 C   0  0  0  0  0  1  0  0  0  0  0  0
  162.7440  209.3940  157.0810 O   0  0  0  0  0  1  0  0  0  0  0  0
  161.4990  209.6370  156.4940 C   0  0  0  0  0  2  0  0  0  0  0  0
  162.4990  210.2790  152.5900 C   0  0  0  0  0  1  0  0  0  0  0  0
  161.4280  210.2270  153.6710 C   0  0  1  0  0  3  0  0  0  0  0  0
  159.1360  211.1210  154.2950 C   0  0  0  0  0  3  0  0  0  0  0  0
  156.9150  213.5960  152.6070 N   0  0  0  0  0  1  0  0  0  0  0  0
  156.9720  211.9720  154.9240 O   0  0  0  0  0  1  0  0  0  0  0  0
  160.2220  211.0820  153.4060 C   0  0  0  0  0  0  0  0  0  0  0  0
  158.0400  211.9490  154.0350 C   0  0  0  0  0  0  0  0  0  0  0  0
  160.2030  211.8870  152.2620 C   0  0  0  0  0  3  0  0  0  0  0  0
  159.1070  212.7150  152.0000 C   0  0  0  0  0  3  0  0  0  0  0  0
  158.0250  212.7470  152.8840 C   0  0  0  0  0  0  0  0  0  0  0  0
  160.8690  208.1940  151.7410 C   0  0  0  0  0  2  0  0  0  0  0  0
  161.2490  206.9660  150.9250 C   0  0  0  0  0  2  0  0  0  0  0  0
  160.8640  207.1190  149.4580 C   0  0  1  0  0  3  0  0  0  0  0  0
  161.9300  207.8640  148.7310 C   0  0  0  0  0  0  0  0  0  0  0  0
  162.0270  209.2470  148.8410 O   0  0  0  0  0  1  0  0  0  0  0  0
  162.7500  207.2360  148.0130 O   0  0  0  0  0  0  0  0  0  0  0  0
  160.6480  205.7590  148.8050 C   0  0  0  0  0  2  0  0  0  0  0  0
  161.2240  204.7250  149.5930 O   0  0  0  0  0  0  0  0  0  0  0  0
  161.0220  203.3680  149.3250 C   0  0  0  0  0  0  0  0  0  0  0  0
  161.1310  202.9560  148.1400 O   0  0  0  0  0  0  0  0  0  0  0  0
  161.1550  201.1320  150.1010 O   0  0  0  0  0  1  0  0  0  0  0  0
  160.6730  202.4030  150.4160 C   0  0  1  0  0  3  0  0  0  0  0  0
  161.2480  202.8450  151.6750 N   0  0  0  0  0  1  0  0  0  0  0  0
  1  3  1  0  0  0  0
  1  2  2  0  0  0  0
  2  4  1  0  0  0  0
  4  5  1  0  0  0  0
  4  6  1  1  0  0  0
  4  8  1  0  0  0  0
  8  7  1  0  0  0  0
 10  9  1  6  0  0  0
 10  2  1  0  0  0  0
 12 18  1  0  0  0  0
 14 10  1  0  0  0  0
 14 11  2  0  0  0  0
 15 11  1  0  0  0  0
 15 13  1  0  0  0  0
 16 14  1  0  0  0  0
 17 16  2  0  0  0  0
 17 18  1  0  0  0  0
 18 15  2  0  0  0  0
 19  1  1  0  0  0  0
 20 19  1  0  0  0  0
 21 25  1  6  0  0  0
 21 20  1  0  0  0  0
 22 23  1  0  0  0  0
 22 21  1  0  0  0  0
 24 22  2  0  0  0  0
 25 26  1  0  0  0  0
 27 26  1  0  0  0  0
 27 30  1  0  0  0  0
 28 27  2  0  0  0  0
 30 29  1  6  0  0  0
 30 31  1  0  0  0  0
M  END
>  <MODEL>
1

>  <REMARK>
 VINA RESULT:      -6.3      0.000      0.000
  Name = 
  12 active torsions:
  status: ('A' for Active; 'I' for Inactive)
    1  A    between atoms: O_1  and  C_2
    2  A    between atoms: O_1  and  C_26
    3  A    between atoms: C_2  and  C_19
    4  A    between atoms: C_3  and  C_23
    5  A    between atoms: C_5  and  C_9
    6  A    between atoms: C_5  and  C_18
    7  A    between atoms: C_6  and  C_31
    8  A    between atoms: C_9  and  C_16
    9  A    between atoms: C_13  and  C_18
   10  A    between atoms: C_20  and  C_23
   11  A    between atoms: C_20  and  C_31
   12  A    between atoms: C_26  and  C_31
                            x       y       z     vdW  Elec       q    Type
                         _______ _______ _______ _____ _____    ______ ____

>  <TORSDO>
F 12

$$$$
=
 OpenBabel11052411193D

 31 31  0  0  1  0  0  0  0  0999 V2000
  160.9260  208.1890  154.3270 C   0  0  0  0  0  0  0  0  0  0  0  0
  161.2980  209.3880  154.8310 C   0  0  0  0  0  0  0  0  0  0  0  0
  160.7010  207.1050  155.1700 O   0  0  0  0  0  1  0  0  0  0  0  0
  161.4820  209.5550  156.3450 C   0  0  2  0  0  0  0  0  0  0  0  0
  162.3090  208.5350  156.8170 O   0  0  0  0  0  1  0  0  0  0  0  0
  160.1790  209.4750  157.1280 C   0  0  0  0  0  1  0  0  0  0  0  0
  163.5240  210.7500  156.8380 O   0  0  0  0  0  1  0  0  0  0  0  0
  162.1450  210.8970  156.6600 C   0  0  0  0  0  2  0  0  0  0  0  0
  162.3820  210.1410  152.6510 C   0  0  0  0  0  1  0  0  0  0  0  0
  161.5370  210.5260  153.8580 C   0  0  1  0  0  3  0  0  0  0  0  0
  159.3540  211.6370  154.5200 C   0  0  0  0  0  3  0  0  0  0  0  0
  156.9190  213.6550  152.5450 N   0  0  0  0  0  1  0  0  0  0  0  0
  157.2980  212.7030  155.1820 O   0  0  0  0  0  1  0  0  0  0  0  0
  160.3060  211.3230  153.5370 C   0  0  0  0  0  0  0  0  0  0  0  0
  158.2320  212.4050  154.1980 C   0  0  0  0  0  0  0  0  0  0  0  0
  160.1270  211.7960  152.2330 C   0  0  0  0  0  3  0  0  0  0  0  0
  159.0060  212.5640  151.9080 C   0  0  0  0  0  3  0  0  0  0  0  0
  158.0570  212.8700  152.8870 C   0  0  0  0  0  0  0  0  0  0  0  0
  160.7230  207.9750  152.8560 C   0  0  0  0  0  2  0  0  0  0  0  0
  161.6290  206.8680  152.3350 C   0  0  0  0  0  2  0  0  0  0  0  0
  160.9940  206.1180  151.1700 C   0  0  1  0  0  3  0  0  0  0  0  0
  161.2800  206.8320  149.8940 C   0  0  0  0  0  0  0  0  0  0  0  0
  162.4330  207.5960  149.7530 O   0  0  0  0  0  1  0  0  0  0  0  0
  160.4710  206.7410  148.9340 O   0  0  0  0  0  0  0  0  0  0  0  0
  161.5170  204.6890  151.0890 C   0  0  0  0  0  2  0  0  0  0  0  0
  160.5530  203.8350  150.4850 O   0  0  0  0  0  0  0  0  0  0  0  0
  160.8550  203.0000  149.4040 C   0  0  0  0  0  0  0  0  0  0  0  0
  161.3940  203.4960  148.3790 O   0  0  0  0  0  0  0  0  0  0  0  0
  159.1810  201.3310  149.2360 O   0  0  0  0  0  1  0  0  0  0  0  0
  160.5450  201.5350  149.4430 C   0  0  1  0  0  3  0  0  0  0  0  0
  161.3040  200.8380  148.4190 N   0  0  0  0  0  1  0  0  0  0  0  0
  1  2  2  0  0  0  0
  1  3  1  0  0  0  0
  2  4  1  0  0  0  0
  4  8  1  0  0  0  0
  4  5  1  0  0  0  0
  4  6  1  1  0  0  0
  8  7  1  0  0  0  0
 10  9  1  6  0  0  0
 10  2  1  0  0  0  0
 12 18  1  0  0  0  0
 14 10  1  0  0  0  0
 14 11  2  0  0  0  0
 15 11  1  0  0  0  0
 15 13  1  0  0  0  0
 16 14  1  0  0  0  0
 17 16  2  0  0  0  0
 17 18  1  0  0  0  0
 18 15  2  0  0  0  0
 19  1  1  0  0  0  0
 20 19  1  0  0  0  0
 21 25  1  6  0  0  0
 21 20  1  0  0  0  0
 22 21  1  0  0  0  0
 23 22  1  0  0  0  0
 24 22  2  0  0  0  0
 26 25  1  0  0  0  0
 27 30  1  0  0  0  0
 27 26  1  0  0  0  0
 28 27  2  0  0  0  0
 29 30  1  0  0  0  0
 30 31  1  6  0  0  0
M  END
>  <MODEL>
2

>  <REMARK>
 VINA RESULT:      -6.3      1.313      1.502
  Name = 
  12 active torsions:
  status: ('A' for Active; 'I' for Inactive)
    1  A    between atoms: O_1  and  C_2
    2  A    between atoms: O_1  and  C_26
    3  A    between atoms: C_2  and  C_19
    4  A    between atoms: C_3  and  C_23
    5  A    between atoms: C_5  and  C_9
    6  A    between atoms: C_5  and  C_18
    7  A    between atoms: C_6  and  C_31
    8  A    between atoms: C_9  and  C_16
    9  A    between atoms: C_13  and  C_18
   10  A    between atoms: C_20  and  C_23
   11  A    between atoms: C_20  and  C_31
   12  A    between atoms: C_26  and  C_31
                            x       y       z     vdW  Elec       q    Type
                         _______ _______ _______ _____ _____    ______ ____

>  <TORSDO>
F 12

$$$$
=
 OpenBabel11052411193D

 31 31  0  0  1  0  0  0  0  0999 V2000
  160.8660  208.1550  154.2800 C   0  0  0  0  0  0  0  0  0  0  0  0
  161.2620  209.3400  154.7980 C   0  0  0  0  0  0  0  0  0  0  0  0
  160.6250  207.0640  155.1100 O   0  0  0  0  0  1  0  0  0  0  0  0
  161.4560  209.4840  156.3130 C   0  0  2  0  0  0  0  0  0  0  0  0
  162.2920  208.4600  156.7630 O   0  0  0  0  0  1  0  0  0  0  0  0
  160.1600  209.3840  157.1040 C   0  0  0  0  0  1  0  0  0  0  0  0
  163.5050  210.6970  156.7250 O   0  0  0  0  0  1  0  0  0  0  0  0
  162.1150  210.8240  156.6460 C   0  0  0  0  0  2  0  0  0  0  0  0
  162.3450  210.1010  152.6200 C   0  0  0  0  0  1  0  0  0  0  0  0
  161.5170  210.4870  153.8390 C   0  0  1  0  0  3  0  0  0  0  0  0
  160.0560  211.8280  152.2570 C   0  0  0  0  0  3  0  0  0  0  0  0
  156.7910  213.5500  152.7830 N   0  0  0  0  0  1  0  0  0  0  0  0
  158.6760  213.0760  150.7270 O   0  0  0  0  0  1  0  0  0  0  0  0
  160.3000  211.3130  153.5400 C   0  0  0  0  0  0  0  0  0  0  0  0
  158.8990  212.5700  152.0010 C   0  0  0  0  0  0  0  0  0  0  0  0
  159.3680  211.5390  154.5590 C   0  0  0  0  0  3  0  0  0  0  0  0
  158.2110  212.2800  154.3060 C   0  0  0  0  0  3  0  0  0  0  0  0
  157.9740  212.7970  153.0290 C   0  0  0  0  0  0  0  0  0  0  0  0
  160.6520  207.9640  152.8080 C   0  0  0  0  0  2  0  0  0  0  0  0
  161.2480  206.6460  152.3350 C   0  0  0  0  0  2  0  0  0  0  0  0
  160.8960  206.3540  150.8810 C   0  0  1  0  0  3  0  0  0  0  0  0
  161.6760  207.2510  149.9820 C   0  0  0  0  0  0  0  0  0  0  0  0
  161.1130  207.7400  148.8090 O   0  0  0  0  0  0  0  0  0  0  0  0
  162.8540  207.5690  150.2900 O   0  0  0  0  0  1  0  0  0  0  0  0
  161.1800  204.8990  150.5310 C   0  0  0  0  0  2  0  0  0  0  0  0
  160.6010  204.5610  149.2760 O   0  0  0  0  0  0  0  0  0  0  0  0
  161.2300  203.7180  148.3550 C   0  0  0  0  0  0  0  0  0  0  0  0
  161.9540  204.2240  147.4570 O   0  0  0  0  0  0  0  0  0  0  0  0
  159.9460  201.9140  149.2020 O   0  0  0  0  0  1  0  0  0  0  0  0
  161.0530  202.2310  148.4150 C   0  0  1  0  0  3  0  0  0  0  0  0
  160.8690  201.6970  147.0770 N   0  0  0  0  0  1  0  0  0  0  0  0
  1  2  2  0  0  0  0
  1  3  1  0  0  0  0
  2  4  1  0  0  0  0
  4  8  1  0  0  0  0
  4  5  1  0  0  0  0
  4  6  1  1  0  0  0
  8  7  1  0  0  0  0
 10  9  1  6  0  0  0
 10  2  1  0  0  0  0
 11 14  1  0  0  0  0
 12 18  1  0  0  0  0
 13 15  1  0  0  0  0
 14 10  1  0  0  0  0
 14 16  2  0  0  0  0
 15 11  2  0  0  0  0
 15 18  1  0  0  0  0
 17 16  1  0  0  0  0
 18 17  2  0  0  0  0
 19  1  1  0  0  0  0
 20 19  1  0  0  0  0
 21 25  1  6  0  0  0
 21 20  1  0  0  0  0
 22 24  1  0  0  0  0
 22 21  1  0  0  0  0
 23 22  2  0  0  0  0
 26 25  1  0  0  0  0
 27 30  1  0  0  0  0
 27 26  1  0  0  0  0
 28 27  2  0  0  0  0
 30 31  1  6  0  0  0
 30 29  1  0  0  0  0
M  END
>  <MODEL>
3

>  <REMARK>
 VINA RESULT:      -6.2      1.640      1.928
  Name = 
  12 active torsions:
  status: ('A' for Active; 'I' for Inactive)
    1  A    between atoms: O_1  and  C_2
    2  A    between atoms: O_1  and  C_26
    3  A    between atoms: C_2  and  C_19
    4  A    between atoms: C_3  and  C_23
    5  A    between atoms: C_5  and  C_9
    6  A    between atoms: C_5  and  C_18
    7  A    between atoms: C_6  and  C_31
    8  A    between atoms: C_9  and  C_16
    9  A    between atoms: C_13  and  C_18
   10  A    between atoms: C_20  and  C_23
   11  A    between atoms: C_20  and  C_31
   12  A    between atoms: C_26  and  C_31
                            x       y       z     vdW  Elec       q    Type
                         _______ _______ _______ _____ _____    ______ ____

>  <TORSDO>
F 12

$$$$
=
 OpenBabel11052411193D

 31 31  0  0  1  0  0  0  0  0999 V2000
  160.8730  207.8670  153.1530 C   0  0  0  0  0  0  0  0  0  0  0  0
  161.0750  208.7580  154.1490 C   0  0  0  0  0  0  0  0  0  0  0  0
  160.5740  206.5380  153.4410 O   0  0  0  0  0  1  0  0  0  0  0  0
  160.9840  208.3020  155.6110 C   0  0  2  0  0  0  0  0  0  0  0  0
  161.8900  207.2610  155.8200 O   0  0  0  0  0  1  0  0  0  0  0  0
  159.6080  207.7820  156.0000 C   0  0  0  0  0  1  0  0  0  0  0  0
  162.6440  209.3080  157.0500 O   0  0  0  0  0  1  0  0  0  0  0  0
  161.3440  209.4500  156.5560 C   0  0  0  0  0  2  0  0  0  0  0  0
  162.5230  210.3110  152.7390 C   0  0  0  0  0  1  0  0  0  0  0  0
  161.4070  210.1880  153.7690 C   0  0  1  0  0  3  0  0  0  0  0  0
  159.0990  211.0550  154.3660 C   0  0  0  0  0  3  0  0  0  0  0  0
  156.8990  213.5580  152.6930 N   0  0  0  0  0  1  0  0  0  0  0  0
  156.9170  211.8800  154.9710 O   0  0  0  0  0  1  0  0  0  0  0  0
  160.2020  211.0420  153.4990 C   0  0  0  0  0  0  0  0  0  0  0  0
  158.0030  211.8830  154.1040 C   0  0  0  0  0  0  0  0  0  0  0  0
  160.2030  211.8750  152.3750 C   0  0  0  0  0  3  0  0  0  0  0  0
  159.1080  212.7030  152.1100 C   0  0  0  0  0  3  0  0  0  0  0  0
  158.0080  212.7090  152.9720 C   0  0  0  0  0  0  0  0  0  0  0  0
  160.9410  208.2630  151.7080 C   0  0  0  0  0  2  0  0  0  0  0  0
  161.2130  207.0540  150.8220 C   0  0  0  0  0  2  0  0  0  0  0  0
  160.9230  207.3500  149.3550 C   0  0  1  0  0  3  0  0  0  0  0  0
  162.0460  208.1320  148.7660 C   0  0  0  0  0  0  0  0  0  0  0  0
  161.9780  209.5190  148.6860 O   0  0  0  0  0  1  0  0  0  0  0  0
  163.0660  207.5320  148.3380 O   0  0  0  0  0  0  0  0  0  0  0  0
  160.7210  206.0630  148.5670 C   0  0  0  0  0  2  0  0  0  0  0  0
  160.4570  206.3470  147.1980 O   0  0  0  0  0  0  0  0  0  0  0  0
  160.9100  205.5320  146.1560 C   0  0  0  0  0  0  0  0  0  0  0  0
  160.5120  205.7630  144.9830 O   0  0  0  0  0  0  0  0  0  0  0  0
  161.5190  203.3120  145.5920 O   0  0  0  0  0  1  0  0  0  0  0  0
  161.8490  204.3930  146.4100 C   0  0  1  0  0  3  0  0  0  0  0  0
  163.2160  204.8060  146.1450 N   0  0  0  0  0  1  0  0  0  0  0  0
  1  3  1  0  0  0  0
  1  2  2  0  0  0  0
  2  4  1  0  0  0  0
  4  5  1  0  0  0  0
  4  6  1  1  0  0  0
  4  8  1  0  0  0  0
  8  7  1  0  0  0  0
 10  9  1  6  0  0  0
 10  2  1  0  0  0  0
 12 18  1  0  0  0  0
 14 10  1  0  0  0  0
 14 11  2  0  0  0  0
 15 11  1  0  0  0  0
 15 13  1  0  0  0  0
 16 14  1  0  0  0  0
 17 16  2  0  0  0  0
 17 18  1  0  0  0  0
 18 15  2  0  0  0  0
 19  1  1  0  0  0  0
 20 19  1  0  0  0  0
 21 25  1  6  0  0  0
 21 20  1  0  0  0  0
 22 21  1  0  0  0  0
 23 22  1  0  0  0  0
 24 22  2  0  0  0  0
 26 25  1  0  0  0  0
 27 30  1  0  0  0  0
 27 26  1  0  0  0  0
 28 27  2  0  0  0  0
 30 29  1  6  0  0  0
 31 30  1  0  0  0  0
M  END
>  <MODEL>
4

>  <REMARK>
 VINA RESULT:      -6.1      1.841      2.031
  Name = 
  12 active torsions:
  status: ('A' for Active; 'I' for Inactive)
    1  A    between atoms: O_1  and  C_2
    2  A    between atoms: O_1  and  C_26
    3  A    between atoms: C_2  and  C_19
    4  A    between atoms: C_3  and  C_23
    5  A    between atoms: C_5  and  C_9
    6  A    between atoms: C_5  and  C_18
    7  A    between atoms: C_6  and  C_31
    8  A    between atoms: C_9  and  C_16
    9  A    between atoms: C_13  and  C_18
   10  A    between atoms: C_20  and  C_23
   11  A    between atoms: C_20  and  C_31
   12  A    between atoms: C_26  and  C_31
                            x       y       z     vdW  Elec       q    Type
                         _______ _______ _______ _____ _____    ______ ____

>  <TORSDO>
F 12

$$$$
=
 OpenBabel11052411193D

 31 31  0  0  1  0  0  0  0  0999 V2000
  161.0030  207.8080  153.6420 C   0  0  0  0  0  0  0  0  0  0  0  0
  161.2770  209.0360  154.1380 C   0  0  0  0  0  0  0  0  0  0  0  0
  160.7300  206.7440  154.4960 O   0  0  0  0  0  1  0  0  0  0  0  0
  161.2950  209.2590  155.6560 C   0  0  2  0  0  0  0  0  0  0  0  0
  161.9410  208.1820  156.2660 O   0  0  0  0  0  1  0  0  0  0  0  0
  159.9070  209.3560  156.2720 C   0  0  0  0  0  1  0  0  0  0  0  0
  161.2060  211.5110  156.5300 O   0  0  0  0  0  1  0  0  0  0  0  0
  162.0600  210.5380  156.0020 C   0  0  0  0  0  2  0  0  0  0  0  0
  162.3460  209.6980  151.9220 C   0  0  0  0  0  1  0  0  0  0  0  0
  161.5760  210.1510  153.1550 C   0  0  1  0  0  3  0  0  0  0  0  0
  159.2320  210.9900  153.6430 C   0  0  0  0  0  3  0  0  0  0  0  0
  157.1990  213.6810  152.0520 N   0  0  0  0  0  1  0  0  0  0  0  0
  157.0140  211.7850  154.1440 O   0  0  0  0  0  1  0  0  0  0  0  0
  160.4050  211.0460  152.8730 C   0  0  0  0  0  0  0  0  0  0  0  0
  158.1690  211.8570  153.3750 C   0  0  0  0  0  0  0  0  0  0  0  0
  160.5050  211.9860  151.8410 C   0  0  0  0  0  3  0  0  0  0  0  0
  159.4420  212.8530  151.5710 C   0  0  0  0  0  3  0  0  0  0  0  0
  158.2740  212.7910  152.3350 C   0  0  0  0  0  0  0  0  0  0  0  0
  160.9630  207.5390  152.1670 C   0  0  0  0  0  2  0  0  0  0  0  0
  161.9380  206.4330  151.7870 C   0  0  0  0  0  2  0  0  0  0  0  0
  161.4560  205.6470  150.5720 C   0  0  1  0  0  3  0  0  0  0  0  0
  160.8950  204.3380  151.0080 C   0  0  0  0  0  0  0  0  0  0  0  0
  160.7950  204.0250  152.3590 O   0  0  0  0  0  1  0  0  0  0  0  0
  160.5070  203.5080  150.1450 O   0  0  0  0  0  0  0  0  0  0  0  0
  160.4020  206.4280  149.7980 C   0  0  0  0  0  2  0  0  0  0  0  0
  160.5840  206.2640  148.3970 O   0  0  0  0  0  0  0  0  0  0  0  0
  161.8220  206.4370  147.7690 C   0  0  0  0  0  0  0  0  0  0  0  0
  162.4550  207.5110  147.9520 O   0  0  0  0  0  0  0  0  0  0  0  0
  161.6950  204.1840  147.0440 O   0  0  0  0  0  1  0  0  0  0  0  0
  162.4010  205.3770  146.8840 C   0  0  1  0  0  3  0  0  0  0  0  0
  162.3380  205.7980  145.4950 N   0  0  0  0  0  1  0  0  0  0  0  0
  1  2  2  0  0  0  0
  1  3  1  0  0  0  0
  2  4  1  0  0  0  0
  4  8  1  0  0  0  0
  4  5  1  0  0  0  0
  4  6  1  1  0  0  0
  8  7  1  0  0  0  0
 10  9  1  6  0  0  0
 10  2  1  0  0  0  0
 12 18  1  0  0  0  0
 14 10  1  0  0  0  0
 14 11  2  0  0  0  0
 15 11  1  0  0  0  0
 15 13  1  0  0  0  0
 16 14  1  0  0  0  0
 17 16  2  0  0  0  0
 17 18  1  0  0  0  0
 18 15  2  0  0  0  0
 19  1  1  0  0  0  0
 20 19  1  0  0  0  0
 21 25  1  1  0  0  0
 21 22  1  0  0  0  0
 21 20  1  0  0  0  0
 22 23  1  0  0  0  0
 24 22  2  0  0  0  0
 26 25  1  0  0  0  0
 27 28  2  0  0  0  0
 27 26  1  0  0  0  0
 30 31  1  6  0  0  0
 30 29  1  0  0  0  0
 30 27  1  0  0  0  0
M  END
>  <MODEL>
5

>  <REMARK>
 VINA RESULT:      -6.1      1.811      2.775
  Name = 
  12 active torsions:
  status: ('A' for Active; 'I' for Inactive)
    1  A    between atoms: O_1  and  C_2
    2  A    between atoms: O_1  and  C_26
    3  A    between atoms: C_2  and  C_19
    4  A    between atoms: C_3  and  C_23
    5  A    between atoms: C_5  and  C_9
    6  A    between atoms: C_5  and  C_18
    7  A    between atoms: C_6  and  C_31
    8  A    between atoms: C_9  and  C_16
    9  A    between atoms: C_13  and  C_18
   10  A    between atoms: C_20  and  C_23
   11  A    between atoms: C_20  and  C_31
   12  A    between atoms: C_26  and  C_31
                            x       y       z     vdW  Elec       q    Type
                         _______ _______ _______ _____ _____    ______ ____

>  <TORSDO>
F 12

$$$$
=
 OpenBabel11052411193D

 31 31  0  0  1  0  0  0  0  0999 V2000
  160.8590  207.9500  153.5860 C   0  0  0  0  0  0  0  0  0  0  0  0
  161.0830  209.2070  154.0350 C   0  0  0  0  0  0  0  0  0  0  0  0
  160.4800  206.9410  154.4670 O   0  0  0  0  0  1  0  0  0  0  0  0
  160.9260  209.5240  155.5270 C   0  0  2  0  0  0  0  0  0  0  0  0
  159.5830  209.3810  155.8830 O   0  0  0  0  0  1  0  0  0  0  0  0
  161.3390  210.9420  155.8940 C   0  0  0  0  0  1  0  0  0  0  0  0
  162.7000  209.2350  157.1430 O   0  0  0  0  0  1  0  0  0  0  0  0
  161.7530  208.5530  156.3730 C   0  0  0  0  0  2  0  0  0  0  0  0
  162.3340  209.7120  151.8720 C   0  0  0  0  0  1  0  0  0  0  0  0
  161.5040  210.2580  153.0260 C   0  0  1  0  0  3  0  0  0  0  0  0
  160.5840  212.1660  151.6290 C   0  0  0  0  0  3  0  0  0  0  0  0
  157.1910  213.7050  151.4920 N   0  0  0  0  0  1  0  0  0  0  0  0
  159.7300  213.9640  150.2720 O   0  0  0  0  0  1  0  0  0  0  0  0
  160.3990  211.1910  152.6220 C   0  0  0  0  0  0  0  0  0  0  0  0
  159.5280  213.0010  151.2530 C   0  0  0  0  0  0  0  0  0  0  0  0
  159.1440  211.0530  153.2240 C   0  0  0  0  0  3  0  0  0  0  0  0
  158.0860  211.8880  152.8500 C   0  0  0  0  0  3  0  0  0  0  0  0
  158.2760  212.8620  151.8660 C   0  0  0  0  0  0  0  0  0  0  0  0
  160.9900  207.5900  152.1360 C   0  0  0  0  0  2  0  0  0  0  0  0
  161.9480  206.4230  151.9470 C   0  0  0  0  0  2  0  0  0  0  0  0
  161.5330  205.5320  150.7810 C   0  0  1  0  0  3  0  0  0  0  0  0
  161.0040  204.2390  151.2970 C   0  0  0  0  0  0  0  0  0  0  0  0
  160.7080  203.1970  150.4250 O   0  0  0  0  0  0  0  0  0  0  0  0
  160.8250  204.0880  152.5330 O   0  0  0  0  0  1  0  0  0  0  0  0
  160.4780  206.2150  149.9200 C   0  0  0  0  0  2  0  0  0  0  0  0
  160.4540  205.6520  148.6140 O   0  0  0  0  0  0  0  0  0  0  0  0
  161.1360  206.2200  147.5330 C   0  0  0  0  0  0  0  0  0  0  0  0
  161.6910  207.3420  147.6810 O   0  0  0  0  0  0  0  0  0  0  0  0
  160.4490  206.2120  145.2650 O   0  0  0  0  0  1  0  0  0  0  0  0
  161.2120  205.5250  146.2090 C   0  0  1  0  0  3  0  0  0  0  0  0
  162.5930  205.4530  145.7620 N   0  0  0  0  0  1  0  0  0  0  0  0
  1  2  2  0  0  0  0
  1  3  1  0  0  0  0
  2  4  1  0  0  0  0
  4  5  1  0  0  0  0
  4  6  1  1  0  0  0
  4  8  1  0  0  0  0
  8  7  1  0  0  0  0
 10  9  1  6  0  0  0
 10  2  1  0  0  0  0
 11 14  1  0  0  0  0
 12 18  1  0  0  0  0
 13 15  1  0  0  0  0
 14 10  1  0  0  0  0
 14 16  2  0  0  0  0
 15 11  2  0  0  0  0
 15 18  1  0  0  0  0
 17 16  1  0  0  0  0
 18 17  2  0  0  0  0
 19  1  1  0  0  0  0
 20 19  1  0  0  0  0
 21 25  1  1  0  0  0
 21 22  1  0  0  0  0
 21 20  1  0  0  0  0
 22 24  1  0  0  0  0
 23 22  2  0  0  0  0
 26 25  1  0  0  0  0
 27 28  2  0  0  0  0
 27 26  1  0  0  0  0
 30 29  1  6  0  0  0
 30 27  1  0  0  0  0
 31 30  1  0  0  0  0
M  END
>  <MODEL>
6

>  <REMARK>
 VINA RESULT:      -5.8      2.147      3.347
  Name = 
  12 active torsions:
  status: ('A' for Active; 'I' for Inactive)
    1  A    between atoms: O_1  and  C_2
    2  A    between atoms: O_1  and  C_26
    3  A    between atoms: C_2  and  C_19
    4  A    between atoms: C_3  and  C_23
    5  A    between atoms: C_5  and  C_9
    6  A    between atoms: C_5  and  C_18
    7  A    between atoms: C_6  and  C_31
    8  A    between atoms: C_9  and  C_16
    9  A    between atoms: C_13  and  C_18
   10  A    between atoms: C_20  and  C_23
   11  A    between atoms: C_20  and  C_31
   12  A    between atoms: C_26  and  C_31
                            x       y       z     vdW  Elec       q    Type
                         _______ _______ _______ _____ _____    ______ ____

>  <TORSDO>
F 12

$$$$
=
 OpenBabel11052411193D

 31 31  0  0  1  0  0  0  0  0999 V2000
  160.8960  207.9620  152.9650 C   0  0  0  0  0  0  0  0  0  0  0  0
  161.0880  208.9220  153.8970 C   0  0  0  0  0  0  0  0  0  0  0  0
  160.4660  206.6910  153.3350 O   0  0  0  0  0  1  0  0  0  0  0  0
  160.8380  208.6090  155.3780 C   0  0  2  0  0  0  0  0  0  0  0  0
  159.5620  209.0540  155.7280 O   0  0  0  0  0  1  0  0  0  0  0  0
  161.8220  209.2900  156.3180 C   0  0  0  0  0  1  0  0  0  0  0  0
  160.2980  206.7610  156.8390 O   0  0  0  0  0  1  0  0  0  0  0  0
  160.9080  207.1010  155.6280 C   0  0  0  0  0  2  0  0  0  0  0  0
  162.4410  210.2370  152.1840 C   0  0  0  0  0  1  0  0  0  0  0  0
  161.5670  210.2830  153.4300 C   0  0  1  0  0  3  0  0  0  0  0  0
  159.7680  211.6230  152.2430 C   0  0  0  0  0  3  0  0  0  0  0  0
  157.4260  214.2450  153.4860 N   0  0  0  0  0  1  0  0  0  0  0  0
  158.0490  212.8620  151.0970 O   0  0  0  0  0  1  0  0  0  0  0  0
  160.4940  211.3330  153.4090 C   0  0  0  0  0  0  0  0  0  0  0  0
  158.7550  212.5850  152.2620 C   0  0  0  0  0  0  0  0  0  0  0  0
  160.1860  212.0090  154.5960 C   0  0  0  0  0  3  0  0  0  0  0  0
  159.1730  212.9720  154.6160 C   0  0  0  0  0  3  0  0  0  0  0  0
  158.4570  213.2620  153.4520 C   0  0  0  0  0  0  0  0  0  0  0  0
  161.1160  208.2190  151.5030 C   0  0  0  0  0  2  0  0  0  0  0  0
  161.7920  207.0300  150.8350 C   0  0  0  0  0  2  0  0  0  0  0  0
  161.0270  206.5630  149.6020 C   0  0  1  0  0  3  0  0  0  0  0  0
  161.6010  207.1970  148.3810 C   0  0  0  0  0  0  0  0  0  0  0  0
  161.0060  207.0080  147.1390 O   0  0  0  0  0  0  0  0  0  0  0  0
  162.6340  207.9100  148.4770 O   0  0  0  0  0  1  0  0  0  0  0  0
  161.0780  205.0470  149.4680 C   0  0  0  0  0  2  0  0  0  0  0  0
  160.6840  204.4220  150.6840 O   0  0  0  0  0  0  0  0  0  0  0  0
  160.8060  203.0450  150.9000 C   0  0  0  0  0  0  0  0  0  0  0  0
  160.9050  202.6180  152.0810 O   0  0  0  0  0  0  0  0  0  0  0  0
  161.3980  200.8710  150.1650 O   0  0  0  0  0  1  0  0  0  0  0  0
  160.8270  202.0770  149.7580 C   0  0  1  0  0  3  0  0  0  0  0  0
  159.4750  201.8390  149.2810 N   0  0  0  0  0  1  0  0  0  0  0  0
  1  3  1  0  0  0  0
  1  2  2  0  0  0  0
  2  4  1  0  0  0  0
  4  8  1  0  0  0  0
  4  5  1  0  0  0  0
  4  6  1  1  0  0  0
  8  7  1  0  0  0  0
 10  9  1  6  0  0  0
 10  2  1  0  0  0  0
 11 15  2  0  0  0  0
 11 14  1  0  0  0  0
 13 15  1  0  0  0  0
 14 10  1  0  0  0  0
 14 16  2  0  0  0  0
 15 18  1  0  0  0  0
 16 17  1  0  0  0  0
 18 12  1  0  0  0  0
 18 17  2  0  0  0  0
 19  1  1  0  0  0  0
 20 19  1  0  0  0  0
 21 25  1  6  0  0  0
 21 20  1  0  0  0  0
 22 24  1  0  0  0  0
 22 21  1  0  0  0  0
 23 22  2  0  0  0  0
 25 26  1  0  0  0  0
 26 27  1  0  0  0  0
 27 28  2  0  0  0  0
 30 31  1  1  0  0  0
 30 29  1  0  0  0  0
 30 27  1  0  0  0  0
M  END
>  <MODEL>
7

>  <REMARK>
 VINA RESULT:      -5.4      1.505      1.957
  Name = 
  12 active torsions:
  status: ('A' for Active; 'I' for Inactive)
    1  A    between atoms: O_1  and  C_2
    2  A    between atoms: O_1  and  C_26
    3  A    between atoms: C_2  and  C_19
    4  A    between atoms: C_3  and  C_23
    5  A    between atoms: C_5  and  C_9
    6  A    between atoms: C_5  and  C_18
    7  A    between atoms: C_6  and  C_31
    8  A    between atoms: C_9  and  C_16
    9  A    between atoms: C_13  and  C_18
   10  A    between atoms: C_20  and  C_23
   11  A    between atoms: C_20  and  C_31
   12  A    between atoms: C_26  and  C_31
                            x       y       z     vdW  Elec       q    Type
                         _______ _______ _______ _____ _____    ______ ____

>  <TORSDO>
F 12

$$$$
=
 OpenBabel11052411193D

 31 31  0  0  1  0  0  0  0  0999 V2000
  161.2230  207.4510  151.1180 C   0  0  0  0  0  0  0  0  0  0  0  0
  161.2610  208.3630  152.1160 C   0  0  0  0  0  0  0  0  0  0  0  0
  161.5660  207.8100  149.8170 O   0  0  0  0  0  1  0  0  0  0  0  0
  161.6790  209.8080  151.8150 C   0  0  2  0  0  0  0  0  0  0  0  0
  162.6690  210.1930  152.7200 O   0  0  0  0  0  1  0  0  0  0  0  0
  160.5400  210.8090  151.9440 C   0  0  0  0  0  1  0  0  0  0  0  0
  161.9080  211.1380  149.8100 O   0  0  0  0  0  1  0  0  0  0  0  0
  162.2510  209.9180  150.4000 C   0  0  0  0  0  2  0  0  0  0  0  0
  161.5890  206.6570  153.9810 C   0  0  0  0  0  1  0  0  0  0  0  0
  160.8650  207.9110  153.5080 C   0  0  1  0  0  3  0  0  0  0  0  0
  161.9030  209.3410  155.3290 C   0  0  0  0  0  3  0  0  0  0  0  0
  160.5570  212.2350  157.2560 N   0  0  0  0  0  1  0  0  0  0  0  0
  162.9230  210.7000  157.0370 O   0  0  0  0  0  1  0  0  0  0  0  0
  160.8040  209.0220  154.5160 C   0  0  0  0  0  0  0  0  0  0  0  0
  161.8270  210.4010  156.2370 C   0  0  0  0  0  0  0  0  0  0  0  0
  159.6330  209.7820  154.6140 C   0  0  0  0  0  3  0  0  0  0  0  0
  159.5550  210.8420  155.5220 C   0  0  0  0  0  3  0  0  0  0  0  0
  160.6480  211.1530  156.3350 C   0  0  0  0  0  0  0  0  0  0  0  0
  160.8310  206.0240  151.3600 C   0  0  0  0  0  2  0  0  0  0  0  0
  160.3900  205.3510  150.0680 C   0  0  0  0  0  2  0  0  0  0  0  0
  161.2940  204.1800  149.7020 C   0  0  1  0  0  3  0  0  0  0  0  0
  160.8190  202.9430  150.3840 C   0  0  0  0  0  0  0  0  0  0  0  0
  160.0140  202.0290  149.7120 O   0  0  0  0  0  0  0  0  0  0  0  0
  161.1500  202.7240  151.5780 O   0  0  0  0  0  1  0  0  0  0  0  0
  161.3210  203.9590  148.1950 C   0  0  0  0  0  2  0  0  0  0  0  0
  161.8400  205.1040  147.5290 O   0  0  0  0  0  0  0  0  0  0  0  0
  162.2840  205.0710  146.2030 C   0  0  0  0  0  0  0  0  0  0  0  0
  163.4890  204.7890  145.9690 O   0  0  0  0  0  0  0  0  0  0  0  0
  160.7900  204.1860  144.5900 O   0  0  0  0  0  1  0  0  0  0  0  0
  161.3580  205.3690  145.0650 C   0  0  1  0  0  3  0  0  0  0  0  0
  160.3080  206.2740  145.5000 N   0  0  0  0  0  1  0  0  0  0  0  0
  1 19  1  0  0  0  0
  1  2  2  0  0  0  0
  2 10  1  0  0  0  0
  3  1  1  0  0  0  0
  4  6  1  1  0  0  0
  4  2  1  0  0  0  0
  4  5  1  0  0  0  0
  7  8  1  0  0  0  0
  8  4  1  0  0  0  0
 10  9  1  1  0  0  0
 10 14  1  0  0  0  0
 11 15  1  0  0  0  0
 14 16  1  0  0  0  0
 14 11  2  0  0  0  0
 15 18  2  0  0  0  0
 15 13  1  0  0  0  0
 16 17  2  0  0  0  0
 17 18  1  0  0  0  0
 18 12  1  0  0  0  0
 20 19  1  0  0  0  0
 21 25  1  6  0  0  0
 21 20  1  0  0  0  0
 21 22  1  0  0  0  0
 22 24  1  0  0  0  0
 23 22  2  0  0  0  0
 26 25  1  0  0  0  0
 27 26  1  0  0  0  0
 28 27  2  0  0  0  0
 30 29  1  1  0  0  0
 30 31  1  0  0  0  0
 30 27  1  0  0  0  0
M  END
>  <MODEL>
8

>  <REMARK>
 VINA RESULT:      -5.3      2.736      4.655
  Name = 
  12 active torsions:
  status: ('A' for Active; 'I' for Inactive)
    1  A    between atoms: O_1  and  C_2
    2  A    between atoms: O_1  and  C_26
    3  A    between atoms: C_2  and  C_19
    4  A    between atoms: C_3  and  C_23
    5  A    between atoms: C_5  and  C_9
    6  A    between atoms: C_5  and  C_18
    7  A    between atoms: C_6  and  C_31
    8  A    between atoms: C_9  and  C_16
    9  A    between atoms: C_13  and  C_18
   10  A    between atoms: C_20  and  C_23
   11  A    between atoms: C_20  and  C_31
   12  A    between atoms: C_26  and  C_31
                            x       y       z     vdW  Elec       q    Type
                         _______ _______ _______ _____ _____    ______ ____

>  <TORSDO>
F 12

$$$$
=
 OpenBabel11052411193D

 31 31  0  0  1  0  0  0  0  0999 V2000
  161.2780  207.3730  151.0850 C   0  0  0  0  0  0  0  0  0  0  0  0
  161.2840  208.3240  152.0470 C   0  0  0  0  0  0  0  0  0  0  0  0
  161.6670  207.6800  149.7840 O   0  0  0  0  0  1  0  0  0  0  0  0
  161.7140  209.7550  151.7030 C   0  0  2  0  0  0  0  0  0  0  0  0
  162.7080  210.1580  152.5980 O   0  0  0  0  0  1  0  0  0  0  0  0
  160.5840  210.7700  151.8030 C   0  0  0  0  0  1  0  0  0  0  0  0
  161.9860  211.0380  149.6730 O   0  0  0  0  0  1  0  0  0  0  0  0
  162.2880  209.8190  150.2860 C   0  0  0  0  0  2  0  0  0  0  0  0
  161.5040  206.6610  153.9660 C   0  0  0  0  0  1  0  0  0  0  0  0
  160.8390  207.9270  153.4410 C   0  0  1  0  0  3  0  0  0  0  0  0
  159.6790  209.9090  154.5200 C   0  0  0  0  0  3  0  0  0  0  0  0
  160.7520  212.1980  157.2610 N   0  0  0  0  0  1  0  0  0  0  0  0
  158.5440  211.7710  155.5450 O   0  0  0  0  0  1  0  0  0  0  0  0
  160.7980  209.0690  154.4160 C   0  0  0  0  0  0  0  0  0  0  0  0
  159.6590  210.9460  155.4570 C   0  0  0  0  0  0  0  0  0  0  0  0
  161.8910  209.2710  155.2660 C   0  0  0  0  0  3  0  0  0  0  0  0
  161.8730  210.3080  156.2030 C   0  0  0  0  0  3  0  0  0  0  0  0
  160.7600  211.1460  156.3010 C   0  0  0  0  0  0  0  0  0  0  0  0
  160.8760  205.9570  151.3700 C   0  0  0  0  0  2  0  0  0  0  0  0
  160.4560  205.2400  150.0940 C   0  0  0  0  0  2  0  0  0  0  0  0
  161.3240  204.0170  149.8200 C   0  0  1  0  0  3  0  0  0  0  0  0
  160.8580  202.8710  150.6510 C   0  0  0  0  0  0  0  0  0  0  0  0
  159.9590  201.9440  150.1370 O   0  0  0  0  0  0  0  0  0  0  0  0
  161.2840  202.7420  151.8280 O   0  0  0  0  0  1  0  0  0  0  0  0
  161.2810  203.6350  148.3450 C   0  0  0  0  0  2  0  0  0  0  0  0
  161.4000  204.7900  147.5240 O   0  0  0  0  0  0  0  0  0  0  0  0
  162.1130  204.7920  146.3210 C   0  0  0  0  0  0  0  0  0  0  0  0
  163.3710  204.8390  146.3560 O   0  0  0  0  0  0  0  0  0  0  0  0
  160.7030  203.5510  144.8760 O   0  0  0  0  0  1  0  0  0  0  0  0
  161.4100  204.7470  144.9990 C   0  0  1  0  0  3  0  0  0  0  0  0
  160.4950  205.8690  144.8830 N   0  0  0  0  0  1  0  0  0  0  0  0
  1 19  1  0  0  0  0
  1  2  2  0  0  0  0
  2 10  1  0  0  0  0
  3  1  1  0  0  0  0
  4  6  1  1  0  0  0
  4  2  1  0  0  0  0
  4  5  1  0  0  0  0
  7  8  1  0  0  0  0
  8  4  1  0  0  0  0
 10  9  1  1  0  0  0
 10 14  1  0  0  0  0
 11 15  1  0  0  0  0
 14 11  2  0  0  0  0
 14 16  1  0  0  0  0
 15 13  1  0  0  0  0
 15 18  2  0  0  0  0
 16 17  2  0  0  0  0
 17 18  1  0  0  0  0
 18 12  1  0  0  0  0
 20 19  1  0  0  0  0
 21 25  1  6  0  0  0
 21 20  1  0  0  0  0
 21 22  1  0  0  0  0
 22 24  1  0  0  0  0
 23 22  2  0  0  0  0
 26 25  1  0  0  0  0
 27 28  2  0  0  0  0
 27 26  1  0  0  0  0
 30 29  1  1  0  0  0
 30 27  1  0  0  0  0
 31 30  1  0  0  0  0
M  END
>  <MODEL>
9

>  <REMARK>
 VINA RESULT:      -5.2      2.696      4.537
  Name = 
  12 active torsions:
  status: ('A' for Active; 'I' for Inactive)
    1  A    between atoms: O_1  and  C_2
    2  A    between atoms: O_1  and  C_26
    3  A    between atoms: C_2  and  C_19
    4  A    between atoms: C_3  and  C_23
    5  A    between atoms: C_5  and  C_9
    6  A    between atoms: C_5  and  C_18
    7  A    between atoms: C_6  and  C_31
    8  A    between atoms: C_9  and  C_16
    9  A    between atoms: C_13  and  C_18
   10  A    between atoms: C_20  and  C_23
   11  A    between atoms: C_20  and  C_31
   12  A    between atoms: C_26  and  C_31
                            x       y       z     vdW  Elec       q    Type
                         _______ _______ _______ _____ _____    ______ ____

>  <TORSDO>
F 12

$$$$
