=
 OpenBabel11052411573D

 56 60  0  0  1  0  0  0  0  0999 V2000
  160.7800  213.9830  149.5550 N   0  0  0  0  0  2  0  0  0  0  0  0
  159.9420  214.0720  148.4020 C   0  0  0  0  0  0  0  0  0  0  0  0
  158.7240  214.3730  148.5210 O   0  0  0  0  0  0  0  0  0  0  0  0
  161.9830  214.3810  147.0120 C   0  0  0  0  0  1  0  0  0  0  0  0
  160.5490  213.8760  147.0500 C   0  0  1  0  0  3  0  0  0  0  0  0
  160.4900  212.4110  146.6580 C   0  0  0  0  0  2  0  0  0  0  0  0
  159.0420  211.4530  142.6740 O   0  0  0  0  0  0  0  0  0  0  0  0
  159.8180  212.2530  145.3410 C   0  0  0  0  0  0  0  0  0  0  0  0
  158.5910  211.9780  145.3020 O   0  0  0  0  0  0  0  0  0  0  0  0
  160.5630  212.4570  144.1390 N   0  0  0  0  0  2  0  0  0  0  0  0
  160.1080  212.1110  142.8280 C   0  0  0  0  0  0  0  0  0  0  0  0
  158.9390  213.1530  140.5090 O   0  0  0  0  0  0  0  0  0  0  0  0
  164.3030  213.4200  140.8150 F   0  0  0  0  0  0  0  0  0  0  0  0
  162.8290  214.4530  138.4650 O   0  0  0  0  0  1  0  0  0  0  0  0
  162.3410  213.5310  139.3880 C   0  0  1  0  0  0  0  0  0  0  0  0
  160.1970  213.1170  140.5210 C   0  0  0  0  0  0  0  0  0  0  0  0
  161.8570  214.4300  142.7720 O   0  0  0  0  0  1  0  0  0  0  0  0
  162.9820  213.8280  140.7610 C   0  0  1  0  0  3  0  0  0  0  0  0
  160.9600  212.4810  141.6450 C   0  0  1  0  0  3  0  0  0  0  0  0
  160.9160  213.6580  139.4590 O   0  0  0  0  0  0  0  0  0  0  0  0
  162.2060  213.3230  141.9950 C   0  0  2  0  0  3  0  0  0  0  0  0
  162.7090  212.1190  138.9260 C   0  0  0  0  0  2  0  0  0  0  0  0
  161.7690  211.6470  138.0070 O   0  0  0  0  0  0  0  0  0  0  0  0
  161.6620  207.6720  138.6730 O   0  0  0  0  0  0  0  0  0  0  0  0
  160.4730  209.6040  137.7220 C   0  0  2  0  0  3  0  0  0  0  0  0
  162.2630  209.8440  139.5290 C   0  0  0  0  0  2  0  0  0  0  0  0
  159.2920  210.2920  138.3930 C   0  0  0  0  0  1  0  0  0  0  0  0
  160.4480  208.1090  138.0920 C   0  0  0  0  0  2  0  0  0  0  0  0
  161.8250  208.4110  139.8560 C   0  0  0  0  0  2  0  0  0  0  0  0
  161.8110  210.2550  138.1240 C   0  0  2  0  0  3  0  0  0  0  0  0
  160.2930  214.2360  150.9040 C   0  0  0  0  0  2  0  0  0  0  0  0
  159.9680  212.9310  151.6040 C   0  0  0  0  0  2  0  0  0  0  0  0
  159.9300  213.1300  152.9870 O   0  0  0  0  0  0  0  0  0  0  0  0
  161.0890  207.7250  156.0220 C   0  0  0  0  0  2  0  0  0  0  0  0
  157.7400  211.9780  157.0170 C   0  0  0  0  0  2  0  0  0  0  0  0
  157.3830  211.2470  155.7330 C   0  0  0  0  0  2  0  0  0  0  0  0
  160.4930  209.4590  154.0210 C   0  0  1  0  0  3  0  0  0  0  0  0
  161.6110  209.8240  157.2520 N   0  0  0  0  0  2  0  0  0  0  0  0
  161.9030  209.0220  156.0620 C   0  0  2  0  0  3  0  0  0  0  0  0
  155.0350  213.5270  153.8060 C   0  0  0  0  0  3  0  0  0  0  0  0
  155.8430  213.9450  152.7490 C   0  0  0  0  0  3  0  0  0  0  0  0
  161.7830  209.8240  154.7570 C   0  0  0  0  0  2  0  0  0  0  0  0
  157.6870  212.6280  153.6270 C   0  0  0  0  0  0  0  0  0  0  0  0
  160.4270  210.1530  152.6700 C   0  0  0  0  0  2  0  0  0  0  0  0
  159.0930  212.1210  153.4790 C   0  0  1  0  0  3  0  0  0  0  0  0
  157.1590  213.4920  152.6570 C   0  0  0  0  0  3  0  0  0  0  0  0
  160.2550  210.3680  157.1990 C   0  0  0  0  0  2  0  0  0  0  0  0
  156.8650  212.1980  154.6940 C   0  0  0  0  0  0  0  0  0  0  0  0
  155.5370  212.6570  154.7750 C   0  0  0  0  0  0  0  0  0  0  0  0
  159.1180  210.9180  152.5390 C   0  0  0  0  0  2  0  0  0  0  0  0
  159.0520  212.5970  156.9120 N   0  0  0  0  0  2  0  0  0  0  0  0
  161.3700  212.4790  156.9210 O   0  0  0  0  0  0  0  0  0  0  0  0
  154.7080  212.2520  155.8190 O   0  0  0  0  0  1  0  0  0  0  0  0
  160.3230  207.9360  153.8730 C   0  0  0  0  0  2  0  0  0  0  0  0
  161.1580  207.1760  154.7290 O   0  0  0  0  0  0  0  0  0  0  0  0
  160.2730  211.8580  156.9930 C   0  0  0  0  0  0  0  0  0  0  0  0
  1 31  1  0  0  0  0
  2  3  2  0  0  0  0
  2  1  1  0  0  0  0
  5  4  1  1  0  0  0
  5  2  1  0  0  0  0
  6  5  1  0  0  0  0
  7 11  2  0  0  0  0
  8  6  1  0  0  0  0
  9  8  2  0  0  0  0
 10  8  1  0  0  0  0
 11 10  1  0  0  0  0
 12 16  2  0  0  0  0
 15 14  1  6  0  0  0
 15 20  1  0  0  0  0
 15 18  1  0  0  0  0
 16 19  1  0  0  0  0
 18 13  1  6  0  0  0
 18 21  1  0  0  0  0
 19 21  1  0  0  0  0
 19 11  1  1  0  0  0
 20 16  1  0  0  0  0
 21 17  1  6  0  0  0
 22 15  1  0  0  0  0
 23 22  1  0  0  0  0
 24 29  1  0  0  0  0
 25 28  1  0  0  0  0
 25 30  1  0  0  0  0
 25 27  1  1  0  0  0
 26 29  1  0  0  0  0
 28 24  1  0  0  0  0
 30 23  1  1  0  0  0
 30 26  1  0  0  0  0
 31 32  1  0  0  0  0
 32 33  1  0  0  0  0
 34 39  1  0  0  0  0
 36 35  1  0  0  0  0
 37 44  1  6  0  0  0
 37 42  1  0  0  0  0
 39 42  1  6  0  0  0
 39 38  1  0  0  0  0
 40 49  1  0  0  0  0
 41 40  2  0  0  0  0
 43 48  1  0  0  0  0
 45 33  1  6  0  0  0
 45 43  1  0  0  0  0
 46 41  1  0  0  0  0
 46 43  2  0  0  0  0
 47 38  1  0  0  0  0
 48 49  2  0  0  0  0
 48 36  1  0  0  0  0
 49 53  1  0  0  0  0
 50 44  1  0  0  0  0
 50 45  1  0  0  0  0
 51 56  1  0  0  0  0
 51 35  1  0  0  0  0
 52 56  2  0  0  0  0
 54 37  1  0  0  0  0
 54 55  1  0  0  0  0
 55 34  1  0  0  0  0
 56 47  1  0  0  0  0
M  END
>  <MODEL>
1

>  <REMARK>
 VINA RESULT:      -4.6      0.000      0.000
  Name = 
  11 active torsions:
  status: ('A' for Active; 'I' for Inactive)
    1  A    between atoms: N_1  and  C_24
    2  A    between atoms: C_8  and  C_30
    3  A    between atoms: C_10  and  C_35
    4  A    between atoms: C_20  and  C_49
    5  A    between atoms: C_24  and  C_51
    6  A    between atoms: C_25  and  O_39
    7  A    between atoms: C_30  and  C_35
    8  A    between atoms: O_39  and  C_51
    9  A    between atoms: C_40  and  C_50
   10  A    between atoms: C_46  and  O_54
   11  A    between atoms: C_49  and  O_54
                            x       y       z     vdW  Elec       q    Type
                         _______ _______ _______ _____ _____    ______ ____

>  <TORSDO>
F 11

$$$$
=
 OpenBabel11052411573D

 56 60  0  0  1  0  0  0  0  0999 V2000
  161.0680  212.5100  148.7720 N   0  0  0  0  0  2  0  0  0  0  0  0
  159.9440  212.9500  148.0080 C   0  0  0  0  0  0  0  0  0  0  0  0
  158.7840  212.9130  148.5000 O   0  0  0  0  0  0  0  0  0  0  0  0
  161.6220  213.9580  146.4710 C   0  0  0  0  0  1  0  0  0  0  0  0
  160.1750  213.5240  146.6480 C   0  0  1  0  0  3  0  0  0  0  0  0
  159.7880  212.5140  145.5820 C   0  0  0  0  0  2  0  0  0  0  0  0
  158.9410  213.8980  141.5500 O   0  0  0  0  0  0  0  0  0  0  0  0
  159.6400  213.1840  144.2630 C   0  0  0  0  0  0  0  0  0  0  0  0
  159.2090  214.3650  144.2130 O   0  0  0  0  0  0  0  0  0  0  0  0
  160.0270  212.4950  143.0720 N   0  0  0  0  0  2  0  0  0  0  0  0
  159.7210  212.9250  141.7430 C   0  0  0  0  0  0  0  0  0  0  0  0
  160.4530  214.2380  139.3830 O   0  0  0  0  0  0  0  0  0  0  0  0
  162.0010  209.1070  139.8490 F   0  0  0  0  0  0  0  0  0  0  0  0
  162.6500  210.7120  137.4480 O   0  0  0  0  0  1  0  0  0  0  0  0
  161.6370  210.9930  138.3620 C   0  0  1  0  0  0  0  0  0  0  0  0
  160.7200  213.0090  139.4330 C   0  0  0  0  0  0  0  0  0  0  0  0
  162.3920  211.7830  141.7240 O   0  0  0  0  0  1  0  0  0  0  0  0
  162.0790  210.4850  139.7520 C   0  0  1  0  0  3  0  0  0  0  0  0
  160.2860  212.1500  140.5840 C   0  0  1  0  0  3  0  0  0  0  0  0
  161.4190  212.4080  138.3890 O   0  0  0  0  0  0  0  0  0  0  0  0
  161.4030  211.1540  140.9650 C   0  0  2  0  0  3  0  0  0  0  0  0
  160.3560  210.2820  137.9220 C   0  0  0  0  0  2  0  0  0  0  0  0
  159.6200  211.0970  137.0580 O   0  0  0  0  0  0  0  0  0  0  0  0
  155.8470  209.7600  137.5370 O   0  0  0  0  0  0  0  0  0  0  0  0
  157.2600  211.7030  137.0140 C   0  0  2  0  0  3  0  0  0  0  0  0
  158.1270  209.6820  138.3150 C   0  0  0  0  0  2  0  0  0  0  0  0
  157.5600  212.8280  137.9960 C   0  0  0  0  0  1  0  0  0  0  0  0
  155.8520  211.1550  137.3050 C   0  0  0  0  0  2  0  0  0  0  0  0
  156.6420  209.5420  138.6740 C   0  0  0  0  0  2  0  0  0  0  0  0
  158.3200  210.5860  137.0930 C   0  0  2  0  0  3  0  0  0  0  0  0
  160.9470  212.0110  150.1350 C   0  0  0  0  0  2  0  0  0  0  0  0
  160.0940  212.9470  150.9680 C   0  0  0  0  0  2  0  0  0  0  0  0
  160.4650  212.8570  152.3130 O   0  0  0  0  0  0  0  0  0  0  0  0
  160.6110  208.0720  156.4190 C   0  0  0  0  0  2  0  0  0  0  0  0
  157.9140  212.8680  156.2960 C   0  0  0  0  0  2  0  0  0  0  0  0
  157.5160  211.9500  155.1520 C   0  0  0  0  0  2  0  0  0  0  0  0
  160.3960  209.4300  154.0780 C   0  0  1  0  0  3  0  0  0  0  0  0
  161.3870  210.2820  157.2590 N   0  0  0  0  0  2  0  0  0  0  0  0
  161.6120  209.2210  156.2750 C   0  0  2  0  0  3  0  0  0  0  0  0
  155.6540  214.1000  152.6340 C   0  0  0  0  0  3  0  0  0  0  0  0
  156.5710  214.1750  151.5860 C   0  0  0  0  0  3  0  0  0  0  0  0
  161.6880  209.7500  154.8340 C   0  0  0  0  0  2  0  0  0  0  0  0
  158.1400  212.8170  152.8510 C   0  0  0  0  0  0  0  0  0  0  0  0
  160.5100  209.8380  152.6190 C   0  0  0  0  0  2  0  0  0  0  0  0
  159.4570  212.0970  152.9200 C   0  0  1  0  0  3  0  0  0  0  0  0
  157.8050  213.5320  151.6930 C   0  0  0  0  0  3  0  0  0  0  0  0
  160.1360  210.9900  156.9910 C   0  0  0  0  0  2  0  0  0  0  0  0
  157.2070  212.7330  153.9100 C   0  0  0  0  0  0  0  0  0  0  0  0
  155.9630  213.3830  153.7910 C   0  0  0  0  0  0  0  0  0  0  0  0
  159.3440  210.7380  152.2350 C   0  0  0  0  0  2  0  0  0  0  0  0
  159.3100  213.2620  156.1810 N   0  0  0  0  0  2  0  0  0  0  0  0
  161.5770  212.8210  156.4030 O   0  0  0  0  0  0  0  0  0  0  0  0
  155.0290  213.3200  154.8210 O   0  0  0  0  0  1  0  0  0  0  0  0
  160.0000  207.9490  154.2140 C   0  0  0  0  0  2  0  0  0  0  0  0
  160.6610  207.2680  155.2660 O   0  0  0  0  0  0  0  0  0  0  0  0
  160.3960  212.3890  156.5030 C   0  0  0  0  0  0  0  0  0  0  0  0
  1 31  1  0  0  0  0
  2  3  2  0  0  0  0
  2  1  1  0  0  0  0
  5  4  1  1  0  0  0
  5  2  1  0  0  0  0
  6  5  1  0  0  0  0
  7 11  2  0  0  0  0
  8  6  1  0  0  0  0
  9  8  2  0  0  0  0
 10  8  1  0  0  0  0
 11 10  1  0  0  0  0
 12 16  2  0  0  0  0
 15 14  1  6  0  0  0
 15 20  1  0  0  0  0
 15 18  1  0  0  0  0
 16 19  1  0  0  0  0
 18 13  1  6  0  0  0
 18 21  1  0  0  0  0
 19 21  1  0  0  0  0
 19 11  1  1  0  0  0
 20 16  1  0  0  0  0
 21 17  1  6  0  0  0
 22 15  1  0  0  0  0
 23 22  1  0  0  0  0
 24 29  1  0  0  0  0
 25 30  1  0  0  0  0
 25 28  1  0  0  0  0
 25 27  1  1  0  0  0
 26 29  1  0  0  0  0
 28 24  1  0  0  0  0
 30 23  1  1  0  0  0
 30 26  1  0  0  0  0
 31 32  1  0  0  0  0
 32 33  1  0  0  0  0
 36 35  1  0  0  0  0
 37 44  1  6  0  0  0
 37 54  1  0  0  0  0
 37 42  1  0  0  0  0
 39 42  1  6  0  0  0
 39 34  1  0  0  0  0
 39 38  1  0  0  0  0
 40 49  1  0  0  0  0
 41 46  1  0  0  0  0
 41 40  2  0  0  0  0
 43 45  1  0  0  0  0
 43 48  1  0  0  0  0
 45 33  1  6  0  0  0
 46 43  2  0  0  0  0
 47 38  1  0  0  0  0
 48 36  1  0  0  0  0
 49 48  2  0  0  0  0
 49 53  1  0  0  0  0
 50 44  1  0  0  0  0
 50 45  1  0  0  0  0
 51 35  1  0  0  0  0
 51 56  1  0  0  0  0
 52 56  2  0  0  0  0
 54 55  1  0  0  0  0
 55 34  1  0  0  0  0
 56 47  1  0  0  0  0
M  END
>  <MODEL>
2

>  <REMARK>
 VINA RESULT:      -3.3      1.710      2.367
  Name = 
  11 active torsions:
  status: ('A' for Active; 'I' for Inactive)
    1  A    between atoms: N_1  and  C_24
    2  A    between atoms: C_8  and  C_30
    3  A    between atoms: C_10  and  C_35
    4  A    between atoms: C_20  and  C_49
    5  A    between atoms: C_24  and  C_51
    6  A    between atoms: C_25  and  O_39
    7  A    between atoms: C_30  and  C_35
    8  A    between atoms: O_39  and  C_51
    9  A    between atoms: C_40  and  C_50
   10  A    between atoms: C_46  and  O_54
   11  A    between atoms: C_49  and  O_54
                            x       y       z     vdW  Elec       q    Type
                         _______ _______ _______ _____ _____    ______ ____

>  <TORSDO>
F 11

$$$$
=
 OpenBabel11052411573D

 56 60  0  0  1  0  0  0  0  0999 V2000
  159.7640  212.9480  150.2450 N   0  0  0  0  0  2  0  0  0  0  0  0
  160.9920  212.8990  149.5180 C   0  0  0  0  0  0  0  0  0  0  0  0
  161.5840  213.9640  149.1930 O   0  0  0  0  0  0  0  0  0  0  0  0
  162.2910  211.5740  147.8590 C   0  0  0  0  0  1  0  0  0  0  0  0
  161.6000  211.5680  149.2140 C   0  0  1  0  0  3  0  0  0  0  0  0
  162.5780  211.1780  150.3080 C   0  0  0  0  0  2  0  0  0  0  0  0
  162.5540  206.9070  151.1150 O   0  0  0  0  0  0  0  0  0  0  0  0
  162.3620  209.7640  150.7150 C   0  0  0  0  0  0  0  0  0  0  0  0
  162.2580  209.4810  151.9360 O   0  0  0  0  0  0  0  0  0  0  0  0
  162.2350  208.7520  149.7140 N   0  0  0  0  0  2  0  0  0  0  0  0
  162.2630  207.3450  149.9680 C   0  0  0  0  0  0  0  0  0  0  0  0
  159.6490  206.7780  149.1460 O   0  0  0  0  0  0  0  0  0  0  0  0
  163.5990  205.0750  145.9150 F   0  0  0  0  0  0  0  0  0  0  0  0
  160.7500  204.5990  145.2680 O   0  0  0  0  0  1  0  0  0  0  0  0
  161.2570  204.8930  146.5310 C   0  0  1  0  0  0  0  0  0  0  0  0
  160.5660  206.2770  148.4430 C   0  0  0  0  0  0  0  0  0  0  0  0
  162.8030  208.0020  147.1900 O   0  0  0  0  0  1  0  0  0  0  0  0
  162.5020  205.7900  146.3620 C   0  0  1  0  0  3  0  0  0  0  0  0
  162.0120  206.3980  148.8250 C   0  0  1  0  0  3  0  0  0  0  0  0
  160.2470  205.5700  147.2880 O   0  0  0  0  0  0  0  0  0  0  0  0
  162.8790  206.6630  147.5760 C   0  0  2  0  0  3  0  0  0  0  0  0
  161.6370  203.5870  147.2320 C   0  0  0  0  0  2  0  0  0  0  0  0
  160.5870  203.1450  148.0410 O   0  0  0  0  0  0  0  0  0  0  0  0
  161.9200  202.2300  151.7340 O   0  0  0  0  0  0  0  0  0  0  0  0
  160.9390  201.3550  149.6560 C   0  0  2  0  0  3  0  0  0  0  0  0
  160.7200  203.8030  150.3560 C   0  0  0  0  0  2  0  0  0  0  0  0
  159.4730  200.9670  149.5030 C   0  0  0  0  0  1  0  0  0  0  0  0
  161.3710  201.0860  151.1090 C   0  0  0  0  0  2  0  0  0  0  0  0
  160.9040  203.1990  151.7540 C   0  0  0  0  0  2  0  0  0  0  0  0
  161.1780  202.8270  149.2660 C   0  0  2  0  0  3  0  0  0  0  0  0
  159.1400  214.1990  150.6540 C   0  0  0  0  0  2  0  0  0  0  0  0
  158.7530  214.1450  152.1180 C   0  0  0  0  0  2  0  0  0  0  0  0
  159.6260  213.3010  152.8100 O   0  0  0  0  0  0  0  0  0  0  0  0
  160.8320  208.2070  156.3280 C   0  0  0  0  0  2  0  0  0  0  0  0
  157.9180  212.7960  157.1910 C   0  0  0  0  0  2  0  0  0  0  0  0
  157.3490  211.9520  156.0620 C   0  0  0  0  0  2  0  0  0  0  0  0
  160.0870  209.7410  154.2150 C   0  0  1  0  0  3  0  0  0  0  0  0
  161.6420  210.3870  157.2130 N   0  0  0  0  0  2  0  0  0  0  0  0
  161.7230  209.4320  156.1060 C   0  0  2  0  0  3  0  0  0  0  0  0
  154.9170  214.1720  154.1700 C   0  0  0  0  0  3  0  0  0  0  0  0
  155.6030  214.4010  152.9780 C   0  0  0  0  0  3  0  0  0  0  0  0
  161.4840  210.0850  154.7360 C   0  0  0  0  0  2  0  0  0  0  0  0
  157.4600  213.0530  153.7790 C   0  0  0  0  0  0  0  0  0  0  0  0
  159.8880  210.2770  152.8080 C   0  0  0  0  0  2  0  0  0  0  0  0
  158.8000  212.4240  153.5230 C   0  0  1  0  0  3  0  0  0  0  0  0
  156.8650  213.8390  152.7820 C   0  0  0  0  0  3  0  0  0  0  0  0
  160.3290  211.0260  157.2610 C   0  0  0  0  0  2  0  0  0  0  0  0
  156.7610  212.8150  154.9850 C   0  0  0  0  0  0  0  0  0  0  0  0
  155.4860  213.3830  155.1710 C   0  0  0  0  0  0  0  0  0  0  0  0
  158.6240  211.1230  152.7440 C   0  0  0  0  0  2  0  0  0  0  0  0
  159.2410  213.2940  156.8490 N   0  0  0  0  0  2  0  0  0  0  0  0
  161.5280  212.9960  156.5870 O   0  0  0  0  0  0  0  0  0  0  0  0
  154.7780  213.1680  156.3510 O   0  0  0  0  0  1  0  0  0  0  0  0
  159.8040  208.2290  154.2810 C   0  0  0  0  0  2  0  0  0  0  0  0
  160.6950  207.5090  155.1150 O   0  0  0  0  0  0  0  0  0  0  0  0
  160.4130  212.4760  156.8700 C   0  0  0  0  0  0  0  0  0  0  0  0
  1 31  1  0  0  0  0
  2  1  1  0  0  0  0
  3  2  2  0  0  0  0
  5  4  1  6  0  0  0
  5  2  1  0  0  0  0
  5  6  1  0  0  0  0
  6  8  1  0  0  0  0
  8  9  2  0  0  0  0
 10 11  1  0  0  0  0
 10  8  1  0  0  0  0
 11  7  2  0  0  0  0
 15 14  1  6  0  0  0
 15 22  1  0  0  0  0
 15 20  1  0  0  0  0
 16 19  1  0  0  0  0
 16 12  2  0  0  0  0
 18 13  1  1  0  0  0
 18 15  1  0  0  0  0
 18 21  1  0  0  0  0
 19 11  1  1  0  0  0
 20 16  1  0  0  0  0
 21 17  1  6  0  0  0
 21 19  1  0  0  0  0
 22 23  1  0  0  0  0
 24 29  1  0  0  0  0
 25 27  1  1  0  0  0
 25 28  1  0  0  0  0
 26 29  1  0  0  0  0
 28 24  1  0  0  0  0
 30 23  1  6  0  0  0
 30 25  1  0  0  0  0
 30 26  1  0  0  0  0
 31 32  1  0  0  0  0
 32 33  1  0  0  0  0
 36 35  1  0  0  0  0
 37 44  1  6  0  0  0
 37 54  1  0  0  0  0
 37 42  1  0  0  0  0
 38 47  1  0  0  0  0
 39 42  1  6  0  0  0
 39 34  1  0  0  0  0
 39 38  1  0  0  0  0
 40 49  1  0  0  0  0
 41 40  2  0  0  0  0
 43 48  1  0  0  0  0
 45 33  1  6  0  0  0
 45 43  1  0  0  0  0
 46 41  1  0  0  0  0
 46 43  2  0  0  0  0
 48 49  2  0  0  0  0
 48 36  1  0  0  0  0
 49 53  1  0  0  0  0
 50 44  1  0  0  0  0
 50 45  1  0  0  0  0
 51 56  1  0  0  0  0
 51 35  1  0  0  0  0
 52 56  2  0  0  0  0
 54 55  1  0  0  0  0
 55 34  1  0  0  0  0
 56 47  1  0  0  0  0
M  END
>  <MODEL>
3

>  <REMARK>
 VINA RESULT:      -2.5      5.362      7.458
  Name = 
  11 active torsions:
  status: ('A' for Active; 'I' for Inactive)
    1  A    between atoms: N_1  and  C_24
    2  A    between atoms: C_8  and  C_30
    3  A    between atoms: C_10  and  C_35
    4  A    between atoms: C_20  and  C_49
    5  A    between atoms: C_24  and  C_51
    6  A    between atoms: C_25  and  O_39
    7  A    between atoms: C_30  and  C_35
    8  A    between atoms: O_39  and  C_51
    9  A    between atoms: C_40  and  C_50
   10  A    between atoms: C_46  and  O_54
   11  A    between atoms: C_49  and  O_54
                            x       y       z     vdW  Elec       q    Type
                         _______ _______ _______ _____ _____    ______ ____

>  <TORSDO>
F 11

$$$$
=
 OpenBabel11052411573D

 56 60  0  0  1  0  0  0  0  0999 V2000
  161.2090  212.6750  149.6640 N   0  0  0  0  0  2  0  0  0  0  0  0
  161.1620  213.1450  148.3160 C   0  0  0  0  0  0  0  0  0  0  0  0
  160.7060  214.2910  148.0550 O   0  0  0  0  0  0  0  0  0  0  0  0
  161.6900  210.8160  147.6170 C   0  0  0  0  0  1  0  0  0  0  0  0
  161.7290  212.2870  147.2320 C   0  0  1  0  0  3  0  0  0  0  0  0
  160.9750  212.5170  145.9350 C   0  0  0  0  0  2  0  0  0  0  0  0
  163.0570  214.4290  142.6330 O   0  0  0  0  0  0  0  0  0  0  0  0
  161.8900  213.0540  144.8920 C   0  0  0  0  0  0  0  0  0  0  0  0
  162.9290  213.6720  145.2390 O   0  0  0  0  0  0  0  0  0  0  0  0
  161.5990  212.8260  143.5120 N   0  0  0  0  0  2  0  0  0  0  0  0
  162.2550  213.4780  142.4210 C   0  0  0  0  0  0  0  0  0  0  0  0
  164.0660  213.9100  140.3330 O   0  0  0  0  0  0  0  0  0  0  0  0
  159.8440  210.7650  139.2280 F   0  0  0  0  0  0  0  0  0  0  0  0
  161.9010  211.3750  137.1890 O   0  0  0  0  0  1  0  0  0  0  0  0
  161.6590  212.1150  138.3430 C   0  0  1  0  0  0  0  0  0  0  0  0
  163.0260  213.2680  140.0330 C   0  0  0  0  0  0  0  0  0  0  0  0
  162.1810  210.7090  141.5440 O   0  0  0  0  0  1  0  0  0  0  0  0
  161.1550  211.1540  139.4430 C   0  0  1  0  0  3  0  0  0  0  0  0
  161.9130  213.0590  141.0170 C   0  0  1  0  0  3  0  0  0  0  0  0
  162.8780  212.7490  138.7490 O   0  0  0  0  0  0  0  0  0  0  0  0
  161.3510  211.6260  140.8970 C   0  0  2  0  0  3  0  0  0  0  0  0
  160.6010  213.1780  138.0420 C   0  0  0  0  0  2  0  0  0  0  0  0
  159.8960  213.5050  139.2030 O   0  0  0  0  0  0  0  0  0  0  0  0
  156.0970  214.2500  138.0780 O   0  0  0  0  0  0  0  0  0  0  0  0
  157.7060  214.2820  139.9380 C   0  0  2  0  0  3  0  0  0  0  0  0
  158.0100  212.7960  137.8810 C   0  0  0  0  0  2  0  0  0  0  0  0
  157.7430  213.2430  141.0510 C   0  0  0  0  0  1  0  0  0  0  0  0
  156.2500  214.4530  139.4700 C   0  0  0  0  0  2  0  0  0  0  0  0
  156.4820  212.9230  137.8250 C   0  0  0  0  0  2  0  0  0  0  0  0
  158.6250  213.8860  138.7650 C   0  0  2  0  0  3  0  0  0  0  0  0
  160.7520  213.4750  150.7930 C   0  0  0  0  0  2  0  0  0  0  0  0
  160.5960  212.6100  152.0280 C   0  0  0  0  0  2  0  0  0  0  0  0
  159.8010  213.2670  152.9710 O   0  0  0  0  0  0  0  0  0  0  0  0
  161.2330  207.8580  155.8820 C   0  0  0  0  0  2  0  0  0  0  0  0
  158.0300  212.1330  157.2070 C   0  0  0  0  0  2  0  0  0  0  0  0
  157.5380  211.4030  155.9680 C   0  0  0  0  0  2  0  0  0  0  0  0
  160.4450  209.5940  153.9490 C   0  0  1  0  0  3  0  0  0  0  0  0
  161.8910  209.9550  157.0470 N   0  0  0  0  0  2  0  0  0  0  0  0
  162.0540  209.1500  155.8350 C   0  0  2  0  0  3  0  0  0  0  0  0
  155.0190  213.6960  154.2880 C   0  0  0  0  0  3  0  0  0  0  0  0
  155.7160  214.1070  153.1530 C   0  0  0  0  0  3  0  0  0  0  0  0
  161.8060  209.9510  154.5480 C   0  0  0  0  0  2  0  0  0  0  0  0
  157.6330  212.7790  153.8400 C   0  0  0  0  0  0  0  0  0  0  0  0
  160.2450  210.2860  152.6110 C   0  0  0  0  0  2  0  0  0  0  0  0
  159.0130  212.2640  153.5490 C   0  0  1  0  0  3  0  0  0  0  0  0
  157.0140  213.6460  152.9270 C   0  0  0  0  0  3  0  0  0  0  0  0
  160.5400  210.5080  157.1330 C   0  0  0  0  0  2  0  0  0  0  0  0
  156.9230  212.3560  154.9860 C   0  0  0  0  0  0  0  0  0  0  0  0
  155.6120  212.8240  155.2020 C   0  0  0  0  0  0  0  0  0  0  0  0
  158.9340  211.0600  152.6130 C   0  0  0  0  0  2  0  0  0  0  0  0
  159.3280  212.7440  156.9660 N   0  0  0  0  0  2  0  0  0  0  0  0
  161.6340  212.6110  156.7380 O   0  0  0  0  0  0  0  0  0  0  0  0
  154.8930  212.4260  156.3260 O   0  0  0  0  0  1  0  0  0  0  0  0
  160.2510  208.0720  153.8220 C   0  0  0  0  0  2  0  0  0  0  0  0
  161.1650  207.3070  154.5890 O   0  0  0  0  0  0  0  0  0  0  0  0
  160.5460  211.9970  156.9230 C   0  0  0  0  0  0  0  0  0  0  0  0
  1 31  1  0  0  0  0
  2  1  1  0  0  0  0
  3  2  2  0  0  0  0
  5  4  1  1  0  0  0
  5  2  1  0  0  0  0
  6  5  1  0  0  0  0
  8  9  2  0  0  0  0
  8  6  1  0  0  0  0
 10  8  1  0  0  0  0
 11  7  2  0  0  0  0
 11 10  1  0  0  0  0
 15 14  1  6  0  0  0
 15 20  1  0  0  0  0
 15 18  1  0  0  0  0
 16 12  2  0  0  0  0
 16 19  1  0  0  0  0
 18 13  1  6  0  0  0
 18 21  1  0  0  0  0
 19 11  1  1  0  0  0
 20 16  1  0  0  0  0
 21 19  1  0  0  0  0
 21 17  1  6  0  0  0
 22 15  1  0  0  0  0
 22 23  1  0  0  0  0
 24 28  1  0  0  0  0
 25 27  1  1  0  0  0
 26 30  1  0  0  0  0
 28 25  1  0  0  0  0
 29 26  1  0  0  0  0
 29 24  1  0  0  0  0
 30 23  1  1  0  0  0
 30 25  1  0  0  0  0
 31 32  1  0  0  0  0
 32 33  1  0  0  0  0
 36 35  1  0  0  0  0
 37 44  1  6  0  0  0
 37 42  1  0  0  0  0
 38 47  1  0  0  0  0
 39 42  1  6  0  0  0
 39 34  1  0  0  0  0
 39 38  1  0  0  0  0
 40 49  1  0  0  0  0
 41 40  2  0  0  0  0
 43 48  1  0  0  0  0
 44 50  1  0  0  0  0
 45 33  1  6  0  0  0
 45 43  1  0  0  0  0
 46 41  1  0  0  0  0
 46 43  2  0  0  0  0
 48 49  2  0  0  0  0
 48 36  1  0  0  0  0
 49 53  1  0  0  0  0
 50 45  1  0  0  0  0
 51 35  1  0  0  0  0
 52 56  2  0  0  0  0
 54 37  1  0  0  0  0
 54 55  1  0  0  0  0
 55 34  1  0  0  0  0
 56 51  1  0  0  0  0
 56 47  1  0  0  0  0
M  END
>  <MODEL>
4

>  <REMARK>
 VINA RESULT:      -2.0      1.781      3.041
  Name = 
  11 active torsions:
  status: ('A' for Active; 'I' for Inactive)
    1  A    between atoms: N_1  and  C_24
    2  A    between atoms: C_8  and  C_30
    3  A    between atoms: C_10  and  C_35
    4  A    between atoms: C_20  and  C_49
    5  A    between atoms: C_24  and  C_51
    6  A    between atoms: C_25  and  O_39
    7  A    between atoms: C_30  and  C_35
    8  A    between atoms: O_39  and  C_51
    9  A    between atoms: C_40  and  C_50
   10  A    between atoms: C_46  and  O_54
   11  A    between atoms: C_49  and  O_54
                            x       y       z     vdW  Elec       q    Type
                         _______ _______ _______ _____ _____    ______ ____

>  <TORSDO>
F 11

$$$$
=
 OpenBabel11052411573D

 56 60  0  0  1  0  0  0  0  0999 V2000
  161.9220  212.2020  148.8000 N   0  0  0  0  0  2  0  0  0  0  0  0
  160.8960  212.7240  147.9540 C   0  0  0  0  0  0  0  0  0  0  0  0
  159.6830  212.4800  148.1960 O   0  0  0  0  0  0  0  0  0  0  0  0
  162.7860  213.6230  146.6070 C   0  0  0  0  0  1  0  0  0  0  0  0
  161.2800  213.6220  146.8230 C   0  0  1  0  0  3  0  0  0  0  0  0
  160.5610  213.2020  145.5540 C   0  0  0  0  0  2  0  0  0  0  0  0
  162.2950  214.4170  141.7580 O   0  0  0  0  0  0  0  0  0  0  0  0
  161.3720  213.5520  144.3580 C   0  0  0  0  0  0  0  0  0  0  0  0
  162.3300  214.3590  144.4750 O   0  0  0  0  0  0  0  0  0  0  0  0
  161.0800  212.9380  143.1010 N   0  0  0  0  0  2  0  0  0  0  0  0
  161.6190  213.3550  141.8430 C   0  0  0  0  0  0  0  0  0  0  0  0
  162.2800  214.3160  139.3010 O   0  0  0  0  0  0  0  0  0  0  0  0
  160.7120  209.1780  139.5850 F   0  0  0  0  0  0  0  0  0  0  0  0
  161.4630  210.4320  137.0110 O   0  0  0  0  0  1  0  0  0  0  0  0
  161.0860  211.1130  138.1650 C   0  0  1  0  0  0  0  0  0  0  0  0
  161.8070  213.1510  139.3410 C   0  0  0  0  0  0  0  0  0  0  0  0
  163.0450  210.9350  141.1020 O   0  0  0  0  0  1  0  0  0  0  0  0
  161.5260  210.2800  139.3900 C   0  0  1  0  0  3  0  0  0  0  0  0
  161.3010  212.5440  140.6160 C   0  0  1  0  0  3  0  0  0  0  0  0
  161.7230  212.3960  138.1740 O   0  0  0  0  0  0  0  0  0  0  0  0
  161.7120  211.0590  140.7080 C   0  0  2  0  0  3  0  0  0  0  0  0
  159.5670  211.2930  138.1650 C   0  0  0  0  0  2  0  0  0  0  0  0
  158.9370  210.1100  138.5590 O   0  0  0  0  0  0  0  0  0  0  0  0
  155.1040  211.2440  139.0840 O   0  0  0  0  0  0  0  0  0  0  0  0
  156.6090  209.3960  138.4760 C   0  0  2  0  0  3  0  0  0  0  0  0
  157.2930  211.8500  138.2760 C   0  0  0  0  0  2  0  0  0  0  0  0
  156.8360  208.9160  137.0480 C   0  0  0  0  0  1  0  0  0  0  0  0
  155.1650  209.9170  138.5980 C   0  0  0  0  0  2  0  0  0  0  0  0
  155.7770  212.0430  138.1450 C   0  0  0  0  0  2  0  0  0  0  0  0
  157.6280  210.4810  138.8780 C   0  0  2  0  0  3  0  0  0  0  0  0
  161.6360  211.3840  149.9710 C   0  0  0  0  0  2  0  0  0  0  0  0
  160.7020  212.1170  150.9140 C   0  0  0  0  0  2  0  0  0  0  0  0
  161.1260  211.9410  152.2340 O   0  0  0  0  0  0  0  0  0  0  0  0
  160.6540  207.3360  156.5180 C   0  0  0  0  0  2  0  0  0  0  0  0
  158.7410  212.4920  156.2810 C   0  0  0  0  0  2  0  0  0  0  0  0
  158.1660  211.6090  155.1850 C   0  0  0  0  0  2  0  0  0  0  0  0
  160.5790  208.6310  154.1330 C   0  0  1  0  0  3  0  0  0  0  0  0
  161.7950  209.4230  157.2500 N   0  0  0  0  0  2  0  0  0  0  0  0
  161.8180  208.3070  156.3020 C   0  0  2  0  0  3  0  0  0  0  0  0
  156.5840  213.9390  152.6380 C   0  0  0  0  0  3  0  0  0  0  0  0
  157.4660  213.8330  151.5630 C   0  0  0  0  0  3  0  0  0  0  0  0
  161.9280  208.7680  154.8400 C   0  0  0  0  0  2  0  0  0  0  0  0
  158.8430  212.2880  152.8370 C   0  0  0  0  0  0  0  0  0  0  0  0
  160.7070  208.9650  152.6560 C   0  0  0  0  0  2  0  0  0  0  0  0
  160.0320  211.3720  152.8980 C   0  0  1  0  0  3  0  0  0  0  0  0
  158.5860  213.0070  151.6610 C   0  0  0  0  0  3  0  0  0  0  0  0
  160.6630  210.3100  156.9890 C   0  0  0  0  0  2  0  0  0  0  0  0
  157.9440  212.3890  153.9230 C   0  0  0  0  0  0  0  0  0  0  0  0
  156.8140  213.2220  153.8120 C   0  0  0  0  0  0  0  0  0  0  0  0
  159.6850  210.0240  152.2690 C   0  0  0  0  0  2  0  0  0  0  0  0
  160.1770  212.6550  156.1140 N   0  0  0  0  0  2  0  0  0  0  0  0
  162.3540  211.8690  156.2920 O   0  0  0  0  0  0  0  0  0  0  0  0
  155.9160  213.3430  154.8700 O   0  0  0  0  0  1  0  0  0  0  0  0
  159.9600  207.2360  154.3370 C   0  0  0  0  0  2  0  0  0  0  0  0
  160.5400  206.4950  155.3960 O   0  0  0  0  0  0  0  0  0  0  0  0
  161.1220  211.6330  156.4400 C   0  0  0  0  0  0  0  0  0  0  0  0
  1 31  1  0  0  0  0
  2  3  2  0  0  0  0
  2  1  1  0  0  0  0
  5  4  1  6  0  0  0
  5  2  1  0  0  0  0
  6  5  1  0  0  0  0
  7 11  2  0  0  0  0
  8  9  2  0  0  0  0
  8  6  1  0  0  0  0
 10  8  1  0  0  0  0
 11 10  1  0  0  0  0
 12 16  2  0  0  0  0
 15 14  1  6  0  0  0
 15 20  1  0  0  0  0
 15 18  1  0  0  0  0
 16 19  1  0  0  0  0
 18 13  1  1  0  0  0
 18 21  1  0  0  0  0
 19 21  1  0  0  0  0
 19 11  1  1  0  0  0
 20 16  1  0  0  0  0
 21 17  1  6  0  0  0
 22 15  1  0  0  0  0
 22 23  1  0  0  0  0
 25 27  1  6  0  0  0
 25 28  1  0  0  0  0
 25 30  1  0  0  0  0
 26 30  1  0  0  0  0
 28 24  1  0  0  0  0
 29 26  1  0  0  0  0
 29 24  1  0  0  0  0
 30 23  1  6  0  0  0
 31 32  1  0  0  0  0
 32 33  1  0  0  0  0
 36 35  1  0  0  0  0
 37 44  1  6  0  0  0
 37 54  1  0  0  0  0
 37 42  1  0  0  0  0
 39 42  1  6  0  0  0
 39 34  1  0  0  0  0
 39 38  1  0  0  0  0
 40 49  1  0  0  0  0
 41 46  1  0  0  0  0
 41 40  2  0  0  0  0
 43 45  1  0  0  0  0
 43 48  1  0  0  0  0
 45 33  1  6  0  0  0
 46 43  2  0  0  0  0
 47 38  1  0  0  0  0
 48 36  1  0  0  0  0
 49 48  2  0  0  0  0
 49 53  1  0  0  0  0
 50 44  1  0  0  0  0
 50 45  1  0  0  0  0
 51 35  1  0  0  0  0
 51 56  1  0  0  0  0
 52 56  2  0  0  0  0
 54 55  1  0  0  0  0
 55 34  1  0  0  0  0
 56 47  1  0  0  0  0
M  END
>  <MODEL>
5

>  <REMARK>
 VINA RESULT:      -1.8      1.947      2.939
  Name = 
  11 active torsions:
  status: ('A' for Active; 'I' for Inactive)
    1  A    between atoms: N_1  and  C_24
    2  A    between atoms: C_8  and  C_30
    3  A    between atoms: C_10  and  C_35
    4  A    between atoms: C_20  and  C_49
    5  A    between atoms: C_24  and  C_51
    6  A    between atoms: C_25  and  O_39
    7  A    between atoms: C_30  and  C_35
    8  A    between atoms: O_39  and  C_51
    9  A    between atoms: C_40  and  C_50
   10  A    between atoms: C_46  and  O_54
   11  A    between atoms: C_49  and  O_54
                            x       y       z     vdW  Elec       q    Type
                         _______ _______ _______ _____ _____    ______ ____

>  <TORSDO>
F 11

$$$$
