=
 OpenBabel11052410453D

 35 39  0  0  1  0  0  0  0  0999 V2000
  156.4300  213.0660  154.2850 C   0  0  0  0  0  0  0  0  0  0  0  0
  155.2090  213.0970  153.9760 O   0  0  0  0  0  0  0  0  0  0  0  0
  157.4900  214.4340  157.2570 C   0  0  0  0  0  3  0  0  0  0  0  0
  158.6110  212.3520  154.6570 N   0  0  0  0  0  0  0  0  0  0  0  0
  157.4430  212.0680  153.7960 C   0  0  2  0  0  3  0  0  0  0  0  0
  157.0250  213.9160  155.2400 N   0  0  0  0  0  0  0  0  0  0  0  0
  158.6170  213.7660  156.7610 C   0  0  0  0  0  3  0  0  0  0  0  0
  158.2430  213.4750  155.4630 C   0  0  0  0  0  0  0  0  0  0  0  0
  156.5090  214.4530  156.3230 N   0  0  0  0  0  0  0  0  0  0  0  0
  160.3880  207.4130  157.2600 C   0  0  0  0  0  1  0  0  0  0  0  0
  160.8180  211.8370  153.2290 O   0  0  0  0  0  1  0  0  0  0  0  0
  161.7120  210.0660  154.5950 C   0  0  1  0  0  0  0  0  0  0  0  0
  162.4750  211.0830  155.1870 O   0  0  0  0  0  1  0  0  0  0  0  0
  162.4620  209.0760  156.7110 O   0  0  0  0  0  1  0  0  0  0  0  0
  160.4920  209.3680  152.1780 C   0  0  0  0  0  2  0  0  0  0  0  0
  161.5550  208.9110  155.6540 C   0  0  1  0  0  3  0  0  0  0  0  0
  159.5130  211.3060  155.1480 C   0  0  2  0  0  3  0  0  0  0  0  0
  160.4150  210.7490  154.0240 C   0  0  1  0  0  0  0  0  0  0  0  0
  161.7040  208.6490  152.7590 C   0  0  0  0  0  2  0  0  0  0  0  0
  160.1730  208.4500  156.1700 C   0  0  0  0  0  0  0  0  0  0  0  0
  159.6770  209.8400  153.2260 O   0  0  0  0  0  0  0  0  0  0  0  0
  159.4690  209.5240  156.7690 O   0  0  0  0  0  0  0  0  0  0  0  0
  159.4060  207.6910  155.0820 C   0  0  0  0  0  1  0  0  0  0  0  0
  158.6940  210.2160  155.8260 C   0  0  0  0  0  2  0  0  0  0  0  0
  162.4780  209.5580  153.5120 O   0  0  0  0  0  0  0  0  0  0  0  0
  157.7920  212.3470  152.3420 C   0  0  0  0  0  2  0  0  0  0  0  0
  157.9760  214.1350  152.0760 S   0  0  0  0  0  0  0  0  0  0  0  0
  155.5000  214.2390  150.3170 O   0  0  0  0  0  1  0  0  0  0  0  0
  160.3220  213.6820  150.1970 O   0  0  0  0  0  1  0  0  0  0  0  0
  159.0930  213.7560  149.5540 C   0  0  0  0  0  0  0  0  0  0  0  0
  156.6820  214.0360  149.6140 C   0  0  0  0  0  0  0  0  0  0  0  0
  159.0360  213.6220  148.1640 C   0  0  0  0  0  3  0  0  0  0  0  0
  157.8120  213.6970  147.4980 C   0  0  0  0  0  3  0  0  0  0  0  0
  157.9120  213.9600  150.2880 C   0  0  0  0  0  0  0  0  0  0  0  0
  156.6360  213.9050  148.2230 C   0  0  0  0  0  3  0  0  0  0  0  0
  1  6  1  0  0  0  0
  2  1  2  0  0  0  0
  4  8  1  0  0  0  0
  5 26  1  6  0  0  0
  5  1  1  0  0  0  0
  5  4  1  0  0  0  0
  6  8  1  0  0  0  0
  6  9  1  0  0  0  0
  7  3  1  0  0  0  0
  8  7  2  0  0  0  0
  9  3  2  0  0  0  0
 12 13  1  1  0  0  0
 12 16  1  0  0  0  0
 15 19  1  0  0  0  0
 15 21  1  0  0  0  0
 16 20  1  0  0  0  0
 16 14  1  1  0  0  0
 17  4  1  6  0  0  0
 17 24  1  0  0  0  0
 18 11  1  6  0  0  0
 18 12  1  0  0  0  0
 18 17  1  0  0  0  0
 19 25  1  0  0  0  0
 20 22  1  0  0  0  0
 20 10  1  0  0  0  0
 21 18  1  0  0  0  0
 23 20  1  0  0  0  0
 24 22  1  0  0  0  0
 25 12  1  0  0  0  0
 27 26  1  0  0  0  0
 30 29  1  0  0  0  0
 30 34  1  0  0  0  0
 31 34  2  0  0  0  0
 31 28  1  0  0  0  0
 32 30  2  0  0  0  0
 33 32  1  0  0  0  0
 33 35  2  0  0  0  0
 34 27  1  0  0  0  0
 35 31  1  0  0  0  0
M  END
>  <MODEL>
1

>  <REMARK>
 VINA RESULT:      -4.2      0.000      0.000
  Name = 
  4 active torsions:
  status: ('A' for Active; 'I' for Inactive)
    1  A    between atoms: C_4  and  C_16
    2  A    between atoms: C_4  and  S_21
    3  A    between atoms: N_15  and  C_17
    4  A    between atoms: S_21  and  C_30
                            x       y       z     vdW  Elec       q    Type
                         _______ _______ _______ _____ _____    ______ ____

>  <TORSDO>
F 4

$$$$
=
 OpenBabel11052410453D

 35 39  0  0  1  0  0  0  0  0999 V2000
  160.8230  207.6300  150.0330 C   0  0  0  0  0  0  0  0  0  0  0  0
  160.1640  207.0000  149.1630 O   0  0  0  0  0  0  0  0  0  0  0  0
  162.4610  210.5330  149.1880 C   0  0  0  0  0  3  0  0  0  0  0  0
  161.4640  208.6830  152.0040 N   0  0  0  0  0  0  0  0  0  0  0  0
  160.5930  207.5920  151.5190 C   0  0  2  0  0  3  0  0  0  0  0  0
  161.8320  208.5690  149.7350 N   0  0  0  0  0  0  0  0  0  0  0  0
  162.5670  210.4690  150.5830 C   0  0  0  0  0  3  0  0  0  0  0  0
  162.1540  209.1790  150.8540 C   0  0  0  0  0  0  0  0  0  0  0  0
  161.9480  209.3770  148.7040 N   0  0  0  0  0  0  0  0  0  0  0  0
  158.3770  212.4700  155.2400 C   0  0  0  0  0  1  0  0  0  0  0  0
  162.2370  207.9430  154.4590 O   0  0  0  0  0  1  0  0  0  0  0  0
  161.2800  209.7750  155.6950 C   0  0  1  0  0  0  0  0  0  0  0  0
  162.5580  210.3430  155.5920 O   0  0  0  0  0  1  0  0  0  0  0  0
  160.9030  212.1500  156.1820 O   0  0  0  0  0  1  0  0  0  0  0  0
  159.9870  207.2980  155.8110 C   0  0  0  0  0  2  0  0  0  0  0  0
  160.2480  210.9520  155.8620 C   0  0  1  0  0  3  0  0  0  0  0  0
  161.1000  209.5550  153.1260 C   0  0  2  0  0  3  0  0  0  0  0  0
  161.1200  208.7970  154.4730 C   0  0  1  0  0  0  0  0  0  0  0  0
  160.0690  208.2720  156.9820 C   0  0  0  0  0  2  0  0  0  0  0  0
  159.1050  211.1950  154.8490 C   0  0  0  0  0  0  0  0  0  0  0  0
  159.9440  208.0190  154.6010 O   0  0  0  0  0  0  0  0  0  0  0  0
  159.6170  211.4070  153.5450 O   0  0  0  0  0  0  0  0  0  0  0  0
  158.0320  210.1060  154.9610 C   0  0  0  0  0  1  0  0  0  0  0  0
  159.7490  210.1980  152.8450 C   0  0  0  0  0  2  0  0  0  0  0  0
  161.2660  209.0160  156.8960 O   0  0  0  0  0  0  0  0  0  0  0  0
  161.0630  206.2620  152.0880 C   0  0  0  0  0  2  0  0  0  0  0  0
  162.5030  205.6600  151.1560 S   0  0  0  0  0  0  0  0  0  0  0  0
  162.0640  204.8980  148.2480 O   0  0  0  0  0  1  0  0  0  0  0  0
  161.1270  203.5080  152.8040 O   0  0  0  0  0  1  0  0  0  0  0  0
  161.0260  203.3160  151.4320 C   0  0  0  0  0  0  0  0  0  0  0  0
  161.4950  204.0110  149.1540 C   0  0  0  0  0  0  0  0  0  0  0  0
  160.3320  202.2050  150.9430 C   0  0  0  0  0  3  0  0  0  0  0  0
  160.2220  201.9930  149.5690 C   0  0  0  0  0  3  0  0  0  0  0  0
  161.6080  204.2290  150.5370 C   0  0  0  0  0  0  0  0  0  0  0  0
  160.8040  202.8950  148.6750 C   0  0  0  0  0  3  0  0  0  0  0  0
  1  5  1  0  0  0  0
  2  1  2  0  0  0  0
  3  7  1  0  0  0  0
  5  4  1  0  0  0  0
  5 26  1  1  0  0  0
  6  1  1  0  0  0  0
  6  8  1  0  0  0  0
  7  8  2  0  0  0  0
  8  4  1  0  0  0  0
  9  3  2  0  0  0  0
  9  6  1  0  0  0  0
 12 13  1  6  0  0  0
 12 16  1  0  0  0  0
 12 25  1  0  0  0  0
 15 19  1  0  0  0  0
 16 14  1  6  0  0  0
 17  4  1  6  0  0  0
 17 18  1  0  0  0  0
 18 11  1  6  0  0  0
 18 21  1  0  0  0  0
 18 12  1  0  0  0  0
 20 23  1  0  0  0  0
 20 10  1  0  0  0  0
 20 16  1  0  0  0  0
 21 15  1  0  0  0  0
 22 20  1  0  0  0  0
 24 17  1  0  0  0  0
 24 22  1  0  0  0  0
 25 19  1  0  0  0  0
 27 26  1  0  0  0  0
 28 31  1  0  0  0  0
 30 29  1  0  0  0  0
 31 34  1  0  0  0  0
 32 30  1  0  0  0  0
 33 32  2  0  0  0  0
 34 27  1  0  0  0  0
 34 30  2  0  0  0  0
 35 31  2  0  0  0  0
 35 33  1  0  0  0  0
M  END
>  <MODEL>
2

>  <REMARK>
 VINA RESULT:      -4.2      4.328      7.526
  Name = 
  4 active torsions:
  status: ('A' for Active; 'I' for Inactive)
    1  A    between atoms: C_4  and  C_16
    2  A    between atoms: C_4  and  S_21
    3  A    between atoms: N_15  and  C_17
    4  A    between atoms: S_21  and  C_30
                            x       y       z     vdW  Elec       q    Type
                         _______ _______ _______ _____ _____    ______ ____

>  <TORSDO>
F 4

$$$$
=
 OpenBabel11052410453D

 35 39  0  0  1  0  0  0  0  0999 V2000
  160.9690  207.9740  150.1780 C   0  0  0  0  0  0  0  0  0  0  0  0
  160.4030  207.2410  149.3230 O   0  0  0  0  0  0  0  0  0  0  0  0
  162.3850  210.9580  149.2210 C   0  0  0  0  0  3  0  0  0  0  0  0
  161.4330  209.1900  152.1050 N   0  0  0  0  0  0  0  0  0  0  0  0
  160.6800  208.0000  151.6540 C   0  0  2  0  0  3  0  0  0  0  0  0
  161.9050  208.9800  149.8620 N   0  0  0  0  0  0  0  0  0  0  0  0
  162.4370  210.9830  150.6210 C   0  0  0  0  0  3  0  0  0  0  0  0
  162.1260  209.6780  150.9530 C   0  0  0  0  0  0  0  0  0  0  0  0
  161.9940  209.7350  148.7890 N   0  0  0  0  0  0  0  0  0  0  0  0
  157.8760  212.8230  155.0180 C   0  0  0  0  0  1  0  0  0  0  0  0
  162.2150  208.6980  154.6180 O   0  0  0  0  0  1  0  0  0  0  0  0
  161.0360  210.4920  155.7090 C   0  0  1  0  0  0  0  0  0  0  0  0
  162.2480  211.1870  155.5930 O   0  0  0  0  0  1  0  0  0  0  0  0
  160.3960  212.8390  156.0280 O   0  0  0  0  0  1  0  0  0  0  0  0
  160.0110  207.9030  155.9660 C   0  0  0  0  0  2  0  0  0  0  0  0
  159.8800  211.5590  155.7760 C   0  0  1  0  0  3  0  0  0  0  0  0
  160.9490  210.0870  153.1580 C   0  0  2  0  0  3  0  0  0  0  0  0
  161.0140  209.4250  154.5530 C   0  0  1  0  0  0  0  0  0  0  0  0
  159.9580  208.9540  157.0700 C   0  0  0  0  0  2  0  0  0  0  0  0
  158.7450  211.6110  154.7270 C   0  0  0  0  0  0  0  0  0  0  0  0
  159.9230  208.5350  154.7100 O   0  0  0  0  0  0  0  0  0  0  0  0
  159.2670  211.7920  153.4220 O   0  0  0  0  0  0  0  0  0  0  0  0
  157.7920  210.4220  154.8920 C   0  0  0  0  0  1  0  0  0  0  0  0
  159.5450  210.5610  152.8080 C   0  0  0  0  0  2  0  0  0  0  0  0
  161.0710  209.8150  156.9580 O   0  0  0  0  0  0  0  0  0  0  0  0
  161.2390  206.7510  152.3180 C   0  0  0  0  0  2  0  0  0  0  0  0
  162.5960  206.0680  151.3210 S   0  0  0  0  0  0  0  0  0  0  0  0
  161.2470  204.1950  153.2970 O   0  0  0  0  0  1  0  0  0  0  0  0
  162.0630  204.9060  148.5640 O   0  0  0  0  0  1  0  0  0  0  0  0
  161.5110  204.1660  149.6020 C   0  0  0  0  0  0  0  0  0  0  0  0
  161.1020  203.8120  151.9690 C   0  0  0  0  0  0  0  0  0  0  0  0
  160.7910  203.0040  149.3110 C   0  0  0  0  0  3  0  0  0  0  0  0
  160.2260  202.2490  150.3390 C   0  0  0  0  0  3  0  0  0  0  0  0
  161.6740  204.5740  150.9370 C   0  0  0  0  0  0  0  0  0  0  0  0
  160.3800  202.6530  151.6670 C   0  0  0  0  0  3  0  0  0  0  0  0
  1  5  1  0  0  0  0
  2  1  2  0  0  0  0
  3  7  1  0  0  0  0
  5  4  1  0  0  0  0
  5 26  1  1  0  0  0
  6  1  1  0  0  0  0
  6  8  1  0  0  0  0
  7  8  2  0  0  0  0
  8  4  1  0  0  0  0
  9  3  2  0  0  0  0
  9  6  1  0  0  0  0
 12 13  1  6  0  0  0
 12 16  1  0  0  0  0
 12 25  1  0  0  0  0
 15 19  1  0  0  0  0
 16 14  1  6  0  0  0
 17  4  1  6  0  0  0
 17 18  1  0  0  0  0
 18 11  1  1  0  0  0
 18 21  1  0  0  0  0
 18 12  1  0  0  0  0
 20 23  1  0  0  0  0
 20 10  1  0  0  0  0
 20 16  1  0  0  0  0
 21 15  1  0  0  0  0
 22 20  1  0  0  0  0
 24 17  1  0  0  0  0
 24 22  1  0  0  0  0
 25 19  1  0  0  0  0
 27 26  1  0  0  0  0
 29 30  1  0  0  0  0
 30 34  1  0  0  0  0
 31 28  1  0  0  0  0
 32 30  2  0  0  0  0
 32 33  1  0  0  0  0
 33 35  2  0  0  0  0
 34 27  1  0  0  0  0
 34 31  2  0  0  0  0
 35 31  1  0  0  0  0
M  END
>  <MODEL>
3

>  <REMARK>
 VINA RESULT:      -4.0      4.092      7.371
  Name = 
  4 active torsions:
  status: ('A' for Active; 'I' for Inactive)
    1  A    between atoms: C_4  and  C_16
    2  A    between atoms: C_4  and  S_21
    3  A    between atoms: N_15  and  C_17
    4  A    between atoms: S_21  and  C_30
                            x       y       z     vdW  Elec       q    Type
                         _______ _______ _______ _____ _____    ______ ____

>  <TORSDO>
F 4

$$$$
=
 OpenBabel11052410453D

 35 39  0  0  1  0  0  0  0  0999 V2000
  162.3380  210.1450  152.8740 C   0  0  0  0  0  0  0  0  0  0  0  0
  163.2640  210.4060  152.0610 O   0  0  0  0  0  0  0  0  0  0  0  0
  162.7070  210.9010  156.2080 C   0  0  0  0  0  3  0  0  0  0  0  0
  160.2500  209.9590  153.8790 N   0  0  0  0  0  0  0  0  0  0  0  0
  160.8770  210.0160  152.5410 C   0  0  2  0  0  3  0  0  0  0  0  0
  162.5170  210.0330  154.2680 N   0  0  0  0  0  0  0  0  0  0  0  0
  161.3640  210.5210  156.0850 C   0  0  0  0  0  3  0  0  0  0  0  0
  161.3270  209.9670  154.8200 C   0  0  0  0  0  0  0  0  0  0  0  0
  163.3720  210.6480  155.0560 N   0  0  0  0  0  0  0  0  0  0  0  0
  155.1320  210.9550  156.5520 C   0  0  0  0  0  1  0  0  0  0  0  0
  159.9720  212.5790  153.4000 O   0  0  0  0  0  1  0  0  0  0  0  0
  157.6940  212.8310  154.1430 C   0  0  1  0  0  0  0  0  0  0  0  0
  157.3710  212.6690  152.7880 O   0  0  0  0  0  1  0  0  0  0  0  0
  155.3090  212.2580  154.1780 O   0  0  0  0  0  1  0  0  0  0  0  0
  159.7290  213.7790  155.8100 C   0  0  0  0  0  2  0  0  0  0  0  0
  156.4480  212.3720  154.9880 C   0  0  1  0  0  3  0  0  0  0  0  0
  158.9530  210.5730  154.1790 C   0  0  2  0  0  3  0  0  0  0  0  0
  159.0710  212.1030  154.3690 C   0  0  1  0  0  0  0  0  0  0  0  0
  158.3700  214.4520  155.6570 C   0  0  0  0  0  2  0  0  0  0  0  0
  156.5260  211.2120  156.0080 C   0  0  0  0  0  0  0  0  0  0  0  0
  159.5840  212.3850  155.6580 O   0  0  0  0  0  0  0  0  0  0  0  0
  156.9410  210.0110  155.3800 O   0  0  0  0  0  0  0  0  0  0  0  0
  157.3380  211.6200  157.2420 C   0  0  0  0  0  1  0  0  0  0  0  0
  158.3390  209.8860  155.3910 C   0  0  0  0  0  2  0  0  0  0  0  0
  157.8720  214.2240  154.3560 O   0  0  0  0  0  0  0  0  0  0  0  0
  160.6220  208.7170  151.7940 C   0  0  0  0  0  2  0  0  0  0  0  0
  162.1610  208.1230  151.0330 S   0  0  0  0  0  0  0  0  0  0  0  0
  162.0060  206.2840  153.4470 O   0  0  0  0  0  1  0  0  0  0  0  0
  161.1900  206.4830  148.6650 O   0  0  0  0  0  1  0  0  0  0  0  0
  161.1850  205.7900  149.8690 C   0  0  0  0  0  0  0  0  0  0  0  0
  161.5930  205.6910  152.2600 C   0  0  0  0  0  0  0  0  0  0  0  0
  160.7570  204.4590  149.8940 C   0  0  0  0  0  3  0  0  0  0  0  0
  160.7420  203.7460  151.0930 C   0  0  0  0  0  3  0  0  0  0  0  0
  161.6100  206.4120  151.0550 C   0  0  0  0  0  0  0  0  0  0  0  0
  161.1580  204.3620  152.2760 C   0  0  0  0  0  3  0  0  0  0  0  0
  1  6  1  0  0  0  0
  2  1  2  0  0  0  0
  4  8  1  0  0  0  0
  5 26  1  6  0  0  0
  5  1  1  0  0  0  0
  5  4  1  0  0  0  0
  6  8  1  0  0  0  0
  6  9  1  0  0  0  0
  7  3  1  0  0  0  0
  8  7  2  0  0  0  0
  9  3  2  0  0  0  0
 12 13  1  6  0  0  0
 12 25  1  0  0  0  0
 12 18  1  0  0  0  0
 12 16  1  0  0  0  0
 16 14  1  6  0  0  0
 16 20  1  0  0  0  0
 17  4  1  1  0  0  0
 17 18  1  0  0  0  0
 17 24  1  0  0  0  0
 18 11  1  6  0  0  0
 18 21  1  0  0  0  0
 19 15  1  0  0  0  0
 20 10  1  0  0  0  0
 20 23  1  0  0  0  0
 21 15  1  0  0  0  0
 22 24  1  0  0  0  0
 22 20  1  0  0  0  0
 25 19  1  0  0  0  0
 27 34  1  0  0  0  0
 27 26  1  0  0  0  0
 29 30  1  0  0  0  0
 30 32  2  0  0  0  0
 30 34  1  0  0  0  0
 31 35  1  0  0  0  0
 31 28  1  0  0  0  0
 32 33  1  0  0  0  0
 33 35  2  0  0  0  0
 34 31  2  0  0  0  0
M  END
>  <MODEL>
4

>  <REMARK>
 VINA RESULT:      -3.3      3.507      6.703
  Name = 
  4 active torsions:
  status: ('A' for Active; 'I' for Inactive)
    1  A    between atoms: C_4  and  C_16
    2  A    between atoms: C_4  and  S_21
    3  A    between atoms: N_15  and  C_17
    4  A    between atoms: S_21  and  C_30
                            x       y       z     vdW  Elec       q    Type
                         _______ _______ _______ _____ _____    ______ ____

>  <TORSDO>
F 4

$$$$
=
 OpenBabel11052410453D

 35 39  0  0  1  0  0  0  0  0999 V2000
  161.6520  210.5040  150.0240 C   0  0  0  0  0  0  0  0  0  0  0  0
  162.0430  211.2200  149.0630 O   0  0  0  0  0  0  0  0  0  0  0  0
  162.5820  207.1980  150.2000 C   0  0  0  0  0  3  0  0  0  0  0  0
  161.1390  209.7350  152.1580 N   0  0  0  0  0  0  0  0  0  0  0  0
  161.2570  210.9940  151.3900 C   0  0  2  0  0  3  0  0  0  0  0  0
  161.6240  209.0950  150.0010 N   0  0  0  0  0  0  0  0  0  0  0  0
  161.9670  207.4520  151.4330 C   0  0  0  0  0  3  0  0  0  0  0  0
  161.3700  208.6790  151.2210 C   0  0  0  0  0  0  0  0  0  0  0  0
  162.4080  208.2510  149.3660 N   0  0  0  0  0  0  0  0  0  0  0  0
  163.7320  210.9940  157.2590 C   0  0  0  0  0  1  0  0  0  0  0  0
  159.3510  208.6990  153.8610 O   0  0  0  0  0  1  0  0  0  0  0  0
  160.6530  208.8700  155.8810 C   0  0  1  0  0  0  0  0  0  0  0  0
  160.9980  207.5370  155.6170 O   0  0  0  0  0  1  0  0  0  0  0  0
  162.6520  208.5040  157.2540 O   0  0  0  0  0  1  0  0  0  0  0  0
  158.5880  210.7150  155.4920 C   0  0  0  0  0  2  0  0  0  0  0  0
  161.8110  209.5010  156.7400 C   0  0  1  0  0  3  0  0  0  0  0  0
  161.5260  209.6210  153.5670 C   0  0  2  0  0  3  0  0  0  0  0  0
  160.2950  209.5260  154.4960 C   0  0  1  0  0  0  0  0  0  0  0  0
  158.9750  210.1430  156.8520 C   0  0  0  0  0  2  0  0  0  0  0  0
  162.6260  210.7220  156.2540 C   0  0  0  0  0  0  0  0  0  0  0  0
  159.7340  210.8140  154.6790 O   0  0  0  0  0  0  0  0  0  0  0  0
  163.2630  210.4490  155.0180 O   0  0  0  0  0  0  0  0  0  0  0  0
  161.7750  211.9960  156.2840 C   0  0  0  0  0  1  0  0  0  0  0  0
  162.4380  210.7840  153.9330 C   0  0  0  0  0  2  0  0  0  0  0  0
  159.4850  208.8370  156.6890 O   0  0  0  0  0  0  0  0  0  0  0  0
  159.9070  211.6910  151.3270 C   0  0  0  0  0  2  0  0  0  0  0  0
  160.1300  213.4460  150.9120 S   0  0  0  0  0  0  0  0  0  0  0  0
  157.8600  214.1260  152.8140 O   0  0  0  0  0  1  0  0  0  0  0  0
  158.8710  213.1940  148.1570 O   0  0  0  0  0  1  0  0  0  0  0  0
  157.9650  213.5070  149.1630 C   0  0  0  0  0  0  0  0  0  0  0  0
  157.4600  213.9740  151.4920 C   0  0  0  0  0  0  0  0  0  0  0  0
  156.6140  213.6700  148.8440 C   0  0  0  0  0  3  0  0  0  0  0  0
  155.6890  213.9870  149.8390 C   0  0  0  0  0  3  0  0  0  0  0  0
  158.3950  213.6540  150.4930 C   0  0  0  0  0  0  0  0  0  0  0  0
  156.1120  214.1400  151.1620 C   0  0  0  0  0  3  0  0  0  0  0  0
  1  5  1  0  0  0  0
  2  1  2  0  0  0  0
  3  7  1  0  0  0  0
  5 26  1  6  0  0  0
  5  4  1  0  0  0  0
  6  1  1  0  0  0  0
  6  8  1  0  0  0  0
  8  7  2  0  0  0  0
  8  4  1  0  0  0  0
  9  6  1  0  0  0  0
  9  3  2  0  0  0  0
 12 13  1  6  0  0  0
 12 25  1  0  0  0  0
 12 16  1  0  0  0  0
 15 19  1  0  0  0  0
 16 14  1  6  0  0  0
 17  4  1  6  0  0  0
 17 24  1  0  0  0  0
 17 18  1  0  0  0  0
 18 11  1  6  0  0  0
 18 21  1  0  0  0  0
 18 12  1  0  0  0  0
 20 23  1  0  0  0  0
 20 16  1  0  0  0  0
 20 10  1  0  0  0  0
 21 15  1  0  0  0  0
 22 20  1  0  0  0  0
 24 22  1  0  0  0  0
 25 19  1  0  0  0  0
 27 26  1  0  0  0  0
 29 30  1  0  0  0  0
 30 34  1  0  0  0  0
 31 28  1  0  0  0  0
 32 30  2  0  0  0  0
 32 33  1  0  0  0  0
 33 35  2  0  0  0  0
 34 27  1  0  0  0  0
 34 31  2  0  0  0  0
 35 31  1  0  0  0  0
M  END
>  <MODEL>
5

>  <REMARK>
 VINA RESULT:      -3.2      2.684      5.039
  Name = 
  4 active torsions:
  status: ('A' for Active; 'I' for Inactive)
    1  A    between atoms: C_4  and  C_16
    2  A    between atoms: C_4  and  S_21
    3  A    between atoms: N_15  and  C_17
    4  A    between atoms: S_21  and  C_30
                            x       y       z     vdW  Elec       q    Type
                         _______ _______ _______ _____ _____    ______ ____

>  <TORSDO>
F 4

$$$$
=
 OpenBabel11052410453D

 35 39  0  0  1  0  0  0  0  0999 V2000
  161.2270  212.4800  144.5770 C   0  0  0  0  0  0  0  0  0  0  0  0
  161.3300  211.8960  145.6900 O   0  0  0  0  0  0  0  0  0  0  0  0
  163.9480  214.0800  143.2130 C   0  0  0  0  0  3  0  0  0  0  0  0
  160.7270  212.9630  142.3590 N   0  0  0  0  0  0  0  0  0  0  0  0
  160.2330  212.1580  143.4960 C   0  0  2  0  0  3  0  0  0  0  0  0
  162.1140  213.4770  144.1230 N   0  0  0  0  0  0  0  0  0  0  0  0
  162.9870  214.0990  142.1940 C   0  0  0  0  0  3  0  0  0  0  0  0
  161.8410  213.7090  142.8590 C   0  0  0  0  0  0  0  0  0  0  0  0
  163.3970  213.6340  144.3670 N   0  0  0  0  0  0  0  0  0  0  0  0
  160.5470  209.3000  137.7890 C   0  0  0  0  0  1  0  0  0  0  0  0
  159.3430  214.4530  140.6170 O   0  0  0  0  0  1  0  0  0  0  0  0
  159.6620  213.0890  138.6580 C   0  0  1  0  0  0  0  0  0  0  0  0
  160.7230  213.9630  138.3810 O   0  0  0  0  0  1  0  0  0  0  0  0
  161.0170  211.8610  137.0220 O   0  0  0  0  0  1  0  0  0  0  0  0
  157.1700  213.0020  139.9230 C   0  0  0  0  0  2  0  0  0  0  0  0
  159.9800  211.7170  137.9550 C   0  0  1  0  0  3  0  0  0  0  0  0
  160.6630  212.5030  140.9680 C   0  0  2  0  0  3  0  0  0  0  0  0
  159.4550  213.1100  140.2180 C   0  0  1  0  0  0  0  0  0  0  0  0
  157.3630  212.9040  138.4130 C   0  0  0  0  0  2  0  0  0  0  0  0
  160.1250  210.3980  138.7500 C   0  0  0  0  0  0  0  0  0  0  0  0
  158.2730  212.4180  140.5780 O   0  0  0  0  0  0  0  0  0  0  0  0
  161.1520  210.5000  139.7220 O   0  0  0  0  0  0  0  0  0  0  0  0
  158.7670  209.9260  139.2810 C   0  0  0  0  0  1  0  0  0  0  0  0
  160.6540  210.9810  140.9420 C   0  0  0  0  0  2  0  0  0  0  0  0
  158.5090  213.6370  138.0350 O   0  0  0  0  0  0  0  0  0  0  0  0
  158.8460  212.6310  143.9010 C   0  0  0  0  0  2  0  0  0  0  0  0
  158.8400  214.4360  144.1120 S   0  0  0  0  0  0  0  0  0  0  0  0
  160.4180  214.4530  146.7080 O   0  0  0  0  0  1  0  0  0  0  0  0
  155.9160  214.1950  144.9090 O   0  0  0  0  0  1  0  0  0  0  0  0
  156.7930  214.2180  145.9870 C   0  0  0  0  0  0  0  0  0  0  0  0
  159.0440  214.3480  146.8860 C   0  0  0  0  0  0  0  0  0  0  0  0
  156.2860  214.1320  147.2860 C   0  0  0  0  0  3  0  0  0  0  0  0
  157.1490  214.1570  148.3820 C   0  0  0  0  0  3  0  0  0  0  0  0
  158.1790  214.3230  145.7790 C   0  0  0  0  0  0  0  0  0  0  0  0
  158.5270  214.2660  148.1820 C   0  0  0  0  0  3  0  0  0  0  0  0
  1  2  2  0  0  0  0
  3  9  2  0  0  0  0
  4  8  1  0  0  0  0
  4  5  1  0  0  0  0
  5 26  1  1  0  0  0
  5  1  1  0  0  0  0
  6  9  1  0  0  0  0
  6  1  1  0  0  0  0
  7  8  2  0  0  0  0
  7  3  1  0  0  0  0
  8  6  1  0  0  0  0
 10 20  1  0  0  0  0
 12 13  1  6  0  0  0
 12 18  1  0  0  0  0
 15 21  1  0  0  0  0
 16 14  1  1  0  0  0
 16 12  1  0  0  0  0
 16 20  1  0  0  0  0
 17 24  1  1  0  0  0
 17  4  1  0  0  0  0
 18 21  1  0  0  0  0
 18 11  1  1  0  0  0
 18 17  1  0  0  0  0
 19 15  1  0  0  0  0
 20 23  1  0  0  0  0
 20 22  1  0  0  0  0
 22 24  1  0  0  0  0
 25 19  1  0  0  0  0
 25 12  1  0  0  0  0
 26 27  1  0  0  0  0
 27 34  1  0  0  0  0
 28 31  1  0  0  0  0
 29 30  1  0  0  0  0
 30 32  1  0  0  0  0
 31 35  2  0  0  0  0
 32 33  2  0  0  0  0
 34 30  2  0  0  0  0
 34 31  1  0  0  0  0
 35 33  1  0  0  0  0
M  END
>  <MODEL>
6

>  <REMARK>
 VINA RESULT:      -3.2      8.133     13.027
  Name = 
  4 active torsions:
  status: ('A' for Active; 'I' for Inactive)
    1  A    between atoms: C_4  and  C_16
    2  A    between atoms: C_4  and  S_21
    3  A    between atoms: N_15  and  C_17
    4  A    between atoms: S_21  and  C_30
                            x       y       z     vdW  Elec       q    Type
                         _______ _______ _______ _____ _____    ______ ____

>  <TORSDO>
F 4

$$$$
=
 OpenBabel11052410453D

 35 39  0  0  1  0  0  0  0  0999 V2000
  162.2720  210.0560  154.2920 C   0  0  0  0  0  0  0  0  0  0  0  0
  163.4920  210.3120  154.1030 O   0  0  0  0  0  0  0  0  0  0  0  0
  161.2450  208.6450  157.2550 C   0  0  0  0  0  3  0  0  0  0  0  0
  159.9550  210.2260  154.3930 N   0  0  0  0  0  0  0  0  0  0  0  0
  161.1100  210.7400  153.6250 C   0  0  2  0  0  3  0  0  0  0  0  0
  161.7950  209.1430  155.2540 N   0  0  0  0  0  0  0  0  0  0  0  0
  160.0530  208.9810  156.5990 C   0  0  0  0  0  3  0  0  0  0  0  0
  160.4900  209.2800  155.3230 C   0  0  0  0  0  0  0  0  0  0  0  0
  162.3000  208.8150  156.4230 N   0  0  0  0  0  0  0  0  0  0  0  0
  156.4710  213.9630  157.2610 C   0  0  0  0  0  1  0  0  0  0  0  0
  158.5490  211.2240  152.3440 O   0  0  0  0  0  1  0  0  0  0  0  0
  156.8830  212.4150  153.6100 C   0  0  1  0  0  0  0  0  0  0  0  0
  156.1060  211.2620  153.4280 O   0  0  0  0  0  1  0  0  0  0  0  0
  155.1360  212.6120  155.3220 O   0  0  0  0  0  1  0  0  0  0  0  0
  158.9150  213.9020  152.3940 C   0  0  0  0  0  2  0  0  0  0  0  0
  156.3760  213.1270  154.9200 C   0  0  1  0  0  3  0  0  0  0  0  0
  158.7790  211.0430  154.7060 C   0  0  2  0  0  3  0  0  0  0  0  0
  158.3880  211.9640  153.5290 C   0  0  1  0  0  0  0  0  0  0  0  0
  157.4750  214.3830  152.5350 C   0  0  0  0  0  2  0  0  0  0  0  0
  157.3010  213.3690  156.1350 C   0  0  0  0  0  0  0  0  0  0  0  0
  159.2490  213.0870  153.4950 O   0  0  0  0  0  0  0  0  0  0  0  0
  157.8280  212.1480  156.6240 O   0  0  0  0  0  0  0  0  0  0  0  0
  158.3390  214.4530  155.8280 C   0  0  0  0  0  1  0  0  0  0  0  0
  159.0360  211.8220  155.9890 C   0  0  0  0  0  2  0  0  0  0  0  0
  156.6010  213.2740  152.5150 O   0  0  0  0  0  0  0  0  0  0  0  0
  161.0050  210.2990  152.1740 C   0  0  0  0  0  2  0  0  0  0  0  0
  162.6200  209.7150  151.5810 S   0  0  0  0  0  0  0  0  0  0  0  0
  161.4700  207.0930  152.5990 O   0  0  0  0  0  1  0  0  0  0  0  0
  162.2570  209.6750  148.5630 O   0  0  0  0  0  1  0  0  0  0  0  0
  161.7800  208.5370  149.2020 C   0  0  0  0  0  0  0  0  0  0  0  0
  161.3860  207.2470  151.2200 C   0  0  0  0  0  0  0  0  0  0  0  0
  161.2020  207.5150  148.4430 C   0  0  0  0  0  3  0  0  0  0  0  0
  160.7140  206.3660  149.0660 C   0  0  0  0  0  3  0  0  0  0  0  0
  161.8790  208.4060  150.5970 C   0  0  0  0  0  0  0  0  0  0  0  0
  160.8050  206.2330  150.4540 C   0  0  0  0  0  3  0  0  0  0  0  0
  1  6  1  0  0  0  0
  2  1  2  0  0  0  0
  4  8  1  0  0  0  0
  5 26  1  6  0  0  0
  5  1  1  0  0  0  0
  5  4  1  0  0  0  0
  6  8  1  0  0  0  0
  6  9  1  0  0  0  0
  7  3  1  0  0  0  0
  8  7  2  0  0  0  0
  9  3  2  0  0  0  0
 12 13  1  6  0  0  0
 12 16  1  0  0  0  0
 15 19  1  0  0  0  0
 15 21  1  0  0  0  0
 16 14  1  1  0  0  0
 16 20  1  0  0  0  0
 17  4  1  6  0  0  0
 17 24  1  0  0  0  0
 18 11  1  6  0  0  0
 18 12  1  0  0  0  0
 18 17  1  0  0  0  0
 20 22  1  0  0  0  0
 20 10  1  0  0  0  0
 21 18  1  0  0  0  0
 23 20  1  0  0  0  0
 24 22  1  0  0  0  0
 25 19  1  0  0  0  0
 25 12  1  0  0  0  0
 27 26  1  0  0  0  0
 29 30  1  0  0  0  0
 30 34  1  0  0  0  0
 31 28  1  0  0  0  0
 32 33  1  0  0  0  0
 32 30  2  0  0  0  0
 33 35  2  0  0  0  0
 34 31  2  0  0  0  0
 34 27  1  0  0  0  0
 35 31  1  0  0  0  0
M  END
>  <MODEL>
7

>  <REMARK>
 VINA RESULT:      -2.7      2.756      6.192
  Name = 
  4 active torsions:
  status: ('A' for Active; 'I' for Inactive)
    1  A    between atoms: C_4  and  C_16
    2  A    between atoms: C_4  and  S_21
    3  A    between atoms: N_15  and  C_17
    4  A    between atoms: S_21  and  C_30
                            x       y       z     vdW  Elec       q    Type
                         _______ _______ _______ _____ _____    ______ ____

>  <TORSDO>
F 4

$$$$
=
 OpenBabel11052410453D

 35 39  0  0  1  0  0  0  0  0999 V2000
  157.4520  213.2070  151.9490 C   0  0  0  0  0  0  0  0  0  0  0  0
  156.7380  213.6570  151.0140 O   0  0  0  0  0  0  0  0  0  0  0  0
  156.1510  212.8980  155.1170 C   0  0  0  0  0  3  0  0  0  0  0  0
  158.9200  211.9030  153.1950 N   0  0  0  0  0  0  0  0  0  0  0  0
  158.6400  212.2970  151.7980 C   0  0  2  0  0  3  0  0  0  0  0  0
  157.1810  213.4060  153.3180 N   0  0  0  0  0  0  0  0  0  0  0  0
  157.3920  212.2520  155.1880 C   0  0  0  0  0  3  0  0  0  0  0  0
  157.9930  212.6340  154.0040 C   0  0  0  0  0  0  0  0  0  0  0  0
  156.0260  213.5440  153.9330 N   0  0  0  0  0  0  0  0  0  0  0  0
  161.3770  206.6070  152.6930 C   0  0  0  0  0  1  0  0  0  0  0  0
  159.7450  211.5270  155.7150 O   0  0  0  0  0  1  0  0  0  0  0  0
  160.3560  209.2040  155.5400 C   0  0  1  0  0  0  0  0  0  0  0  0
  159.0720  208.9620  156.0500 O   0  0  0  0  0  1  0  0  0  0  0  0
  159.9440  206.8500  154.9860 O   0  0  0  0  0  1  0  0  0  0  0  0
  162.4110  211.1000  155.5930 C   0  0  0  0  0  2  0  0  0  0  0  0
  160.7860  207.9370  154.7110 C   0  0  1  0  0  3  0  0  0  0  0  0
  159.3870  210.5640  153.5680 C   0  0  2  0  0  3  0  0  0  0  0  0
  160.2980  210.5990  154.8150 C   0  0  1  0  0  0  0  0  0  0  0  0
  162.5080  209.7200  156.2360 C   0  0  0  0  0  2  0  0  0  0  0  0
  161.1220  208.0160  153.2030 C   0  0  0  0  0  0  0  0  0  0  0  0
  161.5970  211.0290  154.4460 O   0  0  0  0  0  0  0  0  0  0  0  0
  160.0240  208.5200  152.4630 O   0  0  0  0  0  0  0  0  0  0  0  0
  162.4540  208.7390  152.9750 C   0  0  0  0  0  1  0  0  0  0  0  0
  160.0710  209.9190  152.3700 C   0  0  0  0  0  2  0  0  0  0  0  0
  161.2270  209.3040  156.6590 O   0  0  0  0  0  0  0  0  0  0  0  0
  159.8220  213.0680  151.2310 C   0  0  0  0  0  2  0  0  0  0  0  0
  159.2330  214.4510  150.2090 S   0  0  0  0  0  0  0  0  0  0  0  0
  162.0740  214.4290  149.1330 O   0  0  0  0  0  1  0  0  0  0  0  0
  157.5610  212.9020  148.1970 O   0  0  0  0  0  1  0  0  0  0  0  0
  158.9050  212.9930  147.8600 C   0  0  0  0  0  0  0  0  0  0  0  0
  161.1620  213.7560  148.3280 C   0  0  0  0  0  0  0  0  0  0  0  0
  159.3590  212.3960  146.6800 C   0  0  0  0  0  3  0  0  0  0  0  0
  160.7060  212.4730  146.3240 C   0  0  0  0  0  3  0  0  0  0  0  0
  159.8070  213.6810  148.6900 C   0  0  0  0  0  0  0  0  0  0  0  0
  161.6070  213.1510  147.1490 C   0  0  0  0  0  3  0  0  0  0  0  0
  1  6  1  0  0  0  0
  2  1  2  0  0  0  0
  3  7  1  0  0  0  0
  4 17  1  0  0  0  0
  4  8  1  0  0  0  0
  5 26  1  1  0  0  0
  5  1  1  0  0  0  0
  5  4  1  0  0  0  0
  6  9  1  0  0  0  0
  6  8  1  0  0  0  0
  8  7  2  0  0  0  0
  9  3  2  0  0  0  0
 10 20  1  0  0  0  0
 12 13  1  1  0  0  0
 12 25  1  0  0  0  0
 15 19  1  0  0  0  0
 16 14  1  6  0  0  0
 16 12  1  0  0  0  0
 17 24  1  6  0  0  0
 17 18  1  0  0  0  0
 18 12  1  0  0  0  0
 18 11  1  1  0  0  0
 19 25  1  0  0  0  0
 20 16  1  0  0  0  0
 21 18  1  0  0  0  0
 21 15  1  0  0  0  0
 22 20  1  0  0  0  0
 23 20  1  0  0  0  0
 24 22  1  0  0  0  0
 27 26  1  0  0  0  0
 30 29  1  0  0  0  0
 30 34  1  0  0  0  0
 31 34  2  0  0  0  0
 31 28  1  0  0  0  0
 32 30  2  0  0  0  0
 33 32  1  0  0  0  0
 33 35  2  0  0  0  0
 34 27  1  0  0  0  0
 35 31  1  0  0  0  0
M  END
>  <MODEL>
8

>  <REMARK>
 VINA RESULT:      -2.3      1.759      3.273
  Name = 
  4 active torsions:
  status: ('A' for Active; 'I' for Inactive)
    1  A    between atoms: C_4  and  C_16
    2  A    between atoms: C_4  and  S_21
    3  A    between atoms: N_15  and  C_17
    4  A    between atoms: S_21  and  C_30
                            x       y       z     vdW  Elec       q    Type
                         _______ _______ _______ _____ _____    ______ ____

>  <TORSDO>
F 4

$$$$
=
 OpenBabel11052410453D

 35 39  0  0  1  0  0  0  0  0999 V2000
  156.3510  213.1830  153.7600 C   0  0  0  0  0  0  0  0  0  0  0  0
  155.3370  213.6240  153.1560 O   0  0  0  0  0  0  0  0  0  0  0  0
  156.0850  212.1030  157.0140 C   0  0  0  0  0  3  0  0  0  0  0  0
  158.2960  212.0200  154.2840 N   0  0  0  0  0  0  0  0  0  0  0  0
  157.5680  212.5720  153.1210 C   0  0  2  0  0  3  0  0  0  0  0  0
  156.4610  213.0960  155.1630 N   0  0  0  0  0  0  0  0  0  0  0  0
  157.3760  211.7210  156.6270 C   0  0  0  0  0  3  0  0  0  0  0  0
  157.5440  212.4050  155.4380 C   0  0  0  0  0  0  0  0  0  0  0  0
  155.5270  212.8940  156.0670 N   0  0  0  0  0  0  0  0  0  0  0  0
  161.5920  207.6790  152.1340 C   0  0  0  0  0  1  0  0  0  0  0  0
  159.5120  211.2000  156.5240 O   0  0  0  0  0  1  0  0  0  0  0  0
  160.5090  209.1840  155.6630 C   0  0  1  0  0  0  0  0  0  0  0  0
  159.3730  208.5520  156.1880 O   0  0  0  0  0  1  0  0  0  0  0  0
  160.4650  207.0180  154.5120 O   0  0  0  0  0  1  0  0  0  0  0  0
  162.1690  211.3970  156.0710 C   0  0  0  0  0  2  0  0  0  0  0  0
  161.0470  208.2930  154.4820 C   0  0  1  0  0  3  0  0  0  0  0  0
  159.0470  210.7630  154.2310 C   0  0  2  0  0  3  0  0  0  0  0  0
  160.0980  210.6720  155.3600 C   0  0  1  0  0  0  0  0  0  0  0  0
  162.6040  209.9520  156.2960 C   0  0  0  0  0  2  0  0  0  0  0  0
  161.1550  208.8230  153.0330 C   0  0  0  0  0  0  0  0  0  0  0  0
  161.2330  211.4490  155.0200 O   0  0  0  0  0  0  0  0  0  0  0  0
  159.8920  209.2530  152.5540 O   0  0  0  0  0  0  0  0  0  0  0  0
  162.2870  209.8480  152.9070 C   0  0  0  0  0  1  0  0  0  0  0  0
  159.6680  210.6060  152.8500 C   0  0  0  0  0  2  0  0  0  0  0  0
  161.4910  209.1790  156.6900 O   0  0  0  0  0  0  0  0  0  0  0  0
  158.4050  213.6500  152.4500 C   0  0  0  0  0  2  0  0  0  0  0  0
  157.4460  214.4530  151.1320 S   0  0  0  0  0  0  0  0  0  0  0  0
  156.7010  213.3070  148.4180 O   0  0  0  0  0  1  0  0  0  0  0  0
  160.4830  214.4530  151.2380 O   0  0  0  0  0  1  0  0  0  0  0  0
  159.9620  213.9550  150.0510 C   0  0  0  0  0  0  0  0  0  0  0  0
  158.0710  213.3830  148.6400 C   0  0  0  0  0  0  0  0  0  0  0  0
  160.8330  213.5130  149.0500 C   0  0  0  0  0  3  0  0  0  0  0  0
  160.3300  213.0120  147.8490 C   0  0  0  0  0  3  0  0  0  0  0  0
  158.5730  213.8870  149.8510 C   0  0  0  0  0  0  0  0  0  0  0  0
  158.9500  212.9480  147.6440 C   0  0  0  0  0  3  0  0  0  0  0  0
  1  6  1  0  0  0  0
  2  1  2  0  0  0  0
  4  8  1  0  0  0  0
  5 26  1  1  0  0  0
  5  1  1  0  0  0  0
  5  4  1  0  0  0  0
  6  8  1  0  0  0  0
  6  9  1  0  0  0  0
  7  3  1  0  0  0  0
  8  7  2  0  0  0  0
  9  3  2  0  0  0  0
 10 20  1  0  0  0  0
 12 13  1  1  0  0  0
 12 25  1  0  0  0  0
 15 19  1  0  0  0  0
 16 14  1  6  0  0  0
 16 12  1  0  0  0  0
 17 24  1  6  0  0  0
 17  4  1  0  0  0  0
 17 18  1  0  0  0  0
 18 12  1  0  0  0  0
 18 11  1  1  0  0  0
 19 25  1  0  0  0  0
 20 16  1  0  0  0  0
 21 18  1  0  0  0  0
 21 15  1  0  0  0  0
 22 24  1  0  0  0  0
 22 20  1  0  0  0  0
 23 20  1  0  0  0  0
 27 26  1  0  0  0  0
 28 31  1  0  0  0  0
 30 29  1  0  0  0  0
 31 34  2  0  0  0  0
 32 30  2  0  0  0  0
 33 32  1  0  0  0  0
 34 30  1  0  0  0  0
 34 27  1  0  0  0  0
 35 33  2  0  0  0  0
 35 31  1  0  0  0  0
M  END
>  <MODEL>
9

>  <REMARK>
 VINA RESULT:      -2.3      1.474      2.661
  Name = 
  4 active torsions:
  status: ('A' for Active; 'I' for Inactive)
    1  A    between atoms: C_4  and  C_16
    2  A    between atoms: C_4  and  S_21
    3  A    between atoms: N_15  and  C_17
    4  A    between atoms: S_21  and  C_30
                            x       y       z     vdW  Elec       q    Type
                         _______ _______ _______ _____ _____    ______ ____

>  <TORSDO>
F 4

$$$$
