=
 OpenBabel11042422523D

 29 32  0  0  1  0  0  0  0  0999 V2000
  160.2070  210.4920  152.6450 C   0  0  0  0  0  2  0  0  0  0  0  0
  161.1270  204.4820  149.8580 S   0  0  0  0  0  0  0  0  0  0  0  0
  162.5900  205.8330  152.5000 S   0  0  0  0  0  0  0  0  0  0  0  0
  161.4500  206.2280  150.0260 C   0  0  0  0  0  0  0  0  0  0  0  0
  162.3090  208.5240  151.2410 S   0  0  0  0  0  0  0  0  0  0  0  0
  160.3310  206.2200  147.9230 C   0  0  0  0  0  2  0  0  0  0  0  0
  160.8250  206.6840  154.4960 C   0  0  0  0  0  3  0  0  0  0  0  0
  160.4920  209.1810  153.3050 C   0  0  0  0  0  0  0  0  0  0  0  0
  159.7710  208.8170  154.4490 C   0  0  0  0  0  3  0  0  0  0  0  0
  160.9860  207.0140  148.9430 N   0  0  0  0  0  2  0  0  0  0  0  0
  160.8190  204.7840  148.0850 C   0  0  0  0  0  2  0  0  0  0  0  0
  159.9550  207.5920  155.0170 N   0  0  0  0  0  0  0  0  0  0  0  0
  161.5860  207.0220  153.3770 C   0  0  0  0  0  0  0  0  0  0  0  0
  162.1570  206.7560  151.0290 C   0  0  0  0  0  0  0  0  0  0  0  0
  161.4290  208.2750  152.7850 C   0  0  0  0  0  0  0  0  0  0  0  0
  157.2580  212.7660  153.6350 C   0  0  0  0  0  2  0  0  0  0  0  0
  157.7460  213.5790  154.6690 O   0  0  0  0  0  0  0  0  0  0  0  0
  157.9670  212.7060  155.7410 C   0  0  0  0  0  2  0  0  0  0  0  0
  159.4550  212.3690  155.8820 C   0  0  1  0  0  3  0  0  0  0  0  0
  160.1830  212.1700  154.5480 C   0  0  0  0  0  2  0  0  0  0  0  0
  160.0960  213.3700  156.6120 O   0  0  0  0  0  1  0  0  0  0  0  0
  158.3980  212.2790  152.7310 C   0  0  2  0  0  3  0  0  0  0  0  0
  159.3460  211.3760  153.5420 C   0  0  1  0  0  3  0  0  0  0  0  0
  160.0440  212.9910  151.1120 O   0  0  0  0  0  1  0  0  0  0  0  0
  159.0990  213.4580  152.0300 C   0  0  1  0  0  3  0  0  0  0  0  0
  158.0860  214.3290  151.2990 C   0  0  0  0  0  2  0  0  0  0  0  0
  157.0780  212.9810  149.6120 O   0  0  0  0  0  1  0  0  0  0  0  0
  157.9220  213.8720  149.8910 C   0  0  0  0  0  0  0  0  0  0  0  0
  158.6750  214.4530  148.8800 O   0  0  0  0  0  0  0  0  0  0  0  0
  1  8  1  0  0  0  0
  2  4  1  0  0  0  0
  3 13  1  0  0  0  0
  4 14  2  0  0  0  0
  5 15  1  0  0  0  0
  6 11  1  0  0  0  0
  6 10  1  0  0  0  0
  7 12  1  0  0  0  0
  8  9  1  0  0  0  0
  9 12  2  0  0  0  0
 10  4  1  0  0  0  0
 11  2  1  0  0  0  0
 13  7  2  0  0  0  0
 14  5  1  0  0  0  0
 14  3  1  0  0  0  0
 15  8  2  0  0  0  0
 15 13  1  0  0  0  0
 16 17  1  0  0  0  0
 17 18  1  0  0  0  0
 18 19  1  0  0  0  0
 19 21  1  6  0  0  0
 20 19  1  0  0  0  0
 22 25  1  1  0  0  0
 22 23  1  0  0  0  0
 22 16  1  0  0  0  0
 23  1  1  6  0  0  0
 23 20  1  0  0  0  0
 25 24  1  6  0  0  0
 26 25  1  0  0  0  0
 27 28  1  0  0  0  0
 28 26  1  0  0  0  0
 29 28  2  0  0  0  0
M  END
>  <MODEL>
1

>  <REMARK>
 VINA RESULT:      -5.0      0.000      0.000
  Name = 
  5 active torsions:
  status: ('A' for Active; 'I' for Inactive)
    1  A    between atoms: C_4  and  C_23
    2  A    between atoms: C_10  and  C_15
    3  A    between atoms: C_15  and  C_28
    4  A    between atoms: C_23  and  C_24
    5  A    between atoms: C_24  and  C_26
                            x       y       z     vdW  Elec       q    Type
                         _______ _______ _______ _____ _____    ______ ____

>  <TORSDO>
F 5

$$$$
=
 OpenBabel11042422523D

 29 32  0  0  1  0  0  0  0  0999 V2000
  159.8120  211.1670  152.7680 C   0  0  0  0  0  2  0  0  0  0  0  0
  159.5220  212.5750  146.2360 S   0  0  0  0  0  0  0  0  0  0  0  0
  162.1560  212.2180  148.2060 S   0  0  0  0  0  0  0  0  0  0  0  0
  159.5340  213.0170  147.9630 C   0  0  0  0  0  0  0  0  0  0  0  0
  160.5570  213.2880  150.4860 S   0  0  0  0  0  0  0  0  0  0  0  0
  157.2690  213.5240  147.4260 C   0  0  0  0  0  2  0  0  0  0  0  0
  162.2730  209.7710  149.5570 C   0  0  0  0  0  3  0  0  0  0  0  0
  160.7240  210.7250  151.6670 C   0  0  0  0  0  0  0  0  0  0  0  0
  161.1420  209.3900  151.6150 C   0  0  0  0  0  3  0  0  0  0  0  0
  158.2950  213.5020  148.4490 N   0  0  0  0  0  2  0  0  0  0  0  0
  157.9780  213.5320  146.0750 C   0  0  0  0  0  2  0  0  0  0  0  0
  161.9040  208.9470  150.5760 N   0  0  0  0  0  0  0  0  0  0  0  0
  161.9040  211.1150  149.5890 C   0  0  0  0  0  0  0  0  0  0  0  0
  160.6320  212.9980  148.7250 C   0  0  0  0  0  0  0  0  0  0  0  0
  161.1380  211.5990  150.6490 C   0  0  0  0  0  0  0  0  0  0  0  0
  159.3440  209.4280  156.1750 C   0  0  0  0  0  2  0  0  0  0  0  0
  160.4600  209.8010  156.9390 O   0  0  0  0  0  0  0  0  0  0  0  0
  161.5500  209.1850  156.3130 C   0  0  0  0  0  2  0  0  0  0  0  0
  162.3350  210.1870  155.4600 C   0  0  1  0  0  3  0  0  0  0  0  0
  161.4580  211.1880  154.6990 C   0  0  0  0  0  2  0  0  0  0  0  0
  163.2380  210.8830  156.2630 O   0  0  0  0  0  1  0  0  0  0  0  0
  159.0430  210.4730  155.0920 C   0  0  2  0  0  3  0  0  0  0  0  0
  160.2150  210.5300  154.0940 C   0  0  1  0  0  3  0  0  0  0  0  0
  158.2350  212.7200  154.7260 O   0  0  0  0  0  1  0  0  0  0  0  0
  158.6780  211.8340  155.7120 C   0  0  1  0  0  3  0  0  0  0  0  0
  157.5850  211.6720  156.7600 C   0  0  0  0  0  2  0  0  0  0  0  0
  155.7450  210.7420  155.5640 O   0  0  0  0  0  0  0  0  0  0  0  0
  156.2380  211.7530  156.1280 C   0  0  0  0  0  0  0  0  0  0  0  0
  155.5120  212.9350  156.1910 O   0  0  0  0  0  1  0  0  0  0  0  0
  2  4  1  0  0  0  0
  3 14  1  0  0  0  0
  3 13  1  0  0  0  0
  4 10  1  0  0  0  0
  4 14  2  0  0  0  0
  5 15  1  0  0  0  0
  6 10  1  0  0  0  0
  7 13  2  0  0  0  0
  7 12  1  0  0  0  0
  8  1  1  0  0  0  0
  9  8  1  0  0  0  0
 11  2  1  0  0  0  0
 11  6  1  0  0  0  0
 12  9  2  0  0  0  0
 13 15  1  0  0  0  0
 14  5  1  0  0  0  0
 15  8  2  0  0  0  0
 16 17  1  0  0  0  0
 18 17  1  0  0  0  0
 19 21  1  1  0  0  0
 19 18  1  0  0  0  0
 20 19  1  0  0  0  0
 22 25  1  1  0  0  0
 22 16  1  0  0  0  0
 23  1  1  6  0  0  0
 23 20  1  0  0  0  0
 23 22  1  0  0  0  0
 25 24  1  6  0  0  0
 25 26  1  0  0  0  0
 27 28  2  0  0  0  0
 28 29  1  0  0  0  0
 28 26  1  0  0  0  0
M  END
>  <MODEL>
2

>  <REMARK>
 VINA RESULT:      -4.1      3.757      5.676
  Name = 
  5 active torsions:
  status: ('A' for Active; 'I' for Inactive)
    1  A    between atoms: C_4  and  C_23
    2  A    between atoms: C_10  and  C_15
    3  A    between atoms: C_15  and  C_28
    4  A    between atoms: C_23  and  C_24
    5  A    between atoms: C_24  and  C_26
                            x       y       z     vdW  Elec       q    Type
                         _______ _______ _______ _____ _____    ______ ____

>  <TORSDO>
F 5

$$$$
=
 OpenBabel11042422523D

 29 32  0  0  1  0  0  0  0  0999 V2000
  160.3420  207.8960  154.6430 C   0  0  0  0  0  2  0  0  0  0  0  0
  158.7000  214.3480  154.0130 S   0  0  0  0  0  0  0  0  0  0  0  0
  158.6970  212.4190  156.7010 S   0  0  0  0  0  0  0  0  0  0  0  0
  158.3430  212.6020  153.9770 C   0  0  0  0  0  0  0  0  0  0  0  0
  158.0210  210.0760  154.9810 S   0  0  0  0  0  0  0  0  0  0  0  0
  158.2020  213.0940  151.6510 C   0  0  0  0  0  2  0  0  0  0  0  0
  161.1490  211.1900  157.2510 C   0  0  0  0  0  3  0  0  0  0  0  0
  160.5710  209.0240  155.5980 C   0  0  0  0  0  0  0  0  0  0  0  0
  161.8120  209.1440  156.2350 C   0  0  0  0  0  3  0  0  0  0  0  0
  158.0980  212.0820  152.6820 N   0  0  0  0  0  2  0  0  0  0  0  0
  158.0120  214.4490  152.3260 C   0  0  0  0  0  2  0  0  0  0  0  0
  162.0700  210.2100  157.0430 N   0  0  0  0  0  0  0  0  0  0  0  0
  159.8900  211.0890  156.6610 C   0  0  0  0  0  0  0  0  0  0  0  0
  158.2110  211.8500  155.0750 C   0  0  0  0  0  0  0  0  0  0  0  0
  159.5930  210.0010  155.8420 C   0  0  0  0  0  0  0  0  0  0  0  0
  160.8160  207.5580  150.8330 C   0  0  0  0  0  2  0  0  0  0  0  0
  162.0120  208.2330  150.5470 O   0  0  0  0  0  0  0  0  0  0  0  0
  161.7390  209.5810  150.8060 C   0  0  0  0  0  2  0  0  0  0  0  0
  162.3190  210.0120  152.1570 C   0  0  1  0  0  3  0  0  0  0  0  0
  162.1870  208.9590  153.2630 C   0  0  0  0  0  2  0  0  0  0  0  0
  163.6630  210.3530  152.0040 O   0  0  0  0  0  1  0  0  0  0  0  0
  160.7990  207.0580  152.2840 C   0  0  2  0  0  3  0  0  0  0  0  0
  160.8230  208.2630  153.2430 C   0  0  1  0  0  3  0  0  0  0  0  0
  161.5810  205.1860  153.5960 O   0  0  0  0  0  1  0  0  0  0  0  0
  161.9190  206.0310  152.5360 C   0  0  1  0  0  3  0  0  0  0  0  0
  162.1680  205.1900  151.2910 C   0  0  0  0  0  2  0  0  0  0  0  0
  160.0890  204.0940  150.9010 O   0  0  0  0  0  0  0  0  0  0  0  0
  161.2830  203.9920  151.2840 C   0  0  0  0  0  0  0  0  0  0  0  0
  161.7850  202.7550  151.6670 O   0  0  0  0  0  1  0  0  0  0  0  0
  1  8  1  0  0  0  0
  4  2  1  0  0  0  0
  4 14  2  0  0  0  0
  5 14  1  0  0  0  0
  5 15  1  0  0  0  0
  6 11  1  0  0  0  0
  6 10  1  0  0  0  0
  8 15  2  0  0  0  0
  8  9  1  0  0  0  0
  9 12  2  0  0  0  0
 10  4  1  0  0  0  0
 11  2  1  0  0  0  0
 12  7  1  0  0  0  0
 13  3  1  0  0  0  0
 13  7  2  0  0  0  0
 14  3  1  0  0  0  0
 15 13  1  0  0  0  0
 16 22  1  0  0  0  0
 17 18  1  0  0  0  0
 17 16  1  0  0  0  0
 18 19  1  0  0  0  0
 19 21  1  6  0  0  0
 19 20  1  0  0  0  0
 22 25  1  1  0  0  0
 22 23  1  0  0  0  0
 23 20  1  0  0  0  0
 23  1  1  1  0  0  0
 25 24  1  1  0  0  0
 26 25  1  0  0  0  0
 27 28  2  0  0  0  0
 28 26  1  0  0  0  0
 28 29  1  0  0  0  0
M  END
>  <MODEL>
3

>  <REMARK>
 VINA RESULT:      -3.5      4.358      7.383
  Name = 
  5 active torsions:
  status: ('A' for Active; 'I' for Inactive)
    1  A    between atoms: C_4  and  C_23
    2  A    between atoms: C_10  and  C_15
    3  A    between atoms: C_15  and  C_28
    4  A    between atoms: C_23  and  C_24
    5  A    between atoms: C_24  and  C_26
                            x       y       z     vdW  Elec       q    Type
                         _______ _______ _______ _____ _____    ______ ____

>  <TORSDO>
F 5

$$$$
=
 OpenBabel11042422523D

 29 32  0  0  1  0  0  0  0  0999 V2000
  158.0010  213.9220  138.6920 C   0  0  0  0  0  2  0  0  0  0  0  0
  161.8730  208.6050  139.9060 S   0  0  0  0  0  0  0  0  0  0  0  0
  162.2520  211.7550  140.8460 S   0  0  0  0  0  0  0  0  0  0  0  0
  161.3400  210.0000  138.9320 C   0  0  0  0  0  0  0  0  0  0  0  0
  160.9120  212.6350  138.3290 S   0  0  0  0  0  0  0  0  0  0  0  0
  160.5900  208.2180  137.5390 C   0  0  0  0  0  2  0  0  0  0  0  0
  160.0840  212.8130  142.2620 C   0  0  0  0  0  3  0  0  0  0  0  0
  158.7790  213.5840  139.9240 C   0  0  0  0  0  0  0  0  0  0  0  0
  158.1830  213.7500  141.1800 C   0  0  0  0  0  3  0  0  0  0  0  0
  160.6910  209.6520  137.7210 N   0  0  0  0  0  2  0  0  0  0  0  0
  161.6600  207.5750  138.4160 C   0  0  0  0  0  2  0  0  0  0  0  0
  158.8430  213.3700  142.3100 N   0  0  0  0  0  0  0  0  0  0  0  0
  160.7240  212.6620  141.0330 C   0  0  0  0  0  0  0  0  0  0  0  0
  161.6110  211.2700  139.2470 C   0  0  0  0  0  0  0  0  0  0  0  0
  160.0780  213.0570  139.8610 C   0  0  0  0  0  0  0  0  0  0  0  0
  155.0370  211.6480  139.6380 C   0  0  0  0  0  2  0  0  0  0  0  0
  154.0060  211.9940  138.7510 O   0  0  0  0  0  0  0  0  0  0  0  0
  153.6480  213.3010  139.1060 C   0  0  0  0  0  2  0  0  0  0  0  0
  154.2470  214.3210  138.1320 C   0  0  1  0  0  3  0  0  0  0  0  0
  155.6750  213.9960  137.6810 C   0  0  0  0  0  2  0  0  0  0  0  0
  153.4260  214.4390  137.0110 O   0  0  0  0  0  1  0  0  0  0  0  0
  156.4120  211.9650  139.0340 C   0  0  2  0  0  3  0  0  0  0  0  0
  156.5460  213.4860  138.8330 C   0  0  1  0  0  3  0  0  0  0  0  0
  157.7860  211.6220  137.0770 O   0  0  0  0  0  1  0  0  0  0  0  0
  156.6700  211.1360  137.7620 C   0  0  1  0  0  3  0  0  0  0  0  0
  156.9020  209.6720  138.1110 C   0  0  0  0  0  2  0  0  0  0  0  0
  155.2620  208.2870  139.1480 O   0  0  0  0  0  1  0  0  0  0  0  0
  155.6120  208.9260  138.1210 C   0  0  0  0  0  0  0  0  0  0  0  0
  154.7800  208.9630  137.0110 O   0  0  0  0  0  0  0  0  0  0  0  0
  1  8  1  0  0  0  0
  3 13  1  0  0  0  0
  4 14  2  0  0  0  0
  4  2  1  0  0  0  0
  5 14  1  0  0  0  0
  5 15  1  0  0  0  0
  6 10  1  0  0  0  0
  6 11  1  0  0  0  0
  7 12  1  0  0  0  0
  8  9  1  0  0  0  0
  9 12  2  0  0  0  0
 10  4  1  0  0  0  0
 11  2  1  0  0  0  0
 13  7  2  0  0  0  0
 14  3  1  0  0  0  0
 15  8  2  0  0  0  0
 15 13  1  0  0  0  0
 17 18  1  0  0  0  0
 17 16  1  0  0  0  0
 19 21  1  6  0  0  0
 19 18  1  0  0  0  0
 20 19  1  0  0  0  0
 20 23  1  0  0  0  0
 22 25  1  6  0  0  0
 22 16  1  0  0  0  0
 23  1  1  6  0  0  0
 23 22  1  0  0  0  0
 25 24  1  1  0  0  0
 25 26  1  0  0  0  0
 26 28  1  0  0  0  0
 28 27  1  0  0  0  0
 29 28  2  0  0  0  0
M  END
>  <MODEL>
4

>  <REMARK>
 VINA RESULT:      -3.5     12.037     14.227
  Name = 
  5 active torsions:
  status: ('A' for Active; 'I' for Inactive)
    1  A    between atoms: C_4  and  C_23
    2  A    between atoms: C_10  and  C_15
    3  A    between atoms: C_15  and  C_28
    4  A    between atoms: C_23  and  C_24
    5  A    between atoms: C_24  and  C_26
                            x       y       z     vdW  Elec       q    Type
                         _______ _______ _______ _____ _____    ______ ____

>  <TORSDO>
F 5

$$$$
=
 OpenBabel11042422523D

 29 32  0  0  1  0  0  0  0  0999 V2000
  160.8960  208.4530  152.5750 C   0  0  0  0  0  2  0  0  0  0  0  0
  156.0940  212.5110  154.8560 S   0  0  0  0  0  0  0  0  0  0  0  0
  159.3370  213.0630  154.5030 S   0  0  0  0  0  0  0  0  0  0  0  0
  157.3400  211.2500  155.0480 C   0  0  0  0  0  0  0  0  0  0  0  0
  159.8580  210.1800  155.0650 S   0  0  0  0  0  0  0  0  0  0  0  0
  155.3780  209.9400  155.3860 C   0  0  0  0  0  2  0  0  0  0  0  0
  160.3110  212.6400  151.9150 C   0  0  0  0  0  3  0  0  0  0  0  0
  160.7450  209.9290  152.3930 C   0  0  0  0  0  0  0  0  0  0  0  0
  160.9660  210.4910  151.1300 C   0  0  0  0  0  3  0  0  0  0  0  0
  156.8260  209.9590  155.3270 N   0  0  0  0  0  2  0  0  0  0  0  0
  154.9180  211.3690  155.6590 C   0  0  0  0  0  2  0  0  0  0  0  0
  160.7530  211.8210  150.9210 N   0  0  0  0  0  0  0  0  0  0  0  0
  160.1110  212.1240  153.1950 C   0  0  0  0  0  0  0  0  0  0  0  0
  158.6530  211.4980  155.0370 C   0  0  0  0  0  0  0  0  0  0  0  0
  160.3370  210.7700  153.4400 C   0  0  0  0  0  0  0  0  0  0  0  0
  160.0810  205.7700  149.9310 C   0  0  0  0  0  2  0  0  0  0  0  0
  161.1920  205.7440  149.0740 O   0  0  0  0  0  0  0  0  0  0  0  0
  161.1740  206.9810  148.4200 C   0  0  0  0  0  2  0  0  0  0  0  0
  162.2030  207.9410  149.0260 C   0  0  1  0  0  3  0  0  0  0  0  0
  162.3110  207.8650  150.5530 C   0  0  0  0  0  2  0  0  0  0  0  0
  163.4560  207.7030  148.4620 O   0  0  0  0  0  1  0  0  0  0  0  0
  160.4730  206.2770  151.3250 C   0  0  2  0  0  3  0  0  0  0  0  0
  160.9420  207.7410  151.2270 C   0  0  1  0  0  3  0  0  0  0  0  0
  162.0220  205.9280  153.1460 O   0  0  0  0  0  1  0  0  0  0  0  0
  161.4870  205.3350  151.9990 C   0  0  1  0  0  3  0  0  0  0  0  0
  160.8260  204.0190  152.3860 C   0  0  0  0  0  2  0  0  0  0  0  0
  162.3310  202.2250  151.9450 O   0  0  0  0  0  1  0  0  0  0  0  0
  161.3490  202.9040  151.5470 C   0  0  0  0  0  0  0  0  0  0  0  0
  160.7330  202.5930  150.3430 O   0  0  0  0  0  0  0  0  0  0  0  0
  2  4  1  0  0  0  0
  2 11  1  0  0  0  0
  3 14  1  0  0  0  0
  4 10  1  0  0  0  0
  6 11  1  0  0  0  0
  7 13  1  0  0  0  0
  8  1  1  0  0  0  0
  8 15  1  0  0  0  0
  9  8  2  0  0  0  0
 10  6  1  0  0  0  0
 12  9  1  0  0  0  0
 12  7  2  0  0  0  0
 13 15  2  0  0  0  0
 13  3  1  0  0  0  0
 14  4  2  0  0  0  0
 14  5  1  0  0  0  0
 15  5  1  0  0  0  0
 16 22  1  0  0  0  0
 17 16  1  0  0  0  0
 18 19  1  0  0  0  0
 18 17  1  0  0  0  0
 19 21  1  6  0  0  0
 19 20  1  0  0  0  0
 20 23  1  0  0  0  0
 22 25  1  6  0  0  0
 23 22  1  0  0  0  0
 23  1  1  1  0  0  0
 25 26  1  0  0  0  0
 25 24  1  1  0  0  0
 28 27  1  0  0  0  0
 28 26  1  0  0  0  0
 29 28  2  0  0  0  0
M  END
>  <MODEL>
5

>  <REMARK>
 VINA RESULT:      -3.3      4.727      8.280
  Name = 
  5 active torsions:
  status: ('A' for Active; 'I' for Inactive)
    1  A    between atoms: C_4  and  C_23
    2  A    between atoms: C_10  and  C_15
    3  A    between atoms: C_15  and  C_28
    4  A    between atoms: C_23  and  C_24
    5  A    between atoms: C_24  and  C_26
                            x       y       z     vdW  Elec       q    Type
                         _______ _______ _______ _____ _____    ______ ____

>  <TORSDO>
F 5

$$$$
=
 OpenBabel11042422523D

 29 32  0  0  1  0  0  0  0  0999 V2000
  161.4700  209.7260  152.5070 C   0  0  0  0  0  2  0  0  0  0  0  0
  157.5990  213.8020  156.1300 S   0  0  0  0  0  0  0  0  0  0  0  0
  159.1380  211.0090  157.0140 S   0  0  0  0  0  0  0  0  0  0  0  0
  157.8740  212.4310  155.0240 C   0  0  0  0  0  0  0  0  0  0  0  0
  158.7860  209.9740  154.2370 S   0  0  0  0  0  0  0  0  0  0  0  0
  156.8210  213.9580  153.5280 C   0  0  0  0  0  2  0  0  0  0  0  0
  161.8990  211.0120  156.5650 C   0  0  0  0  0  3  0  0  0  0  0  0
  161.5950  210.1110  153.9460 C   0  0  0  0  0  0  0  0  0  0  0  0
  162.8540  210.4390  154.4630 C   0  0  0  0  0  3  0  0  0  0  0  0
  157.4150  212.6470  153.7020 N   0  0  0  0  0  2  0  0  0  0  0  0
  156.4080  214.4530  154.9110 C   0  0  0  0  0  2  0  0  0  0  0  0
  162.9790  210.8730  155.7490 N   0  0  0  0  0  0  0  0  0  0  0  0
  160.6320  210.6640  156.0980 C   0  0  0  0  0  0  0  0  0  0  0  0
  158.3750  211.2550  155.4140 C   0  0  0  0  0  0  0  0  0  0  0  0
  160.4780  210.2020  154.7910 C   0  0  0  0  0  0  0  0  0  0  0  0
  163.1980  206.7380  150.7930 C   0  0  0  0  0  2  0  0  0  0  0  0
  162.4460  205.6120  151.1610 O   0  0  0  0  0  0  0  0  0  0  0  0
  162.6570  205.4710  152.5370 C   0  0  0  0  0  2  0  0  0  0  0  0
  161.4610  206.0000  153.3360 C   0  0  1  0  0  3  0  0  0  0  0  0
  160.8420  207.2810  152.7670 C   0  0  0  0  0  2  0  0  0  0  0  0
  160.4800  205.0130  153.4230 O   0  0  0  0  0  1  0  0  0  0  0  0
  162.3440  208.0120  150.8420 C   0  0  2  0  0  3  0  0  0  0  0  0
  161.9020  208.2780  152.2920 C   0  0  1  0  0  3  0  0  0  0  0  0
  161.4340  208.7830  148.7410 O   0  0  0  0  0  1  0  0  0  0  0  0
  161.1830  207.9470  149.8320 C   0  0  1  0  0  3  0  0  0  0  0  0
  160.9850  206.5230  149.3290 C   0  0  0  0  0  2  0  0  0  0  0  0
  160.2300  206.4680  147.0700 O   0  0  0  0  0  0  0  0  0  0  0  0
  161.2110  206.4510  147.8580 C   0  0  0  0  0  0  0  0  0  0  0  0
  162.5040  206.3990  147.3560 O   0  0  0  0  0  1  0  0  0  0  0  0
  1  8  1  0  0  0  0
  4 14  2  0  0  0  0
  4  2  1  0  0  0  0
  5 15  1  0  0  0  0
  5 14  1  0  0  0  0
  6 10  1  0  0  0  0
  6 11  1  0  0  0  0
  8  9  2  0  0  0  0
  8 15  1  0  0  0  0
  9 12  1  0  0  0  0
 10  4  1  0  0  0  0
 11  2  1  0  0  0  0
 12  7  2  0  0  0  0
 13  7  1  0  0  0  0
 13  3  1  0  0  0  0
 14  3  1  0  0  0  0
 15 13  2  0  0  0  0
 16 22  1  0  0  0  0
 16 17  1  0  0  0  0
 17 18  1  0  0  0  0
 18 19  1  0  0  0  0
 19 21  1  6  0  0  0
 20 19  1  0  0  0  0
 22 25  1  6  0  0  0
 22 23  1  0  0  0  0
 23  1  1  6  0  0  0
 23 20  1  0  0  0  0
 25 24  1  6  0  0  0
 26 25  1  0  0  0  0
 27 28  2  0  0  0  0
 28 26  1  0  0  0  0
 29 28  1  0  0  0  0
M  END
>  <MODEL>
6

>  <REMARK>
 VINA RESULT:      -3.2      4.276      7.423
  Name = 
  5 active torsions:
  status: ('A' for Active; 'I' for Inactive)
    1  A    between atoms: C_4  and  C_23
    2  A    between atoms: C_10  and  C_15
    3  A    between atoms: C_15  and  C_28
    4  A    between atoms: C_23  and  C_24
    5  A    between atoms: C_24  and  C_26
                            x       y       z     vdW  Elec       q    Type
                         _______ _______ _______ _____ _____    ______ ____

>  <TORSDO>
F 5

$$$$
=
 OpenBabel11042422523D

 29 32  0  0  1  0  0  0  0  0999 V2000
  159.4320  211.1880  152.3880 C   0  0  0  0  0  2  0  0  0  0  0  0
  158.9280  214.0090  146.3450 S   0  0  0  0  0  0  0  0  0  0  0  0
  161.4640  214.0030  148.4710 S   0  0  0  0  0  0  0  0  0  0  0  0
  158.7340  213.9910  148.1170 C   0  0  0  0  0  0  0  0  0  0  0  0
  159.5240  213.9300  150.7370 S   0  0  0  0  0  0  0  0  0  0  0  0
  156.4480  213.8940  147.4550 C   0  0  0  0  0  2  0  0  0  0  0  0
  162.3240  211.4560  149.2460 C   0  0  0  0  0  3  0  0  0  0  0  0
  160.4750  211.3350  151.3270 C   0  0  0  0  0  0  0  0  0  0  0  0
  161.3070  210.2500  151.0260 C   0  0  0  0  0  3  0  0  0  0  0  0
  157.3880  213.9350  148.5560 N   0  0  0  0  0  2  0  0  0  0  0  0
  157.1620  214.4530  146.2290 C   0  0  0  0  0  2  0  0  0  0  0  0
  162.2080  210.3340  150.0070 N   0  0  0  0  0  0  0  0  0  0  0  0
  161.5360  212.5700  149.5360 C   0  0  0  0  0  0  0  0  0  0  0  0
  159.7510  214.1230  148.9750 C   0  0  0  0  0  0  0  0  0  0  0  0
  160.6170  212.5160  150.5830 C   0  0  0  0  0  0  0  0  0  0  0  0
  161.9980  210.7090  155.2230 C   0  0  0  0  0  2  0  0  0  0  0  0
  161.2680  210.8470  156.4130 O   0  0  0  0  0  0  0  0  0  0  0  0
  160.8730  212.1890  156.4420 C   0  0  0  0  0  2  0  0  0  0  0  0
  159.4060  212.3420  156.0260 C   0  0  1  0  0  3  0  0  0  0  0  0
  158.9800  211.4260  154.8740 C   0  0  0  0  0  2  0  0  0  0  0  0
  158.5790  212.1140  157.1260 O   0  0  0  0  0  1  0  0  0  0  0  0
  161.0940  210.2500  154.0710 C   0  0  2  0  0  3  0  0  0  0  0  0
  160.0450  211.3380  153.7770 C   0  0  1  0  0  3  0  0  0  0  0  0
  160.6170  208.0400  153.2220 O   0  0  0  0  0  1  0  0  0  0  0  0
  160.4970  208.8580  154.3480 C   0  0  1  0  0  3  0  0  0  0  0  0
  161.2040  208.1920  155.5210 C   0  0  0  0  0  2  0  0  0  0  0  0
  160.6670  206.6550  157.2610 O   0  0  0  0  0  1  0  0  0  0  0  0
  160.2780  207.2670  156.2330 C   0  0  0  0  0  0  0  0  0  0  0  0
  158.9750  207.1070  155.7820 O   0  0  0  0  0  0  0  0  0  0  0  0
  2  4  1  0  0  0  0
  3 14  1  0  0  0  0
  3 13  1  0  0  0  0
  4 10  1  0  0  0  0
  4 14  2  0  0  0  0
  6 10  1  0  0  0  0
  7 13  2  0  0  0  0
  7 12  1  0  0  0  0
  8  1  1  0  0  0  0
  9  8  1  0  0  0  0
 11  2  1  0  0  0  0
 11  6  1  0  0  0  0
 12  9  2  0  0  0  0
 13 15  1  0  0  0  0
 14  5  1  0  0  0  0
 15  5  1  0  0  0  0
 15  8  2  0  0  0  0
 16 17  1  0  0  0  0
 17 18  1  0  0  0  0
 19 18  1  0  0  0  0
 19 21  1  1  0  0  0
 20 19  1  0  0  0  0
 22 25  1  1  0  0  0
 22 16  1  0  0  0  0
 23  1  1  6  0  0  0
 23 22  1  0  0  0  0
 23 20  1  0  0  0  0
 25 24  1  6  0  0  0
 25 26  1  0  0  0  0
 26 28  1  0  0  0  0
 28 27  1  0  0  0  0
 29 28  2  0  0  0  0
M  END
>  <MODEL>
7

>  <REMARK>
 VINA RESULT:      -3.1      4.381      6.702
  Name = 
  5 active torsions:
  status: ('A' for Active; 'I' for Inactive)
    1  A    between atoms: C_4  and  C_23
    2  A    between atoms: C_10  and  C_15
    3  A    between atoms: C_15  and  C_28
    4  A    between atoms: C_23  and  C_24
    5  A    between atoms: C_24  and  C_26
                            x       y       z     vdW  Elec       q    Type
                         _______ _______ _______ _____ _____    ______ ____

>  <TORSDO>
F 5

$$$$
=
 OpenBabel11042422523D

 29 32  0  0  1  0  0  0  0  0999 V2000
  162.0410  208.8550  150.2500 C   0  0  0  0  0  2  0  0  0  0  0  0
  157.5730  213.4260  152.2180 S   0  0  0  0  0  0  0  0  0  0  0  0
  160.5760  213.8390  150.8900 S   0  0  0  0  0  0  0  0  0  0  0  0
  158.9370  212.3110  152.4890 C   0  0  0  0  0  0  0  0  0  0  0  0
  161.4740  211.3210  152.2140 S   0  0  0  0  0  0  0  0  0  0  0  0
  157.2390  211.1860  153.7230 C   0  0  0  0  0  2  0  0  0  0  0  0
  160.9410  212.5660  148.4260 C   0  0  0  0  0  3  0  0  0  0  0  0
  161.7180  210.1810  149.6390 C   0  0  0  0  0  0  0  0  0  0  0  0
  161.5820  210.2820  148.2490 C   0  0  0  0  0  3  0  0  0  0  0  0
  158.6230  211.1890  153.2950 N   0  0  0  0  0  2  0  0  0  0  0  0
  156.7300  212.6210  153.6210 C   0  0  0  0  0  2  0  0  0  0  0  0
  161.2060  211.4600  147.6780 N   0  0  0  0  0  0  0  0  0  0  0  0
  161.0990  212.5150  149.8110 C   0  0  0  0  0  0  0  0  0  0  0  0
  160.1830  212.5460  152.0630 C   0  0  0  0  0  0  0  0  0  0  0  0
  161.4970  211.3250  150.4200 C   0  0  0  0  0  0  0  0  0  0  0  0
  159.8910  205.8190  149.2430 C   0  0  0  0  0  2  0  0  0  0  0  0
  160.6760  205.0940  148.3340 O   0  0  0  0  0  0  0  0  0  0  0  0
  160.7760  205.9160  147.2050 C   0  0  0  0  0  2  0  0  0  0  0  0
  162.1340  206.6230  147.1550 C   0  0  1  0  0  3  0  0  0  0  0  0
  162.6450  207.1000  148.5190 C   0  0  0  0  0  2  0  0  0  0  0  0
  163.0820  205.7780  146.5780 O   0  0  0  0  0  1  0  0  0  0  0  0
  160.7690  206.6520  150.1860 C   0  0  2  0  0  3  0  0  0  0  0  0
  161.5330  207.7150  149.3740 C   0  0  1  0  0  3  0  0  0  0  0  0
  162.4170  206.5220  151.9480 O   0  0  0  0  0  1  0  0  0  0  0  0
  161.6720  205.7530  151.0510 C   0  0  1  0  0  3  0  0  0  0  0  0
  160.8380  204.7470  151.8350 C   0  0  0  0  0  2  0  0  0  0  0  0
  160.4990  202.8200  150.4740 O   0  0  0  0  0  0  0  0  0  0  0  0
  161.1560  203.3570  151.4040 C   0  0  0  0  0  0  0  0  0  0  0  0
  162.1980  202.6640  152.0050 O   0  0  0  0  0  1  0  0  0  0  0  0
  2  4  1  0  0  0  0
  2 11  1  0  0  0  0
  3 14  1  0  0  0  0
  4 10  1  0  0  0  0
  7 13  1  0  0  0  0
  8  1  1  0  0  0  0
  8 15  1  0  0  0  0
  9  8  2  0  0  0  0
 10  6  1  0  0  0  0
 11  6  1  0  0  0  0
 12  9  1  0  0  0  0
 12  7  2  0  0  0  0
 13 15  2  0  0  0  0
 13  3  1  0  0  0  0
 14  5  1  0  0  0  0
 14  4  2  0  0  0  0
 15  5  1  0  0  0  0
 16 22  1  0  0  0  0
 17 16  1  0  0  0  0
 18 17  1  0  0  0  0
 19 21  1  1  0  0  0
 19 18  1  0  0  0  0
 19 20  1  0  0  0  0
 20 23  1  0  0  0  0
 22 25  1  6  0  0  0
 23 22  1  0  0  0  0
 23  1  1  1  0  0  0
 25 26  1  0  0  0  0
 25 24  1  1  0  0  0
 27 28  2  0  0  0  0
 28 26  1  0  0  0  0
 28 29  1  0  0  0  0
M  END
>  <MODEL>
8

>  <REMARK>
 VINA RESULT:      -2.7      4.719      8.559
  Name = 
  5 active torsions:
  status: ('A' for Active; 'I' for Inactive)
    1  A    between atoms: C_4  and  C_23
    2  A    between atoms: C_10  and  C_15
    3  A    between atoms: C_15  and  C_28
    4  A    between atoms: C_23  and  C_24
    5  A    between atoms: C_24  and  C_26
                            x       y       z     vdW  Elec       q    Type
                         _______ _______ _______ _____ _____    ______ ____

>  <TORSDO>
F 5

$$$$
=
 OpenBabel11042422523D

 29 32  0  0  1  0  0  0  0  0999 V2000
  161.2150  205.4640  149.4130 C   0  0  0  0  0  2  0  0  0  0  0  0
  160.4600  209.8550  154.4010 S   0  0  0  0  0  0  0  0  0  0  0  0
  162.8080  209.6790  152.0770 S   0  0  0  0  0  0  0  0  0  0  0  0
  161.0460  208.3240  153.7000 C   0  0  0  0  0  0  0  0  0  0  0  0
  162.5230  206.7090  152.0580 S   0  0  0  0  0  0  0  0  0  0  0  0
  159.3610  207.4860  155.1610 C   0  0  0  0  0  2  0  0  0  0  0  0
  161.8460  209.6960  149.4500 C   0  0  0  0  0  3  0  0  0  0  0  0
  161.5060  206.9310  149.4300 C   0  0  0  0  0  0  0  0  0  0  0  0
  161.1180  207.7210  148.3420 C   0  0  0  0  0  3  0  0  0  0  0  0
  160.3890  207.1690  154.1900 N   0  0  0  0  0  2  0  0  0  0  0  0
  159.6810  208.8680  155.7230 C   0  0  0  0  0  2  0  0  0  0  0  0
  161.2990  209.0710  148.3720 N   0  0  0  0  0  0  0  0  0  0  0  0
  162.2770  208.9400  150.5400 C   0  0  0  0  0  0  0  0  0  0  0  0
  162.0830  208.2430  152.8610 C   0  0  0  0  0  0  0  0  0  0  0  0
  162.1180  207.5540  150.5280 C   0  0  0  0  0  0  0  0  0  0  0  0
  160.2530  203.3940  146.3070 C   0  0  0  0  0  2  0  0  0  0  0  0
  161.4620  203.1380  145.6430 O   0  0  0  0  0  0  0  0  0  0  0  0
  161.8950  204.3870  145.1830 C   0  0  0  0  0  2  0  0  0  0  0  0
  163.0020  204.9520  146.0790 C   0  0  1  0  0  3  0  0  0  0  0  0
  162.7890  204.7000  147.5760 C   0  0  0  0  0  2  0  0  0  0  0  0
  164.2340  204.4250  145.6930 O   0  0  0  0  0  1  0  0  0  0  0  0
  160.4870  203.6310  147.8050 C   0  0  2  0  0  3  0  0  0  0  0  0
  161.3320  204.9040  147.9990 C   0  0  1  0  0  3  0  0  0  0  0  0
  160.9310  202.4640  149.8740 O   0  0  0  0  0  1  0  0  0  0  0  0
  161.0700  202.3790  148.4860 C   0  0  1  0  0  3  0  0  0  0  0  0
  160.3660  201.1210  147.9940 C   0  0  0  0  0  2  0  0  0  0  0  0
  162.3700  199.8320  147.9520 O   0  0  0  0  0  1  0  0  0  0  0  0
  161.3370  200.2020  147.3360 C   0  0  0  0  0  0  0  0  0  0  0  0
  161.0860  199.7250  146.0570 O   0  0  0  0  0  0  0  0  0  0  0  0
  1  8  1  0  0  0  0
  2 11  1  0  0  0  0
  3 14  1  0  0  0  0
  4 10  1  0  0  0  0
  4  2  1  0  0  0  0
  5 14  1  0  0  0  0
  6 11  1  0  0  0  0
  7 13  1  0  0  0  0
  8 15  1  0  0  0  0
  9 12  1  0  0  0  0
  9  8  2  0  0  0  0
 10  6  1  0  0  0  0
 12  7  2  0  0  0  0
 13  3  1  0  0  0  0
 14  4  2  0  0  0  0
 15 13  2  0  0  0  0
 15  5  1  0  0  0  0
 16 22  1  0  0  0  0
 17 16  1  0  0  0  0
 18 17  1  0  0  0  0
 18 19  1  0  0  0  0
 19 21  1  6  0  0  0
 19 20  1  0  0  0  0
 20 23  1  0  0  0  0
 22 23  1  0  0  0  0
 22 25  1  6  0  0  0
 23  1  1  1  0  0  0
 25 24  1  1  0  0  0
 26 25  1  0  0  0  0
 28 27  1  0  0  0  0
 28 26  1  0  0  0  0
 29 28  2  0  0  0  0
M  END
>  <MODEL>
9

>  <REMARK>
 VINA RESULT:      -2.6      5.706      9.749
  Name = 
  5 active torsions:
  status: ('A' for Active; 'I' for Inactive)
    1  A    between atoms: C_4  and  C_23
    2  A    between atoms: C_10  and  C_15
    3  A    between atoms: C_15  and  C_28
    4  A    between atoms: C_23  and  C_24
    5  A    between atoms: C_24  and  C_26
                            x       y       z     vdW  Elec       q    Type
                         _______ _______ _______ _____ _____    ______ ____

>  <TORSDO>
F 5

$$$$
