=
 OpenBabel11042420433D

 27 32  0  0  1  0  0  0  0  0999 V2000
  160.8570  207.4740  150.9810 O   0  0  0  0  0  0  0  0  0  0  0  0
  161.2310  205.9120  152.8930 C   0  0  0  0  0  2  0  0  0  0  0  0
  162.5250  206.1620  152.1360 C   0  0  0  0  0  2  0  0  0  0  0  0
  161.2030  206.1790  151.3990 C   0  0  0  0  0  0  0  0  0  0  0  0
  161.3810  203.2660  145.9980 C   0  0  0  0  0  3  0  0  0  0  0  0
  161.0520  205.0430  150.4320 C   0  0  0  0  0  0  0  0  0  0  0  0
  160.8590  202.8840  148.6960 C   0  0  0  0  0  0  0  0  0  0  0  0
  161.0220  201.9950  146.4590 C   0  0  0  0  0  3  0  0  0  0  0  0
  160.7600  201.8050  147.8170 C   0  0  0  0  0  3  0  0  0  0  0  0
  161.4730  204.3100  146.8660 N   0  0  0  0  0  0  0  0  0  0  0  0
  160.6140  202.7220  150.0230 N   0  0  0  0  0  0  0  0  0  0  0  0
  161.3220  205.2280  149.0720 C   0  0  0  0  0  3  0  0  0  0  0  0
  161.2210  204.1490  148.1940 C   0  0  0  0  0  0  0  0  0  0  0  0
  160.7060  203.7640  150.8930 C   0  0  0  0  0  3  0  0  0  0  0  0
  162.3570  208.4020  149.5220 O   0  0  0  0  0  1  0  0  0  0  0  0
  162.0520  208.2010  150.8680 C   0  0  1  0  0  3  0  0  0  0  0  0
  161.9490  209.5390  151.6000 C   0  0  0  0  0  2  0  0  0  0  0  0
  160.0440  211.0020  152.3940 C   0  0  0  0  0  2  0  0  0  0  0  0
  158.6680  212.0870  154.4530 C   0  0  2  0  0  3  0  0  0  0  0  0
  161.1340  209.2570  153.9660 C   0  0  0  0  0  2  0  0  0  0  0  0
  158.9870  211.0010  153.4730 C   0  0  2  0  0  3  0  0  0  0  0  0
  160.7280  209.6160  152.5050 C   0  0  2  0  0  3  0  0  0  0  0  0
  159.9030  211.2340  154.6800 C   0  0  2  0  0  3  0  0  0  0  0  0
  160.1150  209.7700  155.0120 C   0  0  0  0  0  2  0  0  0  0  0  0
  157.8340  212.1430  156.7760 C   0  0  0  0  0  2  0  0  0  0  0  0
  157.5520  211.6390  155.3760 C   0  0  0  0  0  3  0  0  0  0  0  0
  156.8250  212.8590  155.9040 C   0  0  0  0  0  2  0  0  0  0  0  0
  1  4  1  0  0  0  0
  3  2  1  0  0  0  0
  4  3  1  0  0  0  0
  4  2  1  0  0  0  0
  5  8  2  0  0  0  0
  5 10  1  0  0  0  0
  6 14  1  0  0  0  0
  6  4  1  0  0  0  0
  7 11  1  0  0  0  0
  8  9  1  0  0  0  0
  9  7  2  0  0  0  0
 10 13  2  0  0  0  0
 11 14  2  0  0  0  0
 12  6  2  0  0  0  0
 13  7  1  0  0  0  0
 13 12  1  0  0  0  0
 16 15  1  6  0  0  0
 16  1  1  0  0  0  0
 16 17  1  0  0  0  0
 18 22  1  0  0  0  0
 19 23  1  0  0  0  0
 19 26  1  1  0  0  0
 20 24  1  0  0  0  0
 21 18  1  6  0  0  0
 21 19  1  0  0  0  0
 21 23  1  0  0  0  0
 22 17  1  6  0  0  0
 22 20  1  0  0  0  0
 23 24  1  1  0  0  0
 26 27  1  0  0  0  0
 26 25  1  0  0  0  0
 27 25  1  0  0  0  0
M  END
>  <MODEL>
1

>  <REMARK>
 VINA RESULT:      -8.3      0.000      0.000
  Name = 
  6 active torsions:
  status: ('A' for Active; 'I' for Inactive)
    1  A    between atoms: C_2  and  C_14
    2  A    between atoms: C_2  and  C_23
    3  A    between atoms: C_3  and  C_24
    4  A    between atoms: C_8  and  C_9
    5  A    between atoms: O_16  and  C_23
    6  A    between atoms: O_16  and  C_24
                            x       y       z     vdW  Elec       q    Type
                         _______ _______ _______ _____ _____    ______ ____

>  <TORSDO>
F 6

$$$$
=
 OpenBabel11042420433D

 27 32  0  0  1  0  0  0  0  0999 V2000
  160.7500  207.9580  151.3770 O   0  0  0  0  0  0  0  0  0  0  0  0
  160.9140  206.3310  153.2640 C   0  0  0  0  0  2  0  0  0  0  0  0
  162.2900  206.6520  152.7040 C   0  0  0  0  0  2  0  0  0  0  0  0
  161.0830  206.6580  151.7910 C   0  0  0  0  0  0  0  0  0  0  0  0
  160.9460  200.9070  149.6510 C   0  0  0  0  0  3  0  0  0  0  0  0
  161.1080  205.5590  150.7720 C   0  0  0  0  0  0  0  0  0  0  0  0
  161.0540  203.5590  148.8450 C   0  0  0  0  0  0  0  0  0  0  0  0
  160.9760  201.2130  148.2860 C   0  0  0  0  0  3  0  0  0  0  0  0
  161.0300  202.5490  147.8830 C   0  0  0  0  0  3  0  0  0  0  0  0
  160.9700  201.9020  150.5790 N   0  0  0  0  0  0  0  0  0  0  0  0
  161.1020  204.8670  148.4770 N   0  0  0  0  0  0  0  0  0  0  0  0
  161.0460  204.2190  151.1730 C   0  0  0  0  0  3  0  0  0  0  0  0
  161.0240  203.2100  150.2100 C   0  0  0  0  0  0  0  0  0  0  0  0
  161.1250  205.8630  149.4040 C   0  0  0  0  0  3  0  0  0  0  0  0
  162.2770  209.0860  150.0970 O   0  0  0  0  0  1  0  0  0  0  0  0
  161.9360  208.7090  151.3970 C   0  0  1  0  0  3  0  0  0  0  0  0
  161.7880  209.9400  152.2910 C   0  0  0  0  0  2  0  0  0  0  0  0
  159.7450  211.4240  152.4470 C   0  0  0  0  0  2  0  0  0  0  0  0
  157.9160  212.6800  153.9910 C   0  0  2  0  0  3  0  0  0  0  0  0
  160.4330  209.8850  154.4120 C   0  0  0  0  0  2  0  0  0  0  0  0
  158.4610  211.5060  153.2390 C   0  0  2  0  0  3  0  0  0  0  0  0
  160.3860  210.0770  152.8670 C   0  0  2  0  0  3  0  0  0  0  0  0
  159.0630  211.8900  154.5960 C   0  0  2  0  0  3  0  0  0  0  0  0
  159.1930  210.4760  155.1260 C   0  0  0  0  0  2  0  0  0  0  0  0
  156.3490  213.2580  155.8100 C   0  0  0  0  0  2  0  0  0  0  0  0
  156.6120  212.3000  154.6670 C   0  0  0  0  0  3  0  0  0  0  0  0
  155.6180  213.4300  154.4960 C   0  0  0  0  0  2  0  0  0  0  0  0
  1 16  1  0  0  0  0
  1  4  1  0  0  0  0
  3  2  1  0  0  0  0
  4  3  1  0  0  0  0
  4  2  1  0  0  0  0
  5 10  1  0  0  0  0
  6 12  2  0  0  0  0
  6  4  1  0  0  0  0
  7 13  1  0  0  0  0
  8  5  2  0  0  0  0
  9  8  1  0  0  0  0
  9  7  2  0  0  0  0
 11  7  1  0  0  0  0
 11 14  2  0  0  0  0
 13 10  2  0  0  0  0
 13 12  1  0  0  0  0
 14  6  1  0  0  0  0
 16 15  1  6  0  0  0
 16 17  1  0  0  0  0
 18 22  1  0  0  0  0
 19 23  1  0  0  0  0
 19 26  1  1  0  0  0
 20 24  1  0  0  0  0
 21 18  1  6  0  0  0
 21 19  1  0  0  0  0
 21 23  1  0  0  0  0
 22 17  1  1  0  0  0
 22 20  1  0  0  0  0
 23 24  1  1  0  0  0
 26 25  1  0  0  0  0
 27 26  1  0  0  0  0
 27 25  1  0  0  0  0
M  END
>  <MODEL>
2

>  <REMARK>
 VINA RESULT:      -8.1      1.030      1.814
  Name = 
  6 active torsions:
  status: ('A' for Active; 'I' for Inactive)
    1  A    between atoms: C_2  and  C_14
    2  A    between atoms: C_2  and  C_23
    3  A    between atoms: C_3  and  C_24
    4  A    between atoms: C_8  and  C_9
    5  A    between atoms: O_16  and  C_23
    6  A    between atoms: O_16  and  C_24
                            x       y       z     vdW  Elec       q    Type
                         _______ _______ _______ _____ _____    ______ ____

>  <TORSDO>
F 6

$$$$
=
 OpenBabel11042420433D

 27 32  0  0  1  0  0  0  0  0999 V2000
  160.8580  205.8060  151.4580 O   0  0  0  0  0  0  0  0  0  0  0  0
  160.4870  203.3690  151.8580 C   0  0  0  0  0  2  0  0  0  0  0  0
  161.9680  203.6720  151.6890 C   0  0  0  0  0  2  0  0  0  0  0  0
  160.9380  204.5000  150.9500 C   0  0  0  0  0  0  0  0  0  0  0  0
  160.8430  206.0710  145.0170 C   0  0  0  0  0  3  0  0  0  0  0  0
  160.9790  204.3030  149.4640 C   0  0  0  0  0  0  0  0  0  0  0  0
  161.1660  203.9070  146.7220 C   0  0  0  0  0  0  0  0  0  0  0  0
  161.0920  204.8030  144.4820 C   0  0  0  0  0  3  0  0  0  0  0  0
  161.2540  203.7150  145.3430 C   0  0  0  0  0  3  0  0  0  0  0  0
  160.7590  206.2450  146.3640 N   0  0  0  0  0  0  0  0  0  0  0  0
  161.3250  202.8640  147.5790 N   0  0  0  0  0  0  0  0  0  0  0  0
  160.8250  205.3930  148.6000 C   0  0  0  0  0  3  0  0  0  0  0  0
  160.9120  205.2000  147.2220 C   0  0  0  0  0  0  0  0  0  0  0  0
  161.2420  203.0350  148.9260 C   0  0  0  0  0  3  0  0  0  0  0  0
  162.7160  207.1080  151.1510 O   0  0  0  0  0  1  0  0  0  0  0  0
  162.1300  206.1300  151.9560 C   0  0  1  0  0  3  0  0  0  0  0  0
  162.0450  206.6080  153.4050 C   0  0  0  0  0  2  0  0  0  0  0  0
  161.2930  208.9880  152.9910 C   0  0  0  0  0  2  0  0  0  0  0  0
  160.3470  211.3170  153.9860 C   0  0  2  0  0  3  0  0  0  0  0  0
  160.5990  207.7210  155.1400 C   0  0  0  0  0  2  0  0  0  0  0  0
  160.2020  209.9280  153.4470 C   0  0  2  0  0  3  0  0  0  0  0  0
  160.9290  207.6190  153.6200 C   0  0  2  0  0  3  0  0  0  0  0  0
  160.6820  210.1420  154.8870 C   0  0  2  0  0  3  0  0  0  0  0  0
  159.8570  209.0300  155.5040 C   0  0  0  0  0  2  0  0  0  0  0  0
  159.1540  212.9550  155.3960 C   0  0  0  0  0  2  0  0  0  0  0  0
  158.9840  211.8750  154.3480 C   0  0  0  0  0  3  0  0  0  0  0  0
  158.9260  213.3370  153.9500 C   0  0  0  0  0  2  0  0  0  0  0  0
  1 16  1  0  0  0  0
  3  2  1  0  0  0  0
  4  1  1  0  0  0  0
  4  3  1  0  0  0  0
  4  2  1  0  0  0  0
  5 10  1  0  0  0  0
  6  4  1  0  0  0  0
  7 13  1  0  0  0  0
  7 11  1  0  0  0  0
  8  5  2  0  0  0  0
  8  9  1  0  0  0  0
  9  7  2  0  0  0  0
 10 13  2  0  0  0  0
 11 14  2  0  0  0  0
 12  6  2  0  0  0  0
 13 12  1  0  0  0  0
 14  6  1  0  0  0  0
 16 15  1  6  0  0  0
 16 17  1  0  0  0  0
 18 22  1  0  0  0  0
 19 26  1  1  0  0  0
 19 23  1  0  0  0  0
 20 24  1  0  0  0  0
 21 18  1  6  0  0  0
 21 19  1  0  0  0  0
 21 23  1  0  0  0  0
 22 17  1  1  0  0  0
 22 20  1  0  0  0  0
 23 24  1  1  0  0  0
 26 25  1  0  0  0  0
 27 26  1  0  0  0  0
 27 25  1  0  0  0  0
M  END
>  <MODEL>
3

>  <REMARK>
 VINA RESULT:      -7.8      1.475      2.266
  Name = 
  6 active torsions:
  status: ('A' for Active; 'I' for Inactive)
    1  A    between atoms: C_2  and  C_14
    2  A    between atoms: C_2  and  C_23
    3  A    between atoms: C_3  and  C_24
    4  A    between atoms: C_8  and  C_9
    5  A    between atoms: O_16  and  C_23
    6  A    between atoms: O_16  and  C_24
                            x       y       z     vdW  Elec       q    Type
                         _______ _______ _______ _____ _____    ______ ____

>  <TORSDO>
F 6

$$$$
=
 OpenBabel11042420433D

 27 32  0  0  1  0  0  0  0  0999 V2000
  161.9740  206.7940  153.6220 O   0  0  0  0  0  0  0  0  0  0  0  0
  162.0960  207.8680  151.3700 C   0  0  0  0  0  2  0  0  0  0  0  0
  160.6570  207.7820  151.8530 C   0  0  0  0  0  2  0  0  0  0  0  0
  161.6550  206.7170  152.2570 C   0  0  0  0  0  0  0  0  0  0  0  0
  161.0270  202.4850  147.8550 C   0  0  0  0  0  3  0  0  0  0  0  0
  161.3590  205.3740  151.6580 C   0  0  0  0  0  0  0  0  0  0  0  0
  160.9050  202.8460  150.6030 C   0  0  0  0  0  0  0  0  0  0  0  0
  160.7350  201.3950  148.6820 C   0  0  0  0  0  3  0  0  0  0  0  0
  160.6750  201.5790  150.0650 C   0  0  0  0  0  3  0  0  0  0  0  0
  161.2500  203.7150  148.3930 N   0  0  0  0  0  0  0  0  0  0  0  0
  160.8560  203.0480  151.9460 N   0  0  0  0  0  0  0  0  0  0  0  0
  161.4270  205.1850  150.2730 C   0  0  0  0  0  3  0  0  0  0  0  0
  161.1950  203.9190  149.7360 C   0  0  0  0  0  0  0  0  0  0  0  0
  161.0790  204.2770  152.4850 C   0  0  0  0  0  3  0  0  0  0  0  0
  160.0420  206.6750  154.8440 O   0  0  0  0  0  1  0  0  0  0  0  0
  160.9560  207.5380  154.2390 C   0  0  1  0  0  3  0  0  0  0  0  0
  161.5350  208.5120  155.2650 C   0  0  0  0  0  2  0  0  0  0  0  0
  159.4330  209.9150  155.3720 C   0  0  0  0  0  2  0  0  0  0  0  0
  157.7950  211.7140  154.1930 C   0  0  2  0  0  3  0  0  0  0  0  0
  161.3510  210.5030  153.7350 C   0  0  0  0  0  2  0  0  0  0  0  0
  158.9830  211.3120  155.0110 C   0  0  2  0  0  3  0  0  0  0  0  0
  160.9630  209.9150  155.1250 C   0  0  2  0  0  3  0  0  0  0  0  0
  159.0220  211.1690  153.4850 C   0  0  2  0  0  3  0  0  0  0  0  0
  160.4380  211.6780  153.3070 C   0  0  0  0  0  2  0  0  0  0  0  0
  157.3650  213.5840  152.6390 C   0  0  0  0  0  2  0  0  0  0  0  0
  157.7480  213.2240  154.0600 C   0  0  0  0  0  3  0  0  0  0  0  0
  156.3290  213.6500  153.7400 C   0  0  0  0  0  2  0  0  0  0  0  0
  1 16  1  0  0  0  0
  2  3  1  0  0  0  0
  2  4  1  0  0  0  0
  3  4  1  0  0  0  0
  4  1  1  0  0  0  0
  5 10  2  0  0  0  0
  5  8  1  0  0  0  0
  6  4  1  0  0  0  0
  6 14  1  0  0  0  0
  7 11  1  0  0  0  0
  8  9  2  0  0  0  0
  9  7  1  0  0  0  0
 10 13  1  0  0  0  0
 11 14  2  0  0  0  0
 12  6  2  0  0  0  0
 13 12  1  0  0  0  0
 13  7  2  0  0  0  0
 16 15  1  1  0  0  0
 16 17  1  0  0  0  0
 19 26  1  6  0  0  0
 19 21  1  0  0  0  0
 20 22  1  0  0  0  0
 21 18  1  1  0  0  0
 22 17  1  6  0  0  0
 22 18  1  0  0  0  0
 23 24  1  6  0  0  0
 23 19  1  0  0  0  0
 23 21  1  0  0  0  0
 24 20  1  0  0  0  0
 25 27  1  0  0  0  0
 25 26  1  0  0  0  0
 27 26  1  0  0  0  0
M  END
>  <MODEL>
4

>  <REMARK>
 VINA RESULT:      -7.8      1.660      2.592
  Name = 
  6 active torsions:
  status: ('A' for Active; 'I' for Inactive)
    1  A    between atoms: C_2  and  C_14
    2  A    between atoms: C_2  and  C_23
    3  A    between atoms: C_3  and  C_24
    4  A    between atoms: C_8  and  C_9
    5  A    between atoms: O_16  and  C_23
    6  A    between atoms: O_16  and  C_24
                            x       y       z     vdW  Elec       q    Type
                         _______ _______ _______ _____ _____    ______ ____

>  <TORSDO>
F 6

$$$$
=
 OpenBabel11042420433D

 27 32  0  0  1  0  0  0  0  0999 V2000
  162.2510  205.3780  151.8050 O   0  0  0  0  0  0  0  0  0  0  0  0
  160.2860  203.8430  151.6730 C   0  0  0  0  0  2  0  0  0  0  0  0
  161.5460  203.1560  151.1710 C   0  0  0  0  0  2  0  0  0  0  0  0
  161.3750  204.6490  150.9860 C   0  0  0  0  0  0  0  0  0  0  0  0
  161.2370  203.9620  144.8880 C   0  0  0  0  0  3  0  0  0  0  0  0
  161.2230  205.0520  149.5500 C   0  0  0  0  0  0  0  0  0  0  0  0
  160.8290  205.8180  146.9100 C   0  0  0  0  0  0  0  0  0  0  0  0
  160.8420  205.2640  144.5610 C   0  0  0  0  0  3  0  0  0  0  0  0
  160.6380  206.1960  145.5800 C   0  0  0  0  0  3  0  0  0  0  0  0
  161.4200  203.6070  146.1880 N   0  0  0  0  0  0  0  0  0  0  0  0
  160.6320  206.7060  147.9190 N   0  0  0  0  0  0  0  0  0  0  0  0
  161.4190  204.1180  148.5270 C   0  0  0  0  0  3  0  0  0  0  0  0
  161.2290  204.4980  147.1980 C   0  0  0  0  0  0  0  0  0  0  0  0
  160.8140  206.3520  149.2200 C   0  0  0  0  0  3  0  0  0  0  0  0
  161.5850  205.7050  153.9710 O   0  0  0  0  0  1  0  0  0  0  0  0
  161.4570  206.1610  152.6590 C   0  0  1  0  0  3  0  0  0  0  0  0
  161.8440  207.6370  152.5640 C   0  0  0  0  0  2  0  0  0  0  0  0
  160.6830  209.8370  152.1080 C   0  0  0  0  0  2  0  0  0  0  0  0
  159.7660  212.2020  153.0450 C   0  0  2  0  0  3  0  0  0  0  0  0
  160.8430  208.8830  154.5100 C   0  0  0  0  0  2  0  0  0  0  0  0
  159.6590  210.7360  152.7620 C   0  0  2  0  0  3  0  0  0  0  0  0
  160.7150  208.5640  152.9900 C   0  0  2  0  0  3  0  0  0  0  0  0
  160.5120  211.2270  153.9370 C   0  0  2  0  0  3  0  0  0  0  0  0
  160.0710  210.1610  154.9190 C   0  0  0  0  0  2  0  0  0  0  0  0
  158.9000  213.5970  154.8900 C   0  0  0  0  0  2  0  0  0  0  0  0
  158.5100  212.6860  153.7440 C   0  0  0  0  0  3  0  0  0  0  0  0
  158.4040  214.1890  153.5890 C   0  0  0  0  0  2  0  0  0  0  0  0
  1 16  1  0  0  0  0
  3  2  1  0  0  0  0
  4  3  1  0  0  0  0
  4  2  1  0  0  0  0
  4  1  1  0  0  0  0
  5 10  1  0  0  0  0
  6  4  1  0  0  0  0
  7 13  1  0  0  0  0
  7 11  1  0  0  0  0
  8  5  2  0  0  0  0
  8  9  1  0  0  0  0
  9  7  2  0  0  0  0
 10 13  2  0  0  0  0
 11 14  2  0  0  0  0
 12  6  2  0  0  0  0
 13 12  1  0  0  0  0
 14  6  1  0  0  0  0
 16 15  1  1  0  0  0
 17 16  1  0  0  0  0
 18 22  1  0  0  0  0
 19 26  1  1  0  0  0
 19 23  1  0  0  0  0
 20 24  1  0  0  0  0
 21 18  1  6  0  0  0
 21 19  1  0  0  0  0
 21 23  1  0  0  0  0
 22 17  1  6  0  0  0
 22 20  1  0  0  0  0
 23 24  1  1  0  0  0
 26 25  1  0  0  0  0
 27 26  1  0  0  0  0
 27 25  1  0  0  0  0
M  END
>  <MODEL>
5

>  <REMARK>
 VINA RESULT:      -7.6      1.789      2.608
  Name = 
  6 active torsions:
  status: ('A' for Active; 'I' for Inactive)
    1  A    between atoms: C_2  and  C_14
    2  A    between atoms: C_2  and  C_23
    3  A    between atoms: C_3  and  C_24
    4  A    between atoms: C_8  and  C_9
    5  A    between atoms: O_16  and  C_23
    6  A    between atoms: O_16  and  C_24
                            x       y       z     vdW  Elec       q    Type
                         _______ _______ _______ _____ _____    ______ ____

>  <TORSDO>
F 6

$$$$
=
 OpenBabel11042420433D

 27 32  0  0  1  0  0  0  0  0999 V2000
  160.8800  207.7070  148.9150 O   0  0  0  0  0  0  0  0  0  0  0  0
  162.0060  206.7850  146.8860 C   0  0  0  0  0  2  0  0  0  0  0  0
  160.4940  206.6930  146.7560 C   0  0  0  0  0  2  0  0  0  0  0  0
  161.1440  206.5810  148.1190 C   0  0  0  0  0  0  0  0  0  0  0  0
  161.2060  200.4480  148.3590 C   0  0  0  0  0  3  0  0  0  0  0  0
  161.0070  205.2180  148.7270 C   0  0  0  0  0  0  0  0  0  0  0  0
  160.8460  202.7140  149.9180 C   0  0  0  0  0  0  0  0  0  0  0  0
  160.9440  200.3110  149.7270 C   0  0  0  0  0  3  0  0  0  0  0  0
  160.7630  201.4530  150.5090 C   0  0  0  0  0  3  0  0  0  0  0  0
  161.2850  201.6840  147.7960 N   0  0  0  0  0  0  0  0  0  0  0  0
  160.6790  203.8400  150.6610 N   0  0  0  0  0  0  0  0  0  0  0  0
  161.1960  204.0710  147.9470 C   0  0  0  0  0  3  0  0  0  0  0  0
  161.1110  202.8110  148.5380 C   0  0  0  0  0  0  0  0  0  0  0  0
  160.7570  205.0770  150.0990 C   0  0  0  0  0  3  0  0  0  0  0  0
  161.9530  209.7200  148.7240 O   0  0  0  0  0  1  0  0  0  0  0  0
  162.1000  208.3810  149.0880 C   0  0  1  0  0  3  0  0  0  0  0  0
  162.5870  208.2670  150.5320 C   0  0  0  0  0  2  0  0  0  0  0  0
  161.4720  209.9330  152.0740 C   0  0  0  0  0  2  0  0  0  0  0  0
  160.5860  210.5510  154.5530 C   0  0  2  0  0  3  0  0  0  0  0  0
  161.5840  207.4180  152.6800 C   0  0  0  0  0  2  0  0  0  0  0  0
  160.4560  209.9390  153.1930 C   0  0  2  0  0  3  0  0  0  0  0  0
  161.4690  208.4770  151.5430 C   0  0  2  0  0  3  0  0  0  0  0  0
  161.3030  209.2450  154.2650 C   0  0  2  0  0  3  0  0  0  0  0  0
  160.8300  207.8370  153.9650 C   0  0  0  0  0  2  0  0  0  0  0  0
  159.7060  210.1090  156.8170 C   0  0  0  0  0  2  0  0  0  0  0  0
  159.3300  210.2850  155.3600 C   0  0  0  0  0  3  0  0  0  0  0  0
  159.1220  211.4210  156.3420 C   0  0  0  0  0  2  0  0  0  0  0  0
  1 16  1  0  0  0  0
  2  4  1  0  0  0  0
  3  2  1  0  0  0  0
  3  4  1  0  0  0  0
  4  6  1  0  0  0  0
  4  1  1  0  0  0  0
  5  8  1  0  0  0  0
  6 14  1  0  0  0  0
  7  9  1  0  0  0  0
  7 11  1  0  0  0  0
  8  9  2  0  0  0  0
 10  5  2  0  0  0  0
 10 13  1  0  0  0  0
 12 13  1  0  0  0  0
 12  6  2  0  0  0  0
 13  7  2  0  0  0  0
 14 11  2  0  0  0  0
 16 15  1  1  0  0  0
 16 17  1  0  0  0  0
 19 26  1  1  0  0  0
 20 24  1  0  0  0  0
 21 18  1  6  0  0  0
 21 23  1  0  0  0  0
 21 19  1  0  0  0  0
 22 17  1  6  0  0  0
 22 18  1  0  0  0  0
 22 20  1  0  0  0  0
 23 24  1  1  0  0  0
 23 19  1  0  0  0  0
 26 27  1  0  0  0  0
 26 25  1  0  0  0  0
 27 25  1  0  0  0  0
M  END
>  <MODEL>
6

>  <REMARK>
 VINA RESULT:      -7.6      1.567      2.739
  Name = 
  6 active torsions:
  status: ('A' for Active; 'I' for Inactive)
    1  A    between atoms: C_2  and  C_14
    2  A    between atoms: C_2  and  C_23
    3  A    between atoms: C_3  and  C_24
    4  A    between atoms: C_8  and  C_9
    5  A    between atoms: O_16  and  C_23
    6  A    between atoms: O_16  and  C_24
                            x       y       z     vdW  Elec       q    Type
                         _______ _______ _______ _____ _____    ______ ____

>  <TORSDO>
F 6

$$$$
=
 OpenBabel11042420433D

 27 32  0  0  1  0  0  0  0  0999 V2000
  160.1670  209.1500  155.1980 O   0  0  0  0  0  0  0  0  0  0  0  0
  162.1060  210.3180  154.1410 C   0  0  0  0  0  2  0  0  0  0  0  0
  161.6910  211.0100  155.4290 C   0  0  0  0  0  2  0  0  0  0  0  0
  160.6510  210.3130  154.5780 C   0  0  0  0  0  0  0  0  0  0  0  0
  155.4180  213.4550  153.9330 C   0  0  0  0  0  3  0  0  0  0  0  0
  159.6720  211.2590  153.9510 C   0  0  0  0  0  0  0  0  0  0  0  0
  157.9300  213.0980  152.8120 C   0  0  0  0  0  0  0  0  0  0  0  0
  155.7830  214.1990  152.8060 C   0  0  0  0  0  3  0  0  0  0  0  0
  157.0480  214.0180  152.2440 C   0  0  0  0  0  3  0  0  0  0  0  0
  156.2880  212.5620  154.4780 N   0  0  0  0  0  0  0  0  0  0  0  0
  159.1680  212.9080  152.2850 N   0  0  0  0  0  0  0  0  0  0  0  0
  158.4070  211.4490  154.5160 C   0  0  0  0  0  3  0  0  0  0  0  0
  157.5250  212.3670  153.9470 C   0  0  0  0  0  0  0  0  0  0  0  0
  160.0400  212.0160  152.8280 C   0  0  0  0  0  3  0  0  0  0  0  0
  161.6600  207.8850  156.3860 O   0  0  0  0  0  1  0  0  0  0  0  0
  161.1840  208.1860  155.1090 C   0  0  1  0  0  3  0  0  0  0  0  0
  160.6800  206.9220  154.4120 C   0  0  0  0  0  2  0  0  0  0  0  0
  160.8060  207.5380  151.9620 C   0  0  0  0  0  2  0  0  0  0  0  0
  160.8220  206.7420  149.3780 C   0  0  2  0  0  3  0  0  0  0  0  0
  161.3440  205.1370  152.7660 C   0  0  0  0  0  2  0  0  0  0  0  0
  161.4640  207.0350  150.6990 C   0  0  2  0  0  3  0  0  0  0  0  0
  161.3940  206.6590  153.0940 C   0  0  2  0  0  3  0  0  0  0  0  0
  160.6430  205.7540  150.5170 C   0  0  2  0  0  3  0  0  0  0  0  0
  161.5920  204.8410  151.2670 C   0  0  0  0  0  2  0  0  0  0  0  0
  161.3200  204.9930  147.7080 C   0  0  0  0  0  2  0  0  0  0  0  0
  161.8610  206.2260  148.4020 C   0  0  0  0  0  3  0  0  0  0  0  0
  161.3120  206.3270  146.9940 C   0  0  0  0  0  2  0  0  0  0  0  0
  2  4  1  0  0  0  0
  2  3  1  0  0  0  0
  4  1  1  0  0  0  0
  4  3  1  0  0  0  0
  5 10  1  0  0  0  0
  6 12  2  0  0  0  0
  6  4  1  0  0  0  0
  7 13  1  0  0  0  0
  8  5  2  0  0  0  0
  9  8  1  0  0  0  0
  9  7  2  0  0  0  0
 11  7  1  0  0  0  0
 11 14  2  0  0  0  0
 13 10  2  0  0  0  0
 13 12  1  0  0  0  0
 14  6  1  0  0  0  0
 16  1  1  0  0  0  0
 16 15  1  1  0  0  0
 17 16  1  0  0  0  0
 18 22  1  0  0  0  0
 19 26  1  6  0  0  0
 19 23  1  0  0  0  0
 19 21  1  0  0  0  0
 20 22  1  0  0  0  0
 21 18  1  1  0  0  0
 22 17  1  1  0  0  0
 23 21  1  0  0  0  0
 23 24  1  6  0  0  0
 24 20  1  0  0  0  0
 25 26  1  0  0  0  0
 27 25  1  0  0  0  0
 27 26  1  0  0  0  0
M  END
>  <MODEL>
7

>  <REMARK>
 VINA RESULT:      -7.5      3.669      8.823
  Name = 
  6 active torsions:
  status: ('A' for Active; 'I' for Inactive)
    1  A    between atoms: C_2  and  C_14
    2  A    between atoms: C_2  and  C_23
    3  A    between atoms: C_3  and  C_24
    4  A    between atoms: C_8  and  C_9
    5  A    between atoms: O_16  and  C_23
    6  A    between atoms: O_16  and  C_24
                            x       y       z     vdW  Elec       q    Type
                         _______ _______ _______ _____ _____    ______ ____

>  <TORSDO>
F 6

$$$$
=
 OpenBabel11042420433D

 27 32  0  0  1  0  0  0  0  0999 V2000
  160.9050  207.1970  148.3900 O   0  0  0  0  0  0  0  0  0  0  0  0
  161.9550  206.7960  146.1590 C   0  0  0  0  0  2  0  0  0  0  0  0
  160.4510  206.5770  146.0990 C   0  0  0  0  0  2  0  0  0  0  0  0
  161.2080  206.2750  147.3750 C   0  0  0  0  0  0  0  0  0  0  0  0
  160.8100  201.2510  150.8790 C   0  0  0  0  0  3  0  0  0  0  0  0
  161.2400  204.8140  147.7100 C   0  0  0  0  0  0  0  0  0  0  0  0
  161.2050  202.0930  148.2660 C   0  0  0  0  0  0  0  0  0  0  0  0
  160.9910  200.3020  149.8680 C   0  0  0  0  0  3  0  0  0  0  0  0
  161.1900  200.7280  148.5530 C   0  0  0  0  0  3  0  0  0  0  0  0
  160.8270  202.5790  150.5850 N   0  0  0  0  0  0  0  0  0  0  0  0
  161.3910  202.5320  146.9930 N   0  0  0  0  0  0  0  0  0  0  0  0
  161.0330  204.3840  149.0250 C   0  0  0  0  0  3  0  0  0  0  0  0
  161.0200  203.0190  149.3120 C   0  0  0  0  0  0  0  0  0  0  0  0
  161.4080  203.8600  146.6960 C   0  0  0  0  0  3  0  0  0  0  0  0
  161.7850  209.2970  148.6220 O   0  0  0  0  0  1  0  0  0  0  0  0
  162.0750  207.9330  148.6370 C   0  0  1  0  0  3  0  0  0  0  0  0
  162.7020  207.5320  149.9720 C   0  0  0  0  0  2  0  0  0  0  0  0
  161.7620  208.5420  152.0920 C   0  0  0  0  0  2  0  0  0  0  0  0
  161.0790  208.2360  154.6900 C   0  0  2  0  0  3  0  0  0  0  0  0
  161.8250  205.9760  151.7470 C   0  0  0  0  0  2  0  0  0  0  0  0
  160.8300  208.1540  153.2160 C   0  0  2  0  0  3  0  0  0  0  0  0
  161.6680  207.3750  151.0770 C   0  0  2  0  0  3  0  0  0  0  0  0
  161.7250  207.1140  153.8980 C   0  0  2  0  0  3  0  0  0  0  0  0
  161.1810  205.9120  153.1530 C   0  0  0  0  0  2  0  0  0  0  0  0
  160.3510  206.9580  156.6740 C   0  0  0  0  0  2  0  0  0  0  0  0
  159.8750  207.7090  155.4470 C   0  0  0  0  0  3  0  0  0  0  0  0
  159.8190  208.3680  156.8110 C   0  0  0  0  0  2  0  0  0  0  0  0
  1 16  1  0  0  0  0
  2  4  1  0  0  0  0
  3  2  1  0  0  0  0
  3  4  1  0  0  0  0
  4  6  1  0  0  0  0
  4  1  1  0  0  0  0
  6 12  2  0  0  0  0
  7  9  2  0  0  0  0
  7 13  1  0  0  0  0
  8  5  2  0  0  0  0
  9  8  1  0  0  0  0
 10  5  1  0  0  0  0
 11  7  1  0  0  0  0
 12 13  1  0  0  0  0
 13 10  2  0  0  0  0
 14 11  2  0  0  0  0
 14  6  1  0  0  0  0
 16 15  1  1  0  0  0
 16 17  1  0  0  0  0
 19 26  1  1  0  0  0
 20 24  1  0  0  0  0
 21 18  1  6  0  0  0
 21 23  1  0  0  0  0
 21 19  1  0  0  0  0
 22 17  1  6  0  0  0
 22 20  1  0  0  0  0
 22 18  1  0  0  0  0
 23 24  1  1  0  0  0
 23 19  1  0  0  0  0
 25 27  1  0  0  0  0
 26 25  1  0  0  0  0
 26 27  1  0  0  0  0
M  END
>  <MODEL>
8

>  <REMARK>
 VINA RESULT:      -7.5      2.380      3.926
  Name = 
  6 active torsions:
  status: ('A' for Active; 'I' for Inactive)
    1  A    between atoms: C_2  and  C_14
    2  A    between atoms: C_2  and  C_23
    3  A    between atoms: C_3  and  C_24
    4  A    between atoms: C_8  and  C_9
    5  A    between atoms: O_16  and  C_23
    6  A    between atoms: O_16  and  C_24
                            x       y       z     vdW  Elec       q    Type
                         _______ _______ _______ _____ _____    ______ ____

>  <TORSDO>
F 6

$$$$
=
 OpenBabel11042420433D

 27 32  0  0  1  0  0  0  0  0999 V2000
  161.6890  209.3260  154.0070 O   0  0  0  0  0  0  0  0  0  0  0  0
  161.4000  208.3100  156.2700 C   0  0  0  0  0  2  0  0  0  0  0  0
  160.2180  207.9820  155.3730 C   0  0  0  0  0  2  0  0  0  0  0  0
  160.9540  209.2930  155.2020 C   0  0  0  0  0  0  0  0  0  0  0  0
  155.8730  212.5070  156.4430 C   0  0  0  0  0  3  0  0  0  0  0  0
  160.1260  210.4870  155.5750 C   0  0  0  0  0  0  0  0  0  0  0  0
  158.6400  212.6940  156.3720 C   0  0  0  0  0  0  0  0  0  0  0  0
  156.4930  213.7080  156.8040 C   0  0  0  0  0  3  0  0  0  0  0  0
  157.8860  213.7990  156.7670 C   0  0  0  0  0  3  0  0  0  0  0  0
  156.6200  211.4360  156.0590 N   0  0  0  0  0  0  0  0  0  0  0  0
  159.9970  212.7570  156.3330 N   0  0  0  0  0  0  0  0  0  0  0  0
  158.7300  210.3960  155.6210 C   0  0  0  0  0  3  0  0  0  0  0  0
  157.9780  211.5020  156.0140 C   0  0  0  0  0  0  0  0  0  0  0  0
  160.7460  211.6880  155.9500 C   0  0  0  0  0  3  0  0  0  0  0  0
  160.1840  209.7230  152.3280 O   0  0  0  0  0  1  0  0  0  0  0  0
  160.8870  208.7350  153.0170 C   0  0  1  0  0  3  0  0  0  0  0  0
  161.7340  207.9060  152.0520 C   0  0  0  0  0  2  0  0  0  0  0  0
  161.4800  205.3950  151.8810 C   0  0  0  0  0  2  0  0  0  0  0  0
  161.3140  203.1910  150.3240 C   0  0  2  0  0  3  0  0  0  0  0  0
  160.9620  206.9310  149.8620 C   0  0  0  0  0  2  0  0  0  0  0  0
  160.7480  204.3840  151.0290 C   0  0  2  0  0  3  0  0  0  0  0  0
  160.9460  206.7720  151.4120 C   0  0  2  0  0  3  0  0  0  0  0  0
  161.5450  204.5700  149.7330 C   0  0  2  0  0  3  0  0  0  0  0  0
  160.6290  205.6120  149.1230 C   0  0  0  0  0  2  0  0  0  0  0  0
  160.7820  201.9560  148.2540 C   0  0  0  0  0  2  0  0  0  0  0  0
  160.2170  202.4760  149.5590 C   0  0  0  0  0  3  0  0  0  0  0  0
  160.5830  201.0120  149.4190 C   0  0  0  0  0  2  0  0  0  0  0  0
  1  4  1  0  0  0  0
  3  2  1  0  0  0  0
  4  3  1  0  0  0  0
  4  6  1  0  0  0  0
  4  2  1  0  0  0  0
  5  8  1  0  0  0  0
  6 12  2  0  0  0  0
  6 14  1  0  0  0  0
  7  9  1  0  0  0  0
  9  8  2  0  0  0  0
 10  5  2  0  0  0  0
 11  7  1  0  0  0  0
 12 13  1  0  0  0  0
 13 10  1  0  0  0  0
 13  7  2  0  0  0  0
 14 11  2  0  0  0  0
 16 15  1  6  0  0  0
 16  1  1  0  0  0  0
 17 16  1  0  0  0  0
 19 26  1  6  0  0  0
 19 21  1  0  0  0  0
 20 22  1  0  0  0  0
 21 18  1  1  0  0  0
 22 18  1  0  0  0  0
 22 17  1  1  0  0  0
 23 24  1  6  0  0  0
 23 19  1  0  0  0  0
 23 21  1  0  0  0  0
 24 20  1  0  0  0  0
 25 27  1  0  0  0  0
 25 26  1  0  0  0  0
 27 26  1  0  0  0  0
M  END
>  <MODEL>
9

>  <REMARK>
 VINA RESULT:      -7.5      3.627      9.580
  Name = 
  6 active torsions:
  status: ('A' for Active; 'I' for Inactive)
    1  A    between atoms: C_2  and  C_14
    2  A    between atoms: C_2  and  C_23
    3  A    between atoms: C_3  and  C_24
    4  A    between atoms: C_8  and  C_9
    5  A    between atoms: O_16  and  C_23
    6  A    between atoms: O_16  and  C_24
                            x       y       z     vdW  Elec       q    Type
                         _______ _______ _______ _____ _____    ______ ____

>  <TORSDO>
F 6

$$$$
