=
 OpenBabel11052409363D

 44 50  0  0  1  0  0  0  0  0999 V2000
  161.3280  210.8330  150.8900 C   0  0  2  0  0  3  0  0  0  0  0  0
  160.8740  210.9130  152.1680 C   0  0  0  0  0  0  0  0  0  0  0  0
  161.9270  209.6340  150.3460 N   0  0  2  0  0  0  0  0  0  0  0  0
  161.4030  211.7200  148.5280 C   0  0  0  0  0  0  0  0  0  0  0  0
  160.0860  209.8540  156.5420 N   0  0  0  0  0  0  0  0  0  0  0  0
  161.3200  212.0780  150.0070 C   0  0  1  0  0  3  0  0  0  0  0  0
  159.9240  211.1360  154.7850 C   0  0  0  0  0  0  0  0  0  0  0  0
  160.7170  209.2350  155.5950 C   0  0  0  0  0  0  0  0  0  0  0  0
  162.0340  210.6400  148.1720 N   0  0  0  0  0  0  0  0  0  0  0  0
  162.7190  209.7700  149.1250 C   0  0  0  0  0  2  0  0  0  0  0  0
  159.6180  212.1580  153.8950 C   0  0  0  0  0  3  0  0  0  0  0  0
  160.1030  212.0480  152.5790 C   0  0  0  0  0  0  0  0  0  0  0  0
  159.6940  213.0550  151.5910 C   0  0  0  0  0  3  0  0  0  0  0  0
  160.6520  210.0480  154.4010 C   0  0  0  0  0  0  0  0  0  0  0  0
  159.5710  211.0580  156.0260 N   0  0  0  0  0  0  0  0  0  0  0  0
  160.9170  212.5740  147.4830 N   0  0  0  0  0  2  0  0  0  0  0  0
  161.1440  209.8940  153.1120 C   0  0  0  0  0  2  0  0  0  0  0  0
  160.2170  213.0380  150.3690 C   0  0  0  0  0  3  0  0  0  0  0  0
  162.6380  207.4560  151.2760 C   0  0  2  0  0  3  0  0  0  0  0  0
  162.4980  205.9280  151.1830 C   0  0  1  0  0  3  0  0  0  0  0  0
  162.1480  206.6470  152.4670 C   0  0  0  0  0  2  0  0  0  0  0  0
  160.1270  206.3470  150.1740 C   0  0  0  0  0  2  0  0  0  0  0  0
  161.2480  205.3520  150.4760 C   0  0  1  0  0  3  0  0  0  0  0  0
  161.4730  208.3010  150.7450 C   0  0  2  0  0  3  0  0  0  0  0  0
  160.7030  207.6320  149.6230 C   0  0  0  0  0  2  0  0  0  0  0  0
  160.1690  202.9250  150.1260 O   0  0  0  0  0  1  0  0  0  0  0  0
  160.9680  203.4080  149.0810 C   0  0  2  0  0  0  0  0  0  0  0  0
  161.6470  204.6750  149.2450 N   0  0  1  0  0  0  0  0  0  0  0  0
  160.4890  204.5200  148.4810 O   0  0  0  0  0  0  0  0  0  0  0  0
  161.6000  202.4660  148.1700 N   0  0  0  0  0  2  0  0  0  0  0  0
  161.2440  202.3370  146.7910 C   0  0  0  0  0  0  0  0  0  0  0  0
  161.5780  203.5180  145.7030 S   0  0  0  0  0  0  0  0  0  0  0  0
  161.3540  199.8950  146.4860 C   0  0  0  0  0  1  0  0  0  0  0  0
  160.4890  201.1330  146.3460 C   0  0  0  0  0  2  0  0  0  0  0  0
  160.4510  213.9420  147.6520 C   0  0  0  0  0  2  0  0  0  0  0  0
  159.3230  214.2100  146.7160 C   0  0  0  0  0  0  0  0  0  0  0  0
  159.5270  214.2540  145.5120 O   0  0  0  0  0  0  0  0  0  0  0  0
  157.9470  214.4160  147.2550 C   0  0  0  0  0  2  0  0  0  0  0  0
  157.2800  213.0800  147.5350 C   0  0  0  0  0  2  0  0  0  0  0  0
  156.8900  212.9820  148.9990 C   0  0  0  0  0  2  0  0  0  0  0  0
  156.5170  214.3510  149.5410 C   0  0  0  0  0  1  0  0  0  0  0  0
  161.4470  207.9440  155.7710 C   0  0  0  0  0  2  0  0  0  0  0  0
  159.1770  207.0170  155.8330 C   0  0  0  0  0  2  0  0  0  0  0  0
  160.4880  206.8120  155.9330 C   0  0  0  0  0  3  0  0  0  0  0  0
  1  2  1  1  0  0  0
  2 12  2  0  0  0  0
  2 17  1  0  0  0  0
  3 10  1  6  0  0  0
  3 24  1  0  0  0  0
  3  1  1  0  0  0  0
  4  6  1  0  0  0  0
  6 18  1  6  0  0  0
  6  1  1  0  0  0  0
  7 15  1  0  0  0  0
  8 42  1  0  0  0  0
  8  5  1  0  0  0  0
  9  4  2  0  0  0  0
  9 10  1  0  0  0  0
 11  7  2  0  0  0  0
 12 11  1  0  0  0  0
 13 12  1  0  0  0  0
 14  7  1  0  0  0  0
 14  8  2  0  0  0  0
 15  5  2  0  0  0  0
 16 35  1  0  0  0  0
 16  4  1  0  0  0  0
 17 14  1  0  0  0  0
 18 13  2  0  0  0  0
 19 21  1  1  0  0  0
 20 19  1  0  0  0  0
 20 21  1  1  0  0  0
 23 22  1  6  0  0  0
 23 20  1  0  0  0  0
 24 25  1  6  0  0  0
 24 19  1  0  0  0  0
 25 22  1  0  0  0  0
 27 28  1  0  0  0  0
 27 26  1  1  0  0  0
 28 29  1  6  0  0  0
 28 23  1  0  0  0  0
 29 27  1  0  0  0  0
 30 27  1  0  0  0  0
 31 30  1  0  0  0  0
 32 31  2  0  0  0  0
 34 33  1  0  0  0  0
 34 31  1  0  0  0  0
 36 38  1  0  0  0  0
 36 35  1  0  0  0  0
 37 36  2  0  0  0  0
 38 39  1  0  0  0  0
 39 40  1  0  0  0  0
 40 41  1  0  0  0  0
 42 44  1  0  0  0  0
 43 44  2  0  0  0  0
M  END
>  <MODEL>
1

>  <REMARK>
 VINA RESULT:      -5.5      0.000      0.000
  Name = 
  12 active torsions:
  status: ('A' for Active; 'I' for Inactive)
    1  A    between atoms: N_4  and  C_41
    2  A    between atoms: C_5  and  N_9
    3  A    between atoms: C_5  and  C_17
    4  A    between atoms: C_8  and  C_11
    5  A    between atoms: C_8  and  C_14
    6  A    between atoms: N_9  and  C_21
    7  A    between atoms: C_11  and  C_38
    8  A    between atoms: C_12  and  C_38
    9  A    between atoms: C_14  and  N_35
   10  A    between atoms: C_19  and  C_23
   11  A    between atoms: C_23  and  C_40
   12  A    between atoms: N_30  and  C_39
                            x       y       z     vdW  Elec       q    Type
                         _______ _______ _______ _____ _____    ______ ____

>  <TORSDO>
F 12

$$$$
=
 OpenBabel11052409363D

 44 50  0  0  1  0  0  0  0  0999 V2000
  161.2630  210.7660  150.9190 C   0  0  2  0  0  3  0  0  0  0  0  0
  160.6230  210.8560  152.1140 C   0  0  0  0  0  0  0  0  0  0  0  0
  161.9220  209.5570  150.4730 N   0  0  2  0  0  0  0  0  0  0  0  0
  161.7040  211.6420  148.5930 C   0  0  0  0  0  0  0  0  0  0  0  0
  159.1730  209.8240  156.3210 N   0  0  0  0  0  0  0  0  0  0  0  0
  161.4040  212.0070  150.0420 C   0  0  1  0  0  3  0  0  0  0  0  0
  159.2930  211.1010  154.5580 C   0  0  0  0  0  0  0  0  0  0  0  0
  159.9320  209.1940  155.4810 C   0  0  0  0  0  0  0  0  0  0  0  0
  162.3680  210.5530  148.3380 N   0  0  0  0  0  0  0  0  0  0  0  0
  162.8900  209.6790  149.3850 C   0  0  0  0  0  2  0  0  0  0  0  0
  159.1370  212.1230  153.6290 C   0  0  0  0  0  3  0  0  0  0  0  0
  159.8140  212.0020  152.4010 C   0  0  0  0  0  0  0  0  0  0  0  0
  159.5700  213.0100  151.3620 C   0  0  0  0  0  3  0  0  0  0  0  0
  160.0570  210.0030  154.2900 C   0  0  0  0  0  0  0  0  0  0  0  0
  158.7570  211.0320  155.7310 N   0  0  0  0  0  0  0  0  0  0  0  0
  161.3910  212.4980  147.4850 N   0  0  0  0  0  2  0  0  0  0  0  0
  160.7350  209.8370  153.0890 C   0  0  0  0  0  2  0  0  0  0  0  0
  160.2710  212.9810  150.2320 C   0  0  0  0  0  3  0  0  0  0  0  0
  162.4830  207.3440  151.4240 C   0  0  2  0  0  3  0  0  0  0  0  0
  162.3110  205.8230  151.2890 C   0  0  1  0  0  3  0  0  0  0  0  0
  161.8600  206.5300  152.5480 C   0  0  0  0  0  2  0  0  0  0  0  0
  160.0580  206.3260  150.0700 C   0  0  0  0  0  2  0  0  0  0  0  0
  161.1180  205.2950  150.4560 C   0  0  1  0  0  3  0  0  0  0  0  0
  161.3960  208.2310  150.8020 C   0  0  2  0  0  3  0  0  0  0  0  0
  160.7180  207.6040  149.6000 C   0  0  0  0  0  2  0  0  0  0  0  0
  159.9830  202.9240  149.9390 O   0  0  0  0  0  1  0  0  0  0  0  0
  160.9040  203.3940  148.9930 C   0  0  2  0  0  0  0  0  0  0  0  0
  161.6130  204.6270  149.2560 N   0  0  1  0  0  0  0  0  0  0  0  0
  160.5340  204.5370  148.3750 O   0  0  0  0  0  0  0  0  0  0  0  0
  161.5880  202.4440  148.1270 N   0  0  0  0  0  2  0  0  0  0  0  0
  161.3820  202.3710  146.7130 C   0  0  0  0  0  0  0  0  0  0  0  0
  161.7290  203.6340  145.7270 S   0  0  0  0  0  0  0  0  0  0  0  0
  159.8290  201.5160  145.0030 C   0  0  0  0  0  1  0  0  0  0  0  0
  160.7710  201.1430  146.1320 C   0  0  0  0  0  2  0  0  0  0  0  0
  160.9220  213.8730  147.5790 C   0  0  0  0  0  2  0  0  0  0  0  0
  159.8110  214.0930  146.6110 C   0  0  0  0  0  0  0  0  0  0  0  0
  158.6590  214.1580  147.0100 O   0  0  0  0  0  0  0  0  0  0  0  0
  160.1160  214.2400  145.1580 C   0  0  0  0  0  2  0  0  0  0  0  0
  159.6940  212.9940  144.3980 C   0  0  0  0  0  2  0  0  0  0  0  0
  160.8490  212.4710  143.5630 C   0  0  0  0  0  2  0  0  0  0  0  0
  160.3290  211.6840  142.3720 C   0  0  0  0  0  1  0  0  0  0  0  0
  160.6100  207.8940  155.7680 C   0  0  0  0  0  2  0  0  0  0  0  0
  162.3890  208.8970  157.1270 C   0  0  0  0  0  2  0  0  0  0  0  0
  161.4250  207.9870  157.0160 C   0  0  0  0  0  3  0  0  0  0  0  0
  1  2  1  1  0  0  0
  2 12  2  0  0  0  0
  2 17  1  0  0  0  0
  3 10  1  6  0  0  0
  3 24  1  0  0  0  0
  3  1  1  0  0  0  0
  4  6  1  0  0  0  0
  6 18  1  6  0  0  0
  6  1  1  0  0  0  0
  7 15  1  0  0  0  0
  8 42  1  0  0  0  0
  8  5  1  0  0  0  0
  9  4  2  0  0  0  0
  9 10  1  0  0  0  0
 11  7  2  0  0  0  0
 12 11  1  0  0  0  0
 13 12  1  0  0  0  0
 14  7  1  0  0  0  0
 14  8  2  0  0  0  0
 15  5  2  0  0  0  0
 16 35  1  0  0  0  0
 16  4  1  0  0  0  0
 17 14  1  0  0  0  0
 18 13  2  0  0  0  0
 19 21  1  1  0  0  0
 20 19  1  0  0  0  0
 20 21  1  1  0  0  0
 23 22  1  6  0  0  0
 23 20  1  0  0  0  0
 24 25  1  6  0  0  0
 24 19  1  0  0  0  0
 25 22  1  0  0  0  0
 27 28  1  0  0  0  0
 27 26  1  1  0  0  0
 28 29  1  6  0  0  0
 28 23  1  0  0  0  0
 29 27  1  0  0  0  0
 30 27  1  0  0  0  0
 31 30  1  0  0  0  0
 32 31  2  0  0  0  0
 33 34  1  0  0  0  0
 34 31  1  0  0  0  0
 36 37  2  0  0  0  0
 36 35  1  0  0  0  0
 38 36  1  0  0  0  0
 39 38  1  0  0  0  0
 40 39  1  0  0  0  0
 41 40  1  0  0  0  0
 42 44  1  0  0  0  0
 44 43  2  0  0  0  0
M  END
>  <MODEL>
2

>  <REMARK>
 VINA RESULT:      -5.4      1.247      2.015
  Name = 
  12 active torsions:
  status: ('A' for Active; 'I' for Inactive)
    1  A    between atoms: N_4  and  C_41
    2  A    between atoms: C_5  and  N_9
    3  A    between atoms: C_5  and  C_17
    4  A    between atoms: C_8  and  C_11
    5  A    between atoms: C_8  and  C_14
    6  A    between atoms: N_9  and  C_21
    7  A    between atoms: C_11  and  C_38
    8  A    between atoms: C_12  and  C_38
    9  A    between atoms: C_14  and  N_35
   10  A    between atoms: C_19  and  C_23
   11  A    between atoms: C_23  and  C_40
   12  A    between atoms: N_30  and  C_39
                            x       y       z     vdW  Elec       q    Type
                         _______ _______ _______ _____ _____    ______ ____

>  <TORSDO>
F 12

$$$$
=
 OpenBabel11052409363D

 44 50  0  0  1  0  0  0  0  0999 V2000
  160.9100  206.6890  150.9540 C   0  0  2  0  0  3  0  0  0  0  0  0
  160.9840  207.1480  152.2320 C   0  0  0  0  0  0  0  0  0  0  0  0
  160.9140  207.5690  149.8060 N   0  0  2  0  0  0  0  0  0  0  0  0
  161.1100  204.8090  149.2820 C   0  0  0  0  0  0  0  0  0  0  0  0
  161.0020  210.0040  155.7970 N   0  0  0  0  0  0  0  0  0  0  0  0
  160.7020  205.1990  150.6980 C   0  0  1  0  0  3  0  0  0  0  0  0
  161.1330  208.0310  154.8770 C   0  0  0  0  0  0  0  0  0  0  0  0
  160.8730  210.2000  154.5230 C   0  0  0  0  0  0  0  0  0  0  0  0
  160.9970  205.6840  148.3270 N   0  0  0  0  0  0  0  0  0  0  0  0
  160.4450  207.0200  148.5350 C   0  0  0  0  0  2  0  0  0  0  0  0
  161.2730  206.6690  154.6400 C   0  0  0  0  0  3  0  0  0  0  0  0
  161.1910  206.2240  153.3070 C   0  0  0  0  0  0  0  0  0  0  0  0
  161.4540  204.8080  153.0200 C   0  0  0  0  0  3  0  0  0  0  0  0
  160.9420  208.9180  153.8580 C   0  0  0  0  0  0  0  0  0  0  0  0
  161.1780  208.6260  156.0240 N   0  0  0  0  0  2  0  0  0  0  0  0
  161.5090  203.4810  148.9160 N   0  0  0  0  0  2  0  0  0  0  0  0
  160.8620  208.5250  152.5290 C   0  0  0  0  0  3  0  0  0  0  0  0
  161.2830  204.3370  151.7890 C   0  0  0  0  0  3  0  0  0  0  0  0
  160.9010  209.9600  150.4360 C   0  0  2  0  0  3  0  0  0  0  0  0
  161.2660  211.3900  150.0050 C   0  0  1  0  0  3  0  0  0  0  0  0
  161.8600  210.8010  151.2650 C   0  0  0  0  0  2  0  0  0  0  0  0
  163.1120  210.3160  148.5030 C   0  0  0  0  0  2  0  0  0  0  0  0
  162.3230  211.5670  148.8880 C   0  0  1  0  0  3  0  0  0  0  0  0
  161.6880  208.8110  149.7930 C   0  0  2  0  0  3  0  0  0  0  0  0
  162.1850  209.1250  148.3960 C   0  0  0  0  0  2  0  0  0  0  0  0
  162.0750  214.2340  148.9080 O   0  0  0  0  0  1  0  0  0  0  0  0
  161.6620  213.5790  147.7400 C   0  0  2  0  0  0  0  0  0  0  0  0
  161.6920  212.1340  147.6990 N   0  0  1  0  0  0  0  0  0  0  0  0
  162.6530  212.9370  147.0820 O   0  0  0  0  0  0  0  0  0  0  0  0
  160.6850  214.2160  146.8700 N   0  0  0  0  0  2  0  0  0  0  0  0
  159.2740  214.0030  146.9730 C   0  0  0  0  0  0  0  0  0  0  0  0
  158.3390  213.7880  145.6430 S   0  0  0  0  0  0  0  0  0  0  0  0
  157.4280  213.1230  148.3450 C   0  0  0  0  0  1  0  0  0  0  0  0
  158.6290  214.0480  148.3140 C   0  0  0  0  0  2  0  0  0  0  0  0
  161.4180  202.3020  149.7650 C   0  0  0  0  0  2  0  0  0  0  0  0
  160.7750  201.1880  149.0130 C   0  0  0  0  0  0  0  0  0  0  0  0
  159.5730  200.9950  149.1190 O   0  0  0  0  0  0  0  0  0  0  0  0
  161.6030  200.3180  148.1290 C   0  0  0  0  0  2  0  0  0  0  0  0
  160.9840  200.2230  146.7450 C   0  0  0  0  0  2  0  0  0  0  0  0
  160.8750  201.6030  146.1210 C   0  0  0  0  0  2  0  0  0  0  0  0
  159.8600  201.5960  144.9900 C   0  0  0  0  0  1  0  0  0  0  0  0
  160.6140  211.5310  153.8970 C   0  0  0  0  0  2  0  0  0  0  0  0
  158.5770  212.0010  152.6140 C   0  0  0  0  0  2  0  0  0  0  0  0
  159.1480  211.7940  153.7980 C   0  0  0  0  0  3  0  0  0  0  0  0
  1  2  1  1  0  0  0
  2 17  2  0  0  0  0
  2 12  1  0  0  0  0
  3 10  1  6  0  0  0
  3  1  1  0  0  0  0
  4  6  1  0  0  0  0
  5 15  1  0  0  0  0
  6  1  1  0  0  0  0
  6 18  1  1  0  0  0
  7 15  1  0  0  0  0
  8  5  2  0  0  0  0
  9 10  1  0  0  0  0
  9  4  2  0  0  0  0
 11  7  1  0  0  0  0
 12 11  2  0  0  0  0
 13 12  1  0  0  0  0
 14  8  1  0  0  0  0
 14  7  2  0  0  0  0
 16  4  1  0  0  0  0
 16 35  1  0  0  0  0
 17 14  1  0  0  0  0
 18 13  2  0  0  0  0
 19 21  1  1  0  0  0
 20 19  1  0  0  0  0
 20 21  1  1  0  0  0
 23 22  1  6  0  0  0
 23 20  1  0  0  0  0
 24 25  1  6  0  0  0
 24  3  1  0  0  0  0
 24 19  1  0  0  0  0
 25 22  1  0  0  0  0
 27 26  1  1  0  0  0
 28 29  1  6  0  0  0
 28 27  1  0  0  0  0
 28 23  1  0  0  0  0
 29 27  1  0  0  0  0
 30 31  1  0  0  0  0
 30 27  1  0  0  0  0
 31 34  1  0  0  0  0
 32 31  2  0  0  0  0
 34 33  1  0  0  0  0
 36 37  2  0  0  0  0
 36 35  1  0  0  0  0
 38 36  1  0  0  0  0
 39 38  1  0  0  0  0
 40 39  1  0  0  0  0
 41 40  1  0  0  0  0
 42  8  1  0  0  0  0
 43 44  2  0  0  0  0
 44 42  1  0  0  0  0
M  END
>  <MODEL>
3

>  <REMARK>
 VINA RESULT:      -4.6      2.241      8.413
  Name = 
  12 active torsions:
  status: ('A' for Active; 'I' for Inactive)
    1  A    between atoms: N_4  and  C_41
    2  A    between atoms: C_5  and  N_9
    3  A    between atoms: C_5  and  C_17
    4  A    between atoms: C_8  and  C_11
    5  A    between atoms: C_8  and  C_14
    6  A    between atoms: N_9  and  C_21
    7  A    between atoms: C_11  and  C_38
    8  A    between atoms: C_12  and  C_38
    9  A    between atoms: C_14  and  N_35
   10  A    between atoms: C_19  and  C_23
   11  A    between atoms: C_23  and  C_40
   12  A    between atoms: N_30  and  C_39
                            x       y       z     vdW  Elec       q    Type
                         _______ _______ _______ _____ _____    ______ ____

>  <TORSDO>
F 12

$$$$
=
 OpenBabel11052409363D

 44 50  0  0  1  0  0  0  0  0999 V2000
  161.7100  208.9820  151.7800 C   0  0  2  0  0  3  0  0  0  0  0  0
  161.7720  209.6980  150.6260 C   0  0  0  0  0  0  0  0  0  0  0  0
  161.3300  209.5690  153.0460 N   0  0  2  0  0  0  0  0  0  0  0  0
  161.5970  206.7670  152.9840 C   0  0  0  0  0  0  0  0  0  0  0  0
  161.8140  213.2420  147.7440 N   0  0  0  0  0  0  0  0  0  0  0  0
  162.1620  207.5240  151.7880 C   0  0  1  0  0  3  0  0  0  0  0  0
  161.9180  211.1180  148.2260 C   0  0  0  0  0  0  0  0  0  0  0  0
  161.6750  213.1650  149.0300 C   0  0  0  0  0  0  0  0  0  0  0  0
  161.3650  207.4110  154.0900 N   0  0  0  0  0  0  0  0  0  0  0  0
  161.6680  208.8300  154.2600 C   0  0  0  0  0  2  0  0  0  0  0  0
  162.0110  209.7330  148.1660 C   0  0  0  0  0  3  0  0  0  0  0  0
  161.9450  209.0190  149.3770 C   0  0  0  0  0  0  0  0  0  0  0  0
  161.9220  207.5510  149.3280 C   0  0  0  0  0  3  0  0  0  0  0  0
  161.7470  211.7720  149.4100 C   0  0  0  0  0  0  0  0  0  0  0  0
  161.9580  211.9400  147.2290 N   0  0  0  0  0  0  0  0  0  0  0  0
  161.4120  205.3440  152.9990 N   0  0  0  0  0  2  0  0  0  0  0  0
  161.6680  211.1090  150.6270 C   0  0  0  0  0  2  0  0  0  0  0  0
  161.9650  206.8490  150.4560 C   0  0  0  0  0  3  0  0  0  0  0  0
  160.5700  211.5220  154.3590 C   0  0  2  0  0  3  0  0  0  0  0  0
  159.3580  212.2790  154.9240 C   0  0  1  0  0  3  0  0  0  0  0  0
  160.3120  212.9710  153.9750 C   0  0  0  0  0  2  0  0  0  0  0  0
  157.9780  211.2510  152.9610 C   0  0  0  0  0  2  0  0  0  0  0  0
  157.9740  212.0240  154.2800 C   0  0  1  0  0  3  0  0  0  0  0  0
  160.3340  210.6390  153.1270 C   0  0  2  0  0  3  0  0  0  0  0  0
  158.9280  210.0770  153.0460 C   0  0  0  0  0  2  0  0  0  0  0  0
  155.9310  213.5090  155.1720 O   0  0  0  0  0  1  0  0  0  0  0  0
  155.9770  212.1820  155.6180 C   0  0  2  0  0  0  0  0  0  0  0  0
  157.1010  211.3530  155.2400 N   0  0  1  0  0  0  0  0  0  0  0  0
  155.8440  211.2600  154.6380 O   0  0  0  0  0  0  0  0  0  0  0  0
  155.3190  211.8230  156.8660 N   0  0  0  0  0  2  0  0  0  0  0  0
  153.9160  211.9790  157.0950 C   0  0  0  0  0  0  0  0  0  0  0  0
  153.2320  213.4600  157.2600 S   0  0  0  0  0  0  0  0  0  0  0  0
  153.8360  209.5320  156.8240 C   0  0  0  0  0  1  0  0  0  0  0  0
  153.0680  210.7660  157.2600 C   0  0  0  0  0  2  0  0  0  0  0  0
  161.8830  204.4160  151.9820 C   0  0  0  0  0  2  0  0  0  0  0  0
  160.9530  203.2550  151.8910 C   0  0  0  0  0  0  0  0  0  0  0  0
  160.0100  203.1670  152.6610 O   0  0  0  0  0  0  0  0  0  0  0  0
  161.1780  202.2080  150.8510 C   0  0  0  0  0  2  0  0  0  0  0  0
  160.7800  202.7270  149.4800 C   0  0  0  0  0  2  0  0  0  0  0  0
  160.5630  201.5700  148.5210 C   0  0  0  0  0  2  0  0  0  0  0  0
  160.7560  202.0270  147.0850 C   0  0  0  0  0  1  0  0  0  0  0  0
  161.5500  214.3450  149.9370 C   0  0  0  0  0  2  0  0  0  0  0  0
  159.2100  213.6200  150.0640 C   0  0  0  0  0  2  0  0  0  0  0  0
  160.1620  214.4530  150.4770 C   0  0  0  0  0  3  0  0  0  0  0  0
  1  2  1  1  0  0  0
  1  6  1  0  0  0  0
  1  3  1  0  0  0  0
  2 17  1  0  0  0  0
  3 24  1  0  0  0  0
  3 10  1  1  0  0  0
  4 16  1  0  0  0  0
  4  9  2  0  0  0  0
  5  8  1  0  0  0  0
  6 18  1  6  0  0  0
  6  4  1  0  0  0  0
  7 14  1  0  0  0  0
  8 14  2  0  0  0  0
  8 42  1  0  0  0  0
  9 10  1  0  0  0  0
 11  7  2  0  0  0  0
 11 12  1  0  0  0  0
 12  2  2  0  0  0  0
 13 12  1  0  0  0  0
 13 18  2  0  0  0  0
 14 17  1  0  0  0  0
 15  5  2  0  0  0  0
 15  7  1  0  0  0  0
 19 21  1  6  0  0  0
 19 20  1  0  0  0  0
 20 21  1  6  0  0  0
 22 25  1  0  0  0  0
 23 22  1  6  0  0  0
 23 20  1  0  0  0  0
 23 28  1  0  0  0  0
 24 25  1  1  0  0  0
 24 19  1  0  0  0  0
 27 26  1  6  0  0  0
 27 30  1  0  0  0  0
 28 29  1  6  0  0  0
 28 27  1  0  0  0  0
 29 27  1  0  0  0  0
 30 31  1  0  0  0  0
 31 34  1  0  0  0  0
 31 32  2  0  0  0  0
 33 34  1  0  0  0  0
 35 16  1  0  0  0  0
 36 35  1  0  0  0  0
 36 37  2  0  0  0  0
 38 36  1  0  0  0  0
 39 38  1  0  0  0  0
 40 39  1  0  0  0  0
 41 40  1  0  0  0  0
 42 44  1  0  0  0  0
 43 44  2  0  0  0  0
M  END
>  <MODEL>
4

>  <REMARK>
 VINA RESULT:      -3.3      4.242      9.616
  Name = 
  12 active torsions:
  status: ('A' for Active; 'I' for Inactive)
    1  A    between atoms: N_4  and  C_41
    2  A    between atoms: C_5  and  N_9
    3  A    between atoms: C_5  and  C_17
    4  A    between atoms: C_8  and  C_11
    5  A    between atoms: C_8  and  C_14
    6  A    between atoms: N_9  and  C_21
    7  A    between atoms: C_11  and  C_38
    8  A    between atoms: C_12  and  C_38
    9  A    between atoms: C_14  and  N_35
   10  A    between atoms: C_19  and  C_23
   11  A    between atoms: C_23  and  C_40
   12  A    between atoms: N_30  and  C_39
                            x       y       z     vdW  Elec       q    Type
                         _______ _______ _______ _____ _____    ______ ____

>  <TORSDO>
F 12

$$$$
=
 OpenBabel11052409363D

 44 50  0  0  1  0  0  0  0  0999 V2000
  161.0040  208.1170  153.5090 C   0  0  2  0  0  3  0  0  0  0  0  0
  161.3020  208.4040  152.2140 C   0  0  0  0  0  0  0  0  0  0  0  0
  160.6360  206.7900  153.9520 N   0  0  2  0  0  0  0  0  0  0  0  0
  161.0650  208.7160  155.9600 C   0  0  0  0  0  0  0  0  0  0  0  0
  161.7490  207.9630  147.6890 N   0  0  0  0  0  0  0  0  0  0  0  0
  160.9390  209.2450  154.5360 C   0  0  1  0  0  3  0  0  0  0  0  0
  161.9250  209.0520  149.5700 C   0  0  0  0  0  0  0  0  0  0  0  0
  161.3140  207.1570  148.6050 C   0  0  1  0  0  3  0  0  0  0  0  0
  160.6280  207.5230  156.2350 N   0  0  0  0  0  0  0  0  0  0  0  0
  159.9700  206.6720  155.2460 C   0  0  0  0  0  2  0  0  0  0  0  0
  162.1840  210.0040  150.5490 C   0  0  0  0  0  3  0  0  0  0  0  0
  161.8630  209.6790  151.8800 C   0  0  0  0  0  0  0  0  0  0  0  0
  162.2360  210.6200  152.9440 C   0  0  0  0  0  3  0  0  0  0  0  0
  161.3970  207.8330  149.8800 C   0  0  0  0  0  0  0  0  0  0  0  0
  162.1480  209.1650  148.3020 N   0  0  0  0  0  0  0  0  0  0  0  0
  161.5410  209.5130  157.0550 N   0  0  0  0  0  2  0  0  0  0  0  0
  161.0730  207.4670  151.1800 C   0  0  0  0  0  3  0  0  0  0  0  0
  161.8550  210.3900  154.1970 C   0  0  0  0  0  3  0  0  0  0  0  0
  162.1310  205.9520  152.1690 C   0  0  2  0  0  3  0  0  0  0  0  0
  162.3460  204.8780  151.0910 C   0  0  1  0  0  3  0  0  0  0  0  0
  163.3550  205.0500  152.2050 C   0  0  0  0  0  2  0  0  0  0  0  0
  160.8410  203.3170  152.5470 C   0  0  0  0  0  2  0  0  0  0  0  0
  161.5560  203.5530  151.2160 C   0  0  1  0  0  3  0  0  0  0  0  0
  161.2210  205.5910  153.3490 C   0  0  2  0  0  3  0  0  0  0  0  0
  160.1440  204.5820  152.9970 C   0  0  0  0  0  2  0  0  0  0  0  0
  161.6350  201.2330  149.8780 O   0  0  0  0  0  1  0  0  0  0  0  0
  160.6400  202.1420  149.4920 C   0  0  2  0  0  0  0  0  0  0  0  0
  160.5990  203.4440  150.1190 N   0  0  1  0  0  0  0  0  0  0  0  0
  159.7260  202.4070  150.4510 O   0  0  0  0  0  0  0  0  0  0  0  0
  160.0880  202.0700  148.1480 N   0  0  0  0  0  2  0  0  0  0  0  0
  160.7750  201.4820  147.0390 C   0  0  0  0  0  0  0  0  0  0  0  0
  160.7000  202.1360  145.5370 S   0  0  0  0  0  0  0  0  0  0  0  0
  161.3080  199.2920  146.0460 C   0  0  0  0  0  1  0  0  0  0  0  0
  161.5160  200.2050  147.2390 C   0  0  0  0  0  2  0  0  0  0  0  0
  161.7960  210.9450  157.0160 C   0  0  0  0  0  2  0  0  0  0  0  0
  160.5100  211.6890  157.1290 C   0  0  0  0  0  0  0  0  0  0  0  0
  160.5100  212.9100  157.1280 O   0  0  0  0  0  0  0  0  0  0  0  0
  159.2270  210.9350  157.2380 C   0  0  0  0  0  2  0  0  0  0  0  0
  158.1380  211.6210  156.4300 C   0  0  0  0  0  2  0  0  0  0  0  0
  158.1680  211.1400  154.9900 C   0  0  0  0  0  2  0  0  0  0  0  0
  158.0440  212.3160  154.0360 C   0  0  0  0  0  1  0  0  0  0  0  0
  160.7510  205.8000  148.3370 C   0  0  0  0  0  2  0  0  0  0  0  0
  162.6320  204.9640  147.0010 C   0  0  0  0  0  2  0  0  0  0  0  0
  161.3290  205.2250  147.0860 C   0  0  0  0  0  3  0  0  0  0  0  0
  1  2  1  6  0  0  0
  1  3  1  0  0  0  0
  1  6  1  0  0  0  0
  3 10  1  1  0  0  0
  4  9  2  0  0  0  0
  4 16  1  0  0  0  0
  5 15  2  0  0  0  0
  5  8  1  0  0  0  0
  6 18  1  6  0  0  0
  6  4  1  0  0  0  0
  7 14  2  0  0  0  0
  7 11  1  0  0  0  0
  8 42  1  6  0  0  0
  8 14  1  0  0  0  0
 10  9  1  0  0  0  0
 11 12  2  0  0  0  0
 12  2  1  0  0  0  0
 12 13  1  0  0  0  0
 13 18  2  0  0  0  0
 14 17  1  0  0  0  0
 15  7  1  0  0  0  0
 17  2  2  0  0  0  0
 19 21  1  1  0  0  0
 19 24  1  0  0  0  0
 20 23  1  0  0  0  0
 20 19  1  0  0  0  0
 20 21  1  1  0  0  0
 22 25  1  0  0  0  0
 23 22  1  1  0  0  0
 24 25  1  6  0  0  0
 24  3  1  0  0  0  0
 27 26  1  1  0  0  0
 27 28  1  0  0  0  0
 27 29  1  0  0  0  0
 28 29  1  1  0  0  0
 28 23  1  0  0  0  0
 30 27  1  0  0  0  0
 31 34  1  0  0  0  0
 31 30  1  0  0  0  0
 32 31  2  0  0  0  0
 33 34  1  0  0  0  0
 35 16  1  0  0  0  0
 35 36  1  0  0  0  0
 36 38  1  0  0  0  0
 37 36  2  0  0  0  0
 39 38  1  0  0  0  0
 40 39  1  0  0  0  0
 41 40  1  0  0  0  0
 43 44  2  0  0  0  0
 44 42  1  0  0  0  0
M  END
>  <MODEL>
5

>  <REMARK>
 VINA RESULT:      -3.1      3.271      6.145
  Name = 
  12 active torsions:
  status: ('A' for Active; 'I' for Inactive)
    1  A    between atoms: N_4  and  C_41
    2  A    between atoms: C_5  and  N_9
    3  A    between atoms: C_5  and  C_17
    4  A    between atoms: C_8  and  C_11
    5  A    between atoms: C_8  and  C_14
    6  A    between atoms: N_9  and  C_21
    7  A    between atoms: C_11  and  C_38
    8  A    between atoms: C_12  and  C_38
    9  A    between atoms: C_14  and  N_35
   10  A    between atoms: C_19  and  C_23
   11  A    between atoms: C_23  and  C_40
   12  A    between atoms: N_30  and  C_39
                            x       y       z     vdW  Elec       q    Type
                         _______ _______ _______ _____ _____    ______ ____

>  <TORSDO>
F 12

$$$$
