=
 OpenBabel11052411053D

 34 37  0  0  1  0  0  0  0  0999 V2000
  161.1860  205.4290  152.2490 C   0  0  0  0  0  0  0  0  0  0  0  0
  161.2140  206.0550  153.4970 C   0  0  0  0  0  3  0  0  0  0  0  0
  161.1740  203.5250  150.7520 C   0  0  0  0  0  0  0  0  0  0  0  0
  161.2130  207.4490  153.3810 C   0  0  0  0  0  0  0  0  0  0  0  0
  161.1620  202.4110  148.1860 C   0  0  0  0  0  3  0  0  0  0  0  0
  161.1910  204.0500  152.0520 O   0  0  0  0  0  0  0  0  0  0  0  0
  161.1220  205.8360  149.8150 N   0  0  0  0  0  0  0  0  0  0  0  0
  161.1520  207.8750  151.7410 S   0  0  0  0  0  0  0  0  0  0  0  0
  161.1920  202.1370  150.5860 C   0  0  0  0  0  3  0  0  0  0  0  0
  161.1860  201.5810  149.3070 C   0  0  0  0  0  0  0  0  0  0  0  0
  161.1530  206.2920  151.1770 C   0  0  0  0  0  0  0  0  0  0  0  0
  161.1410  203.7990  148.3420 C   0  0  0  0  0  3  0  0  0  0  0  0
  161.2040  200.2360  149.1520 F   0  0  0  0  0  0  0  0  0  0  0  0
  161.1430  204.3860  149.6190 C   0  0  0  0  0  0  0  0  0  0  0  0
  161.3960  209.7930  154.3770 N   0  0  0  0  0  0  0  0  0  0  0  0
  161.1910  208.3770  154.5300 C   0  0  0  0  0  0  0  0  0  0  0  0
  160.9750  207.9050  155.6790 O   0  0  0  0  0  0  0  0  0  0  0  0
  162.2410  210.3330  153.3240 C   0  0  0  0  0  1  0  0  0  0  0  0
  160.1000  212.3610  157.2580 C   0  0  0  0  0  1  0  0  0  0  0  0
  160.9490  210.6780  155.3690 C   0  0  0  0  0  0  0  0  0  0  0  0
  160.5650  211.4390  156.2220 C   0  0  0  0  0  0  0  0  0  0  0  0
  161.0730  206.8910  148.7820 C   0  0  2  0  0  3  0  0  0  0  0  0
  162.2550  206.8950  147.8330 C   0  0  0  0  0  2  0  0  0  0  0  0
  162.1800  207.9110  148.9620 C   0  0  1  0  0  3  0  0  0  0  0  0
  161.7190  209.2440  148.4090 C   0  0  0  0  0  2  0  0  0  0  0  0
  162.1000  210.3550  149.3700 C   0  0  0  0  0  2  0  0  0  0  0  0
  162.6040  211.5650  148.6030 C   0  0  0  0  0  2  0  0  0  0  0  0
  160.7650  212.9930  149.2920 O   0  0  0  0  0  1  0  0  0  0  0  0
  161.4500  212.4730  148.1880 C   0  0  2  0  0  3  0  0  0  0  0  0
  160.5910  211.8660  147.2430 O   0  0  0  0  0  0  0  0  0  0  0  0
  159.1480  212.2580  144.8570 O   0  0  0  0  0  0  0  0  0  0  0  0
  161.7470  213.1280  145.0720 O   0  0  0  0  0  1  0  0  0  0  0  0
  160.2980  212.9080  145.9150 P   0  0  0  0  0  0  0  0  0  0  0  0
  159.8170  214.2510  146.4160 O   0  0  0  0  0  1  0  0  0  0  0  0
  1  2  1  0  0  0  0
  3  6  1  0  0  0  0
  4  2  2  0  0  0  0
  4 16  1  0  0  0  0
  5 12  2  0  0  0  0
  5 10  1  0  0  0  0
  6  1  1  0  0  0  0
  7 11  1  0  0  0  0
  8  4  1  0  0  0  0
  9  3  1  0  0  0  0
 10  9  2  0  0  0  0
 11  8  1  0  0  0  0
 11  1  2  0  0  0  0
 12 14  1  0  0  0  0
 13 10  1  0  0  0  0
 14  7  1  0  0  0  0
 14  3  2  0  0  0  0
 15 16  1  0  0  0  0
 15 20  1  0  0  0  0
 16 17  2  0  0  0  0
 18 15  1  0  0  0  0
 20 21  3  0  0  0  0
 21 19  1  0  0  0  0
 22 23  1  6  0  0  0
 22 24  1  0  0  0  0
 22  7  1  0  0  0  0
 23 24  1  0  0  0  0
 24 25  1  6  0  0  0
 25 26  1  0  0  0  0
 27 26  1  0  0  0  0
 29 27  1  0  0  0  0
 29 28  1  1  0  0  0
 30 29  1  0  0  0  0
 31 33  2  0  0  0  0
 32 33  1  0  0  0  0
 33 34  1  0  0  0  0
 33 30  1  0  0  0  0
M  END
>  <MODEL>
1

>  <REMARK>
 VINA RESULT:      -8.2      0.000      0.000
  Name = 
  9 active torsions:
  status: ('A' for Active; 'I' for Inactive)
    1  A    between atoms: C_4  and  N_14
    2  A    between atoms: N_5  and  C_16
    3  A    between atoms: C_10  and  C_26
    4  A    between atoms: C_10  and  C_34
    5  A    between atoms: C_11  and  C_20
    6  A    between atoms: O_17  and  P_22
    7  A    between atoms: O_17  and  C_26
    8  A    between atoms: C_18  and  C_28
    9  A    between atoms: C_28  and  C_34
                            x       y       z     vdW  Elec       q    Type
                         _______ _______ _______ _____ _____    ______ ____

>  <TORSDO>
F 9

$$$$
=
 OpenBabel11052411053D

 34 37  0  0  1  0  0  0  0  0999 V2000
  161.3930  205.8670  148.6920 C   0  0  0  0  0  0  0  0  0  0  0  0
  161.1400  204.7570  147.8820 C   0  0  0  0  0  3  0  0  0  0  0  0
  161.7750  208.2180  149.1320 C   0  0  0  0  0  0  0  0  0  0  0  0
  161.0910  203.5720  148.6230 C   0  0  0  0  0  0  0  0  0  0  0  0
  162.3280  210.3390  150.8690 C   0  0  0  0  0  3  0  0  0  0  0  0
  161.5070  207.1760  148.2320 O   0  0  0  0  0  0  0  0  0  0  0  0
  161.7920  206.5880  151.0190 N   0  0  0  0  0  0  0  0  0  0  0  0
  161.3360  203.9250  150.2630 S   0  0  0  0  0  0  0  0  0  0  0  0
  161.8960  209.5200  148.6380 C   0  0  0  0  0  3  0  0  0  0  0  0
  162.1720  210.5780  149.5040 C   0  0  0  0  0  0  0  0  0  0  0  0
  161.5290  205.5790  150.0310 C   0  0  0  0  0  0  0  0  0  0  0  0
  162.2060  209.0420  151.3720 C   0  0  0  0  0  3  0  0  0  0  0  0
  162.2880  211.8370  149.0200 F   0  0  0  0  0  0  0  0  0  0  0  0
  161.9260  207.9580  150.5230 C   0  0  0  0  0  0  0  0  0  0  0  0
  161.0180  201.9450  146.6560 N   0  0  0  0  0  0  0  0  0  0  0  0
  160.7950  202.2450  148.0460 C   0  0  0  0  0  0  0  0  0  0  0  0
  160.3400  201.3470  148.8060 O   0  0  0  0  0  0  0  0  0  0  0  0
  160.9050  202.9660  145.6270 C   0  0  0  0  0  1  0  0  0  0  0  0
  161.3930  198.0770  145.4430 C   0  0  0  0  0  1  0  0  0  0  0  0
  161.1480  200.6120  146.2380 C   0  0  0  0  0  0  0  0  0  0  0  0
  161.2590  199.4670  145.8790 C   0  0  0  0  0  0  0  0  0  0  0  0
  161.8950  206.1130  152.4150 C   0  0  2  0  0  3  0  0  0  0  0  0
  160.7810  205.1810  152.8440 C   0  0  0  0  0  2  0  0  0  0  0  0
  160.7640  206.6390  153.2760 C   0  0  1  0  0  3  0  0  0  0  0  0
  161.2410  206.7440  154.7100 C   0  0  0  0  0  2  0  0  0  0  0  0
  160.3440  207.6980  155.4780 C   0  0  0  0  0  2  0  0  0  0  0  0
  161.1280  208.9260  155.9080 C   0  0  0  0  0  2  0  0  0  0  0  0
  162.1510  210.6500  154.5380 O   0  0  0  0  0  1  0  0  0  0  0  0
  160.9340  210.0750  154.9230 C   0  0  2  0  0  3  0  0  0  0  0  0
  159.9920  211.0280  155.3750 O   0  0  0  0  0  0  0  0  0  0  0  0
  157.3510  211.3520  154.4540 O   0  0  0  0  0  1  0  0  0  0  0  0
  159.3610  210.6650  152.7080 O   0  0  0  0  0  0  0  0  0  0  0  0
  158.9920  211.5640  154.0920 P   0  0  0  0  0  0  0  0  0  0  0  0
  159.2590  213.0250  153.8110 O   0  0  0  0  0  1  0  0  0  0  0  0
  1 11  2  0  0  0  0
  2  4  2  0  0  0  0
  2  1  1  0  0  0  0
  3 14  1  0  0  0  0
  4  8  1  0  0  0  0
  5 12  1  0  0  0  0
  6  1  1  0  0  0  0
  6  3  1  0  0  0  0
  9  3  2  0  0  0  0
  9 10  1  0  0  0  0
 10  5  2  0  0  0  0
 11  8  1  0  0  0  0
 11  7  1  0  0  0  0
 13 10  1  0  0  0  0
 14  7  1  0  0  0  0
 14 12  2  0  0  0  0
 15 16  1  0  0  0  0
 16  4  1  0  0  0  0
 16 17  2  0  0  0  0
 18 15  1  0  0  0  0
 19 21  1  0  0  0  0
 20 15  1  0  0  0  0
 21 20  3  0  0  0  0
 22  7  1  6  0  0  0
 22 23  1  0  0  0  0
 22 24  1  0  0  0  0
 23 24  1  0  0  0  0
 24 25  1  1  0  0  0
 25 26  1  0  0  0  0
 26 27  1  0  0  0  0
 29 28  1  1  0  0  0
 29 30  1  0  0  0  0
 29 27  1  0  0  0  0
 32 33  2  0  0  0  0
 33 31  1  0  0  0  0
 33 30  1  0  0  0  0
 34 33  1  0  0  0  0
M  END
>  <MODEL>
2

>  <REMARK>
 VINA RESULT:      -8.1      3.886      8.424
  Name = 
  9 active torsions:
  status: ('A' for Active; 'I' for Inactive)
    1  A    between atoms: C_4  and  N_14
    2  A    between atoms: N_5  and  C_16
    3  A    between atoms: C_10  and  C_26
    4  A    between atoms: C_10  and  C_34
    5  A    between atoms: C_11  and  C_20
    6  A    between atoms: O_17  and  P_22
    7  A    between atoms: O_17  and  C_26
    8  A    between atoms: C_18  and  C_28
    9  A    between atoms: C_28  and  C_34
                            x       y       z     vdW  Elec       q    Type
                         _______ _______ _______ _____ _____    ______ ____

>  <TORSDO>
F 9

$$$$
=
 OpenBabel11052411053D

 34 37  0  0  1  0  0  0  0  0999 V2000
  160.8630  204.4780  151.1260 C   0  0  0  0  0  0  0  0  0  0  0  0
  160.7100  203.1550  150.7050 C   0  0  0  0  0  3  0  0  0  0  0  0
  161.0430  206.2480  152.7700 C   0  0  0  0  0  0  0  0  0  0  0  0
  160.7000  203.0500  149.3110 C   0  0  0  0  0  0  0  0  0  0  0  0
  161.3100  208.9450  153.4640 C   0  0  0  0  0  3  0  0  0  0  0  0
  160.8980  204.8890  152.4560 O   0  0  0  0  0  0  0  0  0  0  0  0
  161.1450  206.8010  150.3400 N   0  0  0  0  0  0  0  0  0  0  0  0
  160.9040  204.5900  148.6310 S   0  0  0  0  0  0  0  0  0  0  0  0
  161.0630  206.6310  154.1140 C   0  0  0  0  0  3  0  0  0  0  0  0
  161.1960  207.9750  154.4610 C   0  0  0  0  0  0  0  0  0  0  0  0
  160.9810  205.3940  150.1050 C   0  0  0  0  0  0  0  0  0  0  0  0
  161.2940  208.5710  152.1190 C   0  0  0  0  0  3  0  0  0  0  0  0
  161.2140  208.3400  155.7650 F   0  0  0  0  0  0  0  0  0  0  0  0
  161.1650  207.2240  151.7410 C   0  0  0  0  0  0  0  0  0  0  0  0
  160.8380  201.6820  147.1590 N   0  0  0  0  0  0  0  0  0  0  0  0
  160.6010  201.7730  148.5760 C   0  0  0  0  0  0  0  0  0  0  0  0
  160.3080  200.7300  149.2200 O   0  0  0  0  0  0  0  0  0  0  0  0
  160.5450  202.7900  146.2630 C   0  0  0  0  0  1  0  0  0  0  0  0
  161.7840  198.0970  145.4780 C   0  0  0  0  0  1  0  0  0  0  0  0
  161.1640  200.4470  146.5800 C   0  0  0  0  0  0  0  0  0  0  0  0
  161.4440  199.3840  146.0820 C   0  0  0  0  0  0  0  0  0  0  0  0
  161.2720  207.6470  149.1350 C   0  0  2  0  0  3  0  0  0  0  0  0
  162.6320  207.5890  148.4690 C   0  0  0  0  0  2  0  0  0  0  0  0
  162.2590  208.7780  149.3400 C   0  0  1  0  0  3  0  0  0  0  0  0
  161.8650  209.9440  148.4560 C   0  0  0  0  0  2  0  0  0  0  0  0
  162.1130  211.2490  149.1910 C   0  0  0  0  0  2  0  0  0  0  0  0
  162.6110  212.3100  148.2250 C   0  0  0  0  0  2  0  0  0  0  0  0
  160.3750  213.2330  148.4280 O   0  0  0  0  0  1  0  0  0  0  0  0
  161.4480  213.0330  147.5530 C   0  0  2  0  0  3  0  0  0  0  0  0
  161.0600  212.4280  146.3350 O   0  0  0  0  0  0  0  0  0  0  0  0
  161.7750  212.5700  143.6150 O   0  0  0  0  0  0  0  0  0  0  0  0
  162.6920  214.4530  145.3960 O   0  0  0  0  0  1  0  0  0  0  0  0
  161.3840  213.4560  145.0040 P   0  0  0  0  0  0  0  0  0  0  0  0
  160.1780  214.3230  144.7220 O   0  0  0  0  0  1  0  0  0  0  0  0
  1  6  1  0  0  0  0
  2  1  1  0  0  0  0
  3  9  1  0  0  0  0
  4  2  2  0  0  0  0
  5 10  1  0  0  0  0
  6  3  1  0  0  0  0
  7 14  1  0  0  0  0
  8  4  1  0  0  0  0
  8 11  1  0  0  0  0
  9 10  2  0  0  0  0
 10 13  1  0  0  0  0
 11  7  1  0  0  0  0
 11  1  2  0  0  0  0
 12  5  2  0  0  0  0
 14 12  1  0  0  0  0
 14  3  2  0  0  0  0
 15 16  1  0  0  0  0
 16 17  2  0  0  0  0
 16  4  1  0  0  0  0
 18 15  1  0  0  0  0
 19 21  1  0  0  0  0
 20 15  1  0  0  0  0
 21 20  3  0  0  0  0
 22 23  1  6  0  0  0
 22 24  1  0  0  0  0
 22  7  1  0  0  0  0
 23 24  1  0  0  0  0
 24 25  1  6  0  0  0
 25 26  1  0  0  0  0
 27 26  1  0  0  0  0
 29 27  1  0  0  0  0
 29 28  1  1  0  0  0
 30 29  1  0  0  0  0
 31 33  2  0  0  0  0
 33 32  1  0  0  0  0
 33 30  1  0  0  0  0
 34 33  1  0  0  0  0
M  END
>  <MODEL>
3

>  <REMARK>
 VINA RESULT:      -7.8      2.762      6.907
  Name = 
  9 active torsions:
  status: ('A' for Active; 'I' for Inactive)
    1  A    between atoms: C_4  and  N_14
    2  A    between atoms: N_5  and  C_16
    3  A    between atoms: C_10  and  C_26
    4  A    between atoms: C_10  and  C_34
    5  A    between atoms: C_11  and  C_20
    6  A    between atoms: O_17  and  P_22
    7  A    between atoms: O_17  and  C_26
    8  A    between atoms: C_18  and  C_28
    9  A    between atoms: C_28  and  C_34
                            x       y       z     vdW  Elec       q    Type
                         _______ _______ _______ _____ _____    ______ ____

>  <TORSDO>
F 9

$$$$
=
 OpenBabel11052411053D

 34 37  0  0  1  0  0  0  0  0999 V2000
  161.1450  206.8380  152.7460 C   0  0  0  0  0  0  0  0  0  0  0  0
  161.0720  207.8480  153.7090 C   0  0  0  0  0  3  0  0  0  0  0  0
  160.9540  204.5630  151.9380 C   0  0  0  0  0  0  0  0  0  0  0  0
  161.4560  209.0890  153.1920 C   0  0  0  0  0  0  0  0  0  0  0  0
  161.1910  202.6390  149.9210 C   0  0  0  0  0  3  0  0  0  0  0  0
  160.8340  205.5000  152.9740 O   0  0  0  0  0  0  0  0  0  0  0  0
  161.6990  206.3690  150.3870 N   0  0  0  0  0  0  0  0  0  0  0  0
  161.8530  208.9160  151.5530 S   0  0  0  0  0  0  0  0  0  0  0  0
  160.6460  203.2250  152.2000 C   0  0  0  0  0  3  0  0  0  0  0  0
  160.7650  202.2650  151.1950 C   0  0  0  0  0  0  0  0  0  0  0  0
  161.5620  207.2610  151.5040 C   0  0  0  0  0  0  0  0  0  0  0  0
  161.4980  203.9740  149.6490 C   0  0  0  0  0  3  0  0  0  0  0  0
  160.4660  200.9710  151.4550 F   0  0  0  0  0  0  0  0  0  0  0  0
  161.3850  204.9620  150.6410 C   0  0  0  0  0  0  0  0  0  0  0  0
  160.2680  211.1910  154.0250 N   0  0  0  0  0  0  0  0  0  0  0  0
  161.4350  210.3500  153.9600 C   0  0  0  0  0  0  0  0  0  0  0  0
  162.4750  210.6900  154.5870 O   0  0  0  0  0  0  0  0  0  0  0  0
  159.3230  211.2700  152.9230 C   0  0  0  0  0  1  0  0  0  0  0  0
  159.8520  213.8680  157.0630 C   0  0  0  0  0  1  0  0  0  0  0  0
  160.1250  212.1140  155.0720 C   0  0  0  0  0  0  0  0  0  0  0  0
  160.0010  212.9070  155.9710 C   0  0  0  0  0  0  0  0  0  0  0  0
  162.1430  206.9850  149.1190 C   0  0  2  0  0  3  0  0  0  0  0  0
  161.1110  207.8800  148.4620 C   0  0  0  0  0  2  0  0  0  0  0  0
  161.3480  206.4740  147.9340 C   0  0  1  0  0  3  0  0  0  0  0  0
  162.2130  206.5430  146.6920 C   0  0  0  0  0  2  0  0  0  0  0  0
  162.9070  205.2100  146.4770 C   0  0  0  0  0  2  0  0  0  0  0  0
  162.5450  204.6430  145.1160 C   0  0  0  0  0  2  0  0  0  0  0  0
  160.1720  204.1960  144.8620 O   0  0  0  0  0  1  0  0  0  0  0  0
  161.4030  203.6370  145.2240 C   0  0  2  0  0  3  0  0  0  0  0  0
  161.3660  202.9880  146.4800 O   0  0  0  0  0  0  0  0  0  0  0  0
  161.5770  200.1990  146.8010 O   0  0  0  0  0  1  0  0  0  0  0  0
  160.0460  201.2550  144.7760 O   0  0  0  0  0  0  0  0  0  0  0  0
  160.5580  201.4810  146.3720 P   0  0  0  0  0  0  0  0  0  0  0  0
  159.3470  201.4830  147.2760 O   0  0  0  0  0  1  0  0  0  0  0  0
  1  6  1  0  0  0  0
  1  2  1  0  0  0  0
  3  9  1  0  0  0  0
  3  6  1  0  0  0  0
  4  2  2  0  0  0  0
  4 16  1  0  0  0  0
  5 10  1  0  0  0  0
  7 14  1  0  0  0  0
  7 11  1  0  0  0  0
  8  4  1  0  0  0  0
 10 13  1  0  0  0  0
 10  9  2  0  0  0  0
 11  8  1  0  0  0  0
 11  1  2  0  0  0  0
 12  5  2  0  0  0  0
 12 14  1  0  0  0  0
 14  3  2  0  0  0  0
 15 20  1  0  0  0  0
 16 15  1  0  0  0  0
 16 17  2  0  0  0  0
 18 15  1  0  0  0  0
 20 21  3  0  0  0  0
 21 19  1  0  0  0  0
 22 23  1  1  0  0  0
 22  7  1  0  0  0  0
 24 25  1  6  0  0  0
 24 23  1  0  0  0  0
 24 22  1  0  0  0  0
 26 25  1  0  0  0  0
 27 29  1  0  0  0  0
 27 26  1  0  0  0  0
 29 28  1  1  0  0  0
 29 30  1  0  0  0  0
 32 33  2  0  0  0  0
 33 30  1  0  0  0  0
 33 31  1  0  0  0  0
 33 34  1  0  0  0  0
M  END
>  <MODEL>
4

>  <REMARK>
 VINA RESULT:      -7.3      4.052      5.549
  Name = 
  9 active torsions:
  status: ('A' for Active; 'I' for Inactive)
    1  A    between atoms: C_4  and  N_14
    2  A    between atoms: N_5  and  C_16
    3  A    between atoms: C_10  and  C_26
    4  A    between atoms: C_10  and  C_34
    5  A    between atoms: C_11  and  C_20
    6  A    between atoms: O_17  and  P_22
    7  A    between atoms: O_17  and  C_26
    8  A    between atoms: C_18  and  C_28
    9  A    between atoms: C_28  and  C_34
                            x       y       z     vdW  Elec       q    Type
                         _______ _______ _______ _____ _____    ______ ____

>  <TORSDO>
F 9

$$$$
=
 OpenBabel11052411053D

 34 37  0  0  1  0  0  0  0  0999 V2000
  161.0630  204.3840  151.2320 C   0  0  0  0  0  0  0  0  0  0  0  0
  160.9910  203.0460  150.8350 C   0  0  0  0  0  3  0  0  0  0  0  0
  161.1190  206.1930  152.8410 C   0  0  0  0  0  0  0  0  0  0  0  0
  161.0080  202.9140  149.4440 C   0  0  0  0  0  0  0  0  0  0  0  0
  161.2260  208.9140  153.4840 C   0  0  0  0  0  3  0  0  0  0  0  0
  161.0540  204.8230  152.5540 O   0  0  0  0  0  0  0  0  0  0  0  0
  161.2300  206.7030  150.4020 N   0  0  0  0  0  0  0  0  0  0  0  0
  161.1390  204.4490  148.7350 S   0  0  0  0  0  0  0  0  0  0  0  0
  161.0960  206.6030  154.1770 C   0  0  0  0  0  3  0  0  0  0  0  0
  161.1490  207.9590  154.4990 C   0  0  0  0  0  0  0  0  0  0  0  0
  161.1470  205.2850  150.1940 C   0  0  0  0  0  0  0  0  0  0  0  0
  161.2520  208.5130  152.1470 C   0  0  0  0  0  3  0  0  0  0  0  0
  161.1260  208.3510  155.7950 F   0  0  0  0  0  0  0  0  0  0  0  0
  161.2030  207.1540  151.7940 C   0  0  0  0  0  0  0  0  0  0  0  0
  160.7590  201.5230  147.3160 N   0  0  0  0  0  0  0  0  0  0  0  0
  160.9920  201.6190  148.7340 C   0  0  0  0  0  0  0  0  0  0  0  0
  161.1990  200.5670  149.3970 O   0  0  0  0  0  0  0  0  0  0  0  0
  159.9190  202.4800  146.6150 C   0  0  0  0  0  1  0  0  0  0  0  0
  161.9530  198.2090  145.2760 C   0  0  0  0  0  1  0  0  0  0  0  0
  161.1710  200.3810  146.6130 C   0  0  0  0  0  0  0  0  0  0  0  0
  161.5250  199.3990  146.0090 C   0  0  0  0  0  0  0  0  0  0  0  0
  161.3290  207.5310  149.1820 C   0  0  2  0  0  3  0  0  0  0  0  0
  162.6930  207.5110  148.5210 C   0  0  0  0  0  2  0  0  0  0  0  0
  162.2730  208.7020  149.3690 C   0  0  1  0  0  3  0  0  0  0  0  0
  161.8400  209.8350  148.4620 C   0  0  0  0  0  2  0  0  0  0  0  0
  162.3240  211.1570  149.0300 C   0  0  0  0  0  2  0  0  0  0  0  0
  161.6450  212.3150  148.3190 C   0  0  0  0  0  2  0  0  0  0  0  0
  161.1560  214.4470  149.3730 O   0  0  0  0  0  1  0  0  0  0  0  0
  160.7620  213.1080  149.2770 C   0  0  2  0  0  3  0  0  0  0  0  0
  160.6260  212.4820  150.5390 O   0  0  0  0  0  0  0  0  0  0  0  0
  158.5980  211.7630  152.3550 O   0  0  0  0  0  1  0  0  0  0  0  0
  158.0090  213.2780  150.1370 O   0  0  0  0  0  0  0  0  0  0  0  0
  159.1800  212.9680  151.3170 P   0  0  0  0  0  0  0  0  0  0  0  0
  159.4240  214.2340  152.1050 O   0  0  0  0  0  1  0  0  0  0  0  0
  1  6  1  0  0  0  0
  2  1  1  0  0  0  0
  3  9  1  0  0  0  0
  4  2  2  0  0  0  0
  5 10  1  0  0  0  0
  6  3  1  0  0  0  0
  7 14  1  0  0  0  0
  8  4  1  0  0  0  0
  8 11  1  0  0  0  0
  9 10  2  0  0  0  0
 10 13  1  0  0  0  0
 11  7  1  0  0  0  0
 11  1  2  0  0  0  0
 12  5  2  0  0  0  0
 14 12  1  0  0  0  0
 14  3  2  0  0  0  0
 15 16  1  0  0  0  0
 16 17  2  0  0  0  0
 16  4  1  0  0  0  0
 18 15  1  0  0  0  0
 19 21  1  0  0  0  0
 20 15  1  0  0  0  0
 21 20  3  0  0  0  0
 22 23  1  6  0  0  0
 22 24  1  0  0  0  0
 22  7  1  0  0  0  0
 23 24  1  0  0  0  0
 24 25  1  6  0  0  0
 25 26  1  0  0  0  0
 27 26  1  0  0  0  0
 27 29  1  0  0  0  0
 29 28  1  1  0  0  0
 29 30  1  0  0  0  0
 30 33  1  0  0  0  0
 32 33  2  0  0  0  0
 33 34  1  0  0  0  0
 33 31  1  0  0  0  0
M  END
>  <MODEL>
5

>  <REMARK>
 VINA RESULT:      -7.3      3.192      7.244
  Name = 
  9 active torsions:
  status: ('A' for Active; 'I' for Inactive)
    1  A    between atoms: C_4  and  N_14
    2  A    between atoms: N_5  and  C_16
    3  A    between atoms: C_10  and  C_26
    4  A    between atoms: C_10  and  C_34
    5  A    between atoms: C_11  and  C_20
    6  A    between atoms: O_17  and  P_22
    7  A    between atoms: O_17  and  C_26
    8  A    between atoms: C_18  and  C_28
    9  A    between atoms: C_28  and  C_34
                            x       y       z     vdW  Elec       q    Type
                         _______ _______ _______ _____ _____    ______ ____

>  <TORSDO>
F 9

$$$$
=
 OpenBabel11052411053D

 34 37  0  0  1  0  0  0  0  0999 V2000
  161.8760  207.6120  149.2520 C   0  0  0  0  0  0  0  0  0  0  0  0
  162.1550  207.5200  147.8860 C   0  0  0  0  0  3  0  0  0  0  0  0
  161.6890  208.7570  151.3770 C   0  0  0  0  0  0  0  0  0  0  0  0
  161.9720  206.2200  147.4040 C   0  0  0  0  0  0  0  0  0  0  0  0
  161.1400  208.7810  154.1210 C   0  0  0  0  0  3  0  0  0  0  0  0
  161.9810  208.7780  150.0070 O   0  0  0  0  0  0  0  0  0  0  0  0
  161.1460  206.3280  151.2290 N   0  0  0  0  0  0  0  0  0  0  0  0
  161.4470  205.2210  148.6680 S   0  0  0  0  0  0  0  0  0  0  0  0
  161.8150  209.9410  152.1110 C   0  0  0  0  0  3  0  0  0  0  0  0
  161.5420  209.9530  153.4790 C   0  0  0  0  0  0  0  0  0  0  0  0
  161.4750  206.4320  149.8350 C   0  0  0  0  0  0  0  0  0  0  0  0
  161.0090  207.5950  153.3950 C   0  0  0  0  0  3  0  0  0  0  0  0
  161.6660  211.1020  154.1840 F   0  0  0  0  0  0  0  0  0  0  0  0
  161.2740  207.5540  152.0160 C   0  0  0  0  0  0  0  0  0  0  0  0
  161.0840  205.9550  145.0240 N   0  0  0  0  0  0  0  0  0  0  0  0
  162.1440  205.8290  145.9900 C   0  0  0  0  0  0  0  0  0  0  0  0
  163.2630  205.3780  145.6230 O   0  0  0  0  0  0  0  0  0  0  0  0
  159.6870  205.8280  145.4030 C   0  0  0  0  0  1  0  0  0  0  0  0
  161.9580  206.0780  141.0490 C   0  0  0  0  0  1  0  0  0  0  0  0
  161.3850  205.9970  143.6540 C   0  0  0  0  0  0  0  0  0  0  0  0
  161.6440  206.0330  142.4770 C   0  0  0  0  0  0  0  0  0  0  0  0
  160.7180  204.9910  151.6930 C   0  0  2  0  0  3  0  0  0  0  0  0
  161.2050  204.6250  153.0810 C   0  0  0  0  0  2  0  0  0  0  0  0
  161.8930  204.0470  151.8540 C   0  0  1  0  0  3  0  0  0  0  0  0
  161.4170  202.6250  151.6350 C   0  0  0  0  0  2  0  0  0  0  0  0
  160.4490  202.5850  150.4660 C   0  0  0  0  0  2  0  0  0  0  0  0
  160.2450  201.1530  150.0020 C   0  0  0  0  0  2  0  0  0  0  0  0
  162.0910  200.9530  148.4370 O   0  0  0  0  0  1  0  0  0  0  0  0
  160.6970  200.9740  148.5560 C   0  0  2  0  0  3  0  0  0  0  0  0
  160.0820  201.8940  147.6750 O   0  0  0  0  0  0  0  0  0  0  0  0
  159.2290  201.7060  144.9980 O   0  0  0  0  0  0  0  0  0  0  0  0
  161.2040  200.0470  145.9500 O   0  0  0  0  0  1  0  0  0  0  0  0
  160.5500  201.6030  146.0530 P   0  0  0  0  0  0  0  0  0  0  0  0
  161.6040  202.6030  145.6360 O   0  0  0  0  0  1  0  0  0  0  0  0
  1 11  2  0  0  0  0
  1  6  1  0  0  0  0
  2  1  1  0  0  0  0
  3 14  2  0  0  0  0
  3  9  1  0  0  0  0
  4  2  2  0  0  0  0
  4  8  1  0  0  0  0
  6  3  1  0  0  0  0
  7 14  1  0  0  0  0
  8 11  1  0  0  0  0
  9 10  2  0  0  0  0
 10  5  1  0  0  0  0
 10 13  1  0  0  0  0
 11  7  1  0  0  0  0
 12  5  2  0  0  0  0
 14 12  1  0  0  0  0
 15 18  1  0  0  0  0
 15 16  1  0  0  0  0
 16  4  1  0  0  0  0
 17 16  2  0  0  0  0
 19 21  1  0  0  0  0
 20 15  1  0  0  0  0
 21 20  3  0  0  0  0
 22  7  1  6  0  0  0
 22 24  1  0  0  0  0
 22 23  1  0  0  0  0
 24 25  1  1  0  0  0
 24 23  1  0  0  0  0
 26 25  1  0  0  0  0
 27 26  1  0  0  0  0
 29 28  1  1  0  0  0
 29 27  1  0  0  0  0
 30 29  1  0  0  0  0
 31 33  2  0  0  0  0
 32 33  1  0  0  0  0
 33 30  1  0  0  0  0
 34 33  1  0  0  0  0
M  END
>  <MODEL>
6

>  <REMARK>
 VINA RESULT:      -7.1      4.603      9.225
  Name = 
  9 active torsions:
  status: ('A' for Active; 'I' for Inactive)
    1  A    between atoms: C_4  and  N_14
    2  A    between atoms: N_5  and  C_16
    3  A    between atoms: C_10  and  C_26
    4  A    between atoms: C_10  and  C_34
    5  A    between atoms: C_11  and  C_20
    6  A    between atoms: O_17  and  P_22
    7  A    between atoms: O_17  and  C_26
    8  A    between atoms: C_18  and  C_28
    9  A    between atoms: C_28  and  C_34
                            x       y       z     vdW  Elec       q    Type
                         _______ _______ _______ _____ _____    ______ ____

>  <TORSDO>
F 9

$$$$
=
 OpenBabel11052411053D

 34 37  0  0  1  0  0  0  0  0999 V2000
  161.0400  205.5560  151.5650 C   0  0  0  0  0  0  0  0  0  0  0  0
  161.0690  204.4700  150.6870 C   0  0  0  0  0  3  0  0  0  0  0  0
  160.8410  206.6180  153.7330 C   0  0  0  0  0  0  0  0  0  0  0  0
  161.2460  204.8760  149.3610 C   0  0  0  0  0  0  0  0  0  0  0  0
  160.7590  208.8900  155.3630 C   0  0  0  0  0  3  0  0  0  0  0  0
  160.8670  205.4590  152.9430 O   0  0  0  0  0  0  0  0  0  0  0  0
  161.1970  208.0160  151.6990 N   0  0  0  0  0  0  0  0  0  0  0  0
  161.3870  206.5650  149.3050 S   0  0  0  0  0  0  0  0  0  0  0  0
  160.6530  206.4890  155.1120 C   0  0  0  0  0  3  0  0  0  0  0  0
  160.6120  207.6210  155.9260 C   0  0  0  0  0  0  0  0  0  0  0  0
  161.1990  206.7840  150.9620 C   0  0  0  0  0  0  0  0  0  0  0  0
  160.9490  209.0280  153.9870 C   0  0  0  0  0  3  0  0  0  0  0  0
  160.4300  207.4900  157.2610 F   0  0  0  0  0  0  0  0  0  0  0  0
  160.9980  207.9040  153.1440 C   0  0  0  0  0  0  0  0  0  0  0  0
  160.8640  202.5990  148.2700 N   0  0  0  0  0  0  0  0  0  0  0  0
  161.3630  203.9480  148.2180 C   0  0  0  0  0  0  0  0  0  0  0  0
  161.9120  204.3630  147.1610 O   0  0  0  0  0  0  0  0  0  0  0  0
  160.8260  201.8470  149.5140 C   0  0  0  0  0  1  0  0  0  0  0  0
  160.0800  200.5840  144.8210 C   0  0  0  0  0  1  0  0  0  0  0  0
  160.5940  201.9040  147.0820 C   0  0  0  0  0  0  0  0  0  0  0  0
  160.3620  201.3070  146.0600 C   0  0  0  0  0  0  0  0  0  0  0  0
  161.3940  209.2450  150.9020 C   0  0  2  0  0  3  0  0  0  0  0  0
  162.6760  209.9930  151.2110 C   0  0  0  0  0  2  0  0  0  0  0  0
  161.3500  210.4910  151.7650 C   0  0  1  0  0  3  0  0  0  0  0  0
  160.8610  211.6550  150.9270 C   0  0  0  0  0  2  0  0  0  0  0  0
  160.0110  212.5770  151.7820 C   0  0  0  0  0  2  0  0  0  0  0  0
  158.8370  211.8150  152.3710 C   0  0  0  0  0  2  0  0  0  0  0  0
  159.8700  212.3160  154.5110 O   0  0  0  0  0  1  0  0  0  0  0  0
  158.6490  212.1500  153.8480 C   0  0  2  0  0  3  0  0  0  0  0  0
  157.7840  211.2450  154.5060 O   0  0  0  0  0  0  0  0  0  0  0  0
  155.6090  213.0060  154.2010 O   0  0  0  0  0  0  0  0  0  0  0  0
  157.1660  213.0950  156.4650 O   0  0  0  0  0  1  0  0  0  0  0  0
  156.5060  212.0720  155.2920 P   0  0  0  0  0  0  0  0  0  0  0  0
  155.5930  211.0770  155.9700 O   0  0  0  0  0  1  0  0  0  0  0  0
  1  6  1  0  0  0  0
  2  1  1  0  0  0  0
  3  9  1  0  0  0  0
  4  2  2  0  0  0  0
  5 10  1  0  0  0  0
  6  3  1  0  0  0  0
  7 14  1  0  0  0  0
  8  4  1  0  0  0  0
  8 11  1  0  0  0  0
  9 10  2  0  0  0  0
 10 13  1  0  0  0  0
 11  1  2  0  0  0  0
 11  7  1  0  0  0  0
 12  5  2  0  0  0  0
 14  3  2  0  0  0  0
 14 12  1  0  0  0  0
 15 18  1  0  0  0  0
 16 15  1  0  0  0  0
 16  4  1  0  0  0  0
 17 16  2  0  0  0  0
 19 21  1  0  0  0  0
 20 15  1  0  0  0  0
 21 20  3  0  0  0  0
 22 23  1  1  0  0  0
 22  7  1  0  0  0  0
 22 24  1  0  0  0  0
 23 24  1  0  0  0  0
 24 25  1  6  0  0  0
 25 26  1  0  0  0  0
 26 27  1  0  0  0  0
 27 29  1  0  0  0  0
 29 30  1  0  0  0  0
 29 28  1  1  0  0  0
 30 33  1  0  0  0  0
 31 33  2  0  0  0  0
 33 34  1  0  0  0  0
 33 32  1  0  0  0  0
M  END
>  <MODEL>
7

>  <REMARK>
 VINA RESULT:      -7.0      4.380      7.976
  Name = 
  9 active torsions:
  status: ('A' for Active; 'I' for Inactive)
    1  A    between atoms: C_4  and  N_14
    2  A    between atoms: N_5  and  C_16
    3  A    between atoms: C_10  and  C_26
    4  A    between atoms: C_10  and  C_34
    5  A    between atoms: C_11  and  C_20
    6  A    between atoms: O_17  and  P_22
    7  A    between atoms: O_17  and  C_26
    8  A    between atoms: C_18  and  C_28
    9  A    between atoms: C_28  and  C_34
                            x       y       z     vdW  Elec       q    Type
                         _______ _______ _______ _____ _____    ______ ____

>  <TORSDO>
F 9

$$$$
=
 OpenBabel11052411053D

 34 37  0  0  1  0  0  0  0  0999 V2000
  161.1160  206.0630  151.4690 C   0  0  0  0  0  0  0  0  0  0  0  0
  161.0320  204.9860  150.5830 C   0  0  0  0  0  3  0  0  0  0  0  0
  160.8560  207.1660  153.6090 C   0  0  0  0  0  0  0  0  0  0  0  0
  161.4680  205.3310  149.3010 C   0  0  0  0  0  0  0  0  0  0  0  0
  161.0390  209.4210  155.2550 C   0  0  0  0  0  3  0  0  0  0  0  0
  160.7410  206.0210  152.8090 O   0  0  0  0  0  0  0  0  0  0  0  0
  161.7720  208.4350  151.6670 N   0  0  0  0  0  0  0  0  0  0  0  0
  161.9710  206.9500  149.2950 S   0  0  0  0  0  0  0  0  0  0  0  0
  160.4600  207.0960  154.9480 C   0  0  0  0  0  3  0  0  0  0  0  0
  160.5510  208.2200  155.7690 C   0  0  0  0  0  0  0  0  0  0  0  0
  161.6120  207.2220  150.9150 C   0  0  0  0  0  0  0  0  0  0  0  0
  161.4390  209.5000  153.9190 C   0  0  0  0  0  3  0  0  0  0  0  0
  160.1660  208.1450  157.0650 F   0  0  0  0  0  0  0  0  0  0  0  0
  161.3610  208.3830  153.0700 C   0  0  0  0  0  0  0  0  0  0  0  0
  161.0500  203.0360  148.2610 N   0  0  0  0  0  0  0  0  0  0  0  0
  161.5390  204.3870  148.1670 C   0  0  0  0  0  0  0  0  0  0  0  0
  162.0380  204.7880  147.0800 O   0  0  0  0  0  0  0  0  0  0  0  0
  161.0720  202.3020  149.5160 C   0  0  0  0  0  1  0  0  0  0  0  0
  160.1230  200.9670  144.8800 C   0  0  0  0  0  1  0  0  0  0  0  0
  160.7300  202.3230  147.0960 C   0  0  0  0  0  0  0  0  0  0  0  0
  160.4560  201.7100  146.0950 C   0  0  0  0  0  0  0  0  0  0  0  0
  162.3330  209.5850  150.9270 C   0  0  2  0  0  3  0  0  0  0  0  0
  161.6010  210.8920  151.1540 C   0  0  0  0  0  2  0  0  0  0  0  0
  161.3720  210.1010  149.8750 C   0  0  1  0  0  3  0  0  0  0  0  0
  162.1650  210.7290  148.7470 C   0  0  0  0  0  2  0  0  0  0  0  0
  161.2460  211.5780  147.8870 C   0  0  0  0  0  2  0  0  0  0  0  0
  162.0050  212.7620  147.3150 C   0  0  0  0  0  2  0  0  0  0  0  0
  162.7710  213.3790  145.0950 O   0  0  0  0  0  1  0  0  0  0  0  0
  161.6590  212.9790  145.8450 C   0  0  2  0  0  3  0  0  0  0  0  0
  160.5410  213.8280  145.6670 O   0  0  0  0  0  0  0  0  0  0  0  0
  158.5930  214.0750  143.6500 O   0  0  0  0  0  0  0  0  0  0  0  0
  158.1090  212.5300  145.8720 O   0  0  0  0  0  1  0  0  0  0  0  0
  159.3010  213.0400  144.7870 P   0  0  0  0  0  0  0  0  0  0  0  0
  159.8660  211.8290  144.0790 O   0  0  0  0  0  1  0  0  0  0  0  0
  1  6  1  0  0  0  0
  2  1  1  0  0  0  0
  3  9  1  0  0  0  0
  4  2  2  0  0  0  0
  5 10  1  0  0  0  0
  6  3  1  0  0  0  0
  7 14  1  0  0  0  0
  8  4  1  0  0  0  0
  8 11  1  0  0  0  0
  9 10  2  0  0  0  0
 10 13  1  0  0  0  0
 11  1  2  0  0  0  0
 11  7  1  0  0  0  0
 12  5  2  0  0  0  0
 14  3  2  0  0  0  0
 14 12  1  0  0  0  0
 15 18  1  0  0  0  0
 16 15  1  0  0  0  0
 16  4  1  0  0  0  0
 17 16  2  0  0  0  0
 19 21  1  0  0  0  0
 20 15  1  0  0  0  0
 21 20  3  0  0  0  0
 22 23  1  1  0  0  0
 22  7  1  0  0  0  0
 24 25  1  6  0  0  0
 24 22  1  0  0  0  0
 24 23  1  0  0  0  0
 26 25  1  0  0  0  0
 27 26  1  0  0  0  0
 29 28  1  6  0  0  0
 29 27  1  0  0  0  0
 30 29  1  0  0  0  0
 31 33  2  0  0  0  0
 33 30  1  0  0  0  0
 33 32  1  0  0  0  0
 34 33  1  0  0  0  0
M  END
>  <MODEL>
8

>  <REMARK>
 VINA RESULT:      -6.7      2.699      6.801
  Name = 
  9 active torsions:
  status: ('A' for Active; 'I' for Inactive)
    1  A    between atoms: C_4  and  N_14
    2  A    between atoms: N_5  and  C_16
    3  A    between atoms: C_10  and  C_26
    4  A    between atoms: C_10  and  C_34
    5  A    between atoms: C_11  and  C_20
    6  A    between atoms: O_17  and  P_22
    7  A    between atoms: O_17  and  C_26
    8  A    between atoms: C_18  and  C_28
    9  A    between atoms: C_28  and  C_34
                            x       y       z     vdW  Elec       q    Type
                         _______ _______ _______ _____ _____    ______ ____

>  <TORSDO>
F 9

$$$$
=
 OpenBabel11052411053D

 34 37  0  0  1  0  0  0  0  0999 V2000
  161.0190  204.6660  151.5660 C   0  0  0  0  0  0  0  0  0  0  0  0
  160.9820  205.1580  152.8730 C   0  0  0  0  0  3  0  0  0  0  0  0
  161.1010  202.9300  149.8790 C   0  0  0  0  0  0  0  0  0  0  0  0
  160.9670  206.5560  152.9030 C   0  0  0  0  0  0  0  0  0  0  0  0
  161.2200  202.0930  147.2120 C   0  0  0  0  0  3  0  0  0  0  0  0
  161.0520  203.3160  151.2260 O   0  0  0  0  0  0  0  0  0  0  0  0
  161.0590  205.3260  149.1880 N   0  0  0  0  0  0  0  0  0  0  0  0
  160.9750  207.1520  151.3170 S   0  0  0  0  0  0  0  0  0  0  0  0
  161.1460  201.5680  149.5690 C   0  0  0  0  0  3  0  0  0  0  0  0
  161.2050  201.1500  148.2400 C   0  0  0  0  0  0  0  0  0  0  0  0
  161.0230  205.6370  150.5900 C   0  0  0  0  0  0  0  0  0  0  0  0
  161.1730  203.4560  147.5120 C   0  0  0  0  0  3  0  0  0  0  0  0
  161.2490  199.8290  147.9460 F   0  0  0  0  0  0  0  0  0  0  0  0
  161.1090  203.9060  148.8420 C   0  0  0  0  0  0  0  0  0  0  0  0
  160.9720  208.7940  154.1330 N   0  0  0  0  0  0  0  0  0  0  0  0
  160.8800  207.3570  154.1410 C   0  0  0  0  0  0  0  0  0  0  0  0
  160.7110  206.7560  155.2360 O   0  0  0  0  0  0  0  0  0  0  0  0
  161.7640  209.5030  153.1410 C   0  0  0  0  0  1  0  0  0  0  0  0
  159.4990  210.9450  157.2600 C   0  0  0  0  0  1  0  0  0  0  0  0
  160.4640  209.5350  155.2110 C   0  0  0  0  0  0  0  0  0  0  0  0
  160.0280  210.1710  156.1370 C   0  0  0  0  0  0  0  0  0  0  0  0
  161.0420  206.4840  148.2700 C   0  0  2  0  0  3  0  0  0  0  0  0
  162.0360  206.3940  147.1290 C   0  0  0  0  0  2  0  0  0  0  0  0
  162.3330  207.2750  148.3330 C   0  0  1  0  0  3  0  0  0  0  0  0
  162.0460  208.7200  147.9820 C   0  0  0  0  0  2  0  0  0  0  0  0
  162.6210  209.6300  149.0520 C   0  0  0  0  0  2  0  0  0  0  0  0
  161.5390  210.5430  149.6020 C   0  0  0  0  0  2  0  0  0  0  0  0
  162.4730  211.9330  147.8430 O   0  0  0  0  0  1  0  0  0  0  0  0
  161.4920  211.8640  148.8390 C   0  0  2  0  0  3  0  0  0  0  0  0
  161.4960  212.9890  149.6950 O   0  0  0  0  0  0  0  0  0  0  0  0
  159.6270  211.8670  151.4770 O   0  0  0  0  0  1  0  0  0  0  0  0
  158.7780  213.2930  149.2850 O   0  0  0  0  0  0  0  0  0  0  0  0
  159.9800  213.1810  150.4700 P   0  0  0  0  0  0  0  0  0  0  0  0
  159.9790  214.4530  151.2860 O   0  0  0  0  0  1  0  0  0  0  0  0
  1  2  1  0  0  0  0
  2  4  2  0  0  0  0
  3  6  1  0  0  0  0
  4 16  1  0  0  0  0
  5 12  2  0  0  0  0
  5 10  1  0  0  0  0
  6  1  1  0  0  0  0
  7 11  1  0  0  0  0
  8  4  1  0  0  0  0
  9  3  1  0  0  0  0
 10  9  2  0  0  0  0
 11  8  1  0  0  0  0
 11  1  2  0  0  0  0
 12 14  1  0  0  0  0
 13 10  1  0  0  0  0
 14  7  1  0  0  0  0
 14  3  2  0  0  0  0
 15 16  1  0  0  0  0
 15 20  1  0  0  0  0
 16 17  2  0  0  0  0
 18 15  1  0  0  0  0
 20 21  3  0  0  0  0
 21 19  1  0  0  0  0
 22 23  1  6  0  0  0
 22 24  1  0  0  0  0
 22  7  1  0  0  0  0
 23 24  1  0  0  0  0
 24 25  1  6  0  0  0
 25 26  1  0  0  0  0
 26 27  1  0  0  0  0
 29 28  1  6  0  0  0
 29 27  1  0  0  0  0
 29 30  1  0  0  0  0
 30 33  1  0  0  0  0
 32 33  2  0  0  0  0
 33 34  1  0  0  0  0
 33 31  1  0  0  0  0
M  END
>  <MODEL>
9

>  <REMARK>
 VINA RESULT:      -6.6      1.650      2.190
  Name = 
  9 active torsions:
  status: ('A' for Active; 'I' for Inactive)
    1  A    between atoms: C_4  and  N_14
    2  A    between atoms: N_5  and  C_16
    3  A    between atoms: C_10  and  C_26
    4  A    between atoms: C_10  and  C_34
    5  A    between atoms: C_11  and  C_20
    6  A    between atoms: O_17  and  P_22
    7  A    between atoms: O_17  and  C_26
    8  A    between atoms: C_18  and  C_28
    9  A    between atoms: C_28  and  C_34
                            x       y       z     vdW  Elec       q    Type
                         _______ _______ _______ _____ _____    ______ ____

>  <TORSDO>
F 9

$$$$
