=
 OpenBabel11052410353D

 40 43  0  0  1  0  0  0  0  0999 V2000
  160.6810  200.9640  146.6640 N   0  0  0  0  0  2  0  0  0  0  0  0
  161.0360  203.5590  149.1570 C   0  0  0  0  0  0  0  0  0  0  0  0
  160.9420  202.6980  150.3200 C   0  0  0  0  0  0  0  0  0  0  0  0
  160.6410  204.8120  151.0010 C   0  0  0  0  0  0  0  0  0  0  0  0
  161.0270  201.3740  150.2720 C   0  0  0  0  0  3  0  0  0  0  0  0
  161.2180  203.0360  147.7740 C   0  0  0  0  0  2  0  0  0  0  0  0
  160.8870  204.8140  149.5500 C   0  0  0  0  0  0  0  0  0  0  0  0
  160.6790  203.5580  151.4500 C   0  0  0  0  0  0  0  0  0  0  0  0
  160.9650  201.5450  147.7680 C   0  0  0  0  0  0  0  0  0  0  0  0
  161.3580  200.6980  148.9600 C   0  0  0  0  0  2  0  0  0  0  0  0
  160.4520  203.1690  152.7290 F   0  0  0  0  0  0  0  0  0  0  0  0
  160.8720  206.0220  148.6640 C   0  0  0  0  0  2  0  0  0  0  0  0
  162.2790  206.4070  148.1930 C   0  0  2  0  0  3  0  0  0  0  0  0
  163.2840  206.9330  150.8990 O   0  0  0  0  0  0  0  0  0  0  0  0
  162.2460  209.0400  150.9640 C   0  0  0  0  0  3  0  0  0  0  0  0
  162.6760  207.8000  148.7210 C   0  0  1  0  0  3  0  0  0  0  0  0
  161.7040  208.8680  148.1890 C   0  0  0  0  0  2  0  0  0  0  0  0
  161.9810  210.2260  148.8230 C   0  0  0  0  0  2  0  0  0  0  0  0
  162.7410  207.8570  150.2400 C   0  0  0  0  0  0  0  0  0  0  0  0
  161.8580  210.1350  150.3100 C   0  0  0  0  0  3  0  0  0  0  0  0
  162.3170  206.3630  146.6710 C   0  0  0  0  0  2  0  0  0  0  0  0
  160.9820  206.0670  146.1590 N   0  0  0  0  0  2  0  0  0  0  0  0
  162.2550  204.4240  145.0420 O   0  0  0  0  0  1  0  0  0  0  0  0
  160.9750  205.8770  143.8120 O   0  0  0  0  0  1  0  0  0  0  0  0
  161.0700  205.1620  145.0110 C   0  0  0  0  0  3  0  0  0  0  0  0
  160.3710  206.0270  151.8250 C   0  0  0  0  0  2  0  0  0  0  0  0
  161.0720  205.9410  153.1420 C   0  0  0  0  0  3  0  0  0  0  0  0
  161.1410  206.9660  153.9900 C   0  0  0  0  0  0  0  0  0  0  0  0
  161.7900  206.7960  155.2080 O   0  0  0  0  0  1  0  0  0  0  0  0
  160.5310  208.2960  153.6680 C   0  0  0  0  0  2  0  0  0  0  0  0
  160.9070  209.3160  154.7270 C   0  0  0  0  0  2  0  0  0  0  0  0
  161.1000  210.6600  154.0670 C   0  0  0  0  0  2  0  0  0  0  0  0
  159.8060  211.0730  153.3880 C   0  0  0  0  0  2  0  0  0  0  0  0
  159.1550  212.2000  154.1630 C   0  0  0  0  0  2  0  0  0  0  0  0
  158.9040  213.4100  153.2620 C   0  0  0  0  0  2  0  0  0  0  0  0
  159.4720  213.1990  151.8640 C   0  0  0  0  0  2  0  0  0  0  0  0
  157.7440  213.2290  150.1220 C   0  0  2  0  0  3  0  0  0  0  0  0
  157.4030  213.8940  148.8070 C   0  0  0  0  0  1  0  0  0  0  0  0
  157.3670  214.0840  151.1760 O   0  0  0  0  0  0  0  0  0  0  0  0
  158.7350  214.0520  150.8520 C   0  0  1  0  0  3  0  0  0  0  0  0
  1  9  2  0  0  0  0
  2  7  2  0  0  0  0
  2  3  1  0  0  0  0
  3  8  1  0  0  0  0
  4  8  2  0  0  0  0
  4 26  1  0  0  0  0
  5  3  2  0  0  0  0
  6  2  1  0  0  0  0
  7  4  1  0  0  0  0
  8 11  1  0  0  0  0
  9  6  1  0  0  0  0
  9 10  1  0  0  0  0
 10  5  1  0  0  0  0
 12  7  1  0  0  0  0
 13 21  1  6  0  0  0
 13 12  1  0  0  0  0
 16 13  1  1  0  0  0
 16 19  1  0  0  0  0
 17 16  1  0  0  0  0
 17 18  1  0  0  0  0
 18 20  1  0  0  0  0
 19 14  2  0  0  0  0
 19 15  1  0  0  0  0
 20 15  2  0  0  0  0
 22 21  1  0  0  0  0
 24 25  1  0  0  0  0
 25 23  1  0  0  0  0
 25 22  1  0  0  0  0
 26 27  1  0  0  0  0
 27 28  2  0  0  0  0
 28 29  1  0  0  0  0
 30 28  1  0  0  0  0
 30 31  1  0  0  0  0
 32 31  1  0  0  0  0
 33 32  1  0  0  0  0
 33 34  1  0  0  0  0
 35 34  1  0  0  0  0
 36 35  1  0  0  0  0
 37 38  1  6  0  0  0
 37 40  1  0  0  0  0
 37 39  1  0  0  0  0
 40 39  1  0  0  0  0
 40 36  1  1  0  0  0
M  END
>  <MODEL>
1

>  <REMARK>
 VINA RESULT:      -7.2      0.000      0.000
  Name = 
  16 active torsions:
  status: ('A' for Active; 'I' for Inactive)
    1  A    between atoms: C_3  and  C_12
    2  A    between atoms: C_3  and  C_34
    3  A    between atoms: C_4  and  C_14
    4  A    between atoms: C_4  and  C_17
    5  A    between atoms: C_5  and  C_20
    6  A    between atoms: C_7  and  C_23
    7  A    between atoms: C_10  and  C_20
    8  A    between atoms: C_11  and  C_19
    9  A    between atoms: C_11  and  C_22
   10  A    between atoms: C_11  and  C_31
   11  A    between atoms: C_12  and  C_14
   12  A    between atoms: C_22  and  N_35
   13  A    between atoms: C_23  and  C_38
   14  A    between atoms: C_24  and  C_31
   15  A    between atoms: C_34  and  C_38
   16  A    between atoms: N_35  and  C_40
                            x       y       z     vdW  Elec       q    Type
                         _______ _______ _______ _____ _____    ______ ____

>  <TORSDO>
F 16

$$$$
=
 OpenBabel11052410353D

 40 43  0  0  1  0  0  0  0  0999 V2000
  160.8290  209.5100  157.2610 N   0  0  0  0  0  2  0  0  0  0  0  0
  161.1110  208.8150  153.7240 C   0  0  0  0  0  0  0  0  0  0  0  0
  160.8590  207.3890  153.8050 C   0  0  0  0  0  0  0  0  0  0  0  0
  161.7420  207.8210  151.7900 C   0  0  0  0  0  0  0  0  0  0  0  0
  160.3790  206.7810  154.8830 C   0  0  0  0  0  3  0  0  0  0  0  0
  160.8740  209.7460  154.8630 C   0  0  0  0  0  2  0  0  0  0  0  0
  161.6080  209.0870  152.5270 C   0  0  0  0  0  0  0  0  0  0  0  0
  161.2940  206.8210  152.5500 C   0  0  0  0  0  0  0  0  0  0  0  0
  160.6610  208.9440  156.1260 C   0  0  0  0  0  0  0  0  0  0  0  0
  159.9480  207.6080  156.0730 C   0  0  0  0  0  2  0  0  0  0  0  0
  161.3030  205.5080  152.2150 F   0  0  0  0  0  0  0  0  0  0  0  0
  162.0510  210.4320  152.0390 C   0  0  0  0  0  2  0  0  0  0  0  0
  160.9120  211.1980  151.3550 C   0  0  2  0  0  3  0  0  0  0  0  0
  159.7090  213.7310  150.4910 O   0  0  0  0  0  0  0  0  0  0  0  0
  160.2990  213.3440  148.2510 C   0  0  0  0  0  3  0  0  0  0  0  0
  161.4490  212.0730  150.2030 C   0  0  1  0  0  3  0  0  0  0  0  0
  161.9500  211.1850  149.0510 C   0  0  0  0  0  2  0  0  0  0  0  0
  162.3380  212.0270  147.8400 C   0  0  0  0  0  2  0  0  0  0  0  0
  160.4200  213.0700  149.6930 C   0  0  0  0  0  0  0  0  0  0  0  0
  161.1680  212.8330  147.3780 C   0  0  0  0  0  3  0  0  0  0  0  0
  160.1920  212.0420  152.3990 C   0  0  0  0  0  2  0  0  0  0  0  0
  158.8340  211.5380  152.5780 N   0  0  0  0  0  2  0  0  0  0  0  0
  157.1580  213.1240  153.0770 O   0  0  0  0  0  1  0  0  0  0  0  0
  159.0600  213.0640  154.3580 O   0  0  0  0  0  1  0  0  0  0  0  0
  158.1460  212.3010  153.6220 C   0  0  0  0  0  3  0  0  0  0  0  0
  162.3120  207.6850  150.4170 C   0  0  0  0  0  2  0  0  0  0  0  0
  161.2240  207.5500  149.4010 C   0  0  0  0  0  3  0  0  0  0  0  0
  160.9590  206.4040  148.7770 C   0  0  0  0  0  0  0  0  0  0  0  0
  159.9110  206.3550  147.8650 O   0  0  0  0  0  1  0  0  0  0  0  0
  161.7580  205.1630  149.0370 C   0  0  0  0  0  2  0  0  0  0  0  0
  160.8370  203.9670  149.1860 C   0  0  0  0  0  2  0  0  0  0  0  0
  161.0950  203.3110  150.5200 C   0  0  0  0  0  2  0  0  0  0  0  0
  160.8340  201.8210  150.4030 C   0  0  0  0  0  2  0  0  0  0  0  0
  160.3430  201.4910  149.0080 C   0  0  0  0  0  2  0  0  0  0  0  0
  161.3270  200.5730  148.2830 C   0  0  0  0  0  2  0  0  0  0  0  0
  161.1510  200.6390  146.7710 C   0  0  0  0  0  2  0  0  0  0  0  0
  161.3900  202.6900  145.4450 C   0  0  2  0  0  3  0  0  0  0  0  0
  161.0220  204.1570  145.4610 C   0  0  0  0  0  1  0  0  0  0  0  0
  160.2890  201.9490  144.9740 O   0  0  0  0  0  0  0  0  0  0  0  0
  160.4990  201.9450  146.3640 C   0  0  1  0  0  3  0  0  0  0  0  0
  2  3  1  0  0  0  0
  2  6  1  0  0  0  0
  3  5  2  0  0  0  0
  4  7  1  0  0  0  0
  4  8  2  0  0  0  0
  5 10  1  0  0  0  0
  6  9  1  0  0  0  0
  7  2  2  0  0  0  0
  8  3  1  0  0  0  0
  9  1  2  0  0  0  0
 10  9  1  0  0  0  0
 11  8  1  0  0  0  0
 12  7  1  0  0  0  0
 13 12  1  1  0  0  0
 13 21  1  0  0  0  0
 15 19  1  0  0  0  0
 16 13  1  1  0  0  0
 17 16  1  0  0  0  0
 18 17  1  0  0  0  0
 19 16  1  0  0  0  0
 19 14  2  0  0  0  0
 20 18  1  0  0  0  0
 20 15  2  0  0  0  0
 21 22  1  0  0  0  0
 22 25  1  0  0  0  0
 23 25  1  0  0  0  0
 25 24  1  0  0  0  0
 26  4  1  0  0  0  0
 27 26  1  0  0  0  0
 28 30  1  0  0  0  0
 28 27  2  0  0  0  0
 29 28  1  0  0  0  0
 30 31  1  0  0  0  0
 31 32  1  0  0  0  0
 33 32  1  0  0  0  0
 34 33  1  0  0  0  0
 35 34  1  0  0  0  0
 36 35  1  0  0  0  0
 37 38  1  1  0  0  0
 37 40  1  0  0  0  0
 39 37  1  0  0  0  0
 39 40  1  0  0  0  0
 40 36  1  6  0  0  0
M  END
>  <MODEL>
2

>  <REMARK>
 VINA RESULT:      -7.0      3.161      8.753
  Name = 
  16 active torsions:
  status: ('A' for Active; 'I' for Inactive)
    1  A    between atoms: C_3  and  C_12
    2  A    between atoms: C_3  and  C_34
    3  A    between atoms: C_4  and  C_14
    4  A    between atoms: C_4  and  C_17
    5  A    between atoms: C_5  and  C_20
    6  A    between atoms: C_7  and  C_23
    7  A    between atoms: C_10  and  C_20
    8  A    between atoms: C_11  and  C_19
    9  A    between atoms: C_11  and  C_22
   10  A    between atoms: C_11  and  C_31
   11  A    between atoms: C_12  and  C_14
   12  A    between atoms: C_22  and  N_35
   13  A    between atoms: C_23  and  C_38
   14  A    between atoms: C_24  and  C_31
   15  A    between atoms: C_34  and  C_38
   16  A    between atoms: N_35  and  C_40
                            x       y       z     vdW  Elec       q    Type
                         _______ _______ _______ _____ _____    ______ ____

>  <TORSDO>
F 16

$$$$
=
 OpenBabel11052410353D

 40 43  0  0  1  0  0  0  0  0999 V2000
  161.3550  209.1080  157.2350 N   0  0  0  0  0  2  0  0  0  0  0  0
  161.2060  208.7090  153.6440 C   0  0  0  0  0  0  0  0  0  0  0  0
  160.9210  207.2870  153.6380 C   0  0  0  0  0  0  0  0  0  0  0  0
  161.5800  207.8680  151.5760 C   0  0  0  0  0  0  0  0  0  0  0  0
  160.5500  206.6010  154.7120 C   0  0  0  0  0  3  0  0  0  0  0  0
  161.1310  209.5460  154.8750 C   0  0  0  0  0  2  0  0  0  0  0  0
  161.5700  209.0700  152.4240 C   0  0  0  0  0  0  0  0  0  0  0  0
  161.1920  206.8180  152.2990 C   0  0  0  0  0  0  0  0  0  0  0  0
  161.0390  208.6440  156.0850 C   0  0  0  0  0  0  0  0  0  0  0  0
  160.2850  207.3330  156.0080 C   0  0  0  0  0  2  0  0  0  0  0  0
  161.1220  205.5370  151.8600 F   0  0  0  0  0  0  0  0  0  0  0  0
  161.9950  210.4420  151.9980 C   0  0  0  0  0  2  0  0  0  0  0  0
  160.8340  211.2420  151.3960 C   0  0  2  0  0  3  0  0  0  0  0  0
  159.2990  213.4920  150.3030 O   0  0  0  0  0  0  0  0  0  0  0  0
  160.1980  213.1700  148.1560 C   0  0  0  0  0  3  0  0  0  0  0  0
  161.3310  212.1750  150.2720 C   0  0  1  0  0  3  0  0  0  0  0  0
  162.1100  211.3680  149.2170 C   0  0  0  0  0  2  0  0  0  0  0  0
  162.4730  212.2400  148.0200 C   0  0  0  0  0  2  0  0  0  0  0  0
  160.2040  212.9550  149.6130 C   0  0  0  0  0  0  0  0  0  0  0  0
  161.2360  212.8080  147.4030 C   0  0  0  0  0  3  0  0  0  0  0  0
  160.1520  212.0310  152.5060 C   0  0  0  0  0  2  0  0  0  0  0  0
  158.8480  211.4400  152.7920 N   0  0  0  0  0  2  0  0  0  0  0  0
  157.6850  211.2870  154.8390 O   0  0  0  0  0  1  0  0  0  0  0  0
  157.1710  212.9830  153.3830 O   0  0  0  0  0  1  0  0  0  0  0  0
  158.1920  212.1670  153.8810 C   0  0  0  0  0  3  0  0  0  0  0  0
  161.9840  207.8370  150.1390 C   0  0  0  0  0  2  0  0  0  0  0  0
  160.8840  207.2830  149.2910 C   0  0  0  0  0  3  0  0  0  0  0  0
  161.1050  206.7150  148.1060 C   0  0  0  0  0  0  0  0  0  0  0  0
  160.0290  206.2000  147.3910 O   0  0  0  0  0  1  0  0  0  0  0  0
  162.4820  206.6120  147.5270 C   0  0  0  0  0  2  0  0  0  0  0  0
  162.6890  205.2440  146.9040 C   0  0  0  0  0  2  0  0  0  0  0  0
  162.4880  205.3480  145.4130 C   0  0  0  0  0  2  0  0  0  0  0  0
  162.1470  203.9780  144.8570 C   0  0  0  0  0  2  0  0  0  0  0  0
  160.8540  203.4800  145.4720 C   0  0  0  0  0  2  0  0  0  0  0  0
  160.8450  201.9540  145.5670 C   0  0  0  0  0  2  0  0  0  0  0  0
  160.2350  201.4750  146.8790 C   0  0  0  0  0  2  0  0  0  0  0  0
  160.3820  201.5780  149.3260 C   0  0  2  0  0  3  0  0  0  0  0  0
  160.8030  202.5010  150.4470 C   0  0  0  0  0  1  0  0  0  0  0  0
  161.5240  200.9350  148.8110 O   0  0  0  0  0  0  0  0  0  0  0  0
  161.0180  202.0110  148.0610 C   0  0  1  0  0  3  0  0  0  0  0  0
  2  6  1  0  0  0  0
  3  2  1  0  0  0  0
  3  5  2  0  0  0  0
  4  8  2  0  0  0  0
  4  7  1  0  0  0  0
  5 10  1  0  0  0  0
  6  9  1  0  0  0  0
  7  2  2  0  0  0  0
  8  3  1  0  0  0  0
  9  1  2  0  0  0  0
 10  9  1  0  0  0  0
 11  8  1  0  0  0  0
 12  7  1  0  0  0  0
 13 12  1  1  0  0  0
 13 21  1  0  0  0  0
 15 19  1  0  0  0  0
 16 13  1  1  0  0  0
 17 16  1  0  0  0  0
 18 17  1  0  0  0  0
 19 16  1  0  0  0  0
 19 14  2  0  0  0  0
 20 18  1  0  0  0  0
 20 15  2  0  0  0  0
 21 22  1  0  0  0  0
 22 25  1  0  0  0  0
 24 25  1  0  0  0  0
 25 23  1  0  0  0  0
 26  4  1  0  0  0  0
 27 26  1  0  0  0  0
 28 27  2  0  0  0  0
 29 28  1  0  0  0  0
 30 28  1  0  0  0  0
 31 30  1  0  0  0  0
 32 31  1  0  0  0  0
 33 32  1  0  0  0  0
 33 34  1  0  0  0  0
 34 35  1  0  0  0  0
 35 36  1  0  0  0  0
 37 38  1  1  0  0  0
 39 37  1  0  0  0  0
 40 36  1  6  0  0  0
 40 39  1  0  0  0  0
 40 37  1  0  0  0  0
M  END
>  <MODEL>
3

>  <REMARK>
 VINA RESULT:      -6.8      3.165      8.873
  Name = 
  16 active torsions:
  status: ('A' for Active; 'I' for Inactive)
    1  A    between atoms: C_3  and  C_12
    2  A    between atoms: C_3  and  C_34
    3  A    between atoms: C_4  and  C_14
    4  A    between atoms: C_4  and  C_17
    5  A    between atoms: C_5  and  C_20
    6  A    between atoms: C_7  and  C_23
    7  A    between atoms: C_10  and  C_20
    8  A    between atoms: C_11  and  C_19
    9  A    between atoms: C_11  and  C_22
   10  A    between atoms: C_11  and  C_31
   11  A    between atoms: C_12  and  C_14
   12  A    between atoms: C_22  and  N_35
   13  A    between atoms: C_23  and  C_38
   14  A    between atoms: C_24  and  C_31
   15  A    between atoms: C_34  and  C_38
   16  A    between atoms: N_35  and  C_40
                            x       y       z     vdW  Elec       q    Type
                         _______ _______ _______ _____ _____    ______ ____

>  <TORSDO>
F 16

$$$$
=
 OpenBabel11052410353D

 40 43  0  0  1  0  0  0  0  0999 V2000
  160.1220  201.4180  147.9010 N   0  0  0  0  0  2  0  0  0  0  0  0
  160.9320  204.1760  150.0940 C   0  0  0  0  0  0  0  0  0  0  0  0
  161.1050  203.3930  151.3030 C   0  0  0  0  0  0  0  0  0  0  0  0
  160.9040  205.5450  151.8970 C   0  0  0  0  0  0  0  0  0  0  0  0
  161.2090  202.0690  151.3210 C   0  0  0  0  0  3  0  0  0  0  0  0
  160.8310  203.5630  148.7390 C   0  0  0  0  0  2  0  0  0  0  0  0
  160.8400  205.4530  150.4300 C   0  0  0  0  0  0  0  0  0  0  0  0
  161.0640  204.3240  152.4060 C   0  0  0  0  0  0  0  0  0  0  0  0
  160.6180  202.0730  148.8810 C   0  0  0  0  0  0  0  0  0  0  0  0
  161.2730  201.3110  150.0150 C   0  0  0  0  0  2  0  0  0  0  0  0
  161.1210  204.0180  153.7260 F   0  0  0  0  0  0  0  0  0  0  0  0
  160.6100  206.5980  149.4930 C   0  0  0  0  0  2  0  0  0  0  0  0
  161.8430  206.8910  148.6300 C   0  0  2  0  0  3  0  0  0  0  0  0
  162.9760  207.6260  151.2360 O   0  0  0  0  0  0  0  0  0  0  0  0
  162.2310  209.8440  151.0280 C   0  0  0  0  0  3  0  0  0  0  0  0
  162.4360  208.2750  148.9670 C   0  0  1  0  0  3  0  0  0  0  0  0
  161.6020  209.3860  148.3040 C   0  0  0  0  0  2  0  0  0  0  0  0
  162.0730  210.7650  148.7510 C   0  0  0  0  0  2  0  0  0  0  0  0
  162.5460  208.5210  150.4640 C   0  0  0  0  0  0  0  0  0  0  0  0
  161.9760  210.8860  150.2370 C   0  0  0  0  0  3  0  0  0  0  0  0
  161.4480  206.8020  147.1620 C   0  0  0  0  0  2  0  0  0  0  0  0
  162.2760  205.8020  146.4960 N   0  0  0  0  0  2  0  0  0  0  0  0
  160.4420  206.0220  145.0270 O   0  0  0  0  0  1  0  0  0  0  0  0
  161.6910  204.0980  144.9790 O   0  0  0  0  0  1  0  0  0  0  0  0
  161.7210  205.4830  145.1780 C   0  0  0  0  0  3  0  0  0  0  0  0
  160.7840  206.8090  152.6810 C   0  0  0  0  0  2  0  0  0  0  0  0
  160.6400  206.5170  154.1400 C   0  0  0  0  0  3  0  0  0  0  0  0
  160.5570  207.4740  155.0620 C   0  0  0  0  0  0  0  0  0  0  0  0
  160.3970  207.1180  156.3970 O   0  0  0  0  0  1  0  0  0  0  0  0
  160.6250  208.9260  154.6980 C   0  0  0  0  0  2  0  0  0  0  0  0
  161.6940  209.6240  155.5170 C   0  0  0  0  0  2  0  0  0  0  0  0
  161.4310  211.1090  155.5040 C   0  0  0  0  0  2  0  0  0  0  0  0
  161.4580  211.6340  156.9280 C   0  0  0  0  0  2  0  0  0  0  0  0
  160.4010  212.7050  157.1030 C   0  0  0  0  0  2  0  0  0  0  0  0
  159.5040  212.7970  155.8680 C   0  0  0  0  0  2  0  0  0  0  0  0
  158.0280  212.7000  156.2350 C   0  0  0  0  0  2  0  0  0  0  0  0
  156.1430  211.5580  155.1570 C   0  0  2  0  0  3  0  0  0  0  0  0
  155.3510  210.2710  155.2150 C   0  0  0  0  0  1  0  0  0  0  0  0
  157.3170  211.3380  154.4110 O   0  0  0  0  0  0  0  0  0  0  0  0
  157.4570  211.3620  155.8100 C   0  0  1  0  0  3  0  0  0  0  0  0
  1  9  2  0  0  0  0
  2  7  2  0  0  0  0
  2  3  1  0  0  0  0
  3  5  2  0  0  0  0
  3  8  1  0  0  0  0
  4  8  2  0  0  0  0
  4 26  1  0  0  0  0
  6  9  1  0  0  0  0
  6  2  1  0  0  0  0
  7  4  1  0  0  0  0
  8 11  1  0  0  0  0
  9 10  1  0  0  0  0
 10  5  1  0  0  0  0
 12  7  1  0  0  0  0
 13 21  1  6  0  0  0
 13 12  1  0  0  0  0
 16 13  1  1  0  0  0
 16 19  1  0  0  0  0
 17 18  1  0  0  0  0
 17 16  1  0  0  0  0
 18 20  1  0  0  0  0
 19 15  1  0  0  0  0
 19 14  2  0  0  0  0
 20 15  2  0  0  0  0
 22 21  1  0  0  0  0
 23 25  1  0  0  0  0
 24 25  1  0  0  0  0
 25 22  1  0  0  0  0
 26 27  1  0  0  0  0
 27 28  2  0  0  0  0
 28 29  1  0  0  0  0
 30 28  1  0  0  0  0
 30 31  1  0  0  0  0
 32 31  1  0  0  0  0
 32 33  1  0  0  0  0
 33 34  1  0  0  0  0
 35 36  1  0  0  0  0
 35 34  1  0  0  0  0
 37 38  1  1  0  0  0
 37 40  1  0  0  0  0
 39 37  1  0  0  0  0
 39 40  1  0  0  0  0
 40 36  1  6  0  0  0
M  END
>  <MODEL>
4

>  <REMARK>
 VINA RESULT:      -6.7      1.992      2.479
  Name = 
  16 active torsions:
  status: ('A' for Active; 'I' for Inactive)
    1  A    between atoms: C_3  and  C_12
    2  A    between atoms: C_3  and  C_34
    3  A    between atoms: C_4  and  C_14
    4  A    between atoms: C_4  and  C_17
    5  A    between atoms: C_5  and  C_20
    6  A    between atoms: C_7  and  C_23
    7  A    between atoms: C_10  and  C_20
    8  A    between atoms: C_11  and  C_19
    9  A    between atoms: C_11  and  C_22
   10  A    between atoms: C_11  and  C_31
   11  A    between atoms: C_12  and  C_14
   12  A    between atoms: C_22  and  N_35
   13  A    between atoms: C_23  and  C_38
   14  A    between atoms: C_24  and  C_31
   15  A    between atoms: C_34  and  C_38
   16  A    between atoms: N_35  and  C_40
                            x       y       z     vdW  Elec       q    Type
                         _______ _______ _______ _____ _____    ______ ____

>  <TORSDO>
F 16

$$$$
=
 OpenBabel11052410353D

 40 43  0  0  1  0  0  0  0  0999 V2000
  160.2380  201.8360  149.0720 N   0  0  0  0  0  2  0  0  0  0  0  0
  161.5720  204.8240  150.6110 C   0  0  0  0  0  0  0  0  0  0  0  0
  161.0380  204.5900  151.9390 C   0  0  0  0  0  0  0  0  0  0  0  0
  161.6750  206.7360  151.8190 C   0  0  0  0  0  0  0  0  0  0  0  0
  160.5260  203.4320  152.3390 C   0  0  0  0  0  3  0  0  0  0  0  0
  161.5790  203.7830  149.5450 C   0  0  0  0  0  2  0  0  0  0  0  0
  161.9770  206.0820  150.5360 C   0  0  0  0  0  0  0  0  0  0  0  0
  161.1230  205.8470  152.6450 C   0  0  0  0  0  0  0  0  0  0  0  0
  160.6890  202.6350  149.9640 C   0  0  0  0  0  0  0  0  0  0  0  0
  160.5940  202.2320  151.4210 C   0  0  0  0  0  2  0  0  0  0  0  0
  160.6760  206.1030  153.8990 F   0  0  0  0  0  0  0  0  0  0  0  0
  162.5520  206.7550  149.3280 C   0  0  0  0  0  2  0  0  0  0  0  0
  161.4910  207.0030  148.2490 C   0  0  2  0  0  3  0  0  0  0  0  0
  159.6590  206.3480  146.0520 O   0  0  0  0  0  0  0  0  0  0  0  0
  160.9670  204.5100  145.3990 C   0  0  0  0  0  3  0  0  0  0  0  0
  161.9280  206.4030  146.8970 C   0  0  1  0  0  3  0  0  0  0  0  0
  163.0520  205.3750  147.1110 C   0  0  0  0  0  2  0  0  0  0  0  0
  163.3900  204.6540  145.8100 C   0  0  0  0  0  2  0  0  0  0  0  0
  160.7740  205.7710  146.1330 C   0  0  0  0  0  0  0  0  0  0  0  0
  162.1770  203.9650  145.2730 C   0  0  0  0  0  3  0  0  0  0  0  0
  161.2470  208.5020  148.1340 C   0  0  0  0  0  2  0  0  0  0  0  0
  162.3440  209.2230  148.7730 N   0  0  0  0  0  2  0  0  0  0  0  0
  161.7550  211.2630  149.8050 O   0  0  0  0  0  1  0  0  0  0  0  0
  161.2350  210.9350  147.5950 O   0  0  0  0  0  1  0  0  0  0  0  0
  162.1620  210.6670  148.6090 C   0  0  0  0  0  3  0  0  0  0  0  0
  161.9290  208.1740  152.1280 C   0  0  0  0  0  2  0  0  0  0  0  0
  160.6520  208.9520  152.1200 C   0  0  0  0  0  3  0  0  0  0  0  0
  160.5090  210.1080  152.7660 C   0  0  0  0  0  0  0  0  0  0  0  0
  159.2960  210.7830  152.6860 O   0  0  0  0  0  1  0  0  0  0  0  0
  161.6240  210.7030  153.5710 C   0  0  0  0  0  2  0  0  0  0  0  0
  161.1510  211.0020  154.9820 C   0  0  0  0  0  2  0  0  0  0  0  0
  161.0380  209.7060  155.7460 C   0  0  0  0  0  2  0  0  0  0  0  0
  159.7440  209.7050  156.5390 C   0  0  0  0  0  2  0  0  0  0  0  0
  159.0570  211.0490  156.4060 C   0  0  0  0  0  2  0  0  0  0  0  0
  157.6950  210.9020  155.7280 C   0  0  0  0  0  2  0  0  0  0  0  0
  157.0810  212.2580  155.3970 C   0  0  0  0  0  2  0  0  0  0  0  0
  157.2140  214.0450  153.7220 C   0  0  2  0  0  3  0  0  0  0  0  0
  157.9870  214.4530  152.4880 C   0  0  0  0  0  1  0  0  0  0  0  0
  157.9510  214.4130  154.8640 O   0  0  0  0  0  0  0  0  0  0  0  0
  157.9990  213.0570  154.4950 C   0  0  1  0  0  3  0  0  0  0  0  0
  1  9  2  0  0  0  0
  2  3  1  0  0  0  0
  3  5  2  0  0  0  0
  3  8  1  0  0  0  0
  4 26  1  0  0  0  0
  4  8  2  0  0  0  0
  6  9  1  0  0  0  0
  6  2  1  0  0  0  0
  7  2  2  0  0  0  0
  7  4  1  0  0  0  0
  8 11  1  0  0  0  0
  9 10  1  0  0  0  0
 10  5  1  0  0  0  0
 12  7  1  0  0  0  0
 13 21  1  6  0  0  0
 13 12  1  0  0  0  0
 14 19  2  0  0  0  0
 15 19  1  0  0  0  0
 16 17  1  0  0  0  0
 16 13  1  1  0  0  0
 18 17  1  0  0  0  0
 19 16  1  0  0  0  0
 20 15  2  0  0  0  0
 20 18  1  0  0  0  0
 21 22  1  0  0  0  0
 24 25  1  0  0  0  0
 25 22  1  0  0  0  0
 25 23  1  0  0  0  0
 27 26  1  0  0  0  0
 27 28  2  0  0  0  0
 28 30  1  0  0  0  0
 29 28  1  0  0  0  0
 30 31  1  0  0  0  0
 31 32  1  0  0  0  0
 32 33  1  0  0  0  0
 34 33  1  0  0  0  0
 35 34  1  0  0  0  0
 36 35  1  0  0  0  0
 37 38  1  6  0  0  0
 37 40  1  0  0  0  0
 37 39  1  0  0  0  0
 40 39  1  0  0  0  0
 40 36  1  1  0  0  0
M  END
>  <MODEL>
5

>  <REMARK>
 VINA RESULT:      -6.5      2.220      4.115
  Name = 
  16 active torsions:
  status: ('A' for Active; 'I' for Inactive)
    1  A    between atoms: C_3  and  C_12
    2  A    between atoms: C_3  and  C_34
    3  A    between atoms: C_4  and  C_14
    4  A    between atoms: C_4  and  C_17
    5  A    between atoms: C_5  and  C_20
    6  A    between atoms: C_7  and  C_23
    7  A    between atoms: C_10  and  C_20
    8  A    between atoms: C_11  and  C_19
    9  A    between atoms: C_11  and  C_22
   10  A    between atoms: C_11  and  C_31
   11  A    between atoms: C_12  and  C_14
   12  A    between atoms: C_22  and  N_35
   13  A    between atoms: C_23  and  C_38
   14  A    between atoms: C_24  and  C_31
   15  A    between atoms: C_34  and  C_38
   16  A    between atoms: N_35  and  C_40
                            x       y       z     vdW  Elec       q    Type
                         _______ _______ _______ _____ _____    ______ ____

>  <TORSDO>
F 16

$$$$
=
 OpenBabel11052410353D

 40 43  0  0  1  0  0  0  0  0999 V2000
  160.1370  200.9520  148.6780 N   0  0  0  0  0  2  0  0  0  0  0  0
  160.8290  204.3380  149.7390 C   0  0  0  0  0  0  0  0  0  0  0  0
  161.2090  204.0200  151.1020 C   0  0  0  0  0  0  0  0  0  0  0  0
  160.8160  206.2240  150.9920 C   0  0  0  0  0  0  0  0  0  0  0  0
  161.4690  202.7910  151.5320 C   0  0  0  0  0  3  0  0  0  0  0  0
  160.6680  203.3030  148.6800 C   0  0  0  0  0  2  0  0  0  0  0  0
  160.6200  205.6430  149.6550 C   0  0  0  0  0  0  0  0  0  0  0  0
  161.1680  205.2600  151.8420 C   0  0  0  0  0  0  0  0  0  0  0  0
  160.6460  201.9340  149.3200 C   0  0  0  0  0  0  0  0  0  0  0  0
  161.4930  201.6480  150.5430 C   0  0  0  0  0  2  0  0  0  0  0  0
  161.3890  205.4180  153.1700 F   0  0  0  0  0  0  0  0  0  0  0  0
  160.1670  206.3880  148.4370 C   0  0  0  0  0  2  0  0  0  0  0  0
  161.3140  207.1630  147.7780 C   0  0  2  0  0  3  0  0  0  0  0  0
  159.8290  206.3410  145.3840 O   0  0  0  0  0  0  0  0  0  0  0  0
  161.0670  204.3530  145.1980 C   0  0  0  0  0  3  0  0  0  0  0  0
  161.9190  206.3630  146.6070 C   0  0  1  0  0  3  0  0  0  0  0  0
  162.9000  205.3030  147.1380 C   0  0  0  0  0  2  0  0  0  0  0  0
  163.3890  204.3970  146.0140 C   0  0  0  0  0  2  0  0  0  0  0  0
  160.8610  205.7100  145.7300 C   0  0  0  0  0  0  0  0  0  0  0  0
  162.2300  203.7210  145.3560 C   0  0  0  0  0  3  0  0  0  0  0  0
  162.3660  207.4770  148.8340 C   0  0  0  0  0  2  0  0  0  0  0  0
  162.8680  208.8330  148.6320 N   0  0  0  0  0  2  0  0  0  0  0  0
  161.4600  210.6770  148.2000 O   0  0  0  0  0  1  0  0  0  0  0  0
  162.5260  210.5310  150.2260 O   0  0  0  0  0  1  0  0  0  0  0  0
  161.9280  209.8080  149.1880 C   0  0  0  0  0  3  0  0  0  0  0  0
  160.6270  207.6640  151.3360 C   0  0  0  0  0  2  0  0  0  0  0  0
  161.3440  208.0060  152.6030 C   0  0  0  0  0  3  0  0  0  0  0  0
  161.0880  209.1120  153.2990 C   0  0  0  0  0  0  0  0  0  0  0  0
  161.7810  209.3440  154.4820 O   0  0  0  0  0  1  0  0  0  0  0  0
  160.0680  210.1110  152.8440 C   0  0  0  0  0  2  0  0  0  0  0  0
  159.9490  211.2370  153.8540 C   0  0  0  0  0  2  0  0  0  0  0  0
  158.7040  211.0260  154.6800 C   0  0  0  0  0  2  0  0  0  0  0  0
  158.1610  212.3740  155.1170 C   0  0  0  0  0  2  0  0  0  0  0  0
  158.1860  213.3430  153.9530 C   0  0  0  0  0  2  0  0  0  0  0  0
  156.7980  213.9280  153.6970 C   0  0  0  0  0  2  0  0  0  0  0  0
  156.5400  214.1360  152.2090 C   0  0  0  0  0  2  0  0  0  0  0  0
  158.2630  213.2800  150.6860 C   0  0  2  0  0  3  0  0  0  0  0  0
  159.7460  213.3780  150.4050 C   0  0  0  0  0  1  0  0  0  0  0  0
  157.6130  214.3800  150.0930 O   0  0  0  0  0  0  0  0  0  0  0  0
  157.8310  214.4520  151.4800 C   0  0  1  0  0  3  0  0  0  0  0  0
  1  9  2  0  0  0  0
  2  3  1  0  0  0  0
  3  5  2  0  0  0  0
  3  8  1  0  0  0  0
  4 26  1  0  0  0  0
  4  8  2  0  0  0  0
  6  9  1  0  0  0  0
  6  2  1  0  0  0  0
  7  2  2  0  0  0  0
  7  4  1  0  0  0  0
  8 11  1  0  0  0  0
  9 10  1  0  0  0  0
 10  5  1  0  0  0  0
 12  7  1  0  0  0  0
 13 12  1  1  0  0  0
 13 21  1  0  0  0  0
 14 19  2  0  0  0  0
 15 20  2  0  0  0  0
 15 19  1  0  0  0  0
 16 17  1  0  0  0  0
 16 13  1  1  0  0  0
 18 17  1  0  0  0  0
 19 16  1  0  0  0  0
 20 18  1  0  0  0  0
 22 21  1  0  0  0  0
 22 25  1  0  0  0  0
 23 25  1  0  0  0  0
 25 24  1  0  0  0  0
 26 27  1  0  0  0  0
 27 28  2  0  0  0  0
 28 29  1  0  0  0  0
 30 28  1  0  0  0  0
 30 31  1  0  0  0  0
 31 32  1  0  0  0  0
 32 33  1  0  0  0  0
 34 33  1  0  0  0  0
 35 34  1  0  0  0  0
 36 35  1  0  0  0  0
 37 38  1  6  0  0  0
 37 40  1  0  0  0  0
 39 37  1  0  0  0  0
 39 40  1  0  0  0  0
 40 36  1  1  0  0  0
M  END
>  <MODEL>
6

>  <REMARK>
 VINA RESULT:      -6.4      1.793      3.683
  Name = 
  16 active torsions:
  status: ('A' for Active; 'I' for Inactive)
    1  A    between atoms: C_3  and  C_12
    2  A    between atoms: C_3  and  C_34
    3  A    between atoms: C_4  and  C_14
    4  A    between atoms: C_4  and  C_17
    5  A    between atoms: C_5  and  C_20
    6  A    between atoms: C_7  and  C_23
    7  A    between atoms: C_10  and  C_20
    8  A    between atoms: C_11  and  C_19
    9  A    between atoms: C_11  and  C_22
   10  A    between atoms: C_11  and  C_31
   11  A    between atoms: C_12  and  C_14
   12  A    between atoms: C_22  and  N_35
   13  A    between atoms: C_23  and  C_38
   14  A    between atoms: C_24  and  C_31
   15  A    between atoms: C_34  and  C_38
   16  A    between atoms: N_35  and  C_40
                            x       y       z     vdW  Elec       q    Type
                         _______ _______ _______ _____ _____    ______ ____

>  <TORSDO>
F 16

$$$$
=
 OpenBabel11052410353D

 40 43  0  0  1  0  0  0  0  0999 V2000
  156.9300  214.1870  150.3180 N   0  0  0  0  0  2  0  0  0  0  0  0
  159.4880  212.1620  151.8770 C   0  0  0  0  0  0  0  0  0  0  0  0
  160.4610  212.2520  150.8040 C   0  0  0  0  0  0  0  0  0  0  0  0
  161.0730  210.5680  152.1510 C   0  0  0  0  0  0  0  0  0  0  0  0
  160.3780  213.1160  149.7990 C   0  0  0  0  0  2  0  0  0  0  0  0
  158.2750  213.0240  151.9460 C   0  0  0  0  0  2  0  0  0  0  0  0
  159.8540  211.1870  152.6950 C   0  0  2  0  0  3  0  0  0  0  0  0
  161.4280  211.2040  151.0350 C   0  0  0  0  0  0  0  0  0  0  0  0
  158.0840  213.7220  150.6190 C   0  0  0  0  0  0  0  0  0  0  0  0
  159.2830  214.1590  149.8040 C   0  0  0  0  0  2  0  0  0  0  0  0
  162.4770  210.8820  150.2390 F   0  0  0  0  0  0  0  0  0  0  0  0
  159.1080  210.7260  153.9090 C   0  0  0  0  0  2  0  0  0  0  0  0
  159.5990  211.4220  155.1830 C   0  0  2  0  0  3  0  0  0  0  0  0
  162.0040  211.6270  156.8530 O   0  0  0  0  0  0  0  0  0  0  0  0
  162.2810  209.2950  156.8860 C   0  0  0  0  0  3  0  0  0  0  0  0
  160.0110  210.3890  156.2530 C   0  0  1  0  0  3  0  0  0  0  0  0
  159.7020  208.9640  155.7620 C   0  0  0  0  0  2  0  0  0  0  0  0
  160.2450  207.9200  156.7320 C   0  0  0  0  0  2  0  0  0  0  0  0
  161.4750  210.5040  156.6490 C   0  0  0  0  0  0  0  0  0  0  0  0
  161.7210  208.0850  156.8920 C   0  0  0  0  0  3  0  0  0  0  0  0
  158.4970  212.3390  155.6980 C   0  0  0  0  0  2  0  0  0  0  0  0
  157.5550  211.5640  156.4990 N   0  0  0  0  0  2  0  0  0  0  0  0
  155.2800  211.5850  157.1290 O   0  0  0  0  0  1  0  0  0  0  0  0
  155.8330  211.1660  154.9430 O   0  0  0  0  0  1  0  0  0  0  0  0
  156.1800  211.8720  156.1000 C   0  0  0  0  0  3  0  0  0  0  0  0
  161.7790  209.3970  152.7500 C   0  0  0  0  0  2  0  0  0  0  0  0
  160.9840  208.1450  152.5610 C   0  0  0  0  0  3  0  0  0  0  0  0
  161.3110  207.2120  151.6690 C   0  0  0  0  0  0  0  0  0  0  0  0
  160.5340  206.0620  151.5740 O   0  0  0  0  0  1  0  0  0  0  0  0
  162.4980  207.3660  150.7680 C   0  0  0  0  0  2  0  0  0  0  0  0
  162.0730  207.9550  149.4350 C   0  0  0  0  0  2  0  0  0  0  0  0
  161.1820  206.9670  148.7240 C   0  0  0  0  0  2  0  0  0  0  0  0
  161.8500  206.5300  147.4340 C   0  0  0  0  0  2  0  0  0  0  0  0
  160.9280  205.6060  146.6630 C   0  0  0  0  0  2  0  0  0  0  0  0
  161.7050  204.4360  146.0610 C   0  0  0  0  0  2  0  0  0  0  0  0
  161.2100  203.0970  146.5940 C   0  0  0  0  0  2  0  0  0  0  0  0
  160.4000  202.4250  148.8100 C   0  0  2  0  0  3  0  0  0  0  0  0
  160.5550  202.7600  150.2770 C   0  0  0  0  0  1  0  0  0  0  0  0
  161.4590  201.5840  148.4200 O   0  0  0  0  0  0  0  0  0  0  0  0
  161.5670  202.9380  148.0580 C   0  0  1  0  0  3  0  0  0  0  0  0
  1  9  2  0  0  0  0
  2  6  1  0  0  0  0
  2  7  1  0  0  0  0
  3  8  1  0  0  0  0
  3  2  2  0  0  0  0
  4  7  1  0  0  0  0
  4 26  1  0  0  0  0
  5 10  1  0  0  0  0
  5  3  1  0  0  0  0
  7 12  1  6  0  0  0
  8  4  2  0  0  0  0
  9  6  1  0  0  0  0
 10  9  1  0  0  0  0
 11  8  1  0  0  0  0
 13 12  1  6  0  0  0
 13 21  1  0  0  0  0
 15 20  2  0  0  0  0
 16 13  1  6  0  0  0
 16 19  1  0  0  0  0
 17 16  1  0  0  0  0
 17 18  1  0  0  0  0
 18 20  1  0  0  0  0
 19 14  2  0  0  0  0
 19 15  1  0  0  0  0
 21 22  1  0  0  0  0
 24 25  1  0  0  0  0
 25 22  1  0  0  0  0
 25 23  1  0  0  0  0
 27 26  1  0  0  0  0
 28 27  2  0  0  0  0
 29 28  1  0  0  0  0
 30 28  1  0  0  0  0
 31 30  1  0  0  0  0
 32 31  1  0  0  0  0
 33 32  1  0  0  0  0
 34 33  1  0  0  0  0
 35 36  1  0  0  0  0
 35 34  1  0  0  0  0
 37 38  1  1  0  0  0
 39 37  1  0  0  0  0
 40 36  1  6  0  0  0
 40 39  1  0  0  0  0
 40 37  1  0  0  0  0
M  END
>  <MODEL>
7

>  <REMARK>
 VINA RESULT:      -6.3      3.708      9.718
  Name = 
  16 active torsions:
  status: ('A' for Active; 'I' for Inactive)
    1  A    between atoms: C_3  and  C_12
    2  A    between atoms: C_3  and  C_34
    3  A    between atoms: C_4  and  C_14
    4  A    between atoms: C_4  and  C_17
    5  A    between atoms: C_5  and  C_20
    6  A    between atoms: C_7  and  C_23
    7  A    between atoms: C_10  and  C_20
    8  A    between atoms: C_11  and  C_19
    9  A    between atoms: C_11  and  C_22
   10  A    between atoms: C_11  and  C_31
   11  A    between atoms: C_12  and  C_14
   12  A    between atoms: C_22  and  N_35
   13  A    between atoms: C_23  and  C_38
   14  A    between atoms: C_24  and  C_31
   15  A    between atoms: C_34  and  C_38
   16  A    between atoms: N_35  and  C_40
                            x       y       z     vdW  Elec       q    Type
                         _______ _______ _______ _____ _____    ______ ____

>  <TORSDO>
F 16

$$$$
=
 OpenBabel11052410353D

 40 43  0  0  1  0  0  0  0  0999 V2000
  162.5470  212.0130  147.6500 N   0  0  0  0  0  2  0  0  0  0  0  0
  161.7660  209.4880  150.1180 C   0  0  0  0  0  0  0  0  0  0  0  0
  161.4630  210.3960  151.2070 C   0  0  0  0  0  0  0  0  0  0  0  0
  161.7590  208.3500  152.0750 C   0  0  0  0  0  0  0  0  0  0  0  0
  161.2750  211.7010  151.0540 C   0  0  0  0  0  3  0  0  0  0  0  0
  161.9200  209.9380  148.7060 C   0  0  0  0  0  2  0  0  0  0  0  0
  161.9170  208.2700  150.6150 C   0  0  0  0  0  0  0  0  0  0  0  0
  161.4880  209.6100  152.4180 C   0  0  0  0  0  0  0  0  0  0  0  0
  162.0280  211.4460  148.6730 C   0  0  0  0  0  0  0  0  0  0  0  0
  161.2520  212.2910  149.6620 C   0  0  0  0  0  2  0  0  0  0  0  0
  161.3220  210.0670  153.6840 F   0  0  0  0  0  0  0  0  0  0  0  0
  162.2810  207.0390  149.8430 C   0  0  0  0  0  2  0  0  0  0  0  0
  161.0900  206.0880  149.6830 C   0  0  2  0  0  3  0  0  0  0  0  0
  161.8160  203.8980  147.8690 O   0  0  0  0  0  0  0  0  0  0  0  0
  160.8220  202.2960  149.2710 C   0  0  0  0  0  3  0  0  0  0  0  0
  161.4590  204.6610  150.1400 C   0  0  1  0  0  3  0  0  0  0  0  0
  160.5710  204.2350  151.3220 C   0  0  0  0  0  2  0  0  0  0  0  0
  160.8080  202.7730  151.6860 C   0  0  0  0  0  2  0  0  0  0  0  0
  161.3650  203.6400  149.0150 C   0  0  0  0  0  0  0  0  0  0  0  0
  160.5270  201.8970  150.5090 C   0  0  0  0  0  3  0  0  0  0  0  0
  160.6410  206.1020  148.2280 C   0  0  0  0  0  2  0  0  0  0  0  0
  161.6320  206.8060  147.4200 N   0  0  0  0  0  2  0  0  0  0  0  0
  160.0700  206.0690  145.8120 O   0  0  0  0  0  1  0  0  0  0  0  0
  162.3120  205.8780  145.3660 O   0  0  0  0  0  1  0  0  0  0  0  0
  161.3270  206.6470  145.9960 C   0  0  0  0  0  3  0  0  0  0  0  0
  161.9050  207.2010  153.0170 C   0  0  0  0  0  2  0  0  0  0  0  0
  160.6270  206.9530  153.7520 C   0  0  0  0  0  3  0  0  0  0  0  0
  160.4770  207.2270  155.0470 C   0  0  0  0  0  0  0  0  0  0  0  0
  159.2460  206.9910  155.6510 O   0  0  0  0  0  1  0  0  0  0  0  0
  161.5960  207.7880  155.8680 C   0  0  0  0  0  2  0  0  0  0  0  0
  161.0550  208.3960  157.1490 C   0  0  0  0  0  2  0  0  0  0  0  0
  161.2600  209.8900  157.1080 C   0  0  0  0  0  2  0  0  0  0  0  0
  159.9150  210.5830  157.2200 C   0  0  0  0  0  2  0  0  0  0  0  0
  159.4580  211.0470  155.8510 C   0  0  0  0  0  2  0  0  0  0  0  0
  157.9620  210.8020  155.6610 C   0  0  0  0  0  2  0  0  0  0  0  0
  157.2990  211.9370  154.8880 C   0  0  0  0  0  2  0  0  0  0  0  0
  157.5880  213.5380  153.0520 C   0  0  2  0  0  3  0  0  0  0  0  0
  158.0060  213.6090  151.6010 C   0  0  0  0  0  1  0  0  0  0  0  0
  158.7420  213.5320  153.8590 O   0  0  0  0  0  0  0  0  0  0  0  0
  158.1100  212.2930  153.6590 C   0  0  1  0  0  3  0  0  0  0  0  0
  1  9  2  0  0  0  0
  2  7  2  0  0  0  0
  2  3  1  0  0  0  0
  3  8  1  0  0  0  0
  4  8  2  0  0  0  0
  4 26  1  0  0  0  0
  5  3  2  0  0  0  0
  6  2  1  0  0  0  0
  7  4  1  0  0  0  0
  8 11  1  0  0  0  0
  9  6  1  0  0  0  0
  9 10  1  0  0  0  0
 10  5  1  0  0  0  0
 12  7  1  0  0  0  0
 13 21  1  6  0  0  0
 13 12  1  0  0  0  0
 14 19  2  0  0  0  0
 15 20  2  0  0  0  0
 16 13  1  6  0  0  0
 16 17  1  0  0  0  0
 17 18  1  0  0  0  0
 19 15  1  0  0  0  0
 19 16  1  0  0  0  0
 20 18  1  0  0  0  0
 22 21  1  0  0  0  0
 23 25  1  0  0  0  0
 24 25  1  0  0  0  0
 25 22  1  0  0  0  0
 26 27  1  0  0  0  0
 27 28  2  0  0  0  0
 28 29  1  0  0  0  0
 28 30  1  0  0  0  0
 30 31  1  0  0  0  0
 32 31  1  0  0  0  0
 32 33  1  0  0  0  0
 34 33  1  0  0  0  0
 35 34  1  0  0  0  0
 36 35  1  0  0  0  0
 37 38  1  6  0  0  0
 37 40  1  0  0  0  0
 37 39  1  0  0  0  0
 40 39  1  0  0  0  0
 40 36  1  1  0  0  0
M  END
>  <MODEL>
8

>  <REMARK>
 VINA RESULT:      -6.2      2.217      5.383
  Name = 
  16 active torsions:
  status: ('A' for Active; 'I' for Inactive)
    1  A    between atoms: C_3  and  C_12
    2  A    between atoms: C_3  and  C_34
    3  A    between atoms: C_4  and  C_14
    4  A    between atoms: C_4  and  C_17
    5  A    between atoms: C_5  and  C_20
    6  A    between atoms: C_7  and  C_23
    7  A    between atoms: C_10  and  C_20
    8  A    between atoms: C_11  and  C_19
    9  A    between atoms: C_11  and  C_22
   10  A    between atoms: C_11  and  C_31
   11  A    between atoms: C_12  and  C_14
   12  A    between atoms: C_22  and  N_35
   13  A    between atoms: C_23  and  C_38
   14  A    between atoms: C_24  and  C_31
   15  A    between atoms: C_34  and  C_38
   16  A    between atoms: N_35  and  C_40
                            x       y       z     vdW  Elec       q    Type
                         _______ _______ _______ _____ _____    ______ ____

>  <TORSDO>
F 16

$$$$
=
 OpenBabel11052410353D

 40 43  0  0  1  0  0  0  0  0999 V2000
  160.1090  200.8080  148.0200 N   0  0  0  0  0  2  0  0  0  0  0  0
  160.7890  204.0210  149.5330 C   0  0  0  0  0  0  0  0  0  0  0  0
  161.1840  203.5210  150.8360 C   0  0  0  0  0  0  0  0  0  0  0  0
  160.7760  205.7160  151.0340 C   0  0  0  0  0  0  0  0  0  0  0  0
  161.4560  202.2460  151.0890 C   0  0  0  0  0  3  0  0  0  0  0  0
  160.6250  203.1410  148.3420 C   0  0  0  0  0  2  0  0  0  0  0  0
  160.5710  205.3230  149.6310 C   0  0  0  0  0  0  0  0  0  0  0  0
  161.1420  204.6460  151.7400 C   0  0  0  0  0  0  0  0  0  0  0  0
  160.6180  201.6960  148.7870 C   0  0  0  0  0  0  0  0  0  0  0  0
  161.4780  201.2500  149.9520 C   0  0  0  0  0  2  0  0  0  0  0  0
  161.3750  204.6210  153.0750 F   0  0  0  0  0  0  0  0  0  0  0  0
  160.1020  206.2260  148.5320 C   0  0  0  0  0  2  0  0  0  0  0  0
  161.2450  207.0660  147.9510 C   0  0  2  0  0  3  0  0  0  0  0  0
  159.8370  206.5380  145.4310 O   0  0  0  0  0  0  0  0  0  0  0  0
  161.0240  204.5400  145.0890 C   0  0  0  0  0  3  0  0  0  0  0  0
  161.8750  206.3680  146.7270 C   0  0  1  0  0  3  0  0  0  0  0  0
  162.8030  205.2290  147.1850 C   0  0  0  0  0  2  0  0  0  0  0  0
  163.3110  204.4250  145.9930 C   0  0  0  0  0  2  0  0  0  0  0  0
  160.8350  205.8420  145.7490 C   0  0  0  0  0  0  0  0  0  0  0  0
  162.1620  203.8570  145.2260 C   0  0  0  0  0  3  0  0  0  0  0  0
  162.2800  207.3090  149.0410 C   0  0  0  0  0  2  0  0  0  0  0  0
  162.8560  208.6400  148.8770 N   0  0  0  0  0  2  0  0  0  0  0  0
  161.9850  210.8330  148.8400 O   0  0  0  0  0  1  0  0  0  0  0  0
  162.5010  209.8660  150.8550 O   0  0  0  0  0  1  0  0  0  0  0  0
  162.0270  209.6360  149.5590 C   0  0  0  0  0  3  0  0  0  0  0  0
  160.5810  207.0930  151.5750 C   0  0  0  0  0  2  0  0  0  0  0  0
  160.9780  207.1590  153.0150 C   0  0  0  0  0  3  0  0  0  0  0  0
  160.9170  208.2820  153.7290 C   0  0  0  0  0  0  0  0  0  0  0  0
  161.2790  208.2520  155.0710 O   0  0  0  0  0  1  0  0  0  0  0  0
  160.4620  209.5740  153.1240 C   0  0  0  0  0  2  0  0  0  0  0  0
  160.1510  210.5840  154.2140 C   0  0  0  0  0  2  0  0  0  0  0  0
  159.7900  211.9010  153.5740 C   0  0  0  0  0  2  0  0  0  0  0  0
  159.2870  212.8540  154.6430 C   0  0  0  0  0  2  0  0  0  0  0  0
  158.5020  213.9800  154.0010 C   0  0  0  0  0  2  0  0  0  0  0  0
  157.0950  214.0730  154.5910 C   0  0  0  0  0  2  0  0  0  0  0  0
  156.3890  212.7220  154.5790 C   0  0  0  0  0  2  0  0  0  0  0  0
  155.5450  210.9370  156.0360 C   0  0  2  0  0  3  0  0  0  0  0  0
  154.5620  210.6930  157.1570 C   0  0  0  0  0  1  0  0  0  0  0  0
  156.7330  211.4670  156.5770 O   0  0  0  0  0  0  0  0  0  0  0  0
  155.8620  212.3810  155.9580 C   0  0  1  0  0  3  0  0  0  0  0  0
  1  9  2  0  0  0  0
  2  7  2  0  0  0  0
  2  3  1  0  0  0  0
  3  5  2  0  0  0  0
  3  8  1  0  0  0  0
  4 26  1  0  0  0  0
  4  8  2  0  0  0  0
  6  9  1  0  0  0  0
  6  2  1  0  0  0  0
  7  4  1  0  0  0  0
  8 11  1  0  0  0  0
  9 10  1  0  0  0  0
 10  5  1  0  0  0  0
 12  7  1  0  0  0  0
 13 12  1  1  0  0  0
 13 21  1  0  0  0  0
 14 19  2  0  0  0  0
 15 20  2  0  0  0  0
 15 19  1  0  0  0  0
 16 17  1  0  0  0  0
 16 13  1  1  0  0  0
 18 17  1  0  0  0  0
 19 16  1  0  0  0  0
 20 18  1  0  0  0  0
 22 21  1  0  0  0  0
 22 25  1  0  0  0  0
 23 25  1  0  0  0  0
 25 24  1  0  0  0  0
 26 27  1  0  0  0  0
 27 28  2  0  0  0  0
 28 29  1  0  0  0  0
 30 28  1  0  0  0  0
 30 31  1  0  0  0  0
 32 31  1  0  0  0  0
 32 33  1  0  0  0  0
 34 35  1  0  0  0  0
 34 33  1  0  0  0  0
 36 35  1  0  0  0  0
 37 39  1  0  0  0  0
 37 38  1  1  0  0  0
 40 36  1  6  0  0  0
 40 37  1  0  0  0  0
 40 39  1  0  0  0  0
M  END
>  <MODEL>
9

>  <REMARK>
 VINA RESULT:      -6.1      2.256      4.228
  Name = 
  16 active torsions:
  status: ('A' for Active; 'I' for Inactive)
    1  A    between atoms: C_3  and  C_12
    2  A    between atoms: C_3  and  C_34
    3  A    between atoms: C_4  and  C_14
    4  A    between atoms: C_4  and  C_17
    5  A    between atoms: C_5  and  C_20
    6  A    between atoms: C_7  and  C_23
    7  A    between atoms: C_10  and  C_20
    8  A    between atoms: C_11  and  C_19
    9  A    between atoms: C_11  and  C_22
   10  A    between atoms: C_11  and  C_31
   11  A    between atoms: C_12  and  C_14
   12  A    between atoms: C_22  and  N_35
   13  A    between atoms: C_23  and  C_38
   14  A    between atoms: C_24  and  C_31
   15  A    between atoms: C_34  and  C_38
   16  A    between atoms: N_35  and  C_40
                            x       y       z     vdW  Elec       q    Type
                         _______ _______ _______ _____ _____    ______ ____

>  <TORSDO>
F 16

$$$$
