=
 OpenBabel11042420293D

 31 35  0  0  1  0  0  0  0  0999 V2000
  161.7100  206.6650  152.2940 C   0  0  1  0  0  3  0  0  0  0  0  0
  161.1890  207.9080  155.5730 C   0  0  2  0  0  3  0  0  0  0  0  0
  160.7920  205.6910  152.8990 C   0  0  2  0  0  0  0  0  0  0  0  0
  161.0300  209.0860  152.2080 C   0  0  0  0  0  2  0  0  0  0  0  0
  161.0970  211.6980  149.8370 N   0  0  0  0  0  0  0  0  0  0  0  0
  163.8270  210.6480  155.0330 C   0  0  2  0  0  3  0  0  0  0  0  0
  161.3760  210.6490  155.4840 C   0  0  0  0  0  0  0  0  0  0  0  0
  162.2970  209.2340  150.0240 C   0  0  0  0  0  2  0  0  0  0  0  0
  160.5400  207.7100  154.2130 C   0  0  2  0  0  3  0  0  0  0  0  0
  160.4880  206.3040  151.6760 O   0  0  0  0  0  0  0  0  0  0  0  0
  164.0500  211.2740  153.6580 C   0  0  0  0  0  2  0  0  0  0  0  0
  162.6670  211.3540  155.7550 C   0  0  1  0  0  3  0  0  0  0  0  0
  160.0620  206.2740  154.0840 C   0  0  0  0  0  2  0  0  0  0  0  0
  159.5570  211.8220  154.0280 C   0  0  0  0  0  3  0  0  0  0  0  0
  161.6490  210.6070  150.2530 C   0  0  0  0  0  0  0  0  0  0  0  0
  163.3180  210.1470  151.9850 O   0  0  0  0  0  0  0  0  0  0  0  0
  160.2880  208.3190  156.4100 O   0  0  0  0  0  0  0  0  0  0  0  0
  160.4570  211.2370  154.7680 C   0  0  0  0  0  0  0  0  0  0  0  0
  161.1670  209.3230  155.9700 N   0  0  0  0  0  0  0  0  0  0  0  0
  161.5440  207.9590  153.0920 C   0  0  1  0  0  3  0  0  0  0  0  0
  162.1420  209.6970  151.3650 C   0  0  1  0  0  0  0  0  0  0  0  0
  161.2160  203.9720  152.7700 Cl  0  0  0  0  0  0  0  0  0  0  0  0
  162.8760  211.4630  157.2610 C   0  0  0  0  0  1  0  0  0  0  0  0
  162.9410  211.0820  152.8350 O   0  0  0  0  0  0  0  0  0  0  0  0
  158.3230  211.1380  153.6380 C   0  0  0  0  0  0  0  0  0  0  0  0
  157.3840  210.7630  154.5920 O   0  0  0  0  0  1  0  0  0  0  0  0
  158.1070  210.8930  152.4240 O   0  0  0  0  0  0  0  0  0  0  0  0
  159.6580  213.5540  150.4050 C   0  0  0  0  0  1  0  0  0  0  0  0
  160.6890  212.6460  150.7430 O   0  0  0  0  0  0  0  0  0  0  0  0
  165.0190  210.7430  155.7590 O   0  0  0  0  0  0  0  0  0  0  0  0
  165.6920  211.8350  155.2050 C   0  0  0  0  0  1  0  0  0  0  0  0
  1 10  1  6  0  0  0
  1  3  1  0  0  0  0
  1 20  1  0  0  0  0
  2 19  1  0  0  0  0
  2 17  1  1  0  0  0
  3 22  1  1  0  0  0
  3 13  1  0  0  0  0
  5 15  2  0  0  0  0
  5 29  1  0  0  0  0
  6 12  1  0  0  0  0
  6 30  1  1  0  0  0
  7 12  1  0  0  0  0
  7 19  1  0  0  0  0
  8 15  1  0  0  0  0
  9 13  1  1  0  0  0
  9  2  1  0  0  0  0
 10  3  1  0  0  0  0
 11  6  1  0  0  0  0
 12 23  1  1  0  0  0
 14 18  2  0  0  0  0
 15 21  1  0  0  0  0
 16 24  1  0  0  0  0
 18  7  2  0  0  0  0
 19 17  1  0  0  0  0
 20  4  1  6  0  0  0
 20  9  1  0  0  0  0
 21  8  1  6  0  0  0
 21 16  1  0  0  0  0
 21  4  1  0  0  0  0
 24 11  1  0  0  0  0
 25 14  1  0  0  0  0
 25 26  1  0  0  0  0
 27 25  2  0  0  0  0
 28 29  1  0  0  0  0
 31 30  1  0  0  0  0
M  END
>  <MODEL>
1

>  <REMARK>
 VINA RESULT:       3.6      0.000      0.000
  Name = 
  3 active torsions:
  status: ('A' for Active; 'I' for Inactive)
    1  A    between atoms: N_5  and  O_22
    2  A    between atoms: C_6  and  O_19
    3  A    between atoms: C_8  and  C_17
                            x       y       z     vdW  Elec       q    Type
                         _______ _______ _______ _____ _____    ______ ____

>  <TORSDO>
F 3

$$$$
=
 OpenBabel11042420293D

 31 35  0  0  1  0  0  0  0  0999 V2000
  160.8180  212.2640  152.0330 C   0  0  1  0  0  3  0  0  0  0  0  0
  160.8120  208.9040  153.1670 C   0  0  2  0  0  3  0  0  0  0  0  0
  160.5560  211.4810  150.8170 C   0  0  2  0  0  0  0  0  0  0  0  0
  159.2670  212.0130  153.9980 C   0  0  0  0  0  2  0  0  0  0  0  0
  157.6520  214.1490  156.2950 N   0  0  0  0  0  0  0  0  0  0  0  0
  161.9260  210.0090  156.6740 C   0  0  2  0  0  3  0  0  0  0  0  0
  159.8990  208.8830  155.7600 C   0  0  0  0  0  0  0  0  0  0  0  0
  159.7040  214.4530  154.4950 C   0  0  0  0  0  2  0  0  0  0  0  0
  159.9320  210.0340  152.6570 C   0  0  2  0  0  3  0  0  0  0  0  0
  159.7070  212.5300  151.1950 O   0  0  0  0  0  0  0  0  0  0  0  0
  161.4930  211.3520  157.2570 C   0  0  0  0  0  2  0  0  0  0  0  0
  160.8410  208.9480  156.9210 C   0  0  1  0  0  3  0  0  0  0  0  0
  160.0270  210.1060  151.1420 C   0  0  0  0  0  2  0  0  0  0  0  0
  157.4380  209.6930  156.0590 C   0  0  0  0  0  3  0  0  0  0  0  0
  158.6730  213.9700  155.5250 C   0  0  0  0  0  0  0  0  0  0  0  0
  160.8070  212.8120  155.8410 O   0  0  0  0  0  0  0  0  0  0  0  0
  160.0990  207.8240  153.2480 O   0  0  0  0  0  0  0  0  0  0  0  0
  158.6640  209.2730  155.9080 C   0  0  0  0  0  0  0  0  0  0  0  0
  160.3630  208.4350  154.4850 N   0  0  0  0  0  0  0  0  0  0  0  0
  160.4020  211.3780  153.2080 C   0  0  1  0  0  3  0  0  0  0  0  0
  159.7700  213.0990  154.9390 C   0  0  1  0  0  0  0  0  0  0  0  0
  161.5510  211.8250  149.3890 Cl  0  0  0  0  0  0  0  0  0  0  0  0
  161.4100  207.5600  157.1880 C   0  0  0  0  0  1  0  0  0  0  0  0
  160.3580  211.8370  156.6070 O   0  0  0  0  0  0  0  0  0  0  0  0
  156.5060  209.7570  154.9320 C   0  0  0  0  0  0  0  0  0  0  0  0
  155.2520  209.1610  155.0100 O   0  0  0  0  0  1  0  0  0  0  0  0
  156.8410  210.3650  153.8840 O   0  0  0  0  0  0  0  0  0  0  0  0
  155.8310  212.7110  156.9740 C   0  0  0  0  0  1  0  0  0  0  0  0
  157.1860  213.1100  157.0640 O   0  0  0  0  0  0  0  0  0  0  0  0
  163.1430  209.6460  157.2610 O   0  0  0  0  0  0  0  0  0  0  0  0
  163.9400  210.7900  157.1760 C   0  0  0  0  0  1  0  0  0  0  0  0
  1 10  1  6  0  0  0
  1 20  1  0  0  0  0
  2 17  1  6  0  0  0
  2 19  1  0  0  0  0
  3 22  1  6  0  0  0
  3 13  1  0  0  0  0
  3 10  1  0  0  0  0
  3  1  1  0  0  0  0
  5 29  1  0  0  0  0
  6 12  1  0  0  0  0
  6 11  1  0  0  0  0
  6 30  1  1  0  0  0
  7 18  2  0  0  0  0
  7 12  1  0  0  0  0
  8 21  1  0  0  0  0
  8 15  1  0  0  0  0
  9 13  1  6  0  0  0
  9  2  1  0  0  0  0
  9 20  1  0  0  0  0
 12 23  1  6  0  0  0
 15  5  2  0  0  0  0
 16 24  1  0  0  0  0
 17 19  1  0  0  0  0
 18 14  2  0  0  0  0
 19  7  1  0  0  0  0
 20  4  1  6  0  0  0
 21  4  1  6  0  0  0
 21 15  1  0  0  0  0
 21 16  1  0  0  0  0
 24 11  1  0  0  0  0
 25 26  1  0  0  0  0
 25 14  1  0  0  0  0
 27 25  2  0  0  0  0
 28 29  1  0  0  0  0
 31 30  1  0  0  0  0
M  END
>  <MODEL>
2

>  <REMARK>
 VINA RESULT:       4.1      2.929      4.851
  Name = 
  3 active torsions:
  status: ('A' for Active; 'I' for Inactive)
    1  A    between atoms: N_5  and  O_22
    2  A    between atoms: C_6  and  O_19
    3  A    between atoms: C_8  and  C_17
                            x       y       z     vdW  Elec       q    Type
                         _______ _______ _______ _____ _____    ______ ____

>  <TORSDO>
F 3

$$$$
=
 OpenBabel11042420293D

 31 35  0  0  1  0  0  0  0  0999 V2000
  160.7510  206.8610  151.5550 C   0  0  1  0  0  3  0  0  0  0  0  0
  160.6040  210.3200  150.7910 C   0  0  2  0  0  3  0  0  0  0  0  0
  161.5070  206.9780  150.3000 C   0  0  2  0  0  0  0  0  0  0  0  0
  161.4750  208.2210  153.5430 C   0  0  0  0  0  2  0  0  0  0  0  0
  161.9450  207.6850  156.9990 N   0  0  0  0  0  0  0  0  0  0  0  0
  158.1820  210.9360  153.7090 C   0  0  2  0  0  3  0  0  0  0  0  0
  160.4860  211.7110  153.1600 C   0  0  0  0  0  0  0  0  0  0  0  0
  160.6910  206.2990  154.9870 C   0  0  0  0  0  2  0  0  0  0  0  0
  161.5160  209.2000  151.2640 C   0  0  2  0  0  3  0  0  0  0  0  0
  162.0680  206.3570  151.4240 O   0  0  0  0  0  0  0  0  0  0  0  0
  158.2590  210.1110  154.9910 C   0  0  0  0  0  2  0  0  0  0  0  0
  159.1800  212.1050  153.7710 C   0  0  1  0  0  3  0  0  0  0  0  0
  161.9860  208.3900  150.0680 C   0  0  0  0  0  2  0  0  0  0  0  0
  162.5880  211.4520  154.6840 C   0  0  0  0  0  3  0  0  0  0  0  0
  161.3010  207.3420  155.9340 C   0  0  0  0  0  0  0  0  0  0  0  0
  159.3020  208.2410  154.8410 O   0  0  0  0  0  0  0  0  0  0  0  0
  161.3190  211.3800  150.5780 O   0  0  0  0  0  0  0  0  0  0  0  0
  161.5440  211.5930  153.9150 C   0  0  0  0  0  0  0  0  0  0  0  0
  160.5670  211.4210  151.7630 N   0  0  0  0  0  0  0  0  0  0  0  0
  160.7700  208.2490  152.1950 C   0  0  1  0  0  3  0  0  0  0  0  0
  160.5730  207.6790  154.6440 C   0  0  1  0  0  0  0  0  0  0  0  0
  161.0890  205.8650  148.9830 Cl  0  0  0  0  0  0  0  0  0  0  0  0
  158.6650  213.3680  153.0900 C   0  0  0  0  0  1  0  0  0  0  0  0
  159.5110  209.5120  155.1260 O   0  0  0  0  0  0  0  0  0  0  0  0
  163.8630  210.9600  154.1600 C   0  0  0  0  0  0  0  0  0  0  0  0
  163.9700  210.5120  152.8490 O   0  0  0  0  0  0  0  0  0  0  0  0
  164.8770  210.9510  154.9040 O   0  0  0  0  0  1  0  0  0  0  0  0
  161.0970  209.9340  157.2540 C   0  0  0  0  0  1  0  0  0  0  0  0
  162.1730  209.0140  157.2610 O   0  0  0  0  0  0  0  0  0  0  0  0
  156.8670  211.3890  153.5550 O   0  0  0  0  0  0  0  0  0  0  0  0
  156.6420  212.2210  154.6540 C   0  0  0  0  0  1  0  0  0  0  0  0
  1 10  1  1  0  0  0
  1 20  1  0  0  0  0
  2 17  1  6  0  0  0
  2  9  1  0  0  0  0
  2 19  1  0  0  0  0
  3 22  1  6  0  0  0
  3 10  1  0  0  0  0
  3  1  1  0  0  0  0
  5 29  1  0  0  0  0
  6 30  1  1  0  0  0
  6 12  1  0  0  0  0
  6 11  1  0  0  0  0
  7 12  1  0  0  0  0
  7 18  2  0  0  0  0
  8 15  1  0  0  0  0
  9 13  1  6  0  0  0
  9 20  1  0  0  0  0
 11 24  1  0  0  0  0
 12 23  1  6  0  0  0
 13  3  1  0  0  0  0
 15  5  2  0  0  0  0
 16 24  1  0  0  0  0
 17 19  1  0  0  0  0
 18 14  2  0  0  0  0
 19  7  1  0  0  0  0
 20  4  1  1  0  0  0
 21  4  1  6  0  0  0
 21 16  1  0  0  0  0
 21  8  1  0  0  0  0
 21 15  1  0  0  0  0
 25 14  1  0  0  0  0
 25 27  1  0  0  0  0
 26 25  2  0  0  0  0
 28 29  1  0  0  0  0
 30 31  1  0  0  0  0
M  END
>  <MODEL>
3

>  <REMARK>
 VINA RESULT:       4.4      1.603      5.469
  Name = 
  3 active torsions:
  status: ('A' for Active; 'I' for Inactive)
    1  A    between atoms: N_5  and  O_22
    2  A    between atoms: C_6  and  O_19
    3  A    between atoms: C_8  and  C_17
                            x       y       z     vdW  Elec       q    Type
                         _______ _______ _______ _____ _____    ______ ____

>  <TORSDO>
F 3

$$$$
=
 OpenBabel11042420293D

 31 35  0  0  1  0  0  0  0  0999 V2000
  163.9530  211.6160  154.3540 C   0  0  1  0  0  3  0  0  0  0  0  0
  161.0640  211.4390  156.4020 C   0  0  2  0  0  3  0  0  0  0  0  0
  164.4920  211.4550  155.7120 C   0  0  2  0  0  0  0  0  0  0  0  0
  162.3620  209.8830  153.4640 C   0  0  0  0  0  2  0  0  0  0  0  0
  161.9150  208.0990  150.4530 N   0  0  0  0  0  0  0  0  0  0  0  0
  158.8000  212.2390  153.4030 C   0  0  2  0  0  3  0  0  0  0  0  0
  159.0480  210.2860  154.9320 C   0  0  0  0  0  0  0  0  0  0  0  0
  163.3610  210.3170  151.1830 C   0  0  0  0  0  2  0  0  0  0  0  0
  162.2160  210.6330  155.8240 C   0  0  2  0  0  3  0  0  0  0  0  0
  164.8800  210.5940  154.6760 O   0  0  0  0  0  0  0  0  0  0  0  0
  159.1600  211.7780  151.9930 C   0  0  0  0  0  2  0  0  0  0  0  0
  158.0710  211.1150  154.1590 C   0  0  1  0  0  3  0  0  0  0  0  0
  163.4670  210.8710  156.6530 C   0  0  0  0  0  2  0  0  0  0  0  0
  159.5000  207.8240  154.2000 C   0  0  0  0  0  3  0  0  0  0  0  0
  162.3390  209.1850  151.0080 C   0  0  0  0  0  0  0  0  0  0  0  0
  161.2170  211.2570  151.6730 O   0  0  0  0  0  0  0  0  0  0  0  0
  160.4250  210.7010  157.2560 O   0  0  0  0  0  0  0  0  0  0  0  0
  159.2670  209.0500  154.5790 C   0  0  0  0  0  0  0  0  0  0  0  0
  159.7680  210.8590  156.0240 N   0  0  0  0  0  0  0  0  0  0  0  0
  162.5240  211.0740  154.3960 C   0  0  1  0  0  3  0  0  0  0  0  0
  162.2010  210.3160  152.0130 C   0  0  1  0  0  0  0  0  0  0  0  0
  165.7550  212.5870  156.2340 Cl  0  0  0  0  0  0  0  0  0  0  0  0
  156.9900  211.6300  155.1010 C   0  0  0  0  0  1  0  0  0  0  0  0
  160.0660  210.7190  152.0290 O   0  0  0  0  0  0  0  0  0  0  0  0
  160.5240  207.0030  154.8490 C   0  0  0  0  0  0  0  0  0  0  0  0
  161.4550  206.2980  154.0940 O   0  0  0  0  0  0  0  0  0  0  0  0
  160.5670  206.9420  156.1040 O   0  0  0  0  0  1  0  0  0  0  0  0
  160.5310  206.1440  150.7740 C   0  0  0  0  0  1  0  0  0  0  0  0
  160.7260  207.5440  150.8580 O   0  0  0  0  0  0  0  0  0  0  0  0
  158.0080  213.3880  153.3030 O   0  0  0  0  0  0  0  0  0  0  0  0
  157.8350  213.5880  151.9320 C   0  0  0  0  0  1  0  0  0  0  0  0
  1 20  1  0  0  0  0
  1 10  1  6  0  0  0
  1  3  1  0  0  0  0
  2 17  1  1  0  0  0
  3 22  1  1  0  0  0
  3 13  1  0  0  0  0
  5 29  1  0  0  0  0
  5 15  2  0  0  0  0
  6 30  1  6  0  0  0
  6 12  1  0  0  0  0
  7 19  1  0  0  0  0
  9  2  1  0  0  0  0
  9 13  1  1  0  0  0
 10  3  1  0  0  0  0
 11 24  1  0  0  0  0
 11  6  1  0  0  0  0
 12  7  1  0  0  0  0
 12 23  1  1  0  0  0
 14 18  2  0  0  0  0
 14 25  1  0  0  0  0
 15  8  1  0  0  0  0
 15 21  1  0  0  0  0
 16 21  1  0  0  0  0
 16 24  1  0  0  0  0
 18  7  2  0  0  0  0
 19  2  1  0  0  0  0
 19 17  1  0  0  0  0
 20  4  1  6  0  0  0
 20  9  1  0  0  0  0
 21  8  1  6  0  0  0
 21  4  1  0  0  0  0
 25 27  1  0  0  0  0
 26 25  2  0  0  0  0
 28 29  1  0  0  0  0
 31 30  1  0  0  0  0
M  END
>  <MODEL>
4

>  <REMARK>
 VINA RESULT:       4.4      2.541      5.191
  Name = 
  3 active torsions:
  status: ('A' for Active; 'I' for Inactive)
    1  A    between atoms: N_5  and  O_22
    2  A    between atoms: C_6  and  O_19
    3  A    between atoms: C_8  and  C_17
                            x       y       z     vdW  Elec       q    Type
                         _______ _______ _______ _____ _____    ______ ____

>  <TORSDO>
F 3

$$$$
=
 OpenBabel11042420293D

 31 35  0  0  1  0  0  0  0  0999 V2000
  161.3120  208.2050  141.6060 C   0  0  1  0  0  3  0  0  0  0  0  0
  159.7550  208.2880  138.4210 C   0  0  2  0  0  3  0  0  0  0  0  0
  161.8570  207.0280  140.9150 C   0  0  2  0  0  0  0  0  0  0  0  0
  161.6000  210.4730  140.5570 C   0  0  0  0  0  2  0  0  0  0  0  0
  162.5190  213.7070  141.6260 N   0  0  0  0  0  0  0  0  0  0  0  0
  157.5300  211.2260  139.5050 C   0  0  2  0  0  3  0  0  0  0  0  0
  159.2920  210.9180  137.7690 C   0  0  0  0  0  0  0  0  0  0  0  0
  161.7540  211.4010  142.9040 C   0  0  0  0  0  2  0  0  0  0  0  0
  161.0700  208.4950  139.1560 C   0  0  2  0  0  3  0  0  0  0  0  0
  162.7060  207.9800  141.4960 O   0  0  0  0  0  0  0  0  0  0  0  0
  158.0280  212.2740  140.4970 C   0  0  0  0  0  2  0  0  0  0  0  0
  157.9890  211.5830  138.0810 C   0  0  1  0  0  3  0  0  0  0  0  0
  161.7220  207.1480  139.4170 C   0  0  0  0  0  2  0  0  0  0  0  0
  161.4410  212.3730  137.5010 C   0  0  0  0  0  3  0  0  0  0  0  0
  161.9790  212.5800  141.9480 C   0  0  0  0  0  0  0  0  0  0  0  0
  159.7070  211.7000  141.7040 O   0  0  0  0  0  0  0  0  0  0  0  0
  159.9770  208.3470  137.1450 O   0  0  0  0  0  0  0  0  0  0  0  0
  160.3670  211.6420  137.6200 C   0  0  0  0  0  0  0  0  0  0  0  0
  159.3670  209.4950  137.6780 N   0  0  0  0  0  0  0  0  0  0  0  0
  160.8350  209.1590  140.5100 C   0  0  1  0  0  3  0  0  0  0  0  0
  161.0760  211.3960  141.6490 C   0  0  1  0  0  0  0  0  0  0  0  0
  161.8070  205.4750  141.7720 Cl  0  0  0  0  0  0  0  0  0  0  0  0
  156.9660  211.2150  137.0120 C   0  0  0  0  0  1  0  0  0  0  0  0
  159.4210  212.2840  140.5570 O   0  0  0  0  0  0  0  0  0  0  0  0
  162.7600  211.7690  137.3070 C   0  0  0  0  0  0  0  0  0  0  0  0
  163.8800  212.5620  137.0790 O   0  0  0  0  0  0  0  0  0  0  0  0
  162.8830  210.5190  137.3560 O   0  0  0  0  0  1  0  0  0  0  0  0
  160.9000  214.2650  139.9200 C   0  0  0  0  0  1  0  0  0  0  0  0
  162.2270  214.2840  140.4140 O   0  0  0  0  0  0  0  0  0  0  0  0
  156.1350  211.1620  139.5950 O   0  0  0  0  0  0  0  0  0  0  0  0
  155.7770  210.0360  138.8520 C   0  0  0  0  0  1  0  0  0  0  0  0
  1 10  1  6  0  0  0
  2 17  1  6  0  0  0
  2  9  1  0  0  0  0
  3 10  1  0  0  0  0
  3  1  1  0  0  0  0
  3 22  1  1  0  0  0
  5 15  2  0  0  0  0
  6 30  1  6  0  0  0
  6 11  1  0  0  0  0
  7 12  1  0  0  0  0
  9 13  1  1  0  0  0
  9 20  1  0  0  0  0
 11 24  1  0  0  0  0
 12 23  1  6  0  0  0
 12  6  1  0  0  0  0
 13  3  1  0  0  0  0
 14 18  2  0  0  0  0
 15  8  1  0  0  0  0
 17 19  1  0  0  0  0
 18  7  2  0  0  0  0
 19  7  1  0  0  0  0
 19  2  1  0  0  0  0
 20  4  1  6  0  0  0
 20  1  1  0  0  0  0
 21  4  1  6  0  0  0
 21 16  1  0  0  0  0
 21 15  1  0  0  0  0
 21  8  1  0  0  0  0
 24 16  1  0  0  0  0
 25 27  1  0  0  0  0
 25 14  1  0  0  0  0
 26 25  2  0  0  0  0
 28 29  1  0  0  0  0
 29  5  1  0  0  0  0
 31 30  1  0  0  0  0
M  END
>  <MODEL>
5

>  <REMARK>
 VINA RESULT:       5.5     11.565     14.829
  Name = 
  3 active torsions:
  status: ('A' for Active; 'I' for Inactive)
    1  A    between atoms: N_5  and  O_22
    2  A    between atoms: C_6  and  O_19
    3  A    between atoms: C_8  and  C_17
                            x       y       z     vdW  Elec       q    Type
                         _______ _______ _______ _____ _____    ______ ____

>  <TORSDO>
F 3

$$$$
=
 OpenBabel11042420293D

 31 35  0  0  1  0  0  0  0  0999 V2000
  160.2420  210.5820  151.2710 C   0  0  1  0  0  3  0  0  0  0  0  0
  159.3810  213.0710  153.6450 C   0  0  2  0  0  3  0  0  0  0  0  0
  160.8310  211.8120  150.7230 C   0  0  2  0  0  0  0  0  0  0  0  0
  160.9020  209.8430  153.5830 C   0  0  0  0  0  2  0  0  0  0  0  0
  161.8140  206.8210  155.1600 N   0  0  0  0  0  0  0  0  0  0  0  0
  157.1990  210.5720  155.5820 C   0  0  2  0  0  3  0  0  0  0  0  0
  159.2520  211.8790  156.1190 C   0  0  0  0  0  0  0  0  0  0  0  0
  160.6380  207.4650  152.7630 C   0  0  0  0  0  2  0  0  0  0  0  0
  160.5280  212.2450  153.0870 C   0  0  2  0  0  3  0  0  0  0  0  0
  161.6090  210.6610  150.9090 O   0  0  0  0  0  0  0  0  0  0  0  0
  157.5580  209.0900  155.6470 C   0  0  0  0  0  2  0  0  0  0  0  0
  157.9640  211.3510  156.6660 C   0  0  1  0  0  3  0  0  0  0  0  0
  161.0150  212.8650  151.7880 C   0  0  0  0  0  2  0  0  0  0  0  0
  161.5100  210.8920  156.9750 C   0  0  0  0  0  3  0  0  0  0  0  0
  161.1390  207.3800  154.2120 C   0  0  0  0  0  0  0  0  0  0  0  0
  158.9080  208.3850  154.1340 O   0  0  0  0  0  0  0  0  0  0  0  0
  159.8630  213.9600  154.4550 O   0  0  0  0  0  0  0  0  0  0  0  0
  160.3840  211.3990  156.5540 C   0  0  0  0  0  0  0  0  0  0  0  0
  159.2420  212.8750  155.0940 N   0  0  0  0  0  0  0  0  0  0  0  0
  160.0700  210.8240  152.7710 C   0  0  1  0  0  3  0  0  0  0  0  0
  160.2330  208.4780  153.6820 C   0  0  1  0  0  0  0  0  0  0  0  0
  160.4940  212.1980  149.0240 Cl  0  0  0  0  0  0  0  0  0  0  0  0
  157.1590  212.5000  157.2590 C   0  0  0  0  0  1  0  0  0  0  0  0
  158.9060  208.8880  155.3530 O   0  0  0  0  0  0  0  0  0  0  0  0
  162.7940  211.2900  156.3960 C   0  0  0  0  0  0  0  0  0  0  0  0
  163.0840  211.0330  155.0610 O   0  0  0  0  0  0  0  0  0  0  0  0
  163.6410  211.8800  157.1140 O   0  0  0  0  0  1  0  0  0  0  0  0
  160.6910  207.2370  157.2590 C   0  0  0  0  0  1  0  0  0  0  0  0
  161.8180  207.3790  156.4150 O   0  0  0  0  0  0  0  0  0  0  0  0
  155.8140  210.6980  155.7400 O   0  0  0  0  0  0  0  0  0  0  0  0
  155.2670  209.7190  154.9070 C   0  0  0  0  0  1  0  0  0  0  0  0
  1 10  1  1  0  0  0
  1 20  1  0  0  0  0
  2 17  1  1  0  0  0
  2 19  1  0  0  0  0
  3 22  1  6  0  0  0
  3 10  1  0  0  0  0
  3  1  1  0  0  0  0
  3 13  1  0  0  0  0
  4 21  1  0  0  0  0
  5 29  1  0  0  0  0
  6 11  1  0  0  0  0
  6 30  1  1  0  0  0
  6 12  1  0  0  0  0
  7 18  2  0  0  0  0
  7 12  1  0  0  0  0
  8 15  1  0  0  0  0
  9 13  1  6  0  0  0
  9  2  1  0  0  0  0
 12 23  1  6  0  0  0
 15  5  2  0  0  0  0
 16 24  1  0  0  0  0
 17 19  1  0  0  0  0
 18 14  2  0  0  0  0
 19  7  1  0  0  0  0
 20  9  1  0  0  0  0
 20  4  1  1  0  0  0
 21  8  1  6  0  0  0
 21 16  1  0  0  0  0
 21 15  1  0  0  0  0
 24 11  1  0  0  0  0
 25 14  1  0  0  0  0
 25 27  1  0  0  0  0
 26 25  2  0  0  0  0
 29 28  1  0  0  0  0
 31 30  1  0  0  0  0
M  END
>  <MODEL>
6

>  <REMARK>
 VINA RESULT:       5.6      2.786      6.033
  Name = 
  3 active torsions:
  status: ('A' for Active; 'I' for Inactive)
    1  A    between atoms: N_5  and  O_22
    2  A    between atoms: C_6  and  O_19
    3  A    between atoms: C_8  and  C_17
                            x       y       z     vdW  Elec       q    Type
                         _______ _______ _______ _____ _____    ______ ____

>  <TORSDO>
F 3

$$$$
