=
 OpenBabel11052411113D

 60 66  0  0  1  0  0  0  0  0999 V2000
  162.1010  204.3760  147.5650 C   0  0  1  0  0  3  0  0  0  0  0  0
  161.6370  204.9330  148.9150 C   0  0  1  0  0  0  0  0  0  0  0  0
  160.6120  204.5580  147.8660 C   0  0  0  0  0  2  0  0  0  0  0  0
  162.6050  205.4360  146.7830 O   0  0  0  0  0  0  0  0  0  0  0  0
  162.3810  205.1560  145.4250 C   0  0  0  0  0  0  0  0  0  0  0  0
  162.0060  203.6920  145.2530 C   0  0  0  0  0  2  0  0  0  0  0  0
  163.3520  204.1980  144.7540 C   0  0  0  0  0  2  0  0  0  0  0  0
  161.5440  206.1460  144.5870 C   0  0  2  0  0  3  0  0  0  0  0  0
  159.3260  205.2460  144.7060 O   0  0  0  0  0  1  0  0  0  0  0  0
  160.1420  206.2750  145.1720 C   0  0  0  0  0  2  0  0  0  0  0  0
  161.4620  205.7440  143.1100 C   0  0  0  0  0  2  0  0  0  0  0  0
  162.4510  206.5160  142.2600 C   0  0  0  0  0  2  0  0  0  0  0  0
  161.7770  206.9100  140.9640 C   0  0  0  0  0  2  0  0  0  0  0  0
  161.7360  208.9490  139.5140 C   0  0  0  0  0  0  0  0  0  0  0  0
  162.1110  208.3310  140.6390 C   0  0  0  0  0  3  0  0  0  0  0  0
  163.8870  212.6040  139.1090 C   0  0  1  0  0  3  0  0  0  0  0  0
  162.7640  210.9590  140.6440 C   0  0  0  0  0  2  0  0  0  0  0  0
  164.0030  214.0780  138.7800 C   0  0  0  0  0  1  0  0  0  0  0  0
  163.0640  210.5040  138.2790 O   0  0  0  0  0  0  0  0  0  0  0  0
  163.1030  212.4280  140.4130 C   0  0  0  0  0  2  0  0  0  0  0  0
  162.1640  210.3800  139.3580 C   0  0  1  0  0  3  0  0  0  0  0  0
  163.1560  211.8750  137.9820 C   0  0  0  0  0  2  0  0  0  0  0  0
  161.2980  207.2540  137.8870 O   0  0  0  0  0  0  0  0  0  0  0  0
  160.8930  208.2930  138.4790 C   0  0  0  0  0  0  0  0  0  0  0  0
  159.6120  208.8440  138.1490 N   0  0  0  0  0  2  0  0  0  0  0  0
  157.5430  208.8830  137.0760 O   0  0  0  0  0  1  0  0  0  0  0  0
  158.8370  208.3630  137.0140 C   0  0  0  0  0  2  0  0  0  0  0  0
  161.7890  203.9840  150.0940 C   0  0  0  0  0  2  0  0  0  0  0  0
  160.4880  203.4650  150.4880 N   0  0  0  0  0  2  0  0  0  0  0  0
  160.7190  202.1000  150.9200 C   0  0  0  0  0  2  0  0  0  0  0  0
  159.1740  201.2870  149.1420 O   0  0  0  0  0  0  0  0  0  0  0  0
  160.3790  201.1580  149.8220 C   0  0  0  0  0  0  0  0  0  0  0  0
  161.1800  200.2370  149.5120 O   0  0  0  0  0  1  0  0  0  0  0  0
  161.9520  206.3210  149.1230 O   0  0  0  0  0  0  0  0  0  0  0  0
  161.7690  206.9130  153.9540 O   0  0  0  0  0  0  0  0  0  0  0  0
  160.1270  210.0360  154.4380 C   0  0  0  0  0  0  0  0  0  0  0  0
  161.2390  207.8880  154.6590 C   0  0  0  0  0  0  0  0  0  0  0  0
  161.6530  207.2670  152.6940 C   0  0  0  0  0  0  0  0  0  0  0  0
  161.1180  207.9080  156.0080 N   0  0  0  0  0  0  0  0  0  0  0  0
  160.7770  208.9220  153.8650 C   0  0  0  0  0  0  0  0  0  0  0  0
  161.0790  208.5200  152.5760 C   0  0  0  0  0  0  0  0  0  0  0  0
  161.7240  207.0500  150.3010 C   0  0  0  0  0  0  0  0  0  0  0  0
  160.4550  208.9360  156.6020 C   0  0  0  0  0  3  0  0  0  0  0  0
  160.8280  209.0840  151.3310 C   0  0  0  0  0  3  0  0  0  0  0  0
  159.9480  210.0010  155.8370 C   0  0  0  0  0  3  0  0  0  0  0  0
  161.9880  206.5050  151.5760 C   0  0  0  0  0  3  0  0  0  0  0  0
  161.1730  208.3430  150.1890 C   0  0  0  0  0  3  0  0  0  0  0  0
  158.5170  212.9270  152.6700 C   0  0  0  0  0  0  0  0  0  0  0  0
  158.3590  211.8880  153.7300 C   0  0  0  0  0  2  0  0  0  0  0  0
  159.7530  212.8430  152.1760 C   0  0  0  0  0  0  0  0  0  0  0  0
  159.7210  211.2660  153.7080 C   0  0  0  0  0  0  0  0  0  0  0  0
  160.4900  211.8110  152.8210 N   0  0  0  0  0  0  0  0  0  0  0  0
  157.4630  213.8110  152.2420 N   0  0  0  0  0  0  0  0  0  0  0  0
  156.5580  214.3820  153.2340 C   0  0  0  0  0  1  0  0  0  0  0  0
  157.3190  214.2500  150.8600 C   0  0  0  0  0  2  0  0  0  0  0  0
  155.9360  213.8980  150.3420 C   0  0  0  0  0  1  0  0  0  0  0  0
  160.2930  213.5630  150.9780 C   0  0  0  0  0  2  0  0  0  0  0  0
  160.9550  212.5850  150.0090 C   0  0  0  0  0  2  0  0  0  0  0  0
  161.5230  213.3040  148.8320 C   0  0  0  0  0  3  0  0  0  0  0  0
  162.5290  212.8300  148.1960 N   0  0  0  0  0  2  0  0  0  0  0  0
  1  4  1  6  0  0  0
  1  3  1  0  0  0  0
  1  2  1  0  0  0  0
  2 34  1  0  0  0  0
  2 28  1  1  0  0  0
  3  2  1  0  0  0  0
  5  4  1  0  0  0  0
  6  5  1  0  0  0  0
  7  6  1  0  0  0  0
  7  5  1  0  0  0  0
  8 11  1  6  0  0  0
  8 10  1  0  0  0  0
  8  5  1  0  0  0  0
  9 10  1  0  0  0  0
 12 11  1  0  0  0  0
 13 12  1  0  0  0  0
 14 15  2  0  0  0  0
 15 13  1  0  0  0  0
 16 18  1  6  0  0  0
 16 20  1  0  0  0  0
 19 21  1  0  0  0  0
 20 17  1  0  0  0  0
 21 14  1  1  0  0  0
 21 17  1  0  0  0  0
 22 19  1  0  0  0  0
 22 16  1  0  0  0  0
 23 24  2  0  0  0  0
 24 14  1  0  0  0  0
 25 24  1  0  0  0  0
 27 26  1  0  0  0  0
 27 25  1  0  0  0  0
 28 29  1  0  0  0  0
 29 30  1  0  0  0  0
 31 32  2  0  0  0  0
 32 30  1  0  0  0  0
 33 32  1  0  0  0  0
 34 42  1  0  0  0  0
 35 37  1  0  0  0  0
 36 45  1  0  0  0  0
 37 39  2  0  0  0  0
 38 35  1  0  0  0  0
 39 43  1  0  0  0  0
 40 36  2  0  0  0  0
 40 37  1  0  0  0  0
 41 38  1  0  0  0  0
 41 40  1  0  0  0  0
 42 46  1  0  0  0  0
 44 41  2  0  0  0  0
 45 43  2  0  0  0  0
 46 38  2  0  0  0  0
 47 42  2  0  0  0  0
 47 44  1  0  0  0  0
 48 49  1  0  0  0  0
 50 48  2  0  0  0  0
 50 52  1  0  0  0  0
 51 49  1  0  0  0  0
 51 36  1  0  0  0  0
 52 51  2  0  0  0  0
 53 48  1  0  0  0  0
 53 54  1  0  0  0  0
 55 53  1  0  0  0  0
 56 55  1  0  0  0  0
 57 50  1  0  0  0  0
 58 57  1  0  0  0  0
 59 58  1  0  0  0  0
 60 59  2  0  0  0  0
M  END
>  <MODEL>
1

>  <REMARK>
 VINA RESULT:      -4.0      0.000      0.000
  Name = 
  23 active torsions:
  status: ('A' for Active; 'I' for Inactive)
    1  A    between atoms: O_2  and  C_18
    2  A    between atoms: O_2  and  C_46
    3  A    between atoms: C_3  and  N_23
    4  A    between atoms: C_4  and  C_9
    5  A    between atoms: C_4  and  C_38
    6  A    between atoms: C_5  and  C_18
    7  A    between atoms: C_5  and  N_33
    8  A    between atoms: C_7  and  N_23
    9  A    between atoms: C_9  and  C_17
   10  A    between atoms: C_11  and  C_36
   11  A    between atoms: C_11  and  C_40
   12  A    between atoms: C_14  and  O_59
   13  A    between atoms: C_15  and  C_25
   14  A    between atoms: C_16  and  C_28
   15  A    between atoms: C_21  and  C_60
   16  A    between atoms: C_28  and  C_45
   17  A    between atoms: C_30  and  C_31
   18  A    between atoms: C_31  and  N_33
   19  A    between atoms: C_38  and  C_60
   20  A    between atoms: C_39  and  O_59
   21  A    between atoms: C_39  and  C_60
   22  A    between atoms: C_43  and  C_45
   23  A    between atoms: C_56  and  N_58
                            x       y       z     vdW  Elec       q    Type
                         _______ _______ _______ _____ _____    ______ ____

>  <TORSDO>
F 23

$$$$
