=
 OpenBabel11052409493D

 26 27  0  0  1  0  0  0  0  0999 V2000
  161.7140  209.7460  151.7120 C   0  0  0  0  0  0  0  0  0  0  0  0
  160.8840  209.8380  154.0830 C   0  0  0  0  0  0  0  0  0  0  0  0
  160.8320  206.1240  154.5650 C   0  0  0  0  0  3  0  0  0  0  0  0
  161.1110  210.6020  152.8050 C   0  0  2  0  0  3  0  0  0  0  0  0
  160.5880  207.4610  155.2030 C   0  0  0  0  0  2  0  0  0  0  0  0
  162.2600  210.3160  150.7290 O   0  0  0  0  0  0  0  0  0  0  0  0
  162.0310  207.5080  150.6380 C   0  0  0  0  0  0  0  0  0  0  0  0
  161.1870  206.2620  153.2910 C   0  0  0  0  0  3  0  0  0  0  0  0
  161.1970  207.6850  152.9910 C   0  0  0  0  0  0  0  0  0  0  0  0
  163.1590  207.7070  150.1110 O   0  0  0  0  0  0  0  0  0  0  0  0
  161.6230  208.3060  151.7630 N   0  0  0  0  0  0  0  0  0  0  0  0
  160.8710  208.3730  154.0630 C   0  0  0  0  0  0  0  0  0  0  0  0
  160.6840  210.4590  155.1600 O   0  0  0  0  0  0  0  0  0  0  0  0
  158.7230  210.7240  152.6380 O   0  0  0  0  0  0  0  0  0  0  0  0
  159.8360  211.2300  152.3350 C   0  0  0  0  0  0  0  0  0  0  0  0
  159.8840  212.4090  151.5410 N   0  0  0  0  0  1  0  0  0  0  0  0
  161.1420  206.4820  150.0720 C   0  0  0  0  0  0  0  0  0  0  0  0
  161.4290  205.0990  150.2780 N   0  0  0  0  0  2  0  0  0  0  0  0
  160.1380  206.8200  149.3870 O   0  0  0  0  0  0  0  0  0  0  0  0
  160.6030  204.1030  149.7460 N   0  0  0  0  0  0  0  0  0  0  0  0
  161.1040  202.9650  149.3980 C   0  0  0  0  0  3  0  0  0  0  0  0
  160.2330  201.8970  148.8270 C   0  0  0  0  0  2  0  0  0  0  0  0
  160.8900  201.2490  147.6530 C   0  0  0  0  0  0  0  0  0  0  0  0
  161.4260  200.1600  147.7790 O   0  0  0  0  0  0  0  0  0  0  0  0
  160.9280  201.9520  146.3370 C   0  0  0  0  0  2  0  0  0  0  0  0
  160.1960  201.2310  145.3920 O   0  0  0  0  0  1  0  0  0  0  0  0
  1 11  1  0  0  0  0
  1  4  1  0  0  0  0
  2 13  2  0  0  0  0
  3  5  1  0  0  0  0
  4 15  1  6  0  0  0
  4  2  1  0  0  0  0
  6  1  2  0  0  0  0
  7 11  1  0  0  0  0
  8  3  2  0  0  0  0
  9  8  1  0  0  0  0
  9 12  2  0  0  0  0
 10  7  2  0  0  0  0
 11  9  1  0  0  0  0
 12  2  1  0  0  0  0
 12  5  1  0  0  0  0
 15 14  2  0  0  0  0
 16 15  1  0  0  0  0
 17 18  1  0  0  0  0
 17  7  1  0  0  0  0
 19 17  2  0  0  0  0
 20 18  1  0  0  0  0
 21 20  2  0  0  0  0
 22 21  1  0  0  0  0
 23 24  2  0  0  0  0
 23 22  1  0  0  0  0
 25 23  1  0  0  0  0
 26 25  1  0  0  0  0
M  END
>  <MODEL>
1

>  <REMARK>
 VINA RESULT:      -6.7      0.000      0.000
  Name = 
  6 active torsions:
  status: ('A' for Active; 'I' for Inactive)
    1  A    between atoms: C_4  and  C_5
    2  A    between atoms: C_5  and  C_22
    3  A    between atoms: C_6  and  C_17
    4  A    between atoms: C_8  and  C_14
    5  A    between atoms: N_9  and  N_11
    6  A    between atoms: C_19  and  C_22
                            x       y       z     vdW  Elec       q    Type
                         _______ _______ _______ _____ _____    ______ ____

>  <TORSDO>
F 6

$$$$
=
 OpenBabel11052409493D

 26 27  0  0  1  0  0  0  0  0999 V2000
  159.3470  211.9970  153.2490 C   0  0  0  0  0  0  0  0  0  0  0  0
  159.4640  212.7550  155.6430 C   0  0  0  0  0  0  0  0  0  0  0  0
  162.4940  210.7230  156.4900 C   0  0  0  0  0  3  0  0  0  0  0  0
  158.6380  212.7030  154.3840 C   0  0  2  0  0  3  0  0  0  0  0  0
  161.4800  211.7080  156.9960 C   0  0  0  0  0  2  0  0  0  0  0  0
  158.9310  212.1740  152.0720 O   0  0  0  0  0  0  0  0  0  0  0  0
  160.9930  210.2900  152.4490 C   0  0  0  0  0  0  0  0  0  0  0  0
  162.2330  210.3740  155.2340 C   0  0  0  0  0  3  0  0  0  0  0  0
  161.0350  211.0870  154.8210 C   0  0  0  0  0  0  0  0  0  0  0  0
  161.3140  210.8310  151.3570 O   0  0  0  0  0  0  0  0  0  0  0  0
  160.4460  211.0970  153.5070 N   0  0  0  0  0  0  0  0  0  0  0  0
  160.6060  211.8500  155.8020 C   0  0  0  0  0  0  0  0  0  0  0  0
  159.1580  213.5580  156.5640 O   0  0  0  0  0  0  0  0  0  0  0  0
  157.2450  210.9260  155.1900 O   0  0  0  0  0  0  0  0  0  0  0  0
  157.3120  212.0640  154.6520 C   0  0  0  0  0  0  0  0  0  0  0  0
  156.1160  212.7480  154.2970 N   0  0  0  0  0  1  0  0  0  0  0  0
  161.1560  208.8370  152.6090 C   0  0  0  0  0  0  0  0  0  0  0  0
  162.0280  208.1180  151.7360 N   0  0  0  0  0  2  0  0  0  0  0  0
  160.5130  208.2210  153.5020 O   0  0  0  0  0  0  0  0  0  0  0  0
  162.1970  206.7360  151.8620 N   0  0  0  0  0  0  0  0  0  0  0  0
  161.4030  205.9280  151.2420 C   0  0  0  0  0  3  0  0  0  0  0  0
  161.5730  204.4510  151.3730 C   0  0  0  0  0  2  0  0  0  0  0  0
  161.0180  203.7460  150.1790 C   0  0  0  0  0  0  0  0  0  0  0  0
  160.6480  202.5880  150.2720 O   0  0  0  0  0  0  0  0  0  0  0  0
  160.9570  204.4470  148.8610 C   0  0  0  0  0  2  0  0  0  0  0  0
  161.8070  203.8180  147.9510 O   0  0  0  0  0  1  0  0  0  0  0  0
  1 11  1  0  0  0  0
  1  4  1  0  0  0  0
  2 12  1  0  0  0  0
  2 13  2  0  0  0  0
  3  5  1  0  0  0  0
  4 15  1  1  0  0  0
  4  2  1  0  0  0  0
  6  1  2  0  0  0  0
  7 17  1  0  0  0  0
  7 11  1  0  0  0  0
  8  3  2  0  0  0  0
  9  8  1  0  0  0  0
  9 12  2  0  0  0  0
 10  7  2  0  0  0  0
 11  9  1  0  0  0  0
 12  5  1  0  0  0  0
 15 14  2  0  0  0  0
 16 15  1  0  0  0  0
 17 19  2  0  0  0  0
 18 20  1  0  0  0  0
 18 17  1  0  0  0  0
 21 22  1  0  0  0  0
 21 20  2  0  0  0  0
 23 24  2  0  0  0  0
 23 22  1  0  0  0  0
 25 23  1  0  0  0  0
 26 25  1  0  0  0  0
M  END
>  <MODEL>
2

>  <REMARK>
 VINA RESULT:      -5.9      2.585      3.875
  Name = 
  6 active torsions:
  status: ('A' for Active; 'I' for Inactive)
    1  A    between atoms: C_4  and  C_5
    2  A    between atoms: C_5  and  C_22
    3  A    between atoms: C_6  and  C_17
    4  A    between atoms: C_8  and  C_14
    5  A    between atoms: N_9  and  N_11
    6  A    between atoms: C_19  and  C_22
                            x       y       z     vdW  Elec       q    Type
                         _______ _______ _______ _____ _____    ______ ____

>  <TORSDO>
F 6

$$$$
=
 OpenBabel11052409493D

 26 27  0  0  1  0  0  0  0  0999 V2000
  161.4550  213.8780  145.3400 C   0  0  0  0  0  0  0  0  0  0  0  0
  159.1820  213.8170  144.2690 C   0  0  0  0  0  0  0  0  0  0  0  0
  157.3100  213.3490  147.4780 C   0  0  0  0  0  3  0  0  0  0  0  0
  160.6710  213.7660  144.0510 C   0  0  2  0  0  3  0  0  0  0  0  0
  157.1980  213.5120  145.9910 C   0  0  0  0  0  3  0  0  0  0  0  0
  162.6760  214.1860  145.2820 O   0  0  0  0  0  0  0  0  0  0  0  0
  161.6260  213.5180  147.8110 C   0  0  0  0  0  0  0  0  0  0  0  0
  158.5830  213.3250  147.8610 C   0  0  0  0  0  2  0  0  0  0  0  0
  159.4010  213.4590  146.6670 C   0  0  0  0  0  0  0  0  0  0  0  0
  162.4250  214.4530  148.0860 O   0  0  0  0  0  0  0  0  0  0  0  0
  160.8340  213.5890  146.6120 N   0  0  0  0  0  0  0  0  0  0  0  0
  158.6330  213.5760  145.6060 C   0  0  0  0  0  0  0  0  0  0  0  0
  158.4110  214.0440  143.2990 O   0  0  0  0  0  0  0  0  0  0  0  0
  160.2690  211.5320  143.2790 O   0  0  0  0  0  0  0  0  0  0  0  0
  161.0510  212.5190  143.3140 C   0  0  0  0  0  0  0  0  0  0  0  0
  162.3060  212.4500  142.6480 N   0  0  0  0  0  1  0  0  0  0  0  0
  161.5420  212.3550  148.7090 C   0  0  0  0  0  0  0  0  0  0  0  0
  162.0270  211.0840  148.2750 N   0  0  0  0  0  2  0  0  0  0  0  0
  161.0240  212.4730  149.8520 O   0  0  0  0  0  0  0  0  0  0  0  0
  161.9540  209.9620  149.1060 N   0  0  0  0  0  0  0  0  0  0  0  0
  162.0070  208.7760  148.5980 C   0  0  0  0  0  3  0  0  0  0  0  0
  161.9260  207.5720  149.4750 C   0  0  0  0  0  2  0  0  0  0  0  0
  161.5030  206.3730  148.6920 C   0  0  0  0  0  0  0  0  0  0  0  0
  160.9500  205.4420  149.2540 O   0  0  0  0  0  0  0  0  0  0  0  0
  161.7950  206.2960  147.2300 C   0  0  0  0  0  2  0  0  0  0  0  0
  160.6020  206.3130  146.5070 O   0  0  0  0  0  1  0  0  0  0  0  0
  1 11  1  0  0  0  0
  2 12  1  0  0  0  0
  3  8  1  0  0  0  0
  4 15  1  1  0  0  0
  4  2  1  0  0  0  0
  4  1  1  0  0  0  0
  5  3  2  0  0  0  0
  6  1  2  0  0  0  0
  7 10  2  0  0  0  0
  7 17  1  0  0  0  0
  9  8  1  0  0  0  0
 11  9  1  0  0  0  0
 11  7  1  0  0  0  0
 12  5  1  0  0  0  0
 12  9  2  0  0  0  0
 13  2  2  0  0  0  0
 14 15  2  0  0  0  0
 16 15  1  0  0  0  0
 17 19  2  0  0  0  0
 18 17  1  0  0  0  0
 18 20  1  0  0  0  0
 21 20  2  0  0  0  0
 21 22  1  0  0  0  0
 23 24  2  0  0  0  0
 23 22  1  0  0  0  0
 25 23  1  0  0  0  0
 26 25  1  0  0  0  0
M  END
>  <MODEL>
3

>  <REMARK>
 VINA RESULT:      -5.8      5.943      8.109
  Name = 
  6 active torsions:
  status: ('A' for Active; 'I' for Inactive)
    1  A    between atoms: C_4  and  C_5
    2  A    between atoms: C_5  and  C_22
    3  A    between atoms: C_6  and  C_17
    4  A    between atoms: C_8  and  C_14
    5  A    between atoms: N_9  and  N_11
    6  A    between atoms: C_19  and  C_22
                            x       y       z     vdW  Elec       q    Type
                         _______ _______ _______ _____ _____    ______ ____

>  <TORSDO>
F 6

$$$$
=
 OpenBabel11052409493D

 26 27  0  0  1  0  0  0  0  0999 V2000
  160.6740  210.9080  152.8780 C   0  0  0  0  0  0  0  0  0  0  0  0
  159.7940  211.1240  155.2230 C   0  0  0  0  0  0  0  0  0  0  0  0
  160.8450  207.6940  156.2950 C   0  0  0  0  0  3  0  0  0  0  0  0
  159.8150  211.7060  153.8330 C   0  0  2  0  0  3  0  0  0  0  0  0
  160.1950  208.9800  156.7160 C   0  0  0  0  0  2  0  0  0  0  0  0
  161.0500  211.4500  151.8040 O   0  0  0  0  0  0  0  0  0  0  0  0
  161.6760  208.7260  152.1700 C   0  0  0  0  0  0  0  0  0  0  0  0
  161.1750  207.7260  155.0080 C   0  0  0  0  0  3  0  0  0  0  0  0
  160.7660  209.0180  154.4830 C   0  0  0  0  0  0  0  0  0  0  0  0
  162.7050  209.1670  151.5910 O   0  0  0  0  0  0  0  0  0  0  0  0
  161.0180  209.5340  153.1620 N   0  0  0  0  0  0  0  0  0  0  0  0
  160.2210  209.7390  155.4380 C   0  0  0  0  0  0  0  0  0  0  0  0
  159.3890  211.8210  156.1910 O   0  0  0  0  0  0  0  0  0  0  0  0
  157.4570  211.2730  153.8780 O   0  0  0  0  0  0  0  0  0  0  0  0
  158.4220  211.8390  153.2990 C   0  0  0  0  0  0  0  0  0  0  0  0
  158.1890  212.6120  152.1280 N   0  0  0  0  0  1  0  0  0  0  0  0
  161.1500  207.4030  151.7970 C   0  0  0  0  0  0  0  0  0  0  0  0
  161.4460  206.2660  152.6070 N   0  0  0  0  0  2  0  0  0  0  0  0
  160.4560  207.2690  150.7530 O   0  0  0  0  0  0  0  0  0  0  0  0
  160.9630  204.9960  152.2720 N   0  0  0  0  0  0  0  0  0  0  0  0
  161.7160  204.1680  151.6280 C   0  0  0  0  0  3  0  0  0  0  0  0
  161.2100  202.8130  151.2630 C   0  0  0  0  0  2  0  0  0  0  0  0
  160.6850  202.8010  149.8650 C   0  0  0  0  0  0  0  0  0  0  0  0
  159.9970  201.8710  149.4800 O   0  0  0  0  0  0  0  0  0  0  0  0
  161.0380  203.9080  148.9270 C   0  0  0  0  0  2  0  0  0  0  0  0
  161.5830  203.3810  147.7560 O   0  0  0  0  0  1  0  0  0  0  0  0
  1 11  1  0  0  0  0
  1  4  1  0  0  0  0
  2 12  1  0  0  0  0
  2 13  2  0  0  0  0
  3  5  1  0  0  0  0
  4 15  1  6  0  0  0
  4  2  1  0  0  0  0
  6  1  2  0  0  0  0
  7 11  1  0  0  0  0
  8  3  2  0  0  0  0
  9  8  1  0  0  0  0
  9 12  2  0  0  0  0
 10  7  2  0  0  0  0
 11  9  1  0  0  0  0
 12  5  1  0  0  0  0
 15 14  2  0  0  0  0
 16 15  1  0  0  0  0
 17  7  1  0  0  0  0
 17 18  1  0  0  0  0
 19 17  2  0  0  0  0
 20 18  1  0  0  0  0
 21 20  2  0  0  0  0
 22 21  1  0  0  0  0
 23 22  1  0  0  0  0
 24 23  2  0  0  0  0
 25 23  1  0  0  0  0
 26 25  1  0  0  0  0
M  END
>  <MODEL>
4

>  <REMARK>
 VINA RESULT:      -5.7      1.906      2.311
  Name = 
  6 active torsions:
  status: ('A' for Active; 'I' for Inactive)
    1  A    between atoms: C_4  and  C_5
    2  A    between atoms: C_5  and  C_22
    3  A    between atoms: C_6  and  C_17
    4  A    between atoms: C_8  and  C_14
    5  A    between atoms: N_9  and  N_11
    6  A    between atoms: C_19  and  C_22
                            x       y       z     vdW  Elec       q    Type
                         _______ _______ _______ _____ _____    ______ ____

>  <TORSDO>
F 6

$$$$
=
 OpenBabel11052409493D

 26 27  0  0  1  0  0  0  0  0999 V2000
  160.4370  211.1000  153.2930 C   0  0  0  0  0  0  0  0  0  0  0  0
  159.4800  210.5730  155.5570 C   0  0  0  0  0  0  0  0  0  0  0  0
  160.7460  207.0490  155.6450 C   0  0  0  0  0  3  0  0  0  0  0  0
  159.4970  211.5330  154.3960 C   0  0  2  0  0  3  0  0  0  0  0  0
  159.9940  208.1160  156.3870 C   0  0  0  0  0  2  0  0  0  0  0  0
  160.8020  211.9520  152.4380 O   0  0  0  0  0  0  0  0  0  0  0  0
  161.6120  209.2830  152.0350 C   0  0  0  0  0  0  0  0  0  0  0  0
  161.1080  207.4740  154.4380 C   0  0  0  0  0  3  0  0  0  0  0  0
  160.6210  208.8350  154.2890 C   0  0  0  0  0  0  0  0  0  0  0  0
  162.6230  209.9340  151.6560 O   0  0  0  0  0  0  0  0  0  0  0  0
  160.8710  209.7260  153.1850 N   0  0  0  0  0  0  0  0  0  0  0  0
  160.0000  209.2140  155.3840 C   0  0  0  0  0  0  0  0  0  0  0  0
  159.0000  210.9330  156.6640 O   0  0  0  0  0  0  0  0  0  0  0  0
  157.9200  212.4340  152.8300 O   0  0  0  0  0  0  0  0  0  0  0  0
  158.1140  211.7300  153.8580 C   0  0  0  0  0  0  0  0  0  0  0  0
  157.0100  211.1180  154.5130 N   0  0  0  0  0  1  0  0  0  0  0  0
  161.1930  208.0960  151.2730 C   0  0  0  0  0  0  0  0  0  0  0  0
  161.2670  208.1040  149.8470 N   0  0  0  0  0  2  0  0  0  0  0  0
  160.7500  207.0800  151.8740 O   0  0  0  0  0  0  0  0  0  0  0  0
  160.8690  206.9910  149.0980 N   0  0  0  0  0  0  0  0  0  0  0  0
  161.7170  206.3910  148.3310 C   0  0  0  0  0  3  0  0  0  0  0  0
  161.3030  205.2060  147.5260 C   0  0  0  0  0  2  0  0  0  0  0  0
  162.0250  205.1740  146.2190 C   0  0  0  0  0  0  0  0  0  0  0  0
  163.2220  204.9440  146.1890 O   0  0  0  0  0  0  0  0  0  0  0  0
  161.2880  205.4670  144.9540 C   0  0  0  0  0  2  0  0  0  0  0  0
  160.1450  206.2170  145.2340 O   0  0  0  0  0  1  0  0  0  0  0  0
  1  4  1  0  0  0  0
  2 13  2  0  0  0  0
  3  5  1  0  0  0  0
  4 15  1  6  0  0  0
  4  2  1  0  0  0  0
  6  1  2  0  0  0  0
  7 11  1  0  0  0  0
  8  3  2  0  0  0  0
  9  8  1  0  0  0  0
  9 12  2  0  0  0  0
 10  7  2  0  0  0  0
 11  1  1  0  0  0  0
 11  9  1  0  0  0  0
 12  2  1  0  0  0  0
 12  5  1  0  0  0  0
 14 15  2  0  0  0  0
 15 16  1  0  0  0  0
 17 19  2  0  0  0  0
 17  7  1  0  0  0  0
 18 17  1  0  0  0  0
 20 18  1  0  0  0  0
 21 20  2  0  0  0  0
 22 21  1  0  0  0  0
 23 22  1  0  0  0  0
 24 23  2  0  0  0  0
 25 26  1  0  0  0  0
 25 23  1  0  0  0  0
M  END
>  <MODEL>
5

>  <REMARK>
 VINA RESULT:      -5.6      2.566      2.982
  Name = 
  6 active torsions:
  status: ('A' for Active; 'I' for Inactive)
    1  A    between atoms: C_4  and  C_5
    2  A    between atoms: C_5  and  C_22
    3  A    between atoms: C_6  and  C_17
    4  A    between atoms: C_8  and  C_14
    5  A    between atoms: N_9  and  N_11
    6  A    between atoms: C_19  and  C_22
                            x       y       z     vdW  Elec       q    Type
                         _______ _______ _______ _____ _____    ______ ____

>  <TORSDO>
F 6

$$$$
=
 OpenBabel11052409493D

 26 27  0  0  1  0  0  0  0  0999 V2000
  161.0590  205.2440  147.2570 C   0  0  0  0  0  0  0  0  0  0  0  0
  161.3360  202.7720  146.8950 C   0  0  0  0  0  0  0  0  0  0  0  0
  160.6170  201.8290  150.4470 C   0  0  0  0  0  3  0  0  0  0  0  0
  161.5420  204.1530  146.3280 C   0  0  2  0  0  3  0  0  0  0  0  0
  160.9450  201.3240  149.0720 C   0  0  0  0  0  3  0  0  0  0  0  0
  160.8570  206.3960  146.7860 O   0  0  0  0  0  0  0  0  0  0  0  0
  160.5980  206.0730  149.5740 C   0  0  0  0  0  0  0  0  0  0  0  0
  160.5880  203.1580  150.4720 C   0  0  0  0  0  2  0  0  0  0  0  0
  160.9000  203.6280  149.1320 C   0  0  0  0  0  0  0  0  0  0  0  0
  159.6710  206.8850  149.3060 O   0  0  0  0  0  0  0  0  0  0  0  0
  160.8780  204.9910  148.6680 N   0  0  0  0  0  0  0  0  0  0  0  0
  161.0930  202.6040  148.3300 C   0  0  0  0  0  0  0  0  0  0  0  0
  161.3960  201.7670  146.1400 O   0  0  0  0  0  0  0  0  0  0  0  0
  163.4060  204.0820  144.8220 O   0  0  0  0  0  0  0  0  0  0  0  0
  162.9810  204.3660  145.9740 C   0  0  0  0  0  0  0  0  0  0  0  0
  163.8740  204.8930  146.9470 N   0  0  0  0  0  1  0  0  0  0  0  0
  161.3950  206.2660  150.7950 C   0  0  0  0  0  0  0  0  0  0  0  0
  160.7400  206.5040  152.0420 N   0  0  0  0  0  2  0  0  0  0  0  0
  162.6550  206.2420  150.7410 O   0  0  0  0  0  0  0  0  0  0  0  0
  161.4740  206.6970  153.2170 N   0  0  0  0  0  0  0  0  0  0  0  0
  160.8970  207.1750  154.2690 C   0  0  0  0  0  3  0  0  0  0  0  0
  161.6710  207.3870  155.5260 C   0  0  0  0  0  2  0  0  0  0  0  0
  161.6960  208.8340  155.8960 C   0  0  0  0  0  0  0  0  0  0  0  0
  162.3450  209.2060  156.8590 O   0  0  0  0  0  0  0  0  0  0  0  0
  160.8900  209.8170  155.1130 C   0  0  0  0  0  2  0  0  0  0  0  0
  161.7270  210.8020  154.5860 O   0  0  0  0  0  1  0  0  0  0  0  0
  1 11  1  0  0  0  0
  2 12  1  0  0  0  0
  3  8  1  0  0  0  0
  4 15  1  1  0  0  0
  4  2  1  0  0  0  0
  4  1  1  0  0  0  0
  5  3  2  0  0  0  0
  6  1  2  0  0  0  0
  7 17  1  0  0  0  0
  9  8  1  0  0  0  0
 10  7  2  0  0  0  0
 11  9  1  0  0  0  0
 11  7  1  0  0  0  0
 12  5  1  0  0  0  0
 12  9  2  0  0  0  0
 13  2  2  0  0  0  0
 14 15  2  0  0  0  0
 15 16  1  0  0  0  0
 17 18  1  0  0  0  0
 18 20  1  0  0  0  0
 19 17  2  0  0  0  0
 20 21  2  0  0  0  0
 21 22  1  0  0  0  0
 22 23  1  0  0  0  0
 23 24  2  0  0  0  0
 25 23  1  0  0  0  0
 26 25  1  0  0  0  0
M  END
>  <MODEL>
6

>  <REMARK>
 VINA RESULT:      -5.6      2.237      8.233
  Name = 
  6 active torsions:
  status: ('A' for Active; 'I' for Inactive)
    1  A    between atoms: C_4  and  C_5
    2  A    between atoms: C_5  and  C_22
    3  A    between atoms: C_6  and  C_17
    4  A    between atoms: C_8  and  C_14
    5  A    between atoms: N_9  and  N_11
    6  A    between atoms: C_19  and  C_22
                            x       y       z     vdW  Elec       q    Type
                         _______ _______ _______ _____ _____    ______ ____

>  <TORSDO>
F 6

$$$$
=
 OpenBabel11052409493D

 26 27  0  0  1  0  0  0  0  0999 V2000
  161.9760  207.6940  151.6920 C   0  0  0  0  0  0  0  0  0  0  0  0
  162.3510  207.8600  149.2120 C   0  0  0  0  0  0  0  0  0  0  0  0
  161.9660  211.5820  149.0620 C   0  0  0  0  0  3  0  0  0  0  0  0
  162.0790  206.9480  150.3800 C   0  0  2  0  0  3  0  0  0  0  0  0
  162.2470  210.3320  148.2800 C   0  0  0  0  0  3  0  0  0  0  0  0
  162.0890  207.0460  152.7680 O   0  0  0  0  0  0  0  0  0  0  0  0
  161.4240  209.7780  152.9640 C   0  0  0  0  0  0  0  0  0  0  0  0
  161.7140  211.3000  150.3370 C   0  0  0  0  0  2  0  0  0  0  0  0
  161.7990  209.8570  150.4910 C   0  0  0  0  0  0  0  0  0  0  0  0
  162.1990  209.6150  153.9440 O   0  0  0  0  0  0  0  0  0  0  0  0
  161.7030  209.1120  151.7190 N   0  0  0  0  0  0  0  0  0  0  0  0
  162.1090  209.2990  149.3410 C   0  0  0  0  0  0  0  0  0  0  0  0
  162.7640  207.3810  148.1220 O   0  0  0  0  0  0  0  0  0  0  0  0
  159.9950  206.5060  149.2790 O   0  0  0  0  0  0  0  0  0  0  0  0
  160.8420  206.1410  150.1380 C   0  0  0  0  0  0  0  0  0  0  0  0
  160.6210  204.9500  150.8850 N   0  0  0  0  0  1  0  0  0  0  0  0
  160.2300  210.6230  153.1220 C   0  0  0  0  0  0  0  0  0  0  0  0
  160.3250  211.8640  153.8230 N   0  0  0  0  0  2  0  0  0  0  0  0
  159.1200  210.2460  152.6580 O   0  0  0  0  0  0  0  0  0  0  0  0
  159.2050  212.6840  153.9920 N   0  0  0  0  0  0  0  0  0  0  0  0
  158.6120  212.7400  155.1380 C   0  0  0  0  0  3  0  0  0  0  0  0
  157.4150  213.6090  155.3290 C   0  0  0  0  0  2  0  0  0  0  0  0
  156.1620  212.8680  154.9940 C   0  0  0  0  0  0  0  0  0  0  0  0
  155.3790  213.3310  154.1820 O   0  0  0  0  0  0  0  0  0  0  0  0
  155.8500  211.5820  155.6850 C   0  0  0  0  0  2  0  0  0  0  0  0
  155.4710  210.6200  154.7480 O   0  0  0  0  0  1  0  0  0  0  0  0
  1 11  1  0  0  0  0
  1  6  2  0  0  0  0
  2 12  1  0  0  0  0
  2  4  1  0  0  0  0
  3  8  1  0  0  0  0
  4 15  1  6  0  0  0
  4  1  1  0  0  0  0
  5  3  2  0  0  0  0
  5 12  1  0  0  0  0
  7 17  1  0  0  0  0
  7 10  2  0  0  0  0
  8  9  1  0  0  0  0
  9 11  1  0  0  0  0
 11  7  1  0  0  0  0
 12  9  2  0  0  0  0
 13  2  2  0  0  0  0
 14 15  2  0  0  0  0
 15 16  1  0  0  0  0
 17 18  1  0  0  0  0
 18 20  1  0  0  0  0
 19 17  2  0  0  0  0
 20 21  2  0  0  0  0
 21 22  1  0  0  0  0
 23 22  1  0  0  0  0
 23 25  1  0  0  0  0
 24 23  2  0  0  0  0
 26 25  1  0  0  0  0
M  END
>  <MODEL>
7

>  <REMARK>
 VINA RESULT:      -4.7      3.099      8.470
  Name = 
  6 active torsions:
  status: ('A' for Active; 'I' for Inactive)
    1  A    between atoms: C_4  and  C_5
    2  A    between atoms: C_5  and  C_22
    3  A    between atoms: C_6  and  C_17
    4  A    between atoms: C_8  and  C_14
    5  A    between atoms: N_9  and  N_11
    6  A    between atoms: C_19  and  C_22
                            x       y       z     vdW  Elec       q    Type
                         _______ _______ _______ _____ _____    ______ ____

>  <TORSDO>
F 6

$$$$
=
 OpenBabel11052409493D

 26 27  0  0  1  0  0  0  0  0999 V2000
  161.8650  204.1040  150.7500 C   0  0  0  0  0  0  0  0  0  0  0  0
  161.3260  204.1260  148.2940 C   0  0  0  0  0  0  0  0  0  0  0  0
  161.4130  207.8560  147.9650 C   0  0  0  0  0  3  0  0  0  0  0  0
  161.3810  203.3080  149.5580 C   0  0  2  0  0  3  0  0  0  0  0  0
  161.2180  206.5520  147.2480 C   0  0  0  0  0  3  0  0  0  0  0  0
  162.2770  203.4830  151.7670 O   0  0  0  0  0  0  0  0  0  0  0  0
  162.1000  206.2900  151.9460 C   0  0  0  0  0  0  0  0  0  0  0  0
  161.6090  207.6590  149.2650 C   0  0  0  0  0  2  0  0  0  0  0  0
  161.5510  206.2260  149.5050 C   0  0  0  0  0  0  0  0  0  0  0  0
  163.1510  206.0410  152.5950 O   0  0  0  0  0  0  0  0  0  0  0  0
  161.8130  205.5470  150.7480 N   0  0  0  0  0  0  0  0  0  0  0  0
  161.3420  205.5890  148.3740 C   0  0  0  0  0  0  0  0  0  0  0  0
  161.2430  203.5530  147.1760 O   0  0  0  0  0  0  0  0  0  0  0  0
  159.2550  203.2370  150.6650 O   0  0  0  0  0  0  0  0  0  0  0  0
  160.0450  202.6960  149.8460 C   0  0  0  0  0  0  0  0  0  0  0  0
  159.6660  201.4930  149.1880 N   0  0  0  0  0  1  0  0  0  0  0  0
  161.1710  207.3160  152.4440 C   0  0  0  0  0  0  0  0  0  0  0  0
  161.2340  208.6450  151.9240 N   0  0  0  0  0  2  0  0  0  0  0  0
  160.3340  207.0320  153.3430 O   0  0  0  0  0  0  0  0  0  0  0  0
  160.3670  209.6410  152.3850 N   0  0  0  0  0  0  0  0  0  0  0  0
  160.8380  210.7740  152.7850 C   0  0  0  0  0  3  0  0  0  0  0  0
  159.9230  211.8430  153.2810 C   0  0  0  0  0  2  0  0  0  0  0  0
  159.0050  211.3100  154.3320 C   0  0  0  0  0  0  0  0  0  0  0  0
  157.8050  211.2580  154.1240 O   0  0  0  0  0  0  0  0  0  0  0  0
  159.5550  210.8800  155.6520 C   0  0  0  0  0  2  0  0  0  0  0  0
  159.3810  209.5050  155.8130 O   0  0  0  0  0  1  0  0  0  0  0  0
  1  6  2  0  0  0  0
  2 12  1  0  0  0  0
  2  4  1  0  0  0  0
  3  8  1  0  0  0  0
  4 15  1  1  0  0  0
  4  1  1  0  0  0  0
  5  3  2  0  0  0  0
  5 12  1  0  0  0  0
  7 17  1  0  0  0  0
  7 10  2  0  0  0  0
  8  9  1  0  0  0  0
  9 11  1  0  0  0  0
 11  1  1  0  0  0  0
 11  7  1  0  0  0  0
 12  9  2  0  0  0  0
 13  2  2  0  0  0  0
 15 14  2  0  0  0  0
 16 15  1  0  0  0  0
 17 19  2  0  0  0  0
 18 20  1  0  0  0  0
 18 17  1  0  0  0  0
 20 21  2  0  0  0  0
 21 22  1  0  0  0  0
 22 23  1  0  0  0  0
 23 25  1  0  0  0  0
 24 23  2  0  0  0  0
 25 26  1  0  0  0  0
M  END
>  <MODEL>
8

>  <REMARK>
 VINA RESULT:      -4.5      2.282      8.158
  Name = 
  6 active torsions:
  status: ('A' for Active; 'I' for Inactive)
    1  A    between atoms: C_4  and  C_5
    2  A    between atoms: C_5  and  C_22
    3  A    between atoms: C_6  and  C_17
    4  A    between atoms: C_8  and  C_14
    5  A    between atoms: N_9  and  N_11
    6  A    between atoms: C_19  and  C_22
                            x       y       z     vdW  Elec       q    Type
                         _______ _______ _______ _____ _____    ______ ____

>  <TORSDO>
F 6

$$$$
=
 OpenBabel11052409493D

 26 27  0  0  1  0  0  0  0  0999 V2000
  161.8220  213.6280  143.8620 C   0  0  0  0  0  0  0  0  0  0  0  0
  159.6440  214.0320  142.6720 C   0  0  0  0  0  0  0  0  0  0  0  0
  157.6220  214.4320  145.7990 C   0  0  0  0  0  3  0  0  0  0  0  0
  161.0750  213.5740  142.5480 C   0  0  2  0  0  3  0  0  0  0  0  0
  157.6010  214.4460  144.2980 C   0  0  0  0  0  3  0  0  0  0  0  0
  163.0820  213.6030  143.8440 O   0  0  0  0  0  0  0  0  0  0  0  0
  161.8210  213.5220  146.3630 C   0  0  0  0  0  0  0  0  0  0  0  0
  158.8330  214.1250  146.2550 C   0  0  0  0  0  2  0  0  0  0  0  0
  159.6920  213.9070  145.1030 C   0  0  0  0  0  0  0  0  0  0  0  0
  162.8280  214.2460  146.5860 O   0  0  0  0  0  0  0  0  0  0  0  0
  161.1100  213.6570  145.1190 N   0  0  0  0  0  0  0  0  0  0  0  0
  159.0130  214.0950  143.9930 C   0  0  0  0  0  0  0  0  0  0  0  0
  158.9890  214.3360  141.6410 O   0  0  0  0  0  0  0  0  0  0  0  0
  160.4370  211.2650  142.4490 O   0  0  0  0  0  0  0  0  0  0  0  0
  161.1360  212.1960  141.9670 C   0  0  0  0  0  0  0  0  0  0  0  0
  161.9910  211.9370  140.8600 N   0  0  0  0  0  1  0  0  0  0  0  0
  161.4080  212.5310  147.3690 C   0  0  0  0  0  0  0  0  0  0  0  0
  161.8220  212.6820  148.7270 N   0  0  0  0  0  2  0  0  0  0  0  0
  160.7080  211.5380  147.0310 O   0  0  0  0  0  0  0  0  0  0  0  0
  161.4490  211.7510  149.7020 N   0  0  0  0  0  0  0  0  0  0  0  0
  162.2470  210.7840  150.0130 C   0  0  0  0  0  3  0  0  0  0  0  0
  161.8580  209.7850  151.0490 C   0  0  0  0  0  2  0  0  0  0  0  0
  162.0430  208.3930  150.5400 C   0  0  0  0  0  0  0  0  0  0  0  0
  162.3170  208.2050  149.3660 O   0  0  0  0  0  0  0  0  0  0  0  0
  161.8500  207.2320  151.4580 C   0  0  0  0  0  2  0  0  0  0  0  0
  160.8860  207.5420  152.4180 O   0  0  0  0  0  1  0  0  0  0  0  0
  1 11  1  0  0  0  0
  2 12  1  0  0  0  0
  3  8  1  0  0  0  0
  4 15  1  1  0  0  0
  4  2  1  0  0  0  0
  4  1  1  0  0  0  0
  5  3  2  0  0  0  0
  6  1  2  0  0  0  0
  7 10  2  0  0  0  0
  7 17  1  0  0  0  0
  9 11  1  0  0  0  0
  9  8  1  0  0  0  0
 11  7  1  0  0  0  0
 12  5  1  0  0  0  0
 12  9  2  0  0  0  0
 13  2  2  0  0  0  0
 15 14  2  0  0  0  0
 16 15  1  0  0  0  0
 17 18  1  0  0  0  0
 18 20  1  0  0  0  0
 19 17  2  0  0  0  0
 20 21  2  0  0  0  0
 21 22  1  0  0  0  0
 23 22  1  0  0  0  0
 23 25  1  0  0  0  0
 24 23  2  0  0  0  0
 25 26  1  0  0  0  0
M  END
>  <MODEL>
9

>  <REMARK>
 VINA RESULT:      -4.4      6.941      9.620
  Name = 
  6 active torsions:
  status: ('A' for Active; 'I' for Inactive)
    1  A    between atoms: C_4  and  C_5
    2  A    between atoms: C_5  and  C_22
    3  A    between atoms: C_6  and  C_17
    4  A    between atoms: C_8  and  C_14
    5  A    between atoms: N_9  and  N_11
    6  A    between atoms: C_19  and  C_22
                            x       y       z     vdW  Elec       q    Type
                         _______ _______ _______ _____ _____    ______ ____

>  <TORSDO>
F 6

$$$$
