=
 OpenBabel11042420143D

 25 28  0  0  1  0  0  0  0  0999 V2000
  160.0660  213.5700  149.6300 N   0  0  0  0  0  0  0  0  0  0  0  0
  161.0250  211.1090  154.8320 C   0  0  0  0  0  3  0  0  0  0  0  0
  161.2130  214.4500  149.7920 C   0  0  0  0  0  1  0  0  0  0  0  0
  158.1610  214.4520  154.2090 C   0  0  0  0  0  3  0  0  0  0  0  0
  158.9840  211.4310  153.4890 C   0  0  1  0  0  3  0  0  0  0  0  0
  159.9650  212.8120  156.7680 O   0  0  0  0  0  0  0  0  0  0  0  0
  160.5700  207.7420  151.8540 C   0  0  0  0  0  2  0  0  0  0  0  0
  159.1350  212.9510  151.5150 C   0  0  0  0  0  0  0  0  0  0  0  0
  161.0990  209.1370  151.5380 C   0  0  0  0  0  2  0  0  0  0  0  0
  161.4680  207.0350  152.8250 C   0  0  0  0  0  0  0  0  0  0  0  0
  159.5800  212.9180  155.5730 C   0  0  0  0  0  0  0  0  0  0  0  0
  161.3900  209.9500  153.9610 C   0  0  1  0  0  3  0  0  0  0  0  0
  159.9030  211.8130  154.6340 C   0  0  0  0  0  0  0  0  0  0  0  0
  160.2200  212.4930  150.5750 C   0  0  0  0  0  2  0  0  0  0  0  0
  158.5500  212.5940  152.6650 C   0  0  0  0  0  0  0  0  0  0  0  0
  161.6270  207.4650  154.0850 C   0  0  0  0  0  3  0  0  0  0  0  0
  157.5240  213.4610  153.2900 C   0  0  0  0  0  2  0  0  0  0  0  0
  158.9880  214.1700  155.1750 N   0  0  0  0  0  0  0  0  0  0  0  0
  159.3150  210.2690  152.7390 O   0  0  0  0  0  0  0  0  0  0  0  0
  160.9190  208.6640  154.6370 C   0  0  0  0  0  2  0  0  0  0  0  0
  159.0270  214.0610  150.4990 C   0  0  0  0  0  2  0  0  0  0  0  0
  160.7150  210.1680  152.6000 C   0  0  2  0  0  3  0  0  0  0  0  0
  162.2180  205.8280  152.3550 C   0  0  0  0  0  2  0  0  0  0  0  0
  160.8930  203.8380  152.4030 O   0  0  0  0  0  1  0  0  0  0  0  0
  161.3140  204.8820  151.5780 C   0  0  0  0  0  2  0  0  0  0  0  0
  1  3  1  0  0  0  0
  1 21  1  0  0  0  0
  1 14  1  0  0  0  0
  4 18  2  0  0  0  0
  5 15  1  6  0  0  0
  5 13  1  0  0  0  0
  7 10  1  0  0  0  0
  8 15  2  0  0  0  0
  9  7  1  0  0  0  0
 10 16  2  0  0  0  0
 11  6  2  0  0  0  0
 12 20  1  1  0  0  0
 12  2  1  0  0  0  0
 13  2  2  0  0  0  0
 13 11  1  0  0  0  0
 14  8  1  0  0  0  0
 15 17  1  0  0  0  0
 16 20  1  0  0  0  0
 17  4  1  0  0  0  0
 18 11  1  0  0  0  0
 19  5  1  0  0  0  0
 21  8  1  0  0  0  0
 22  9  1  6  0  0  0
 22 19  1  0  0  0  0
 22 12  1  0  0  0  0
 23 10  1  0  0  0  0
 25 23  1  0  0  0  0
 25 24  1  0  0  0  0
M  END
>  <MODEL>
1

>  <REMARK>
 VINA RESULT:      -5.4      0.000      0.000
  Name = 
  2 active torsions:
  status: ('A' for Active; 'I' for Inactive)
    1  A    between atoms: C_10  and  C_21
    2  A    between atoms: C_19  and  C_21
                            x       y       z     vdW  Elec       q    Type
                         _______ _______ _______ _____ _____    ______ ____

>  <TORSDO>
F 2

$$$$
=
 OpenBabel11042420143D

 25 28  0  0  1  0  0  0  0  0999 V2000
  161.2130  202.7060  151.7250 N   0  0  0  0  0  0  0  0  0  0  0  0
  162.7180  208.2810  150.8860 C   0  0  0  0  0  3  0  0  0  0  0  0
  162.6010  202.2790  151.6340 C   0  0  0  0  0  1  0  0  0  0  0  0
  161.3570  205.6040  147.6070 C   0  0  0  0  0  3  0  0  0  0  0  0
  160.6570  207.0180  150.4050 C   0  0  1  0  0  3  0  0  0  0  0  0
  163.0800  208.6440  148.1460 O   0  0  0  0  0  0  0  0  0  0  0  0
  160.0650  208.1750  154.5420 C   0  0  0  0  0  2  0  0  0  0  0  0
  160.7610  204.5320  150.5990 C   0  0  0  0  0  0  0  0  0  0  0  0
  160.9690  207.0410  154.0730 C   0  0  0  0  0  2  0  0  0  0  0  0
  160.8700  209.3860  154.9090 C   0  0  0  0  0  0  0  0  0  0  0  0
  162.4120  207.6570  148.5570 C   0  0  0  0  0  0  0  0  0  0  0  0
  162.3040  208.3690  152.3200 C   0  0  1  0  0  3  0  0  0  0  0  0
  161.9610  207.6590  149.9720 C   0  0  0  0  0  0  0  0  0  0  0  0
  161.2220  204.1260  151.9750 C   0  0  0  0  0  2  0  0  0  0  0  0
  160.4770  205.6310  149.8900 C   0  0  0  0  0  0  0  0  0  0  0  0
  161.5730  210.0730  153.9980 C   0  0  0  0  0  3  0  0  0  0  0  0
  160.1280  205.5340  148.4540 C   0  0  0  0  0  2  0  0  0  0  0  0
  162.2660  206.5360  147.6640 N   0  0  0  0  0  0  0  0  0  0  0  0
  160.2500  207.2010  151.7560 O   0  0  0  0  0  0  0  0  0  0  0  0
  161.6050  209.7090  152.5440 C   0  0  0  0  0  2  0  0  0  0  0  0
  160.7820  203.0380  150.3900 C   0  0  0  0  0  2  0  0  0  0  0  0
  161.3770  207.1800  152.6050 C   0  0  2  0  0  3  0  0  0  0  0  0
  160.8960  209.8180  156.3420 C   0  0  0  0  0  2  0  0  0  0  0  0
  163.1010  209.9100  157.2610 O   0  0  0  0  0  1  0  0  0  0  0  0
  161.9810  209.0900  157.1210 C   0  0  0  0  0  2  0  0  0  0  0  0
  1 14  1  0  0  0  0
  3  1  1  0  0  0  0
  4 18  2  0  0  0  0
  4 17  1  0  0  0  0
  5 15  1  1  0  0  0
  5 19  1  0  0  0  0
  6 11  2  0  0  0  0
  7 10  1  0  0  0  0
  8 14  1  0  0  0  0
  9  7  1  0  0  0  0
 10 23  1  0  0  0  0
 11 13  1  0  0  0  0
 12  2  1  6  0  0  0
 12 20  1  0  0  0  0
 12 22  1  0  0  0  0
 13  5  1  0  0  0  0
 13  2  2  0  0  0  0
 15  8  2  0  0  0  0
 16 10  2  0  0  0  0
 17 15  1  0  0  0  0
 18 11  1  0  0  0  0
 19 22  1  0  0  0  0
 20 16  1  0  0  0  0
 21  8  1  0  0  0  0
 21  1  1  0  0  0  0
 22  9  1  1  0  0  0
 23 25  1  0  0  0  0
 25 24  1  0  0  0  0
M  END
>  <MODEL>
2

>  <REMARK>
 VINA RESULT:      -5.2      4.152      7.651
  Name = 
  2 active torsions:
  status: ('A' for Active; 'I' for Inactive)
    1  A    between atoms: C_10  and  C_21
    2  A    between atoms: C_19  and  C_21
                            x       y       z     vdW  Elec       q    Type
                         _______ _______ _______ _____ _____    ______ ____

>  <TORSDO>
F 2

$$$$
=
 OpenBabel11042420143D

 25 28  0  0  1  0  0  0  0  0999 V2000
  160.3290  206.0180  145.0760 N   0  0  0  0  0  0  0  0  0  0  0  0
  160.0980  204.0810  150.5760 C   0  0  0  0  0  3  0  0  0  0  0  0
  158.9000  205.8090  144.9030 C   0  0  0  0  0  1  0  0  0  0  0  0
  161.2060  201.5010  147.1270 C   0  0  0  0  0  3  0  0  0  0  0  0
  161.8930  204.1000  148.8860 C   0  0  1  0  0  3  0  0  0  0  0  0
  160.1000  201.2950  150.4790 O   0  0  0  0  0  0  0  0  0  0  0  0
  162.2850  208.0340  150.6690 C   0  0  0  0  0  2  0  0  0  0  0  0
  161.2600  204.6810  146.5430 C   0  0  0  0  0  0  0  0  0  0  0  0
  161.2190  207.6360  149.6530 C   0  0  0  0  0  2  0  0  0  0  0  0
  161.7140  208.0840  152.0540 C   0  0  0  0  0  0  0  0  0  0  0  0
  160.5050  201.9490  149.4810 C   0  0  0  0  0  0  0  0  0  0  0  0
  160.3730  205.5240  150.8530 C   0  0  1  0  0  3  0  0  0  0  0  0
  160.7990  203.3940  149.6640 C   0  0  0  0  0  0  0  0  0  0  0  0
  160.5870  206.0290  146.4940 C   0  0  0  0  0  2  0  0  0  0  0  0
  161.8350  203.8480  147.4190 C   0  0  0  0  0  0  0  0  0  0  0  0
  161.2640  206.9850  152.6760 C   0  0  0  0  0  3  0  0  0  0  0  0
  162.3010  202.5090  146.9920 C   0  0  0  0  0  2  0  0  0  0  0  0
  160.5070  201.2800  148.2050 N   0  0  0  0  0  0  0  0  0  0  0  0
  162.1890  205.4460  149.2410 O   0  0  0  0  0  0  0  0  0  0  0  0
  161.3060  205.6200  152.0590 C   0  0  0  0  0  2  0  0  0  0  0  0
  160.9520  204.7190  145.0670 C   0  0  0  0  0  2  0  0  0  0  0  0
  161.0010  206.1240  149.5880 C   0  0  2  0  0  3  0  0  0  0  0  0
  161.6310  209.4100  152.7440 C   0  0  0  0  0  2  0  0  0  0  0  0
  161.6810  209.7030  155.1160 O   0  0  0  0  0  1  0  0  0  0  0  0
  160.8660  209.3060  154.0550 C   0  0  0  0  0  2  0  0  0  0  0  0
  1 14  1  0  0  0  0
  3  1  1  0  0  0  0
  4 18  2  0  0  0  0
  5 15  1  6  0  0  0
  5 19  1  0  0  0  0
  5 13  1  0  0  0  0
  7 10  1  0  0  0  0
  8 15  2  0  0  0  0
  9  7  1  0  0  0  0
 10 16  2  0  0  0  0
 10 23  1  0  0  0  0
 11 13  1  0  0  0  0
 11  6  2  0  0  0  0
 12  2  1  6  0  0  0
 12 20  1  0  0  0  0
 13  2  2  0  0  0  0
 14  8  1  0  0  0  0
 17  4  1  0  0  0  0
 17 15  1  0  0  0  0
 18 11  1  0  0  0  0
 19 22  1  0  0  0  0
 20 16  1  0  0  0  0
 21  1  1  0  0  0  0
 21  8  1  0  0  0  0
 22  9  1  1  0  0  0
 22 12  1  0  0  0  0
 23 25  1  0  0  0  0
 25 24  1  0  0  0  0
M  END
>  <MODEL>
3

>  <REMARK>
 VINA RESULT:      -5.2      4.664      8.922
  Name = 
  2 active torsions:
  status: ('A' for Active; 'I' for Inactive)
    1  A    between atoms: C_10  and  C_21
    2  A    between atoms: C_19  and  C_21
                            x       y       z     vdW  Elec       q    Type
                         _______ _______ _______ _____ _____    ______ ____

>  <TORSDO>
F 2

$$$$
=
 OpenBabel11042420143D

 25 28  0  0  1  0  0  0  0  0999 V2000
  161.6520  202.1950  151.9020 N   0  0  0  0  0  0  0  0  0  0  0  0
  162.8320  206.7710  148.4790 C   0  0  0  0  0  3  0  0  0  0  0  0
  163.0400  201.7610  151.8650 C   0  0  0  0  0  1  0  0  0  0  0  0
  161.2620  202.9100  146.9300 C   0  0  0  0  0  3  0  0  0  0  0  0
  160.7880  205.4450  148.8460 C   0  0  1  0  0  3  0  0  0  0  0  0
  162.9030  205.8490  145.8490 O   0  0  0  0  0  0  0  0  0  0  0  0
  160.5660  208.3570  152.0520 C   0  0  0  0  0  2  0  0  0  0  0  0
  161.0140  203.3160  150.1290 C   0  0  0  0  0  0  0  0  0  0  0  0
  161.4650  207.1250  152.0500 C   0  0  0  0  0  2  0  0  0  0  0  0
  161.3520  209.5960  151.7430 C   0  0  0  0  0  0  0  0  0  0  0  0
  162.3210  205.1620  146.7310 C   0  0  0  0  0  0  0  0  0  0  0  0
  162.5610  207.5030  149.7540 C   0  0  1  0  0  3  0  0  0  0  0  0
  162.0150  205.8080  148.0320 C   0  0  0  0  0  0  0  0  0  0  0  0
  161.6280  203.5740  151.4820 C   0  0  0  0  0  2  0  0  0  0  0  0
  160.6150  203.9770  149.0360 C   0  0  0  0  0  0  0  0  0  0  0  0
  161.9320  209.7880  150.5490 C   0  0  0  0  0  3  0  0  0  0  0  0
  160.1290  203.2420  147.8460 C   0  0  0  0  0  2  0  0  0  0  0  0
  162.1330  203.7580  146.4620 N   0  0  0  0  0  0  0  0  0  0  0  0
  160.5110  206.2240  150.0040 O   0  0  0  0  0  0  0  0  0  0  0  0
  161.8340  208.8050  149.4230 C   0  0  0  0  0  2  0  0  0  0  0  0
  161.0760  201.8900  150.6170 C   0  0  0  0  0  2  0  0  0  0  0  0
  161.7180  206.5810  150.6440 C   0  0  2  0  0  3  0  0  0  0  0  0
  161.5040  210.6300  152.8140 C   0  0  0  0  0  2  0  0  0  0  0  0
  162.2610  210.6700  155.0810 O   0  0  0  0  0  1  0  0  0  0  0  0
  161.4020  210.0120  154.2000 C   0  0  0  0  0  2  0  0  0  0  0  0
  3  1  1  0  0  0  0
  4 17  1  0  0  0  0
  5 13  1  1  0  0  0
  5 15  1  0  0  0  0
  5 19  1  0  0  0  0
  6 11  2  0  0  0  0
  8 21  1  0  0  0  0
  8 14  1  0  0  0  0
  9  7  1  0  0  0  0
 10  7  1  0  0  0  0
 10 23  1  0  0  0  0
 11 13  1  0  0  0  0
 12  2  1  6  0  0  0
 12 22  1  0  0  0  0
 13  2  2  0  0  0  0
 14  1  1  0  0  0  0
 15  8  2  0  0  0  0
 16 10  2  0  0  0  0
 17 15  1  0  0  0  0
 18 11  1  0  0  0  0
 18  4  2  0  0  0  0
 19 22  1  0  0  0  0
 20 12  1  0  0  0  0
 20 16  1  0  0  0  0
 21  1  1  0  0  0  0
 22  9  1  1  0  0  0
 23 25  1  0  0  0  0
 25 24  1  0  0  0  0
M  END
>  <MODEL>
4

>  <REMARK>
 VINA RESULT:      -4.8      4.412      9.011
  Name = 
  2 active torsions:
  status: ('A' for Active; 'I' for Inactive)
    1  A    between atoms: C_10  and  C_21
    2  A    between atoms: C_19  and  C_21
                            x       y       z     vdW  Elec       q    Type
                         _______ _______ _______ _____ _____    ______ ____

>  <TORSDO>
F 2

$$$$
=
 OpenBabel11042420143D

 25 28  0  0  1  0  0  0  0  0999 V2000
  161.1240  210.7210  152.5050 N   0  0  0  0  0  0  0  0  0  0  0  0
  158.2180  213.2450  148.1200 C   0  0  0  0  0  3  0  0  0  0  0  0
  160.2980  209.5270  152.4150 C   0  0  0  0  0  1  0  0  0  0  0  0
  157.2630  213.9560  152.4040 C   0  0  0  0  0  3  0  0  0  0  0  0
  159.4430  214.1570  150.0530 C   0  0  1  0  0  3  0  0  0  0  0  0
  155.8610  214.2950  149.1760 O   0  0  0  0  0  0  0  0  0  0  0  0
  162.6170  213.5980  147.1510 C   0  0  0  0  0  2  0  0  0  0  0  0
  160.1240  212.5560  151.8430 C   0  0  0  0  0  0  0  0  0  0  0  0
  161.9790  212.4840  147.9750 C   0  0  0  0  0  2  0  0  0  0  0  0
  162.0990  213.5880  145.7440 C   0  0  0  0  0  0  0  0  0  0  0  0
  156.8210  214.0280  149.9480 C   0  0  0  0  0  0  0  0  0  0  0  0
  159.5230  213.0160  147.4270 C   0  0  1  0  0  3  0  0  0  0  0  0
  158.1560  213.7820  149.3460 C   0  0  0  0  0  0  0  0  0  0  0  0
  160.9620  211.4420  151.2680 C   0  0  0  0  0  2  0  0  0  0  0  0
  159.5060  213.6810  151.4640 C   0  0  0  0  0  0  0  0  0  0  0  0
  160.8160  213.8560  145.4600 C   0  0  0  0  0  3  0  0  0  0  0  0
  158.6750  214.4450  152.4230 C   0  0  0  0  0  2  0  0  0  0  0  0
  156.5160  213.8330  151.3440 N   0  0  0  0  0  0  0  0  0  0  0  0
  160.6600  214.0120  149.3290 O   0  0  0  0  0  0  0  0  0  0  0  0
  159.8000  214.2020  146.5050 C   0  0  0  0  0  2  0  0  0  0  0  0
  160.3160  211.7520  153.1050 C   0  0  0  0  0  2  0  0  0  0  0  0
  160.5980  212.8630  148.5110 C   0  0  2  0  0  3  0  0  0  0  0  0
  163.0460  213.2490  144.6370 C   0  0  0  0  0  2  0  0  0  0  0  0
  162.8110  213.3360  142.2590 O   0  0  0  0  0  1  0  0  0  0  0  0
  162.3060  212.7330  143.4120 C   0  0  0  0  0  2  0  0  0  0  0  0
  1 21  1  0  0  0  0
  2 13  2  0  0  0  0
  3  1  1  0  0  0  0
  4 17  1  0  0  0  0
  5 19  1  6  0  0  0
  5 15  1  0  0  0  0
  6 11  2  0  0  0  0
  7  9  1  0  0  0  0
  8 21  1  0  0  0  0
 10  7  1  0  0  0  0
 11 18  1  0  0  0  0
 12 20  1  6  0  0  0
 12  2  1  0  0  0  0
 12 22  1  0  0  0  0
 13 11  1  0  0  0  0
 13  5  1  0  0  0  0
 14  8  1  0  0  0  0
 14  1  1  0  0  0  0
 15  8  2  0  0  0  0
 15 17  1  0  0  0  0
 16 10  2  0  0  0  0
 16 20  1  0  0  0  0
 18  4  2  0  0  0  0
 22  9  1  6  0  0  0
 22 19  1  0  0  0  0
 23 10  1  0  0  0  0
 24 25  1  0  0  0  0
 25 23  1  0  0  0  0
M  END
>  <MODEL>
5

>  <REMARK>
 VINA RESULT:      -4.7      4.085      7.123
  Name = 
  2 active torsions:
  status: ('A' for Active; 'I' for Inactive)
    1  A    between atoms: C_10  and  C_21
    2  A    between atoms: C_19  and  C_21
                            x       y       z     vdW  Elec       q    Type
                         _______ _______ _______ _____ _____    ______ ____

>  <TORSDO>
F 2

$$$$
=
 OpenBabel11042420143D

 25 28  0  0  1  0  0  0  0  0999 V2000
  160.2460  204.2350  144.5010 N   0  0  0  0  0  0  0  0  0  0  0  0
  160.1820  204.8530  150.3020 C   0  0  0  0  0  3  0  0  0  0  0  0
  158.8060  204.0350  144.4680 C   0  0  0  0  0  1  0  0  0  0  0  0
  161.0740  200.9990  148.2710 C   0  0  0  0  0  3  0  0  0  0  0  0
  161.9070  204.0680  148.7260 C   0  0  1  0  0  3  0  0  0  0  0  0
  160.0990  202.2970  151.4120 O   0  0  0  0  0  0  0  0  0  0  0  0
  162.4850  208.3650  148.6360 C   0  0  0  0  0  2  0  0  0  0  0  0
  161.1970  203.6170  146.3760 C   0  0  0  0  0  0  0  0  0  0  0  0
  161.3680  207.6180  147.9150 C   0  0  0  0  0  2  0  0  0  0  0  0
  161.9720  209.0290  149.8790 C   0  0  0  0  0  0  0  0  0  0  0  0
  160.4820  202.4420  150.2200 C   0  0  0  0  0  0  0  0  0  0  0  0
  160.5100  206.2620  149.9260 C   0  0  1  0  0  3  0  0  0  0  0  0
  160.8260  203.8110  149.7580 C   0  0  0  0  0  0  0  0  0  0  0  0
  160.5610  204.8420  145.7690 C   0  0  0  0  0  2  0  0  0  0  0  0
  161.7820  203.2150  147.5110 C   0  0  0  0  0  0  0  0  0  0  0  0
  161.5160  208.3220  150.9230 C   0  0  0  0  0  3  0  0  0  0  0  0
  162.1910  201.8030  147.6890 C   0  0  0  0  0  2  0  0  0  0  0  0
  160.4130  201.2910  149.3550 N   0  0  0  0  0  0  0  0  0  0  0  0
  162.2560  205.4220  148.4610 O   0  0  0  0  0  0  0  0  0  0  0  0
  161.4930  206.8240  150.9510 C   0  0  0  0  0  2  0  0  0  0  0  0
  160.8310  203.0320  145.0350 C   0  0  0  0  0  2  0  0  0  0  0  0
  161.1030  206.2350  148.5110 C   0  0  2  0  0  3  0  0  0  0  0  0
  161.9560  210.5240  149.9340 C   0  0  0  0  0  2  0  0  0  0  0  0
  162.8190  212.2270  148.4950 O   0  0  0  0  0  1  0  0  0  0  0  0
  161.9570  211.1310  148.5390 C   0  0  0  0  0  2  0  0  0  0  0  0
  1 21  1  0  0  0  0
  1 14  1  0  0  0  0
  3  1  1  0  0  0  0
  4 18  2  0  0  0  0
  5 15  1  6  0  0  0
  5 13  1  0  0  0  0
  7 10  1  0  0  0  0
  8 15  2  0  0  0  0
  9  7  1  0  0  0  0
 10 23  1  0  0  0  0
 10 16  2  0  0  0  0
 11  6  2  0  0  0  0
 12  2  1  1  0  0  0
 12 20  1  0  0  0  0
 13 11  1  0  0  0  0
 13  2  2  0  0  0  0
 14  8  1  0  0  0  0
 15 17  1  0  0  0  0
 16 20  1  0  0  0  0
 17  4  1  0  0  0  0
 18 11  1  0  0  0  0
 19 22  1  0  0  0  0
 19  5  1  0  0  0  0
 21  8  1  0  0  0  0
 22  9  1  1  0  0  0
 22 12  1  0  0  0  0
 24 25  1  0  0  0  0
 25 23  1  0  0  0  0
M  END
>  <MODEL>
6

>  <REMARK>
 VINA RESULT:      -4.6      5.558      9.411
  Name = 
  2 active torsions:
  status: ('A' for Active; 'I' for Inactive)
    1  A    between atoms: C_10  and  C_21
    2  A    between atoms: C_19  and  C_21
                            x       y       z     vdW  Elec       q    Type
                         _______ _______ _______ _____ _____    ______ ____

>  <TORSDO>
F 2

$$$$
=
 OpenBabel11042420143D

 25 28  0  0  1  0  0  0  0  0999 V2000
  160.2680  208.4380  155.0270 N   0  0  0  0  0  0  0  0  0  0  0  0
  160.7110  207.3070  149.3200 C   0  0  0  0  0  3  0  0  0  0  0  0
  158.9440  209.0130  154.8490 C   0  0  0  0  0  1  0  0  0  0  0  0
  162.3820  210.9650  151.2170 C   0  0  0  0  0  3  0  0  0  0  0  0
  162.3890  207.7560  151.0680 C   0  0  1  0  0  3  0  0  0  0  0  0
  161.4600  209.6770  148.0560 O   0  0  0  0  0  0  0  0  0  0  0  0
  161.7550  203.4880  151.4970 C   0  0  0  0  0  2  0  0  0  0  0  0
  161.5630  208.6010  153.2660 C   0  0  0  0  0  0  0  0  0  0  0  0
  160.8090  204.5690  152.0100 C   0  0  0  0  0  2  0  0  0  0  0  0
  161.2270  202.8670  150.2380 C   0  0  0  0  0  0  0  0  0  0  0  0
  161.6480  209.5500  149.2960 C   0  0  0  0  0  0  0  0  0  0  0  0
  160.5940  205.9040  149.8220 C   0  0  1  0  0  3  0  0  0  0  0  0
  161.5470  208.1890  149.8830 C   0  0  0  0  0  0  0  0  0  0  0  0
  160.5500  207.6510  153.8530 C   0  0  0  0  0  2  0  0  0  0  0  0
  162.3630  208.7240  152.2000 C   0  0  0  0  0  0  0  0  0  0  0  0
  161.1060  203.5660  149.1000 C   0  0  0  0  0  3  0  0  0  0  0  0
  163.1610  209.9550  151.9940 C   0  0  0  0  0  2  0  0  0  0  0  0
  161.7970  210.7560  150.0720 N   0  0  0  0  0  0  0  0  0  0  0  0
  162.3210  206.3900  151.4600 O   0  0  0  0  0  0  0  0  0  0  0  0
  161.4980  205.0070  148.9780 C   0  0  0  0  0  2  0  0  0  0  0  0
  161.2180  209.3880  154.5060 C   0  0  0  0  0  2  0  0  0  0  0  0
  161.0040  205.9090  151.3010 C   0  0  2  0  0  3  0  0  0  0  0  0
  160.8090  201.4310  150.2720 C   0  0  0  0  0  2  0  0  0  0  0  0
  161.4980  200.2780  148.2940 O   0  0  0  0  0  1  0  0  0  0  0  0
  160.4190  200.9340  148.8870 C   0  0  0  0  0  2  0  0  0  0  0  0
  2 12  1  0  0  0  0
  2 13  2  0  0  0  0
  3  1  1  0  0  0  0
  4 17  1  0  0  0  0
  5 13  1  6  0  0  0
  5 19  1  0  0  0  0
  5 15  1  0  0  0  0
  6 11  2  0  0  0  0
  7  9  1  0  0  0  0
  8 14  1  0  0  0  0
  8 21  1  0  0  0  0
 10 23  1  0  0  0  0
 10  7  1  0  0  0  0
 11 13  1  0  0  0  0
 11 18  1  0  0  0  0
 12 20  1  6  0  0  0
 12 22  1  0  0  0  0
 14  1  1  0  0  0  0
 15  8  2  0  0  0  0
 16 10  2  0  0  0  0
 17 15  1  0  0  0  0
 18  4  2  0  0  0  0
 20 16  1  0  0  0  0
 21  1  1  0  0  0  0
 22 19  1  0  0  0  0
 22  9  1  6  0  0  0
 24 25  1  0  0  0  0
 25 23  1  0  0  0  0
M  END
>  <MODEL>
7

>  <REMARK>
 VINA RESULT:      -4.5      3.684      6.158
  Name = 
  2 active torsions:
  status: ('A' for Active; 'I' for Inactive)
    1  A    between atoms: C_10  and  C_21
    2  A    between atoms: C_19  and  C_21
                            x       y       z     vdW  Elec       q    Type
                         _______ _______ _______ _____ _____    ______ ____

>  <TORSDO>
F 2

$$$$
=
 OpenBabel11042420143D

 25 28  0  0  1  0  0  0  0  0999 V2000
  160.7350  206.8130  156.6370 N   0  0  0  0  0  0  0  0  0  0  0  0
  160.0570  210.8130  152.4420 C   0  0  0  0  0  3  0  0  0  0  0  0
  159.2960  206.7000  156.8140 C   0  0  0  0  0  1  0  0  0  0  0  0
  160.8110  211.8500  156.7000 C   0  0  0  0  0  3  0  0  0  0  0  0
  161.8710  210.3730  154.0520 C   0  0  1  0  0  3  0  0  0  0  0  0
  159.6050  213.2630  153.6920 O   0  0  0  0  0  0  0  0  0  0  0  0
  162.8590  207.6650  150.8120 C   0  0  0  0  0  2  0  0  0  0  0  0
  161.3990  208.7710  155.9060 C   0  0  0  0  0  0  0  0  0  0  0  0
  161.7670  207.4260  151.8490 C   0  0  0  0  0  2  0  0  0  0  0  0
  162.2700  208.1100  149.5060 C   0  0  0  0  0  0  0  0  0  0  0  0
  160.1350  212.3240  154.3440 C   0  0  0  0  0  0  0  0  0  0  0  0
  160.5580  209.6820  151.6020 C   0  0  1  0  0  3  0  0  0  0  0  0
  160.6580  211.1570  153.5890 C   0  0  0  0  0  0  0  0  0  0  0  0
  160.9570  207.4380  155.3570 C   0  0  0  0  0  2  0  0  0  0  0  0
  161.8080  209.9740  155.4860 C   0  0  0  0  0  0  0  0  0  0  0  0
  161.6310  209.2820  149.3800 C   0  0  0  0  0  3  0  0  0  0  0  0
  162.0590  211.0660  156.4540 C   0  0  0  0  0  2  0  0  0  0  0  0
  160.0590  212.3880  155.7820 N   0  0  0  0  0  0  0  0  0  0  0  0
  162.3750  209.3650  153.1830 O   0  0  0  0  0  0  0  0  0  0  0  0
  161.4640  210.2500  150.5110 C   0  0  0  0  0  2  0  0  0  0  0  0
  161.1380  208.0700  157.2160 C   0  0  0  0  0  2  0  0  0  0  0  0
  161.3060  208.7150  152.5290 C   0  0  2  0  0  3  0  0  0  0  0  0
  162.3890  207.2010  148.3230 C   0  0  0  0  0  2  0  0  0  0  0  0
  160.5480  205.8140  148.9600 O   0  0  0  0  0  1  0  0  0  0  0  0
  161.0380  206.6210  147.9320 C   0  0  0  0  0  2  0  0  0  0  0  0
  1  3  1  0  0  0  0
  1 21  1  0  0  0  0
  2 13  2  0  0  0  0
  5 19  1  6  0  0  0
  5 15  1  0  0  0  0
  6 11  2  0  0  0  0
  7  9  1  0  0  0  0
  8 21  1  0  0  0  0
 10  7  1  0  0  0  0
 11 18  1  0  0  0  0
 12 20  1  6  0  0  0
 12  2  1  0  0  0  0
 12 22  1  0  0  0  0
 13  5  1  0  0  0  0
 13 11  1  0  0  0  0
 14  8  1  0  0  0  0
 14  1  1  0  0  0  0
 15  8  2  0  0  0  0
 15 17  1  0  0  0  0
 16 10  2  0  0  0  0
 16 20  1  0  0  0  0
 17  4  1  0  0  0  0
 18  4  2  0  0  0  0
 22  9  1  6  0  0  0
 22 19  1  0  0  0  0
 23 10  1  0  0  0  0
 25 23  1  0  0  0  0
 25 24  1  0  0  0  0
M  END
>  <MODEL>
8

>  <REMARK>
 VINA RESULT:      -4.1      2.760      5.056
  Name = 
  2 active torsions:
  status: ('A' for Active; 'I' for Inactive)
    1  A    between atoms: C_10  and  C_21
    2  A    between atoms: C_19  and  C_21
                            x       y       z     vdW  Elec       q    Type
                         _______ _______ _______ _____ _____    ______ ____

>  <TORSDO>
F 2

$$$$
=
 OpenBabel11042420143D

 25 28  0  0  1  0  0  0  0  0999 V2000
  161.4040  208.7630  156.8370 N   0  0  0  0  0  0  0  0  0  0  0  0
  160.2920  212.1910  152.2480 C   0  0  0  0  0  3  0  0  0  0  0  0
  162.6420  209.4740  157.1160 C   0  0  0  0  0  1  0  0  0  0  0  0
  162.2840  208.2310  151.9050 C   0  0  0  0  0  3  0  0  0  0  0  0
  159.6660  209.8700  152.7880 C   0  0  1  0  0  3  0  0  0  0  0  0
  161.8040  211.2380  150.1090 O   0  0  0  0  0  0  0  0  0  0  0  0
  156.5490  212.1340  154.7790 C   0  0  0  0  0  2  0  0  0  0  0  0
  160.8080  208.7920  154.7280 C   0  0  0  0  0  0  0  0  0  0  0  0
  157.9720  211.9590  155.3000 C   0  0  0  0  0  2  0  0  0  0  0  0
  156.3630  213.4920  154.1710 C   0  0  0  0  0  0  0  0  0  0  0  0
  161.5780  210.4830  151.0920 C   0  0  0  0  0  0  0  0  0  0  0  0
  159.2100  212.6730  153.1610 C   0  0  1  0  0  3  0  0  0  0  0  0
  160.5200  210.8860  152.0550 C   0  0  0  0  0  0  0  0  0  0  0  0
  160.6130  209.6090  155.9790 C   0  0  0  0  0  2  0  0  0  0  0  0
  160.4570  208.7860  153.4360 C   0  0  0  0  0  0  0  0  0  0  0  0
  157.0160  213.8670  153.0610 C   0  0  0  0  0  3  0  0  0  0  0  0
  161.0000  207.7650  152.5110 C   0  0  0  0  0  2  0  0  0  0  0  0
  162.4650  209.3640  151.2890 N   0  0  0  0  0  0  0  0  0  0  0  0
  158.5870  210.3610  153.5750 O   0  0  0  0  0  0  0  0  0  0  0  0
  157.9650  212.9700  152.3270 C   0  0  0  0  0  2  0  0  0  0  0  0
  161.6340  207.9510  155.6690 C   0  0  0  0  0  2  0  0  0  0  0  0
  158.9590  211.5710  154.1990 C   0  0  2  0  0  3  0  0  0  0  0  0
  155.4340  214.4530  154.8430 C   0  0  0  0  0  2  0  0  0  0  0  0
  154.1330  214.1260  156.8220 O   0  0  0  0  0  1  0  0  0  0  0  0
  155.4400  214.2660  156.3530 C   0  0  0  0  0  2  0  0  0  0  0  0
  1  3  1  0  0  0  0
  4 17  1  0  0  0  0
  5 13  1  1  0  0  0
  5 15  1  0  0  0  0
  5 19  1  0  0  0  0
  6 11  2  0  0  0  0
  7  9  1  0  0  0  0
  8 21  1  0  0  0  0
  8 14  1  0  0  0  0
 10  7  1  0  0  0  0
 10 23  1  0  0  0  0
 11 18  1  0  0  0  0
 11 13  1  0  0  0  0
 12  2  1  6  0  0  0
 12 22  1  0  0  0  0
 13  2  2  0  0  0  0
 14  1  1  0  0  0  0
 15  8  2  0  0  0  0
 16 10  2  0  0  0  0
 17 15  1  0  0  0  0
 18  4  2  0  0  0  0
 19 22  1  0  0  0  0
 20 16  1  0  0  0  0
 20 12  1  0  0  0  0
 21  1  1  0  0  0  0
 22  9  1  1  0  0  0
 23 25  1  0  0  0  0
 25 24  1  0  0  0  0
M  END
>  <MODEL>
9

>  <REMARK>
 VINA RESULT:      -4.1      2.774      7.148
  Name = 
  2 active torsions:
  status: ('A' for Active; 'I' for Inactive)
    1  A    between atoms: C_10  and  C_21
    2  A    between atoms: C_19  and  C_21
                            x       y       z     vdW  Elec       q    Type
                         _______ _______ _______ _____ _____    ______ ____

>  <TORSDO>
F 2

$$$$
