=
 OpenBabel11042420093D

 30 36  0  0  1  0  0  0  0  0999 V2000
  161.3050  207.4480  149.1440 C   0  0  0  0  0  0  0  0  0  0  0  0
  161.2060  205.5850  147.4320 C   0  0  0  0  0  0  0  0  0  0  0  0
  160.7180  204.2560  152.1400 N   0  0  0  0  0  0  0  0  0  0  0  0
  161.1470  207.8300  150.5000 C   0  0  0  0  0  0  0  0  0  0  0  0
  161.6780  208.4330  148.2110 C   0  0  0  0  0  3  0  0  0  0  0  0
  162.0920  211.8370  150.2280 S   0  0  0  0  0  0  0  0  0  0  0  0
  160.2680  209.0350  153.1530 C   0  0  1  0  0  3  0  0  0  0  0  0
  161.7870  210.0990  149.9470 C   0  0  0  0  0  0  0  0  0  0  0  0
  162.2410  210.7940  147.7490 N   0  0  0  0  0  2  0  0  0  0  0  0
  160.5080  207.6220  153.6820 C   0  0  2  0  0  3  0  0  0  0  0  0
  161.1430  205.2520  153.0860 C   0  0  0  0  0  0  0  0  0  0  0  0
  161.8870  209.7440  148.6270 C   0  0  0  0  0  0  0  0  0  0  0  0
  161.4280  209.1540  150.9200 C   0  0  0  0  0  0  0  0  0  0  0  0
  161.4020  204.1760  147.1470 N   0  0  0  0  0  0  0  0  0  0  0  0
  161.2350  207.8110  154.9930 C   0  0  0  0  0  2  0  0  0  0  0  0
  160.1010  209.8950  154.4000 C   0  0  0  0  0  2  0  0  0  0  0  0
  161.4880  213.1000  147.8630 C   0  0  0  0  0  1  0  0  0  0  0  0
  160.8980  206.4710  146.3590 N   0  0  0  0  0  1  0  0  0  0  0  0
  161.0060  204.3010  150.8760 C   0  0  0  0  0  0  0  0  0  0  0  0
  161.6030  203.2300  148.2620 C   0  0  0  0  0  2  0  0  0  0  0  0
  162.4360  212.0650  148.4330 C   0  0  1  0  0  3  0  0  0  0  0  0
  161.2510  206.0020  148.7320 C   0  0  1  0  0  3  0  0  0  0  0  0
  160.6980  206.8820  151.4090 O   0  0  0  0  0  0  0  0  0  0  0  0
  161.3870  204.8990  154.2700 O   0  0  0  0  0  0  0  0  0  0  0  0
  161.2560  206.7110  152.7010 C   0  0  1  0  0  3  0  0  0  0  0  0
  160.6870  209.1050  155.5650 C   0  0  0  0  0  2  0  0  0  0  0  0
  162.5880  210.0640  152.9210 C   0  0  0  0  0  1  0  0  0  0  0  0
  160.8130  203.7990  149.4310 C   0  0  2  0  0  3  0  0  0  0  0  0
  161.7120  204.9070  149.6830 C   0  0  2  0  0  3  0  0  0  0  0  0
  161.3810  209.5110  152.3130 N   0  0  0  0  0  0  0  0  0  0  0  0
  1  4  1  0  0  0  0
  3 11  1  0  0  0  0
  4 13  2  0  0  0  0
  4 23  1  0  0  0  0
  5 12  1  0  0  0  0
  5  1  2  0  0  0  0
  7 10  1  0  0  0  0
  7 16  1  1  0  0  0
  8  6  1  0  0  0  0
  8 13  1  0  0  0  0
  9 21  1  0  0  0  0
  9 12  1  0  0  0  0
 10 15  1  1  0  0  0
 11 24  2  0  0  0  0
 12  8  2  0  0  0  0
 13 30  1  0  0  0  0
 14  2  2  0  0  0  0
 14 20  1  0  0  0  0
 15 26  1  0  0  0  0
 16 26  1  0  0  0  0
 18  2  1  0  0  0  0
 19  3  2  0  0  0  0
 21 17  1  6  0  0  0
 21  6  1  0  0  0  0
 22  2  1  6  0  0  0
 22  1  1  0  0  0  0
 22 29  1  0  0  0  0
 25 23  1  6  0  0  0
 25 11  1  0  0  0  0
 25 10  1  0  0  0  0
 28 20  1  1  0  0  0
 28 29  1  0  0  0  0
 28 19  1  0  0  0  0
 29 19  1  1  0  0  0
 30 27  1  0  0  0  0
 30  7  1  0  0  0  0
M  END
>  <MODEL>
1

>  <REMARK>
 VINA RESULT:      -6.2      0.000      0.000
  Name = 
  0 active torsions:
  status: ('A' for Active; 'I' for Inactive)
                            x       y       z     vdW  Elec       q    Type
                         _______ _______ _______ _____ _____    ______ ____

>  <TORSDO>
F 0

$$$$
=
 OpenBabel11042420093D

 30 36  0  0  1  0  0  0  0  0999 V2000
  161.6810  208.7300  151.7880 C   0  0  0  0  0  0  0  0  0  0  0  0
  161.5240  209.0790  154.2910 C   0  0  0  0  0  0  0  0  0  0  0  0
  161.1240  204.4440  152.7010 N   0  0  0  0  0  0  0  0  0  0  0  0
  161.7680  207.8050  150.7170 C   0  0  0  0  0  0  0  0  0  0  0  0
  161.6690  210.1040  151.4860 C   0  0  0  0  0  3  0  0  0  0  0  0
  161.8600  210.4170  147.5250 S   0  0  0  0  0  0  0  0  0  0  0  0
  162.5980  206.1110  148.3290 C   0  0  1  0  0  3  0  0  0  0  0  0
  161.7660  209.6310  149.1270 C   0  0  0  0  0  0  0  0  0  0  0  0
  161.7520  211.8880  149.7790 N   0  0  0  0  0  2  0  0  0  0  0  0
  161.9640  204.9740  149.1280 C   0  0  2  0  0  3  0  0  0  0  0  0
  160.8470  204.3190  151.2960 C   0  0  0  0  0  0  0  0  0  0  0  0
  161.7360  210.5270  150.1630 C   0  0  0  0  0  0  0  0  0  0  0  0
  161.7690  208.2490  149.3710 C   0  0  0  0  0  0  0  0  0  0  0  0
  161.0260  208.5910  155.5630 N   0  0  0  0  0  2  0  0  0  0  0  0
  161.1560  204.1880  148.1210 C   0  0  0  0  0  2  0  0  0  0  0  0
  162.8220  205.5310  146.9380 C   0  0  0  0  0  2  0  0  0  0  0  0
  163.0230  212.8690  147.9570 C   0  0  0  0  0  1  0  0  0  0  0  0
  162.1600  210.3530  154.2400 N   0  0  0  0  0  1  0  0  0  0  0  0
  161.0050  205.5560  153.3590 C   0  0  0  0  0  0  0  0  0  0  0  0
  160.4740  207.2250  155.6530 C   0  0  0  0  0  2  0  0  0  0  0  0
  161.7930  212.0700  148.3340 C   0  0  1  0  0  3  0  0  0  0  0  0
  161.4300  208.2660  153.1970 C   0  0  0  0  0  0  0  0  0  0  0  0
  161.8650  206.4520  151.0140 O   0  0  0  0  0  0  0  0  0  0  0  0
  160.3880  203.2290  150.8630 O   0  0  0  0  0  0  0  0  0  0  0  0
  161.1360  205.4470  150.3300 C   0  0  1  0  0  3  0  0  0  0  0  0
  161.9320  204.3000  146.8220 C   0  0  0  0  0  2  0  0  0  0  0  0
  160.6400  207.3980  147.3270 C   0  0  0  0  0  1  0  0  0  0  0  0
  161.2360  206.4050  154.6250 C   0  0  2  0  0  3  0  0  0  0  0  0
  160.6100  207.0130  153.4670 C   0  0  2  0  0  3  0  0  0  0  0  0
  161.7390  207.3070  148.2840 N   0  0  0  0  0  0  0  0  0  0  0  0
  1 22  1  0  0  0  0
  2 14  1  0  0  0  0
  3 19  2  0  0  0  0
  4 23  1  0  0  0  0
  4  1  2  0  0  0  0
  5  1  1  0  0  0  0
  6 21  1  0  0  0  0
  6  8  1  0  0  0  0
  7 16  1  6  0  0  0
  7 10  1  0  0  0  0
  8 13  2  0  0  0  0
  8 12  1  0  0  0  0
  9 12  1  0  0  0  0
 10 15  1  6  0  0  0
 10 25  1  0  0  0  0
 11  3  1  0  0  0  0
 12  5  2  0  0  0  0
 13  4  1  0  0  0  0
 14 20  1  0  0  0  0
 18  2  1  0  0  0  0
 19 29  1  0  0  0  0
 19 28  1  0  0  0  0
 21 17  1  1  0  0  0
 21  9  1  0  0  0  0
 22  2  2  0  0  0  0
 24 11  2  0  0  0  0
 25 23  1  1  0  0  0
 25 11  1  0  0  0  0
 26 16  1  0  0  0  0
 26 15  1  0  0  0  0
 27 30  1  0  0  0  0
 28 20  1  1  0  0  0
 29 22  1  6  0  0  0
 29 28  1  0  0  0  0
 30  7  1  0  0  0  0
 30 13  1  0  0  0  0
M  END
>  <MODEL>
2

>  <REMARK>
 VINA RESULT:      -6.0      1.625      5.285
  Name = 
  0 active torsions:
  status: ('A' for Active; 'I' for Inactive)
                            x       y       z     vdW  Elec       q    Type
                         _______ _______ _______ _____ _____    ______ ____

>  <TORSDO>
F 0

$$$$
=
 OpenBabel11042420093D

 30 36  0  0  1  0  0  0  0  0999 V2000
  161.1830  205.3950  151.7430 C   0  0  0  0  0  0  0  0  0  0  0  0
  160.9840  202.8930  151.4120 C   0  0  0  0  0  0  0  0  0  0  0  0
  161.5490  205.5980  147.3460 N   0  0  0  0  0  0  0  0  0  0  0  0
  161.4500  206.6580  151.1560 C   0  0  0  0  0  0  0  0  0  0  0  0
  160.8790  205.3470  153.1160 C   0  0  0  0  0  3  0  0  0  0  0  0
  160.9540  209.0950  154.4470 S   0  0  0  0  0  0  0  0  0  0  0  0
  162.5890  209.3540  150.3240 C   0  0  1  0  0  3  0  0  0  0  0  0
  161.0450  207.7440  153.2810 C   0  0  0  0  0  0  0  0  0  0  0  0
  160.5650  206.5540  155.2490 N   0  0  0  0  0  2  0  0  0  0  0  0
  162.2170  208.8890  148.9180 C   0  0  2  0  0  3  0  0  0  0  0  0
  161.2880  207.0000  147.5230 C   0  0  0  0  0  0  0  0  0  0  0  0
  160.8400  206.5200  153.8630 C   0  0  0  0  0  0  0  0  0  0  0  0
  161.3420  207.8500  151.9140 C   0  0  0  0  0  0  0  0  0  0  0  0
  160.6140  201.8030  150.5280 N   0  0  0  0  0  0  0  0  0  0  0  0
  161.5810  210.0930  148.2610 C   0  0  0  0  0  2  0  0  0  0  0  0
  162.9140  210.8350  150.1720 C   0  0  0  0  0  2  0  0  0  0  0  0
  161.5810  208.0210  156.8970 C   0  0  0  0  0  1  0  0  0  0  0  0
  161.3380  202.6000  152.7610 N   0  0  0  0  0  1  0  0  0  0  0  0
  161.2060  204.6910  148.2070 C   0  0  0  0  0  0  0  0  0  0  0  0
  160.3630  202.0780  149.1000 C   0  0  0  0  0  2  0  0  0  0  0  0
  160.5510  207.9060  155.7930 C   0  0  1  0  0  3  0  0  0  0  0  0
  161.0510  204.1570  150.8980 C   0  0  1  0  0  3  0  0  0  0  0  0
  161.8320  206.7020  149.8210 O   0  0  0  0  0  0  0  0  0  0  0  0
  161.0630  207.7090  146.5070 O   0  0  0  0  0  0  0  0  0  0  0  0
  161.3230  207.6440  148.8920 C   0  0  1  0  0  3  0  0  0  0  0  0
  162.3010  211.2900  148.8530 C   0  0  0  0  0  2  0  0  0  0  0  0
  160.3940  210.0870  151.3900 C   0  0  0  0  0  1  0  0  0  0  0  0
  161.2690  203.2450  148.7410 C   0  0  2  0  0  3  0  0  0  0  0  0
  160.5160  204.2410  149.4770 C   0  0  2  0  0  3  0  0  0  0  0  0
  161.4980  209.1370  151.2900 N   0  0  0  0  0  0  0  0  0  0  0  0
  1  5  1  0  0  0  0
  2 18  1  0  0  0  0
  3 11  1  0  0  0  0
  3 19  2  0  0  0  0
  4  1  2  0  0  0  0
  4 13  1  0  0  0  0
  5 12  2  0  0  0  0
  6 21  1  0  0  0  0
  7 16  1  6  0  0  0
  7 30  1  0  0  0  0
  8 12  1  0  0  0  0
  8  6  1  0  0  0  0
  9 21  1  0  0  0  0
 10 15  1  1  0  0  0
 10  7  1  0  0  0  0
 12  9  1  0  0  0  0
 13  8  2  0  0  0  0
 14  2  2  0  0  0  0
 15 26  1  0  0  0  0
 19 28  1  0  0  0  0
 20 14  1  0  0  0  0
 21 17  1  1  0  0  0
 22  2  1  1  0  0  0
 22  1  1  0  0  0  0
 23  4  1  0  0  0  0
 24 11  2  0  0  0  0
 25 11  1  6  0  0  0
 25 10  1  0  0  0  0
 25 23  1  0  0  0  0
 26 16  1  0  0  0  0
 28 20  1  6  0  0  0
 28 29  1  0  0  0  0
 29 19  1  6  0  0  0
 29 22  1  0  0  0  0
 30 27  1  0  0  0  0
 30 13  1  0  0  0  0
M  END
>  <MODEL>
3

>  <REMARK>
 VINA RESULT:      -5.6      1.973      5.281
  Name = 
  0 active torsions:
  status: ('A' for Active; 'I' for Inactive)
                            x       y       z     vdW  Elec       q    Type
                         _______ _______ _______ _____ _____    ______ ____

>  <TORSDO>
F 0

$$$$
=
 OpenBabel11042420093D

 30 36  0  0  1  0  0  0  0  0999 V2000
  160.6040  209.7290  153.2090 C   0  0  0  0  0  0  0  0  0  0  0  0
  161.0800  207.5350  154.3790 C   0  0  0  0  0  0  0  0  0  0  0  0
  162.5520  207.8830  149.7010 N   0  0  0  0  0  0  0  0  0  0  0  0
  160.8000  210.5330  152.0570 C   0  0  0  0  0  0  0  0  0  0  0  0
  159.8220  210.2440  154.2590 C   0  0  0  0  0  3  0  0  0  0  0  0
  158.5950  213.8530  153.1210 S   0  0  0  0  0  0  0  0  0  0  0  0
  161.5710  212.6770  150.0400 C   0  0  1  0  0  3  0  0  0  0  0  0
  159.4030  212.2640  153.0140 C   0  0  0  0  0  0  0  0  0  0  0  0
  158.4780  212.1080  155.1690 N   0  0  0  0  0  2  0  0  0  0  0  0
  161.8650  211.4830  149.1350 C   0  0  2  0  0  3  0  0  0  0  0  0
  161.9530  208.9640  148.9680 C   0  0  0  0  0  0  0  0  0  0  0  0
  159.2570  211.5120  154.1510 C   0  0  0  0  0  0  0  0  0  0  0  0
  160.1640  211.7930  151.9330 C   0  0  0  0  0  0  0  0  0  0  0  0
  161.3110  206.1080  154.2520 N   0  0  0  0  0  2  0  0  0  0  0  0
  161.2850  211.8560  147.7900 C   0  0  0  0  0  2  0  0  0  0  0  0
  161.6080  213.8860  149.1140 C   0  0  0  0  0  2  0  0  0  0  0  0
  158.4610  214.4530  155.8000 C   0  0  0  0  0  1  0  0  0  0  0  0
  160.9510  208.1020  155.6800 N   0  0  0  0  0  1  0  0  0  0  0  0
  162.1100  207.4610  150.8450 C   0  0  0  0  0  0  0  0  0  0  0  0
  161.5650  205.5280  152.9190 C   0  0  0  0  0  2  0  0  0  0  0  0
  157.9740  213.4240  154.8010 C   0  0  1  0  0  3  0  0  0  0  0  0
  161.0660  208.2980  153.2460 C   0  0  0  0  0  0  0  0  0  0  0  0
  161.6390  210.0640  151.0550 O   0  0  0  0  0  0  0  0  0  0  0  0
  161.9850  208.9350  147.7090 O   0  0  0  0  0  0  0  0  0  0  0  0
  161.3320  210.1500  149.6740 C   0  0  1  0  0  3  0  0  0  0  0  0
  161.4570  213.3600  147.6910 C   0  0  0  0  0  2  0  0  0  0  0  0
  159.0340  212.9180  150.0270 C   0  0  0  0  0  1  0  0  0  0  0  0
  162.2710  206.6160  152.1250 C   0  0  2  0  0  3  0  0  0  0  0  0
  161.1030  207.4620  151.9750 C   0  0  2  0  0  3  0  0  0  0  0  0
  160.2680  212.5560  150.7170 N   0  0  0  0  0  0  0  0  0  0  0  0
  1 22  1  0  0  0  0
  1  5  1  0  0  0  0
  2 18  1  0  0  0  0
  3 19  2  0  0  0  0
  4  1  2  0  0  0  0
  6 21  1  0  0  0  0
  7 16  1  6  0  0  0
  7 30  1  0  0  0  0
  8  6  1  0  0  0  0
  8 12  1  0  0  0  0
 10 15  1  6  0  0  0
 10 25  1  0  0  0  0
 10  7  1  0  0  0  0
 11  3  1  0  0  0  0
 12  5  2  0  0  0  0
 12  9  1  0  0  0  0
 13  4  1  0  0  0  0
 13  8  2  0  0  0  0
 14  2  1  0  0  0  0
 19 28  1  0  0  0  0
 20 14  1  0  0  0  0
 21  9  1  0  0  0  0
 21 17  1  1  0  0  0
 22  2  2  0  0  0  0
 23  4  1  0  0  0  0
 24 11  2  0  0  0  0
 25 11  1  6  0  0  0
 25 23  1  0  0  0  0
 26 15  1  0  0  0  0
 26 16  1  0  0  0  0
 27 30  1  0  0  0  0
 28 20  1  6  0  0  0
 29 19  1  6  0  0  0
 29 28  1  0  0  0  0
 29 22  1  0  0  0  0
 30 13  1  0  0  0  0
M  END
>  <MODEL>
4

>  <REMARK>
 VINA RESULT:      -4.9      2.824      6.087
  Name = 
  0 active torsions:
  status: ('A' for Active; 'I' for Inactive)
                            x       y       z     vdW  Elec       q    Type
                         _______ _______ _______ _____ _____    ______ ____

>  <TORSDO>
F 0

$$$$
=
 OpenBabel11042420093D

 30 36  0  0  1  0  0  0  0  0999 V2000
  160.1670  212.0140  151.9490 C   0  0  0  0  0  0  0  0  0  0  0  0
  160.1180  213.6290  150.0010 C   0  0  0  0  0  0  0  0  0  0  0  0
  161.9950  209.1760  149.1020 N   0  0  0  0  0  0  0  0  0  0  0  0
  160.4100  210.6900  152.3940 C   0  0  0  0  0  0  0  0  0  0  0  0
  159.7620  212.9730  152.8960 C   0  0  0  0  0  3  0  0  0  0  0  0
  159.6260  211.1340  156.4200 S   0  0  0  0  0  0  0  0  0  0  0  0
  160.2350  207.8540  153.4860 C   0  0  1  0  0  3  0  0  0  0  0  0
  159.9030  211.3490  154.6680 C   0  0  0  0  0  0  0  0  0  0  0  0
  159.1910  213.5140  155.2380 N   0  0  0  0  0  2  0  0  0  0  0  0
  161.1620  207.5270  152.3170 C   0  0  2  0  0  3  0  0  0  0  0  0
  162.3490  208.4300  150.2790 C   0  0  0  0  0  0  0  0  0  0  0  0
  159.6140  212.6150  154.2320 C   0  0  0  0  0  0  0  0  0  0  0  0
  160.3200  210.3560  153.7680 C   0  0  0  0  0  0  0  0  0  0  0  0
  160.6970  214.0310  148.7320 N   0  0  0  0  0  0  0  0  0  0  0  0
  162.2100  206.6020  152.8930 C   0  0  0  0  0  2  0  0  0  0  0  0
  160.2520  206.6060  154.3590 C   0  0  0  0  0  2  0  0  0  0  0  0
  157.7440  213.0090  157.1220 C   0  0  0  0  0  1  0  0  0  0  0  0
  159.1190  214.4530  150.5970 N   0  0  0  0  0  1  0  0  0  0  0  0
  161.7400  210.4470  149.1090 C   0  0  0  0  0  0  0  0  0  0  0  0
  161.6420  213.1290  148.0460 C   0  0  0  0  0  2  0  0  0  0  0  0
  159.1470  212.9060  156.5610 C   0  0  1  0  0  3  0  0  0  0  0  0
  160.4990  212.4350  150.5440 C   0  0  1  0  0  3  0  0  0  0  0  0
  160.7290  209.7210  151.4520 O   0  0  0  0  0  0  0  0  0  0  0  0
  163.1380  207.4560  150.1660 O   0  0  0  0  0  0  0  0  0  0  0  0
  161.7580  208.7620  151.6320 C   0  0  1  0  0  3  0  0  0  0  0  0
  161.4850  205.8030  153.9600 C   0  0  0  0  0  2  0  0  0  0  0  0
  161.7300  208.9360  155.2430 C   0  0  0  0  0  1  0  0  0  0  0  0
  161.2100  211.7200  148.4180 C   0  0  2  0  0  3  0  0  0  0  0  0
  161.6570  211.7940  149.7950 C   0  0  2  0  0  3  0  0  0  0  0  0
  160.6800  209.0430  154.2340 N   0  0  0  0  0  0  0  0  0  0  0  0
  1  4  2  0  0  0  0
  1  5  1  0  0  0  0
  2 18  1  0  0  0  0
  3 19  2  0  0  0  0
  3 11  1  0  0  0  0
  4 13  1  0  0  0  0
  5 12  2  0  0  0  0
  6 21  1  0  0  0  0
  7 30  1  0  0  0  0
  7 16  1  1  0  0  0
  8  6  1  0  0  0  0
  9 21  1  0  0  0  0
 10 15  1  1  0  0  0
 10  7  1  0  0  0  0
 12  8  1  0  0  0  0
 12  9  1  0  0  0  0
 13 30  1  0  0  0  0
 13  8  2  0  0  0  0
 14  2  2  0  0  0  0
 15 26  1  0  0  0  0
 20 14  1  0  0  0  0
 21 17  1  6  0  0  0
 22  2  1  1  0  0  0
 22  1  1  0  0  0  0
 23 25  1  0  0  0  0
 23  4  1  0  0  0  0
 24 11  2  0  0  0  0
 25 11  1  6  0  0  0
 25 10  1  0  0  0  0
 26 16  1  0  0  0  0
 28 20  1  6  0  0  0
 28 19  1  0  0  0  0
 28 29  1  0  0  0  0
 29 19  1  1  0  0  0
 29 22  1  0  0  0  0
 30 27  1  0  0  0  0
M  END
>  <MODEL>
5

>  <REMARK>
 VINA RESULT:      -4.8      3.110      6.224
  Name = 
  0 active torsions:
  status: ('A' for Active; 'I' for Inactive)
                            x       y       z     vdW  Elec       q    Type
                         _______ _______ _______ _____ _____    ______ ____

>  <TORSDO>
F 0

$$$$
=
 OpenBabel11042420093D

 30 36  0  0  1  0  0  0  0  0999 V2000
  160.8220  209.7290  151.7250 C   0  0  0  0  0  0  0  0  0  0  0  0
  161.9550  207.6350  150.8640 C   0  0  0  0  0  0  0  0  0  0  0  0
  160.1360  207.4180  155.4260 N   0  0  0  0  0  0  0  0  0  0  0  0
  160.0510  210.3310  152.7510 C   0  0  0  0  0  0  0  0  0  0  0  0
  161.2050  210.5190  150.6250 C   0  0  0  0  0  3  0  0  0  0  0  0
  159.7640  214.1710  151.2690 S   0  0  0  0  0  0  0  0  0  0  0  0
  157.9060  211.6750  154.4400 C   0  0  1  0  0  3  0  0  0  0  0  0
  160.1320  212.4510  151.5830 C   0  0  0  0  0  0  0  0  0  0  0  0
  161.1570  212.7110  149.4850 N   0  0  0  0  0  2  0  0  0  0  0  0
  158.3410  210.6630  155.4970 C   0  0  2  0  0  3  0  0  0  0  0  0
  159.8430  208.6990  156.0110 C   0  0  0  0  0  0  0  0  0  0  0  0
  160.8310  211.8580  150.5650 C   0  0  0  0  0  0  0  0  0  0  0  0
  159.7340  211.7110  152.7080 C   0  0  0  0  0  0  0  0  0  0  0  0
  162.6630  206.4100  151.1840 N   0  0  0  0  0  0  0  0  0  0  0  0
  158.4190  211.4490  156.7860 C   0  0  0  0  0  2  0  0  0  0  0  0
  157.0230  212.6650  155.1890 C   0  0  0  0  0  2  0  0  0  0  0  0
  159.7550  214.4530  148.5350 C   0  0  0  0  0  1  0  0  0  0  0  0
  161.8270  208.0230  149.4990 N   0  0  0  0  0  1  0  0  0  0  0  0
  160.8560  207.2670  154.3580 C   0  0  0  0  0  0  0  0  0  0  0  0
  162.7000  205.9350  152.5810 C   0  0  0  0  0  2  0  0  0  0  0  0
  160.6790  214.0740  149.6740 C   0  0  1  0  0  3  0  0  0  0  0  0
  161.3720  208.3370  151.8800 C   0  0  1  0  0  3  0  0  0  0  0  0
  159.6000  209.5360  153.7960 O   0  0  0  0  0  0  0  0  0  0  0  0
  159.7120  208.7790  157.2610 O   0  0  0  0  0  0  0  0  0  0  0  0
  159.6450  209.9320  155.1560 C   0  0  1  0  0  3  0  0  0  0  0  0
  157.3290  212.4980  156.6720 C   0  0  0  0  0  2  0  0  0  0  0  0
  159.7060  213.4780  154.4570 C   0  0  0  0  0  1  0  0  0  0  0  0
  161.3920  206.3940  153.2050 C   0  0  2  0  0  3  0  0  0  0  0  0
  161.7440  207.7990  153.2530 C   0  0  2  0  0  3  0  0  0  0  0  0
  159.0530  212.3460  153.8050 N   0  0  0  0  0  0  0  0  0  0  0  0
  1 22  1  0  0  0  0
  1  4  1  0  0  0  0
  2 14  2  0  0  0  0
  3 11  1  0  0  0  0
  4 23  1  0  0  0  0
  5  1  2  0  0  0  0
  6  8  1  0  0  0  0
  7 16  1  1  0  0  0
  7 10  1  0  0  0  0
  8 13  1  0  0  0  0
  9 21  1  0  0  0  0
  9 12  1  0  0  0  0
 10 15  1  1  0  0  0
 11 24  2  0  0  0  0
 12  5  1  0  0  0  0
 12  8  2  0  0  0  0
 13  4  2  0  0  0  0
 13 30  1  0  0  0  0
 14 20  1  0  0  0  0
 16 26  1  0  0  0  0
 18  2  1  0  0  0  0
 19  3  2  0  0  0  0
 21 17  1  6  0  0  0
 21  6  1  0  0  0  0
 22  2  1  6  0  0  0
 22 29  1  0  0  0  0
 25 23  1  6  0  0  0
 25 10  1  0  0  0  0
 25 11  1  0  0  0  0
 26 15  1  0  0  0  0
 28 20  1  1  0  0  0
 28 29  1  0  0  0  0
 28 19  1  0  0  0  0
 29 19  1  1  0  0  0
 30  7  1  0  0  0  0
 30 27  1  0  0  0  0
M  END
>  <MODEL>
6

>  <REMARK>
 VINA RESULT:      -4.7      2.835      4.077
  Name = 
  0 active torsions:
  status: ('A' for Active; 'I' for Inactive)
                            x       y       z     vdW  Elec       q    Type
                         _______ _______ _______ _____ _____    ______ ____

>  <TORSDO>
F 0

$$$$
=
 OpenBabel11042420093D

 30 36  0  0  1  0  0  0  0  0999 V2000
  160.9640  210.4210  151.7100 C   0  0  0  0  0  0  0  0  0  0  0  0
  160.9770  212.5580  150.3520 C   0  0  0  0  0  0  0  0  0  0  0  0
  161.9560  208.4080  147.9050 N   0  0  0  0  0  0  0  0  0  0  0  0
  161.0250  209.0050  151.7040 C   0  0  0  0  0  0  0  0  0  0  0  0
  160.8350  211.0800  152.9470 C   0  0  0  0  0  3  0  0  0  0  0  0
  160.7760  208.2610  155.7540 S   0  0  0  0  0  0  0  0  0  0  0  0
  160.4890  206.0180  151.9310 C   0  0  1  0  0  3  0  0  0  0  0  0
  160.8900  208.9770  154.1210 C   0  0  0  0  0  0  0  0  0  0  0  0
  160.6260  210.9280  155.4040 N   0  0  0  0  0  2  0  0  0  0  0  0
  161.2120  205.9560  150.5870 C   0  0  2  0  0  3  0  0  0  0  0  0
  162.3040  207.2920  148.7420 C   0  0  0  0  0  0  0  0  0  0  0  0
  160.7760  210.3430  154.1260 C   0  0  0  0  0  0  0  0  0  0  0  0
  161.0300  208.2720  152.9160 C   0  0  0  0  0  0  0  0  0  0  0  0
  161.4730  213.2590  149.1830 N   0  0  0  0  0  0  0  0  0  0  0  0
  162.1430  204.7710  150.6940 C   0  0  0  0  0  2  0  0  0  0  0  0
  160.3880  204.5670  152.3860 C   0  0  0  0  0  2  0  0  0  0  0  0
  159.3300  210.0480  157.2610 C   0  0  0  0  0  1  0  0  0  0  0  0
  160.2060  213.2750  151.3130 N   0  0  0  0  0  1  0  0  0  0  0  0
  161.9230  209.6350  148.3250 C   0  0  0  0  0  0  0  0  0  0  0  0
  162.1690  212.5040  148.1230 C   0  0  0  0  0  2  0  0  0  0  0  0
  160.6250  209.9460  156.4810 C   0  0  1  0  0  3  0  0  0  0  0  0
  161.2060  211.2160  150.4550 C   0  0  1  0  0  3  0  0  0  0  0  0
  161.0670  208.3480  150.4810 O   0  0  0  0  0  0  0  0  0  0  0  0
  162.8980  206.3090  148.2270 O   0  0  0  0  0  0  0  0  0  0  0  0
  161.9310  207.2570  150.2090 C   0  0  1  0  0  3  0  0  0  0  0  0
  161.4150  203.7780  151.5810 C   0  0  0  0  0  2  0  0  0  0  0  0
  162.3310  206.2920  153.6690 C   0  0  0  0  0  1  0  0  0  0  0  0
  161.5460  211.1170  148.1290 C   0  0  2  0  0  3  0  0  0  0  0  0
  162.1480  210.6970  149.3790 C   0  0  2  0  0  3  0  0  0  0  0  0
  161.2100  206.8440  152.9140 N   0  0  0  0  0  0  0  0  0  0  0  0
  1  5  1  0  0  0  0
  2 18  1  0  0  0  0
  3 19  2  0  0  0  0
  3 11  1  0  0  0  0
  4  1  2  0  0  0  0
  4 13  1  0  0  0  0
  5 12  2  0  0  0  0
  6 21  1  0  0  0  0
  7 16  1  1  0  0  0
  7 30  1  0  0  0  0
  8 12  1  0  0  0  0
  8  6  1  0  0  0  0
  9 21  1  0  0  0  0
 10 15  1  1  0  0  0
 10  7  1  0  0  0  0
 12  9  1  0  0  0  0
 13  8  2  0  0  0  0
 14  2  2  0  0  0  0
 15 26  1  0  0  0  0
 20 14  1  0  0  0  0
 21 17  1  6  0  0  0
 22  2  1  1  0  0  0
 22  1  1  0  0  0  0
 23  4  1  0  0  0  0
 24 11  2  0  0  0  0
 25 11  1  6  0  0  0
 25 23  1  0  0  0  0
 25 10  1  0  0  0  0
 26 16  1  0  0  0  0
 28 20  1  6  0  0  0
 28 19  1  0  0  0  0
 28 29  1  0  0  0  0
 29 19  1  6  0  0  0
 29 22  1  0  0  0  0
 30 13  1  0  0  0  0
 30 27  1  0  0  0  0
M  END
>  <MODEL>
7

>  <REMARK>
 VINA RESULT:      -4.4      2.353      6.073
  Name = 
  0 active torsions:
  status: ('A' for Active; 'I' for Inactive)
                            x       y       z     vdW  Elec       q    Type
                         _______ _______ _______ _____ _____    ______ ____

>  <TORSDO>
F 0

$$$$
=
 OpenBabel11042420093D

 30 36  0  0  1  0  0  0  0  0999 V2000
  161.5000  206.4960  148.7350 C   0  0  0  0  0  0  0  0  0  0  0  0
  161.7950  208.7680  149.8110 C   0  0  0  0  0  0  0  0  0  0  0  0
  161.3000  204.9510  152.8690 N   0  0  0  0  0  0  0  0  0  0  0  0
  161.4250  205.0910  148.9180 C   0  0  0  0  0  0  0  0  0  0  0  0
  161.3750  207.0080  147.4310 C   0  0  0  0  0  3  0  0  0  0  0  0
  160.8160  203.8970  145.0160 S   0  0  0  0  0  0  0  0  0  0  0  0
  161.8680  202.0800  148.9320 C   0  0  1  0  0  3  0  0  0  0  0  0
  161.0520  204.7920  146.5440 C   0  0  0  0  0  0  0  0  0  0  0  0
  161.0660  206.5780  145.0180 N   0  0  0  0  0  2  0  0  0  0  0  0
  161.4410  202.1940  150.3930 C   0  0  2  0  0  3  0  0  0  0  0  0
  160.7730  203.7630  152.2560 C   0  0  0  0  0  0  0  0  0  0  0  0
  161.1780  206.1440  146.3580 C   0  0  0  0  0  0  0  0  0  0  0  0
  161.1590  204.2290  147.8250 C   0  0  0  0  0  0  0  0  0  0  0  0
  161.5620  209.6120  150.9680 N   0  0  0  0  0  2  0  0  0  0  0  0
  160.4940  201.0370  150.6170 C   0  0  0  0  0  2  0  0  0  0  0  0
  161.8550  200.5860  148.6360 C   0  0  0  0  0  2  0  0  0  0  0  0
  161.9350  205.4540  143.0480 C   0  0  0  0  0  1  0  0  0  0  0  0
  162.3570  209.3470  148.6360 N   0  0  0  0  0  1  0  0  0  0  0  0
  161.2590  206.1230  152.3130 C   0  0  0  0  0  0  0  0  0  0  0  0
  161.0930  209.0030  152.2290 C   0  0  0  0  0  2  0  0  0  0  0  0
  160.8310  205.4840  144.0840 C   0  0  1  0  0  3  0  0  0  0  0  0
  161.5340  207.4320  149.9130 C   0  0  0  0  0  0  0  0  0  0  0  0
  161.6310  204.5750  150.1900 O   0  0  0  0  0  0  0  0  0  0  0  0
  160.2880  202.8640  152.9930 O   0  0  0  0  0  0  0  0  0  0  0  0
  160.8310  203.5520  150.7590 C   0  0  1  0  0  3  0  0  0  0  0  0
  161.0100  199.9270  149.7200 C   0  0  0  0  0  2  0  0  0  0  0  0
  159.7070  202.2260  147.5900 C   0  0  0  0  0  1  0  0  0  0  0  0
  161.6850  207.6030  152.2540 C   0  0  2  0  0  3  0  0  0  0  0  0
  160.8310  207.0690  151.2120 C   0  0  2  0  0  3  0  0  0  0  0  0
  160.9670  202.8180  148.0290 N   0  0  0  0  0  0  0  0  0  0  0  0
  1  4  1  0  0  0  0
  1 22  1  0  0  0  0
  2 22  2  0  0  0  0
  2 14  1  0  0  0  0
  4 23  1  0  0  0  0
  5  1  2  0  0  0  0
  6  8  1  0  0  0  0
  7 16  1  6  0  0  0
  7 10  1  0  0  0  0
  8 13  1  0  0  0  0
  9 12  1  0  0  0  0
 10 15  1  6  0  0  0
 10 25  1  0  0  0  0
 11  3  1  0  0  0  0
 11 24  2  0  0  0  0
 12  8  2  0  0  0  0
 12  5  1  0  0  0  0
 13 30  1  0  0  0  0
 13  4  2  0  0  0  0
 14 20  1  0  0  0  0
 16 26  1  0  0  0  0
 18  2  1  0  0  0  0
 19  3  2  0  0  0  0
 21 17  1  6  0  0  0
 21  6  1  0  0  0  0
 21  9  1  0  0  0  0
 25 23  1  6  0  0  0
 25 11  1  0  0  0  0
 26 15  1  0  0  0  0
 27 30  1  0  0  0  0
 28 20  1  1  0  0  0
 28 19  1  0  0  0  0
 29 22  1  6  0  0  0
 29 28  1  0  0  0  0
 29 19  1  0  0  0  0
 30  7  1  0  0  0  0
M  END
>  <MODEL>
8

>  <REMARK>
 VINA RESULT:      -4.1      2.618      6.187
  Name = 
  0 active torsions:
  status: ('A' for Active; 'I' for Inactive)
                            x       y       z     vdW  Elec       q    Type
                         _______ _______ _______ _____ _____    ______ ____

>  <TORSDO>
F 0

$$$$
=
 OpenBabel11042420093D

 30 36  0  0  1  0  0  0  0  0999 V2000
  161.2360  210.7420  150.9030 C   0  0  0  0  0  0  0  0  0  0  0  0
  161.5380  211.9970  148.7260 C   0  0  0  0  0  0  0  0  0  0  0  0
  159.3480  214.4530  152.3780 N   0  0  0  0  0  0  0  0  0  0  0  0
  160.8560  210.7980  152.2680 C   0  0  0  0  0  0  0  0  0  0  0  0
  161.6630  209.5090  150.3780 C   0  0  0  0  0  3  0  0  0  0  0  0
  161.4330  206.8540  153.3310 S   0  0  0  0  0  0  0  0  0  0  0  0
  160.7250  210.7680  155.3090 C   0  0  1  0  0  3  0  0  0  0  0  0
  161.2810  208.4250  152.4950 C   0  0  0  0  0  0  0  0  0  0  0  0
  162.1380  207.1120  150.7450 N   0  0  0  0  0  2  0  0  0  0  0  0
  159.8450  212.0010  155.1150 C   0  0  2  0  0  3  0  0  0  0  0  0
  158.8630  213.6220  153.4460 C   0  0  0  0  0  0  0  0  0  0  0  0
  161.7010  208.3800  151.1910 C   0  0  0  0  0  0  0  0  0  0  0  0
  160.8350  209.6270  153.0660 C   0  0  0  0  0  0  0  0  0  0  0  0
  161.0720  213.0580  147.8520 N   0  0  0  0  0  0  0  0  0  0  0  0
  158.6900  211.8150  156.0730 C   0  0  0  0  0  2  0  0  0  0  0  0
  160.5500  210.3900  156.7740 C   0  0  0  0  0  2  0  0  0  0  0  0
  163.4220  205.4880  152.0150 C   0  0  0  0  0  1  0  0  0  0  0  0
  162.5650  211.1230  148.2650 N   0  0  0  0  0  1  0  0  0  0  0  0
  159.7090  213.9930  151.2200 C   0  0  0  0  0  0  0  0  0  0  0  0
  160.0960  214.0420  148.3600 C   0  0  0  0  0  2  0  0  0  0  0  0
  162.0510  206.0860  151.7760 C   0  0  1  0  0  3  0  0  0  0  0  0
  161.0250  211.9180  149.9890 C   0  0  1  0  0  3  0  0  0  0  0  0
  160.5130  212.0280  152.8120 O   0  0  0  0  0  0  0  0  0  0  0  0
  158.0020  214.0910  154.2370 O   0  0  0  0  0  0  0  0  0  0  0  0
  159.3980  212.2240  153.6660 C   0  0  1  0  0  3  0  0  0  0  0  0
  159.2800  211.0780  157.2610 C   0  0  0  0  0  2  0  0  0  0  0  0
  159.2240  208.7830  154.7600 C   0  0  0  0  0  1  0  0  0  0  0  0
  160.3850  214.1780  149.8460 C   0  0  2  0  0  3  0  0  0  0  0  0
  159.8640  212.8750  150.2110 C   0  0  2  0  0  3  0  0  0  0  0  0
  160.3380  209.6620  154.4160 N   0  0  0  0  0  0  0  0  0  0  0  0
  1  4  1  0  0  0  0
  3 11  1  0  0  0  0
  4 23  1  0  0  0  0
  4 13  2  0  0  0  0
  5  1  2  0  0  0  0
  5 12  1  0  0  0  0
  7 16  1  1  0  0  0
  8 13  1  0  0  0  0
  8  6  1  0  0  0  0
  9 12  1  0  0  0  0
  9 21  1  0  0  0  0
 10  7  1  0  0  0  0
 10 15  1  1  0  0  0
 11 25  1  0  0  0  0
 11 24  2  0  0  0  0
 12  8  2  0  0  0  0
 13 30  1  0  0  0  0
 14 20  1  0  0  0  0
 14  2  2  0  0  0  0
 15 26  1  0  0  0  0
 16 26  1  0  0  0  0
 18  2  1  0  0  0  0
 19  3  2  0  0  0  0
 21 17  1  1  0  0  0
 21  6  1  0  0  0  0
 22  2  1  6  0  0  0
 22 29  1  0  0  0  0
 22  1  1  0  0  0  0
 25 23  1  6  0  0  0
 25 10  1  0  0  0  0
 28 20  1  6  0  0  0
 28 29  1  0  0  0  0
 28 19  1  0  0  0  0
 29 19  1  1  0  0  0
 30 27  1  0  0  0  0
 30  7  1  0  0  0  0
M  END
>  <MODEL>
9

>  <REMARK>
 VINA RESULT:      -3.5      3.125      6.445
  Name = 
  0 active torsions:
  status: ('A' for Active; 'I' for Inactive)
                            x       y       z     vdW  Elec       q    Type
                         _______ _______ _______ _____ _____    ______ ____

>  <TORSDO>
F 0

$$$$
