=
 OpenBabel11042420443D

 27 30  0  0  0  0  0  0  0  0999 V2000
  161.2320  206.0120  152.8530 C   0  0  0  0  0  0  0  0  0  0  0  0
  160.9200  205.8110  154.2020 C   0  0  0  0  0  3  0  0  0  0  0  0
  161.5150  210.4870  151.7540 C   0  0  0  0  0  3  0  0  0  0  0  0
  161.3600  207.3260  152.3350 C   0  0  0  0  0  0  0  0  0  0  0  0
  162.1710  208.5540  148.8450 C   0  0  0  0  0  0  0  0  0  0  0  0
  160.8540  208.1830  154.5620 C   0  0  0  0  0  3  0  0  0  0  0  0
  162.3650  207.3680  147.9640 C   0  0  0  0  0  1  0  0  0  0  0  0
  161.6730  207.4100  150.9730 C   0  0  0  0  0  3  0  0  0  0  0  0
  161.8620  208.5300  150.1890 C   0  0  0  0  0  0  0  0  0  0  0  0
  161.7920  209.9270  150.5300 C   0  0  0  0  0  0  0  0  0  0  0  0
  161.2390  209.8030  152.9290 C   0  0  0  0  0  3  0  0  0  0  0  0
  160.7320  206.8900  155.0540 C   0  0  0  0  0  3  0  0  0  0  0  0
  161.1630  208.4360  153.2210 C   0  0  0  0  0  0  0  0  0  0  0  0
  162.2790  209.8270  148.4130 N   0  0  0  0  0  0  0  0  0  0  0  0
  162.0510  210.6530  149.4260 N   0  0  0  0  0  0  0  0  0  0  0  0
  160.6360  204.6230  151.0250 N   0  0  0  0  0  0  0  0  0  0  0  0
  161.4220  204.8750  151.9960 N   0  0  0  0  0  0  0  0  0  0  0  0
  161.0680  201.0950  149.8490 C   0  0  0  0  0  3  0  0  0  0  0  0
  161.2190  201.2940  148.4740 C   0  0  0  0  0  0  0  0  0  0  0  0
  160.8340  203.4900  150.1770 C   0  0  0  0  0  0  0  0  0  0  0  0
  161.1830  202.5940  147.9480 C   0  0  0  0  0  0  0  0  0  0  0  0
  161.3990  200.2240  147.6620 F   0  0  0  0  0  0  0  0  0  0  0  0
  160.9850  203.6850  148.8000 C   0  0  0  0  0  3  0  0  0  0  0  0
  160.8780  202.1870  150.6990 C   0  0  0  0  0  3  0  0  0  0  0  0
  161.3170  202.8260  146.4810 C   0  0  0  0  0  2  0  0  0  0  0  0
  161.6850  204.1500  146.2450 O   0  0  0  0  0  0  0  0  0  0  0  0
  161.0930  204.4640  145.0230 C   0  0  0  0  0  1  0  0  0  0  0  0
  1  2  1  0  0  0  0
  2 12  2  0  0  0  0
  3 11  2  0  0  0  0
  4  1  2  0  0  0  0
  4 13  1  0  0  0  0
  5  9  1  0  0  0  0
  6 12  1  0  0  0  0
  7  5  1  0  0  0  0
  8  4  1  0  0  0  0
  9 10  1  0  0  0  0
  9  8  2  0  0  0  0
 10  3  1  0  0  0  0
 11 13  1  0  0  0  0
 13  6  2  0  0  0  0
 14  5  2  0  0  0  0
 14 15  1  0  0  0  0
 15 10  2  0  0  0  0
 16 17  2  0  0  0  0
 17  1  1  0  0  0  0
 18 24  1  0  0  0  0
 19 18  2  0  0  0  0
 20 24  2  0  0  0  0
 20 16  1  0  0  0  0
 21 19  1  0  0  0  0
 21 23  2  0  0  0  0
 22 19  1  0  0  0  0
 23 20  1  0  0  0  0
 25 21  1  0  0  0  0
 26 25  1  0  0  0  0
 27 26  1  0  0  0  0
M  END
>  <MODEL>
1

>  <REMARK>
 VINA RESULT:     -10.1      0.000      0.000
  Name = 
  4 active torsions:
  status: ('A' for Active; 'I' for Inactive)
    1  A    between atoms: N_2  and  C_13
    2  A    between atoms: C_3  and  N_9
    3  A    between atoms: C_16  and  C_21
    4  A    between atoms: C_21  and  O_22
                            x       y       z     vdW  Elec       q    Type
                         _______ _______ _______ _____ _____    ______ ____

>  <TORSDO>
F 4

$$$$
=
 OpenBabel11042420443D

 27 30  0  0  0  0  0  0  0  0999 V2000
  160.9790  203.5150  150.3210 C   0  0  0  0  0  0  0  0  0  0  0  0
  160.9430  202.3720  151.1280 C   0  0  0  0  0  3  0  0  0  0  0  0
  161.1590  202.4940  145.8210 C   0  0  0  0  0  3  0  0  0  0  0  0
  161.0370  203.3930  148.9080 C   0  0  0  0  0  0  0  0  0  0  0  0
  161.1530  206.0280  146.1900 C   0  0  0  0  0  0  0  0  0  0  0  0
  161.0180  200.9690  149.1810 C   0  0  0  0  0  3  0  0  0  0  0  0
  161.1310  207.3700  146.8370 C   0  0  0  0  0  1  0  0  0  0  0  0
  161.0690  204.6000  148.2000 C   0  0  0  0  0  3  0  0  0  0  0  0
  161.1240  204.8110  146.8370 C   0  0  0  0  0  0  0  0  0  0  0  0
  161.1660  203.8660  145.7510 C   0  0  0  0  0  0  0  0  0  0  0  0
  161.1110  201.7290  146.9790 C   0  0  0  0  0  3  0  0  0  0  0  0
  160.9630  201.1050  150.5620 C   0  0  0  0  0  3  0  0  0  0  0  0
  161.0560  202.0810  148.3320 C   0  0  0  0  0  0  0  0  0  0  0  0
  161.2070  205.8460  144.8550 N   0  0  0  0  0  0  0  0  0  0  0  0
  161.2150  204.5460  144.5910 N   0  0  0  0  0  0  0  0  0  0  0  0
  161.2470  204.9850  152.1620 N   0  0  0  0  0  0  0  0  0  0  0  0
  160.9580  204.8130  150.9340 N   0  0  0  0  0  0  0  0  0  0  0  0
  160.9130  207.7250  154.6920 C   0  0  0  0  0  3  0  0  0  0  0  0
  161.1920  208.8450  153.9030 C   0  0  0  0  0  0  0  0  0  0  0  0
  161.2230  206.2810  152.7630 C   0  0  0  0  0  0  0  0  0  0  0  0
  161.4810  208.6840  152.5400 C   0  0  0  0  0  0  0  0  0  0  0  0
  161.1780  210.0770  154.4680 F   0  0  0  0  0  0  0  0  0  0  0  0
  161.5020  207.4040  151.9780 C   0  0  0  0  0  3  0  0  0  0  0  0
  160.9270  206.4470  154.1260 C   0  0  0  0  0  3  0  0  0  0  0  0
  161.8050  209.8640  151.6870 C   0  0  0  0  0  2  0  0  0  0  0  0
  162.0800  209.4430  150.3860 O   0  0  0  0  0  0  0  0  0  0  0  0
  162.0790  210.6150  149.6320 C   0  0  0  0  0  1  0  0  0  0  0  0
  1 17  1  0  0  0  0
  1  2  1  0  0  0  0
  3 11  2  0  0  0  0
  4  1  2  0  0  0  0
  5  7  1  0  0  0  0
  5  9  1  0  0  0  0
  6 12  1  0  0  0  0
  8  4  1  0  0  0  0
  9  8  2  0  0  0  0
 10  3  1  0  0  0  0
 10  9  1  0  0  0  0
 11 13  1  0  0  0  0
 12  2  2  0  0  0  0
 13  4  1  0  0  0  0
 13  6  2  0  0  0  0
 14  5  2  0  0  0  0
 15 14  1  0  0  0  0
 15 10  2  0  0  0  0
 16 20  1  0  0  0  0
 17 16  2  0  0  0  0
 19 22  1  0  0  0  0
 19 18  2  0  0  0  0
 20 24  2  0  0  0  0
 21 19  1  0  0  0  0
 23 21  2  0  0  0  0
 23 20  1  0  0  0  0
 24 18  1  0  0  0  0
 25 21  1  0  0  0  0
 26 25  1  0  0  0  0
 27 26  1  0  0  0  0
M  END
>  <MODEL>
2

>  <REMARK>
 VINA RESULT:      -9.9      3.222      6.885
  Name = 
  4 active torsions:
  status: ('A' for Active; 'I' for Inactive)
    1  A    between atoms: N_2  and  C_13
    2  A    between atoms: C_3  and  N_9
    3  A    between atoms: C_16  and  C_21
    4  A    between atoms: C_21  and  O_22
                            x       y       z     vdW  Elec       q    Type
                         _______ _______ _______ _____ _____    ______ ____

>  <TORSDO>
F 4

$$$$
=
 OpenBabel11042420443D

 27 30  0  0  0  0  0  0  0  0999 V2000
  161.0580  203.6430  150.4540 C   0  0  0  0  0  0  0  0  0  0  0  0
  160.9690  202.5680  151.3450 C   0  0  0  0  0  3  0  0  0  0  0  0
  161.0900  202.2820  146.0420 C   0  0  0  0  0  3  0  0  0  0  0  0
  161.0810  203.4140  149.0540 C   0  0  0  0  0  0  0  0  0  0  0  0
  161.3050  205.8270  146.1440 C   0  0  0  0  0  0  0  0  0  0  0  0
  160.9220  201.0220  149.5090 C   0  0  0  0  0  3  0  0  0  0  0  0
  161.3750  207.2130  146.6880 C   0  0  0  0  0  1  0  0  0  0  0  0
  161.1720  204.5600  148.2560 C   0  0  0  0  0  3  0  0  0  0  0  0
  161.2140  204.6650  146.8810 C   0  0  0  0  0  0  0  0  0  0  0  0
  161.1780  203.6420  145.8690 C   0  0  0  0  0  0  0  0  0  0  0  0
  161.0180  201.6090  147.2540 C   0  0  0  0  0  3  0  0  0  0  0  0
  160.9010  201.2630  150.8770 C   0  0  0  0  0  3  0  0  0  0  0  0
  161.0110  202.0630  148.5780 C   0  0  0  0  0  0  0  0  0  0  0  0
  161.3220  205.5440  144.8250 N   0  0  0  0  0  0  0  0  0  0  0  0
  161.2460  204.2300  144.6600 N   0  0  0  0  0  0  0  0  0  0  0  0
  161.0400  205.2330  152.2140 N   0  0  0  0  0  0  0  0  0  0  0  0
  161.1260  204.9820  150.9680 N   0  0  0  0  0  0  0  0  0  0  0  0
  161.3910  208.9570  152.3730 C   0  0  0  0  0  3  0  0  0  0  0  0
  161.2320  209.1760  153.7440 C   0  0  0  0  0  0  0  0  0  0  0  0
  161.1090  206.5690  152.7160 C   0  0  0  0  0  0  0  0  0  0  0  0
  161.0170  208.0900  154.6050 C   0  0  0  0  0  0  0  0  0  0  0  0
  161.2890  210.4420  154.2270 F   0  0  0  0  0  0  0  0  0  0  0  0
  160.9500  206.7930  154.0870 C   0  0  0  0  0  3  0  0  0  0  0  0
  161.3320  207.6590  151.8590 C   0  0  0  0  0  3  0  0  0  0  0  0
  160.8200  208.3060  156.0670 C   0  0  0  0  0  2  0  0  0  0  0  0
  162.0180  208.0760  156.7430 O   0  0  0  0  0  0  0  0  0  0  0  0
  162.3720  209.3210  157.2610 C   0  0  0  0  0  1  0  0  0  0  0  0
  1 17  1  0  0  0  0
  1  2  1  0  0  0  0
  3 11  2  0  0  0  0
  4  1  2  0  0  0  0
  5  7  1  0  0  0  0
  5  9  1  0  0  0  0
  6 12  1  0  0  0  0
  8  4  1  0  0  0  0
  9  8  2  0  0  0  0
 10  3  1  0  0  0  0
 10  9  1  0  0  0  0
 11 13  1  0  0  0  0
 12  2  2  0  0  0  0
 13  4  1  0  0  0  0
 13  6  2  0  0  0  0
 14  5  2  0  0  0  0
 15 14  1  0  0  0  0
 15 10  2  0  0  0  0
 16 20  1  0  0  0  0
 17 16  2  0  0  0  0
 18 19  1  0  0  0  0
 19 22  1  0  0  0  0
 19 21  2  0  0  0  0
 20 23  2  0  0  0  0
 21 25  1  0  0  0  0
 23 21  1  0  0  0  0
 24 18  2  0  0  0  0
 24 20  1  0  0  0  0
 25 26  1  0  0  0  0
 26 27  1  0  0  0  0
M  END
>  <MODEL>
3

>  <REMARK>
 VINA RESULT:      -9.7      3.751      7.586
  Name = 
  4 active torsions:
  status: ('A' for Active; 'I' for Inactive)
    1  A    between atoms: N_2  and  C_13
    2  A    between atoms: C_3  and  N_9
    3  A    between atoms: C_16  and  C_21
    4  A    between atoms: C_21  and  O_22
                            x       y       z     vdW  Elec       q    Type
                         _______ _______ _______ _____ _____    ______ ____

>  <TORSDO>
F 4

$$$$
=
 OpenBabel11042420443D

 27 30  0  0  0  0  0  0  0  0999 V2000
  161.0400  205.7880  146.9670 C   0  0  0  0  0  0  0  0  0  0  0  0
  161.1100  206.1850  145.6270 C   0  0  0  0  0  3  0  0  0  0  0  0
  161.1470  201.1980  147.4590 C   0  0  0  0  0  3  0  0  0  0  0  0
  161.0600  204.4110  147.3100 C   0  0  0  0  0  0  0  0  0  0  0  0
  160.9060  202.6860  150.6770 C   0  0  0  0  0  0  0  0  0  0  0  0
  161.2210  203.8890  144.9320 C   0  0  0  0  0  3  0  0  0  0  0  0
  160.8100  203.7310  151.7350 C   0  0  0  0  0  1  0  0  0  0  0  0
  160.9840  204.1290  148.6790 C   0  0  0  0  0  3  0  0  0  0  0  0
  160.9830  202.9060  149.3180 C   0  0  0  0  0  0  0  0  0  0  0  0
  161.0550  201.5740  148.7770 C   0  0  0  0  0  0  0  0  0  0  0  0
  161.1880  202.0480  146.3620 C   0  0  0  0  0  3  0  0  0  0  0  0
  161.2000  205.2410  144.6130 C   0  0  0  0  0  3  0  0  0  0  0  0
  161.1530  203.4430  146.2570 C   0  0  0  0  0  0  0  0  0  0  0  0
  160.9290  201.3630  150.9380 N   0  0  0  0  0  0  0  0  0  0  0  0
  161.0190  200.6940  149.7960 N   0  0  0  0  0  0  0  0  0  0  0  0
  161.9750  207.3910  148.4430 N   0  0  0  0  0  0  0  0  0  0  0  0
  160.9470  206.7870  147.9950 N   0  0  0  0  0  0  0  0  0  0  0  0
  161.9600  210.6980  150.1990 C   0  0  0  0  0  3  0  0  0  0  0  0
  161.6580  210.3000  151.5040 C   0  0  0  0  0  0  0  0  0  0  0  0
  161.8730  208.3840  149.4660 C   0  0  0  0  0  0  0  0  0  0  0  0
  161.4690  208.9410  151.7940 C   0  0  0  0  0  0  0  0  0  0  0  0
  161.5520  211.2370  152.4780 F   0  0  0  0  0  0  0  0  0  0  0  0
  161.5710  207.9900  150.7730 C   0  0  0  0  0  3  0  0  0  0  0  0
  162.0690  209.7460  149.1820 C   0  0  0  0  0  3  0  0  0  0  0  0
  161.1220  208.4980  153.1750 C   0  0  0  0  0  2  0  0  0  0  0  0
  160.7400  207.1570  153.1580 O   0  0  0  0  0  0  0  0  0  0  0  0
  160.6890  206.7910  154.5010 C   0  0  0  0  0  1  0  0  0  0  0  0
  1  4  1  0  0  0  0
  1 17  1  0  0  0  0
  2  1  2  0  0  0  0
  3 10  1  0  0  0  0
  4  8  1  0  0  0  0
  5 14  2  0  0  0  0
  5  7  1  0  0  0  0
  6 13  1  0  0  0  0
  8  9  2  0  0  0  0
  9  5  1  0  0  0  0
 10  9  1  0  0  0  0
 10 15  2  0  0  0  0
 11  3  2  0  0  0  0
 12  6  2  0  0  0  0
 12  2  1  0  0  0  0
 13 11  1  0  0  0  0
 13  4  2  0  0  0  0
 15 14  1  0  0  0  0
 16 20  1  0  0  0  0
 17 16  2  0  0  0  0
 18 19  1  0  0  0  0
 19 21  2  0  0  0  0
 19 22  1  0  0  0  0
 20 23  2  0  0  0  0
 21 25  1  0  0  0  0
 23 21  1  0  0  0  0
 24 20  1  0  0  0  0
 24 18  2  0  0  0  0
 26 25  1  0  0  0  0
 26 27  1  0  0  0  0
M  END
>  <MODEL>
4

>  <REMARK>
 VINA RESULT:      -9.5      3.172      8.115
  Name = 
  4 active torsions:
  status: ('A' for Active; 'I' for Inactive)
    1  A    between atoms: N_2  and  C_13
    2  A    between atoms: C_3  and  N_9
    3  A    between atoms: C_16  and  C_21
    4  A    between atoms: C_21  and  O_22
                            x       y       z     vdW  Elec       q    Type
                         _______ _______ _______ _____ _____    ______ ____

>  <TORSDO>
F 4

$$$$
=
 OpenBabel11042420443D

 27 30  0  0  0  0  0  0  0  0999 V2000
  161.9280  208.5110  149.2330 C   0  0  0  0  0  0  0  0  0  0  0  0
  162.1410  209.6460  148.4430 C   0  0  0  0  0  3  0  0  0  0  0  0
  161.3260  209.5470  153.6920 C   0  0  0  0  0  3  0  0  0  0  0  0
  161.7230  208.6370  150.6310 C   0  0  0  0  0  0  0  0  0  0  0  0
  161.1020  206.0220  153.2990 C   0  0  0  0  0  0  0  0  0  0  0  0
  161.9560  211.0530  150.3800 C   0  0  0  0  0  3  0  0  0  0  0  0
  161.0940  204.6820  152.6480 C   0  0  0  0  0  1  0  0  0  0  0  0
  161.5200  207.4370  151.3220 C   0  0  0  0  0  3  0  0  0  0  0  0
  161.2960  207.2330  152.6690 C   0  0  0  0  0  0  0  0  0  0  0  0
  161.2070  208.1790  153.7500 C   0  0  0  0  0  0  0  0  0  0  0  0
  161.5630  210.3040  152.5530 C   0  0  0  0  0  3  0  0  0  0  0  0
  162.1550  210.9120  149.0130 C   0  0  0  0  0  3  0  0  0  0  0  0
  161.7400  209.9480  151.2110 C   0  0  0  0  0  0  0  0  0  0  0  0
  160.9140  206.2080  154.6210 N   0  0  0  0  0  0  0  0  0  0  0  0
  160.9770  207.5060  154.8930 N   0  0  0  0  0  0  0  0  0  0  0  0
  161.2090  206.9610  147.5880 N   0  0  0  0  0  0  0  0  0  0  0  0
  161.9180  207.2140  148.6150 N   0  0  0  0  0  0  0  0  0  0  0  0
  161.2120  204.2420  145.0140 C   0  0  0  0  0  3  0  0  0  0  0  0
  161.2050  203.1080  145.8310 C   0  0  0  0  0  0  0  0  0  0  0  0
  161.2060  205.6670  146.9810 C   0  0  0  0  0  0  0  0  0  0  0  0
  161.1920  203.2520  147.2260 C   0  0  0  0  0  0  0  0  0  0  0  0
  161.2090  201.8770  145.2630 F   0  0  0  0  0  0  0  0  0  0  0  0
  161.1990  204.5300  147.7940 C   0  0  0  0  0  3  0  0  0  0  0  0
  161.2110  205.5170  145.5840 C   0  0  0  0  0  3  0  0  0  0  0  0
  161.2090  202.0560  148.1160 C   0  0  0  0  0  2  0  0  0  0  0  0
  160.2770  202.2170  149.1400 O   0  0  0  0  0  0  0  0  0  0  0  0
  160.8310  201.5420  150.2270 C   0  0  0  0  0  1  0  0  0  0  0  0
  1  4  1  0  0  0  0
  2 12  1  0  0  0  0
  2  1  2  0  0  0  0
  3 10  1  0  0  0  0
  4 13  2  0  0  0  0
  4  8  1  0  0  0  0
  5 14  2  0  0  0  0
  6 13  1  0  0  0  0
  7  5  1  0  0  0  0
  8  9  2  0  0  0  0
  9  5  1  0  0  0  0
  9 10  1  0  0  0  0
 10 15  2  0  0  0  0
 11  3  2  0  0  0  0
 12  6  2  0  0  0  0
 13 11  1  0  0  0  0
 14 15  1  0  0  0  0
 16 17  2  0  0  0  0
 17  1  1  0  0  0  0
 18 24  2  0  0  0  0
 18 19  1  0  0  0  0
 19 21  2  0  0  0  0
 20 16  1  0  0  0  0
 20 23  2  0  0  0  0
 21 23  1  0  0  0  0
 21 25  1  0  0  0  0
 22 19  1  0  0  0  0
 24 20  1  0  0  0  0
 25 26  1  0  0  0  0
 26 27  1  0  0  0  0
M  END
>  <MODEL>
5

>  <REMARK>
 VINA RESULT:      -9.2      1.778      4.460
  Name = 
  4 active torsions:
  status: ('A' for Active; 'I' for Inactive)
    1  A    between atoms: N_2  and  C_13
    2  A    between atoms: C_3  and  N_9
    3  A    between atoms: C_16  and  C_21
    4  A    between atoms: C_21  and  O_22
                            x       y       z     vdW  Elec       q    Type
                         _______ _______ _______ _____ _____    ______ ____

>  <TORSDO>
F 4

$$$$
=
 OpenBabel11042420443D

 27 30  0  0  0  0  0  0  0  0999 V2000
  161.1720  205.6410  146.7890 C   0  0  0  0  0  0  0  0  0  0  0  0
  161.2430  205.9260  145.4210 C   0  0  0  0  0  3  0  0  0  0  0  0
  161.0640  201.1050  147.6440 C   0  0  0  0  0  3  0  0  0  0  0  0
  161.1300  204.2960  147.2400 C   0  0  0  0  0  0  0  0  0  0  0  0
  160.9400  202.8520  150.7360 C   0  0  0  0  0  0  0  0  0  0  0  0
  161.2340  203.5800  144.9100 C   0  0  0  0  0  3  0  0  0  0  0  0
  160.9090  203.9810  151.7080 C   0  0  0  0  0  1  0  0  0  0  0  0
  161.0600  204.1270  148.6280 C   0  0  0  0  0  3  0  0  0  0  0  0
  161.0080  202.9600  149.3630 C   0  0  0  0  0  0  0  0  0  0  0  0
  161.0080  201.5880  148.9290 C   0  0  0  0  0  0  0  0  0  0  0  0
  161.1310  201.8620  146.4830 C   0  0  0  0  0  3  0  0  0  0  0  0
  161.2730  204.9020  144.4850 C   0  0  0  0  0  3  0  0  0  0  0  0
  161.1620  203.2440  146.2670 C   0  0  0  0  0  0  0  0  0  0  0  0
  160.9030  201.5550  151.1010 N   0  0  0  0  0  0  0  0  0  0  0  0
  160.9440  200.7940  150.0150 N   0  0  0  0  0  0  0  0  0  0  0  0
  161.9440  206.7760  148.7230 N   0  0  0  0  0  0  0  0  0  0  0  0
  161.1430  206.7210  147.7350 N   0  0  0  0  0  0  0  0  0  0  0  0
  161.7790  208.6920  151.9350 C   0  0  0  0  0  3  0  0  0  0  0  0
  161.8450  210.0050  151.4600 C   0  0  0  0  0  0  0  0  0  0  0  0
  161.9080  207.8550  149.6590 C   0  0  0  0  0  0  0  0  0  0  0  0
  161.9350  210.2450  150.0820 C   0  0  0  0  0  0  0  0  0  0  0  0
  161.8180  211.0340  152.3420 F   0  0  0  0  0  0  0  0  0  0  0  0
  161.9730  209.1700  149.1880 C   0  0  0  0  0  3  0  0  0  0  0  0
  161.8090  207.6200  151.0400 C   0  0  0  0  0  3  0  0  0  0  0  0
  162.0310  211.6370  149.5560 C   0  0  0  0  0  2  0  0  0  0  0  0
  162.1430  211.6100  148.1660 O   0  0  0  0  0  0  0  0  0  0  0  0
  163.0450  212.6300  147.8680 C   0  0  0  0  0  1  0  0  0  0  0  0
  1  4  1  0  0  0  0
  1 17  1  0  0  0  0
  2  1  2  0  0  0  0
  3 10  1  0  0  0  0
  4  8  1  0  0  0  0
  5 14  2  0  0  0  0
  5  7  1  0  0  0  0
  6 13  1  0  0  0  0
  8  9  2  0  0  0  0
  9  5  1  0  0  0  0
 10  9  1  0  0  0  0
 10 15  2  0  0  0  0
 11  3  2  0  0  0  0
 12  6  2  0  0  0  0
 12  2  1  0  0  0  0
 13 11  1  0  0  0  0
 13  4  2  0  0  0  0
 15 14  1  0  0  0  0
 16 20  1  0  0  0  0
 17 16  2  0  0  0  0
 19 18  1  0  0  0  0
 19 22  1  0  0  0  0
 20 24  1  0  0  0  0
 21 19  2  0  0  0  0
 23 20  2  0  0  0  0
 23 21  1  0  0  0  0
 24 18  2  0  0  0  0
 25 21  1  0  0  0  0
 26 25  1  0  0  0  0
 27 26  1  0  0  0  0
M  END
>  <MODEL>
6

>  <REMARK>
 VINA RESULT:      -9.0      3.333      7.981
  Name = 
  4 active torsions:
  status: ('A' for Active; 'I' for Inactive)
    1  A    between atoms: N_2  and  C_13
    2  A    between atoms: C_3  and  N_9
    3  A    between atoms: C_16  and  C_21
    4  A    between atoms: C_21  and  O_22
                            x       y       z     vdW  Elec       q    Type
                         _______ _______ _______ _____ _____    ______ ____

>  <TORSDO>
F 4

$$$$
=
 OpenBabel11042420443D

 27 30  0  0  0  0  0  0  0  0999 V2000
  161.9170  208.2690  149.5370 C   0  0  0  0  0  0  0  0  0  0  0  0
  162.1660  209.2260  148.5470 C   0  0  0  0  0  3  0  0  0  0  0  0
  161.0610  210.1720  153.6560 C   0  0  0  0  0  3  0  0  0  0  0  0
  161.6340  208.6710  150.8680 C   0  0  0  0  0  0  0  0  0  0  0  0
  160.8830  206.6370  153.9730 C   0  0  0  0  0  0  0  0  0  0  0  0
  161.8630  210.9900  150.1470 C   0  0  0  0  0  3  0  0  0  0  0  0
  160.9210  205.1930  153.6080 C   0  0  0  0  0  1  0  0  0  0  0  0
  161.4010  207.6320  151.7760 C   0  0  0  0  0  3  0  0  0  0  0  0
  161.1040  207.6990  153.1220 C   0  0  0  0  0  0  0  0  0  0  0  0
  160.9480  208.8420  153.9840 C   0  0  0  0  0  0  0  0  0  0  0  0
  161.3550  210.6880  152.4020 C   0  0  0  0  0  3  0  0  0  0  0  0
  162.1390  210.5800  148.8490 C   0  0  0  0  0  3  0  0  0  0  0  0
  161.6090  210.0720  151.1710 C   0  0  0  0  0  0  0  0  0  0  0  0
  160.6200  207.0820  155.2180 N   0  0  0  0  0  0  0  0  0  0  0  0
  160.6590  208.4090  155.2250 N   0  0  0  0  0  0  0  0  0  0  0  0
  160.9660  206.0990  149.4250 N   0  0  0  0  0  0  0  0  0  0  0  0
  161.9500  206.8740  149.1960 N   0  0  0  0  0  0  0  0  0  0  0  0
  160.8310  202.3670  149.6840 C   0  0  0  0  0  3  0  0  0  0  0  0
  161.0950  202.0030  148.3600 C   0  0  0  0  0  0  0  0  0  0  0  0
  161.0080  204.7130  149.0810 C   0  0  0  0  0  0  0  0  0  0  0  0
  161.3220  202.9950  147.3950 C   0  0  0  0  0  0  0  0  0  0  0  0
  161.1290  200.6900  148.0240 F   0  0  0  0  0  0  0  0  0  0  0  0
  161.2710  204.3450  147.7580 C   0  0  0  0  0  3  0  0  0  0  0  0
  160.7880  203.7160  150.0450 C   0  0  0  0  0  3  0  0  0  0  0  0
  161.5810  202.6290  145.9730 C   0  0  0  0  0  2  0  0  0  0  0  0
  160.4210  202.8130  145.2200 O   0  0  0  0  0  0  0  0  0  0  0  0
  160.0140  201.5230  144.8860 C   0  0  0  0  0  1  0  0  0  0  0  0
  1  4  1  0  0  0  0
  2 12  1  0  0  0  0
  2  1  2  0  0  0  0
  3 10  1  0  0  0  0
  4 13  2  0  0  0  0
  4  8  1  0  0  0  0
  5 14  2  0  0  0  0
  6 13  1  0  0  0  0
  7  5  1  0  0  0  0
  8  9  2  0  0  0  0
  9  5  1  0  0  0  0
  9 10  1  0  0  0  0
 10 15  2  0  0  0  0
 11  3  2  0  0  0  0
 12  6  2  0  0  0  0
 13 11  1  0  0  0  0
 14 15  1  0  0  0  0
 17 16  2  0  0  0  0
 17  1  1  0  0  0  0
 18 24  1  0  0  0  0
 19 18  2  0  0  0  0
 20 16  1  0  0  0  0
 20 24  2  0  0  0  0
 21 23  2  0  0  0  0
 21 19  1  0  0  0  0
 22 19  1  0  0  0  0
 23 20  1  0  0  0  0
 25 21  1  0  0  0  0
 26 25  1  0  0  0  0
 27 26  1  0  0  0  0
M  END
>  <MODEL>
7

>  <REMARK>
 VINA RESULT:      -8.9      1.730      3.821
  Name = 
  4 active torsions:
  status: ('A' for Active; 'I' for Inactive)
    1  A    between atoms: N_2  and  C_13
    2  A    between atoms: C_3  and  N_9
    3  A    between atoms: C_16  and  C_21
    4  A    between atoms: C_21  and  O_22
                            x       y       z     vdW  Elec       q    Type
                         _______ _______ _______ _____ _____    ______ ____

>  <TORSDO>
F 4

$$$$
=
 OpenBabel11042420443D

 27 30  0  0  0  0  0  0  0  0999 V2000
  160.8900  204.3010  150.9600 C   0  0  0  0  0  0  0  0  0  0  0  0
  160.8400  203.4330  152.0570 C   0  0  0  0  0  3  0  0  0  0  0  0
  161.2080  202.0520  146.9400 C   0  0  0  0  0  3  0  0  0  0  0  0
  160.9890  203.7860  149.6420 C   0  0  0  0  0  0  0  0  0  0  0  0
  161.1640  205.5460  146.2930 C   0  0  0  0  0  0  0  0  0  0  0  0
  160.9820  201.5390  150.5890 C   0  0  0  0  0  3  0  0  0  0  0  0
  161.1130  207.0160  146.5320 C   0  0  0  0  0  1  0  0  0  0  0  0
  161.0320  204.7440  148.6220 C   0  0  0  0  0  3  0  0  0  0  0  0
  161.1250  204.5610  147.2570 C   0  0  0  0  0  0  0  0  0  0  0  0
  161.2060  203.3490  146.4850 C   0  0  0  0  0  0  0  0  0  0  0  0
  161.1320  201.6460  148.2650 C   0  0  0  0  0  3  0  0  0  0  0  0
  160.8850  202.0590  151.8740 C   0  0  0  0  0  3  0  0  0  0  0  0
  161.0360  202.3650  149.4620 C   0  0  0  0  0  0  0  0  0  0  0  0
  161.2580  204.9950  145.0650 N   0  0  0  0  0  0  0  0  0  0  0  0
  161.2830  203.6740  145.1810 N   0  0  0  0  0  0  0  0  0  0  0  0
  161.2450  206.2500  152.2650 N   0  0  0  0  0  0  0  0  0  0  0  0
  160.8410  205.7200  151.1800 N   0  0  0  0  0  0  0  0  0  0  0  0
  161.3800  209.9410  151.6550 C   0  0  0  0  0  3  0  0  0  0  0  0
  161.0710  210.4280  152.9280 C   0  0  0  0  0  0  0  0  0  0  0  0
  161.1920  207.6620  152.4740 C   0  0  0  0  0  0  0  0  0  0  0  0
  160.8280  209.5320  153.9790 C   0  0  0  0  0  0  0  0  0  0  0  0
  161.0110  211.7670  153.1330 F   0  0  0  0  0  0  0  0  0  0  0  0
  160.8830  208.1540  153.7460 C   0  0  0  0  0  3  0  0  0  0  0  0
  161.4420  208.5640  151.4270 C   0  0  0  0  0  3  0  0  0  0  0  0
  160.4730  210.0310  155.3390 C   0  0  0  0  0  2  0  0  0  0  0  0
  159.1780  209.6290  155.6650 O   0  0  0  0  0  0  0  0  0  0  0  0
  158.4630  210.8190  155.7850 C   0  0  0  0  0  1  0  0  0  0  0  0
  1 17  1  0  0  0  0
  1  2  1  0  0  0  0
  3 11  2  0  0  0  0
  4  1  2  0  0  0  0
  5  7  1  0  0  0  0
  5  9  1  0  0  0  0
  6 12  1  0  0  0  0
  8  4  1  0  0  0  0
  9  8  2  0  0  0  0
 10  3  1  0  0  0  0
 10  9  1  0  0  0  0
 11 13  1  0  0  0  0
 12  2  2  0  0  0  0
 13  4  1  0  0  0  0
 13  6  2  0  0  0  0
 14 15  1  0  0  0  0
 14  5  2  0  0  0  0
 15 10  2  0  0  0  0
 16 20  1  0  0  0  0
 17 16  2  0  0  0  0
 18 19  1  0  0  0  0
 19 22  1  0  0  0  0
 19 21  2  0  0  0  0
 20 23  2  0  0  0  0
 21 25  1  0  0  0  0
 23 21  1  0  0  0  0
 24 18  2  0  0  0  0
 24 20  1  0  0  0  0
 25 26  1  0  0  0  0
 26 27  1  0  0  0  0
M  END
>  <MODEL>
8

>  <REMARK>
 VINA RESULT:      -8.9      3.877      7.582
  Name = 
  4 active torsions:
  status: ('A' for Active; 'I' for Inactive)
    1  A    between atoms: N_2  and  C_13
    2  A    between atoms: C_3  and  N_9
    3  A    between atoms: C_16  and  C_21
    4  A    between atoms: C_21  and  O_22
                            x       y       z     vdW  Elec       q    Type
                         _______ _______ _______ _____ _____    ______ ____

>  <TORSDO>
F 4

$$$$
=
 OpenBabel11042420443D

 27 30  0  0  0  0  0  0  0  0999 V2000
  161.4000  206.8380  149.7510 C   0  0  0  0  0  0  0  0  0  0  0  0
  161.6290  207.9870  148.9860 C   0  0  0  0  0  3  0  0  0  0  0  0
  161.3770  202.9910  147.1980 C   0  0  0  0  0  3  0  0  0  0  0  0
  161.3590  205.5610  149.1330 C   0  0  0  0  0  0  0  0  0  0  0  0
  160.7920  202.1120  150.5910 C   0  0  0  0  0  0  0  0  0  0  0  0
  161.7830  206.6550  146.9950 C   0  0  0  0  0  3  0  0  0  0  0  0
  160.5920  202.2520  152.0610 C   0  0  0  0  0  1  0  0  0  0  0  0
  161.1220  204.4820  149.9930 C   0  0  0  0  0  3  0  0  0  0  0  0
  161.0280  203.1370  149.7000 C   0  0  0  0  0  0  0  0  0  0  0  0
  161.1400  202.4510  148.4390 C   0  0  0  0  0  0  0  0  0  0  0  0
  161.5570  204.3360  146.9070 C   0  0  0  0  0  3  0  0  0  0  0  0
  161.8200  207.8970  147.6140 C   0  0  0  0  0  3  0  0  0  0  0  0
  161.5570  205.4780  147.7160 C   0  0  0  0  0  0  0  0  0  0  0  0
  160.7650  200.9280  149.9460 N   0  0  0  0  0  0  0  0  0  0  0  0
  160.9740  201.1320  148.6520 N   0  0  0  0  0  0  0  0  0  0  0  0
  161.0960  208.0950  151.7390 N   0  0  0  0  0  0  0  0  0  0  0  0
  161.2060  206.9610  151.1690 N   0  0  0  0  0  0  0  0  0  0  0  0
  160.5710  207.2040  155.3380 C   0  0  0  0  0  3  0  0  0  0  0  0
  160.5330  208.4740  155.9190 C   0  0  0  0  0  0  0  0  0  0  0  0
  160.9030  208.2070  153.1510 C   0  0  0  0  0  0  0  0  0  0  0  0
  160.6730  209.6150  155.1150 C   0  0  0  0  0  0  0  0  0  0  0  0
  160.3580  208.5890  157.2580 F   0  0  0  0  0  0  0  0  0  0  0  0
  160.8640  209.4760  153.7370 C   0  0  0  0  0  3  0  0  0  0  0  0
  160.7550  207.0680  153.9590 C   0  0  0  0  0  3  0  0  0  0  0  0
  160.6590  210.9780  155.7190 C   0  0  0  0  0  2  0  0  0  0  0  0
  160.4840  211.9350  154.7190 O   0  0  0  0  0  0  0  0  0  0  0  0
  159.4370  212.7310  155.1770 C   0  0  0  0  0  1  0  0  0  0  0  0
  1 17  1  0  0  0  0
  2  1  2  0  0  0  0
  3 10  1  0  0  0  0
  4  1  1  0  0  0  0
  4  8  1  0  0  0  0
  5  7  1  0  0  0  0
  6 12  2  0  0  0  0
  6 13  1  0  0  0  0
  9  8  2  0  0  0  0
  9  5  1  0  0  0  0
 10 15  2  0  0  0  0
 10  9  1  0  0  0  0
 11  3  2  0  0  0  0
 11 13  1  0  0  0  0
 12  2  1  0  0  0  0
 13  4  2  0  0  0  0
 14  5  2  0  0  0  0
 15 14  1  0  0  0  0
 16 20  1  0  0  0  0
 17 16  2  0  0  0  0
 18 19  1  0  0  0  0
 19 22  1  0  0  0  0
 20 23  2  0  0  0  0
 20 24  1  0  0  0  0
 21 25  1  0  0  0  0
 21 19  2  0  0  0  0
 23 21  1  0  0  0  0
 24 18  2  0  0  0  0
 26 27  1  0  0  0  0
 26 25  1  0  0  0  0
M  END
>  <MODEL>
9

>  <REMARK>
 VINA RESULT:      -8.8      3.840      8.089
  Name = 
  4 active torsions:
  status: ('A' for Active; 'I' for Inactive)
    1  A    between atoms: N_2  and  C_13
    2  A    between atoms: C_3  and  N_9
    3  A    between atoms: C_16  and  C_21
    4  A    between atoms: C_21  and  O_22
                            x       y       z     vdW  Elec       q    Type
                         _______ _______ _______ _____ _____    ______ ____

>  <TORSDO>
F 4

$$$$
