=
 OpenBabel11042420143D

 25 28  0  0  1  0  0  0  0  0999 V2000
  161.8820  210.9770  155.2450 N   0  0  0  0  0  2  0  0  0  0  0  0
  160.6630  211.4560  154.7390 N   0  0  0  0  0  2  0  0  0  0  0  0
  160.7330  208.4930  153.7800 C   0  0  2  0  0  3  0  0  0  0  0  0
  160.0460  210.9020  153.5720 C   0  0  0  0  0  0  0  0  0  0  0  0
  158.6490  211.5450  153.0280 S   0  0  0  0  0  0  0  0  0  0  0  0
  160.6270  209.7220  152.8560 C   0  0  1  0  0  3  0  0  0  0  0  0
  161.8850  208.5810  154.7910 C   0  0  0  0  0  2  0  0  0  0  0  0
  161.6090  208.0600  150.7960 C   0  0  1  0  0  3  0  0  0  0  0  0
  161.9710  210.0680  152.2050 C   0  0  0  0  0  2  0  0  0  0  0  0
  161.9470  207.1580  151.9770 C   0  0  0  0  0  2  0  0  0  0  0  0
  160.7870  207.1900  152.9650 C   0  0  1  0  0  3  0  0  0  0  0  0
  161.6380  209.6660  155.8290 C   0  0  0  0  0  2  0  0  0  0  0  0
  162.2150  209.3920  150.9220 N   0  0  0  0  0  2  0  0  0  0  0  0
  160.8470  206.0280  153.8390 N   0  0  0  0  0  2  0  0  0  0  0  0
  161.2000  204.9710  153.0700 O   0  0  0  0  0  1  0  0  0  0  0  0
  162.0800  207.4010  149.5100 C   0  0  0  0  0  2  0  0  0  0  0  0
  160.9050  206.8750  148.6950 C   0  0  0  0  0  2  0  0  0  0  0  0
  161.5910  205.0410  146.9270 C   0  0  0  0  0  2  0  0  0  0  0  0
  161.6350  203.5940  147.0710 N   0  0  0  0  0  0  0  0  0  0  0  0
  161.2310  203.3130  148.2650 C   0  0  0  0  0  0  0  0  0  0  0  0
  161.1200  205.4590  148.2760 C   0  0  0  0  0  0  0  0  0  0  0  0
  160.9080  204.4520  149.0510 N   0  0  0  0  0  0  0  0  0  0  0  0
  160.7970  201.9310  150.2590 C   0  0  0  0  0  2  0  0  0  0  0  0
  161.1880  201.9180  148.7930 C   0  0  0  0  0  3  0  0  0  0  0  0
  159.7710  201.5700  149.2100 C   0  0  0  0  0  2  0  0  0  0  0  0
  1 12  1  0  0  0  0
  2  1  1  0  0  0  0
  3  7  1  6  0  0  0
  4  2  1  0  0  0  0
  5  4  2  0  0  0  0
  6  9  1  1  0  0  0
  6  4  1  0  0  0  0
  6  3  1  0  0  0  0
  7 12  1  0  0  0  0
  8 16  1  6  0  0  0
  8 13  1  0  0  0  0
  8 10  1  0  0  0  0
 10 11  1  0  0  0  0
 11  3  1  0  0  0  0
 11 14  1  1  0  0  0
 13  9  1  0  0  0  0
 15 14  1  0  0  0  0
 17 16  1  0  0  0  0
 18 19  1  0  0  0  0
 18 21  1  0  0  0  0
 19 20  2  0  0  0  0
 20 24  1  0  0  0  0
 20 22  1  0  0  0  0
 21 17  1  0  0  0  0
 21 22  2  0  0  0  0
 24 25  1  0  0  0  0
 24 23  1  0  0  0  0
 25 23  1  0  0  0  0
M  END
>  <MODEL>
1

>  <REMARK>
 VINA RESULT:      -8.0      0.000      0.000
  Name = 
  5 active torsions:
  status: ('A' for Active; 'I' for Inactive)
    1  A    between atoms: C_1  and  C_18
    2  A    between atoms: C_1  and  C_23
    3  A    between atoms: C_10  and  C_16
    4  A    between atoms: N_11  and  C_19
    5  A    between atoms: C_14  and  C_18
                            x       y       z     vdW  Elec       q    Type
                         _______ _______ _______ _____ _____    ______ ____

>  <TORSDO>
F 5

$$$$
=
 OpenBabel11042420143D

 25 28  0  0  1  0  0  0  0  0999 V2000
  159.1700  211.2060  154.5710 N   0  0  0  0  0  2  0  0  0  0  0  0
  160.2910  211.2140  155.4170 N   0  0  0  0  0  2  0  0  0  0  0  0
  161.4470  210.2580  152.6870 C   0  0  2  0  0  3  0  0  0  0  0  0
  161.4230  210.3640  155.1980 C   0  0  0  0  0  0  0  0  0  0  0  0
  162.6670  210.4070  156.2520 S   0  0  0  0  0  0  0  0  0  0  0  0
  161.5160  209.4640  154.0050 C   0  0  1  0  0  3  0  0  0  0  0  0
  160.0360  210.7520  152.3380 C   0  0  0  0  0  2  0  0  0  0  0  0
  161.8830  207.1610  152.4140 C   0  0  1  0  0  3  0  0  0  0  0  0
  160.4610  208.3520  154.0600 C   0  0  0  0  0  2  0  0  0  0  0  0
  161.4200  208.1090  151.3140 C   0  0  0  0  0  2  0  0  0  0  0  0
  162.0780  209.4670  151.5290 C   0  0  1  0  0  3  0  0  0  0  0  0
  159.5590  211.8200  153.3100 C   0  0  0  0  0  2  0  0  0  0  0  0
  160.9100  207.0640  153.5100 N   0  0  0  0  0  2  0  0  0  0  0  0
  162.0490  210.2340  150.2930 N   0  0  0  0  0  2  0  0  0  0  0  0
  162.0560  209.3440  149.2720 O   0  0  0  0  0  1  0  0  0  0  0  0
  162.1260  205.7840  151.8190 C   0  0  0  0  0  2  0  0  0  0  0  0
  160.8290  205.1600  151.3190 C   0  0  0  0  0  2  0  0  0  0  0  0
  160.8820  203.0430  149.7450 C   0  0  0  0  0  2  0  0  0  0  0  0
  161.1450  202.9640  148.3170 N   0  0  0  0  0  0  0  0  0  0  0  0
  161.3980  204.1620  147.9040 C   0  0  0  0  0  0  0  0  0  0  0  0
  161.0140  204.5060  149.9900 C   0  0  0  0  0  0  0  0  0  0  0  0
  161.3180  205.1540  148.9190 N   0  0  0  0  0  0  0  0  0  0  0  0
  162.1420  205.9160  146.3410 C   0  0  0  0  0  2  0  0  0  0  0  0
  161.6680  204.4810  146.4710 C   0  0  0  0  0  3  0  0  0  0  0  0
  163.1430  204.7860  146.2820 C   0  0  0  0  0  2  0  0  0  0  0  0
  1  2  1  0  0  0  0
  3  7  1  6  0  0  0
  3  6  1  0  0  0  0
  4  2  1  0  0  0  0
  4  5  2  0  0  0  0
  6  9  1  6  0  0  0
  6  4  1  0  0  0  0
  7 12  1  0  0  0  0
  8 16  1  6  0  0  0
  8 13  1  0  0  0  0
 10 11  1  0  0  0  0
 10  8  1  0  0  0  0
 11 14  1  6  0  0  0
 11  3  1  0  0  0  0
 12  1  1  0  0  0  0
 13  9  1  0  0  0  0
 15 14  1  0  0  0  0
 17 16  1  0  0  0  0
 18 21  1  0  0  0  0
 19 18  1  0  0  0  0
 20 19  2  0  0  0  0
 20 22  1  0  0  0  0
 21 17  1  0  0  0  0
 22 21  2  0  0  0  0
 23 24  1  0  0  0  0
 24 20  1  0  0  0  0
 25 23  1  0  0  0  0
 25 24  1  0  0  0  0
M  END
>  <MODEL>
2

>  <REMARK>
 VINA RESULT:      -7.9      2.002      3.426
  Name = 
  5 active torsions:
  status: ('A' for Active; 'I' for Inactive)
    1  A    between atoms: C_1  and  C_18
    2  A    between atoms: C_1  and  C_23
    3  A    between atoms: C_10  and  C_16
    4  A    between atoms: N_11  and  C_19
    5  A    between atoms: C_14  and  C_18
                            x       y       z     vdW  Elec       q    Type
                         _______ _______ _______ _____ _____    ______ ____

>  <TORSDO>
F 5

$$$$
=
 OpenBabel11042420143D

 25 28  0  0  1  0  0  0  0  0999 V2000
  161.8660  211.0000  155.3570 N   0  0  0  0  0  2  0  0  0  0  0  0
  160.6490  211.4870  154.8550 N   0  0  0  0  0  2  0  0  0  0  0  0
  160.6940  208.5240  153.8980 C   0  0  2  0  0  3  0  0  0  0  0  0
  160.0240  210.9380  153.6900 C   0  0  0  0  0  0  0  0  0  0  0  0
  158.6300  211.5900  153.1500 S   0  0  0  0  0  0  0  0  0  0  0  0
  160.5930  209.7520  152.9730 C   0  0  1  0  0  3  0  0  0  0  0  0
  161.8500  208.6040  154.9050 C   0  0  0  0  0  2  0  0  0  0  0  0
  161.5560  208.0820  150.9110 C   0  0  1  0  0  3  0  0  0  0  0  0
  161.9380  210.0880  152.3180 C   0  0  0  0  0  2  0  0  0  0  0  0
  161.8910  207.1790  152.0920 C   0  0  0  0  0  2  0  0  0  0  0  0
  160.7350  207.2200  153.0840 C   0  0  1  0  0  3  0  0  0  0  0  0
  161.6140  209.6910  155.9430 C   0  0  0  0  0  2  0  0  0  0  0  0
  162.1730  209.4090  151.0340 N   0  0  0  0  0  2  0  0  0  0  0  0
  160.7890  206.0580  153.9580 N   0  0  0  0  0  2  0  0  0  0  0  0
  161.1590  205.0030  153.1950 O   0  0  0  0  0  1  0  0  0  0  0  0
  162.0180  207.4180  149.6240 C   0  0  0  0  0  2  0  0  0  0  0  0
  161.4720  206.0010  149.5060 C   0  0  0  0  0  2  0  0  0  0  0  0
  161.1110  206.4840  146.9380 C   0  0  0  0  0  2  0  0  0  0  0  0
  161.1380  205.5610  145.8140 N   0  0  0  0  0  0  0  0  0  0  0  0
  161.3500  204.3800  146.2910 C   0  0  0  0  0  0  0  0  0  0  0  0
  161.3780  205.5690  148.0800 C   0  0  0  0  0  0  0  0  0  0  0  0
  161.5130  204.3440  147.7020 N   0  0  0  0  0  0  0  0  0  0  0  0
  160.8660  201.9700  146.1030 C   0  0  0  0  0  2  0  0  0  0  0  0
  161.4910  203.1740  145.4230 C   0  0  0  0  0  3  0  0  0  0  0  0
  160.1190  202.6820  144.9990 C   0  0  0  0  0  2  0  0  0  0  0  0
  1 12  1  0  0  0  0
  2  1  1  0  0  0  0
  3  7  1  6  0  0  0
  4  2  1  0  0  0  0
  5  4  2  0  0  0  0
  6  9  1  1  0  0  0
  6  4  1  0  0  0  0
  6  3  1  0  0  0  0
  7 12  1  0  0  0  0
  8 16  1  6  0  0  0
  8 13  1  0  0  0  0
  8 10  1  0  0  0  0
 10 11  1  0  0  0  0
 11  3  1  0  0  0  0
 11 14  1  1  0  0  0
 13  9  1  0  0  0  0
 15 14  1  0  0  0  0
 17 16  1  0  0  0  0
 18 21  1  0  0  0  0
 19 20  2  0  0  0  0
 19 18  1  0  0  0  0
 20 22  1  0  0  0  0
 21 17  1  0  0  0  0
 22 21  2  0  0  0  0
 24 23  1  0  0  0  0
 24 20  1  0  0  0  0
 25 24  1  0  0  0  0
 25 23  1  0  0  0  0
M  END
>  <MODEL>
3

>  <REMARK>
 VINA RESULT:      -7.0      1.369      1.634
  Name = 
  5 active torsions:
  status: ('A' for Active; 'I' for Inactive)
    1  A    between atoms: C_1  and  C_18
    2  A    between atoms: C_1  and  C_23
    3  A    between atoms: C_10  and  C_16
    4  A    between atoms: N_11  and  C_19
    5  A    between atoms: C_14  and  C_18
                            x       y       z     vdW  Elec       q    Type
                         _______ _______ _______ _____ _____    ______ ____

>  <TORSDO>
F 5

$$$$
=
 OpenBabel11042420143D

 25 28  0  0  1  0  0  0  0  0999 V2000
  161.6570  211.5990  155.8980 N   0  0  0  0  0  2  0  0  0  0  0  0
  160.4790  212.0440  155.2790 N   0  0  0  0  0  2  0  0  0  0  0  0
  160.3780  208.9550  154.8930 C   0  0  2  0  0  3  0  0  0  0  0  0
  159.8470  211.3180  154.2190 C   0  0  0  0  0  0  0  0  0  0  0  0
  158.5010  211.9270  153.5270 S   0  0  0  0  0  0  0  0  0  0  0  0
  160.3630  209.9920  153.7530 C   0  0  1  0  0  3  0  0  0  0  0  0
  161.5180  209.1650  155.9010 C   0  0  0  0  0  2  0  0  0  0  0  0
  161.2720  207.9170  152.0680 C   0  0  1  0  0  3  0  0  0  0  0  0
  161.7370  210.1300  153.0850 C   0  0  0  0  0  2  0  0  0  0  0  0
  161.5340  207.2360  153.4050 C   0  0  0  0  0  2  0  0  0  0  0  0
  160.3630  207.5210  154.3380 C   0  0  1  0  0  3  0  0  0  0  0  0
  161.3230  210.4380  156.7100 C   0  0  0  0  0  2  0  0  0  0  0  0
  161.9580  209.2110  151.9580 N   0  0  0  0  0  2  0  0  0  0  0  0
  160.3370  206.5430  155.4150 N   0  0  0  0  0  2  0  0  0  0  0  0
  159.3160  206.8840  156.2370 O   0  0  0  0  0  1  0  0  0  0  0  0
  161.7210  207.0010  150.9410 C   0  0  0  0  0  2  0  0  0  0  0  0
  160.5340  206.5060  150.1240 C   0  0  0  0  0  2  0  0  0  0  0  0
  160.9740  203.9460  149.6660 C   0  0  0  0  0  2  0  0  0  0  0  0
  161.3800  203.2870  148.4340 N   0  0  0  0  0  0  0  0  0  0  0  0
  161.5350  204.2050  147.5390 C   0  0  0  0  0  0  0  0  0  0  0  0
  160.9180  205.3700  149.2360 C   0  0  0  0  0  0  0  0  0  0  0  0
  161.2480  205.5190  147.9990 N   0  0  0  0  0  0  0  0  0  0  0  0
  161.6450  205.1090  145.2490 C   0  0  0  0  0  2  0  0  0  0  0  0
  161.9050  203.8980  146.1260 C   0  0  0  0  0  3  0  0  0  0  0  0
  163.0540  204.7890  145.6910 C   0  0  0  0  0  2  0  0  0  0  0  0
  1 12  1  0  0  0  0
  2  1  1  0  0  0  0
  3  7  1  6  0  0  0
  4  2  1  0  0  0  0
  5  4  2  0  0  0  0
  6  9  1  1  0  0  0
  6  4  1  0  0  0  0
  6  3  1  0  0  0  0
  7 12  1  0  0  0  0
  8 16  1  6  0  0  0
  8 10  1  0  0  0  0
 10 11  1  0  0  0  0
 11  3  1  0  0  0  0
 11 14  1  1  0  0  0
 13  8  1  0  0  0  0
 13  9  1  0  0  0  0
 14 15  1  0  0  0  0
 17 16  1  0  0  0  0
 19 18  1  0  0  0  0
 20 22  1  0  0  0  0
 20 19  2  0  0  0  0
 21 18  1  0  0  0  0
 21 17  1  0  0  0  0
 22 21  2  0  0  0  0
 23 25  1  0  0  0  0
 23 24  1  0  0  0  0
 24 20  1  0  0  0  0
 25 24  1  0  0  0  0
M  END
>  <MODEL>
4

>  <REMARK>
 VINA RESULT:      -6.6      1.560      2.351
  Name = 
  5 active torsions:
  status: ('A' for Active; 'I' for Inactive)
    1  A    between atoms: C_1  and  C_18
    2  A    between atoms: C_1  and  C_23
    3  A    between atoms: C_10  and  C_16
    4  A    between atoms: N_11  and  C_19
    5  A    between atoms: C_14  and  C_18
                            x       y       z     vdW  Elec       q    Type
                         _______ _______ _______ _____ _____    ______ ____

>  <TORSDO>
F 5

$$$$
=
 OpenBabel11042420143D

 25 28  0  0  1  0  0  0  0  0999 V2000
  159.4290  211.7590  154.6330 N   0  0  0  0  0  2  0  0  0  0  0  0
  160.6110  211.6350  155.3800 N   0  0  0  0  0  2  0  0  0  0  0  0
  161.4820  210.8260  152.5010 C   0  0  2  0  0  3  0  0  0  0  0  0
  161.6640  210.7390  155.0060 C   0  0  0  0  0  0  0  0  0  0  0  0
  162.9880  210.6270  155.9530 S   0  0  0  0  0  0  0  0  0  0  0  0
  161.6030  209.9300  153.7480 C   0  0  1  0  0  3  0  0  0  0  0  0
  160.0830  211.4280  152.3070 C   0  0  0  0  0  2  0  0  0  0  0  0
  161.6920  207.7390  151.9690 C   0  0  1  0  0  3  0  0  0  0  0  0
  160.4860  208.8810  153.8100 C   0  0  0  0  0  2  0  0  0  0  0  0
  161.2070  208.7950  150.9830 C   0  0  0  0  0  2  0  0  0  0  0  0
  161.9670  210.0910  151.2400 C   0  0  1  0  0  3  0  0  0  0  0  0
  159.7560  212.4440  153.3910 C   0  0  0  0  0  2  0  0  0  0  0  0
  160.8040  207.6150  153.1330 N   0  0  0  0  0  2  0  0  0  0  0  0
  161.8900  210.9520  150.0690 N   0  0  0  0  0  2  0  0  0  0  0  0
  162.1740  210.1830  148.9910 O   0  0  0  0  0  1  0  0  0  0  0  0
  161.7970  206.4000  151.2580 C   0  0  0  0  0  2  0  0  0  0  0  0
  161.5490  206.5460  149.7620 C   0  0  0  0  0  2  0  0  0  0  0  0
  161.3830  205.0190  147.6170 C   0  0  0  0  0  2  0  0  0  0  0  0
  161.3160  203.5690  147.5220 N   0  0  0  0  0  0  0  0  0  0  0  0
  161.3190  203.1040  148.7270 C   0  0  0  0  0  0  0  0  0  0  0  0
  161.4530  205.2170  149.0910 C   0  0  0  0  0  0  0  0  0  0  0  0
  161.4110  204.1010  149.7350 N   0  0  0  0  0  0  0  0  0  0  0  0
  160.3180  201.3470  150.1370 C   0  0  0  0  0  2  0  0  0  0  0  0
  161.3080  201.6410  149.0250 C   0  0  0  0  0  3  0  0  0  0  0  0
  159.9440  201.0610  148.7010 C   0  0  0  0  0  2  0  0  0  0  0  0
  1  2  1  0  0  0  0
  3  7  1  6  0  0  0
  3  6  1  0  0  0  0
  4  2  1  0  0  0  0
  4  5  2  0  0  0  0
  6  9  1  1  0  0  0
  6  4  1  0  0  0  0
  7 12  1  0  0  0  0
  8 16  1  6  0  0  0
  8 13  1  0  0  0  0
 10 11  1  0  0  0  0
 10  8  1  0  0  0  0
 11 14  1  6  0  0  0
 11  3  1  0  0  0  0
 12  1  1  0  0  0  0
 13  9  1  0  0  0  0
 15 14  1  0  0  0  0
 17 16  1  0  0  0  0
 18 21  1  0  0  0  0
 19 18  1  0  0  0  0
 19 20  2  0  0  0  0
 20 24  1  0  0  0  0
 20 22  1  0  0  0  0
 21 22  2  0  0  0  0
 21 17  1  0  0  0  0
 24 23  1  0  0  0  0
 25 24  1  0  0  0  0
 25 23  1  0  0  0  0
M  END
>  <MODEL>
5

>  <REMARK>
 VINA RESULT:      -6.4      2.011      2.922
  Name = 
  5 active torsions:
  status: ('A' for Active; 'I' for Inactive)
    1  A    between atoms: C_1  and  C_18
    2  A    between atoms: C_1  and  C_23
    3  A    between atoms: C_10  and  C_16
    4  A    between atoms: N_11  and  C_19
    5  A    between atoms: C_14  and  C_18
                            x       y       z     vdW  Elec       q    Type
                         _______ _______ _______ _____ _____    ______ ____

>  <TORSDO>
F 5

$$$$
=
 OpenBabel11042420143D

 25 28  0  0  1  0  0  0  0  0999 V2000
  160.2950  202.5360  146.2200 N   0  0  0  0  0  2  0  0  0  0  0  0
  161.5680  202.9750  145.8240 N   0  0  0  0  0  2  0  0  0  0  0  0
  161.5820  203.3980  148.9090 C   0  0  2  0  0  3  0  0  0  0  0  0
  162.3100  203.9480  146.5670 C   0  0  0  0  0  0  0  0  0  0  0  0
  163.7670  204.4320  146.0150 S   0  0  0  0  0  0  0  0  0  0  0  0
  161.8060  204.5060  147.8620 C   0  0  1  0  0  3  0  0  0  0  0  0
  160.3220  202.5570  148.6580 C   0  0  0  0  0  2  0  0  0  0  0  0
  161.0520  206.3390  149.8720 C   0  0  1  0  0  3  0  0  0  0  0  0
  160.5480  205.3580  147.6510 C   0  0  0  0  0  2  0  0  0  0  0  0
  160.5720  205.0650  150.5550 C   0  0  0  0  0  2  0  0  0  0  0  0
  161.6110  203.9700  150.3360 C   0  0  1  0  0  3  0  0  0  0  0  0
  160.4580  201.7060  147.4040 C   0  0  0  0  0  2  0  0  0  0  0  0
  160.4470  206.5210  148.5460 N   0  0  0  0  0  2  0  0  0  0  0  0
  161.4400  202.9180  151.3260 N   0  0  0  0  0  2  0  0  0  0  0  0
  160.8190  203.4740  152.3940 O   0  0  0  0  0  1  0  0  0  0  0  0
  160.7260  207.5340  150.7530 C   0  0  0  0  0  2  0  0  0  0  0  0
  161.9110  207.9140  151.6320 C   0  0  0  0  0  2  0  0  0  0  0  0
  161.6480  210.0140  153.2060 C   0  0  0  0  0  2  0  0  0  0  0  0
  161.0370  210.1070  154.5230 N   0  0  0  0  0  0  0  0  0  0  0  0
  160.6400  208.9220  154.8480 C   0  0  0  0  0  0  0  0  0  0  0  0
  161.4660  208.5690  152.8970 C   0  0  0  0  0  0  0  0  0  0  0  0
  160.8830  207.9350  153.8550 N   0  0  0  0  0  0  0  0  0  0  0  0
  159.8910  207.1410  156.3780 C   0  0  0  0  0  2  0  0  0  0  0  0
  159.9160  208.6360  156.1220 C   0  0  0  0  0  3  0  0  0  0  0  0
  160.8700  208.0160  157.1260 C   0  0  0  0  0  2  0  0  0  0  0  0
  1 12  1  0  0  0  0
  2  1  1  0  0  0  0
  2  4  1  0  0  0  0
  3  7  1  6  0  0  0
  3 11  1  0  0  0  0
  4  6  1  0  0  0  0
  5  4  2  0  0  0  0
  6  9  1  6  0  0  0
  6  3  1  0  0  0  0
  8 10  1  0  0  0  0
  8 16  1  1  0  0  0
  9 13  1  0  0  0  0
 11 10  1  0  0  0  0
 11 14  1  1  0  0  0
 12  7  1  0  0  0  0
 13  8  1  0  0  0  0
 14 15  1  0  0  0  0
 16 17  1  0  0  0  0
 17 21  1  0  0  0  0
 18 19  1  0  0  0  0
 19 20  2  0  0  0  0
 20 24  1  0  0  0  0
 21 18  1  0  0  0  0
 21 22  2  0  0  0  0
 22 20  1  0  0  0  0
 23 25  1  0  0  0  0
 24 23  1  0  0  0  0
 24 25  1  0  0  0  0
M  END
>  <MODEL>
6

>  <REMARK>
 VINA RESULT:      -6.1      2.800      7.881
  Name = 
  5 active torsions:
  status: ('A' for Active; 'I' for Inactive)
    1  A    between atoms: C_1  and  C_18
    2  A    between atoms: C_1  and  C_23
    3  A    between atoms: C_10  and  C_16
    4  A    between atoms: N_11  and  C_19
    5  A    between atoms: C_14  and  C_18
                            x       y       z     vdW  Elec       q    Type
                         _______ _______ _______ _____ _____    ______ ____

>  <TORSDO>
F 5

$$$$
=
 OpenBabel11042420143D

 25 28  0  0  1  0  0  0  0  0999 V2000
  160.2870  203.3370  144.9690 N   0  0  0  0  0  2  0  0  0  0  0  0
  161.6170  203.7800  144.8860 N   0  0  0  0  0  2  0  0  0  0  0  0
  161.4590  202.4860  147.7140 C   0  0  2  0  0  3  0  0  0  0  0  0
  162.3860  204.1190  146.0440 C   0  0  0  0  0  0  0  0  0  0  0  0
  163.9130  204.6650  145.8560 S   0  0  0  0  0  0  0  0  0  0  0  0
  161.8450  203.9500  147.4300 C   0  0  1  0  0  3  0  0  0  0  0  0
  160.1530  202.0500  147.0350 C   0  0  0  0  0  2  0  0  0  0  0  0
  161.1150  204.4960  150.1020 C   0  0  1  0  0  3  0  0  0  0  0  0
  160.6800  204.9120  147.6960 C   0  0  0  0  0  2  0  0  0  0  0  0
  160.4850  203.1130  149.9870 C   0  0  0  0  0  2  0  0  0  0  0  0
  161.4400  202.2010  149.2250 C   0  0  1  0  0  3  0  0  0  0  0  0
  160.3000  201.9910  145.5230 C   0  0  0  0  0  2  0  0  0  0  0  0
  160.6180  205.4210  149.0750 N   0  0  0  0  0  2  0  0  0  0  0  0
  161.1150  200.8080  149.4920 N   0  0  0  0  0  2  0  0  0  0  0  0
  160.0160  200.8010  150.2830 O   0  0  0  0  0  1  0  0  0  0  0  0
  160.8320  205.0620  151.4830 C   0  0  0  0  0  2  0  0  0  0  0  0
  162.0050  205.8900  151.9930 C   0  0  0  0  0  2  0  0  0  0  0  0
  162.2450  208.2410  150.8200 C   0  0  0  0  0  2  0  0  0  0  0  0
  161.6700  209.5220  151.1990 N   0  0  0  0  0  0  0  0  0  0  0  0
  161.0010  209.3370  152.2890 C   0  0  0  0  0  0  0  0  0  0  0  0
  161.7260  207.3530  151.8960 C   0  0  0  0  0  0  0  0  0  0  0  0
  161.0050  207.9930  152.7510 N   0  0  0  0  0  0  0  0  0  0  0  0
  159.9820  210.0740  154.4090 C   0  0  0  0  0  2  0  0  0  0  0  0
  160.2270  210.4260  152.9530 C   0  0  0  0  0  3  0  0  0  0  0  0
  161.0670  211.0610  154.0460 C   0  0  0  0  0  2  0  0  0  0  0  0
  1 12  1  0  0  0  0
  2  1  1  0  0  0  0
  2  4  1  0  0  0  0
  3  7  1  1  0  0  0
  3 11  1  0  0  0  0
  4  6  1  0  0  0  0
  5  4  2  0  0  0  0
  6  9  1  6  0  0  0
  6  3  1  0  0  0  0
  8 16  1  1  0  0  0
  9 13  1  0  0  0  0
 10  8  1  0  0  0  0
 11 14  1  6  0  0  0
 11 10  1  0  0  0  0
 12  7  1  0  0  0  0
 13  8  1  0  0  0  0
 14 15  1  0  0  0  0
 16 17  1  0  0  0  0
 18 19  1  0  0  0  0
 18 21  1  0  0  0  0
 19 20  2  0  0  0  0
 20 22  1  0  0  0  0
 20 24  1  0  0  0  0
 21 17  1  0  0  0  0
 21 22  2  0  0  0  0
 24 25  1  0  0  0  0
 24 23  1  0  0  0  0
 25 23  1  0  0  0  0
M  END
>  <MODEL>
7

>  <REMARK>
 VINA RESULT:      -6.1      3.041      8.184
  Name = 
  5 active torsions:
  status: ('A' for Active; 'I' for Inactive)
    1  A    between atoms: C_1  and  C_18
    2  A    between atoms: C_1  and  C_23
    3  A    between atoms: C_10  and  C_16
    4  A    between atoms: N_11  and  C_19
    5  A    between atoms: C_14  and  C_18
                            x       y       z     vdW  Elec       q    Type
                         _______ _______ _______ _____ _____    ______ ____

>  <TORSDO>
F 5

$$$$
=
 OpenBabel11042420143D

 25 28  0  0  1  0  0  0  0  0999 V2000
  160.2870  202.6490  145.9850 N   0  0  0  0  0  2  0  0  0  0  0  0
  161.5810  203.0780  145.6500 N   0  0  0  0  0  2  0  0  0  0  0  0
  161.5640  203.1880  148.7620 C   0  0  2  0  0  3  0  0  0  0  0  0
  162.3470  203.9420  146.4960 C   0  0  0  0  0  0  0  0  0  0  0  0
  163.8280  204.4250  146.0120 S   0  0  0  0  0  0  0  0  0  0  0  0
  161.8430  204.3860  147.8350 C   0  0  1  0  0  3  0  0  0  0  0  0
  160.2790  202.4240  148.4130 C   0  0  0  0  0  2  0  0  0  0  0  0
  161.1260  206.0350  150.0110 C   0  0  1  0  0  3  0  0  0  0  0  0
  160.6200  205.3010  147.6970 C   0  0  0  0  0  2  0  0  0  0  0  0
  160.5900  204.7170  150.5570 C   0  0  0  0  0  2  0  0  0  0  0  0
  161.5920  203.6130  150.2400 C   0  0  1  0  0  3  0  0  0  0  0  0
  160.4020  201.6990  147.0820 C   0  0  0  0  0  2  0  0  0  0  0  0
  160.5480  206.3720  148.7030 N   0  0  0  0  0  2  0  0  0  0  0  0
  161.3690  202.4740  151.1170 N   0  0  0  0  0  2  0  0  0  0  0  0
  160.7950  202.9490  152.2480 O   0  0  0  0  0  1  0  0  0  0  0  0
  160.8300  207.1470  151.0040 C   0  0  0  0  0  2  0  0  0  0  0  0
  161.2050  206.7360  152.4230 C   0  0  0  0  0  2  0  0  0  0  0  0
  161.0230  207.7140  154.8660 C   0  0  0  0  0  2  0  0  0  0  0  0
  160.8220  209.0890  155.2950 N   0  0  0  0  0  0  0  0  0  0  0  0
  160.7050  209.8110  154.2310 C   0  0  0  0  0  0  0  0  0  0  0  0
  161.0210  207.8620  153.3850 C   0  0  0  0  0  0  0  0  0  0  0  0
  160.8330  209.0830  153.0180 N   0  0  0  0  0  0  0  0  0  0  0  0
  160.0440  211.8010  152.9350 C   0  0  0  0  0  2  0  0  0  0  0  0
  160.5340  211.2930  154.2780 C   0  0  0  0  0  3  0  0  0  0  0  0
  159.0720  211.6490  154.0820 C   0  0  0  0  0  2  0  0  0  0  0  0
  1 12  1  0  0  0  0
  2  1  1  0  0  0  0
  2  4  1  0  0  0  0
  3  7  1  6  0  0  0
  3 11  1  0  0  0  0
  4  6  1  0  0  0  0
  5  4  2  0  0  0  0
  6  9  1  6  0  0  0
  6  3  1  0  0  0  0
  8 10  1  0  0  0  0
  8 16  1  1  0  0  0
  9 13  1  0  0  0  0
 11 10  1  0  0  0  0
 11 14  1  1  0  0  0
 12  7  1  0  0  0  0
 13  8  1  0  0  0  0
 14 15  1  0  0  0  0
 16 17  1  0  0  0  0
 17 21  1  0  0  0  0
 18 19  1  0  0  0  0
 20 24  1  0  0  0  0
 20 19  2  0  0  0  0
 21 18  1  0  0  0  0
 22 21  2  0  0  0  0
 22 20  1  0  0  0  0
 23 25  1  0  0  0  0
 23 24  1  0  0  0  0
 25 24  1  0  0  0  0
M  END
>  <MODEL>
8

>  <REMARK>
 VINA RESULT:      -5.9      2.802      8.197
  Name = 
  5 active torsions:
  status: ('A' for Active; 'I' for Inactive)
    1  A    between atoms: C_1  and  C_18
    2  A    between atoms: C_1  and  C_23
    3  A    between atoms: C_10  and  C_16
    4  A    between atoms: N_11  and  C_19
    5  A    between atoms: C_14  and  C_18
                            x       y       z     vdW  Elec       q    Type
                         _______ _______ _______ _____ _____    ______ ____

>  <TORSDO>
F 5

$$$$
=
 OpenBabel11042420143D

 25 28  0  0  1  0  0  0  0  0999 V2000
  161.8970  201.7890  147.6240 N   0  0  0  0  0  2  0  0  0  0  0  0
  160.6420  201.2790  147.9950 N   0  0  0  0  0  2  0  0  0  0  0  0
  160.5150  204.2550  148.9040 C   0  0  2  0  0  3  0  0  0  0  0  0
  159.8800  201.8300  149.0740 C   0  0  0  0  0  0  0  0  0  0  0  0
  158.4480  201.1520  149.4650 S   0  0  0  0  0  0  0  0  0  0  0  0
  160.3390  203.0370  149.8310 C   0  0  1  0  0  3  0  0  0  0  0  0
  161.7780  204.1890  148.0330 C   0  0  0  0  0  2  0  0  0  0  0  0
  161.0290  204.7570  151.9610 C   0  0  1  0  0  3  0  0  0  0  0  0
  161.6090  202.7420  150.6380 C   0  0  0  0  0  2  0  0  0  0  0  0
  161.4740  205.6520  150.8110 C   0  0  0  0  0  2  0  0  0  0  0  0
  160.4370  205.5710  149.6970 C   0  0  1  0  0  3  0  0  0  0  0  0
  161.6840  203.0830  146.9940 C   0  0  0  0  0  2  0  0  0  0  0  0
  161.6840  203.4430  151.9290 N   0  0  0  0  0  2  0  0  0  0  0  0
  160.5630  206.7220  148.8160 N   0  0  0  0  0  2  0  0  0  0  0  0
  161.3050  207.6460  149.4730 O   0  0  0  0  0  1  0  0  0  0  0  0
  161.3290  205.4480  153.2810 C   0  0  0  0  0  2  0  0  0  0  0  0
  161.6310  206.9280  153.0750 C   0  0  0  0  0  2  0  0  0  0  0  0
  160.3450  207.2440  155.3560 C   0  0  0  0  0  2  0  0  0  0  0  0
  159.8680  208.4670  155.9830 N   0  0  0  0  0  0  0  0  0  0  0  0
  160.1580  209.4440  155.1900 C   0  0  0  0  0  0  0  0  0  0  0  0
  160.9630  207.7710  154.1090 C   0  0  0  0  0  0  0  0  0  0  0  0
  160.8500  209.0510  154.0130 N   0  0  0  0  0  0  0  0  0  0  0  0
  160.0830  211.7440  154.3060 C   0  0  0  0  0  2  0  0  0  0  0  0
  159.8630  210.8690  155.5260 C   0  0  0  0  0  3  0  0  0  0  0  0
  158.6800  211.3550  154.7090 C   0  0  0  0  0  2  0  0  0  0  0  0
  1  2  1  0  0  0  0
  2  4  1  0  0  0  0
  3  7  1  1  0  0  0
  3 11  1  0  0  0  0
  3  6  1  0  0  0  0
  4  5  2  0  0  0  0
  4  6  1  0  0  0  0
  6  9  1  6  0  0  0
  8 16  1  1  0  0  0
  9 13  1  0  0  0  0
 10  8  1  0  0  0  0
 11 14  1  6  0  0  0
 11 10  1  0  0  0  0
 12  1  1  0  0  0  0
 12  7  1  0  0  0  0
 13  8  1  0  0  0  0
 14 15  1  0  0  0  0
 17 16  1  0  0  0  0
 17 21  1  0  0  0  0
 18 19  1  0  0  0  0
 20 24  1  0  0  0  0
 20 19  2  0  0  0  0
 21 18  1  0  0  0  0
 22 21  2  0  0  0  0
 22 20  1  0  0  0  0
 23 25  1  0  0  0  0
 23 24  1  0  0  0  0
 25 24  1  0  0  0  0
M  END
>  <MODEL>
9

>  <REMARK>
 VINA RESULT:      -5.4      3.031      8.312
  Name = 
  5 active torsions:
  status: ('A' for Active; 'I' for Inactive)
    1  A    between atoms: C_1  and  C_18
    2  A    between atoms: C_1  and  C_23
    3  A    between atoms: C_10  and  C_16
    4  A    between atoms: N_11  and  C_19
    5  A    between atoms: C_14  and  C_18
                            x       y       z     vdW  Elec       q    Type
                         _______ _______ _______ _____ _____    ______ ____

>  <TORSDO>
F 5

$$$$
