=
 OpenBabel11042420013D

 42 46  0  0  1  0  0  0  0  0999 V2000
  161.0740  203.8960  151.6950 C   0  0  0  0  0  0  0  0  0  0  0  0
  160.6460  207.2010  155.2830 C   0  0  0  0  0  2  0  0  0  0  0  0
  161.2310  203.9500  150.3120 C   0  0  0  0  0  0  0  0  0  0  0  0
  161.1000  206.2060  151.3680 C   0  0  0  0  0  0  0  0  0  0  0  0
  160.8360  205.4180  153.6550 C   0  0  0  0  0  3  0  0  0  0  0  0
  160.8910  207.8010  153.1380 C   0  0  0  0  0  0  0  0  0  0  0  0
  160.7860  206.7600  154.0480 C   0  0  0  0  0  0  0  0  0  0  0  0
  161.2890  205.5680  149.8210 S   0  0  0  0  0  0  0  0  0  0  0  0
  161.0050  202.7060  152.4110 O   0  0  0  0  0  1  0  0  0  0  0  0
  160.6510  208.7020  155.2270 C   0  0  2  0  0  3  0  0  0  0  0  0
  160.9960  205.1590  152.2880 C   0  0  0  0  0  0  0  0  0  0  0  0
  161.0510  207.5540  151.7550 C   0  0  0  0  0  0  0  0  0  0  0  0
  160.8230  208.9670  153.7600 C   0  0  0  0  0  2  0  0  0  0  0  0
  161.8000  209.2730  156.0070 C   0  0  0  0  0  0  0  0  0  0  0  0
  162.4040  208.5660  156.8580 O   0  0  0  0  0  0  0  0  0  0  0  0
  163.5090  210.8430  155.3380 N   0  0  0  0  0  1  0  0  0  0  0  0
  162.2330  210.5790  155.7820 O   0  0  0  0  0  0  0  0  0  0  0  0
  161.1700  208.5850  150.7630 N   0  0  0  0  0  2  0  0  0  0  0  0
  162.3480  209.4180  150.5600 C   0  0  0  0  0  2  0  0  0  0  0  0
  161.9270  210.8410  150.2430 C   0  0  0  0  0  2  0  0  0  0  0  0
  162.1850  211.1560  148.7780 C   0  0  0  0  0  2  0  0  0  0  0  0
  161.9340  212.6300  148.5050 C   0  0  0  0  0  2  0  0  0  0  0  0
  162.5810  213.0420  147.1960 C   0  0  0  0  0  2  0  0  0  0  0  0
  161.7320  214.1060  146.5260 C   0  0  0  0  0  2  0  0  0  0  0  0
  160.6700  212.8770  144.6480 C   0  0  0  0  0  0  0  0  0  0  0  0
  159.8870  212.1780  145.5640 O   0  0  0  0  0  1  0  0  0  0  0  0
  161.5490  213.7850  145.0790 C   0  0  0  0  0  3  0  0  0  0  0  0
  160.5190  212.6040  143.2030 C   0  0  0  0  0  0  0  0  0  0  0  0
  160.0080  211.4870  140.6300 C   0  0  0  0  0  2  0  0  0  0  0  0
  159.2100  212.7040  141.1030 C   0  0  0  0  0  2  0  0  0  0  0  0
  161.4040  211.5210  141.1900 C   0  0  0  0  0  3  0  0  0  0  0  0
  161.6270  212.0100  142.4150 C   0  0  0  0  0  3  0  0  0  0  0  0
  159.3620  212.8900  142.5900 C   0  0  0  0  0  3  0  0  0  0  0  0
  161.3780  202.7730  149.4070 C   0  0  0  0  0  2  0  0  0  0  0  0
  161.2250  203.1880  147.9540 C   0  0  0  0  0  2  0  0  0  0  0  0
  160.9270  201.9710  147.0920 C   0  0  0  0  0  2  0  0  0  0  0  0
  160.8390  202.3620  145.6240 C   0  0  0  0  0  2  0  0  0  0  0  0
  161.6020  203.6500  145.3360 C   0  0  0  0  0  2  0  0  0  0  0  0
  161.4930  205.6150  144.0280 O   0  0  0  0  0  0  0  0  0  0  0  0
  160.7280  205.8440  145.2960 C   0  0  0  0  0  0  0  0  0  0  0  0
  160.3790  206.5740  146.2580 O   0  0  0  0  0  0  0  0  0  0  0  0
  160.7160  204.6490  144.6100 C   0  0  2  0  0  3  0  0  0  0  0  0
  1 11  1  0  0  0  0
  1  9  1  0  0  0  0
  3  1  2  0  0  0  0
  4 12  2  0  0  0  0
  4 11  1  0  0  0  0
  5  7  1  0  0  0  0
  6 13  1  0  0  0  0
  6  7  2  0  0  0  0
  7  2  1  0  0  0  0
  8  3  1  0  0  0  0
  8  4  1  0  0  0  0
 10  2  1  0  0  0  0
 10 14  1  1  0  0  0
 11  5  2  0  0  0  0
 12  6  1  0  0  0  0
 13 10  1  0  0  0  0
 14 15  2  0  0  0  0
 16 17  1  0  0  0  0
 17 14  1  0  0  0  0
 18 12  1  0  0  0  0
 19 18  1  0  0  0  0
 20 19  1  0  0  0  0
 21 20  1  0  0  0  0
 22 21  1  0  0  0  0
 23 22  1  0  0  0  0
 24 23  1  0  0  0  0
 25 27  2  0  0  0  0
 25 26  1  0  0  0  0
 27 24  1  0  0  0  0
 28 25  1  0  0  0  0
 29 30  1  0  0  0  0
 29 31  1  0  0  0  0
 30 33  1  0  0  0  0
 31 32  2  0  0  0  0
 32 28  1  0  0  0  0
 33 28  2  0  0  0  0
 34  3  1  0  0  0  0
 35 34  1  0  0  0  0
 36 35  1  0  0  0  0
 37 36  1  0  0  0  0
 38 37  1  0  0  0  0
 39 42  1  0  0  0  0
 39 40  1  0  0  0  0
 40 41  2  0  0  0  0
 42 40  1  0  0  0  0
 42 38  1  1  0  0  0
M  END
>  <MODEL>
1

>  <REMARK>
 VINA RESULT:      -7.9      0.000      0.000
  Name = 
  17 active torsions:
  status: ('A' for Active; 'I' for Inactive)
    1  A    between atoms: C_1  and  C_5
    2  A    between atoms: C_1  and  C_33
    3  A    between atoms: C_4  and  C_7
    4  A    between atoms: C_5  and  C_6
    5  A    between atoms: C_6  and  C_21
    6  A    between atoms: C_8  and  C_33
    7  A    between atoms: C_8  and  C_41
    8  A    between atoms: C_14  and  C_24
    9  A    between atoms: C_16  and  C_36
   10  A    between atoms: C_16  and  O_37
   11  A    between atoms: C_17  and  C_24
   12  A    between atoms: C_17  and  C_38
   13  A    between atoms: C_21  and  N_28
   14  A    between atoms: C_22  and  C_27
   15  A    between atoms: C_27  and  C_31
   16  A    between atoms: N_28  and  C_40
   17  A    between atoms: C_31  and  C_38
                            x       y       z     vdW  Elec       q    Type
                         _______ _______ _______ _____ _____    ______ ____

>  <TORSDO>
F 17

$$$$
=
 OpenBabel11042420013D

 42 46  0  0  1  0  0  0  0  0999 V2000
  161.1720  205.0690  151.9770 C   0  0  0  0  0  0  0  0  0  0  0  0
  161.4100  204.0250  147.1980 C   0  0  0  0  0  2  0  0  0  0  0  0
  161.4250  206.1940  152.7590 C   0  0  0  0  0  0  0  0  0  0  0  0
  161.8250  206.5850  150.3280 C   0  0  0  0  0  0  0  0  0  0  0  0
  161.2340  204.3420  149.5930 C   0  0  0  0  0  3  0  0  0  0  0  0
  161.9320  206.0510  147.9990 C   0  0  0  0  0  0  0  0  0  0  0  0
  161.5120  204.7620  148.2870 C   0  0  0  0  0  0  0  0  0  0  0  0
  161.9180  207.4670  151.7600 S   0  0  0  0  0  0  0  0  0  0  0  0
  160.7350  203.8570  152.4990 O   0  0  0  0  0  1  0  0  0  0  0  0
  161.8020  204.8880  146.0340 C   0  0  2  0  0  3  0  0  0  0  0  0
  161.4010  205.2850  150.6150 C   0  0  0  0  0  0  0  0  0  0  0  0
  162.1050  207.0130  149.0210 C   0  0  0  0  0  0  0  0  0  0  0  0
  162.1180  206.1970  146.6970 C   0  0  0  0  0  2  0  0  0  0  0  0
  160.6650  205.0460  145.0640 C   0  0  0  0  0  0  0  0  0  0  0  0
  159.9850  206.1060  145.0520 O   0  0  0  0  0  0  0  0  0  0  0  0
  159.7030  202.8960  144.5320 N   0  0  0  0  0  1  0  0  0  0  0  0
  160.3670  204.0390  144.1480 O   0  0  0  0  0  0  0  0  0  0  0  0
  162.5320  208.3640  148.7900 N   0  0  0  0  0  2  0  0  0  0  0  0
  161.6420  209.4950  148.5630 C   0  0  0  0  0  2  0  0  0  0  0  0
  162.2740  210.7670  149.0980 C   0  0  0  0  0  2  0  0  0  0  0  0
  161.7370  211.9790  148.3530 C   0  0  0  0  0  2  0  0  0  0  0  0
  162.8850  212.7960  147.7820 C   0  0  0  0  0  2  0  0  0  0  0  0
  162.3690  213.7820  146.7500 C   0  0  0  0  0  2  0  0  0  0  0  0
  161.2600  213.1340  145.9420 C   0  0  0  0  0  2  0  0  0  0  0  0
  160.8740  212.5140  143.5690 C   0  0  0  0  0  0  0  0  0  0  0  0
  159.5440  212.2290  143.8720 O   0  0  0  0  0  1  0  0  0  0  0  0
  161.7000  212.9350  144.5290 C   0  0  0  0  0  3  0  0  0  0  0  0
  161.3570  212.3440  142.1830 C   0  0  0  0  0  0  0  0  0  0  0  0
  162.7800  211.6760  139.8030 C   0  0  0  0  0  2  0  0  0  0  0  0
  161.3670  211.1310  140.0230 C   0  0  0  0  0  2  0  0  0  0  0  0
  162.9240  213.0360  140.4290 C   0  0  0  0  0  3  0  0  0  0  0  0
  162.2850  213.3260  141.5680 C   0  0  0  0  0  3  0  0  0  0  0  0
  160.9600  211.2830  141.4650 C   0  0  0  0  0  3  0  0  0  0  0  0
  161.2410  206.2840  154.2360 C   0  0  0  0  0  2  0  0  0  0  0  0
  160.2620  207.3910  154.5910 C   0  0  0  0  0  2  0  0  0  0  0  0
  160.1050  207.4860  156.1000 C   0  0  0  0  0  2  0  0  0  0  0  0
  160.5440  208.8540  156.6000 C   0  0  0  0  0  2  0  0  0  0  0  0
  162.0510  208.9190  156.8200 C   0  0  0  0  0  2  0  0  0  0  0  0
  161.6000  211.2080  156.4450 O   0  0  0  0  0  0  0  0  0  0  0  0
  162.0820  210.6020  155.1620 C   0  0  0  0  0  0  0  0  0  0  0  0
  162.0350  210.4820  153.9120 O   0  0  0  0  0  0  0  0  0  0  0  0
  162.5990  210.2720  156.3960 C   0  0  2  0  0  3  0  0  0  0  0  0
  1  9  1  0  0  0  0
  1  3  2  0  0  0  0
  2  7  1  0  0  0  0
  3 34  1  0  0  0  0
  4 11  1  0  0  0  0
  4  8  1  0  0  0  0
  5 11  2  0  0  0  0
  6  7  2  0  0  0  0
  6 12  1  0  0  0  0
  7  5  1  0  0  0  0
  8  3  1  0  0  0  0
 10 14  1  6  0  0  0
 10 13  1  0  0  0  0
 10  2  1  0  0  0  0
 11  1  1  0  0  0  0
 12  4  2  0  0  0  0
 13  6  1  0  0  0  0
 15 14  2  0  0  0  0
 17 16  1  0  0  0  0
 17 14  1  0  0  0  0
 18 12  1  0  0  0  0
 19 18  1  0  0  0  0
 19 20  1  0  0  0  0
 21 20  1  0  0  0  0
 22 21  1  0  0  0  0
 23 22  1  0  0  0  0
 24 23  1  0  0  0  0
 25 26  1  0  0  0  0
 25 27  2  0  0  0  0
 27 24  1  0  0  0  0
 28 25  1  0  0  0  0
 29 30  1  0  0  0  0
 29 31  1  0  0  0  0
 30 33  1  0  0  0  0
 31 32  2  0  0  0  0
 32 28  1  0  0  0  0
 33 28  2  0  0  0  0
 34 35  1  0  0  0  0
 35 36  1  0  0  0  0
 36 37  1  0  0  0  0
 37 38  1  0  0  0  0
 40 42  1  0  0  0  0
 40 39  1  0  0  0  0
 41 40  2  0  0  0  0
 42 39  1  0  0  0  0
 42 38  1  1  0  0  0
M  END
>  <MODEL>
2

>  <REMARK>
 VINA RESULT:      -7.8      1.978      7.187
  Name = 
  17 active torsions:
  status: ('A' for Active; 'I' for Inactive)
    1  A    between atoms: C_1  and  C_5
    2  A    between atoms: C_1  and  C_33
    3  A    between atoms: C_4  and  C_7
    4  A    between atoms: C_5  and  C_6
    5  A    between atoms: C_6  and  C_21
    6  A    between atoms: C_8  and  C_33
    7  A    between atoms: C_8  and  C_41
    8  A    between atoms: C_14  and  C_24
    9  A    between atoms: C_16  and  C_36
   10  A    between atoms: C_16  and  O_37
   11  A    between atoms: C_17  and  C_24
   12  A    between atoms: C_17  and  C_38
   13  A    between atoms: C_21  and  N_28
   14  A    between atoms: C_22  and  C_27
   15  A    between atoms: C_27  and  C_31
   16  A    between atoms: N_28  and  C_40
   17  A    between atoms: C_31  and  C_38
                            x       y       z     vdW  Elec       q    Type
                         _______ _______ _______ _____ _____    ______ ____

>  <TORSDO>
F 17

$$$$
=
 OpenBabel11042420013D

 42 46  0  0  1  0  0  0  0  0999 V2000
  161.0570  204.0440  151.6680 C   0  0  0  0  0  0  0  0  0  0  0  0
  160.8180  207.2410  155.3690 C   0  0  0  0  0  2  0  0  0  0  0  0
  161.1170  204.1400  150.2790 C   0  0  0  0  0  0  0  0  0  0  0  0
  161.0190  206.3620  151.4060 C   0  0  0  0  0  0  0  0  0  0  0  0
  160.9270  205.5070  153.6820 C   0  0  0  0  0  3  0  0  0  0  0  0
  160.9030  207.9040  153.2310 C   0  0  0  0  0  0  0  0  0  0  0  0
  160.8800  206.8370  154.1160 C   0  0  0  0  0  0  0  0  0  0  0  0
  161.1120  205.7710  149.8320 S   0  0  0  0  0  0  0  0  0  0  0  0
  161.0590  202.8340  152.3520 O   0  0  0  0  0  1  0  0  0  0  0  0
  160.7920  208.7430  155.3560 C   0  0  2  0  0  3  0  0  0  0  0  0
  160.9970  205.2890  152.3000 C   0  0  0  0  0  0  0  0  0  0  0  0
  160.9720  207.6990  151.8340 C   0  0  0  0  0  0  0  0  0  0  0  0
  160.8580  209.0510  153.8890 C   0  0  0  0  0  2  0  0  0  0  0  0
  161.9810  209.3160  156.0720 C   0  0  0  0  0  0  0  0  0  0  0  0
  162.3960  208.7870  157.1390 O   0  0  0  0  0  0  0  0  0  0  0  0
  163.6410  211.0590  156.2780 N   0  0  0  0  0  1  0  0  0  0  0  0
  162.6600  210.4180  155.5550 O   0  0  0  0  0  0  0  0  0  0  0  0
  161.0040  208.7580  150.8660 N   0  0  0  0  0  2  0  0  0  0  0  0
  162.2150  209.3280  150.2890 C   0  0  0  0  0  2  0  0  0  0  0  0
  162.1310  210.8430  150.3020 C   0  0  0  0  0  2  0  0  0  0  0  0
  161.8620  211.3710  148.9010 C   0  0  0  0  0  2  0  0  0  0  0  0
  161.5410  212.8550  148.9520 C   0  0  0  0  0  2  0  0  0  0  0  0
  160.1320  213.0720  149.4730 C   0  0  0  0  0  2  0  0  0  0  0  0
  160.1730  214.0130  150.6620 C   0  0  0  0  0  2  0  0  0  0  0  0
  159.2700  212.7880  152.6250 C   0  0  0  0  0  0  0  0  0  0  0  0
  160.4990  212.1510  152.7780 O   0  0  0  0  0  1  0  0  0  0  0  0
  159.0920  213.6640  151.6330 C   0  0  0  0  0  3  0  0  0  0  0  0
  158.1710  212.4860  153.5660 C   0  0  0  0  0  0  0  0  0  0  0  0
  155.8370  211.5150  154.8850 C   0  0  0  0  0  2  0  0  0  0  0  0
  157.2220  211.1780  155.4420 C   0  0  0  0  0  2  0  0  0  0  0  0
  155.8440  212.8720  154.2360 C   0  0  0  0  0  3  0  0  0  0  0  0
  156.9310  213.3020  153.5850 C   0  0  0  0  0  3  0  0  0  0  0  0
  158.2870  211.4550  154.4150 C   0  0  0  0  0  3  0  0  0  0  0  0
  161.2240  202.9910  149.3330 C   0  0  0  0  0  2  0  0  0  0  0  0
  161.4070  203.4820  147.9070 C   0  0  0  0  0  2  0  0  0  0  0  0
  160.9620  202.4100  146.9250 C   0  0  0  0  0  2  0  0  0  0  0  0
  161.3500  202.7920  145.5030 C   0  0  0  0  0  2  0  0  0  0  0  0
  160.3240  203.7240  144.8680 C   0  0  0  0  0  2  0  0  0  0  0  0
  162.2240  205.1220  144.9800 O   0  0  0  0  0  0  0  0  0  0  0  0
  161.0420  205.8840  145.4970 C   0  0  0  0  0  0  0  0  0  0  0  0
  160.5160  206.6880  146.3070 O   0  0  0  0  0  0  0  0  0  0  0  0
  160.9770  205.0220  144.4240 C   0  0  2  0  0  3  0  0  0  0  0  0
  1 11  1  0  0  0  0
  1  9  1  0  0  0  0
  3  1  2  0  0  0  0
  4 12  2  0  0  0  0
  4 11  1  0  0  0  0
  5  7  1  0  0  0  0
  6 13  1  0  0  0  0
  6  7  2  0  0  0  0
  7  2  1  0  0  0  0
  8  3  1  0  0  0  0
  8  4  1  0  0  0  0
 10  2  1  0  0  0  0
 10 14  1  1  0  0  0
 11  5  2  0  0  0  0
 12  6  1  0  0  0  0
 13 10  1  0  0  0  0
 14 15  2  0  0  0  0
 17 14  1  0  0  0  0
 17 16  1  0  0  0  0
 18 12  1  0  0  0  0
 19 20  1  0  0  0  0
 19 18  1  0  0  0  0
 21 22  1  0  0  0  0
 21 20  1  0  0  0  0
 22 23  1  0  0  0  0
 23 24  1  0  0  0  0
 24 27  1  0  0  0  0
 25 26  1  0  0  0  0
 25 28  1  0  0  0  0
 27 25  2  0  0  0  0
 28 32  1  0  0  0  0
 28 33  2  0  0  0  0
 29 30  1  0  0  0  0
 31 29  1  0  0  0  0
 32 31  2  0  0  0  0
 33 30  1  0  0  0  0
 34  3  1  0  0  0  0
 35 34  1  0  0  0  0
 36 35  1  0  0  0  0
 37 36  1  0  0  0  0
 38 37  1  0  0  0  0
 39 40  1  0  0  0  0
 40 41  2  0  0  0  0
 42 38  1  1  0  0  0
 42 39  1  0  0  0  0
 42 40  1  0  0  0  0
M  END
>  <MODEL>
3

>  <REMARK>
 VINA RESULT:      -7.7      3.008      5.445
  Name = 
  17 active torsions:
  status: ('A' for Active; 'I' for Inactive)
    1  A    between atoms: C_1  and  C_5
    2  A    between atoms: C_1  and  C_33
    3  A    between atoms: C_4  and  C_7
    4  A    between atoms: C_5  and  C_6
    5  A    between atoms: C_6  and  C_21
    6  A    between atoms: C_8  and  C_33
    7  A    between atoms: C_8  and  C_41
    8  A    between atoms: C_14  and  C_24
    9  A    between atoms: C_16  and  C_36
   10  A    between atoms: C_16  and  O_37
   11  A    between atoms: C_17  and  C_24
   12  A    between atoms: C_17  and  C_38
   13  A    between atoms: C_21  and  N_28
   14  A    between atoms: C_22  and  C_27
   15  A    between atoms: C_27  and  C_31
   16  A    between atoms: N_28  and  C_40
   17  A    between atoms: C_31  and  C_38
                            x       y       z     vdW  Elec       q    Type
                         _______ _______ _______ _____ _____    ______ ____

>  <TORSDO>
F 17

$$$$
=
 OpenBabel11042420013D

 42 46  0  0  1  0  0  0  0  0999 V2000
  161.0490  205.4080  152.0150 C   0  0  0  0  0  0  0  0  0  0  0  0
  161.4410  204.1190  147.3080 C   0  0  0  0  0  2  0  0  0  0  0  0
  161.2650  206.5750  152.7440 C   0  0  0  0  0  0  0  0  0  0  0  0
  161.7320  206.8440  150.3080 C   0  0  0  0  0  0  0  0  0  0  0  0
  161.1900  204.5580  149.6760 C   0  0  0  0  0  3  0  0  0  0  0  0
  161.9130  206.1910  148.0150 C   0  0  0  0  0  0  0  0  0  0  0  0
  161.5010  204.9130  148.3590 C   0  0  0  0  0  0  0  0  0  0  0  0
  161.7720  207.8010  151.6940 S   0  0  0  0  0  0  0  0  0  0  0  0
  160.6110  204.2180  152.5880 O   0  0  0  0  0  1  0  0  0  0  0  0
  161.8560  204.9250  146.1110 C   0  0  2  0  0  3  0  0  0  0  0  0
  161.3150  205.5560  150.6520 C   0  0  0  0  0  0  0  0  0  0  0  0
  162.0450  207.2080  148.9890 C   0  0  0  0  0  0  0  0  0  0  0  0
  162.1360  206.2710  146.7130 C   0  0  0  0  0  2  0  0  0  0  0  0
  160.7470  205.0160  145.1020 C   0  0  0  0  0  0  0  0  0  0  0  0
  160.1010  206.0900  144.9640 O   0  0  0  0  0  0  0  0  0  0  0  0
  160.1240  202.6990  144.8200 N   0  0  0  0  0  1  0  0  0  0  0  0
  160.4360  203.9290  144.2860 O   0  0  0  0  0  0  0  0  0  0  0  0
  162.4620  208.5500  148.7000 N   0  0  0  0  0  2  0  0  0  0  0  0
  161.5860  209.7140  148.6910 C   0  0  0  0  0  2  0  0  0  0  0  0
  162.4060  210.9810  148.8510 C   0  0  0  0  0  2  0  0  0  0  0  0
  161.5040  212.2050  148.8190 C   0  0  0  0  0  2  0  0  0  0  0  0
  160.7120  212.2390  147.5230 C   0  0  0  0  0  2  0  0  0  0  0  0
  160.5940  213.6640  147.0150 C   0  0  0  0  0  2  0  0  0  0  0  0
  161.6940  213.9340  146.0060 C   0  0  0  0  0  2  0  0  0  0  0  0
  162.2700  212.9920  143.7810 C   0  0  0  0  0  0  0  0  0  0  0  0
  163.6180  213.2320  144.0420 O   0  0  0  0  0  1  0  0  0  0  0  0
  161.3480  213.3200  144.6890 C   0  0  0  0  0  3  0  0  0  0  0  0
  161.8750  212.3770  142.4970 C   0  0  0  0  0  0  0  0  0  0  0  0
  161.4200  210.6540  140.2700 C   0  0  0  0  0  2  0  0  0  0  0  0
  160.2330  211.1790  141.0820 C   0  0  0  0  0  2  0  0  0  0  0  0
  162.5300  211.6690  140.2430 C   0  0  0  0  0  3  0  0  0  0  0  0
  162.7610  212.4440  141.3080 C   0  0  0  0  0  3  0  0  0  0  0  0
  160.7000  211.7390  142.3990 C   0  0  0  0  0  3  0  0  0  0  0  0
  161.0360  206.7400  154.2090 C   0  0  0  0  0  2  0  0  0  0  0  0
  160.9980  208.2120  154.5860 C   0  0  0  0  0  2  0  0  0  0  0  0
  160.1480  208.4100  155.8310 C   0  0  0  0  0  2  0  0  0  0  0  0
  159.5720  209.8180  155.8680 C   0  0  0  0  0  2  0  0  0  0  0  0
  160.1080  210.6780  154.7290 C   0  0  0  0  0  2  0  0  0  0  0  0
  158.2360  211.1460  153.3650 O   0  0  0  0  0  0  0  0  0  0  0  0
  159.3380  212.0930  153.0010 C   0  0  0  0  0  0  0  0  0  0  0  0
  160.0040  212.7390  152.1520 O   0  0  0  0  0  0  0  0  0  0  0  0
  159.0720  211.7020  154.2950 C   0  0  2  0  0  3  0  0  0  0  0  0
  1  9  1  0  0  0  0
  1  3  2  0  0  0  0
  2  7  1  0  0  0  0
  3 34  1  0  0  0  0
  4 11  1  0  0  0  0
  4  8  1  0  0  0  0
  5 11  2  0  0  0  0
  6  7  2  0  0  0  0
  6 12  1  0  0  0  0
  7  5  1  0  0  0  0
  8  3  1  0  0  0  0
 10 14  1  6  0  0  0
 10 13  1  0  0  0  0
 10  2  1  0  0  0  0
 11  1  1  0  0  0  0
 12  4  2  0  0  0  0
 13  6  1  0  0  0  0
 15 14  2  0  0  0  0
 17 16  1  0  0  0  0
 17 14  1  0  0  0  0
 18 12  1  0  0  0  0
 19 18  1  0  0  0  0
 19 20  1  0  0  0  0
 21 20  1  0  0  0  0
 22 21  1  0  0  0  0
 23 22  1  0  0  0  0
 24 23  1  0  0  0  0
 25 26  1  0  0  0  0
 25 27  2  0  0  0  0
 27 24  1  0  0  0  0
 28 25  1  0  0  0  0
 29 30  1  0  0  0  0
 30 33  1  0  0  0  0
 31 29  1  0  0  0  0
 31 32  2  0  0  0  0
 32 28  1  0  0  0  0
 33 28  2  0  0  0  0
 34 35  1  0  0  0  0
 35 36  1  0  0  0  0
 36 37  1  0  0  0  0
 38 37  1  0  0  0  0
 39 42  1  0  0  0  0
 40 39  1  0  0  0  0
 40 42  1  0  0  0  0
 41 40  2  0  0  0  0
 42 38  1  6  0  0  0
M  END
>  <MODEL>
4

>  <REMARK>
 VINA RESULT:      -7.5      2.395      6.984
  Name = 
  17 active torsions:
  status: ('A' for Active; 'I' for Inactive)
    1  A    between atoms: C_1  and  C_5
    2  A    between atoms: C_1  and  C_33
    3  A    between atoms: C_4  and  C_7
    4  A    between atoms: C_5  and  C_6
    5  A    between atoms: C_6  and  C_21
    6  A    between atoms: C_8  and  C_33
    7  A    between atoms: C_8  and  C_41
    8  A    between atoms: C_14  and  C_24
    9  A    between atoms: C_16  and  C_36
   10  A    between atoms: C_16  and  O_37
   11  A    between atoms: C_17  and  C_24
   12  A    between atoms: C_17  and  C_38
   13  A    between atoms: C_21  and  N_28
   14  A    between atoms: C_22  and  C_27
   15  A    between atoms: C_27  and  C_31
   16  A    between atoms: N_28  and  C_40
   17  A    between atoms: C_31  and  C_38
                            x       y       z     vdW  Elec       q    Type
                         _______ _______ _______ _____ _____    ______ ____

>  <TORSDO>
F 17

$$$$
=
 OpenBabel11042420013D

 42 46  0  0  1  0  0  0  0  0999 V2000
  161.3780  206.0660  149.9790 C   0  0  0  0  0  0  0  0  0  0  0  0
  160.6440  208.3480  154.2490 C   0  0  0  0  0  2  0  0  0  0  0  0
  161.8480  206.4420  148.7230 C   0  0  0  0  0  0  0  0  0  0  0  0
  161.8160  208.3260  150.3570 C   0  0  0  0  0  0  0  0  0  0  0  0
  160.9310  207.0460  152.2270 C   0  0  0  0  0  3  0  0  0  0  0  0
  161.4510  209.4180  152.4540 C   0  0  0  0  0  0  0  0  0  0  0  0
  160.9910  208.2220  152.9830 C   0  0  0  0  0  0  0  0  0  0  0  0
  162.2530  208.0850  148.7490 S   0  0  0  0  0  0  0  0  0  0  0  0
  160.9750  204.7720  150.2890 O   0  0  0  0  0  1  0  0  0  0  0  0
  160.8820  209.7780  154.6400 C   0  0  2  0  0  3  0  0  0  0  0  0
  161.3550  207.1220  150.8940 C   0  0  0  0  0  0  0  0  0  0  0  0
  161.8800  209.5100  151.1090 C   0  0  0  0  0  0  0  0  0  0  0  0
  161.4170  210.3730  153.3690 C   0  0  0  0  0  2  0  0  0  0  0  0
  161.8970  209.8810  155.7420 C   0  0  0  0  0  0  0  0  0  0  0  0
  162.1630  208.8770  156.4560 O   0  0  0  0  0  0  0  0  0  0  0  0
  163.7760  211.0970  156.6520 N   0  0  0  0  0  1  0  0  0  0  0  0
  162.5790  211.0750  155.9720 O   0  0  0  0  0  0  0  0  0  0  0  0
  162.3700  210.7140  150.5020 N   0  0  0  0  0  2  0  0  0  0  0  0
  161.5770  211.6180  149.6800 C   0  0  0  0  0  2  0  0  0  0  0  0
  162.3810  212.0590  148.4700 C   0  0  0  0  0  2  0  0  0  0  0  0
  161.6120  213.1020  147.6740 C   0  0  0  0  0  2  0  0  0  0  0  0
  162.5510  214.2000  147.2030 C   0  0  0  0  0  2  0  0  0  0  0  0
  162.4350  214.3840  145.7010 C   0  0  0  0  0  2  0  0  0  0  0  0
  162.0270  213.0710  145.0610 C   0  0  0  0  0  2  0  0  0  0  0  0
  161.8700  212.4420  142.6630 C   0  0  0  0  0  0  0  0  0  0  0  0
  160.6050  211.9090  142.8990 O   0  0  0  0  0  1  0  0  0  0  0  0
  162.5600  212.9880  143.6680 C   0  0  0  0  0  3  0  0  0  0  0  0
  162.4390  212.3960  141.3000 C   0  0  0  0  0  0  0  0  0  0  0  0
  162.9140  212.4630  138.4890 C   0  0  0  0  0  2  0  0  0  0  0  0
  163.6120  213.4710  139.4030 C   0  0  0  0  0  2  0  0  0  0  0  0
  162.7110  211.1540  139.2030 C   0  0  0  0  0  3  0  0  0  0  0  0
  162.4490  211.1360  140.5150 C   0  0  0  0  0  3  0  0  0  0  0  0
  162.9490  213.5090  140.7550 C   0  0  0  0  0  3  0  0  0  0  0  0
  162.0210  205.5340  147.5520 C   0  0  0  0  0  2  0  0  0  0  0  0
  161.2790  206.0710  146.3390 C   0  0  0  0  0  2  0  0  0  0  0  0
  161.8700  205.4890  145.0650 C   0  0  0  0  0  2  0  0  0  0  0  0
  160.8110  204.7250  144.2840 C   0  0  0  0  0  2  0  0  0  0  0  0
  160.1320  203.6620  145.1410 C   0  0  0  0  0  2  0  0  0  0  0  0
  160.4000  201.3220  145.3230 O   0  0  0  0  0  0  0  0  0  0  0  0
  160.7660  201.9460  146.6350 C   0  0  0  0  0  0  0  0  0  0  0  0
  160.7680  201.9520  147.8920 O   0  0  0  0  0  0  0  0  0  0  0  0
  161.0800  202.5070  145.4160 C   0  0  2  0  0  3  0  0  0  0  0  0
  1  9  1  0  0  0  0
  1 11  1  0  0  0  0
  2 10  1  0  0  0  0
  3  8  1  0  0  0  0
  3  1  2  0  0  0  0
  4 11  2  0  0  0  0
  4 12  1  0  0  0  0
  5  7  2  0  0  0  0
  6  7  1  0  0  0  0
  6 13  1  0  0  0  0
  7  2  1  0  0  0  0
  8  4  1  0  0  0  0
 10 14  1  1  0  0  0
 11  5  1  0  0  0  0
 12  6  2  0  0  0  0
 13 10  1  0  0  0  0
 14 17  1  0  0  0  0
 14 15  2  0  0  0  0
 17 16  1  0  0  0  0
 18 12  1  0  0  0  0
 19 18  1  0  0  0  0
 20 19  1  0  0  0  0
 21 20  1  0  0  0  0
 22 21  1  0  0  0  0
 23 22  1  0  0  0  0
 24 23  1  0  0  0  0
 25 26  1  0  0  0  0
 25 27  2  0  0  0  0
 27 24  1  0  0  0  0
 28 25  1  0  0  0  0
 29 31  1  0  0  0  0
 29 30  1  0  0  0  0
 30 33  1  0  0  0  0
 31 32  2  0  0  0  0
 32 28  1  0  0  0  0
 33 28  2  0  0  0  0
 34  3  1  0  0  0  0
 35 34  1  0  0  0  0
 36 35  1  0  0  0  0
 37 36  1  0  0  0  0
 37 38  1  0  0  0  0
 39 42  1  0  0  0  0
 39 40  1  0  0  0  0
 40 41  2  0  0  0  0
 42 38  1  1  0  0  0
 42 40  1  0  0  0  0
M  END
>  <MODEL>
5

>  <REMARK>
 VINA RESULT:      -7.1      1.924      2.725
  Name = 
  17 active torsions:
  status: ('A' for Active; 'I' for Inactive)
    1  A    between atoms: C_1  and  C_5
    2  A    between atoms: C_1  and  C_33
    3  A    between atoms: C_4  and  C_7
    4  A    between atoms: C_5  and  C_6
    5  A    between atoms: C_6  and  C_21
    6  A    between atoms: C_8  and  C_33
    7  A    between atoms: C_8  and  C_41
    8  A    between atoms: C_14  and  C_24
    9  A    between atoms: C_16  and  C_36
   10  A    between atoms: C_16  and  O_37
   11  A    between atoms: C_17  and  C_24
   12  A    between atoms: C_17  and  C_38
   13  A    between atoms: C_21  and  N_28
   14  A    between atoms: C_22  and  C_27
   15  A    between atoms: C_27  and  C_31
   16  A    between atoms: N_28  and  C_40
   17  A    between atoms: C_31  and  C_38
                            x       y       z     vdW  Elec       q    Type
                         _______ _______ _______ _____ _____    ______ ____

>  <TORSDO>
F 17

$$$$
=
 OpenBabel11042420013D

 42 46  0  0  1  0  0  0  0  0999 V2000
  161.1960  204.9670  151.8980 C   0  0  0  0  0  0  0  0  0  0  0  0
  161.8660  203.9640  147.1520 C   0  0  0  0  0  2  0  0  0  0  0  0
  161.0490  206.1280  152.6540 C   0  0  0  0  0  0  0  0  0  0  0  0
  161.3500  206.5800  150.2190 C   0  0  0  0  0  0  0  0  0  0  0  0
  161.5440  204.2530  149.5350 C   0  0  0  0  0  3  0  0  0  0  0  0
  161.6750  206.0640  147.9070 C   0  0  0  0  0  0  0  0  0  0  0  0
  161.6970  204.7150  148.2230 C   0  0  0  0  0  0  0  0  0  0  0  0
  161.1170  207.4720  151.6290 S   0  0  0  0  0  0  0  0  0  0  0  0
  161.1710  203.6890  152.4460 O   0  0  0  0  0  1  0  0  0  0  0  0
  161.9760  204.8840  145.9710 C   0  0  2  0  0  3  0  0  0  0  0  0
  161.3700  205.2190  150.5350 C   0  0  0  0  0  0  0  0  0  0  0  0
  161.5010  207.0500  148.9060 C   0  0  0  0  0  0  0  0  0  0  0  0
  161.8300  206.2370  146.6040 C   0  0  0  0  0  2  0  0  0  0  0  0
  160.8720  204.6400  144.9820 C   0  0  0  0  0  0  0  0  0  0  0  0
  160.1580  205.5960  144.5800 O   0  0  0  0  0  0  0  0  0  0  0  0
  159.4920  202.6680  144.7790 N   0  0  0  0  0  1  0  0  0  0  0  0
  160.6420  203.3620  144.4750 O   0  0  0  0  0  0  0  0  0  0  0  0
  161.4650  208.4620  148.6450 N   0  0  0  0  0  2  0  0  0  0  0  0
  162.5150  209.4050  149.0050 C   0  0  0  0  0  2  0  0  0  0  0  0
  161.9280  210.7940  149.1750 C   0  0  0  0  0  2  0  0  0  0  0  0
  162.4520  211.7270  148.0950 C   0  0  0  0  0  2  0  0  0  0  0  0
  161.6010  212.9840  148.0280 C   0  0  0  0  0  2  0  0  0  0  0  0
  160.4400  212.8880  149.0010 C   0  0  0  0  0  2  0  0  0  0  0  0
  160.5980  213.9420  150.0800 C   0  0  0  0  0  2  0  0  0  0  0  0
  159.4420  212.9860  152.0600 C   0  0  0  0  0  0  0  0  0  0  0  0
  160.4990  212.0940  152.2320 O   0  0  0  0  0  1  0  0  0  0  0  0
  159.4650  213.8600  151.0510 C   0  0  0  0  0  3  0  0  0  0  0  0
  158.3010  212.9530  152.9990 C   0  0  0  0  0  0  0  0  0  0  0  0
  155.7430  212.8260  154.2530 C   0  0  0  0  0  2  0  0  0  0  0  0
  156.7740  211.7250  154.5120 C   0  0  0  0  0  2  0  0  0  0  0  0
  156.4270  214.1480  154.0340 C   0  0  0  0  0  3  0  0  0  0  0  0
  157.6090  214.2010  153.4080 C   0  0  0  0  0  3  0  0  0  0  0  0
  157.8760  211.7800  153.4880 C   0  0  0  0  0  3  0  0  0  0  0  0
  160.8140  206.1820  154.1260 C   0  0  0  0  0  2  0  0  0  0  0  0
  160.8490  207.6170  154.6250 C   0  0  0  0  0  2  0  0  0  0  0  0
  160.4520  207.6700  156.0920 C   0  0  0  0  0  2  0  0  0  0  0  0
  160.7780  209.0320  156.6860 C   0  0  0  0  0  2  0  0  0  0  0  0
  159.9490  210.1410  156.0480 C   0  0  0  0  0  2  0  0  0  0  0  0
  161.4680  211.7710  156.8310 O   0  0  0  0  0  0  0  0  0  0  0  0
  160.2720  212.4710  156.2620 C   0  0  0  0  0  0  0  0  0  0  0  0
  159.4140  213.3890  156.2890 O   0  0  0  0  0  0  0  0  0  0  0  0
  160.8220  211.3370  155.7050 C   0  0  2  0  0  3  0  0  0  0  0  0
  1  9  1  0  0  0  0
  1  3  2  0  0  0  0
  2  7  1  0  0  0  0
  3 34  1  0  0  0  0
  4 11  1  0  0  0  0
  4  8  1  0  0  0  0
  5 11  2  0  0  0  0
  6  7  2  0  0  0  0
  6 12  1  0  0  0  0
  7  5  1  0  0  0  0
  8  3  1  0  0  0  0
 10 14  1  6  0  0  0
 10 13  1  0  0  0  0
 10  2  1  0  0  0  0
 11  1  1  0  0  0  0
 12  4  2  0  0  0  0
 13  6  1  0  0  0  0
 15 14  2  0  0  0  0
 17 16  1  0  0  0  0
 17 14  1  0  0  0  0
 18 12  1  0  0  0  0
 18 19  1  0  0  0  0
 19 20  1  0  0  0  0
 21 20  1  0  0  0  0
 22 21  1  0  0  0  0
 22 23  1  0  0  0  0
 23 24  1  0  0  0  0
 24 27  1  0  0  0  0
 25 26  1  0  0  0  0
 25 28  1  0  0  0  0
 27 25  2  0  0  0  0
 28 32  1  0  0  0  0
 28 33  2  0  0  0  0
 29 30  1  0  0  0  0
 31 29  1  0  0  0  0
 32 31  2  0  0  0  0
 33 30  1  0  0  0  0
 34 35  1  0  0  0  0
 35 36  1  0  0  0  0
 36 37  1  0  0  0  0
 38 37  1  0  0  0  0
 40 41  2  0  0  0  0
 40 39  1  0  0  0  0
 42 38  1  1  0  0  0
 42 40  1  0  0  0  0
 42 39  1  0  0  0  0
M  END
>  <MODEL>
6

>  <REMARK>
 VINA RESULT:      -6.8      3.276      8.989
  Name = 
  17 active torsions:
  status: ('A' for Active; 'I' for Inactive)
    1  A    between atoms: C_1  and  C_5
    2  A    between atoms: C_1  and  C_33
    3  A    between atoms: C_4  and  C_7
    4  A    between atoms: C_5  and  C_6
    5  A    between atoms: C_6  and  C_21
    6  A    between atoms: C_8  and  C_33
    7  A    between atoms: C_8  and  C_41
    8  A    between atoms: C_14  and  C_24
    9  A    between atoms: C_16  and  C_36
   10  A    between atoms: C_16  and  O_37
   11  A    between atoms: C_17  and  C_24
   12  A    between atoms: C_17  and  C_38
   13  A    between atoms: C_21  and  N_28
   14  A    between atoms: C_22  and  C_27
   15  A    between atoms: C_27  and  C_31
   16  A    between atoms: N_28  and  C_40
   17  A    between atoms: C_31  and  C_38
                            x       y       z     vdW  Elec       q    Type
                         _______ _______ _______ _____ _____    ______ ____

>  <TORSDO>
F 17

$$$$
=
 OpenBabel11042420013D

 42 46  0  0  1  0  0  0  0  0999 V2000
  160.9730  211.7090  150.8440 C   0  0  0  0  0  0  0  0  0  0  0  0
  157.9570  213.5560  154.2320 C   0  0  0  0  0  2  0  0  0  0  0  0
  161.8650  210.6400  150.7900 C   0  0  0  0  0  0  0  0  0  0  0  0
  160.7140  210.8380  152.9940 C   0  0  0  0  0  0  0  0  0  0  0  0
  159.3870  212.7980  152.4300 C   0  0  0  0  0  3  0  0  0  0  0  0
  159.2320  211.7580  154.6300 C   0  0  0  0  0  0  0  0  0  0  0  0
  158.8550  212.7360  153.7230 C   0  0  0  0  0  0  0  0  0  0  0  0
  161.8480  209.8240  152.2710 S   0  0  0  0  0  0  0  0  0  0  0  0
  160.7440  212.5700  149.7770 O   0  0  0  0  0  1  0  0  0  0  0  0
  157.6830  213.1050  155.6380 C   0  0  2  0  0  3  0  0  0  0  0  0
  160.3310  211.8240  152.0800 C   0  0  0  0  0  0  0  0  0  0  0  0
  160.1850  210.7690  154.2920 C   0  0  0  0  0  0  0  0  0  0  0  0
  158.5830  211.9110  155.7730 C   0  0  0  0  0  2  0  0  0  0  0  0
  156.2450  212.7080  155.8130 C   0  0  0  0  0  0  0  0  0  0  0  0
  155.6020  213.0850  156.8300 O   0  0  0  0  0  0  0  0  0  0  0  0
  155.3190  210.6120  155.0490 N   0  0  0  0  0  1  0  0  0  0  0  0
  155.5940  211.9460  154.8450 O   0  0  0  0  0  0  0  0  0  0  0  0
  160.6150  209.7280  155.1820 N   0  0  0  0  0  2  0  0  0  0  0  0
  159.7310  208.7880  155.8580 C   0  0  0  0  0  2  0  0  0  0  0  0
  160.1740  207.3640  155.5740 C   0  0  0  0  0  2  0  0  0  0  0  0
  160.6290  207.2280  154.1300 C   0  0  0  0  0  2  0  0  0  0  0  0
  161.7300  206.1860  154.0220 C   0  0  0  0  0  2  0  0  0  0  0  0
  162.0990  205.9570  152.5680 C   0  0  0  0  0  2  0  0  0  0  0  0
  160.8380  205.9340  151.7240 C   0  0  0  0  0  2  0  0  0  0  0  0
  160.9000  203.6840  150.6750 C   0  0  0  0  0  0  0  0  0  0  0  0
  160.6240  203.1120  151.9150 O   0  0  0  0  0  1  0  0  0  0  0  0
  161.0110  205.0100  150.5640 C   0  0  0  0  0  3  0  0  0  0  0  0
  161.0690  202.8140  149.4920 C   0  0  0  0  0  0  0  0  0  0  0  0
  160.7360  201.0620  147.2670 C   0  0  0  0  0  2  0  0  0  0  0  0
  161.2240  202.4940  147.0420 C   0  0  0  0  0  2  0  0  0  0  0  0
  161.2250  200.5400  148.5910 C   0  0  0  0  0  3  0  0  0  0  0  0
  161.3390  201.3620  149.6400 C   0  0  0  0  0  3  0  0  0  0  0  0
  160.9710  203.3390  148.2620 C   0  0  0  0  0  3  0  0  0  0  0  0
  162.6710  210.2420  149.5990 C   0  0  0  0  0  2  0  0  0  0  0  0
  161.7820  209.6360  148.5250 C   0  0  0  0  0  2  0  0  0  0  0  0
  161.5580  208.1590  148.8050 C   0  0  0  0  0  2  0  0  0  0  0  0
  162.6980  207.3260  148.2370 C   0  0  0  0  0  2  0  0  0  0  0  0
  162.1860  206.1850  147.3650 C   0  0  0  0  0  2  0  0  0  0  0  0
  160.0730  205.9190  146.3440 O   0  0  0  0  0  0  0  0  0  0  0  0
  161.1290  205.8020  145.2880 C   0  0  0  0  0  0  0  0  0  0  0  0
  161.5970  205.2720  144.2480 O   0  0  0  0  0  0  0  0  0  0  0  0
  161.1980  206.6990  146.3310 C   0  0  2  0  0  3  0  0  0  0  0  0
  1 11  1  0  0  0  0
  2 10  1  0  0  0  0
  3  1  2  0  0  0  0
  3  8  1  0  0  0  0
  4 12  1  0  0  0  0
  5  7  2  0  0  0  0
  6 13  1  0  0  0  0
  7  2  1  0  0  0  0
  7  6  1  0  0  0  0
  8  4  1  0  0  0  0
  9  1  1  0  0  0  0
 10 13  1  0  0  0  0
 10 14  1  6  0  0  0
 11  5  1  0  0  0  0
 11  4  2  0  0  0  0
 12  6  2  0  0  0  0
 12 18  1  0  0  0  0
 14 15  2  0  0  0  0
 17 16  1  0  0  0  0
 17 14  1  0  0  0  0
 18 19  1  0  0  0  0
 20 19  1  0  0  0  0
 21 20  1  0  0  0  0
 22 21  1  0  0  0  0
 23 22  1  0  0  0  0
 24 23  1  0  0  0  0
 25 26  1  0  0  0  0
 27 25  2  0  0  0  0
 27 24  1  0  0  0  0
 28 32  1  0  0  0  0
 28 25  1  0  0  0  0
 29 31  1  0  0  0  0
 30 29  1  0  0  0  0
 30 33  1  0  0  0  0
 31 32  2  0  0  0  0
 33 28  2  0  0  0  0
 34  3  1  0  0  0  0
 35 36  1  0  0  0  0
 35 34  1  0  0  0  0
 37 36  1  0  0  0  0
 38 37  1  0  0  0  0
 40 42  1  0  0  0  0
 40 39  1  0  0  0  0
 41 40  2  0  0  0  0
 42 39  1  0  0  0  0
 42 38  1  1  0  0  0
M  END
>  <MODEL>
7

>  <REMARK>
 VINA RESULT:      -6.8      3.817      7.886
  Name = 
  17 active torsions:
  status: ('A' for Active; 'I' for Inactive)
    1  A    between atoms: C_1  and  C_5
    2  A    between atoms: C_1  and  C_33
    3  A    between atoms: C_4  and  C_7
    4  A    between atoms: C_5  and  C_6
    5  A    between atoms: C_6  and  C_21
    6  A    between atoms: C_8  and  C_33
    7  A    between atoms: C_8  and  C_41
    8  A    between atoms: C_14  and  C_24
    9  A    between atoms: C_16  and  C_36
   10  A    between atoms: C_16  and  O_37
   11  A    between atoms: C_17  and  C_24
   12  A    between atoms: C_17  and  C_38
   13  A    between atoms: C_21  and  N_28
   14  A    between atoms: C_22  and  C_27
   15  A    between atoms: C_27  and  C_31
   16  A    between atoms: N_28  and  C_40
   17  A    between atoms: C_31  and  C_38
                            x       y       z     vdW  Elec       q    Type
                         _______ _______ _______ _____ _____    ______ ____

>  <TORSDO>
F 17

$$$$
=
 OpenBabel11042420013D

 42 46  0  0  1  0  0  0  0  0999 V2000
  160.8920  207.6090  153.1300 C   0  0  0  0  0  0  0  0  0  0  0  0
  161.5850  205.3270  148.8540 C   0  0  0  0  0  2  0  0  0  0  0  0
  161.0570  208.9110  153.5960 C   0  0  0  0  0  0  0  0  0  0  0  0
  161.6740  208.6480  151.1940 C   0  0  0  0  0  0  0  0  0  0  0  0
  161.1840  206.2700  151.0480 C   0  0  0  0  0  3  0  0  0  0  0  0
  162.0030  207.5120  149.1150 C   0  0  0  0  0  0  0  0  0  0  0  0
  161.5760  206.3330  149.7060 C   0  0  0  0  0  0  0  0  0  0  0  0
  161.6230  209.8860  152.3350 S   0  0  0  0  0  0  0  0  0  0  0  0
  160.4250  206.5660  153.9230 O   0  0  0  0  0  1  0  0  0  0  0  0
  162.0710  205.8590  147.5360 C   0  0  2  0  0  3  0  0  0  0  0  0
  161.2430  207.4590  151.7860 C   0  0  0  0  0  0  0  0  0  0  0  0
  162.0680  208.7190  149.8480 C   0  0  0  0  0  0  0  0  0  0  0  0
  162.3060  207.3090  147.8430 C   0  0  0  0  0  2  0  0  0  0  0  0
  161.0270  205.7060  146.4670 C   0  0  0  0  0  0  0  0  0  0  0  0
  160.0530  206.5040  146.4120 O   0  0  0  0  0  0  0  0  0  0  0  0
  161.2210  205.0030  144.1640 N   0  0  0  0  0  1  0  0  0  0  0  0
  161.1350  204.7030  145.5050 O   0  0  0  0  0  0  0  0  0  0  0  0
  162.4970  209.9730  149.2960 N   0  0  0  0  0  2  0  0  0  0  0  0
  161.6660  210.8600  148.4930 C   0  0  0  0  0  2  0  0  0  0  0  0
  162.3980  212.1660  148.2380 C   0  0  0  0  0  2  0  0  0  0  0  0
  161.5580  213.0820  147.3630 C   0  0  0  0  0  2  0  0  0  0  0  0
  160.5940  212.2650  146.5200 C   0  0  0  0  0  2  0  0  0  0  0  0
  160.5680  212.7850  145.0940 C   0  0  0  0  0  2  0  0  0  0  0  0
  161.9100  213.4070  144.7590 C   0  0  0  0  0  2  0  0  0  0  0  0
  161.9190  213.1610  142.2880 C   0  0  0  0  0  0  0  0  0  0  0  0
  160.8400  214.0400  142.2090 O   0  0  0  0  0  1  0  0  0  0  0  0
  162.4340  212.8460  143.4780 C   0  0  0  0  0  3  0  0  0  0  0  0
  162.4820  212.5860  141.0490 C   0  0  0  0  0  0  0  0  0  0  0  0
  162.9990  211.6930  138.3900 C   0  0  0  0  0  2  0  0  0  0  0  0
  163.8890  212.7670  139.0190 C   0  0  0  0  0  2  0  0  0  0  0  0
  162.5050  210.7360  139.4400 C   0  0  0  0  0  3  0  0  0  0  0  0
  162.2260  211.1730  140.6730 C   0  0  0  0  0  3  0  0  0  0  0  0
  163.2320  213.3500  140.2420 C   0  0  0  0  0  3  0  0  0  0  0  0
  160.7360  209.3890  154.9720 C   0  0  0  0  0  2  0  0  0  0  0  0
  161.3210  210.7700  155.2140 C   0  0  0  0  0  2  0  0  0  0  0  0
  160.7160  211.3830  156.4660 C   0  0  0  0  0  2  0  0  0  0  0  0
  159.2110  211.1600  156.4980 C   0  0  0  0  0  2  0  0  0  0  0  0
  158.4420  212.4590  156.2790 C   0  0  0  0  0  2  0  0  0  0  0  0
  156.9700  210.9270  155.2460 O   0  0  0  0  0  0  0  0  0  0  0  0
  157.7920  211.5870  154.1820 C   0  0  0  0  0  0  0  0  0  0  0  0
  158.4410  211.5500  153.1060 O   0  0  0  0  0  0  0  0  0  0  0  0
  157.3090  212.2530  155.2870 C   0  0  2  0  0  3  0  0  0  0  0  0
  1  3  2  0  0  0  0
  1  9  1  0  0  0  0
  2  7  1  0  0  0  0
  3 34  1  0  0  0  0
  4 11  1  0  0  0  0
  4  8  1  0  0  0  0
  5 11  2  0  0  0  0
  6  7  2  0  0  0  0
  6 12  1  0  0  0  0
  7  5  1  0  0  0  0
  8  3  1  0  0  0  0
 10 14  1  6  0  0  0
 10 13  1  0  0  0  0
 10  2  1  0  0  0  0
 11  1  1  0  0  0  0
 12  4  2  0  0  0  0
 13  6  1  0  0  0  0
 15 14  2  0  0  0  0
 16 17  1  0  0  0  0
 17 14  1  0  0  0  0
 18 12  1  0  0  0  0
 19 18  1  0  0  0  0
 20 19  1  0  0  0  0
 21 20  1  0  0  0  0
 22 21  1  0  0  0  0
 23 22  1  0  0  0  0
 24 23  1  0  0  0  0
 25 27  2  0  0  0  0
 26 25  1  0  0  0  0
 27 24  1  0  0  0  0
 28 25  1  0  0  0  0
 29 30  1  0  0  0  0
 29 31  1  0  0  0  0
 30 33  1  0  0  0  0
 31 32  2  0  0  0  0
 32 28  1  0  0  0  0
 33 28  2  0  0  0  0
 34 35  1  0  0  0  0
 35 36  1  0  0  0  0
 36 37  1  0  0  0  0
 38 37  1  0  0  0  0
 39 42  1  0  0  0  0
 40 39  1  0  0  0  0
 40 42  1  0  0  0  0
 41 40  2  0  0  0  0
 42 38  1  1  0  0  0
M  END
>  <MODEL>
8

>  <REMARK>
 VINA RESULT:      -6.8      2.833      7.416
  Name = 
  17 active torsions:
  status: ('A' for Active; 'I' for Inactive)
    1  A    between atoms: C_1  and  C_5
    2  A    between atoms: C_1  and  C_33
    3  A    between atoms: C_4  and  C_7
    4  A    between atoms: C_5  and  C_6
    5  A    between atoms: C_6  and  C_21
    6  A    between atoms: C_8  and  C_33
    7  A    between atoms: C_8  and  C_41
    8  A    between atoms: C_14  and  C_24
    9  A    between atoms: C_16  and  C_36
   10  A    between atoms: C_16  and  O_37
   11  A    between atoms: C_17  and  C_24
   12  A    between atoms: C_17  and  C_38
   13  A    between atoms: C_21  and  N_28
   14  A    between atoms: C_22  and  C_27
   15  A    between atoms: C_27  and  C_31
   16  A    between atoms: N_28  and  C_40
   17  A    between atoms: C_31  and  C_38
                            x       y       z     vdW  Elec       q    Type
                         _______ _______ _______ _____ _____    ______ ____

>  <TORSDO>
F 17

$$$$
=
 OpenBabel11042420013D

 42 46  0  0  1  0  0  0  0  0999 V2000
  161.7250  208.7380  149.1410 C   0  0  0  0  0  0  0  0  0  0  0  0
  160.5420  204.0220  149.7180 C   0  0  0  0  0  2  0  0  0  0  0  0
  162.0670  209.7850  149.9930 C   0  0  0  0  0  0  0  0  0  0  0  0
  161.6130  207.6510  151.2020 C   0  0  0  0  0  0  0  0  0  0  0  0
  161.0970  206.3270  149.2270 C   0  0  0  0  0  3  0  0  0  0  0  0
  161.0350  205.3440  151.4580 C   0  0  0  0  0  0  0  0  0  0  0  0
  160.8870  205.2410  150.0830 C   0  0  0  0  0  0  0  0  0  0  0  0
  162.0650  209.2260  151.5900 S   0  0  0  0  0  0  0  0  0  0  0  0
  161.6510  208.8710  147.7580 O   0  0  0  0  0  1  0  0  0  0  0  0
  160.4370  203.1920  150.9650 C   0  0  2  0  0  3  0  0  0  0  0  0
  161.4650  207.5430  149.8170 C   0  0  0  0  0  0  0  0  0  0  0  0
  161.4050  206.5660  152.0670 C   0  0  0  0  0  0  0  0  0  0  0  0
  160.7900  204.1810  152.0390 C   0  0  0  0  0  2  0  0  0  0  0  0
  161.4180  202.0540  150.9500 C   0  0  0  0  0  0  0  0  0  0  0  0
  162.4580  202.1040  151.6600 O   0  0  0  0  0  0  0  0  0  0  0  0
  161.1650  200.9800  148.8010 N   0  0  0  0  0  1  0  0  0  0  0  0
  161.1780  200.9200  150.1770 O   0  0  0  0  0  0  0  0  0  0  0  0
  161.5790  206.7390  153.4820 N   0  0  0  0  0  2  0  0  0  0  0  0
  160.4970  206.9070  154.4430 C   0  0  0  0  0  2  0  0  0  0  0  0
  161.0370  207.4990  155.7320 C   0  0  0  0  0  2  0  0  0  0  0  0
  161.1140  209.0140  155.6300 C   0  0  0  0  0  2  0  0  0  0  0  0
  159.8170  209.5690  155.0660 C   0  0  0  0  0  2  0  0  0  0  0  0
  159.4630  210.8780  155.7470 C   0  0  0  0  0  2  0  0  0  0  0  0
  160.2020  212.0160  155.0690 C   0  0  0  0  0  2  0  0  0  0  0  0
  158.5340  213.2680  153.7200 C   0  0  0  0  0  0  0  0  0  0  0  0
  158.0820  213.8920  154.8810 O   0  0  0  0  0  1  0  0  0  0  0  0
  159.5270  212.3780  153.7860 C   0  0  0  0  0  3  0  0  0  0  0  0
  157.9070  213.5990  152.4240 C   0  0  0  0  0  0  0  0  0  0  0  0
  156.5560  213.5870  149.9120 C   0  0  0  0  0  2  0  0  0  0  0  0
  155.9720  214.3740  151.0870 C   0  0  0  0  0  2  0  0  0  0  0  0
  158.0590  213.5800  149.9770 C   0  0  0  0  0  3  0  0  0  0  0  0
  158.6830  213.5440  151.1600 C   0  0  0  0  0  3  0  0  0  0  0  0
  156.6130  213.9490  152.3810 C   0  0  0  0  0  3  0  0  0  0  0  0
  162.4320  211.1680  149.5690 C   0  0  0  0  0  2  0  0  0  0  0  0
  161.2040  211.9270  149.0920 C   0  0  0  0  0  2  0  0  0  0  0  0
  161.6110  213.2840  148.5410 C   0  0  0  0  0  2  0  0  0  0  0  0
  161.5580  213.2820  147.0200 C   0  0  0  0  0  2  0  0  0  0  0  0
  160.3570  212.5030  146.4970 C   0  0  0  0  0  2  0  0  0  0  0  0
  158.5100  212.7330  145.0420 O   0  0  0  0  0  0  0  0  0  0  0  0
  159.6690  212.1980  144.2580 C   0  0  0  0  0  0  0  0  0  0  0  0
  160.1520  211.4400  143.3790 O   0  0  0  0  0  0  0  0  0  0  0  0
  159.7970  213.1530  145.2430 C   0  0  2  0  0  3  0  0  0  0  0  0
  1 11  1  0  0  0  0
  1  3  2  0  0  0  0
  2  7  1  0  0  0  0
  2 10  1  0  0  0  0
  3  8  1  0  0  0  0
  4  8  1  0  0  0  0
  4 12  1  0  0  0  0
  5 11  1  0  0  0  0
  5  7  2  0  0  0  0
  6 13  1  0  0  0  0
  6 12  2  0  0  0  0
  7  6  1  0  0  0  0
  9  1  1  0  0  0  0
 10 14  1  6  0  0  0
 10 13  1  0  0  0  0
 11  4  2  0  0  0  0
 12 18  1  0  0  0  0
 14 15  2  0  0  0  0
 16 17  1  0  0  0  0
 17 14  1  0  0  0  0
 18 19  1  0  0  0  0
 19 20  1  0  0  0  0
 21 20  1  0  0  0  0
 22 21  1  0  0  0  0
 22 23  1  0  0  0  0
 24 23  1  0  0  0  0
 25 27  2  0  0  0  0
 25 26  1  0  0  0  0
 27 24  1  0  0  0  0
 28 25  1  0  0  0  0
 29 31  1  0  0  0  0
 29 30  1  0  0  0  0
 30 33  1  0  0  0  0
 31 32  2  0  0  0  0
 32 28  1  0  0  0  0
 33 28  2  0  0  0  0
 34  3  1  0  0  0  0
 35 34  1  0  0  0  0
 36 35  1  0  0  0  0
 37 36  1  0  0  0  0
 38 37  1  0  0  0  0
 39 42  1  0  0  0  0
 40 39  1  0  0  0  0
 40 42  1  0  0  0  0
 41 40  2  0  0  0  0
 42 38  1  1  0  0  0
M  END
>  <MODEL>
9

>  <REMARK>
 VINA RESULT:      -6.6      3.162      7.928
  Name = 
  17 active torsions:
  status: ('A' for Active; 'I' for Inactive)
    1  A    between atoms: C_1  and  C_5
    2  A    between atoms: C_1  and  C_33
    3  A    between atoms: C_4  and  C_7
    4  A    between atoms: C_5  and  C_6
    5  A    between atoms: C_6  and  C_21
    6  A    between atoms: C_8  and  C_33
    7  A    between atoms: C_8  and  C_41
    8  A    between atoms: C_14  and  C_24
    9  A    between atoms: C_16  and  C_36
   10  A    between atoms: C_16  and  O_37
   11  A    between atoms: C_17  and  C_24
   12  A    between atoms: C_17  and  C_38
   13  A    between atoms: C_21  and  N_28
   14  A    between atoms: C_22  and  C_27
   15  A    between atoms: C_27  and  C_31
   16  A    between atoms: N_28  and  C_40
   17  A    between atoms: C_31  and  C_38
                            x       y       z     vdW  Elec       q    Type
                         _______ _______ _______ _____ _____    ______ ____

>  <TORSDO>
F 17

$$$$
