=
 OpenBabel11052409393D

 38 40  0  0  1  0  0  0  0  0999 V2000
  162.1490  208.8240  149.7100 C   0  0  0  0  0  0  0  0  0  0  0  0
  161.7940  210.8050  150.6580 C   0  0  0  0  0  3  0  0  0  0  0  0
  162.1690  208.6750  151.0820 C   0  0  0  0  0  3  0  0  0  0  0  0
  161.9080  210.1530  149.4470 C   0  0  0  0  0  0  0  0  0  0  0  0
  161.9620  209.8890  151.6310 N   0  0  0  0  0  0  0  0  0  0  0  0
  162.3020  207.7340  148.7080 C   0  0  0  0  0  2  0  0  0  0  0  0
  160.9450  207.1420  148.3780 C   0  0  0  0  0  2  0  0  0  0  0  0
  160.7050  202.6550  150.3550 C   0  0  0  0  0  3  0  0  0  0  0  0
  161.3990  201.9400  147.6980 C   0  0  0  0  0  3  0  0  0  0  0  0
  161.2150  200.9500  148.6770 C   0  0  0  0  0  3  0  0  0  0  0  0
  160.7650  204.9620  149.5900 N   0  0  0  0  0  0  0  0  0  0  0  0
  161.3790  204.6510  147.1410 S   0  0  0  0  0  0  0  0  0  0  0  0
  160.8680  201.3050  149.9960 C   0  0  0  0  0  3  0  0  0  0  0  0
  160.8910  203.6290  149.3740 C   0  0  0  0  0  0  0  0  0  0  0  0
  161.2270  203.2680  148.0760 C   0  0  0  0  0  0  0  0  0  0  0  0
  161.0040  205.6570  148.4510 C   0  0  0  0  0  0  0  0  0  0  0  0
  161.8010  210.7170  148.1720 O   0  0  0  0  0  0  0  0  0  0  0  0
  161.6280  212.1140  147.9630 C   0  0  0  0  0  2  0  0  0  0  0  0
  162.7880  212.6760  147.2880 N   0  0  0  0  0  2  0  0  0  0  0  0
  162.5230  214.0870  147.0570 C   0  0  0  0  0  2  0  0  0  0  0  0
  162.2880  214.3260  145.5780 C   0  0  0  0  0  2  0  0  0  0  0  0
  162.9730  213.3070  144.8020 N   0  0  0  0  0  2  0  0  0  0  0  0
  162.7240  213.6000  143.4020 C   0  0  0  0  0  2  0  0  0  0  0  0
  162.0760  212.3980  142.7340 C   0  0  1  0  0  3  0  0  0  0  0  0
  160.5910  212.4730  142.8730 C   0  0  0  0  0  0  0  0  0  0  0  0
  159.9740  211.9080  143.9810 O   0  0  0  0  0  1  0  0  0  0  0  0
  159.8930  213.0530  141.9970 O   0  0  0  0  0  0  0  0  0  0  0  0
  162.4250  212.3540  141.3810 O   0  0  0  0  0  0  0  0  0  0  0  0
  162.2870  211.0890  141.0410 O   0  0  0  0  0  1  0  0  0  0  0  0
  161.9060  210.1700  153.0560 C   0  0  0  0  0  2  0  0  0  0  0  0
  160.4810  210.4970  153.4910 C   0  0  0  0  0  2  0  0  0  0  0  0
  160.3830  210.6810  154.9980 C   0  0  0  0  0  2  0  0  0  0  0  0
  159.5820  209.5510  155.6250 C   0  0  0  0  0  2  0  0  0  0  0  0
  160.5150  208.4530  156.1130 C   0  0  0  0  0  2  0  0  0  0  0  0
  160.3760  207.2160  155.2850 C   0  0  0  0  0  3  0  0  0  0  0  0
  161.1250  207.0210  154.2090 C   0  0  0  0  0  3  0  0  0  0  0  0
  162.0030  205.3260  152.7400 C   0  0  0  0  0  2  0  0  0  0  0  0
  160.9780  205.7960  153.4320 C   0  0  0  0  0  3  0  0  0  0  0  0
  1  3  2  0  0  0  0
  2  5  1  0  0  0  0
  3  5  1  0  0  0  0
  4  1  1  0  0  0  0
  4  2  2  0  0  0  0
  5 30  1  0  0  0  0
  6  1  1  0  0  0  0
  7 16  1  0  0  0  0
  7  6  1  0  0  0  0
  9 15  2  0  0  0  0
  9 10  1  0  0  0  0
 10 13  2  0  0  0  0
 12 15  1  0  0  0  0
 12 16  1  0  0  0  0
 13  8  1  0  0  0  0
 14 11  1  0  0  0  0
 14  8  2  0  0  0  0
 15 14  1  0  0  0  0
 16 11  2  0  0  0  0
 17  4  1  0  0  0  0
 18 17  1  0  0  0  0
 19 18  1  0  0  0  0
 20 19  1  0  0  0  0
 21 20  1  0  0  0  0
 22 21  1  0  0  0  0
 23 22  1  0  0  0  0
 24 25  1  0  0  0  0
 24 23  1  6  0  0  0
 25 26  1  0  0  0  0
 27 25  2  0  0  0  0
 28 24  1  0  0  0  0
 29 28  1  0  0  0  0
 30 31  1  0  0  0  0
 31 32  1  0  0  0  0
 32 33  1  0  0  0  0
 33 34  1  0  0  0  0
 35 34  1  0  0  0  0
 36 35  2  0  0  0  0
 37 38  2  0  0  0  0
 38 36  1  0  0  0  0
M  END
>  <MODEL>
1

>  <REMARK>
 VINA RESULT:      -6.7      0.000      0.000
  Name = 
  20 active torsions:
  status: ('A' for Active; 'I' for Inactive)
    1  A    between atoms: C_2  and  C_20
    2  A    between atoms: C_4  and  C_32
    3  A    between atoms: C_4  and  C_36
    4  A    between atoms: C_5  and  C_32
    5  A    between atoms: C_7  and  C_13
    6  A    between atoms: N_8  and  C_24
    7  A    between atoms: N_8  and  C_37
    8  A    between atoms: C_10  and  C_11
    9  A    between atoms: C_10  and  N_38
   10  A    between atoms: C_11  and  C_33
   11  A    between atoms: C_13  and  C_19
   12  A    between atoms: C_14  and  C_35
   13  A    between atoms: N_15  and  C_16
   14  A    between atoms: N_15  and  C_18
   15  A    between atoms: C_16  and  C_24
   16  A    between atoms: C_18  and  O_30
   17  A    between atoms: C_19  and  C_33
   18  A    between atoms: C_20  and  O_21
   19  A    between atoms: C_20  and  C_37
   20  A    between atoms: C_28  and  O_30
                            x       y       z     vdW  Elec       q    Type
                         _______ _______ _______ _____ _____    ______ ____

>  <TORSDO>
F 20

$$$$
=
 OpenBabel11052409393D

 38 40  0  0  1  0  0  0  0  0999 V2000
  161.8020  206.2450  152.5220 C   0  0  0  0  0  0  0  0  0  0  0  0
  161.3430  208.4160  152.6790 C   0  0  0  0  0  3  0  0  0  0  0  0
  161.2400  206.4960  153.7570 C   0  0  0  0  0  3  0  0  0  0  0  0
  161.8590  207.4430  151.8480 C   0  0  0  0  0  0  0  0  0  0  0  0
  160.9820  207.8180  153.8300 N   0  0  0  0  0  0  0  0  0  0  0  0
  162.2130  204.9120  152.0010 C   0  0  0  0  0  2  0  0  0  0  0  0
  160.9840  204.0750  151.6990 C   0  0  0  0  0  2  0  0  0  0  0  0
  161.5510  204.3690  146.8310 C   0  0  0  0  0  3  0  0  0  0  0  0
  160.7660  201.6490  147.0300 C   0  0  0  0  0  3  0  0  0  0  0  0
  161.0480  202.2190  145.7790 C   0  0  0  0  0  3  0  0  0  0  0  0
  161.3350  204.4520  149.2520 N   0  0  0  0  0  0  0  0  0  0  0  0
  160.6190  202.0650  149.7630 S   0  0  0  0  0  0  0  0  0  0  0  0
  161.4400  203.5700  145.6790 C   0  0  0  0  0  3  0  0  0  0  0  0
  161.2680  203.7920  148.0690 C   0  0  0  0  0  0  0  0  0  0  0  0
  160.8880  202.4590  148.1550 C   0  0  0  0  0  0  0  0  0  0  0  0
  161.0050  203.6310  150.2790 C   0  0  0  0  0  0  0  0  0  0  0  0
  162.3550  207.6170  150.5520 O   0  0  0  0  0  0  0  0  0  0  0  0
  161.5180  207.9410  149.4470 C   0  0  0  0  0  2  0  0  0  0  0  0
  162.0790  209.0500  148.6910 N   0  0  0  0  0  2  0  0  0  0  0  0
  162.0570  210.2240  149.5480 C   0  0  0  0  0  2  0  0  0  0  0  0
  162.1400  211.4770  148.6990 C   0  0  0  0  0  2  0  0  0  0  0  0
  161.0940  211.4550  147.6910 N   0  0  0  0  0  2  0  0  0  0  0  0
  161.2060  212.6910  146.9350 C   0  0  0  0  0  2  0  0  0  0  0  0
  159.8450  213.3590  146.8400 C   0  0  1  0  0  3  0  0  0  0  0  0
  158.9830  212.6330  145.8600 C   0  0  0  0  0  0  0  0  0  0  0  0
  159.5140  212.2350  144.6410 O   0  0  0  0  0  0  0  0  0  0  0  0
  157.7810  212.3690  146.1350 O   0  0  0  0  0  1  0  0  0  0  0  0
  159.2280  213.3740  148.0950 O   0  0  0  0  0  0  0  0  0  0  0  0
  159.7240  214.4350  148.6990 O   0  0  0  0  0  1  0  0  0  0  0  0
  160.3840  208.4960  154.9690 C   0  0  0  0  0  2  0  0  0  0  0  0
  160.7560  209.9750  154.9760 C   0  0  0  0  0  2  0  0  0  0  0  0
  159.5660  210.8550  154.6200 C   0  0  0  0  0  2  0  0  0  0  0  0
  160.0280  212.1210  153.9160 C   0  0  0  0  0  2  0  0  0  0  0  0
  159.9660  211.9360  152.4070 C   0  0  0  0  0  2  0  0  0  0  0  0
  158.7680  212.6170  151.8270 C   0  0  0  0  0  3  0  0  0  0  0  0
  158.3020  213.7460  152.3410 C   0  0  0  0  0  3  0  0  0  0  0  0
  156.7150  214.0150  150.5490 C   0  0  0  0  0  2  0  0  0  0  0  0
  157.1420  214.3950  151.7430 C   0  0  0  0  0  3  0  0  0  0  0  0
  1  3  2  0  0  0  0
  2  5  1  0  0  0  0
  3  5  1  0  0  0  0
  4  1  1  0  0  0  0
  4  2  2  0  0  0  0
  5 30  1  0  0  0  0
  6  1  1  0  0  0  0
  7  6  1  0  0  0  0
  8 14  1  0  0  0  0
  9 15  1  0  0  0  0
 10  9  2  0  0  0  0
 11 16  2  0  0  0  0
 12 16  1  0  0  0  0
 13 10  1  0  0  0  0
 13  8  2  0  0  0  0
 14 15  2  0  0  0  0
 14 11  1  0  0  0  0
 15 12  1  0  0  0  0
 16  7  1  0  0  0  0
 17  4  1  0  0  0  0
 18 17  1  0  0  0  0
 19 18  1  0  0  0  0
 19 20  1  0  0  0  0
 21 20  1  0  0  0  0
 22 21  1  0  0  0  0
 23 22  1  0  0  0  0
 24 23  1  1  0  0  0
 24 28  1  0  0  0  0
 25 27  1  0  0  0  0
 25 24  1  0  0  0  0
 26 25  2  0  0  0  0
 28 29  1  0  0  0  0
 30 31  1  0  0  0  0
 32 31  1  0  0  0  0
 33 32  1  0  0  0  0
 34 33  1  0  0  0  0
 35 36  2  0  0  0  0
 35 34  1  0  0  0  0
 37 38  2  0  0  0  0
 38 36  1  0  0  0  0
M  END
>  <MODEL>
2

>  <REMARK>
 VINA RESULT:      -6.6      2.540      4.688
  Name = 
  20 active torsions:
  status: ('A' for Active; 'I' for Inactive)
    1  A    between atoms: C_2  and  C_20
    2  A    between atoms: C_4  and  C_32
    3  A    between atoms: C_4  and  C_36
    4  A    between atoms: C_5  and  C_32
    5  A    between atoms: C_7  and  C_13
    6  A    between atoms: N_8  and  C_24
    7  A    between atoms: N_8  and  C_37
    8  A    between atoms: C_10  and  C_11
    9  A    between atoms: C_10  and  N_38
   10  A    between atoms: C_11  and  C_33
   11  A    between atoms: C_13  and  C_19
   12  A    between atoms: C_14  and  C_35
   13  A    between atoms: N_15  and  C_16
   14  A    between atoms: N_15  and  C_18
   15  A    between atoms: C_16  and  C_24
   16  A    between atoms: C_18  and  O_30
   17  A    between atoms: C_19  and  C_33
   18  A    between atoms: C_20  and  O_21
   19  A    between atoms: C_20  and  C_37
   20  A    between atoms: C_28  and  O_30
                            x       y       z     vdW  Elec       q    Type
                         _______ _______ _______ _____ _____    ______ ____

>  <TORSDO>
F 20

$$$$
=
 OpenBabel11052409393D

 38 40  0  0  1  0  0  0  0  0999 V2000
  160.0820  211.4400  152.7920 C   0  0  0  0  0  0  0  0  0  0  0  0
  161.8590  210.2560  153.4180 C   0  0  0  0  0  3  0  0  0  0  0  0
  160.2070  211.5100  154.1650 C   0  0  0  0  0  3  0  0  0  0  0  0
  161.1180  210.6620  152.3270 C   0  0  0  0  0  0  0  0  0  0  0  0
  161.2820  210.7770  154.5180 N   0  0  0  0  0  0  0  0  0  0  0  0
  159.0500  212.1290  151.9700 C   0  0  0  0  0  2  0  0  0  0  0  0
  159.5790  213.4680  151.4940 C   0  0  0  0  0  2  0  0  0  0  0  0
  161.9520  212.9810  147.2240 C   0  0  0  0  0  3  0  0  0  0  0  0
  159.3700  213.6180  146.2340 C   0  0  0  0  0  3  0  0  0  0  0  0
  160.4340  213.3830  145.3490 C   0  0  0  0  0  3  0  0  0  0  0  0
  160.9830  213.1700  149.4460 N   0  0  0  0  0  0  0  0  0  0  0  0
  158.5710  213.7510  148.8820 S   0  0  0  0  0  0  0  0  0  0  0  0
  161.7170  213.0640  145.8400 C   0  0  0  0  0  3  0  0  0  0  0  0
  160.8880  213.2170  148.0940 C   0  0  0  0  0  0  0  0  0  0  0  0
  159.6270  213.5250  147.5990 C   0  0  0  0  0  0  0  0  0  0  0  0
  159.7850  213.4420  150.0210 C   0  0  0  0  0  0  0  0  0  0  0  0
  161.3560  210.3540  150.9850 O   0  0  0  0  0  0  0  0  0  0  0  0
  162.1500  209.2440  150.5810 C   0  0  0  0  0  2  0  0  0  0  0  0
  162.1150  209.0920  149.1340 N   0  0  0  0  0  2  0  0  0  0  0  0
  162.2740  207.6780  148.8360 C   0  0  0  0  0  2  0  0  0  0  0  0
  160.9110  207.0180  148.7510 C   0  0  0  0  0  2  0  0  0  0  0  0
  160.8290  206.2160  147.5430 N   0  0  0  0  0  2  0  0  0  0  0  0
  161.1780  204.8550  147.9120 C   0  0  0  0  0  2  0  0  0  0  0  0
  162.0930  204.2570  146.8570 C   0  0  1  0  0  3  0  0  0  0  0  0
  161.3010  203.8690  145.6510 C   0  0  0  0  0  0  0  0  0  0  0  0
  160.8980  202.5500  145.4880 O   0  0  0  0  0  1  0  0  0  0  0  0
  160.9870  204.7300  144.7850 O   0  0  0  0  0  0  0  0  0  0  0  0
  163.0810  205.1780  146.4990 O   0  0  0  0  0  0  0  0  0  0  0  0
  163.9290  204.4910  145.7600 O   0  0  0  0  0  1  0  0  0  0  0  0
  161.7640  210.5920  155.8770 C   0  0  0  0  0  2  0  0  0  0  0  0
  161.8220  209.1110  156.2360 C   0  0  0  0  0  2  0  0  0  0  0  0
  160.4310  208.5310  156.4510 C   0  0  0  0  0  2  0  0  0  0  0  0
  160.2580  207.2460  155.6560 C   0  0  0  0  0  2  0  0  0  0  0  0
  160.9260  207.3770  154.2950 C   0  0  0  0  0  2  0  0  0  0  0  0
  161.2080  206.0350  153.7000 C   0  0  0  0  0  3  0  0  0  0  0  0
  161.2750  205.8660  152.3870 C   0  0  0  0  0  3  0  0  0  0  0  0
  160.6140  203.8510  151.2450 C   0  0  0  0  0  2  0  0  0  0  0  0
  161.5700  204.5480  151.8360 C   0  0  0  0  0  3  0  0  0  0  0  0
  1  3  2  0  0  0  0
  2  5  1  0  0  0  0
  3  5  1  0  0  0  0
  4  1  1  0  0  0  0
  4  2  2  0  0  0  0
  5 30  1  0  0  0  0
  6  1  1  0  0  0  0
  7  6  1  0  0  0  0
  8 14  1  0  0  0  0
  9 15  1  0  0  0  0
 10 13  1  0  0  0  0
 10  9  2  0  0  0  0
 11 16  2  0  0  0  0
 12 16  1  0  0  0  0
 13  8  2  0  0  0  0
 14 11  1  0  0  0  0
 15 14  2  0  0  0  0
 15 12  1  0  0  0  0
 16  7  1  0  0  0  0
 17  4  1  0  0  0  0
 18 17  1  0  0  0  0
 19 18  1  0  0  0  0
 20 19  1  0  0  0  0
 21 20  1  0  0  0  0
 22 23  1  0  0  0  0
 22 21  1  0  0  0  0
 24 23  1  1  0  0  0
 25 24  1  0  0  0  0
 26 25  1  0  0  0  0
 27 25  2  0  0  0  0
 28 24  1  0  0  0  0
 29 28  1  0  0  0  0
 30 31  1  0  0  0  0
 31 32  1  0  0  0  0
 33 32  1  0  0  0  0
 34 33  1  0  0  0  0
 35 34  1  0  0  0  0
 36 35  2  0  0  0  0
 37 38  2  0  0  0  0
 38 36  1  0  0  0  0
M  END
>  <MODEL>
3

>  <REMARK>
 VINA RESULT:      -6.4      3.590      7.292
  Name = 
  20 active torsions:
  status: ('A' for Active; 'I' for Inactive)
    1  A    between atoms: C_2  and  C_20
    2  A    between atoms: C_4  and  C_32
    3  A    between atoms: C_4  and  C_36
    4  A    between atoms: C_5  and  C_32
    5  A    between atoms: C_7  and  C_13
    6  A    between atoms: N_8  and  C_24
    7  A    between atoms: N_8  and  C_37
    8  A    between atoms: C_10  and  C_11
    9  A    between atoms: C_10  and  N_38
   10  A    between atoms: C_11  and  C_33
   11  A    between atoms: C_13  and  C_19
   12  A    between atoms: C_14  and  C_35
   13  A    between atoms: N_15  and  C_16
   14  A    between atoms: N_15  and  C_18
   15  A    between atoms: C_16  and  C_24
   16  A    between atoms: C_18  and  O_30
   17  A    between atoms: C_19  and  C_33
   18  A    between atoms: C_20  and  O_21
   19  A    between atoms: C_20  and  C_37
   20  A    between atoms: C_28  and  O_30
                            x       y       z     vdW  Elec       q    Type
                         _______ _______ _______ _____ _____    ______ ____

>  <TORSDO>
F 20

$$$$
=
 OpenBabel11052409393D

 38 40  0  0  1  0  0  0  0  0999 V2000
  161.9460  206.9010  151.9630 C   0  0  0  0  0  0  0  0  0  0  0  0
  161.2580  208.9050  152.6420 C   0  0  0  0  0  3  0  0  0  0  0  0
  162.3130  207.8430  151.0240 C   0  0  0  0  0  3  0  0  0  0  0  0
  161.2930  207.5660  152.9760 C   0  0  0  0  0  0  0  0  0  0  0  0
  161.8760  209.0440  151.4540 N   0  0  0  0  0  0  0  0  0  0  0  0
  162.2540  205.4450  151.9110 C   0  0  0  0  0  2  0  0  0  0  0  0
  160.9800  204.6570  151.6750 C   0  0  0  0  0  2  0  0  0  0  0  0
  161.5540  204.3620  146.8090 C   0  0  0  0  0  3  0  0  0  0  0  0
  160.7580  201.6880  147.3310 C   0  0  0  0  0  3  0  0  0  0  0  0
  161.0440  202.1030  146.0210 C   0  0  0  0  0  3  0  0  0  0  0  0
  161.3350  204.7360  149.2010 N   0  0  0  0  0  0  0  0  0  0  0  0
  160.6100  202.4300  149.9940 S   0  0  0  0  0  0  0  0  0  0  0  0
  161.4410  203.4310  145.7610 C   0  0  0  0  0  3  0  0  0  0  0  0
  161.2670  203.9390  148.1060 C   0  0  0  0  0  0  0  0  0  0  0  0
  160.8810  202.6270  148.3510 C   0  0  0  0  0  0  0  0  0  0  0  0
  161.0010  204.0450  150.3190 C   0  0  0  0  0  0  0  0  0  0  0  0
  160.7700  206.9700  154.1270 O   0  0  0  0  0  0  0  0  0  0  0  0
  160.4360  207.7150  155.2930 C   0  0  0  0  0  2  0  0  0  0  0  0
  161.6240  207.9650  156.0950 N   0  0  0  0  0  2  0  0  0  0  0  0
  161.5440  209.3300  156.5870 C   0  0  0  0  0  2  0  0  0  0  0  0
  160.2960  209.9970  156.0420 C   0  0  0  0  0  2  0  0  0  0  0  0
  160.5500  211.4100  155.8260 N   0  0  0  0  0  2  0  0  0  0  0  0
  160.2480  211.6890  154.4330 C   0  0  0  0  0  2  0  0  0  0  0  0
  159.2370  212.8190  154.3430 C   0  0  1  0  0  3  0  0  0  0  0  0
  159.1430  213.3140  152.9370 C   0  0  0  0  0  0  0  0  0  0  0  0
  158.2180  214.2970  152.6140 O   0  0  0  0  0  1  0  0  0  0  0  0
  159.9030  212.8520  152.0430 O   0  0  0  0  0  0  0  0  0  0  0  0
  157.9840  212.3790  154.7770 O   0  0  0  0  0  0  0  0  0  0  0  0
  157.7010  211.3530  153.9990 O   0  0  0  0  0  1  0  0  0  0  0  0
  162.0600  210.3050  150.7550 C   0  0  0  0  0  2  0  0  0  0  0  0
  161.9570  210.1110  149.2460 C   0  0  0  0  0  2  0  0  0  0  0  0
  162.4300  211.3420  148.4870 C   0  0  0  0  0  2  0  0  0  0  0  0
  161.2990  211.9260  147.6550 C   0  0  0  0  0  2  0  0  0  0  0  0
  161.5360  213.4090  147.4140 C   0  0  0  0  0  2  0  0  0  0  0  0
  161.6400  213.7110  145.9530 C   0  0  0  0  0  3  0  0  0  0  0  0
  162.6270  213.2170  145.2180 C   0  0  0  0  0  3  0  0  0  0  0  0
  162.4370  212.5670  142.9060 C   0  0  0  0  0  2  0  0  0  0  0  0
  162.6920  213.5150  143.7930 C   0  0  0  0  0  3  0  0  0  0  0  0
  1  4  1  0  0  0  0
  2  4  2  0  0  0  0
  3  5  1  0  0  0  0
  3  1  2  0  0  0  0
  4 17  1  0  0  0  0
  5  2  1  0  0  0  0
  6  1  1  0  0  0  0
  7  6  1  0  0  0  0
  8 14  1  0  0  0  0
  9 15  1  0  0  0  0
 10  9  2  0  0  0  0
 11 16  2  0  0  0  0
 12 16  1  0  0  0  0
 13 10  1  0  0  0  0
 13  8  2  0  0  0  0
 14 15  2  0  0  0  0
 14 11  1  0  0  0  0
 15 12  1  0  0  0  0
 16  7  1  0  0  0  0
 17 18  1  0  0  0  0
 18 19  1  0  0  0  0
 19 20  1  0  0  0  0
 21 20  1  0  0  0  0
 22 21  1  0  0  0  0
 23 22  1  0  0  0  0
 24 23  1  6  0  0  0
 24 28  1  0  0  0  0
 25 24  1  0  0  0  0
 26 25  1  0  0  0  0
 27 25  2  0  0  0  0
 29 28  1  0  0  0  0
 30  5  1  0  0  0  0
 31 30  1  0  0  0  0
 32 31  1  0  0  0  0
 33 32  1  0  0  0  0
 34 33  1  0  0  0  0
 35 34  1  0  0  0  0
 36 35  2  0  0  0  0
 37 38  2  0  0  0  0
 38 36  1  0  0  0  0
M  END
>  <MODEL>
4

>  <REMARK>
 VINA RESULT:      -6.4      3.983      8.109
  Name = 
  20 active torsions:
  status: ('A' for Active; 'I' for Inactive)
    1  A    between atoms: C_2  and  C_20
    2  A    between atoms: C_4  and  C_32
    3  A    between atoms: C_4  and  C_36
    4  A    between atoms: C_5  and  C_32
    5  A    between atoms: C_7  and  C_13
    6  A    between atoms: N_8  and  C_24
    7  A    between atoms: N_8  and  C_37
    8  A    between atoms: C_10  and  C_11
    9  A    between atoms: C_10  and  N_38
   10  A    between atoms: C_11  and  C_33
   11  A    between atoms: C_13  and  C_19
   12  A    between atoms: C_14  and  C_35
   13  A    between atoms: N_15  and  C_16
   14  A    between atoms: N_15  and  C_18
   15  A    between atoms: C_16  and  C_24
   16  A    between atoms: C_18  and  O_30
   17  A    between atoms: C_19  and  C_33
   18  A    between atoms: C_20  and  O_21
   19  A    between atoms: C_20  and  C_37
   20  A    between atoms: C_28  and  O_30
                            x       y       z     vdW  Elec       q    Type
                         _______ _______ _______ _____ _____    ______ ____

>  <TORSDO>
F 20

$$$$
=
 OpenBabel11052409393D

 38 40  0  0  1  0  0  0  0  0999 V2000
  161.7780  206.3980  152.6280 C   0  0  0  0  0  0  0  0  0  0  0  0
  161.2110  208.4860  153.1460 C   0  0  0  0  0  3  0  0  0  0  0  0
  162.3260  207.2560  151.6960 C   0  0  0  0  0  3  0  0  0  0  0  0
  161.0870  207.1680  153.5360 C   0  0  0  0  0  0  0  0  0  0  0  0
  161.9600  208.5110  152.0270 N   0  0  0  0  0  0  0  0  0  0  0  0
  161.9540  204.9200  152.6680 C   0  0  0  0  0  2  0  0  0  0  0  0
  160.6530  204.2360  152.2950 C   0  0  0  0  0  2  0  0  0  0  0  0
  161.1160  200.5990  149.0310 C   0  0  0  0  0  3  0  0  0  0  0  0
  161.1040  202.8060  147.2470 C   0  0  0  0  0  3  0  0  0  0  0  0
  161.2240  201.4960  146.7580 C   0  0  0  0  0  3  0  0  0  0  0  0
  160.8830  202.2320  150.8170 N   0  0  0  0  0  0  0  0  0  0  0  0
  160.8350  204.4040  149.4920 S   0  0  0  0  0  0  0  0  0  0  0  0
  161.2280  200.3980  147.6430 C   0  0  0  0  0  3  0  0  0  0  0  0
  160.9970  201.9050  149.5050 C   0  0  0  0  0  0  0  0  0  0  0  0
  160.9890  202.9770  148.6230 C   0  0  0  0  0  0  0  0  0  0  0  0
  160.7840  203.5760  150.9680 C   0  0  0  0  0  0  0  0  0  0  0  0
  160.3940  206.6790  154.6470 O   0  0  0  0  0  0  0  0  0  0  0  0
  159.8700  207.5300  155.6600 C   0  0  0  0  0  2  0  0  0  0  0  0
  160.9490  208.1910  156.3790 N   0  0  0  0  0  2  0  0  0  0  0  0
  160.4610  209.4900  156.8090 C   0  0  0  0  0  2  0  0  0  0  0  0
  161.6340  210.4110  157.0820 C   0  0  0  0  0  2  0  0  0  0  0  0
  161.3260  211.7500  156.6110 N   0  0  0  0  0  2  0  0  0  0  0  0
  159.9230  211.7570  156.2370 C   0  0  0  0  0  2  0  0  0  0  0  0
  159.7060  212.7150  155.0780 C   0  0  1  0  0  3  0  0  0  0  0  0
  159.4580  211.9500  153.8190 C   0  0  0  0  0  0  0  0  0  0  0  0
  160.2140  212.2230  152.6870 O   0  0  0  0  0  0  0  0  0  0  0  0
  158.5750  211.0500  153.7790 O   0  0  0  0  0  1  0  0  0  0  0  0
  158.6220  213.5550  155.3440 O   0  0  0  0  0  0  0  0  0  0  0  0
  157.9660  212.9570  156.3180 O   0  0  0  0  0  1  0  0  0  0  0  0
  162.3310  209.7140  151.3010 C   0  0  0  0  0  2  0  0  0  0  0  0
  161.5080  209.8560  150.0250 C   0  0  0  0  0  2  0  0  0  0  0  0
  162.2190  209.2420  148.8270 C   0  0  0  0  0  2  0  0  0  0  0  0
  161.5500  207.9400  148.4170 C   0  0  0  0  0  2  0  0  0  0  0  0
  162.5860  206.9610  147.8860 C   0  0  0  0  0  2  0  0  0  0  0  0
  162.0990  206.2730  146.6510 C   0  0  0  0  0  3  0  0  0  0  0  0
  160.8340  206.3650  146.2670 C   0  0  0  0  0  3  0  0  0  0  0  0
  161.2810  205.1400  144.2410 C   0  0  0  0  0  2  0  0  0  0  0  0
  160.3930  205.6960  145.0490 C   0  0  0  0  0  3  0  0  0  0  0  0
  1  6  1  0  0  0  0
  1  4  1  0  0  0  0
  2  4  2  0  0  0  0
  3  5  1  0  0  0  0
  3  1  2  0  0  0  0
  4 17  1  0  0  0  0
  5  2  1  0  0  0  0
  7  6  1  0  0  0  0
  8 14  1  0  0  0  0
  9 15  1  0  0  0  0
 10  9  2  0  0  0  0
 10 13  1  0  0  0  0
 11 16  2  0  0  0  0
 12 16  1  0  0  0  0
 13  8  2  0  0  0  0
 14 11  1  0  0  0  0
 15 12  1  0  0  0  0
 15 14  2  0  0  0  0
 16  7  1  0  0  0  0
 17 18  1  0  0  0  0
 18 19  1  0  0  0  0
 19 20  1  0  0  0  0
 20 21  1  0  0  0  0
 22 21  1  0  0  0  0
 23 22  1  0  0  0  0
 24 28  1  0  0  0  0
 24 23  1  1  0  0  0
 25 24  1  0  0  0  0
 26 25  2  0  0  0  0
 27 25  1  0  0  0  0
 28 29  1  0  0  0  0
 30  5  1  0  0  0  0
 31 30  1  0  0  0  0
 32 31  1  0  0  0  0
 33 32  1  0  0  0  0
 34 33  1  0  0  0  0
 35 34  1  0  0  0  0
 36 35  2  0  0  0  0
 37 38  2  0  0  0  0
 38 36  1  0  0  0  0
M  END
>  <MODEL>
5

>  <REMARK>
 VINA RESULT:      -6.3      4.789      8.005
  Name = 
  20 active torsions:
  status: ('A' for Active; 'I' for Inactive)
    1  A    between atoms: C_2  and  C_20
    2  A    between atoms: C_4  and  C_32
    3  A    between atoms: C_4  and  C_36
    4  A    between atoms: C_5  and  C_32
    5  A    between atoms: C_7  and  C_13
    6  A    between atoms: N_8  and  C_24
    7  A    between atoms: N_8  and  C_37
    8  A    between atoms: C_10  and  C_11
    9  A    between atoms: C_10  and  N_38
   10  A    between atoms: C_11  and  C_33
   11  A    between atoms: C_13  and  C_19
   12  A    between atoms: C_14  and  C_35
   13  A    between atoms: N_15  and  C_16
   14  A    between atoms: N_15  and  C_18
   15  A    between atoms: C_16  and  C_24
   16  A    between atoms: C_18  and  O_30
   17  A    between atoms: C_19  and  C_33
   18  A    between atoms: C_20  and  O_21
   19  A    between atoms: C_20  and  C_37
   20  A    between atoms: C_28  and  O_30
                            x       y       z     vdW  Elec       q    Type
                         _______ _______ _______ _____ _____    ______ ____

>  <TORSDO>
F 20

$$$$
=
 OpenBabel11052409393D

 38 40  0  0  1  0  0  0  0  0999 V2000
  161.7940  206.9930  150.3110 C   0  0  0  0  0  0  0  0  0  0  0  0
  161.2590  207.8080  148.3110 C   0  0  0  0  0  3  0  0  0  0  0  0
  161.2270  205.9880  149.5550 C   0  0  0  0  0  3  0  0  0  0  0  0
  161.8190  208.1270  149.5310 C   0  0  0  0  0  0  0  0  0  0  0  0
  160.9030  206.5090  148.3540 N   0  0  0  0  0  0  0  0  0  0  0  0
  162.3300  206.8540  151.6930 C   0  0  0  0  0  2  0  0  0  0  0  0
  161.2140  206.4600  152.6420 C   0  0  0  0  0  2  0  0  0  0  0  0
  160.7710  211.0610  154.2970 C   0  0  0  0  0  3  0  0  0  0  0  0
  160.0890  209.6610  156.6690 C   0  0  0  0  0  3  0  0  0  0  0  0
  160.1050  211.0650  156.6500 C   0  0  0  0  0  3  0  0  0  0  0  0
  161.0500  208.8760  153.2660 N   0  0  0  0  0  0  0  0  0  0  0  0
  160.4810  207.3400  155.2120 S   0  0  0  0  0  0  0  0  0  0  0  0
  160.4420  211.7610  155.4710 C   0  0  0  0  0  3  0  0  0  0  0  0
  160.7520  209.6660  154.3270 C   0  0  0  0  0  0  0  0  0  0  0  0
  160.4130  208.9920  155.4930 C   0  0  0  0  0  0  0  0  0  0  0  0
  160.9440  207.5660  153.6000 C   0  0  0  0  0  0  0  0  0  0  0  0
  162.3280  209.3670  149.9260 O   0  0  0  0  0  0  0  0  0  0  0  0
  161.6050  210.5820  149.7590 C   0  0  0  0  0  2  0  0  0  0  0  0
  162.4310  211.5790  149.0950 N   0  0  0  0  0  2  0  0  0  0  0  0
  161.6450  212.1540  148.0160 C   0  0  0  0  0  2  0  0  0  0  0  0
  162.4720  213.1920  147.2810 C   0  0  0  0  0  2  0  0  0  0  0  0
  162.3390  212.9980  145.8480 N   0  0  0  0  0  2  0  0  0  0  0  0
  161.4290  214.0220  145.3630 C   0  0  0  0  0  2  0  0  0  0  0  0
  160.4550  213.4140  144.3680 C   0  0  1  0  0  3  0  0  0  0  0  0
  161.0870  213.3310  143.0170 C   0  0  0  0  0  0  0  0  0  0  0  0
  161.8510  212.2220  142.6810 O   0  0  0  0  0  1  0  0  0  0  0  0
  160.9230  214.2560  142.1750 O   0  0  0  0  0  0  0  0  0  0  0  0
  160.0700  212.1380  144.7910 O   0  0  0  0  0  0  0  0  0  0  0  0
  158.9110  212.3200  145.3900 O   0  0  0  0  0  1  0  0  0  0  0  0
  160.2830  205.7800  147.2600 C   0  0  0  0  0  2  0  0  0  0  0  0
  160.8770  206.2010  145.9200 C   0  0  0  0  0  2  0  0  0  0  0  0
  162.2620  205.6070  145.7070 C   0  0  0  0  0  2  0  0  0  0  0  0
  162.3760  204.2560  146.3960 C   0  0  0  0  0  2  0  0  0  0  0  0
  161.5570  203.2140  145.6490 C   0  0  0  0  0  2  0  0  0  0  0  0
  160.9170  202.2490  146.5930 C   0  0  0  0  0  3  0  0  0  0  0  0
  161.1640  202.2930  147.8950 C   0  0  0  0  0  3  0  0  0  0  0  0
  160.8330  201.3270  150.0760 C   0  0  0  0  0  2  0  0  0  0  0  0
  160.5110  201.3490  148.7930 C   0  0  0  0  0  3  0  0  0  0  0  0
  1  6  1  0  0  0  0
  2  5  1  0  0  0  0
  2  4  2  0  0  0  0
  3  1  2  0  0  0  0
  4 17  1  0  0  0  0
  4  1  1  0  0  0  0
  5  3  1  0  0  0  0
  6  7  1  0  0  0  0
  7 16  1  0  0  0  0
  8 14  2  0  0  0  0
  8 13  1  0  0  0  0
 10  9  1  0  0  0  0
 11 16  2  0  0  0  0
 11 14  1  0  0  0  0
 12 15  1  0  0  0  0
 13 10  2  0  0  0  0
 14 15  1  0  0  0  0
 15  9  2  0  0  0  0
 16 12  1  0  0  0  0
 18 17  1  0  0  0  0
 19 18  1  0  0  0  0
 20 19  1  0  0  0  0
 21 20  1  0  0  0  0
 22 21  1  0  0  0  0
 23 22  1  0  0  0  0
 24 28  1  0  0  0  0
 24 23  1  1  0  0  0
 25 24  1  0  0  0  0
 26 25  1  0  0  0  0
 27 25  2  0  0  0  0
 28 29  1  0  0  0  0
 30  5  1  0  0  0  0
 31 30  1  0  0  0  0
 32 31  1  0  0  0  0
 32 33  1  0  0  0  0
 34 33  1  0  0  0  0
 34 35  1  0  0  0  0
 35 36  2  0  0  0  0
 36 38  1  0  0  0  0
 38 37  2  0  0  0  0
M  END
>  <MODEL>
6

>  <REMARK>
 VINA RESULT:      -6.1      2.045      6.752
  Name = 
  20 active torsions:
  status: ('A' for Active; 'I' for Inactive)
    1  A    between atoms: C_2  and  C_20
    2  A    between atoms: C_4  and  C_32
    3  A    between atoms: C_4  and  C_36
    4  A    between atoms: C_5  and  C_32
    5  A    between atoms: C_7  and  C_13
    6  A    between atoms: N_8  and  C_24
    7  A    between atoms: N_8  and  C_37
    8  A    between atoms: C_10  and  C_11
    9  A    between atoms: C_10  and  N_38
   10  A    between atoms: C_11  and  C_33
   11  A    between atoms: C_13  and  C_19
   12  A    between atoms: C_14  and  C_35
   13  A    between atoms: N_15  and  C_16
   14  A    between atoms: N_15  and  C_18
   15  A    between atoms: C_16  and  C_24
   16  A    between atoms: C_18  and  O_30
   17  A    between atoms: C_19  and  C_33
   18  A    between atoms: C_20  and  O_21
   19  A    between atoms: C_20  and  C_37
   20  A    between atoms: C_28  and  O_30
                            x       y       z     vdW  Elec       q    Type
                         _______ _______ _______ _____ _____    ______ ____

>  <TORSDO>
F 20

$$$$
=
 OpenBabel11052409393D

 38 40  0  0  1  0  0  0  0  0999 V2000
  161.9120  207.1350  151.7830 C   0  0  0  0  0  0  0  0  0  0  0  0
  161.0270  209.0920  152.3650 C   0  0  0  0  0  3  0  0  0  0  0  0
  162.3290  208.1000  150.8880 C   0  0  0  0  0  3  0  0  0  0  0  0
  161.1050  207.7570  152.7080 C   0  0  0  0  0  0  0  0  0  0  0  0
  161.7710  209.2710  151.2570 N   0  0  0  0  0  0  0  0  0  0  0  0
  162.3130  205.7010  151.7760 C   0  0  0  0  0  2  0  0  0  0  0  0
  161.0820  204.8220  151.6630 C   0  0  0  0  0  2  0  0  0  0  0  0
  161.4090  204.2630  146.7960 C   0  0  0  0  0  3  0  0  0  0  0  0
  160.8090  201.5850  147.5180 C   0  0  0  0  0  3  0  0  0  0  0  0
  160.9980  201.9340  146.1720 C   0  0  0  0  0  3  0  0  0  0  0  0
  161.2980  204.7700  149.1720 N   0  0  0  0  0  0  0  0  0  0  0  0
  160.7600  202.4790  150.1380 S   0  0  0  0  0  0  0  0  0  0  0  0
  161.2980  203.2640  145.8130 C   0  0  0  0  0  3  0  0  0  0  0  0
  161.2200  203.9040  148.1310 C   0  0  0  0  0  0  0  0  0  0  0  0
  160.9300  202.5900  148.4730 C   0  0  0  0  0  0  0  0  0  0  0  0
  161.0680  204.1310  150.3450 C   0  0  0  0  0  0  0  0  0  0  0  0
  160.4870  207.1280  153.7930 O   0  0  0  0  0  0  0  0  0  0  0  0
  160.9400  207.2890  155.1330 C   0  0  0  0  0  2  0  0  0  0  0  0
  160.0470  208.1710  155.8700 N   0  0  0  0  0  2  0  0  0  0  0  0
  160.7630  209.4090  156.1270 C   0  0  0  0  0  2  0  0  0  0  0  0
  159.7890  210.4740  156.5930 C   0  0  0  0  0  2  0  0  0  0  0  0
  158.7140  210.6110  155.6260 N   0  0  0  0  0  2  0  0  0  0  0  0
  158.9420  211.8550  154.9100 C   0  0  0  0  0  2  0  0  0  0  0  0
  157.7300  212.1830  154.0540 C   0  0  1  0  0  3  0  0  0  0  0  0
  156.7980  213.0760  154.8050 C   0  0  0  0  0  0  0  0  0  0  0  0
  155.4840  213.2150  154.3770 O   0  0  0  0  0  0  0  0  0  0  0  0
  157.1900  213.6960  155.8310 O   0  0  0  0  0  1  0  0  0  0  0  0
  158.1330  212.8060  152.8700 O   0  0  0  0  0  0  0  0  0  0  0  0
  158.8940  211.9160  152.2650 O   0  0  0  0  0  1  0  0  0  0  0  0
  161.9580  210.5420  150.5780 C   0  0  0  0  0  2  0  0  0  0  0  0
  162.2370  210.3300  149.0930 C   0  0  0  0  0  2  0  0  0  0  0  0
  161.7030  211.4800  148.2510 C   0  0  0  0  0  2  0  0  0  0  0  0
  162.8010  212.4960  147.9770 C   0  0  0  0  0  2  0  0  0  0  0  0
  162.3390  213.4990  146.9310 C   0  0  0  0  0  2  0  0  0  0  0  0
  161.2510  212.9310  146.0780 C   0  0  0  0  0  3  0  0  0  0  0  0
  160.1000  213.5690  145.9160 C   0  0  0  0  0  3  0  0  0  0  0  0
  159.3630  212.5930  143.8410 C   0  0  0  0  0  2  0  0  0  0  0  0
  159.0640  212.9970  145.0650 C   0  0  0  0  0  3  0  0  0  0  0  0
  1  4  1  0  0  0  0
  2  4  2  0  0  0  0
  3  5  1  0  0  0  0
  3  1  2  0  0  0  0
  4 17  1  0  0  0  0
  5  2  1  0  0  0  0
  6  1  1  0  0  0  0
  7  6  1  0  0  0  0
  8 14  1  0  0  0  0
  9 15  1  0  0  0  0
 10  9  2  0  0  0  0
 11 16  2  0  0  0  0
 12 16  1  0  0  0  0
 13 10  1  0  0  0  0
 13  8  2  0  0  0  0
 14 15  2  0  0  0  0
 14 11  1  0  0  0  0
 15 12  1  0  0  0  0
 16  7  1  0  0  0  0
 17 18  1  0  0  0  0
 18 19  1  0  0  0  0
 19 20  1  0  0  0  0
 20 21  1  0  0  0  0
 22 21  1  0  0  0  0
 23 22  1  0  0  0  0
 24 25  1  0  0  0  0
 24 23  1  1  0  0  0
 25 27  1  0  0  0  0
 26 25  2  0  0  0  0
 28 24  1  0  0  0  0
 29 28  1  0  0  0  0
 30  5  1  0  0  0  0
 31 30  1  0  0  0  0
 32 31  1  0  0  0  0
 33 32  1  0  0  0  0
 34 33  1  0  0  0  0
 35 34  1  0  0  0  0
 36 35  2  0  0  0  0
 37 38  2  0  0  0  0
 38 36  1  0  0  0  0
M  END
>  <MODEL>
7

>  <REMARK>
 VINA RESULT:      -6.1      4.133      8.238
  Name = 
  20 active torsions:
  status: ('A' for Active; 'I' for Inactive)
    1  A    between atoms: C_2  and  C_20
    2  A    between atoms: C_4  and  C_32
    3  A    between atoms: C_4  and  C_36
    4  A    between atoms: C_5  and  C_32
    5  A    between atoms: C_7  and  C_13
    6  A    between atoms: N_8  and  C_24
    7  A    between atoms: N_8  and  C_37
    8  A    between atoms: C_10  and  C_11
    9  A    between atoms: C_10  and  N_38
   10  A    between atoms: C_11  and  C_33
   11  A    between atoms: C_13  and  C_19
   12  A    between atoms: C_14  and  C_35
   13  A    between atoms: N_15  and  C_16
   14  A    between atoms: N_15  and  C_18
   15  A    between atoms: C_16  and  C_24
   16  A    between atoms: C_18  and  O_30
   17  A    between atoms: C_19  and  C_33
   18  A    between atoms: C_20  and  O_21
   19  A    between atoms: C_20  and  C_37
   20  A    between atoms: C_28  and  O_30
                            x       y       z     vdW  Elec       q    Type
                         _______ _______ _______ _____ _____    ______ ____

>  <TORSDO>
F 20

$$$$
=
 OpenBabel11052409393D

 38 40  0  0  1  0  0  0  0  0999 V2000
  161.4790  208.8180  152.1360 C   0  0  0  0  0  0  0  0  0  0  0  0
  161.5510  207.9550  150.0870 C   0  0  0  0  0  3  0  0  0  0  0  0
  161.8970  209.7930  151.2530 C   0  0  0  0  0  3  0  0  0  0  0  0
  161.2570  207.6720  151.4050 C   0  0  0  0  0  0  0  0  0  0  0  0
  161.9420  209.2420  150.0230 N   0  0  0  0  0  0  0  0  0  0  0  0
  161.2560  208.9960  153.5970 C   0  0  0  0  0  2  0  0  0  0  0  0
  161.4430  210.4530  153.9740 C   0  0  0  0  0  2  0  0  0  0  0  0
  157.8320  213.5220  152.6930 C   0  0  0  0  0  3  0  0  0  0  0  0
  156.6290  212.3390  154.9750 C   0  0  0  0  0  3  0  0  0  0  0  0
  155.9480  213.3220  154.2410 C   0  0  0  0  0  3  0  0  0  0  0  0
  159.7420  212.0850  153.1400 N   0  0  0  0  0  0  0  0  0  0  0  0
  158.9440  210.8380  155.2090 S   0  0  0  0  0  0  0  0  0  0  0  0
  156.5440  213.9090  153.1060 C   0  0  0  0  0  3  0  0  0  0  0  0
  158.4990  212.5440  153.4310 C   0  0  0  0  0  0  0  0  0  0  0  0
  157.9000  211.9690  154.5440 C   0  0  0  0  0  0  0  0  0  0  0  0
  160.1240  211.1390  154.0330 C   0  0  0  0  0  0  0  0  0  0  0  0
  160.8130  206.4550  151.9280 O   0  0  0  0  0  0  0  0  0  0  0  0
  161.7030  205.4580  152.4150 C   0  0  0  0  0  2  0  0  0  0  0  0
  161.9770  204.4700  151.3820 N   0  0  0  0  0  2  0  0  0  0  0  0
  160.8840  203.5110  151.3890 C   0  0  0  0  0  2  0  0  0  0  0  0
  160.5670  203.0890  149.9680 C   0  0  0  0  0  2  0  0  0  0  0  0
  161.1410  204.0430  149.0340 N   0  0  0  0  0  2  0  0  0  0  0  0
  161.5680  203.2910  147.8670 C   0  0  0  0  0  2  0  0  0  0  0  0
  161.3340  204.1150  146.6120 C   0  0  1  0  0  3  0  0  0  0  0  0
  162.4470  205.0940  146.4270 C   0  0  0  0  0  0  0  0  0  0  0  0
  163.6080  204.7010  145.7750 O   0  0  0  0  0  0  0  0  0  0  0  0
  162.3360  206.2780  146.8480 O   0  0  0  0  0  1  0  0  0  0  0  0
  161.2470  203.2780  145.4970 O   0  0  0  0  0  0  0  0  0  0  0  0
  160.6320  204.0010  144.5820 O   0  0  0  0  0  1  0  0  0  0  0  0
  162.3320  209.9340  148.8060 C   0  0  0  0  0  2  0  0  0  0  0  0
  162.3190  211.4450  149.0110 C   0  0  0  0  0  2  0  0  0  0  0  0
  162.1680  212.1900  147.6930 C   0  0  0  0  0  2  0  0  0  0  0  0
  161.6510  213.6000  147.9310 C   0  0  0  0  0  2  0  0  0  0  0  0
  160.5810  213.5920  149.0130 C   0  0  0  0  0  2  0  0  0  0  0  0
  159.2280  213.3290  148.4350 C   0  0  0  0  0  3  0  0  0  0  0  0
  158.7430  214.0740  147.4520 C   0  0  0  0  0  3  0  0  0  0  0  0
  157.1760  212.5890  146.3830 C   0  0  0  0  0  2  0  0  0  0  0  0
  157.4270  213.7820  146.8970 C   0  0  0  0  0  3  0  0  0  0  0  0
  1  6  1  0  0  0  0
  2  4  2  0  0  0  0
  3  1  2  0  0  0  0
  4 17  1  0  0  0  0
  4  1  1  0  0  0  0
  5  2  1  0  0  0  0
  5  3  1  0  0  0  0
  6  7  1  0  0  0  0
  7 16  1  0  0  0  0
  8 13  2  0  0  0  0
  8 14  1  0  0  0  0
 10  9  2  0  0  0  0
 11 14  1  0  0  0  0
 11 16  2  0  0  0  0
 13 10  1  0  0  0  0
 14 15  2  0  0  0  0
 15  9  1  0  0  0  0
 15 12  1  0  0  0  0
 16 12  1  0  0  0  0
 17 18  1  0  0  0  0
 19 20  1  0  0  0  0
 19 18  1  0  0  0  0
 21 20  1  0  0  0  0
 22 21  1  0  0  0  0
 23 22  1  0  0  0  0
 24 23  1  1  0  0  0
 25 24  1  0  0  0  0
 25 27  1  0  0  0  0
 26 25  2  0  0  0  0
 28 24  1  0  0  0  0
 29 28  1  0  0  0  0
 30 31  1  0  0  0  0
 30  5  1  0  0  0  0
 32 33  1  0  0  0  0
 32 31  1  0  0  0  0
 33 34  1  0  0  0  0
 35 34  1  0  0  0  0
 36 35  2  0  0  0  0
 37 38  2  0  0  0  0
 38 36  1  0  0  0  0
M  END
>  <MODEL>
8

>  <REMARK>
 VINA RESULT:      -6.1      3.910      9.066
  Name = 
  20 active torsions:
  status: ('A' for Active; 'I' for Inactive)
    1  A    between atoms: C_2  and  C_20
    2  A    between atoms: C_4  and  C_32
    3  A    between atoms: C_4  and  C_36
    4  A    between atoms: C_5  and  C_32
    5  A    between atoms: C_7  and  C_13
    6  A    between atoms: N_8  and  C_24
    7  A    between atoms: N_8  and  C_37
    8  A    between atoms: C_10  and  C_11
    9  A    between atoms: C_10  and  N_38
   10  A    between atoms: C_11  and  C_33
   11  A    between atoms: C_13  and  C_19
   12  A    between atoms: C_14  and  C_35
   13  A    between atoms: N_15  and  C_16
   14  A    between atoms: N_15  and  C_18
   15  A    between atoms: C_16  and  C_24
   16  A    between atoms: C_18  and  O_30
   17  A    between atoms: C_19  and  C_33
   18  A    between atoms: C_20  and  O_21
   19  A    between atoms: C_20  and  C_37
   20  A    between atoms: C_28  and  O_30
                            x       y       z     vdW  Elec       q    Type
                         _______ _______ _______ _____ _____    ______ ____

>  <TORSDO>
F 20

$$$$
=
 OpenBabel11052409393D

 38 40  0  0  1  0  0  0  0  0999 V2000
  161.6340  207.4120  152.5450 C   0  0  0  0  0  0  0  0  0  0  0  0
  161.0740  209.4710  153.1760 C   0  0  0  0  0  3  0  0  0  0  0  0
  161.0070  207.3500  153.7730 C   0  0  0  0  0  3  0  0  0  0  0  0
  161.6690  208.7360  152.1710 C   0  0  0  0  0  0  0  0  0  0  0  0
  160.6880  208.6090  154.1360 N   0  0  0  0  0  0  0  0  0  0  0  0
  162.1250  206.2520  151.7520 C   0  0  0  0  0  2  0  0  0  0  0  0
  161.1990  205.0660  151.9460 C   0  0  0  0  0  2  0  0  0  0  0  0
  161.2030  200.9760  149.2310 C   0  0  0  0  0  3  0  0  0  0  0  0
  161.2050  202.9010  147.1450 C   0  0  0  0  0  3  0  0  0  0  0  0
  161.2080  201.5290  146.8480 C   0  0  0  0  0  3  0  0  0  0  0  0
  161.2000  202.8600  150.7670 N   0  0  0  0  0  0  0  0  0  0  0  0
  161.1940  204.8180  149.1430 S   0  0  0  0  0  0  0  0  0  0  0  0
  161.2050  200.5720  147.8840 C   0  0  0  0  0  3  0  0  0  0  0  0
  161.2000  202.3420  149.5140 C   0  0  0  0  0  0  0  0  0  0  0  0
  161.1980  203.2750  148.4860 C   0  0  0  0  0  0  0  0  0  0  0  0
  161.1960  204.2150  150.7250 C   0  0  0  0  0  0  0  0  0  0  0  0
  162.2140  209.2240  150.9790 O   0  0  0  0  0  0  0  0  0  0  0  0
  161.9510  208.6270  149.7140 C   0  0  0  0  0  2  0  0  0  0  0  0
  162.1650  209.5880  148.6430 N   0  0  0  0  0  2  0  0  0  0  0  0
  161.9620  210.9170  149.1960 C   0  0  0  0  0  2  0  0  0  0  0  0
  162.2360  211.9600  148.1290 C   0  0  0  0  0  2  0  0  0  0  0  0
  161.1350  211.9940  147.1830 N   0  0  0  0  0  2  0  0  0  0  0  0
  160.9790  213.3760  146.7620 C   0  0  0  0  0  2  0  0  0  0  0  0
  160.4690  213.4210  145.3310 C   0  0  1  0  0  3  0  0  0  0  0  0
  161.5320  212.9510  144.3930 C   0  0  0  0  0  0  0  0  0  0  0  0
  162.8520  213.3230  144.6060 O   0  0  0  0  0  1  0  0  0  0  0  0
  161.2410  212.2110  143.4140 O   0  0  0  0  0  0  0  0  0  0  0  0
  159.3320  212.6190  145.2010 O   0  0  0  0  0  0  0  0  0  0  0  0
  158.3910  213.4370  144.7740 O   0  0  0  0  0  1  0  0  0  0  0  0
  160.0110  208.9840  155.3670 C   0  0  0  0  0  2  0  0  0  0  0  0
  160.8440  209.9830  156.1630 C   0  0  0  0  0  2  0  0  0  0  0  0
  159.9980  211.1440  156.6660 C   0  0  0  0  0  2  0  0  0  0  0  0
  160.0980  212.3290  155.7180 C   0  0  0  0  0  2  0  0  0  0  0  0
  158.7210  212.9280  155.4780 C   0  0  0  0  0  2  0  0  0  0  0  0
  158.5140  213.2490  154.0330 C   0  0  0  0  0  3  0  0  0  0  0  0
  158.9800  212.4570  153.0790 C   0  0  0  0  0  3  0  0  0  0  0  0
  159.7030  213.3680  150.9690 C   0  0  0  0  0  2  0  0  0  0  0  0
  158.7480  212.7880  151.6780 C   0  0  0  0  0  3  0  0  0  0  0  0
  1  3  2  0  0  0  0
  2  5  1  0  0  0  0
  3  5  1  0  0  0  0
  4  1  1  0  0  0  0
  4  2  2  0  0  0  0
  5 30  1  0  0  0  0
  6  7  1  0  0  0  0
  6  1  1  0  0  0  0
  8 14  1  0  0  0  0
  9 15  1  0  0  0  0
 10  9  2  0  0  0  0
 10 13  1  0  0  0  0
 12 16  1  0  0  0  0
 13  8  2  0  0  0  0
 14 11  1  0  0  0  0
 15 12  1  0  0  0  0
 15 14  2  0  0  0  0
 16 11  2  0  0  0  0
 16  7  1  0  0  0  0
 17  4  1  0  0  0  0
 18 17  1  0  0  0  0
 19 20  1  0  0  0  0
 19 18  1  0  0  0  0
 21 20  1  0  0  0  0
 22 21  1  0  0  0  0
 23 22  1  0  0  0  0
 24 23  1  1  0  0  0
 25 26  1  0  0  0  0
 25 24  1  0  0  0  0
 27 25  2  0  0  0  0
 28 24  1  0  0  0  0
 29 28  1  0  0  0  0
 30 31  1  0  0  0  0
 31 32  1  0  0  0  0
 33 32  1  0  0  0  0
 34 33  1  0  0  0  0
 35 34  1  0  0  0  0
 36 35  2  0  0  0  0
 37 38  2  0  0  0  0
 38 36  1  0  0  0  0
M  END
>  <MODEL>
9

>  <REMARK>
 VINA RESULT:      -5.9      1.965      3.796
  Name = 
  20 active torsions:
  status: ('A' for Active; 'I' for Inactive)
    1  A    between atoms: C_2  and  C_20
    2  A    between atoms: C_4  and  C_32
    3  A    between atoms: C_4  and  C_36
    4  A    between atoms: C_5  and  C_32
    5  A    between atoms: C_7  and  C_13
    6  A    between atoms: N_8  and  C_24
    7  A    between atoms: N_8  and  C_37
    8  A    between atoms: C_10  and  C_11
    9  A    between atoms: C_10  and  N_38
   10  A    between atoms: C_11  and  C_33
   11  A    between atoms: C_13  and  C_19
   12  A    between atoms: C_14  and  C_35
   13  A    between atoms: N_15  and  C_16
   14  A    between atoms: N_15  and  C_18
   15  A    between atoms: C_16  and  C_24
   16  A    between atoms: C_18  and  O_30
   17  A    between atoms: C_19  and  C_33
   18  A    between atoms: C_20  and  O_21
   19  A    between atoms: C_20  and  C_37
   20  A    between atoms: C_28  and  O_30
                            x       y       z     vdW  Elec       q    Type
                         _______ _______ _______ _____ _____    ______ ____

>  <TORSDO>
F 20

$$$$
