=
 OpenBabel11042420293D

 31 33  0  0  1  0  0  0  0  0999 V2000
  161.3420  208.8310  155.8240 N   0  0  0  0  0  2  0  0  0  0  0  0
  160.7980  209.0210  152.8410 N   0  0  0  0  0  0  0  0  0  0  0  0
  161.0560  210.0440  153.6110 C   0  0  0  0  0  0  0  0  0  0  0  0
  160.1150  206.9240  156.6680 C   0  0  0  0  0  1  0  0  0  0  0  0
  162.4310  210.8210  155.3750 O   0  0  0  0  0  0  0  0  0  0  0  0
  161.6550  209.9200  154.9590 C   0  0  0  0  0  0  0  0  0  0  0  0
  160.9620  207.6120  153.1010 C   0  0  0  0  0  0  0  0  0  0  0  0
  160.7380  207.0740  154.3060 C   0  0  0  0  0  3  0  0  0  0  0  0
  160.3160  207.8610  155.4960 C   0  0  2  0  0  3  0  0  0  0  0  0
  161.2790  206.7160  151.9630 C   0  0  0  0  0  0  0  0  0  0  0  0
  160.9680  203.9930  150.5560 C   0  0  0  0  0  0  0  0  0  0  0  0
  161.3130  204.3450  148.0540 C   0  0  0  0  0  1  0  0  0  0  0  0
  161.0830  206.2590  149.5050 C   0  0  0  0  0  3  0  0  0  0  0  0
  161.1650  204.9240  149.4170 C   0  0  0  0  0  0  0  0  0  0  0  0
  160.8850  207.0590  150.7320 C   0  0  0  0  0  3  0  0  0  0  0  0
  161.3750  204.2540  151.7990 C   0  0  0  0  0  3  0  0  0  0  0  0
  162.1190  205.4910  152.1760 C   0  0  0  0  0  2  0  0  0  0  0  0
  160.3500  202.7720  150.3170 O   0  0  0  0  0  1  0  0  0  0  0  0
  160.6140  211.3830  151.6900 O   0  0  0  0  0  1  0  0  0  0  0  0
  160.8240  211.4240  153.0700 C   0  0  1  0  0  3  0  0  0  0  0  0
  159.8610  212.6520  154.8290 O   0  0  0  0  0  0  0  0  0  0  0  0
  159.6760  212.0980  153.7570 C   0  0  0  0  0  0  0  0  0  0  0  0
  158.3040  212.0750  153.1490 C   0  0  1  0  0  3  0  0  0  0  0  0
  157.3680  211.6640  154.1000 O   0  0  0  0  0  1  0  0  0  0  0  0
  157.9370  213.4470  152.6110 C   0  0  0  0  0  2  0  0  0  0  0  0
  156.0970  214.2750  150.9720 S   0  0  0  0  0  0  0  0  0  0  0  0
  157.1470  213.3850  148.5310 C   0  0  0  0  0  2  0  0  0  0  0  0
  158.5810  213.6710  148.9790 C   0  0  0  0  0  2  0  0  0  0  0  0
  158.6650  214.0180  150.4660 C   0  0  0  0  0  2  0  0  0  0  0  0
  156.1750  214.3890  149.1370 C   0  0  0  0  0  2  0  0  0  0  0  0
  157.6000  213.3510  151.2010 N   0  0  0  0  0  0  0  0  0  0  0  0
  2  7  1  0  0  0  0
  2  3  2  0  0  0  0
  3  6  1  0  0  0  0
  6  5  2  0  0  0  0
  6  1  1  0  0  0  0
  7  8  2  0  0  0  0
  8  9  1  0  0  0  0
  9  1  1  0  0  0  0
  9  4  1  1  0  0  0
 10 17  1  0  0  0  0
 10  7  1  0  0  0  0
 11 16  2  0  0  0  0
 12 14  1  0  0  0  0
 13 15  1  0  0  0  0
 14 13  2  0  0  0  0
 14 11  1  0  0  0  0
 15 10  2  0  0  0  0
 16 17  1  0  0  0  0
 18 11  1  0  0  0  0
 20 19  1  6  0  0  0
 20  3  1  0  0  0  0
 20 22  1  0  0  0  0
 22 21  2  0  0  0  0
 23 22  1  0  0  0  0
 23 24  1  1  0  0  0
 25 23  1  0  0  0  0
 26 31  1  0  0  0  0
 27 28  1  0  0  0  0
 27 30  1  0  0  0  0
 28 29  1  0  0  0  0
 29 31  1  0  0  0  0
 30 26  1  0  0  0  0
 31 25  1  0  0  0  0
M  END
>  <MODEL>
1

>  <REMARK>
 VINA RESULT:      -8.3      0.000      0.000
  Name = 
  6 active torsions:
  status: ('A' for Active; 'I' for Inactive)
    1  A    between atoms: C_3  and  C_14
    2  A    between atoms: C_8  and  C_18
    3  A    between atoms: C_18  and  C_26
    4  A    between atoms: C_19  and  C_26
    5  A    between atoms: C_19  and  C_31
    6  A    between atoms: N_29  and  C_31
                            x       y       z     vdW  Elec       q    Type
                         _______ _______ _______ _____ _____    ______ ____

>  <TORSDO>
F 6

$$$$
=
 OpenBabel11042420293D

 31 33  0  0  1  0  0  0  0  0999 V2000
  161.4840  208.7590  155.5570 N   0  0  0  0  0  2  0  0  0  0  0  0
  160.8620  208.7490  152.5840 N   0  0  0  0  0  0  0  0  0  0  0  0
  161.1410  209.8210  153.2760 C   0  0  0  0  0  0  0  0  0  0  0  0
  160.2770  206.9170  156.5600 C   0  0  0  0  0  1  0  0  0  0  0  0
  162.5640  210.7110  154.9460 O   0  0  0  0  0  0  0  0  0  0  0  0
  161.7750  209.7860  154.6130 C   0  0  0  0  0  0  0  0  0  0  0  0
  161.0300  207.3600  152.9340 C   0  0  0  0  0  0  0  0  0  0  0  0
  160.8380  206.9060  154.1780 C   0  0  0  0  0  3  0  0  0  0  0  0
  160.4490  207.7720  155.3220 C   0  0  2  0  0  3  0  0  0  0  0  0
  161.3160  206.3880  151.8510 C   0  0  0  0  0  0  0  0  0  0  0  0
  160.8830  203.6120  150.5870 C   0  0  0  0  0  0  0  0  0  0  0  0
  161.2810  203.8090  148.0760 C   0  0  0  0  0  1  0  0  0  0  0  0
  161.1310  205.8090  149.4190 C   0  0  0  0  0  3  0  0  0  0  0  0
  161.1450  204.4690  149.4030 C   0  0  0  0  0  0  0  0  0  0  0  0
  160.9580  206.6840  150.5970 C   0  0  0  0  0  3  0  0  0  0  0  0
  161.2860  203.9190  151.8210 C   0  0  0  0  0  3  0  0  0  0  0  0
  162.0880  205.1360  152.1430 C   0  0  0  0  0  2  0  0  0  0  0  0
  160.2060  202.4130  150.4040 O   0  0  0  0  0  1  0  0  0  0  0  0
  161.2170  211.1360  151.2900 O   0  0  0  0  0  1  0  0  0  0  0  0
  160.8970  211.1620  152.6490 C   0  0  1  0  0  3  0  0  0  0  0  0
  158.8070  211.9120  151.8740 O   0  0  0  0  0  0  0  0  0  0  0  0
  159.4810  211.6110  152.8470 C   0  0  0  0  0  0  0  0  0  0  0  0
  158.9010  211.7180  154.2260 C   0  0  1  0  0  3  0  0  0  0  0  0
  159.7350  212.4920  155.0360 O   0  0  0  0  0  1  0  0  0  0  0  0
  157.5100  212.3260  154.1740 C   0  0  0  0  0  2  0  0  0  0  0  0
  156.1420  213.3350  156.1400 S   0  0  0  0  0  0  0  0  0  0  0  0
  155.0600  211.0060  157.2610 C   0  0  0  0  0  2  0  0  0  0  0  0
  154.8970  210.3530  155.8870 C   0  0  0  0  0  2  0  0  0  0  0  0
  155.5810  211.1560  154.7800 C   0  0  0  0  0  2  0  0  0  0  0  0
  154.8620  212.5140  157.1760 C   0  0  0  0  0  2  0  0  0  0  0  0
  156.7300  211.8740  155.3130 N   0  0  0  0  0  0  0  0  0  0  0  0
  2  7  1  0  0  0  0
  2  3  2  0  0  0  0
  3  6  1  0  0  0  0
  6  5  2  0  0  0  0
  6  1  1  0  0  0  0
  7  8  2  0  0  0  0
  8  9  1  0  0  0  0
  9  1  1  0  0  0  0
  9  4  1  1  0  0  0
 10 17  1  0  0  0  0
 10  7  1  0  0  0  0
 11 16  2  0  0  0  0
 12 14  1  0  0  0  0
 13 15  1  0  0  0  0
 14 13  2  0  0  0  0
 14 11  1  0  0  0  0
 15 10  2  0  0  0  0
 16 17  1  0  0  0  0
 18 11  1  0  0  0  0
 20 19  1  6  0  0  0
 20 22  1  0  0  0  0
 20  3  1  0  0  0  0
 21 22  2  0  0  0  0
 22 23  1  0  0  0  0
 23 24  1  1  0  0  0
 25 23  1  0  0  0  0
 25 31  1  0  0  0  0
 26 30  1  0  0  0  0
 28 27  1  0  0  0  0
 29 31  1  0  0  0  0
 29 28  1  0  0  0  0
 30 27  1  0  0  0  0
 31 26  1  0  0  0  0
M  END
>  <MODEL>
2

>  <REMARK>
 VINA RESULT:      -7.9      2.238      3.310
  Name = 
  6 active torsions:
  status: ('A' for Active; 'I' for Inactive)
    1  A    between atoms: C_3  and  C_14
    2  A    between atoms: C_8  and  C_18
    3  A    between atoms: C_18  and  C_26
    4  A    between atoms: C_19  and  C_26
    5  A    between atoms: C_19  and  C_31
    6  A    between atoms: N_29  and  C_31
                            x       y       z     vdW  Elec       q    Type
                         _______ _______ _______ _____ _____    ______ ____

>  <TORSDO>
F 6

$$$$
=
 OpenBabel11042420293D

 31 33  0  0  1  0  0  0  0  0999 V2000
  160.8840  210.7420  151.2290 N   0  0  0  0  0  2  0  0  0  0  0  0
  161.1680  207.9140  152.3000 N   0  0  0  0  0  0  0  0  0  0  0  0
  160.8600  208.9520  153.0300 C   0  0  0  0  0  0  0  0  0  0  0  0
  162.3760  210.9580  149.3360 C   0  0  0  0  0  1  0  0  0  0  0  0
  159.5500  210.9220  153.1100 O   0  0  0  0  0  0  0  0  0  0  0  0
  160.3860  210.2350  152.4650 C   0  0  0  0  0  0  0  0  0  0  0  0
  161.1820  207.7720  150.8650 C   0  0  0  0  0  0  0  0  0  0  0  0
  161.5570  208.7650  150.0490 C   0  0  0  0  0  3  0  0  0  0  0  0
  161.9810  210.1080  150.5260 C   0  0  2  0  0  3  0  0  0  0  0  0
  160.8780  206.4420  150.2830 C   0  0  0  0  0  0  0  0  0  0  0  0
  161.4520  204.2650  148.1810 C   0  0  0  0  0  0  0  0  0  0  0  0
  160.7500  202.0140  149.1530 C   0  0  0  0  0  1  0  0  0  0  0  0
  160.8420  203.9540  150.5860 C   0  0  0  0  0  3  0  0  0  0  0  0
  160.9680  203.4740  149.3400 C   0  0  0  0  0  0  0  0  0  0  0  0
  161.0560  205.3470  151.0300 C   0  0  0  0  0  3  0  0  0  0  0  0
  161.1640  205.5540  147.9970 C   0  0  0  0  0  3  0  0  0  0  0  0
  160.2800  206.3360  148.9110 C   0  0  0  0  0  2  0  0  0  0  0  0
  162.2260  203.6280  147.2190 O   0  0  0  0  0  1  0  0  0  0  0  0
  161.3180  207.5340  154.8890 O   0  0  0  0  0  1  0  0  0  0  0  0
  160.8950  208.8130  154.5230 C   0  0  1  0  0  3  0  0  0  0  0  0
  162.5690  210.4640  154.4570 O   0  0  0  0  0  0  0  0  0  0  0  0
  161.7700  209.8550  155.1520 C   0  0  0  0  0  0  0  0  0  0  0  0
  161.6850  210.1340  156.6230 C   0  0  1  0  0  3  0  0  0  0  0  0
  162.8550  209.7100  157.2570 O   0  0  0  0  0  1  0  0  0  0  0  0
  161.4630  211.6170  156.8730 C   0  0  0  0  0  2  0  0  0  0  0  0
  158.9260  211.2040  157.2610 S   0  0  0  0  0  0  0  0  0  0  0  0
  157.8260  213.0160  155.4280 C   0  0  0  0  0  2  0  0  0  0  0  0
  158.9350  214.0360  155.6850 C   0  0  0  0  0  2  0  0  0  0  0  0
  160.0670  213.4590  156.5360 C   0  0  0  0  0  2  0  0  0  0  0  0
  157.5060  212.2260  156.6910 C   0  0  0  0  0  2  0  0  0  0  0  0
  160.1870  212.0260  156.3120 N   0  0  0  0  0  0  0  0  0  0  0  0
  1  6  1  0  0  0  0
  2  3  2  0  0  0  0
  3 20  1  0  0  0  0
  6  3  1  0  0  0  0
  6  5  2  0  0  0  0
  7  2  1  0  0  0  0
  8  9  1  0  0  0  0
  8  7  2  0  0  0  0
  9  4  1  6  0  0  0
  9  1  1  0  0  0  0
 10  7  1  0  0  0  0
 10 15  2  0  0  0  0
 11 14  1  0  0  0  0
 12 14  1  0  0  0  0
 13 15  1  0  0  0  0
 14 13  2  0  0  0  0
 16 11  2  0  0  0  0
 16 17  1  0  0  0  0
 17 10  1  0  0  0  0
 18 11  1  0  0  0  0
 20 19  1  6  0  0  0
 20 22  1  0  0  0  0
 21 22  2  0  0  0  0
 22 23  1  0  0  0  0
 23 25  1  0  0  0  0
 23 24  1  1  0  0  0
 27 28  1  0  0  0  0
 27 30  1  0  0  0  0
 28 29  1  0  0  0  0
 30 26  1  0  0  0  0
 31 29  1  0  0  0  0
 31 25  1  0  0  0  0
 31 26  1  0  0  0  0
M  END
>  <MODEL>
3

>  <REMARK>
 VINA RESULT:      -7.6      3.055      4.776
  Name = 
  6 active torsions:
  status: ('A' for Active; 'I' for Inactive)
    1  A    between atoms: C_3  and  C_14
    2  A    between atoms: C_8  and  C_18
    3  A    between atoms: C_18  and  C_26
    4  A    between atoms: C_19  and  C_26
    5  A    between atoms: C_19  and  C_31
    6  A    between atoms: N_29  and  C_31
                            x       y       z     vdW  Elec       q    Type
                         _______ _______ _______ _____ _____    ______ ____

>  <TORSDO>
F 6

$$$$
=
 OpenBabel11042420293D

 31 33  0  0  1  0  0  0  0  0999 V2000
  160.6240  206.6700  154.3810 N   0  0  0  0  0  2  0  0  0  0  0  0
  161.3300  209.1220  152.7330 N   0  0  0  0  0  0  0  0  0  0  0  0
  161.6050  207.8940  152.3840 C   0  0  0  0  0  0  0  0  0  0  0  0
  160.6370  207.3280  156.7100 C   0  0  0  0  0  1  0  0  0  0  0  0
  160.7520  205.6870  152.2910 O   0  0  0  0  0  0  0  0  0  0  0  0
  160.9650  206.7080  152.9980 C   0  0  0  0  0  0  0  0  0  0  0  0
  160.4450  209.6070  153.7630 C   0  0  0  0  0  0  0  0  0  0  0  0
  160.2970  208.9810  154.9370 C   0  0  0  0  0  3  0  0  0  0  0  0
  161.0090  207.7250  155.2970 C   0  0  2  0  0  3  0  0  0  0  0  0
  159.7630  210.9070  153.5540 C   0  0  0  0  0  0  0  0  0  0  0  0
  158.4650  212.9530  151.6500 C   0  0  0  0  0  0  0  0  0  0  0  0
  156.7530  214.3000  152.9750 C   0  0  0  0  0  1  0  0  0  0  0  0
  157.7380  212.3290  153.9600 C   0  0  0  0  0  3  0  0  0  0  0  0
  157.7150  213.1660  152.9130 C   0  0  0  0  0  0  0  0  0  0  0  0
  158.5630  211.1120  154.1090 C   0  0  0  0  0  3  0  0  0  0  0  0
  159.6860  212.4160  151.6000 C   0  0  0  0  0  3  0  0  0  0  0  0
  160.4550  212.0140  152.8140 C   0  0  0  0  0  2  0  0  0  0  0  0
  157.8830  213.3540  150.4540 O   0  0  0  0  0  1  0  0  0  0  0  0
  163.1040  206.3900  151.3020 O   0  0  0  0  0  1  0  0  0  0  0  0
  162.5470  207.6690  151.2390 C   0  0  1  0  0  3  0  0  0  0  0  0
  161.6390  209.0200  149.5420 O   0  0  0  0  0  0  0  0  0  0  0  0
  161.8690  207.8820  149.9190 C   0  0  0  0  0  0  0  0  0  0  0  0
  161.4530  206.7110  149.0790 C   0  0  1  0  0  3  0  0  0  0  0  0
  160.0810  206.4890  149.2170 O   0  0  0  0  0  1  0  0  0  0  0  0
  161.8010  206.9530  147.6190 C   0  0  0  0  0  2  0  0  0  0  0  0
  160.3930  206.2030  145.5670 S   0  0  0  0  0  0  0  0  0  0  0  0
  161.2990  203.5700  145.2580 C   0  0  0  0  0  2  0  0  0  0  0  0
  162.7210  203.9510  145.6710 C   0  0  0  0  0  2  0  0  0  0  0  0
  162.8030  205.3780  146.2160 C   0  0  0  0  0  2  0  0  0  0  0  0
  160.6210  204.7130  144.5130 C   0  0  0  0  0  2  0  0  0  0  0  0
  161.5450  205.7510  146.8450 N   0  0  0  0  0  0  0  0  0  0  0  0
  1  9  1  0  0  0  0
  2  7  1  0  0  0  0
  3  2  2  0  0  0  0
  3  6  1  0  0  0  0
  5  6  2  0  0  0  0
  6  1  1  0  0  0  0
  7  8  2  0  0  0  0
  8  9  1  0  0  0  0
  9  4  1  1  0  0  0
 10  7  1  0  0  0  0
 10 15  2  0  0  0  0
 11 14  1  0  0  0  0
 13 15  1  0  0  0  0
 14 12  1  0  0  0  0
 14 13  2  0  0  0  0
 16 11  2  0  0  0  0
 16 17  1  0  0  0  0
 17 10  1  0  0  0  0
 18 11  1  0  0  0  0
 20 19  1  6  0  0  0
 20  3  1  0  0  0  0
 21 22  2  0  0  0  0
 22 20  1  0  0  0  0
 23 24  1  6  0  0  0
 23 22  1  0  0  0  0
 25 23  1  0  0  0  0
 26 31  1  0  0  0  0
 27 28  1  0  0  0  0
 28 29  1  0  0  0  0
 29 31  1  0  0  0  0
 30 27  1  0  0  0  0
 30 26  1  0  0  0  0
 31 25  1  0  0  0  0
M  END
>  <MODEL>
4

>  <REMARK>
 VINA RESULT:      -6.8      3.289      7.584
  Name = 
  6 active torsions:
  status: ('A' for Active; 'I' for Inactive)
    1  A    between atoms: C_3  and  C_14
    2  A    between atoms: C_8  and  C_18
    3  A    between atoms: C_18  and  C_26
    4  A    between atoms: C_19  and  C_26
    5  A    between atoms: C_19  and  C_31
    6  A    between atoms: N_29  and  C_31
                            x       y       z     vdW  Elec       q    Type
                         _______ _______ _______ _____ _____    ______ ____

>  <TORSDO>
F 6

$$$$
=
 OpenBabel11042420293D

 31 33  0  0  1  0  0  0  0  0999 V2000
  161.6660  205.0620  152.3380 N   0  0  0  0  0  2  0  0  0  0  0  0
  160.8930  206.7340  149.9220 N   0  0  0  0  0  0  0  0  0  0  0  0
  161.1900  207.2250  151.0950 C   0  0  0  0  0  0  0  0  0  0  0  0
  160.5430  202.9280  152.1370 C   0  0  0  0  0  1  0  0  0  0  0  0
  162.6810  207.0560  152.9260 O   0  0  0  0  0  0  0  0  0  0  0  0
  161.8920  206.4570  152.1480 C   0  0  0  0  0  0  0  0  0  0  0  0
  161.1020  205.4040  149.4040 C   0  0  0  0  0  0  0  0  0  0  0  0
  160.9820  204.3100  150.1650 C   0  0  0  0  0  3  0  0  0  0  0  0
  160.6370  204.3450  151.6120 C   0  0  2  0  0  3  0  0  0  0  0  0
  161.3490  205.2430  147.9510 C   0  0  0  0  0  0  0  0  0  0  0  0
  160.8090  203.7470  145.3120 C   0  0  0  0  0  0  0  0  0  0  0  0
  161.2060  205.3660  143.3820 C   0  0  0  0  0  1  0  0  0  0  0  0
  161.1340  206.2040  145.6450 C   0  0  0  0  0  3  0  0  0  0  0  0
  161.0980  205.1270  144.8470 C   0  0  0  0  0  0  0  0  0  0  0  0
  160.9980  206.2270  147.1160 C   0  0  0  0  0  3  0  0  0  0  0  0
  161.2270  203.2610  146.4820 C   0  0  0  0  0  3  0  0  0  0  0  0
  162.0740  204.0350  147.4350 C   0  0  0  0  0  2  0  0  0  0  0  0
  160.0870  202.9020  144.4780 O   0  0  0  0  0  1  0  0  0  0  0  0
  160.4390  208.8460  152.6720 O   0  0  0  0  0  1  0  0  0  0  0  0
  160.8910  208.6700  151.3620 C   0  0  1  0  0  3  0  0  0  0  0  0
  162.8570  209.7870  152.0110 O   0  0  0  0  0  0  0  0  0  0  0  0
  162.0850  209.5370  151.0980 C   0  0  0  0  0  0  0  0  0  0  0  0
  162.3200  210.1140  149.7340 C   0  0  1  0  0  3  0  0  0  0  0  0
  161.5780  209.4100  148.7830 O   0  0  0  0  0  1  0  0  0  0  0  0
  161.9420  211.5860  149.7060 C   0  0  0  0  0  2  0  0  0  0  0  0
  160.2230  213.0620  148.4320 S   0  0  0  0  0  0  0  0  0  0  0  0
  161.2770  212.9540  145.8380 C   0  0  0  0  0  2  0  0  0  0  0  0
  162.7140  212.9540  146.3610 C   0  0  0  0  0  2  0  0  0  0  0  0
  162.7780  212.7780  147.8790 C   0  0  0  0  0  2  0  0  0  0  0  0
  160.3660  213.7740  146.7420 C   0  0  0  0  0  2  0  0  0  0  0  0
  161.6430  211.9940  148.3440 N   0  0  0  0  0  0  0  0  0  0  0  0
  2  3  2  0  0  0  0
  3 20  1  0  0  0  0
  3  6  1  0  0  0  0
  6  1  1  0  0  0  0
  6  5  2  0  0  0  0
  7  2  1  0  0  0  0
  7  8  2  0  0  0  0
  8  9  1  0  0  0  0
  9  4  1  1  0  0  0
  9  1  1  0  0  0  0
 10  7  1  0  0  0  0
 11 16  2  0  0  0  0
 12 14  1  0  0  0  0
 13 15  1  0  0  0  0
 14 11  1  0  0  0  0
 14 13  2  0  0  0  0
 15 10  2  0  0  0  0
 16 17  1  0  0  0  0
 17 10  1  0  0  0  0
 18 11  1  0  0  0  0
 20 19  1  1  0  0  0
 22 20  1  0  0  0  0
 22 21  2  0  0  0  0
 23 24  1  6  0  0  0
 23 22  1  0  0  0  0
 25 23  1  0  0  0  0
 27 28  1  0  0  0  0
 27 30  1  0  0  0  0
 28 29  1  0  0  0  0
 29 31  1  0  0  0  0
 30 26  1  0  0  0  0
 31 26  1  0  0  0  0
 31 25  1  0  0  0  0
M  END
>  <MODEL>
5

>  <REMARK>
 VINA RESULT:      -6.6      3.575      4.856
  Name = 
  6 active torsions:
  status: ('A' for Active; 'I' for Inactive)
    1  A    between atoms: C_3  and  C_14
    2  A    between atoms: C_8  and  C_18
    3  A    between atoms: C_18  and  C_26
    4  A    between atoms: C_19  and  C_26
    5  A    between atoms: C_19  and  C_31
    6  A    between atoms: N_29  and  C_31
                            x       y       z     vdW  Elec       q    Type
                         _______ _______ _______ _____ _____    ______ ____

>  <TORSDO>
F 6

$$$$
=
 OpenBabel11042420293D

 31 33  0  0  1  0  0  0  0  0999 V2000
  161.8900  203.9520  152.0310 N   0  0  0  0  0  2  0  0  0  0  0  0
  160.8480  205.8850  149.9310 N   0  0  0  0  0  0  0  0  0  0  0  0
  161.1360  206.2170  151.1620 C   0  0  0  0  0  0  0  0  0  0  0  0
  160.9940  201.7650  151.5150 C   0  0  0  0  0  1  0  0  0  0  0  0
  162.7080  205.9300  152.9090 O   0  0  0  0  0  0  0  0  0  0  0  0
  161.9570  205.3760  152.0620 C   0  0  0  0  0  0  0  0  0  0  0  0
  161.1780  204.6850  149.2020 C   0  0  0  0  0  0  0  0  0  0  0  0
  161.2050  203.4790  149.7810 C   0  0  0  0  0  3  0  0  0  0  0  0
  160.9160  203.2480  151.2220 C   0  0  2  0  0  3  0  0  0  0  0  0
  161.3830  204.7830  147.7370 C   0  0  0  0  0  0  0  0  0  0  0  0
  160.6050  203.9300  144.8810 C   0  0  0  0  0  0  0  0  0  0  0  0
  161.2110  205.8280  143.2890 C   0  0  0  0  0  1  0  0  0  0  0  0
  161.2850  206.2020  145.6720 C   0  0  0  0  0  3  0  0  0  0  0  0
  161.0850  205.3200  144.6830 C   0  0  0  0  0  0  0  0  0  0  0  0
  161.1690  205.9520  147.1240 C   0  0  0  0  0  3  0  0  0  0  0  0
  160.9610  203.1680  145.9170 C   0  0  0  0  0  3  0  0  0  0  0  0
  161.9210  203.6120  146.9690 C   0  0  0  0  0  2  0  0  0  0  0  0
  159.7600  203.3760  143.9270 O   0  0  0  0  0  1  0  0  0  0  0  0
  160.4810  207.5240  153.0430 O   0  0  0  0  0  1  0  0  0  0  0  0
  160.6960  207.5600  151.6630 C   0  0  1  0  0  3  0  0  0  0  0  0
  162.3280  208.5340  150.2790 O   0  0  0  0  0  0  0  0  0  0  0  0
  161.6840  208.6300  151.3130 C   0  0  0  0  0  0  0  0  0  0  0  0
  161.9030  209.7960  152.2300 C   0  0  1  0  0  3  0  0  0  0  0  0
  163.1680  210.3440  152.0120 O   0  0  0  0  0  1  0  0  0  0  0  0
  160.8300  210.8510  152.0160 C   0  0  0  0  0  2  0  0  0  0  0  0
  160.8540  211.0250  154.6090 S   0  0  0  0  0  0  0  0  0  0  0  0
  158.1050  211.0760  155.1450 C   0  0  0  0  0  2  0  0  0  0  0  0
  157.8170  211.8920  153.8840 C   0  0  0  0  0  2  0  0  0  0  0  0
  159.0430  212.0070  152.9760 C   0  0  0  0  0  2  0  0  0  0  0  0
  159.4610  211.4420  155.7350 C   0  0  0  0  0  2  0  0  0  0  0  0
  159.8920  210.8340  153.1250 N   0  0  0  0  0  0  0  0  0  0  0  0
  1  6  1  0  0  0  0
  2  3  2  0  0  0  0
  3 20  1  0  0  0  0
  3  6  1  0  0  0  0
  6  5  2  0  0  0  0
  7  8  2  0  0  0  0
  7  2  1  0  0  0  0
  8  9  1  0  0  0  0
  9  4  1  6  0  0  0
  9  1  1  0  0  0  0
 10  7  1  0  0  0  0
 11 16  2  0  0  0  0
 12 14  1  0  0  0  0
 13 15  1  0  0  0  0
 14 11  1  0  0  0  0
 14 13  2  0  0  0  0
 15 10  2  0  0  0  0
 16 17  1  0  0  0  0
 17 10  1  0  0  0  0
 18 11  1  0  0  0  0
 20 19  1  1  0  0  0
 21 22  2  0  0  0  0
 22 20  1  0  0  0  0
 22 23  1  0  0  0  0
 23 24  1  6  0  0  0
 25 23  1  0  0  0  0
 25 31  1  0  0  0  0
 26 30  1  0  0  0  0
 27 30  1  0  0  0  0
 28 27  1  0  0  0  0
 29 31  1  0  0  0  0
 29 28  1  0  0  0  0
 31 26  1  0  0  0  0
M  END
>  <MODEL>
6

>  <REMARK>
 VINA RESULT:      -6.5      3.241      5.428
  Name = 
  6 active torsions:
  status: ('A' for Active; 'I' for Inactive)
    1  A    between atoms: C_3  and  C_14
    2  A    between atoms: C_8  and  C_18
    3  A    between atoms: C_18  and  C_26
    4  A    between atoms: C_19  and  C_26
    5  A    between atoms: C_19  and  C_31
    6  A    between atoms: N_29  and  C_31
                            x       y       z     vdW  Elec       q    Type
                         _______ _______ _______ _____ _____    ______ ____

>  <TORSDO>
F 6

$$$$
=
 OpenBabel11042420293D

 31 33  0  0  1  0  0  0  0  0999 V2000
  160.8210  204.6470  150.2800 N   0  0  0  0  0  2  0  0  0  0  0  0
  161.9320  207.2910  151.2820 N   0  0  0  0  0  0  0  0  0  0  0  0
  161.8840  206.9390  150.0250 C   0  0  0  0  0  0  0  0  0  0  0  0
  161.1860  202.9990  152.0130 C   0  0  0  0  0  1  0  0  0  0  0  0
  160.5390  205.9160  148.3670 O   0  0  0  0  0  0  0  0  0  0  0  0
  161.0420  205.8320  149.5190 C   0  0  0  0  0  0  0  0  0  0  0  0
  161.2750  206.7050  152.4250 C   0  0  0  0  0  0  0  0  0  0  0  0
  161.0870  205.3860  152.5460 C   0  0  0  0  0  3  0  0  0  0  0  0
  161.5180  204.3930  151.5250 C   0  0  2  0  0  3  0  0  0  0  0  0
  160.8970  207.5900  153.5520 C   0  0  0  0  0  0  0  0  0  0  0  0
  161.5900  208.8970  156.2550 C   0  0  0  0  0  0  0  0  0  0  0  0
  160.2760  211.0740  156.4480 C   0  0  0  0  0  1  0  0  0  0  0  0
  160.3440  209.9070  154.3360 C   0  0  0  0  0  3  0  0  0  0  0  0
  160.6950  209.9030  155.6310 C   0  0  0  0  0  0  0  0  0  0  0  0
  160.6830  208.8900  153.3200 C   0  0  0  0  0  3  0  0  0  0  0  0
  161.5910  207.6050  155.9220 C   0  0  0  0  0  3  0  0  0  0  0  0
  160.6580  207.0160  154.9180 C   0  0  0  0  0  2  0  0  0  0  0  0
  162.4570  209.3100  157.2590 O   0  0  0  0  0  1  0  0  0  0  0  0
  162.9870  206.9810  147.9130 O   0  0  0  0  0  1  0  0  0  0  0  0
  162.6460  207.7560  149.0240 C   0  0  1  0  0  3  0  0  0  0  0  0
  161.1980  208.9240  147.5860 O   0  0  0  0  0  0  0  0  0  0  0  0
  161.8750  208.9690  148.6020 C   0  0  0  0  0  0  0  0  0  0  0  0
  161.9500  210.2360  149.4010 C   0  0  1  0  0  3  0  0  0  0  0  0
  162.6640  210.0140  150.5800 O   0  0  0  0  0  1  0  0  0  0  0  0
  162.6070  211.3400  148.5900 C   0  0  0  0  0  2  0  0  0  0  0  0
  160.8310  213.1680  149.1010 S   0  0  0  0  0  0  0  0  0  0  0  0
  159.9050  213.7210  146.5150 C   0  0  0  0  0  2  0  0  0  0  0  0
  161.2980  213.5270  145.9140 C   0  0  0  0  0  2  0  0  0  0  0  0
  162.2890  212.9470  146.9240 C   0  0  0  0  0  2  0  0  0  0  0  0
  159.9930  214.3030  147.9200 C   0  0  0  0  0  2  0  0  0  0  0  0
  161.5920  212.1100  147.8910 N   0  0  0  0  0  0  0  0  0  0  0  0
  1  9  1  0  0  0  0
  2  7  1  0  0  0  0
  3  2  2  0  0  0  0
  5  6  2  0  0  0  0
  6  3  1  0  0  0  0
  6  1  1  0  0  0  0
  7  8  2  0  0  0  0
  7 10  1  0  0  0  0
  9  4  1  1  0  0  0
  9  8  1  0  0  0  0
 10 17  1  0  0  0  0
 11 18  1  0  0  0  0
 13 14  2  0  0  0  0
 14 11  1  0  0  0  0
 14 12  1  0  0  0  0
 15 10  2  0  0  0  0
 15 13  1  0  0  0  0
 16 11  2  0  0  0  0
 17 16  1  0  0  0  0
 20 19  1  6  0  0  0
 20  3  1  0  0  0  0
 21 22  2  0  0  0  0
 22 20  1  0  0  0  0
 22 23  1  0  0  0  0
 23 24  1  1  0  0  0
 25 23  1  0  0  0  0
 27 30  1  0  0  0  0
 28 27  1  0  0  0  0
 28 29  1  0  0  0  0
 29 31  1  0  0  0  0
 30 26  1  0  0  0  0
 31 25  1  0  0  0  0
 31 26  1  0  0  0  0
M  END
>  <MODEL>
7

>  <REMARK>
 VINA RESULT:      -6.4      3.022      6.026
  Name = 
  6 active torsions:
  status: ('A' for Active; 'I' for Inactive)
    1  A    between atoms: C_3  and  C_14
    2  A    between atoms: C_8  and  C_18
    3  A    between atoms: C_18  and  C_26
    4  A    between atoms: C_19  and  C_26
    5  A    between atoms: C_19  and  C_31
    6  A    between atoms: N_29  and  C_31
                            x       y       z     vdW  Elec       q    Type
                         _______ _______ _______ _____ _____    ______ ____

>  <TORSDO>
F 6

$$$$
=
 OpenBabel11042420293D

 31 33  0  0  1  0  0  0  0  0999 V2000
  161.3970  208.5510  154.5300 N   0  0  0  0  0  2  0  0  0  0  0  0
  160.8760  208.0710  151.5760 N   0  0  0  0  0  0  0  0  0  0  0  0
  161.1790  209.2310  152.0930 C   0  0  0  0  0  0  0  0  0  0  0  0
  160.0780  206.9480  155.7730 C   0  0  0  0  0  1  0  0  0  0  0  0
  162.5820  210.3320  153.6510 O   0  0  0  0  0  0  0  0  0  0  0  0
  161.7650  209.3950  153.4420 C   0  0  0  0  0  0  0  0  0  0  0  0
  160.9720  206.7540  152.1570 C   0  0  0  0  0  0  0  0  0  0  0  0
  160.7180  206.5200  153.4500 C   0  0  0  0  0  3  0  0  0  0  0  0
  160.3290  207.5780  154.4200 C   0  0  2  0  0  3  0  0  0  0  0  0
  161.2510  205.6060  151.2610 C   0  0  0  0  0  0  0  0  0  0  0  0
  160.7840  202.6600  150.4900 C   0  0  0  0  0  0  0  0  0  0  0  0
  161.2070  202.4140  147.9870 C   0  0  0  0  0  1  0  0  0  0  0  0
  161.0780  204.6180  148.9630 C   0  0  0  0  0  3  0  0  0  0  0  0
  161.0700  203.2950  149.1790 C   0  0  0  0  0  0  0  0  0  0  0  0
  160.9090  205.6860  149.9710 C   0  0  0  0  0  3  0  0  0  0  0  0
  161.1810  203.1690  151.6570 C   0  0  0  0  0  3  0  0  0  0  0  0
  162.0000  204.4110  151.7740 C   0  0  0  0  0  2  0  0  0  0  0  0
  160.0890  201.4570  150.5090 O   0  0  0  0  0  1  0  0  0  0  0  0
  160.7000  211.5650  152.0360 O   0  0  0  0  0  1  0  0  0  0  0  0
  161.0150  210.4580  151.2460 C   0  0  1  0  0  3  0  0  0  0  0  0
  163.3360  210.7040  150.9630 O   0  0  0  0  0  0  0  0  0  0  0  0
  162.2400  210.7280  150.4260 C   0  0  0  0  0  0  0  0  0  0  0  0
  162.1240  211.0510  148.9660 C   0  0  1  0  0  3  0  0  0  0  0  0
  161.5820  209.9630  148.2780 O   0  0  0  0  0  1  0  0  0  0  0  0
  161.2600  212.2840  148.7600 C   0  0  0  0  0  2  0  0  0  0  0  0
  159.0910  213.0100  147.5260 S   0  0  0  0  0  0  0  0  0  0  0  0
  159.8240  212.5190  144.8670 C   0  0  0  0  0  2  0  0  0  0  0  0
  161.2670  212.9530  145.1260 C   0  0  0  0  0  2  0  0  0  0  0  0
  161.5520  213.1600  146.6140 C   0  0  0  0  0  2  0  0  0  0  0  0
  158.8510  213.3150  145.7280 C   0  0  0  0  0  2  0  0  0  0  0  0
  160.7100  212.2830  147.4150 N   0  0  0  0  0  0  0  0  0  0  0  0
  2  3  2  0  0  0  0
  2  7  1  0  0  0  0
  3  6  1  0  0  0  0
  6  5  2  0  0  0  0
  6  1  1  0  0  0  0
  7  8  2  0  0  0  0
  8  9  1  0  0  0  0
  9  1  1  0  0  0  0
  9  4  1  1  0  0  0
 10 17  1  0  0  0  0
 10  7  1  0  0  0  0
 11 18  1  0  0  0  0
 11 16  2  0  0  0  0
 12 14  1  0  0  0  0
 13 14  2  0  0  0  0
 13 15  1  0  0  0  0
 14 11  1  0  0  0  0
 15 10  2  0  0  0  0
 16 17  1  0  0  0  0
 20 19  1  1  0  0  0
 20  3  1  0  0  0  0
 22 21  2  0  0  0  0
 22 20  1  0  0  0  0
 23 24  1  6  0  0  0
 23 22  1  0  0  0  0
 25 23  1  0  0  0  0
 27 28  1  0  0  0  0
 27 30  1  0  0  0  0
 28 29  1  0  0  0  0
 29 31  1  0  0  0  0
 30 26  1  0  0  0  0
 31 26  1  0  0  0  0
 31 25  1  0  0  0  0
M  END
>  <MODEL>
8

>  <REMARK>
 VINA RESULT:      -6.2      2.590      3.325
  Name = 
  6 active torsions:
  status: ('A' for Active; 'I' for Inactive)
    1  A    between atoms: C_3  and  C_14
    2  A    between atoms: C_8  and  C_18
    3  A    between atoms: C_18  and  C_26
    4  A    between atoms: C_19  and  C_26
    5  A    between atoms: C_19  and  C_31
    6  A    between atoms: N_29  and  C_31
                            x       y       z     vdW  Elec       q    Type
                         _______ _______ _______ _____ _____    ______ ____

>  <TORSDO>
F 6

$$$$
=
 OpenBabel11042420293D

 31 33  0  0  1  0  0  0  0  0999 V2000
  162.8360  207.7000  150.2600 N   0  0  0  0  0  2  0  0  0  0  0  0
  160.8790  207.3880  152.5630 N   0  0  0  0  0  0  0  0  0  0  0  0
  161.6760  206.4440  152.1380 C   0  0  0  0  0  0  0  0  0  0  0  0
  161.8980  209.3140  148.7210 C   0  0  0  0  0  1  0  0  0  0  0  0
  163.8760  205.9770  151.4010 O   0  0  0  0  0  0  0  0  0  0  0  0
  162.8490  206.6960  151.2720 C   0  0  0  0  0  0  0  0  0  0  0  0
  160.8960  208.8020  152.2770 C   0  0  0  0  0  0  0  0  0  0  0  0
  161.2320  209.2870  151.0750 C   0  0  0  0  0  3  0  0  0  0  0  0
  161.6330  208.4350  149.9240 C   0  0  2  0  0  3  0  0  0  0  0  0
  160.4140  209.7390  153.3190 C   0  0  0  0  0  0  0  0  0  0  0  0
  158.1390  211.4240  154.5350 C   0  0  0  0  0  0  0  0  0  0  0  0
  158.6000  211.7060  157.0270 C   0  0  0  0  0  1  0  0  0  0  0  0
  159.9110  210.1380  155.7430 C   0  0  0  0  0  3  0  0  0  0  0  0
  158.9560  211.0790  155.7250 C   0  0  0  0  0  0  0  0  0  0  0  0
  160.3990  209.3430  154.5970 C   0  0  0  0  0  3  0  0  0  0  0  0
  158.6180  211.4340  153.2900 C   0  0  0  0  0  3  0  0  0  0  0  0
  160.0450  211.1480  152.9580 C   0  0  0  0  0  2  0  0  0  0  0  0
  156.8090  211.7810  154.7220 O   0  0  0  0  0  1  0  0  0  0  0  0
  160.7660  205.0510  153.8440 O   0  0  0  0  0  1  0  0  0  0  0  0
  161.4510  205.0440  152.6280 C   0  0  1  0  0  3  0  0  0  0  0  0
  159.4970  204.2640  151.5780 O   0  0  0  0  0  0  0  0  0  0  0  0
  160.7170  204.2190  151.6150 C   0  0  0  0  0  0  0  0  0  0  0  0
  161.4660  203.3260  150.6720 C   0  0  1  0  0  3  0  0  0  0  0  0
  161.6260  202.0600  151.2390 O   0  0  0  0  0  1  0  0  0  0  0  0
  160.7330  203.2170  149.3450 C   0  0  0  0  0  2  0  0  0  0  0  0
  161.1660  202.8100  146.8150 S   0  0  0  0  0  0  0  0  0  0  0  0
  162.9210  204.9190  146.2500 C   0  0  0  0  0  2  0  0  0  0  0  0
  162.1940  205.8580  147.2140 C   0  0  0  0  0  2  0  0  0  0  0  0
  161.1570  205.1240  148.0640 C   0  0  0  0  0  2  0  0  0  0  0  0
  161.9490  203.9450  145.5970 C   0  0  0  0  0  2  0  0  0  0  0  0
  161.5650  203.7420  148.2770 N   0  0  0  0  0  0  0  0  0  0  0  0
  1  6  1  0  0  0  0
  3  2  2  0  0  0  0
  3 20  1  0  0  0  0
  6  5  2  0  0  0  0
  6  3  1  0  0  0  0
  7  2  1  0  0  0  0
  7 10  1  0  0  0  0
  8  7  2  0  0  0  0
  9  4  1  6  0  0  0
  9  1  1  0  0  0  0
  9  8  1  0  0  0  0
 10 15  2  0  0  0  0
 11 18  1  0  0  0  0
 11 14  1  0  0  0  0
 14 13  2  0  0  0  0
 14 12  1  0  0  0  0
 15 13  1  0  0  0  0
 16 11  2  0  0  0  0
 17 16  1  0  0  0  0
 17 10  1  0  0  0  0
 20 19  1  1  0  0  0
 21 22  2  0  0  0  0
 22 20  1  0  0  0  0
 23 24  1  1  0  0  0
 23 22  1  0  0  0  0
 25 23  1  0  0  0  0
 26 31  1  0  0  0  0
 27 28  1  0  0  0  0
 28 29  1  0  0  0  0
 29 31  1  0  0  0  0
 30 27  1  0  0  0  0
 30 26  1  0  0  0  0
 31 25  1  0  0  0  0
M  END
>  <MODEL>
9

>  <REMARK>
 VINA RESULT:      -6.1      3.810      8.306
  Name = 
  6 active torsions:
  status: ('A' for Active; 'I' for Inactive)
    1  A    between atoms: C_3  and  C_14
    2  A    between atoms: C_8  and  C_18
    3  A    between atoms: C_18  and  C_26
    4  A    between atoms: C_19  and  C_26
    5  A    between atoms: C_19  and  C_31
    6  A    between atoms: N_29  and  C_31
                            x       y       z     vdW  Elec       q    Type
                         _______ _______ _______ _____ _____    ______ ____

>  <TORSDO>
F 6

$$$$
