=
 OpenBabel11052410343D

 40 48  0  0  1  0  0  0  0  0999 V2000
  160.7280  208.5410  152.1270 C   0  0  2  0  0  3  0  0  0  0  0  0
  160.3200  207.8260  153.2570 O   0  0  0  0  0  1  0  0  0  0  0  0
  161.7740  207.8080  149.9750 C   0  0  0  0  0  0  0  0  0  0  0  0
  161.3620  206.6760  149.3340 C   0  0  0  0  0  0  0  0  0  0  0  0
  160.6520  203.0430  150.2350 C   0  0  0  0  0  0  0  0  0  0  0  0
  161.1250  203.0030  151.5540 C   0  0  0  0  0  3  0  0  0  0  0  0
  161.6640  205.3590  151.4410 C   0  0  0  0  0  0  0  0  0  0  0  0
  162.1740  206.5370  152.0570 N   0  0  0  0  0  2  0  0  0  0  0  0
  161.2280  205.4100  150.1090 C   0  0  0  0  0  0  0  0  0  0  0  0
  160.7290  204.2410  149.5120 C   0  0  0  0  0  3  0  0  0  0  0  0
  161.9390  207.8570  151.4760 C   0  0  2  0  0  3  0  0  0  0  0  0
  161.6260  204.1590  152.1550 C   0  0  0  0  0  3  0  0  0  0  0  0
  161.9920  209.0280  149.2690 N   0  0  0  0  0  1  0  0  0  0  0  0
  159.7340  206.1980  147.7330 O   0  0  0  0  0  0  0  0  0  0  0  0
  162.3580  205.8540  147.2270 C   0  0  2  0  0  0  0  0  0  0  0  0
  162.8850  206.5670  146.1330 O   0  0  0  0  0  1  0  0  0  0  0  0
  161.0540  206.5870  147.8400 C   0  0  1  0  0  0  0  0  0  0  0  0
  161.7010  204.6020  146.7790 N   0  0  0  0  0  2  0  0  0  0  0  0
  160.8310  205.3730  147.2340 C   0  0  1  0  0  0  0  0  0  0  0  0
  160.1590  201.7920  149.5740 C   0  0  0  0  0  3  0  0  0  0  0  0
  161.3220  200.8690  149.2410 C   0  0  0  0  0  2  0  0  0  0  0  0
  160.6870  201.7020  148.1520 C   0  0  0  0  0  2  0  0  0  0  0  0
  161.4850  210.2770  153.8780 N   0  0  0  0  0  0  0  0  0  0  0  0
  159.8050  210.9430  152.2080 C   0  0  2  0  0  3  0  0  0  0  0  0
  160.0440  210.3660  153.5850 C   0  0  1  0  0  3  0  0  0  0  0  0
  160.9760  210.0200  152.5030 C   0  0  1  0  0  0  0  0  0  0  0  0
  159.2540  213.4100  151.5980 C   0  0  1  0  0  3  0  0  0  0  0  0
  159.3180  213.2030  153.0960 C   0  0  0  0  0  2  0  0  0  0  0  0
  160.2470  212.4070  152.2020 C   0  0  1  0  0  3  0  0  0  0  0  0
  157.9780  212.7900  151.0440 C   0  0  0  0  0  2  0  0  0  0  0  0
  157.6460  213.4090  149.7320 C   0  0  0  0  0  0  0  0  0  0  0  0
  158.5630  213.7210  148.9290 O   0  0  0  0  0  0  0  0  0  0  0  0
  156.2890  213.6720  149.3960 N   0  0  0  0  0  1  0  0  0  0  0  0
  161.6560  209.0740  154.6880 C   0  0  0  0  0  2  0  0  0  0  0  0
  161.9040  209.4480  156.1410 C   0  0  0  0  0  2  0  0  0  0  0  0
  162.3390  210.8990  156.2690 C   0  0  0  0  0  2  0  0  0  0  0  0
  161.4450  211.6380  157.2510 C   0  0  0  0  0  2  0  0  0  0  0  0
  160.5050  212.5810  156.5170 C   0  0  0  0  0  2  0  0  0  0  0  0
  158.7740  211.0000  156.8180 O   0  0  0  0  0  0  0  0  0  0  0  0
  159.0780  212.1770  156.7070 C   0  0  0  0  0  3  0  0  0  0  0  0
  1  2  1  1  0  0  0
  3 11  1  0  0  0  0
  4  3  2  0  0  0  0
  4  9  1  0  0  0  0
  5  6  1  0  0  0  0
  6 12  2  0  0  0  0
  7  8  1  0  0  0  0
  7 12  1  0  0  0  0
  9  7  2  0  0  0  0
 10  9  1  0  0  0  0
 10  5  2  0  0  0  0
 11  8  1  0  0  0  0
 11  1  1  1  0  0  0
 13  3  1  0  0  0  0
 14 17  1  0  0  0  0
 15 16  1  6  0  0  0
 15 19  1  0  0  0  0
 15 17  1  0  0  0  0
 17  4  1  1  0  0  0
 18 15  1  0  0  0  0
 19 18  1  1  0  0  0
 19 14  1  0  0  0  0
 19 17  1  0  0  0  0
 20  5  1  0  0  0  0
 21 20  1  0  0  0  0
 22 21  1  0  0  0  0
 22 20  1  0  0  0  0
 23 34  1  0  0  0  0
 24 29  1  1  0  0  0
 24 26  1  0  0  0  0
 24 25  1  0  0  0  0
 25 23  1  1  0  0  0
 26  1  1  6  0  0  0
 26 25  1  0  0  0  0
 26 23  1  0  0  0  0
 27 30  1  6  0  0  0
 27 29  1  0  0  0  0
 27 28  1  0  0  0  0
 29 28  1  1  0  0  0
 31 30  1  0  0  0  0
 32 31  2  0  0  0  0
 33 31  1  0  0  0  0
 34 35  1  0  0  0  0
 35 36  1  0  0  0  0
 36 37  1  0  0  0  0
 38 40  1  0  0  0  0
 38 37  1  0  0  0  0
 40 39  2  0  0  0  0
M  END
>  <MODEL>
1

>  <REMARK>
 VINA RESULT:      -7.1      0.000      0.000
  Name = 
  13 active torsions:
  status: ('A' for Active; 'I' for Inactive)
    1  A    between atoms: C_2  and  C_37
    2  A    between atoms: C_2  and  C_40
    3  A    between atoms: C_5  and  C_11
    4  A    between atoms: C_7  and  C_14
    5  A    between atoms: C_9  and  C_30
    6  A    between atoms: C_9  and  C_37
    7  A    between atoms: C_10  and  C_27
    8  A    between atoms: C_12  and  C_26
    9  A    between atoms: C_12  and  C_36
   10  A    between atoms: N_15  and  C_30
   11  A    between atoms: C_17  and  C_35
   12  A    between atoms: C_18  and  C_27
   13  A    between atoms: C_19  and  C_40
                            x       y       z     vdW  Elec       q    Type
                         _______ _______ _______ _____ _____    ______ ____

>  <TORSDO>
F 13

$$$$
=
 OpenBabel11052410343D

 40 48  0  0  1  0  0  0  0  0999 V2000
  160.8040  209.1910  151.5920 C   0  0  2  0  0  3  0  0  0  0  0  0
  160.3260  208.6100  152.7710 O   0  0  0  0  0  1  0  0  0  0  0  0
  161.8270  208.1050  149.5830 C   0  0  0  0  0  0  0  0  0  0  0  0
  161.3940  206.8910  149.1330 C   0  0  0  0  0  0  0  0  0  0  0  0
  160.6350  203.4620  150.6100 C   0  0  0  0  0  0  0  0  0  0  0  0
  161.1140  203.6270  151.9160 C   0  0  0  0  0  3  0  0  0  0  0  0
  161.6890  205.9260  151.4240 C   0  0  0  0  0  0  0  0  0  0  0  0
  162.2190  207.1790  151.8400 N   0  0  0  0  0  2  0  0  0  0  0  0
  161.2450  205.7690  150.1020 C   0  0  0  0  0  0  0  0  0  0  0  0
  160.7260  204.5270  149.7030 C   0  0  0  0  0  3  0  0  0  0  0  0
  162.0010  208.3920  151.0550 C   0  0  2  0  0  3  0  0  0  0  0  0
  161.6360  204.8570  152.3220 C   0  0  0  0  0  3  0  0  0  0  0  0
  162.0590  209.1920  148.6880 N   0  0  0  0  0  1  0  0  0  0  0  0
  159.7750  206.1090  147.6470 O   0  0  0  0  0  0  0  0  0  0  0  0
  162.4070  205.8110  147.1550 C   0  0  2  0  0  0  0  0  0  0  0  0
  162.8900  206.3770  145.9580 O   0  0  0  0  0  1  0  0  0  0  0  0
  161.0760  206.5680  147.6750 C   0  0  1  0  0  0  0  0  0  0  0  0
  161.8050  204.4790  146.9070 N   0  0  0  0  0  2  0  0  0  0  0  0
  160.9040  205.2690  147.2570 C   0  0  1  0  0  0  0  0  0  0  0  0
  160.1190  202.1290  150.1600 C   0  0  0  0  0  3  0  0  0  0  0  0
  161.2700  201.1620  149.9260 C   0  0  0  0  0  2  0  0  0  0  0  0
  160.5950  201.8270  148.7490 C   0  0  0  0  0  2  0  0  0  0  0  0
  161.5540  211.0600  153.2030 N   0  0  0  0  0  0  0  0  0  0  0  0
  160.0130  211.6310  151.3730 C   0  0  2  0  0  3  0  0  0  0  0  0
  160.1400  211.1890  152.8130 C   0  0  1  0  0  3  0  0  0  0  0  0
  161.1110  210.6870  151.8320 C   0  0  1  0  0  0  0  0  0  0  0  0
  160.6530  213.6150  149.8190 C   0  0  1  0  0  3  0  0  0  0  0  0
  159.4390  213.9330  150.6650 C   0  0  0  0  0  2  0  0  0  0  0  0
  160.5340  213.0630  151.2460 C   0  0  1  0  0  3  0  0  0  0  0  0
  160.2740  212.6310  148.7200 C   0  0  0  0  0  2  0  0  0  0  0  0
  161.3330  212.6090  147.6750 C   0  0  0  0  0  0  0  0  0  0  0  0
  161.0210  212.5450  146.4580 O   0  0  0  0  0  0  0  0  0  0  0  0
  162.7040  212.6330  148.0550 N   0  0  0  0  0  1  0  0  0  0  0  0
  161.6120  209.9410  154.1400 C   0  0  0  0  0  2  0  0  0  0  0  0
  162.1380  210.4090  155.4880 C   0  0  0  0  0  2  0  0  0  0  0  0
  161.0150  210.5200  156.5070 C   0  0  0  0  0  2  0  0  0  0  0  0
  159.9780  209.4330  156.2780 C   0  0  0  0  0  2  0  0  0  0  0  0
  160.1720  208.2890  157.2610 C   0  0  0  0  0  2  0  0  0  0  0  0
  160.3400  206.8900  155.3640 O   0  0  0  0  0  0  0  0  0  0  0  0
  160.1360  206.9660  156.5650 C   0  0  0  0  0  3  0  0  0  0  0  0
  1  2  1  1  0  0  0
  3 11  1  0  0  0  0
  4  3  2  0  0  0  0
  4  9  1  0  0  0  0
  5  6  1  0  0  0  0
  6 12  2  0  0  0  0
  7  8  1  0  0  0  0
  7 12  1  0  0  0  0
  9  7  2  0  0  0  0
 10  9  1  0  0  0  0
 10  5  2  0  0  0  0
 11  1  1  1  0  0  0
 11  8  1  0  0  0  0
 13  3  1  0  0  0  0
 14 17  1  0  0  0  0
 15 16  1  6  0  0  0
 15 19  1  0  0  0  0
 15 17  1  0  0  0  0
 17  4  1  1  0  0  0
 18 15  1  0  0  0  0
 19 18  1  1  0  0  0
 19 14  1  0  0  0  0
 19 17  1  0  0  0  0
 20  5  1  0  0  0  0
 21 20  1  0  0  0  0
 22 21  1  0  0  0  0
 22 20  1  0  0  0  0
 23 34  1  0  0  0  0
 24 29  1  1  0  0  0
 24 26  1  0  0  0  0
 24 25  1  0  0  0  0
 25 23  1  1  0  0  0
 26  1  1  6  0  0  0
 26 25  1  0  0  0  0
 26 23  1  0  0  0  0
 27 30  1  6  0  0  0
 27 28  1  0  0  0  0
 27 29  1  0  0  0  0
 29 28  1  1  0  0  0
 31 33  1  0  0  0  0
 31 30  1  0  0  0  0
 32 31  2  0  0  0  0
 34 35  1  0  0  0  0
 35 36  1  0  0  0  0
 37 36  1  0  0  0  0
 37 38  1  0  0  0  0
 39 40  2  0  0  0  0
 40 38  1  0  0  0  0
M  END
>  <MODEL>
2

>  <REMARK>
 VINA RESULT:      -7.1      1.741      2.192
  Name = 
  13 active torsions:
  status: ('A' for Active; 'I' for Inactive)
    1  A    between atoms: C_2  and  C_37
    2  A    between atoms: C_2  and  C_40
    3  A    between atoms: C_5  and  C_11
    4  A    between atoms: C_7  and  C_14
    5  A    between atoms: C_9  and  C_30
    6  A    between atoms: C_9  and  C_37
    7  A    between atoms: C_10  and  C_27
    8  A    between atoms: C_12  and  C_26
    9  A    between atoms: C_12  and  C_36
   10  A    between atoms: N_15  and  C_30
   11  A    between atoms: C_17  and  C_35
   12  A    between atoms: C_18  and  C_27
   13  A    between atoms: C_19  and  C_40
                            x       y       z     vdW  Elec       q    Type
                         _______ _______ _______ _____ _____    ______ ____

>  <TORSDO>
F 13

$$$$
=
 OpenBabel11052410343D

 40 48  0  0  1  0  0  0  0  0999 V2000
  160.9080  208.8850  151.5840 C   0  0  2  0  0  3  0  0  0  0  0  0
  160.4510  208.2450  152.7410 O   0  0  0  0  0  1  0  0  0  0  0  0
  161.8960  207.9160  149.4990 C   0  0  0  0  0  0  0  0  0  0  0  0
  161.4480  206.7350  148.9830 C   0  0  0  0  0  0  0  0  0  0  0  0
  160.6830  203.2280  150.2580 C   0  0  0  0  0  0  0  0  0  0  0  0
  161.1810  203.3100  151.5660 C   0  0  0  0  0  3  0  0  0  0  0  0
  161.7660  205.6300  151.2060 C   0  0  0  0  0  0  0  0  0  0  0  0
  162.3110  206.8530  151.6900 N   0  0  0  0  0  2  0  0  0  0  0  0
  161.3040  205.5570  149.8840 C   0  0  0  0  0  0  0  0  0  0  0  0
  160.7690  204.3450  149.4170 C   0  0  0  0  0  3  0  0  0  0  0  0
  162.0910  208.1120  150.9840 C   0  0  2  0  0  3  0  0  0  0  0  0
  161.7180  204.5090  152.0380 C   0  0  0  0  0  3  0  0  0  0  0  0
  162.1240  209.0540  148.6690 N   0  0  0  0  0  1  0  0  0  0  0  0
  159.7780  206.1380  147.4670 O   0  0  0  0  0  0  0  0  0  0  0  0
  162.3820  205.6810  146.9520 C   0  0  2  0  0  0  0  0  0  0  0  0
  162.9030  206.2670  145.7820 O   0  0  0  0  0  1  0  0  0  0  0  0
  161.1080  206.5040  147.5120 C   0  0  1  0  0  0  0  0  0  0  0  0
  161.6890  204.4070  146.6450 N   0  0  0  0  0  2  0  0  0  0  0  0
  160.8460  205.2410  147.0350 C   0  0  1  0  0  0  0  0  0  0  0  0
  160.1510  201.9280  149.7360 C   0  0  0  0  0  3  0  0  0  0  0  0
  161.2890  200.9550  149.4660 C   0  0  0  0  0  2  0  0  0  0  0  0
  160.6400  201.6890  148.3160 C   0  0  0  0  0  2  0  0  0  0  0  0
  161.5030  210.6990  153.3190 N   0  0  0  0  0  0  0  0  0  0  0  0
  160.2170  211.3520  151.3260 C   0  0  2  0  0  3  0  0  0  0  0  0
  160.1520  210.8780  152.7600 C   0  0  1  0  0  3  0  0  0  0  0  0
  161.2240  210.3660  151.8950 C   0  0  1  0  0  0  0  0  0  0  0  0
  160.6510  213.5280  149.9710 C   0  0  1  0  0  3  0  0  0  0  0  0
  159.6550  213.7520  151.0900 C   0  0  0  0  0  2  0  0  0  0  0  0
  160.7900  212.7690  151.2980 C   0  0  1  0  0  3  0  0  0  0  0  0
  159.9960  212.7350  148.8480 C   0  0  0  0  0  2  0  0  0  0  0  0
  160.9710  212.5280  147.7420 C   0  0  0  0  0  0  0  0  0  0  0  0
  160.5640  212.2830  146.5770 O   0  0  0  0  0  0  0  0  0  0  0  0
  162.3670  212.5820  148.0090 N   0  0  0  0  0  1  0  0  0  0  0  0
  161.4140  209.5600  154.2290 C   0  0  0  0  0  2  0  0  0  0  0  0
  161.2370  210.0420  155.6600 C   0  0  0  0  0  2  0  0  0  0  0  0
  159.8650  209.6710  156.2000 C   0  0  0  0  0  2  0  0  0  0  0  0
  159.0370  210.9200  156.4520 C   0  0  0  0  0  2  0  0  0  0  0  0
  157.8360  210.9650  155.5210 C   0  0  0  0  0  2  0  0  0  0  0  0
  157.1880  212.5720  153.9140 O   0  0  0  0  0  0  0  0  0  0  0  0
  157.5630  212.3600  155.0570 C   0  0  0  0  0  3  0  0  0  0  0  0
  1  2  1  1  0  0  0
  3 11  1  0  0  0  0
  4  3  2  0  0  0  0
  4  9  1  0  0  0  0
  5  6  1  0  0  0  0
  6 12  2  0  0  0  0
  7  8  1  0  0  0  0
  7 12  1  0  0  0  0
  9  7  2  0  0  0  0
 10  9  1  0  0  0  0
 10  5  2  0  0  0  0
 11  1  1  1  0  0  0
 11  8  1  0  0  0  0
 13  3  1  0  0  0  0
 14 17  1  0  0  0  0
 15 16  1  6  0  0  0
 15 19  1  0  0  0  0
 15 17  1  0  0  0  0
 17  4  1  1  0  0  0
 18 15  1  0  0  0  0
 19 18  1  1  0  0  0
 19 14  1  0  0  0  0
 19 17  1  0  0  0  0
 20  5  1  0  0  0  0
 21 20  1  0  0  0  0
 22 21  1  0  0  0  0
 22 20  1  0  0  0  0
 23 34  1  0  0  0  0
 24 29  1  1  0  0  0
 24 26  1  0  0  0  0
 24 25  1  0  0  0  0
 25 23  1  1  0  0  0
 26  1  1  6  0  0  0
 26 25  1  0  0  0  0
 26 23  1  0  0  0  0
 27 30  1  6  0  0  0
 27 28  1  0  0  0  0
 27 29  1  0  0  0  0
 29 28  1  1  0  0  0
 31 33  1  0  0  0  0
 31 30  1  0  0  0  0
 32 31  2  0  0  0  0
 34 35  1  0  0  0  0
 35 36  1  0  0  0  0
 36 37  1  0  0  0  0
 38 37  1  0  0  0  0
 39 40  2  0  0  0  0
 40 38  1  0  0  0  0
M  END
>  <MODEL>
3

>  <REMARK>
 VINA RESULT:      -6.9      1.601      1.861
  Name = 
  13 active torsions:
  status: ('A' for Active; 'I' for Inactive)
    1  A    between atoms: C_2  and  C_37
    2  A    between atoms: C_2  and  C_40
    3  A    between atoms: C_5  and  C_11
    4  A    between atoms: C_7  and  C_14
    5  A    between atoms: C_9  and  C_30
    6  A    between atoms: C_9  and  C_37
    7  A    between atoms: C_10  and  C_27
    8  A    between atoms: C_12  and  C_26
    9  A    between atoms: C_12  and  C_36
   10  A    between atoms: N_15  and  C_30
   11  A    between atoms: C_17  and  C_35
   12  A    between atoms: C_18  and  C_27
   13  A    between atoms: C_19  and  C_40
                            x       y       z     vdW  Elec       q    Type
                         _______ _______ _______ _____ _____    ______ ____

>  <TORSDO>
F 13

$$$$
=
 OpenBabel11052410343D

 40 48  0  0  1  0  0  0  0  0999 V2000
  162.0310  206.0880  152.3830 C   0  0  2  0  0  3  0  0  0  0  0  0
  163.1220  205.7940  151.5590 O   0  0  0  0  0  1  0  0  0  0  0  0
  160.7150  204.1910  151.4160 C   0  0  0  0  0  0  0  0  0  0  0  0
  160.9940  203.6920  150.1780 C   0  0  0  0  0  0  0  0  0  0  0  0
  161.6090  205.0610  146.6750 C   0  0  0  0  0  0  0  0  0  0  0  0
  161.2840  206.4120  146.8620 C   0  0  0  0  0  3  0  0  0  0  0  0
  160.8590  205.9950  149.2070 C   0  0  0  0  0  0  0  0  0  0  0  0
  160.4830  206.4720  150.4950 N   0  0  0  0  0  2  0  0  0  0  0  0
  161.1470  204.6340  149.0320 C   0  0  0  0  0  0  0  0  0  0  0  0
  161.5150  204.1750  147.7570 C   0  0  0  0  0  3  0  0  0  0  0  0
  160.7210  205.6750  151.6960 C   0  0  2  0  0  3  0  0  0  0  0  0
  160.9130  206.8770  148.1250 C   0  0  0  0  0  3  0  0  0  0  0  0
  160.4850  203.3320  152.5320 N   0  0  0  0  0  1  0  0  0  0  0  0
  162.2130  202.0860  149.0040 O   0  0  0  0  0  0  0  0  0  0  0  0
  159.6060  201.7350  149.5840 C   0  0  2  0  0  0  0  0  0  0  0  0
  159.2790  200.5920  150.3380 O   0  0  0  0  0  1  0  0  0  0  0  0
  161.1300  202.2060  149.8500 C   0  0  1  0  0  0  0  0  0  0  0  0
  159.7390  201.4040  148.1460 N   0  0  0  0  0  2  0  0  0  0  0  0
  160.8590  201.7310  148.5880 C   0  0  1  0  0  0  0  0  0  0  0  0
  161.9590  204.5530  145.3100 C   0  0  0  0  0  3  0  0  0  0  0  0
  160.7530  204.6260  144.3870 C   0  0  0  0  0  2  0  0  0  0  0  0
  161.1570  203.3010  144.9910 C   0  0  0  0  0  2  0  0  0  0  0  0
  161.4090  207.9220  154.0860 N   0  0  0  0  0  0  0  0  0  0  0  0
  161.6260  208.5420  151.7150 C   0  0  2  0  0  3  0  0  0  0  0  0
  160.6920  208.0750  152.8090 C   0  0  1  0  0  3  0  0  0  0  0  0
  162.0740  207.5760  152.8000 C   0  0  1  0  0  0  0  0  0  0  0  0
  162.1980  210.9160  150.8250 C   0  0  1  0  0  3  0  0  0  0  0  0
  160.9550  210.9240  151.6890 C   0  0  0  0  0  2  0  0  0  0  0  0
  162.0800  209.9680  152.0260 C   0  0  1  0  0  3  0  0  0  0  0  0
  161.8880  210.2800  149.4770 C   0  0  0  0  0  2  0  0  0  0  0  0
  161.9600  211.3100  148.4050 C   0  0  0  0  0  0  0  0  0  0  0  0
  161.0080  211.4460  147.5930 O   0  0  0  0  0  0  0  0  0  0  0  0
  163.1190  212.1250  148.2820 N   0  0  0  0  0  1  0  0  0  0  0  0
  160.7860  206.7880  154.7630 C   0  0  0  0  0  2  0  0  0  0  0  0
  159.8460  207.2770  155.8540 C   0  0  0  0  0  2  0  0  0  0  0  0
  160.3670  208.5520  156.4980 C   0  0  0  0  0  2  0  0  0  0  0  0
  159.5120  209.7410  156.0930 C   0  0  0  0  0  2  0  0  0  0  0  0
  160.3850  210.9070  155.6570 C   0  0  0  0  0  2  0  0  0  0  0  0
  162.7320  210.8150  155.3980 O   0  0  0  0  0  0  0  0  0  0  0  0
  161.7840  210.7540  156.1640 C   0  0  0  0  0  3  0  0  0  0  0  0
  1  2  1  6  0  0  0
  3 11  1  0  0  0  0
  3 13  1  0  0  0  0
  4  3  2  0  0  0  0
  5  6  2  0  0  0  0
  5 10  1  0  0  0  0
  6 12  1  0  0  0  0
  7  8  1  0  0  0  0
  8 11  1  0  0  0  0
  9  7  1  0  0  0  0
  9  4  1  0  0  0  0
 10  9  2  0  0  0  0
 11  1  1  6  0  0  0
 12  7  2  0  0  0  0
 14 17  1  0  0  0  0
 15 17  1  0  0  0  0
 15 16  1  1  0  0  0
 17  4  1  6  0  0  0
 18 15  1  0  0  0  0
 19 18  1  6  0  0  0
 19 14  1  0  0  0  0
 19 15  1  0  0  0  0
 19 17  1  0  0  0  0
 20  5  1  0  0  0  0
 21 22  1  0  0  0  0
 21 20  1  0  0  0  0
 22 20  1  0  0  0  0
 23 34  1  0  0  0  0
 24 29  1  1  0  0  0
 24 26  1  0  0  0  0
 24 25  1  0  0  0  0
 25 23  1  1  0  0  0
 26  1  1  6  0  0  0
 26 25  1  0  0  0  0
 26 23  1  0  0  0  0
 27 30  1  6  0  0  0
 27 28  1  0  0  0  0
 27 29  1  0  0  0  0
 29 28  1  1  0  0  0
 31 30  1  0  0  0  0
 32 31  2  0  0  0  0
 33 31  1  0  0  0  0
 34 35  1  0  0  0  0
 35 36  1  0  0  0  0
 37 36  1  0  0  0  0
 38 37  1  0  0  0  0
 38 40  1  0  0  0  0
 39 40  2  0  0  0  0
M  END
>  <MODEL>
4

>  <REMARK>
 VINA RESULT:      -6.5      2.662      4.145
  Name = 
  13 active torsions:
  status: ('A' for Active; 'I' for Inactive)
    1  A    between atoms: C_2  and  C_37
    2  A    between atoms: C_2  and  C_40
    3  A    between atoms: C_5  and  C_11
    4  A    between atoms: C_7  and  C_14
    5  A    between atoms: C_9  and  C_30
    6  A    between atoms: C_9  and  C_37
    7  A    between atoms: C_10  and  C_27
    8  A    between atoms: C_12  and  C_26
    9  A    between atoms: C_12  and  C_36
   10  A    between atoms: N_15  and  C_30
   11  A    between atoms: C_17  and  C_35
   12  A    between atoms: C_18  and  C_27
   13  A    between atoms: C_19  and  C_40
                            x       y       z     vdW  Elec       q    Type
                         _______ _______ _______ _____ _____    ______ ____

>  <TORSDO>
F 13

$$$$
=
 OpenBabel11052410343D

 40 48  0  0  1  0  0  0  0  0999 V2000
  161.6100  210.6510  149.6960 C   0  0  2  0  0  3  0  0  0  0  0  0
  162.2830  210.0360  148.6360 O   0  0  0  0  0  1  0  0  0  0  0  0
  160.3920  212.8310  149.5340 C   0  0  0  0  0  0  0  0  0  0  0  0
  159.8570  213.2600  148.3550 C   0  0  0  0  0  0  0  0  0  0  0  0
  160.9760  213.6070  144.7290 C   0  0  0  0  0  0  0  0  0  0  0  0
  162.3430  213.3180  144.8480 C   0  0  0  0  0  3  0  0  0  0  0  0
  162.0600  212.9140  147.2170 C   0  0  0  0  0  0  0  0  0  0  0  0
  162.6100  212.5570  148.4800 N   0  0  0  0  0  2  0  0  0  0  0  0
  160.6970  213.2340  147.1240 C   0  0  0  0  0  0  0  0  0  0  0  0
  160.1660  213.5870  145.8730 C   0  0  0  0  0  3  0  0  0  0  0  0
  161.7520  212.1770  149.6000 C   0  0  2  0  0  3  0  0  0  0  0  0
  162.8810  212.9700  146.0880 C   0  0  0  0  0  3  0  0  0  0  0  0
  159.6590  212.9040  150.7560 N   0  0  0  0  0  1  0  0  0  0  0  0
  158.1320  214.4530  149.3770 O   0  0  0  0  0  0  0  0  0  0  0  0
  157.6410  212.6050  147.4780 C   0  0  2  0  0  0  0  0  0  0  0  0
  156.9490  213.0500  146.3340 O   0  0  0  0  0  1  0  0  0  0  0  0
  158.4430  213.8140  148.1930 C   0  0  1  0  0  0  0  0  0  0  0  0
  156.7000  212.2980  148.5810 N   0  0  0  0  0  2  0  0  0  0  0  0
  157.3900  213.2870  148.9040 C   0  0  1  0  0  0  0  0  0  0  0  0
  160.4080  214.0280  143.4080 C   0  0  0  0  0  3  0  0  0  0  0  0
  159.1690  213.2130  143.0750 C   0  0  0  0  0  2  0  0  0  0  0  0
  160.4850  212.8830  142.4110 C   0  0  0  0  0  2  0  0  0  0  0  0
  162.3290  208.5930  151.0750 N   0  0  0  0  0  0  0  0  0  0  0  0
  161.2740  210.4830  152.2440 C   0  0  2  0  0  3  0  0  0  0  0  0
  161.0530  209.1630  151.5400 C   0  0  1  0  0  3  0  0  0  0  0  0
  162.1010  210.0640  151.0400 C   0  0  1  0  0  0  0  0  0  0  0  0
  161.4350  210.8650  154.8110 C   0  0  1  0  0  3  0  0  0  0  0  0
  161.1520  209.4160  154.4750 C   0  0  0  0  0  2  0  0  0  0  0  0
  162.0320  210.2290  153.5470 C   0  0  1  0  0  3  0  0  0  0  0  0
  160.1870  211.7050  154.5740 C   0  0  0  0  0  2  0  0  0  0  0  0
  159.2690  211.5820  155.7390 C   0  0  0  0  0  0  0  0  0  0  0  0
  159.6490  211.9390  156.8840 O   0  0  0  0  0  0  0  0  0  0  0  0
  157.9670  211.0360  155.5610 N   0  0  0  0  0  1  0  0  0  0  0  0
  162.0290  207.9100  149.8200 C   0  0  0  0  0  2  0  0  0  0  0  0
  161.2140  206.6540  150.0850 C   0  0  0  0  0  2  0  0  0  0  0  0
  160.4280  206.2380  148.8510 C   0  0  0  0  0  2  0  0  0  0  0  0
  161.0770  205.0350  148.1870 C   0  0  0  0  0  2  0  0  0  0  0  0
  161.6610  205.4170  146.8370 C   0  0  0  0  0  2  0  0  0  0  0  0
  160.4900  205.9310  144.8500 O   0  0  0  0  0  0  0  0  0  0  0  0
  160.6800  206.2010  146.0250 C   0  0  0  0  0  3  0  0  0  0  0  0
  1  2  1  6  0  0  0
  3 11  1  0  0  0  0
  3 13  1  0  0  0  0
  4  3  2  0  0  0  0
  5  6  2  0  0  0  0
  5 10  1  0  0  0  0
  6 12  1  0  0  0  0
  7  8  1  0  0  0  0
  8 11  1  0  0  0  0
  9  7  1  0  0  0  0
  9  4  1  0  0  0  0
 10  9  2  0  0  0  0
 11  1  1  6  0  0  0
 12  7  2  0  0  0  0
 15 16  1  6  0  0  0
 15 17  1  0  0  0  0
 15 18  1  0  0  0  0
 15 19  1  0  0  0  0
 17  4  1  1  0  0  0
 17 19  1  0  0  0  0
 17 14  1  0  0  0  0
 19 18  1  1  0  0  0
 19 14  1  0  0  0  0
 20  5  1  0  0  0  0
 21 20  1  0  0  0  0
 22 21  1  0  0  0  0
 22 20  1  0  0  0  0
 24 29  1  1  0  0  0
 25 23  1  1  0  0  0
 25 24  1  0  0  0  0
 26  1  1  6  0  0  0
 26 23  1  0  0  0  0
 26 25  1  0  0  0  0
 26 24  1  0  0  0  0
 27 30  1  6  0  0  0
 28 27  1  0  0  0  0
 29 28  1  1  0  0  0
 29 27  1  0  0  0  0
 30 31  1  0  0  0  0
 31 32  2  0  0  0  0
 33 31  1  0  0  0  0
 34 35  1  0  0  0  0
 34 23  1  0  0  0  0
 36 35  1  0  0  0  0
 37 36  1  0  0  0  0
 38 37  1  0  0  0  0
 39 40  2  0  0  0  0
 40 38  1  0  0  0  0
M  END
>  <MODEL>
5

>  <REMARK>
 VINA RESULT:      -6.5      3.504      8.437
  Name = 
  13 active torsions:
  status: ('A' for Active; 'I' for Inactive)
    1  A    between atoms: C_2  and  C_37
    2  A    between atoms: C_2  and  C_40
    3  A    between atoms: C_5  and  C_11
    4  A    between atoms: C_7  and  C_14
    5  A    between atoms: C_9  and  C_30
    6  A    between atoms: C_9  and  C_37
    7  A    between atoms: C_10  and  C_27
    8  A    between atoms: C_12  and  C_26
    9  A    between atoms: C_12  and  C_36
   10  A    between atoms: N_15  and  C_30
   11  A    between atoms: C_17  and  C_35
   12  A    between atoms: C_18  and  C_27
   13  A    between atoms: C_19  and  C_40
                            x       y       z     vdW  Elec       q    Type
                         _______ _______ _______ _____ _____    ______ ____

>  <TORSDO>
F 13

$$$$
=
 OpenBabel11052410343D

 40 48  0  0  1  0  0  0  0  0999 V2000
  160.2760  208.5000  153.3780 C   0  0  2  0  0  3  0  0  0  0  0  0
  159.6080  207.5070  154.1010 O   0  0  0  0  0  1  0  0  0  0  0  0
  161.5400  208.1200  151.2510 C   0  0  0  0  0  0  0  0  0  0  0  0
  161.2090  207.1070  150.4000 C   0  0  0  0  0  0  0  0  0  0  0  0
  160.4680  203.3770  150.6340 C   0  0  0  0  0  0  0  0  0  0  0  0
  160.8090  203.1250  151.9700 C   0  0  0  0  0  3  0  0  0  0  0  0
  161.3220  205.4680  152.2890 C   0  0  0  0  0  0  0  0  0  0  0  0
  161.7510  206.5320  153.1330 N   0  0  0  0  0  2  0  0  0  0  0  0
  161.0190  205.7330  150.9460 C   0  0  0  0  0  0  0  0  0  0  0  0
  160.5980  204.6750  150.1230 C   0  0  0  0  0  3  0  0  0  0  0  0
  161.5550  207.9280  152.7490 C   0  0  2  0  0  3  0  0  0  0  0  0
  161.2320  204.1690  152.7950 C   0  0  0  0  0  3  0  0  0  0  0  0
  161.8080  209.4380  150.7740 N   0  0  0  0  0  1  0  0  0  0  0  0
  160.1640  206.2820  148.4850 O   0  0  0  0  0  0  0  0  0  0  0  0
  162.5640  207.5010  148.3710 C   0  0  2  0  0  0  0  0  0  0  0  0
  162.6520  208.6380  147.5440 O   0  0  0  0  0  1  0  0  0  0  0  0
  161.0510  207.2590  148.8880 C   0  0  1  0  0  0  0  0  0  0  0  0
  162.7150  206.2560  147.5800 N   0  0  0  0  0  2  0  0  0  0  0  0
  161.5500  206.3120  148.0250 C   0  0  1  0  0  0  0  0  0  0  0  0
  160.0610  202.2480  149.7360 C   0  0  0  0  0  3  0  0  0  0  0  0
  161.2810  201.4630  149.2790 C   0  0  0  0  0  2  0  0  0  0  0  0
  160.6290  202.4520  148.3410 C   0  0  0  0  0  2  0  0  0  0  0  0
  159.8380  210.9910  153.8810 N   0  0  0  0  0  0  0  0  0  0  0  0
  161.9880  210.0110  154.5680 C   0  0  2  0  0  3  0  0  0  0  0  0
  161.2320  210.7360  153.4780 C   0  0  1  0  0  3  0  0  0  0  0  0
  160.5220  209.7310  154.2810 C   0  0  1  0  0  0  0  0  0  0  0  0
  162.2200  210.2710  157.1440 C   0  0  1  0  0  3  0  0  0  0  0  0
  163.4850  210.6820  156.4220 C   0  0  0  0  0  2  0  0  0  0  0  0
  162.1440  210.9460  155.7680 C   0  0  1  0  0  3  0  0  0  0  0  0
  162.0800  208.7540  157.1200 C   0  0  0  0  0  2  0  0  0  0  0  0
  160.6440  208.3780  157.2240 C   0  0  0  0  0  0  0  0  0  0  0  0
  160.3080  207.1660  157.2570 O   0  0  0  0  0  0  0  0  0  0  0  0
  159.6470  209.3920  157.2600 N   0  0  0  0  0  1  0  0  0  0  0  0
  159.0410  210.8810  152.6630 C   0  0  0  0  0  2  0  0  0  0  0  0
  158.6580  212.2620  152.1560 C   0  0  0  0  0  2  0  0  0  0  0  0
  158.3290  213.1990  153.3080 C   0  0  0  0  0  2  0  0  0  0  0  0
  156.9170  213.7430  153.1650 C   0  0  0  0  0  2  0  0  0  0  0  0
  156.0310  213.2380  154.2920 C   0  0  0  0  0  2  0  0  0  0  0  0
  156.9060  213.5490  156.4660 O   0  0  0  0  0  0  0  0  0  0  0  0
  156.8450  212.8320  155.4800 C   0  0  0  0  0  3  0  0  0  0  0  0
  1  2  1  1  0  0  0
  3 11  1  0  0  0  0
  4  9  1  0  0  0  0
  4  3  2  0  0  0  0
  5  6  1  0  0  0  0
  6 12  2  0  0  0  0
  7 12  1  0  0  0  0
  7  8  1  0  0  0  0
  9  7  2  0  0  0  0
 10  5  2  0  0  0  0
 10  9  1  0  0  0  0
 11  8  1  0  0  0  0
 11  1  1  6  0  0  0
 13  3  1  0  0  0  0
 14 17  1  0  0  0  0
 15 16  1  6  0  0  0
 15 17  1  0  0  0  0
 17  4  1  1  0  0  0
 18 15  1  0  0  0  0
 19 18  1  1  0  0  0
 19 15  1  0  0  0  0
 19 14  1  0  0  0  0
 19 17  1  0  0  0  0
 20  5  1  0  0  0  0
 21 20  1  0  0  0  0
 22 21  1  0  0  0  0
 22 20  1  0  0  0  0
 23 26  1  0  0  0  0
 24 29  1  1  0  0  0
 25 23  1  1  0  0  0
 25 26  1  0  0  0  0
 25 24  1  0  0  0  0
 26  1  1  6  0  0  0
 26 24  1  0  0  0  0
 27 30  1  6  0  0  0
 28 27  1  0  0  0  0
 29 28  1  6  0  0  0
 29 27  1  0  0  0  0
 30 31  1  0  0  0  0
 31 32  2  0  0  0  0
 31 33  1  0  0  0  0
 34 23  1  0  0  0  0
 35 34  1  0  0  0  0
 35 36  1  0  0  0  0
 37 36  1  0  0  0  0
 37 38  1  0  0  0  0
 38 40  1  0  0  0  0
 40 39  2  0  0  0  0
M  END
>  <MODEL>
6

>  <REMARK>
 VINA RESULT:      -6.2      2.021      4.146
  Name = 
  13 active torsions:
  status: ('A' for Active; 'I' for Inactive)
    1  A    between atoms: C_2  and  C_37
    2  A    between atoms: C_2  and  C_40
    3  A    between atoms: C_5  and  C_11
    4  A    between atoms: C_7  and  C_14
    5  A    between atoms: C_9  and  C_30
    6  A    between atoms: C_9  and  C_37
    7  A    between atoms: C_10  and  C_27
    8  A    between atoms: C_12  and  C_26
    9  A    between atoms: C_12  and  C_36
   10  A    between atoms: N_15  and  C_30
   11  A    between atoms: C_17  and  C_35
   12  A    between atoms: C_18  and  C_27
   13  A    between atoms: C_19  and  C_40
                            x       y       z     vdW  Elec       q    Type
                         _______ _______ _______ _____ _____    ______ ____

>  <TORSDO>
F 13

$$$$
=
 OpenBabel11052410343D

 40 48  0  0  1  0  0  0  0  0999 V2000
  160.8880  208.6370  151.1840 C   0  0  2  0  0  3  0  0  0  0  0  0
  160.0320  207.8070  151.9150 O   0  0  0  0  0  1  0  0  0  0  0  0
  161.9650  207.4990  149.2320 C   0  0  0  0  0  0  0  0  0  0  0  0
  161.5610  206.2630  148.8190 C   0  0  0  0  0  0  0  0  0  0  0  0
  160.8370  202.8740  150.4040 C   0  0  0  0  0  0  0  0  0  0  0  0
  161.2910  203.0950  151.7120 C   0  0  0  0  0  3  0  0  0  0  0  0
  161.8330  205.3850  151.1470 C   0  0  0  0  0  0  0  0  0  0  0  0
  162.3340  206.6620  151.5280 N   0  0  0  0  0  2  0  0  0  0  0  0
  161.4160  205.1730  149.8250 C   0  0  0  0  0  0  0  0  0  0  0  0
  160.9250  203.9080  149.4610 C   0  0  0  0  0  3  0  0  0  0  0  0
  162.1070  207.8420  150.6960 C   0  0  2  0  0  3  0  0  0  0  0  0
  161.7840  204.3470  152.0820 C   0  0  0  0  0  3  0  0  0  0  0  0
  162.1930  208.5580  148.3040 N   0  0  0  0  0  1  0  0  0  0  0  0
  160.0800  205.1920  147.3700 O   0  0  0  0  0  0  0  0  0  0  0  0
  162.7100  205.3820  146.8160 C   0  0  2  0  0  0  0  0  0  0  0  0
  163.0530  206.0230  145.6100 O   0  0  0  0  0  1  0  0  0  0  0  0
  161.2750  205.8830  147.3680 C   0  0  1  0  0  0  0  0  0  0  0  0
  162.3580  203.9610  146.5810 N   0  0  0  0  0  2  0  0  0  0  0  0
  161.3350  204.5730  146.9530 C   0  0  1  0  0  0  0  0  0  0  0  0
  160.3540  201.5170  149.9940 C   0  0  0  0  0  3  0  0  0  0  0  0
  161.2240  200.9530  148.8820 C   0  0  0  0  0  2  0  0  0  0  0  0
  159.8720  201.5410  148.5520 C   0  0  0  0  0  2  0  0  0  0  0  0
  161.8100  211.0440  151.2730 N   0  0  0  0  0  0  0  0  0  0  0  0
  162.1180  209.5900  153.2350 C   0  0  2  0  0  3  0  0  0  0  0  0
  162.7050  210.0740  151.9280 C   0  0  1  0  0  3  0  0  0  0  0  0
  161.2510  209.8840  152.0220 C   0  0  1  0  0  0  0  0  0  0  0  0
  161.8280  210.3860  155.6930 C   0  0  1  0  0  3  0  0  0  0  0  0
  163.2430  210.5980  155.1970 C   0  0  0  0  0  2  0  0  0  0  0  0
  162.0900  210.7540  154.2260 C   0  0  1  0  0  3  0  0  0  0  0  0
  161.5850  208.9040  155.9450 C   0  0  0  0  0  2  0  0  0  0  0  0
  160.1250  208.6470  156.0750 C   0  0  0  0  0  0  0  0  0  0  0  0
  159.3070  209.6020  156.0220 O   0  0  0  0  0  0  0  0  0  0  0  0
  159.6540  207.3210  156.2850 N   0  0  0  0  0  1  0  0  0  0  0  0
  161.9540  210.8180  149.8380 C   0  0  0  0  0  2  0  0  0  0  0  0
  161.7700  212.1210  149.0780 C   0  0  0  0  0  2  0  0  0  0  0  0
  162.7240  212.2090  147.8970 C   0  0  0  0  0  2  0  0  0  0  0  0
  162.0770  212.9580  146.7440 C   0  0  0  0  0  2  0  0  0  0  0  0
  160.5710  212.7540  146.7490 C   0  0  0  0  0  2  0  0  0  0  0  0
  158.8770  212.2130  145.1920 O   0  0  0  0  0  0  0  0  0  0  0  0
  160.0650  212.4200  145.3820 C   0  0  0  0  0  3  0  0  0  0  0  0
  1  2  1  1  0  0  0
  3 11  1  0  0  0  0
  4  3  2  0  0  0  0
  4  9  1  0  0  0  0
  5  6  1  0  0  0  0
  6 12  2  0  0  0  0
  7  8  1  0  0  0  0
  7 12  1  0  0  0  0
  9  7  2  0  0  0  0
 10  9  1  0  0  0  0
 10  5  2  0  0  0  0
 11  1  1  1  0  0  0
 11  8  1  0  0  0  0
 13  3  1  0  0  0  0
 15 16  1  6  0  0  0
 15 19  1  0  0  0  0
 15 17  1  0  0  0  0
 17 14  1  0  0  0  0
 17  4  1  1  0  0  0
 18 15  1  0  0  0  0
 19 18  1  1  0  0  0
 19 17  1  0  0  0  0
 19 14  1  0  0  0  0
 20  5  1  0  0  0  0
 21 20  1  0  0  0  0
 22 21  1  0  0  0  0
 22 20  1  0  0  0  0
 23 26  1  0  0  0  0
 24 29  1  1  0  0  0
 25 23  1  1  0  0  0
 25 26  1  0  0  0  0
 25 24  1  0  0  0  0
 26  1  1  6  0  0  0
 26 24  1  0  0  0  0
 27 30  1  6  0  0  0
 28 27  1  0  0  0  0
 29 28  1  1  0  0  0
 29 27  1  0  0  0  0
 30 31  1  0  0  0  0
 31 33  1  0  0  0  0
 32 31  2  0  0  0  0
 34 23  1  0  0  0  0
 35 34  1  0  0  0  0
 36 35  1  0  0  0  0
 37 38  1  0  0  0  0
 37 36  1  0  0  0  0
 39 40  2  0  0  0  0
 40 38  1  0  0  0  0
M  END
>  <MODEL>
7

>  <REMARK>
 VINA RESULT:      -6.2      2.187      5.065
  Name = 
  13 active torsions:
  status: ('A' for Active; 'I' for Inactive)
    1  A    between atoms: C_2  and  C_37
    2  A    between atoms: C_2  and  C_40
    3  A    between atoms: C_5  and  C_11
    4  A    between atoms: C_7  and  C_14
    5  A    between atoms: C_9  and  C_30
    6  A    between atoms: C_9  and  C_37
    7  A    between atoms: C_10  and  C_27
    8  A    between atoms: C_12  and  C_26
    9  A    between atoms: C_12  and  C_36
   10  A    between atoms: N_15  and  C_30
   11  A    between atoms: C_17  and  C_35
   12  A    between atoms: C_18  and  C_27
   13  A    between atoms: C_19  and  C_40
                            x       y       z     vdW  Elec       q    Type
                         _______ _______ _______ _____ _____    ______ ____

>  <TORSDO>
F 13

$$$$
=
 OpenBabel11052410343D

 40 48  0  0  1  0  0  0  0  0999 V2000
  160.3800  208.8270  153.9290 C   0  0  2  0  0  3  0  0  0  0  0  0
  160.0810  208.0710  155.0660 O   0  0  0  0  0  1  0  0  0  0  0  0
  161.6030  208.5580  151.7620 C   0  0  0  0  0  0  0  0  0  0  0  0
  161.2470  207.5970  150.8600 C   0  0  0  0  0  0  0  0  0  0  0  0
  160.4710  203.8680  150.8950 C   0  0  0  0  0  0  0  0  0  0  0  0
  160.8320  203.5370  152.2080 C   0  0  0  0  0  3  0  0  0  0  0  0
  161.3760  205.8530  152.6500 C   0  0  0  0  0  0  0  0  0  0  0  0
  161.8300  206.8620  153.5450 N   0  0  0  0  0  2  0  0  0  0  0  0
  161.0510  206.1970  151.3300 C   0  0  0  0  0  0  0  0  0  0  0  0
  160.6060  205.1920  150.4560 C   0  0  0  0  0  3  0  0  0  0  0  0
  161.6420  208.2800  153.2460 C   0  0  2  0  0  3  0  0  0  0  0  0
  161.2800  204.5280  153.0830 C   0  0  0  0  0  3  0  0  0  0  0  0
  161.8770  209.8980  151.3560 N   0  0  0  0  0  1  0  0  0  0  0  0
  160.4410  206.7140  148.8570 O   0  0  0  0  0  0  0  0  0  0  0  0
  162.4770  208.4790  148.9060 C   0  0  2  0  0  0  0  0  0  0  0  0
  162.2920  209.6710  148.1780 O   0  0  0  0  0  1  0  0  0  0  0  0
  161.0640  207.8370  149.3630 C   0  0  1  0  0  0  0  0  0  0  0  0
  162.9270  207.3790  148.0190 N   0  0  0  0  0  2  0  0  0  0  0  0
  161.7810  207.1150  148.4360 C   0  0  1  0  0  0  0  0  0  0  0  0
  160.0360  202.7960  149.9420 C   0  0  0  0  0  3  0  0  0  0  0  0
  161.1760  201.8240  149.6740 C   0  0  0  0  0  2  0  0  0  0  0  0
  160.8340  202.8820  148.6500 C   0  0  0  0  0  2  0  0  0  0  0  0
  161.3050  210.6570  155.4930 N   0  0  0  0  0  0  0  0  0  0  0  0
  159.1320  211.0290  154.4020 C   0  0  2  0  0  3  0  0  0  0  0  0
  159.8470  210.4930  155.6210 C   0  0  1  0  0  3  0  0  0  0  0  0
  160.4750  210.3240  154.3040 C   0  0  1  0  0  0  0  0  0  0  0  0
  158.0080  213.3730  154.3350 C   0  0  1  0  0  3  0  0  0  0  0  0
  158.7490  213.1420  155.6350 C   0  0  0  0  0  2  0  0  0  0  0  0
  159.3030  212.5470  154.3550 C   0  0  1  0  0  3  0  0  0  0  0  0
  156.7270  212.5500  154.3160 C   0  0  0  0  0  2  0  0  0  0  0  0
  155.5510  213.4500  154.1700 C   0  0  0  0  0  0  0  0  0  0  0  0
  155.0270  213.9770  155.1850 O   0  0  0  0  0  0  0  0  0  0  0  0
  155.0020  213.6940  152.8800 N   0  0  0  0  0  1  0  0  0  0  0  0
  161.9000  209.4980  156.1530 C   0  0  0  0  0  2  0  0  0  0  0  0
  163.1050  209.9210  156.9780 C   0  0  0  0  0  2  0  0  0  0  0  0
  163.2390  211.4350  157.0190 C   0  0  0  0  0  2  0  0  0  0  0  0
  164.6870  211.8350  157.2490 C   0  0  0  0  0  2  0  0  0  0  0  0
  165.4360  211.9200  155.9280 C   0  0  0  0  0  2  0  0  0  0  0  0
  166.9370  213.5680  156.7120 O   0  0  0  0  0  0  0  0  0  0  0  0
  166.7960  212.5130  156.1150 C   0  0  0  0  0  3  0  0  0  0  0  0
  1  2  1  1  0  0  0
  3 11  1  0  0  0  0
  4  9  1  0  0  0  0
  4  3  2  0  0  0  0
  5  6  1  0  0  0  0
  6 12  2  0  0  0  0
  7 12  1  0  0  0  0
  7  8  1  0  0  0  0
  9  7  2  0  0  0  0
 10  5  2  0  0  0  0
 10  9  1  0  0  0  0
 11  8  1  0  0  0  0
 11  1  1  1  0  0  0
 13  3  1  0  0  0  0
 14 17  1  0  0  0  0
 15 16  1  6  0  0  0
 15 17  1  0  0  0  0
 17  4  1  1  0  0  0
 18 15  1  0  0  0  0
 19 18  1  1  0  0  0
 19 14  1  0  0  0  0
 19 15  1  0  0  0  0
 19 17  1  0  0  0  0
 20  5  1  0  0  0  0
 21 20  1  0  0  0  0
 22 21  1  0  0  0  0
 22 20  1  0  0  0  0
 23 34  1  0  0  0  0
 24 29  1  1  0  0  0
 24 25  1  0  0  0  0
 25 23  1  1  0  0  0
 26  1  1  6  0  0  0
 26 24  1  0  0  0  0
 26 23  1  0  0  0  0
 26 25  1  0  0  0  0
 27 30  1  1  0  0  0
 27 29  1  0  0  0  0
 27 28  1  0  0  0  0
 29 28  1  1  0  0  0
 31 30  1  0  0  0  0
 31 32  2  0  0  0  0
 33 31  1  0  0  0  0
 34 35  1  0  0  0  0
 35 36  1  0  0  0  0
 36 37  1  0  0  0  0
 38 40  1  0  0  0  0
 38 37  1  0  0  0  0
 40 39  2  0  0  0  0
M  END
>  <MODEL>
8

>  <REMARK>
 VINA RESULT:      -5.9      2.501      3.154
  Name = 
  13 active torsions:
  status: ('A' for Active; 'I' for Inactive)
    1  A    between atoms: C_2  and  C_37
    2  A    between atoms: C_2  and  C_40
    3  A    between atoms: C_5  and  C_11
    4  A    between atoms: C_7  and  C_14
    5  A    between atoms: C_9  and  C_30
    6  A    between atoms: C_9  and  C_37
    7  A    between atoms: C_10  and  C_27
    8  A    between atoms: C_12  and  C_26
    9  A    between atoms: C_12  and  C_36
   10  A    between atoms: N_15  and  C_30
   11  A    between atoms: C_17  and  C_35
   12  A    between atoms: C_18  and  C_27
   13  A    between atoms: C_19  and  C_40
                            x       y       z     vdW  Elec       q    Type
                         _______ _______ _______ _____ _____    ______ ____

>  <TORSDO>
F 13

$$$$
=
 OpenBabel11052410343D

 40 48  0  0  1  0  0  0  0  0999 V2000
  161.3850  209.3570  151.7840 C   0  0  2  0  0  3  0  0  0  0  0  0
  160.2450  208.6590  152.1940 O   0  0  0  0  0  1  0  0  0  0  0  0
  161.7320  210.3910  154.0360 C   0  0  0  0  0  0  0  0  0  0  0  0
  160.7170  210.4740  154.9440 C   0  0  0  0  0  0  0  0  0  0  0  0
  157.0750  211.5940  154.9840 C   0  0  0  0  0  0  0  0  0  0  0  0
  156.9640  212.1680  153.7100 C   0  0  0  0  0  3  0  0  0  0  0  0
  159.2560  211.5610  153.2270 C   0  0  0  0  0  0  0  0  0  0  0  0
  160.3620  211.5400  152.3310 N   0  0  0  0  0  2  0  0  0  0  0  0
  159.3970  211.0130  154.5100 C   0  0  0  0  0  0  0  0  0  0  0  0
  158.2990  211.0410  155.3850 C   0  0  0  0  0  3  0  0  0  0  0  0
  161.5120  210.6710  152.5690 C   0  0  2  0  0  3  0  0  0  0  0  0
  158.0510  212.1480  152.8340 C   0  0  0  0  0  3  0  0  0  0  0  0
  163.0370  209.9540  154.4140 N   0  0  0  0  0  1  0  0  0  0  0  0
  161.7410  210.9590  156.9830 O   0  0  0  0  0  0  0  0  0  0  0  0
  160.9020  208.4710  156.3800 C   0  0  2  0  0  0  0  0  0  0  0  0
  159.9660  207.8940  157.2590 O   0  0  0  0  0  1  0  0  0  0  0  0
  160.8350  210.0860  156.4170 C   0  0  1  0  0  0  0  0  0  0  0  0
  162.2830  208.3090  156.8930 N   0  0  0  0  0  2  0  0  0  0  0  0
  161.9870  209.5210  156.9110 C   0  0  1  0  0  0  0  0  0  0  0  0
  155.9250  211.6580  155.9410 C   0  0  0  0  0  3  0  0  0  0  0  0
  155.4530  213.0940  156.1150 C   0  0  0  0  0  2  0  0  0  0  0  0
  156.3110  212.4500  157.1790 C   0  0  0  0  0  2  0  0  0  0  0  0
  161.5710  208.3250  149.4270 N   0  0  0  0  0  0  0  0  0  0  0  0
  162.2540  210.6670  149.7450 C   0  0  2  0  0  3  0  0  0  0  0  0
  162.6980  209.2220  149.7390 C   0  0  1  0  0  3  0  0  0  0  0  0
  161.3590  209.5480  150.2500 C   0  0  1  0  0  0  0  0  0  0  0  0
  161.3300  212.5000  148.1490 C   0  0  1  0  0  3  0  0  0  0  0  0
  162.7890  212.1990  147.8740 C   0  0  0  0  0  2  0  0  0  0  0  0
  161.8750  211.0750  148.3210 C   0  0  1  0  0  3  0  0  0  0  0  0
  161.2000  213.2940  149.4420 C   0  0  0  0  0  2  0  0  0  0  0  0
  159.9250  214.0600  149.4370 C   0  0  0  0  0  0  0  0  0  0  0  0
  159.3510  214.3410  150.5210 O   0  0  0  0  0  0  0  0  0  0  0  0
  159.3380  214.4530  148.2020 N   0  0  0  0  0  1  0  0  0  0  0  0
  161.7970  207.1110  150.2060 C   0  0  0  0  0  2  0  0  0  0  0  0
  161.4520  205.8820  149.3790 C   0  0  0  0  0  2  0  0  0  0  0  0
  160.4950  204.9680  150.1270 C   0  0  0  0  0  2  0  0  0  0  0  0
  160.9210  203.5170  149.9810 C   0  0  0  0  0  2  0  0  0  0  0  0
  161.3420  203.2220  148.5510 C   0  0  0  0  0  2  0  0  0  0  0  0
  161.3160  200.8640  148.3940 O   0  0  0  0  0  0  0  0  0  0  0  0
  160.7830  201.9170  148.0800 C   0  0  0  0  0  3  0  0  0  0  0  0
  1  2  1  1  0  0  0
  3 13  1  0  0  0  0
  3  4  2  0  0  0  0
  5 10  1  0  0  0  0
  5 20  1  0  0  0  0
  6  5  2  0  0  0  0
  7  9  1  0  0  0  0
  8 11  1  0  0  0  0
  8  7  1  0  0  0  0
  9  4  1  0  0  0  0
  9 10  2  0  0  0  0
 11  1  1  6  0  0  0
 11  3  1  0  0  0  0
 12  7  2  0  0  0  0
 12  6  1  0  0  0  0
 15 17  1  0  0  0  0
 15 18  1  0  0  0  0
 15 19  1  0  0  0  0
 15 16  1  1  0  0  0
 17  4  1  6  0  0  0
 17 19  1  0  0  0  0
 17 14  1  0  0  0  0
 19 18  1  6  0  0  0
 19 14  1  0  0  0  0
 20 21  1  0  0  0  0
 20 22  1  0  0  0  0
 21 22  1  0  0  0  0
 23 34  1  0  0  0  0
 23 26  1  0  0  0  0
 24 29  1  6  0  0  0
 24 26  1  0  0  0  0
 25 23  1  6  0  0  0
 25 24  1  0  0  0  0
 25 26  1  0  0  0  0
 26  1  1  1  0  0  0
 27 29  1  0  0  0  0
 27 30  1  1  0  0  0
 28 27  1  0  0  0  0
 29 28  1  6  0  0  0
 31 30  1  0  0  0  0
 31 32  2  0  0  0  0
 33 31  1  0  0  0  0
 35 36  1  0  0  0  0
 35 34  1  0  0  0  0
 37 36  1  0  0  0  0
 38 37  1  0  0  0  0
 40 39  2  0  0  0  0
 40 38  1  0  0  0  0
M  END
>  <MODEL>
9

>  <REMARK>
 VINA RESULT:      -5.9      2.483      8.430
  Name = 
  13 active torsions:
  status: ('A' for Active; 'I' for Inactive)
    1  A    between atoms: C_2  and  C_37
    2  A    between atoms: C_2  and  C_40
    3  A    between atoms: C_5  and  C_11
    4  A    between atoms: C_7  and  C_14
    5  A    between atoms: C_9  and  C_30
    6  A    between atoms: C_9  and  C_37
    7  A    between atoms: C_10  and  C_27
    8  A    between atoms: C_12  and  C_26
    9  A    between atoms: C_12  and  C_36
   10  A    between atoms: N_15  and  C_30
   11  A    between atoms: C_17  and  C_35
   12  A    between atoms: C_18  and  C_27
   13  A    between atoms: C_19  and  C_40
                            x       y       z     vdW  Elec       q    Type
                         _______ _______ _______ _____ _____    ______ ____

>  <TORSDO>
F 13

$$$$
