=
 OpenBabel11042420263D

 31 35  0  0  1  0  0  0  0  0999 V2000
  161.6160  208.2770  151.9730 C   0  0  0  0  0  0  0  0  0  0  0  0
  161.1250  205.9380  152.3100 C   0  0  0  0  0  0  0  0  0  0  0  0
  161.3970  207.1360  152.8670 C   0  0  0  0  0  3  0  0  0  0  0  0
  157.5210  211.9260  154.8260 C   0  0  1  0  0  3  0  0  0  0  0  0
  161.3440  209.8390  148.2500 Cl  0  0  0  0  0  0  0  0  0  0  0  0
  161.7180  210.2900  150.9540 C   0  0  0  0  0  0  0  0  0  0  0  0
  161.4920  208.1160  150.5440 C   0  0  0  0  0  0  0  0  0  0  0  0
  161.5600  209.4360  149.9430 C   0  0  0  0  0  0  0  0  0  0  0  0
  158.9740  213.0480  153.0570 O   0  0  0  0  0  0  0  0  0  0  0  0
  161.7480  211.7790  150.8910 C   0  0  0  0  0  2  0  0  0  0  0  0
  161.7850  209.5720  152.2240 C   0  0  1  0  0  3  0  0  0  0  0  0
  160.5920  212.4130  151.5390 N   0  0  0  0  0  0  0  0  0  0  0  0
  157.8210  210.6400  154.0580 C   0  0  2  0  0  3  0  0  0  0  0  0
  156.8600  209.2960  154.7200 Cl  0  0  0  0  0  0  0  0  0  0  0  0
  158.4160  213.0730  154.3670 C   0  0  0  0  0  0  0  0  0  0  0  0
  158.1330  214.4530  154.9130 C   0  0  0  0  0  2  0  0  0  0  0  0
  159.9710  212.1440  152.6620 C   0  0  0  0  0  0  0  0  0  0  0  0
  161.0320  205.8200  150.8210 C   0  0  0  0  0  0  0  0  0  0  0  0
  160.2630  210.9380  153.5120 C   0  0  0  0  0  0  0  0  0  0  0  0
  160.7950  204.7030  150.2920 O   0  0  0  0  0  0  0  0  0  0  0  0
  159.3270  213.6550  155.4230 C   0  0  0  0  0  2  0  0  0  0  0  0
  159.2710  210.2650  154.1190 C   0  0  0  0  0  3  0  0  0  0  0  0
  156.1820  212.2750  154.6360 O   0  0  0  0  0  1  0  0  0  0  0  0
  161.6320  210.3220  153.5050 C   0  0  1  0  0  3  0  0  0  0  0  0
  161.1940  206.9840  149.9860 N   0  0  0  0  0  2  0  0  0  0  0  0
  160.9320  203.4800  152.5690 C   0  0  0  0  0  1  0  0  0  0  0  0
  160.9190  204.8000  153.0980 O   0  0  0  0  0  0  0  0  0  0  0  0
  161.9950  209.5330  154.7650 C   0  0  0  0  0  2  0  0  0  0  0  0
  162.2450  210.6540  156.1750 S   0  0  0  0  0  0  0  0  0  0  0  0
  161.0770  208.2640  156.7990 C   0  0  0  0  0  1  0  0  0  0  0  0
  161.1380  209.7060  157.2590 C   0  0  0  0  0  2  0  0  0  0  0  0
  1 11  1  0  0  0  0
  1  3  1  0  0  0  0
  2  3  2  0  0  0  0
  2 27  1  0  0  0  0
  4 23  1  6  0  0  0
  5  8  1  0  0  0  0
  7  1  2  0  0  0  0
  8  7  1  0  0  0  0
  8  6  2  0  0  0  0
  9 15  1  0  0  0  0
 10  6  1  0  0  0  0
 10 12  1  0  0  0  0
 11  6  1  6  0  0  0
 11 24  1  0  0  0  0
 12 17  2  0  0  0  0
 13 22  1  0  0  0  0
 13 14  1  1  0  0  0
 13  4  1  0  0  0  0
 15  4  1  0  0  0  0
 15 16  1  0  0  0  0
 15 21  1  0  0  0  0
 16 21  1  0  0  0  0
 17  9  1  0  0  0  0
 17 19  1  0  0  0  0
 18  2  1  0  0  0  0
 19 22  2  0  0  0  0
 20 18  2  0  0  0  0
 24 19  1  0  0  0  0
 24 28  1  1  0  0  0
 25  7  1  0  0  0  0
 25 18  1  0  0  0  0
 26 27  1  0  0  0  0
 28 29  1  0  0  0  0
 29 31  1  0  0  0  0
 30 31  1  0  0  0  0
M  END
>  <MODEL>
1

>  <REMARK>
 VINA RESULT:      -1.9      0.000      0.000
  Name = 
  4 active torsions:
  status: ('A' for Active; 'I' for Inactive)
    1  A    between atoms: C_2  and  O_26
    2  A    between atoms: S_5  and  C_6
    3  A    between atoms: S_5  and  C_27
    4  A    between atoms: C_6  and  C_30
                            x       y       z     vdW  Elec       q    Type
                         _______ _______ _______ _____ _____    ______ ____

>  <TORSDO>
F 4

$$$$
=
 OpenBabel11042420263D

 31 35  0  0  1  0  0  0  0  0999 V2000
  159.0490  213.1270  148.9300 C   0  0  0  0  0  0  0  0  0  0  0  0
  159.0290  212.2980  146.6640 C   0  0  0  0  0  0  0  0  0  0  0  0
  159.7530  212.5800  147.7670 C   0  0  0  0  0  3  0  0  0  0  0  0
  161.3440  208.9640  152.8850 C   0  0  1  0  0  3  0  0  0  0  0  0
  155.5360  213.8750  150.7940 Cl  0  0  0  0  0  0  0  0  0  0  0  0
  158.2910  213.6910  150.9810 C   0  0  0  0  0  0  0  0  0  0  0  0
  157.6170  213.3050  148.8980 C   0  0  0  0  0  0  0  0  0  0  0  0
  157.1860  213.6610  150.2370 C   0  0  0  0  0  0  0  0  0  0  0  0
  160.0460  210.8970  153.9260 O   0  0  0  0  0  0  0  0  0  0  0  0
  158.3910  213.9110  152.4520 C   0  0  0  0  0  2  0  0  0  0  0  0
  159.4640  213.3890  150.1670 C   0  0  1  0  0  3  0  0  0  0  0  0
  158.8450  212.7240  153.1900 N   0  0  0  0  0  0  0  0  0  0  0  0
  160.5260  209.2730  151.6320 C   0  0  2  0  0  3  0  0  0  0  0  0
  160.8270  208.0350  150.3880 Cl  0  0  0  0  0  0  0  0  0  0  0  0
  161.2050  210.0690  153.9280 C   0  0  0  0  0  0  0  0  0  0  0  0
  161.8210  209.8390  155.2890 C   0  0  0  0  0  2  0  0  0  0  0  0
  159.7770  211.8420  152.9250 C   0  0  0  0  0  0  0  0  0  0  0  0
  157.5510  212.5240  146.6730 C   0  0  0  0  0  0  0  0  0  0  0  0
  160.5390  211.7920  151.6280 C   0  0  0  0  0  0  0  0  0  0  0  0
  156.8700  212.2790  145.6440 O   0  0  0  0  0  0  0  0  0  0  0  0
  162.4840  210.7860  154.2960 C   0  0  0  0  0  2  0  0  0  0  0  0
  160.8500  210.6170  151.0560 C   0  0  0  0  0  3  0  0  0  0  0  0
  160.9140  207.7520  153.4310 O   0  0  0  0  0  1  0  0  0  0  0  0
  160.7560  213.0460  150.8310 C   0  0  1  0  0  3  0  0  0  0  0  0
  156.8950  213.0050  147.8640 N   0  0  0  0  0  2  0  0  0  0  0  0
  160.5400  212.5400  144.7130 C   0  0  0  0  0  1  0  0  0  0  0  0
  159.6330  211.7880  145.5080 O   0  0  0  0  0  0  0  0  0  0  0  0
  161.9740  213.0230  149.9060 C   0  0  0  0  0  2  0  0  0  0  0  0
  161.9510  214.4510  148.7780 S   0  0  0  0  0  0  0  0  0  0  0  0
  163.2710  212.1960  147.9760 C   0  0  0  0  0  1  0  0  0  0  0  0
  162.9570  213.6070  147.5220 C   0  0  0  0  0  2  0  0  0  0  0  0
  2 18  1  0  0  0  0
  2  3  2  0  0  0  0
  3  1  1  0  0  0  0
  4 23  1  1  0  0  0
  4 15  1  0  0  0  0
  6 10  1  0  0  0  0
  7  1  2  0  0  0  0
  7  8  1  0  0  0  0
  8  5  1  0  0  0  0
  8  6  2  0  0  0  0
  9 15  1  0  0  0  0
 10 12  1  0  0  0  0
 11  1  1  6  0  0  0
 11 24  1  0  0  0  0
 11  6  1  0  0  0  0
 13 14  1  6  0  0  0
 13  4  1  0  0  0  0
 15 21  1  0  0  0  0
 15 16  1  0  0  0  0
 17 12  2  0  0  0  0
 17  9  1  0  0  0  0
 18 25  1  0  0  0  0
 19 17  1  0  0  0  0
 20 18  2  0  0  0  0
 21 16  1  0  0  0  0
 22 19  2  0  0  0  0
 22 13  1  0  0  0  0
 24 28  1  6  0  0  0
 24 19  1  0  0  0  0
 25  7  1  0  0  0  0
 26 27  1  0  0  0  0
 27  2  1  0  0  0  0
 29 28  1  0  0  0  0
 31 30  1  0  0  0  0
 31 29  1  0  0  0  0
M  END
>  <MODEL>
2

>  <REMARK>
 VINA RESULT:      -0.9      4.047      6.752
  Name = 
  4 active torsions:
  status: ('A' for Active; 'I' for Inactive)
    1  A    between atoms: C_2  and  O_26
    2  A    between atoms: S_5  and  C_6
    3  A    between atoms: S_5  and  C_27
    4  A    between atoms: C_6  and  C_30
                            x       y       z     vdW  Elec       q    Type
                         _______ _______ _______ _____ _____    ______ ____

>  <TORSDO>
F 4

$$$$
=
 OpenBabel11042420263D

 31 35  0  0  1  0  0  0  0  0999 V2000
  159.9100  211.5130  153.4570 C   0  0  0  0  0  0  0  0  0  0  0  0
  159.6830  213.2920  151.8430 C   0  0  0  0  0  0  0  0  0  0  0  0
  160.4750  212.3500  152.3950 C   0  0  0  0  0  3  0  0  0  0  0  0
  161.5470  206.1780  150.7950 C   0  0  1  0  0  3  0  0  0  0  0  0
  156.6350  210.2250  155.4550 Cl  0  0  0  0  0  0  0  0  0  0  0  0
  159.3190  209.8660  154.8840 C   0  0  0  0  0  0  0  0  0  0  0  0
  158.5320  211.6710  153.8540 C   0  0  0  0  0  0  0  0  0  0  0  0
  158.2060  210.5880  154.7630 C   0  0  0  0  0  0  0  0  0  0  0  0
  160.6380  206.0070  153.1710 O   0  0  0  0  0  0  0  0  0  0  0  0
  159.4970  208.5870  155.6300 C   0  0  0  0  0  2  0  0  0  0  0  0
  160.3980  210.4530  154.0960 C   0  0  1  0  0  3  0  0  0  0  0  0
  159.7560  207.4340  154.7550 N   0  0  0  0  0  0  0  0  0  0  0  0
  160.7620  207.4870  150.7370 C   0  0  2  0  0  3  0  0  0  0  0  0
  160.8070  208.1520  149.0860 Cl  0  0  0  0  0  0  0  0  0  0  0  0
  161.6330  205.6420  152.2200 C   0  0  0  0  0  0  0  0  0  0  0  0
  162.2360  204.2710  152.4250 C   0  0  0  0  0  2  0  0  0  0  0  0
  160.5110  207.3040  153.6930 C   0  0  0  0  0  0  0  0  0  0  0  0
  158.2680  213.4320  152.3060 C   0  0  0  0  0  0  0  0  0  0  0  0
  161.2160  208.4500  153.0200 C   0  0  0  0  0  0  0  0  0  0  0  0
  157.5260  214.3180  151.8080 O   0  0  0  0  0  0  0  0  0  0  0  0
  163.0280  205.5210  152.7910 C   0  0  0  0  0  2  0  0  0  0  0  0
  161.3010  208.5180  151.6810 C   0  0  0  0  0  3  0  0  0  0  0  0
  160.9270  205.2310  149.9770 O   0  0  0  0  0  1  0  0  0  0  0  0
  161.6280  209.6550  153.8160 C   0  0  1  0  0  3  0  0  0  0  0  0
  157.7390  212.5420  153.3110 N   0  0  0  0  0  2  0  0  0  0  0  0
  160.4680  213.6840  149.5240 C   0  0  0  0  0  1  0  0  0  0  0  0
  160.1560  214.1390  150.8340 O   0  0  0  0  0  0  0  0  0  0  0  0
  162.7970  210.4500  153.2320 C   0  0  0  0  0  2  0  0  0  0  0  0
  163.9950  210.8800  154.5320 S   0  0  0  0  0  0  0  0  0  0  0  0
  163.4820  210.6630  157.2080 C   0  0  0  0  0  1  0  0  0  0  0  0
  162.7780  210.6760  155.8660 C   0  0  0  0  0  2  0  0  0  0  0  0
  1  7  2  0  0  0  0
  2 18  1  0  0  0  0
  2  3  2  0  0  0  0
  3  1  1  0  0  0  0
  4 23  1  6  0  0  0
  4 15  1  0  0  0  0
  6 10  1  0  0  0  0
  7  8  1  0  0  0  0
  8  6  2  0  0  0  0
  8  5  1  0  0  0  0
  9 17  1  0  0  0  0
 11  1  1  6  0  0  0
 11  6  1  0  0  0  0
 12 10  1  0  0  0  0
 13 14  1  6  0  0  0
 13  4  1  0  0  0  0
 13 22  1  0  0  0  0
 15 16  1  0  0  0  0
 15 21  1  0  0  0  0
 15  9  1  0  0  0  0
 16 21  1  0  0  0  0
 17 12  2  0  0  0  0
 18 25  1  0  0  0  0
 19 17  1  0  0  0  0
 19 24  1  0  0  0  0
 20 18  2  0  0  0  0
 22 19  2  0  0  0  0
 24 28  1  6  0  0  0
 24 11  1  0  0  0  0
 25  7  1  0  0  0  0
 26 27  1  0  0  0  0
 27  2  1  0  0  0  0
 28 29  1  0  0  0  0
 29 31  1  0  0  0  0
 31 30  1  0  0  0  0
M  END
>  <MODEL>
3

>  <REMARK>
 VINA RESULT:      -0.4      1.972      6.777
  Name = 
  4 active torsions:
  status: ('A' for Active; 'I' for Inactive)
    1  A    between atoms: C_2  and  O_26
    2  A    between atoms: S_5  and  C_6
    3  A    between atoms: S_5  and  C_27
    4  A    between atoms: C_6  and  C_30
                            x       y       z     vdW  Elec       q    Type
                         _______ _______ _______ _____ _____    ______ ____

>  <TORSDO>
F 4

$$$$
=
 OpenBabel11042420263D

 31 35  0  0  1  0  0  0  0  0999 V2000
  160.0980  211.4190  152.4410 C   0  0  0  0  0  0  0  0  0  0  0  0
  159.3340  212.8360  150.6430 C   0  0  0  0  0  0  0  0  0  0  0  0
  160.2980  212.0220  151.1200 C   0  0  0  0  0  3  0  0  0  0  0  0
  161.2140  205.6500  150.5150 C   0  0  1  0  0  3  0  0  0  0  0  0
  157.5840  210.5720  155.4970 Cl  0  0  0  0  0  0  0  0  0  0  0  0
  160.0170  210.0960  154.2690 C   0  0  0  0  0  0  0  0  0  0  0  0
  158.8780  211.6590  153.1730 C   0  0  0  0  0  0  0  0  0  0  0  0
  158.8770  210.7830  154.3300 C   0  0  0  0  0  0  0  0  0  0  0  0
  161.0130  205.9670  153.0370 O   0  0  0  0  0  0  0  0  0  0  0  0
  160.4650  208.9940  155.1670 C   0  0  0  0  0  2  0  0  0  0  0  0
  160.8010  210.5090  153.1080 C   0  0  0  0  0  0  0  0  0  0  0  0
  160.5320  207.6870  154.4970 N   0  0  0  0  0  0  0  0  0  0  0  0
  160.3740  206.9240  150.4280 C   0  0  2  0  0  3  0  0  0  0  0  0
  159.9210  207.2410  148.7360 Cl  0  0  0  0  0  0  0  0  0  0  0  0
  161.7220  205.4130  151.9330 C   0  0  0  0  0  0  0  0  0  0  0  0
  162.4320  204.1100  152.2210 C   0  0  0  0  0  2  0  0  0  0  0  0
  160.9670  207.3420  153.3110 C   0  0  0  0  0  0  0  0  0  0  0  0
  158.0980  213.0710  151.4520 C   0  0  0  0  0  0  0  0  0  0  0  0
  161.3940  208.3260  152.2560 C   0  0  0  0  0  0  0  0  0  0  0  0
  157.2000  213.8410  151.0220 O   0  0  0  0  0  0  0  0  0  0  0  0
  163.2250  205.4050  152.0970 C   0  0  0  0  0  2  0  0  0  0  0  0
  161.0980  208.1220  150.9610 C   0  0  0  0  0  3  0  0  0  0  0  0
  160.4420  204.5600  150.1080 O   0  0  0  0  0  1  0  0  0  0  0  0
  161.9450  209.6660  152.6520 C   0  0  1  0  0  3  0  0  0  0  0  0
  157.9190  212.4050  152.7190 N   0  0  0  0  0  0  0  0  0  0  0  0
  160.4410  214.4530  149.1240 C   0  0  0  0  0  1  0  0  0  0  0  0
  159.4600  213.4600  149.3960 O   0  0  0  0  0  0  0  0  0  0  0  0
  162.8610  210.3220  151.6160 C   0  0  0  0  0  2  0  0  0  0  0  0
  162.4670  209.7290  149.9420 S   0  0  0  0  0  0  0  0  0  0  0  0
  161.8430  211.4520  147.9150 C   0  0  0  0  0  1  0  0  0  0  0  0
  162.6340  211.3810  149.2050 C   0  0  0  0  0  2  0  0  0  0  0  0
  1 11  2  0  0  0  0
  1  7  1  0  0  0  0
  2  3  2  0  0  0  0
  2 18  1  0  0  0  0
  3  1  1  0  0  0  0
  4 23  1  1  0  0  0
  4 15  1  0  0  0  0
  6  8  2  0  0  0  0
  6 10  1  0  0  0  0
  7  8  1  0  0  0  0
  8  5  1  0  0  0  0
  9 17  1  0  0  0  0
 11  6  1  0  0  0  0
 12 10  1  0  0  0  0
 13 14  1  6  0  0  0
 13  4  1  0  0  0  0
 13 22  1  0  0  0  0
 15 21  1  0  0  0  0
 15 16  1  0  0  0  0
 15  9  1  0  0  0  0
 17 12  2  0  0  0  0
 18 25  1  0  0  0  0
 19 24  1  0  0  0  0
 19 17  1  0  0  0  0
 20 18  2  0  0  0  0
 21 16  1  0  0  0  0
 22 19  2  0  0  0  0
 24 28  1  6  0  0  0
 24 11  1  0  0  0  0
 25  7  2  0  0  0  0
 26 27  1  0  0  0  0
 27  2  1  0  0  0  0
 29 28  1  0  0  0  0
 30 31  1  0  0  0  0
 31 29  1  0  0  0  0
M  END
>  <MODEL>
4

>  <REMARK>
 VINA RESULT:      -0.3      2.288      7.171
  Name = 
  4 active torsions:
  status: ('A' for Active; 'I' for Inactive)
    1  A    between atoms: C_2  and  O_26
    2  A    between atoms: S_5  and  C_6
    3  A    between atoms: S_5  and  C_27
    4  A    between atoms: C_6  and  C_30
                            x       y       z     vdW  Elec       q    Type
                         _______ _______ _______ _____ _____    ______ ____

>  <TORSDO>
F 4

$$$$
=
 OpenBabel11042420263D

 31 35  0  0  1  0  0  0  0  0999 V2000
  159.4010  212.6630  152.7820 C   0  0  0  0  0  0  0  0  0  0  0  0
  159.9210  213.0510  150.4580 C   0  0  0  0  0  0  0  0  0  0  0  0
  160.3660  212.6900  151.6790 C   0  0  0  0  0  3  0  0  0  0  0  0
  160.8260  206.9070  154.5330 C   0  0  1  0  0  3  0  0  0  0  0  0
  155.5380  212.7340  153.9850 Cl  0  0  0  0  0  0  0  0  0  0  0  0
  158.1800  212.2240  154.6300 C   0  0  0  0  0  0  0  0  0  0  0  0
  158.0110  212.9680  152.5420 C   0  0  0  0  0  0  0  0  0  0  0  0
  157.2760  212.6640  153.7560 C   0  0  0  0  0  0  0  0  0  0  0  0
  159.2800  208.1990  156.0950 O   0  0  0  0  0  0  0  0  0  0  0  0
  157.9360  211.6900  156.0000 C   0  0  0  0  0  2  0  0  0  0  0  0
  159.5160  212.2490  154.0410 C   0  0  1  0  0  3  0  0  0  0  0  0
  158.2360  210.2560  156.1280 N   0  0  0  0  0  0  0  0  0  0  0  0
  160.3100  207.8620  153.4580 C   0  0  2  0  0  3  0  0  0  0  0  0
  160.9170  207.3660  151.8590 Cl  0  0  0  0  0  0  0  0  0  0  0  0
  160.4260  207.3710  155.9300 C   0  0  0  0  0  0  0  0  0  0  0  0
  160.7190  206.4490  157.0910 C   0  0  0  0  0  2  0  0  0  0  0  0
  159.2250  209.5330  155.6640 C   0  0  0  0  0  0  0  0  0  0  0  0
  158.4740  213.3820  150.2660 C   0  0  0  0  0  0  0  0  0  0  0  0
  160.2640  210.0500  154.7060 C   0  0  0  0  0  0  0  0  0  0  0  0
  158.0530  213.7350  149.1340 O   0  0  0  0  0  0  0  0  0  0  0  0
  161.5700  207.6930  156.8640 C   0  0  0  0  0  2  0  0  0  0  0  0
  160.7260  209.2800  153.7070 C   0  0  0  0  0  3  0  0  0  0  0  0
  160.3120  205.6290  154.3000 O   0  0  0  0  0  1  0  0  0  0  0  0
  160.6280  211.5060  154.7020 C   0  0  1  0  0  3  0  0  0  0  0  0
  157.5520  213.2790  151.3700 N   0  0  0  0  0  2  0  0  0  0  0  0
  161.6850  212.0680  149.0190 C   0  0  0  0  0  1  0  0  0  0  0  0
  160.7850  213.1150  149.3580 O   0  0  0  0  0  0  0  0  0  0  0  0
  162.0270  211.8240  154.1680 C   0  0  0  0  0  2  0  0  0  0  0  0
  163.2470  210.6410  154.8180 S   0  0  0  0  0  0  0  0  0  0  0  0
  164.2290  211.3750  157.2610 C   0  0  0  0  0  1  0  0  0  0  0  0
  162.9220  211.0970  156.5470 C   0  0  0  0  0  2  0  0  0  0  0  0
  2  3  2  0  0  0  0
  3  1  1  0  0  0  0
  4 23  1  6  0  0  0
  4 15  1  0  0  0  0
  6 10  1  0  0  0  0
  7  1  2  0  0  0  0
  7  8  1  0  0  0  0
  8  5  1  0  0  0  0
  8  6  2  0  0  0  0
 10 12  1  0  0  0  0
 11  1  1  6  0  0  0
 11  6  1  0  0  0  0
 11 24  1  0  0  0  0
 13 14  1  6  0  0  0
 13 22  1  0  0  0  0
 13  4  1  0  0  0  0
 15  9  1  0  0  0  0
 15 21  1  0  0  0  0
 15 16  1  0  0  0  0
 17  9  1  0  0  0  0
 17 12  2  0  0  0  0
 18  2  1  0  0  0  0
 18 25  1  0  0  0  0
 19 17  1  0  0  0  0
 20 18  2  0  0  0  0
 21 16  1  0  0  0  0
 22 19  2  0  0  0  0
 24 28  1  6  0  0  0
 24 19  1  0  0  0  0
 25  7  1  0  0  0  0
 26 27  1  0  0  0  0
 27  2  1  0  0  0  0
 28 29  1  0  0  0  0
 29 31  1  0  0  0  0
 31 30  1  0  0  0  0
M  END
>  <MODEL>
5

>  <REMARK>
 VINA RESULT:      -0.0      2.914      6.112
  Name = 
  4 active torsions:
  status: ('A' for Active; 'I' for Inactive)
    1  A    between atoms: C_2  and  O_26
    2  A    between atoms: S_5  and  C_6
    3  A    between atoms: S_5  and  C_27
    4  A    between atoms: C_6  and  C_30
                            x       y       z     vdW  Elec       q    Type
                         _______ _______ _______ _____ _____    ______ ____

>  <TORSDO>
F 4

$$$$
=
 OpenBabel11042420263D

 31 35  0  0  1  0  0  0  0  0999 V2000
  160.3370  213.3520  146.5060 C   0  0  0  0  0  0  0  0  0  0  0  0
  160.3850  212.5980  144.2150 C   0  0  0  0  0  0  0  0  0  0  0  0
  161.0610  212.7790  145.3680 C   0  0  0  0  0  3  0  0  0  0  0  0
  161.9970  208.8790  150.4400 C   0  0  1  0  0  3  0  0  0  0  0  0
  156.7950  214.3630  148.1830 Cl  0  0  0  0  0  0  0  0  0  0  0  0
  159.5050  213.9210  148.5270 C   0  0  0  0  0  0  0  0  0  0  0  0
  158.9320  213.6620  146.3950 C   0  0  0  0  0  0  0  0  0  0  0  0
  158.4510  214.0150  147.7180 C   0  0  0  0  0  0  0  0  0  0  0  0
  160.8150  210.8910  151.4700 O   0  0  0  0  0  0  0  0  0  0  0  0
  159.5320  214.0870  150.0080 C   0  0  0  0  0  2  0  0  0  0  0  0
  160.6950  213.5370  147.7740 C   0  0  1  0  0  3  0  0  0  0  0  0
  159.8310  212.8410  150.7290 N   0  0  0  0  0  0  0  0  0  0  0  0
  161.2900  209.2990  149.1520 C   0  0  2  0  0  3  0  0  0  0  0  0
  161.5560  208.0770  147.8850 Cl  0  0  0  0  0  0  0  0  0  0  0  0
  161.8930  209.9600  151.5110 C   0  0  0  0  0  0  0  0  0  0  0  0
  162.3980  209.6330  152.8970 C   0  0  0  0  0  2  0  0  0  0  0  0
  160.6950  211.8860  150.4890 C   0  0  0  0  0  0  0  0  0  0  0  0
  158.9350  212.9580  144.1440 C   0  0  0  0  0  0  0  0  0  0  0  0
  161.5290  211.8050  149.2390 C   0  0  0  0  0  0  0  0  0  0  0  0
  158.3010  212.8080  143.0670 O   0  0  0  0  0  0  0  0  0  0  0  0
  163.2050  210.5450  151.9800 C   0  0  0  0  0  2  0  0  0  0  0  0
  161.7690  210.6250  148.6450 C   0  0  0  0  0  3  0  0  0  0  0  0
  161.4270  207.6960  150.9150 O   0  0  0  0  0  1  0  0  0  0  0  0
  161.9070  213.0580  148.5010 C   0  0  1  0  0  3  0  0  0  0  0  0
  158.2510  213.4610  145.3100 N   0  0  0  0  0  2  0  0  0  0  0  0
  161.3940  212.8660  141.9660 C   0  0  0  0  0  1  0  0  0  0  0  0
  161.0120  212.0700  143.0790 O   0  0  0  0  0  0  0  0  0  0  0  0
  163.1740  212.9510  147.6500 C   0  0  0  0  0  2  0  0  0  0  0  0
  163.4030  214.4530  146.6490 S   0  0  0  0  0  0  0  0  0  0  0  0
  163.7940  214.4130  143.9440 C   0  0  0  0  0  1  0  0  0  0  0  0
  163.8720  213.5170  145.1640 C   0  0  0  0  0  2  0  0  0  0  0  0
  2  3  2  0  0  0  0
  3  1  1  0  0  0  0
  4 23  1  1  0  0  0
  4 15  1  0  0  0  0
  6 10  1  0  0  0  0
  7  1  2  0  0  0  0
  7  8  1  0  0  0  0
  8  5  1  0  0  0  0
  8  6  2  0  0  0  0
  9 15  1  0  0  0  0
 10 12  1  0  0  0  0
 11  1  1  6  0  0  0
 11 24  1  0  0  0  0
 11  6  1  0  0  0  0
 13 14  1  6  0  0  0
 13  4  1  0  0  0  0
 15 21  1  0  0  0  0
 15 16  1  0  0  0  0
 17 12  2  0  0  0  0
 17  9  1  0  0  0  0
 18  2  1  0  0  0  0
 18 25  1  0  0  0  0
 19 17  1  0  0  0  0
 20 18  2  0  0  0  0
 21 16  1  0  0  0  0
 22 13  1  0  0  0  0
 22 19  2  0  0  0  0
 24 28  1  6  0  0  0
 24 19  1  0  0  0  0
 25  7  1  0  0  0  0
 26 27  1  0  0  0  0
 27  2  1  0  0  0  0
 29 28  1  0  0  0  0
 30 31  1  0  0  0  0
 31 29  1  0  0  0  0
M  END
>  <MODEL>
6

>  <REMARK>
 VINA RESULT:       0.1      5.337      8.223
  Name = 
  4 active torsions:
  status: ('A' for Active; 'I' for Inactive)
    1  A    between atoms: C_2  and  O_26
    2  A    between atoms: S_5  and  C_6
    3  A    between atoms: S_5  and  C_27
    4  A    between atoms: C_6  and  C_30
                            x       y       z     vdW  Elec       q    Type
                         _______ _______ _______ _____ _____    ______ ____

>  <TORSDO>
F 4

$$$$
=
 OpenBabel11042420263D

 31 35  0  0  1  0  0  0  0  0999 V2000
  161.9410  207.4350  151.9690 C   0  0  0  0  0  0  0  0  0  0  0  0
  161.1310  206.3000  153.9380 C   0  0  0  0  0  0  0  0  0  0  0  0
  161.7100  207.4000  153.4160 C   0  0  0  0  0  3  0  0  0  0  0  0
  159.1830  212.9110  151.1650 C   0  0  1  0  0  3  0  0  0  0  0  0
  161.2120  205.8380  148.3230 Cl  0  0  0  0  0  0  0  0  0  0  0  0
  162.1860  207.9730  149.7890 C   0  0  0  0  0  0  0  0  0  0  0  0
  161.5120  206.3370  151.1360 C   0  0  0  0  0  0  0  0  0  0  0  0
  161.6860  206.7380  149.7520 C   0  0  0  0  0  0  0  0  0  0  0  0
  160.4290  211.9800  149.1440 O   0  0  0  0  0  0  0  0  0  0  0  0
  162.4590  208.8780  148.6370 C   0  0  0  0  0  2  0  0  0  0  0  0
  162.3780  208.4050  151.1700 C   0  0  1  0  0  3  0  0  0  0  0  0
  161.5810  210.0570  148.6010 N   0  0  0  0  0  0  0  0  0  0  0  0
  159.0990  211.4510  151.6110 C   0  0  2  0  0  3  0  0  0  0  0  0
  158.0700  211.3130  153.0570 Cl  0  0  0  0  0  0  0  0  0  0  0  0
  160.1540  213.0840  150.0020 C   0  0  0  0  0  0  0  0  0  0  0  0
  160.2270  214.4400  149.3380 C   0  0  0  0  0  2  0  0  0  0  0  0
  161.1580  210.8530  149.5520 C   0  0  0  0  0  0  0  0  0  0  0  0
  160.7260  205.1790  153.0340 C   0  0  0  0  0  0  0  0  0  0  0  0
  161.3990  210.6100  151.0170 C   0  0  0  0  0  0  0  0  0  0  0  0
  160.2000  204.1410  153.5140 O   0  0  0  0  0  0  0  0  0  0  0  0
  161.3430  213.9790  150.2690 C   0  0  0  0  0  2  0  0  0  0  0  0
  160.4450  210.8730  151.9260 C   0  0  0  0  0  3  0  0  0  0  0  0
  157.9140  213.3500  150.7830 O   0  0  0  0  0  1  0  0  0  0  0  0
  162.6130  209.8490  151.4660 C   0  0  1  0  0  3  0  0  0  0  0  0
  160.9180  205.2860  151.6090 N   0  0  0  0  0  2  0  0  0  0  0  0
  160.2430  207.2000  156.0710 C   0  0  0  0  0  1  0  0  0  0  0  0
  160.8910  206.1870  155.3130 O   0  0  0  0  0  0  0  0  0  0  0  0
  163.0760  210.1510  152.8930 C   0  0  0  0  0  2  0  0  0  0  0  0
  161.6630  210.6150  153.9420 S   0  0  0  0  0  0  0  0  0  0  0  0
  161.8090  210.4690  156.6670 C   0  0  0  0  0  1  0  0  0  0  0  0
  162.6770  210.7030  155.4470 C   0  0  0  0  0  2  0  0  0  0  0  0
  1  3  1  0  0  0  0
  2 27  1  0  0  0  0
  3  2  2  0  0  0  0
  4 23  1  6  0  0  0
  4 13  1  0  0  0  0
  5  8  1  0  0  0  0
  7 25  1  0  0  0  0
  7  1  2  0  0  0  0
  8  6  2  0  0  0  0
  8  7  1  0  0  0  0
  9 17  1  0  0  0  0
  9 15  1  0  0  0  0
 10  6  1  0  0  0  0
 11  6  1  6  0  0  0
 11 24  1  0  0  0  0
 11  1  1  0  0  0  0
 12 10  1  0  0  0  0
 12 17  2  0  0  0  0
 13 22  1  0  0  0  0
 13 14  1  1  0  0  0
 15 21  1  0  0  0  0
 15  4  1  0  0  0  0
 16 15  1  0  0  0  0
 16 21  1  0  0  0  0
 17 19  1  0  0  0  0
 18 20  2  0  0  0  0
 18  2  1  0  0  0  0
 19 24  1  0  0  0  0
 19 22  2  0  0  0  0
 24 28  1  1  0  0  0
 25 18  1  0  0  0  0
 27 26  1  0  0  0  0
 28 29  1  0  0  0  0
 29 31  1  0  0  0  0
 31 30  1  0  0  0  0
M  END
>  <MODEL>
7

>  <REMARK>
 VINA RESULT:       0.9      2.463      3.310
  Name = 
  4 active torsions:
  status: ('A' for Active; 'I' for Inactive)
    1  A    between atoms: C_2  and  O_26
    2  A    between atoms: S_5  and  C_6
    3  A    between atoms: S_5  and  C_27
    4  A    between atoms: C_6  and  C_30
                            x       y       z     vdW  Elec       q    Type
                         _______ _______ _______ _____ _____    ______ ____

>  <TORSDO>
F 4

$$$$
