=
 OpenBabel11042421263D

 33 38  0  0  1  0  0  0  0  0999 V2000
  161.1410  205.3260  148.0590 N   0  0  0  0  0  0  0  0  0  0  0  0
  160.3030  203.2110  148.7090 N   0  0  0  0  0  0  0  0  0  0  0  0
  162.7690  206.1860  151.9500 C   0  0  1  0  0  3  0  0  0  0  0  0
  161.6600  206.1110  150.9120 C   0  0  1  0  0  0  0  0  0  0  0  0
  160.4740  210.8620  151.9440 C   0  0  0  0  0  3  0  0  0  0  0  0
  161.8410  206.5560  148.2990 C   0  0  0  0  0  2  0  0  0  0  0  0
  162.5930  207.2460  150.8920 C   0  0  2  0  0  0  0  0  0  0  0  0
  162.2820  206.5590  153.3670 C   0  0  0  0  0  2  0  0  0  0  0  0
  161.0210  204.4160  149.0020 C   0  0  0  0  0  0  0  0  0  0  0  0
  160.1910  202.2240  149.5470 C   0  0  0  0  0  3  0  0  0  0  0  0
  161.0730  203.8490  152.6310 N   0  0  0  0  0  2  0  0  0  0  0  0
  162.0860  206.7410  149.5720 C   0  0  1  0  0  3  0  0  0  0  0  0
  161.0720  203.6330  151.3680 C   0  0  0  0  0  0  0  0  0  0  0  0
  161.1470  207.4740  153.3830 N   0  0  0  0  0  0  0  0  0  0  0  0
  161.8750  208.5170  151.2980 C   0  0  0  0  0  0  0  0  0  0  0  0
  160.4320  209.7630  152.8050 C   0  0  0  0  0  3  0  0  0  0  0  0
  161.9220  209.6320  150.4490 C   0  0  0  0  0  3  0  0  0  0  0  0
  161.1440  208.5960  152.4960 C   0  0  0  0  0  0  0  0  0  0  0  0
  161.6920  204.6210  150.3990 C   0  0  2  0  0  3  0  0  0  0  0  0
  160.8600  202.2320  150.8890 C   0  0  0  0  0  2  0  0  0  0  0  0
  161.2270  210.8100  150.7640 C   0  0  0  0  0  0  0  0  0  0  0  0
  161.2720  211.9480  149.8880 N   0  0  0  0  0  0  0  0  0  0  0  0
  162.1290  211.9680  148.7120 C   0  0  0  0  0  1  0  0  0  0  0  0
  160.5080  213.0350  150.1480 O   0  0  0  0  0  1  0  0  0  0  0  0
  160.0160  207.1690  154.2490 C   0  0  0  0  0  2  0  0  0  0  0  0
  160.4700  207.0810  155.6950 C   0  0  0  0  0  2  0  0  0  0  0  0
  160.0790  208.3490  156.4220 C   0  0  0  0  0  2  0  0  0  0  0  0
  161.2970  209.2310  156.5840 C   0  0  0  0  0  2  0  0  0  0  0  0
  160.9210  210.6720  156.2950 C   0  0  0  0  0  2  0  0  0  0  0  0
  159.4190  210.8690  156.4330 C   0  0  0  0  0  2  0  0  0  0  0  0
  157.7820  211.5950  154.8600 O   0  0  0  0  0  0  0  0  0  0  0  0
  158.9070  211.7970  155.3850 C   0  0  0  0  0  0  0  0  0  0  0  0
  159.6850  212.8670  154.9650 O   0  0  0  0  0  1  0  0  0  0  0  0
  1  6  1  0  0  0  0
  1  9  2  0  0  0  0
  2  9  1  0  0  0  0
  2 10  2  0  0  0  0
  3  8  1  1  0  0  0
  4  3  1  0  0  0  0
  5 16  1  0  0  0  0
  6 12  1  0  0  0  0
  7  4  1  0  0  0  0
  7 15  1  0  0  0  0
  7  3  1  0  0  0  0
  8 14  1  0  0  0  0
  9 19  1  0  0  0  0
 10 20  1  0  0  0  0
 12  7  1  0  0  0  0
 12  4  1  0  0  0  0
 13 11  2  0  0  0  0
 14 25  1  0  0  0  0
 15 18  1  0  0  0  0
 17 21  1  0  0  0  0
 17 15  2  0  0  0  0
 18 16  2  0  0  0  0
 18 14  1  0  0  0  0
 19  4  1  0  0  0  0
 19 13  1  0  0  0  0
 20 13  1  0  0  0  0
 21  5  2  0  0  0  0
 22 24  1  0  0  0  0
 22 21  1  0  0  0  0
 23 22  1  0  0  0  0
 25 26  1  0  0  0  0
 26 27  1  0  0  0  0
 27 28  1  0  0  0  0
 29 30  1  0  0  0  0
 29 28  1  0  0  0  0
 31 32  2  0  0  0  0
 32 30  1  0  0  0  0
 33 32  1  0  0  0  0
M  END
>  <MODEL>
1

>  <REMARK>
 VINA RESULT:      -6.2      0.000      0.000
  Name = 
  8 active torsions:
  status: ('A' for Active; 'I' for Inactive)
    1  A    between atoms: C_6  and  C_17
    2  A    between atoms: C_6  and  C_26
    3  A    between atoms: C_13  and  C_22
    4  A    between atoms: C_13  and  C_29
    5  A    between atoms: C_17  and  C_22
    6  A    between atoms: N_18  and  C_30
    7  A    between atoms: N_20  and  C_33
    8  A    between atoms: C_26  and  C_30
                            x       y       z     vdW  Elec       q    Type
                         _______ _______ _______ _____ _____    ______ ____

>  <TORSDO>
F 8

$$$$
=
 OpenBabel11042421263D

 33 38  0  0  1  0  0  0  0  0999 V2000
  161.4120  207.0920  148.6630 N   0  0  0  0  0  0  0  0  0  0  0  0
  160.7650  205.2340  149.9770 N   0  0  0  0  0  0  0  0  0  0  0  0
  162.5200  209.4720  152.0750 C   0  0  1  0  0  3  0  0  0  0  0  0
  161.5400  208.8810  151.0720 C   0  0  1  0  0  0  0  0  0  0  0  0
  159.7070  213.4700  150.2770 C   0  0  0  0  0  3  0  0  0  0  0  0
  161.9350  208.4180  148.4870 C   0  0  0  0  0  2  0  0  0  0  0  0
  162.3310  210.0630  150.7010 C   0  0  2  0  0  0  0  0  0  0  0  0
  161.8510  210.2360  153.2370 C   0  0  0  0  0  2  0  0  0  0  0  0
  161.3030  206.5570  149.8600 C   0  0  0  0  0  0  0  0  0  0  0  0
  160.6840  204.5930  151.1050 C   0  0  0  0  0  3  0  0  0  0  0  0
  161.0490  207.2940  153.4500 N   0  0  0  0  0  2  0  0  0  0  0  0
  162.0250  209.0650  149.6210 C   0  0  1  0  0  3  0  0  0  0  0  0
  161.2020  206.6570  152.3480 C   0  0  0  0  0  0  0  0  0  0  0  0
  160.6200  210.9240  152.8640 N   0  0  0  0  0  0  0  0  0  0  0  0
  161.4310  211.2770  150.5870 C   0  0  0  0  0  0  0  0  0  0  0  0
  159.7060  212.7430  151.4700 C   0  0  0  0  0  3  0  0  0  0  0  0
  161.4340  212.0230  149.4000 C   0  0  0  0  0  3  0  0  0  0  0  0
  160.5770  211.6580  151.6360 C   0  0  0  0  0  0  0  0  0  0  0  0
  161.7990  207.3280  151.1270 C   0  0  2  0  0  3  0  0  0  0  0  0
  161.2060  205.1620  152.3900 C   0  0  0  0  0  2  0  0  0  0  0  0
  160.5780  213.1230  149.2360 C   0  0  0  0  0  0  0  0  0  0  0  0
  160.5790  213.8820  148.0160 N   0  0  0  0  0  0  0  0  0  0  0  0
  159.3530  214.4490  147.4740 C   0  0  0  0  0  1  0  0  0  0  0  0
  161.7360  214.0830  147.3420 O   0  0  0  0  0  1  0  0  0  0  0  0
  159.4500  210.7760  153.7190 C   0  0  0  0  0  2  0  0  0  0  0  0
  159.8550  210.2260  155.0740 C   0  0  0  0  0  2  0  0  0  0  0  0
  159.2610  211.0890  156.1650 C   0  0  0  0  0  2  0  0  0  0  0  0
  159.1360  212.5120  155.6680 C   0  0  0  0  0  2  0  0  0  0  0  0
  157.8010  213.0860  156.1080 C   0  0  0  0  0  2  0  0  0  0  0  0
  156.7700  211.9790  156.2580 C   0  0  0  0  0  2  0  0  0  0  0  0
  155.5770  210.7020  154.6360 O   0  0  0  0  0  1  0  0  0  0  0  0
  155.9560  211.8400  155.0170 C   0  0  0  0  0  0  0  0  0  0  0  0
  155.6420  212.9620  154.2630 O   0  0  0  0  0  0  0  0  0  0  0  0
  1  9  2  0  0  0  0
  2 10  2  0  0  0  0
  3  8  1  1  0  0  0
  4 19  1  0  0  0  0
  4  3  1  0  0  0  0
  5 16  1  0  0  0  0
  6  1  1  0  0  0  0
  6 12  1  0  0  0  0
  7  4  1  0  0  0  0
  7  3  1  0  0  0  0
  9  2  1  0  0  0  0
  9 19  1  0  0  0  0
 10 20  1  0  0  0  0
 12  7  1  0  0  0  0
 12  4  1  0  0  0  0
 13 20  1  0  0  0  0
 13 11  2  0  0  0  0
 14  8  1  0  0  0  0
 14 25  1  0  0  0  0
 15  7  1  0  0  0  0
 15 18  1  0  0  0  0
 16 18  2  0  0  0  0
 17 15  2  0  0  0  0
 18 14  1  0  0  0  0
 19 13  1  0  0  0  0
 21 17  1  0  0  0  0
 21  5  2  0  0  0  0
 22 21  1  0  0  0  0
 23 22  1  0  0  0  0
 24 22  1  0  0  0  0
 25 26  1  0  0  0  0
 26 27  1  0  0  0  0
 28 29  1  0  0  0  0
 28 27  1  0  0  0  0
 29 30  1  0  0  0  0
 31 32  1  0  0  0  0
 32 30  1  0  0  0  0
 33 32  2  0  0  0  0
M  END
>  <MODEL>
2

>  <REMARK>
 VINA RESULT:      -5.7      1.976      3.111
  Name = 
  8 active torsions:
  status: ('A' for Active; 'I' for Inactive)
    1  A    between atoms: C_6  and  C_17
    2  A    between atoms: C_6  and  C_26
    3  A    between atoms: C_13  and  C_22
    4  A    between atoms: C_13  and  C_29
    5  A    between atoms: C_17  and  C_22
    6  A    between atoms: N_18  and  C_30
    7  A    between atoms: N_20  and  C_33
    8  A    between atoms: C_26  and  C_30
                            x       y       z     vdW  Elec       q    Type
                         _______ _______ _______ _____ _____    ______ ____

>  <TORSDO>
F 8

$$$$
=
 OpenBabel11042421263D

 33 38  0  0  1  0  0  0  0  0999 V2000
  160.2550  207.3880  154.6740 N   0  0  0  0  0  0  0  0  0  0  0  0
  159.5970  209.6550  154.5220 N   0  0  0  0  0  0  0  0  0  0  0  0
  162.8900  207.6370  151.2800 C   0  0  1  0  0  3  0  0  0  0  0  0
  161.5400  207.4730  151.9600 C   0  0  1  0  0  0  0  0  0  0  0  0
  160.7440  203.3600  149.2230 C   0  0  0  0  0  3  0  0  0  0  0  0
  161.0100  206.2410  154.2540 C   0  0  0  0  0  2  0  0  0  0  0  0
  162.4480  206.3210  151.8680 C   0  0  2  0  0  0  0  0  0  0  0  0
  162.8120  207.7490  149.7420 C   0  0  0  0  0  2  0  0  0  0  0  0
  160.3830  208.5480  154.0660 C   0  0  0  0  0  0  0  0  0  0  0  0
  159.7030  210.8560  154.0350 C   0  0  0  0  0  3  0  0  0  0  0  0
  161.4120  210.1860  150.9430 N   0  0  0  0  0  2  0  0  0  0  0  0
  161.5940  206.4350  153.0980 C   0  0  1  0  0  3  0  0  0  0  0  0
  161.0650  210.0070  152.1640 C   0  0  0  0  0  0  0  0  0  0  0  0
  161.7360  206.9670  149.1440 N   0  0  0  0  0  0  0  0  0  0  0  0
  161.8840  205.2890  150.9120 C   0  0  0  0  0  0  0  0  0  0  0  0
  160.9230  204.6680  148.7690 C   0  0  0  0  0  3  0  0  0  0  0  0
  161.7130  203.9680  151.3520 C   0  0  0  0  0  3  0  0  0  0  0  0
  161.5070  205.6310  149.6020 C   0  0  0  0  0  0  0  0  0  0  0  0
  161.4110  208.7290  152.9030 C   0  0  2  0  0  3  0  0  0  0  0  0
  160.7120  211.2070  152.9830 C   0  0  0  0  0  2  0  0  0  0  0  0
  161.1470  202.9960  150.5140 C   0  0  0  0  0  0  0  0  0  0  0  0
  160.9670  201.6450  150.9690 N   0  0  0  0  0  0  0  0  0  0  0  0
  159.9640  200.7720  150.3790 C   0  0  0  0  0  1  0  0  0  0  0  0
  161.7390  201.1580  151.9700 O   0  0  0  0  0  1  0  0  0  0  0  0
  160.8800  207.6020  148.1510 C   0  0  0  0  0  2  0  0  0  0  0  0
  161.3790  207.2940  146.7520 C   0  0  0  0  0  2  0  0  0  0  0  0
  160.4460  206.3030  146.0920 C   0  0  0  0  0  2  0  0  0  0  0  0
  161.0810  205.7840  144.8200 C   0  0  0  0  0  2  0  0  0  0  0  0
  160.6410  204.3520  144.5820 C   0  0  0  0  0  2  0  0  0  0  0  0
  161.4000  203.4030  145.4960 C   0  0  0  0  0  2  0  0  0  0  0  0
  159.7870  201.7920  144.7950 O   0  0  0  0  0  0  0  0  0  0  0  0
  160.6820  202.1020  145.6230 C   0  0  0  0  0  0  0  0  0  0  0  0
  160.9790  201.2450  146.6740 O   0  0  0  0  0  1  0  0  0  0  0  0
  3  8  1  6  0  0  0
  3  7  1  0  0  0  0
  3  4  1  0  0  0  0
  4 19  1  0  0  0  0
  4 12  1  0  0  0  0
  5 21  1  0  0  0  0
  6  1  1  0  0  0  0
  7  4  1  0  0  0  0
  7 12  1  0  0  0  0
  9  2  1  0  0  0  0
  9  1  2  0  0  0  0
 10  2  2  0  0  0  0
 11 13  2  0  0  0  0
 12  6  1  0  0  0  0
 13 19  1  0  0  0  0
 13 20  1  0  0  0  0
 14 18  1  0  0  0  0
 14  8  1  0  0  0  0
 15 17  1  0  0  0  0
 15  7  1  0  0  0  0
 16  5  2  0  0  0  0
 16 18  1  0  0  0  0
 18 15  2  0  0  0  0
 19  9  1  0  0  0  0
 20 10  1  0  0  0  0
 21 22  1  0  0  0  0
 21 17  2  0  0  0  0
 22 24  1  0  0  0  0
 23 22  1  0  0  0  0
 25 14  1  0  0  0  0
 26 25  1  0  0  0  0
 27 26  1  0  0  0  0
 28 27  1  0  0  0  0
 29 28  1  0  0  0  0
 29 30  1  0  0  0  0
 30 32  1  0  0  0  0
 31 32  2  0  0  0  0
 32 33  1  0  0  0  0
M  END
>  <MODEL>
3

>  <REMARK>
 VINA RESULT:      -5.3      4.129      8.696
  Name = 
  8 active torsions:
  status: ('A' for Active; 'I' for Inactive)
    1  A    between atoms: C_6  and  C_17
    2  A    between atoms: C_6  and  C_26
    3  A    between atoms: C_13  and  C_22
    4  A    between atoms: C_13  and  C_29
    5  A    between atoms: C_17  and  C_22
    6  A    between atoms: N_18  and  C_30
    7  A    between atoms: N_20  and  C_33
    8  A    between atoms: C_26  and  C_30
                            x       y       z     vdW  Elec       q    Type
                         _______ _______ _______ _____ _____    ______ ____

>  <TORSDO>
F 8

$$$$
=
 OpenBabel11042421263D

 33 38  0  0  1  0  0  0  0  0999 V2000
  159.3190  213.0750  152.1860 N   0  0  0  0  0  0  0  0  0  0  0  0
  158.8120  213.7930  149.9890 N   0  0  0  0  0  0  0  0  0  0  0  0
  162.5100  210.4870  150.9020 C   0  0  1  0  0  3  0  0  0  0  0  0
  161.0560  210.8460  151.1660 C   0  0  1  0  0  0  0  0  0  0  0  0
  160.5390  206.5640  153.7030 C   0  0  0  0  0  3  0  0  0  0  0  0
  160.0770  212.3230  153.1460 C   0  0  0  0  0  2  0  0  0  0  0  0
  161.9070  210.4080  152.2810 C   0  0  2  0  0  0  0  0  0  0  0  0
  162.7050  209.1420  150.1710 C   0  0  0  0  0  2  0  0  0  0  0  0
  159.6090  213.0290  150.9030 C   0  0  0  0  0  0  0  0  0  0  0  0
  159.0610  213.8700  148.7160 C   0  0  0  0  0  3  0  0  0  0  0  0
  161.2430  211.0450  148.2790 N   0  0  0  0  0  2  0  0  0  0  0  0
  160.8610  211.4450  152.5730 C   0  0  1  0  0  3  0  0  0  0  0  0
  160.6810  212.0200  148.8920 C   0  0  0  0  0  0  0  0  0  0  0  0
  161.7110  208.1310  150.5130 N   0  0  0  0  0  0  0  0  0  0  0  0
  161.4660  209.0410  152.7670 C   0  0  0  0  0  0  0  0  0  0  0  0
  160.8590  206.7250  152.3540 C   0  0  0  0  0  3  0  0  0  0  0  0
  161.1550  208.8630  154.1220 C   0  0  0  0  0  3  0  0  0  0  0  0
  161.3390  207.9550  151.8840 C   0  0  0  0  0  0  0  0  0  0  0  0
  160.8300  212.1990  150.3900 C   0  0  2  0  0  3  0  0  0  0  0  0
  160.2530  213.2080  148.0910 C   0  0  0  0  0  2  0  0  0  0  0  0
  160.6940  207.6270  154.6010 C   0  0  0  0  0  0  0  0  0  0  0  0
  160.3700  207.4500  155.9890 N   0  0  0  0  0  0  0  0  0  0  0  0
  161.2330  207.9640  157.0420 C   0  0  0  0  0  1  0  0  0  0  0  0
  159.2420  206.7900  156.3450 O   0  0  0  0  0  1  0  0  0  0  0  0
  161.0710  207.3870  149.4370 C   0  0  0  0  0  2  0  0  0  0  0  0
  162.0220  207.2400  148.2630 C   0  0  0  0  0  2  0  0  0  0  0  0
  161.4390  206.2660  147.2620 C   0  0  0  0  0  2  0  0  0  0  0  0
  162.2560  204.9930  147.2670 C   0  0  0  0  0  2  0  0  0  0  0  0
  161.3590  203.8180  147.6100 C   0  0  0  0  0  2  0  0  0  0  0  0
  161.1060  203.7600  149.1080 C   0  0  0  0  0  2  0  0  0  0  0  0
  159.7920  201.7870  148.8500 O   0  0  0  0  0  0  0  0  0  0  0  0
  160.6670  202.3960  149.5190 C   0  0  0  0  0  0  0  0  0  0  0  0
  161.1980  201.8100  150.6600 O   0  0  0  0  0  1  0  0  0  0  0  0
  1  6  1  0  0  0  0
  2  9  1  0  0  0  0
  3  8  1  6  0  0  0
  3  4  1  0  0  0  0
  3  7  1  0  0  0  0
  4  7  1  0  0  0  0
  4 12  1  0  0  0  0
  5 21  1  0  0  0  0
  7 12  1  0  0  0  0
  7 15  1  0  0  0  0
  8 14  1  0  0  0  0
  9  1  2  0  0  0  0
 10  2  2  0  0  0  0
 11 13  2  0  0  0  0
 12  6  1  0  0  0  0
 13 19  1  0  0  0  0
 14 18  1  0  0  0  0
 15 17  1  0  0  0  0
 16  5  2  0  0  0  0
 17 21  2  0  0  0  0
 18 16  1  0  0  0  0
 18 15  2  0  0  0  0
 19  9  1  0  0  0  0
 19  4  1  0  0  0  0
 20 10  1  0  0  0  0
 20 13  1  0  0  0  0
 21 22  1  0  0  0  0
 22 24  1  0  0  0  0
 22 23  1  0  0  0  0
 25 14  1  0  0  0  0
 26 25  1  0  0  0  0
 27 28  1  0  0  0  0
 27 26  1  0  0  0  0
 28 29  1  0  0  0  0
 29 30  1  0  0  0  0
 30 32  1  0  0  0  0
 31 32  2  0  0  0  0
 32 33  1  0  0  0  0
M  END
>  <MODEL>
4

>  <REMARK>
 VINA RESULT:      -5.2      3.394      8.038
  Name = 
  8 active torsions:
  status: ('A' for Active; 'I' for Inactive)
    1  A    between atoms: C_6  and  C_17
    2  A    between atoms: C_6  and  C_26
    3  A    between atoms: C_13  and  C_22
    4  A    between atoms: C_13  and  C_29
    5  A    between atoms: C_17  and  C_22
    6  A    between atoms: N_18  and  C_30
    7  A    between atoms: N_20  and  C_33
    8  A    between atoms: C_26  and  C_30
                            x       y       z     vdW  Elec       q    Type
                         _______ _______ _______ _____ _____    ______ ____

>  <TORSDO>
F 8

$$$$
=
 OpenBabel11042421263D

 33 38  0  0  1  0  0  0  0  0999 V2000
  158.1450  213.9220  149.9920 N   0  0  0  0  0  0  0  0  0  0  0  0
  157.5320  214.0670  147.7110 N   0  0  0  0  0  0  0  0  0  0  0  0
  162.0020  212.2150  149.1330 C   0  0  1  0  0  3  0  0  0  0  0  0
  160.4980  212.1670  149.3530 C   0  0  1  0  0  0  0  0  0  0  0  0
  161.1700  208.4290  152.6110 C   0  0  0  0  0  3  0  0  0  0  0  0
  159.0550  213.6050  151.0570 C   0  0  0  0  0  2  0  0  0  0  0  0
  161.3990  212.2000  150.5140 C   0  0  2  0  0  0  0  0  0  0  0  0
  162.6120  210.8820  148.6470 C   0  0  0  0  0  2  0  0  0  0  0  0
  158.4840  213.7430  148.7330 C   0  0  0  0  0  0  0  0  0  0  0  0
  157.7950  213.9930  146.4410 C   0  0  0  0  0  3  0  0  0  0  0  0
  160.7260  211.9110  146.4730 N   0  0  0  0  0  2  0  0  0  0  0  0
  160.0830  212.9140  150.6350 C   0  0  1  0  0  3  0  0  0  0  0  0
  159.8800  212.7660  146.9140 C   0  0  0  0  0  0  0  0  0  0  0  0
  161.9470  209.6980  149.1780 N   0  0  0  0  0  0  0  0  0  0  0  0
  161.3610  210.8690  151.2390 C   0  0  0  0  0  0  0  0  0  0  0  0
  161.4790  208.4420  151.2490 C   0  0  0  0  0  3  0  0  0  0  0  0
  161.0660  210.8440  152.6100 C   0  0  0  0  0  3  0  0  0  0  0  0
  161.5920  209.6590  150.5630 C   0  0  0  0  0  0  0  0  0  0  0  0
  159.9130  213.2370  148.3550 C   0  0  2  0  0  3  0  0  0  0  0  0
  159.1510  213.6170  145.9230 C   0  0  0  0  0  2  0  0  0  0  0  0
  160.9720  209.6290  153.3060 C   0  0  0  0  0  0  0  0  0  0  0  0
  160.6630  209.6060  154.7090 N   0  0  0  0  0  0  0  0  0  0  0  0
  161.5490  208.9660  155.6700 C   0  0  0  0  0  1  0  0  0  0  0  0
  159.5270  210.1850  155.1640 O   0  0  0  0  0  1  0  0  0  0  0  0
  161.5960  208.6230  148.2590 C   0  0  0  0  0  2  0  0  0  0  0  0
  162.6750  207.5560  148.2610 C   0  0  0  0  0  2  0  0  0  0  0  0
  162.2290  206.3880  147.4090 C   0  0  0  0  0  2  0  0  0  0  0  0
  160.9670  205.7920  147.9930 C   0  0  0  0  0  2  0  0  0  0  0  0
  161.2910  204.4570  148.6390 C   0  0  0  0  0  2  0  0  0  0  0  0
  160.9030  204.4690  150.1090 C   0  0  0  0  0  2  0  0  0  0  0  0
  161.2340  202.8380  151.8170 O   0  0  0  0  0  1  0  0  0  0  0  0
  160.8310  203.0820  150.6500 C   0  0  0  0  0  0  0  0  0  0  0  0
  160.3500  202.0500  149.8550 O   0  0  0  0  0  0  0  0  0  0  0  0
  1  6  1  0  0  0  0
  2  9  1  0  0  0  0
  3  8  1  1  0  0  0
  3  4  1  0  0  0  0
  3  7  1  0  0  0  0
  4  7  1  0  0  0  0
  4 12  1  0  0  0  0
  5 21  1  0  0  0  0
  7 12  1  0  0  0  0
  7 15  1  0  0  0  0
  8 14  1  0  0  0  0
  9  1  2  0  0  0  0
 10  2  2  0  0  0  0
 11 13  2  0  0  0  0
 12  6  1  0  0  0  0
 13 19  1  0  0  0  0
 14 18  1  0  0  0  0
 15 17  1  0  0  0  0
 16  5  2  0  0  0  0
 17 21  2  0  0  0  0
 18 15  2  0  0  0  0
 18 16  1  0  0  0  0
 19  9  1  0  0  0  0
 19  4  1  0  0  0  0
 20 10  1  0  0  0  0
 20 13  1  0  0  0  0
 21 22  1  0  0  0  0
 22 24  1  0  0  0  0
 22 23  1  0  0  0  0
 25 26  1  0  0  0  0
 25 14  1  0  0  0  0
 27 28  1  0  0  0  0
 27 26  1  0  0  0  0
 28 29  1  0  0  0  0
 29 30  1  0  0  0  0
 30 32  1  0  0  0  0
 32 31  1  0  0  0  0
 33 32  2  0  0  0  0
M  END
>  <MODEL>
5

>  <REMARK>
 VINA RESULT:      -4.9      3.484      8.072
  Name = 
  8 active torsions:
  status: ('A' for Active; 'I' for Inactive)
    1  A    between atoms: C_6  and  C_17
    2  A    between atoms: C_6  and  C_26
    3  A    between atoms: C_13  and  C_22
    4  A    between atoms: C_13  and  C_29
    5  A    between atoms: C_17  and  C_22
    6  A    between atoms: N_18  and  C_30
    7  A    between atoms: N_20  and  C_33
    8  A    between atoms: C_26  and  C_30
                            x       y       z     vdW  Elec       q    Type
                         _______ _______ _______ _____ _____    ______ ____

>  <TORSDO>
F 8

$$$$
=
 OpenBabel11042421263D

 33 38  0  0  1  0  0  0  0  0999 V2000
  161.2080  208.7430  147.8720 N   0  0  0  0  0  0  0  0  0  0  0  0
  160.7200  206.9650  146.3900 N   0  0  0  0  0  0  0  0  0  0  0  0
  163.1220  206.1820  150.7550 C   0  0  1  0  0  3  0  0  0  0  0  0
  161.9260  206.8390  150.0820 C   0  0  1  0  0  0  0  0  0  0  0  0
  160.2660  208.2560  154.5850 C   0  0  0  0  0  3  0  0  0  0  0  0
  161.7680  209.2920  149.0750 C   0  0  0  0  0  2  0  0  0  0  0  0
  162.7010  207.5940  151.0770 C   0  0  2  0  0  0  0  0  0  0  0  0
  162.7470  205.1100  151.8000 C   0  0  0  0  0  2  0  0  0  0  0  0
  161.3070  207.4590  147.6000 C   0  0  0  0  0  0  0  0  0  0  0  0
  160.8240  205.7310  145.9970 C   0  0  0  0  0  3  0  0  0  0  0  0
  161.8190  204.1270  149.0580 N   0  0  0  0  0  2  0  0  0  0  0  0
  162.1230  208.3590  149.9220 C   0  0  1  0  0  3  0  0  0  0  0  0
  161.7100  205.0750  148.2030 C   0  0  0  0  0  0  0  0  0  0  0  0
  161.5130  205.3930  152.5240 N   0  0  0  0  0  0  0  0  0  0  0  0
  161.8740  207.8000  152.3310 C   0  0  0  0  0  0  0  0  0  0  0  0
  160.4560  206.9560  154.1140 C   0  0  0  0  0  3  0  0  0  0  0  0
  161.6880  209.1010  152.8220 C   0  0  0  0  0  3  0  0  0  0  0  0
  161.2720  206.7210  152.9990 C   0  0  0  0  0  0  0  0  0  0  0  0
  162.0920  206.5000  148.5520 C   0  0  2  0  0  3  0  0  0  0  0  0
  161.6270  204.7150  146.7540 C   0  0  0  0  0  2  0  0  0  0  0  0
  160.8880  209.3390  153.9500 C   0  0  0  0  0  0  0  0  0  0  0  0
  160.6940  210.6730  154.4470 N   0  0  0  0  0  0  0  0  0  0  0  0
  159.6920  211.5590  153.8730 C   0  0  0  0  0  1  0  0  0  0  0  0
  161.4520  211.1330  155.4710 O   0  0  0  0  0  1  0  0  0  0  0  0
  160.5290  204.3280  152.6710 C   0  0  0  0  0  2  0  0  0  0  0  0
  161.0800  203.0250  152.1230 C   0  0  0  0  0  2  0  0  0  0  0  0
  160.2370  202.5770  150.9490 C   0  0  0  0  0  2  0  0  0  0  0  0
  160.8160  201.3050  150.3700 C   0  0  0  0  0  2  0  0  0  0  0  0
  160.4460  201.2020  148.9020 C   0  0  0  0  0  2  0  0  0  0  0  0
  161.5830  200.5790  148.1080 C   0  0  0  0  0  2  0  0  0  0  0  0
  160.8180  201.4200  146.0120 O   0  0  0  0  0  0  0  0  0  0  0  0
  161.2050  200.4220  146.6740 C   0  0  0  0  0  0  0  0  0  0  0  0
  161.2490  199.1700  146.0770 O   0  0  0  0  0  1  0  0  0  0  0  0
  1  6  1  0  0  0  0
  2  9  1  0  0  0  0
  3  7  1  0  0  0  0
  3  8  1  1  0  0  0
  4  3  1  0  0  0  0
  4  7  1  0  0  0  0
  6 12  1  0  0  0  0
  7 15  1  0  0  0  0
  8 14  1  0  0  0  0
  9  1  2  0  0  0  0
  9 19  1  0  0  0  0
 10  2  2  0  0  0  0
 10 20  1  0  0  0  0
 12  4  1  0  0  0  0
 12  7  1  0  0  0  0
 13 19  1  0  0  0  0
 13 11  2  0  0  0  0
 14 25  1  0  0  0  0
 14 18  1  0  0  0  0
 15 17  2  0  0  0  0
 15 18  1  0  0  0  0
 16  5  1  0  0  0  0
 17 21  1  0  0  0  0
 18 16  2  0  0  0  0
 19  4  1  0  0  0  0
 20 13  1  0  0  0  0
 21 22  1  0  0  0  0
 21  5  2  0  0  0  0
 22 24  1  0  0  0  0
 23 22  1  0  0  0  0
 26 25  1  0  0  0  0
 27 26  1  0  0  0  0
 28 27  1  0  0  0  0
 29 28  1  0  0  0  0
 30 29  1  0  0  0  0
 31 32  2  0  0  0  0
 32 30  1  0  0  0  0
 33 32  1  0  0  0  0
M  END
>  <MODEL>
6

>  <REMARK>
 VINA RESULT:      -4.7      3.735      6.707
  Name = 
  8 active torsions:
  status: ('A' for Active; 'I' for Inactive)
    1  A    between atoms: C_6  and  C_17
    2  A    between atoms: C_6  and  C_26
    3  A    between atoms: C_13  and  C_22
    4  A    between atoms: C_13  and  C_29
    5  A    between atoms: C_17  and  C_22
    6  A    between atoms: N_18  and  C_30
    7  A    between atoms: N_20  and  C_33
    8  A    between atoms: C_26  and  C_30
                            x       y       z     vdW  Elec       q    Type
                         _______ _______ _______ _____ _____    ______ ____

>  <TORSDO>
F 8

$$$$
=
 OpenBabel11042421263D

 33 38  0  0  1  0  0  0  0  0999 V2000
  159.1500  208.2650  155.7030 N   0  0  0  0  0  0  0  0  0  0  0  0
  158.4260  210.5080  155.9120 N   0  0  0  0  0  0  0  0  0  0  0  0
  162.3870  209.2650  153.0480 C   0  0  1  0  0  3  0  0  0  0  0  0
  160.9380  208.9500  153.3890 C   0  0  1  0  0  0  0  0  0  0  0  0
  160.8970  205.5390  149.7280 C   0  0  0  0  0  3  0  0  0  0  0  0
  160.0280  207.2420  155.2080 C   0  0  0  0  0  2  0  0  0  0  0  0
  161.9020  207.8500  153.2380 C   0  0  2  0  0  0  0  0  0  0  0  0
  162.6080  209.7130  151.5880 C   0  0  0  0  0  2  0  0  0  0  0  0
  159.3400  209.5310  155.3970 C   0  0  0  0  0  0  0  0  0  0  0  0
  158.5680  211.7860  155.7270 C   0  0  0  0  0  3  0  0  0  0  0  0
  160.8830  211.8210  152.9750 N   0  0  0  0  0  2  0  0  0  0  0  0
  160.8180  207.6880  154.2640 C   0  0  1  0  0  3  0  0  0  0  0  0
  160.3110  211.3760  154.0320 C   0  0  0  0  0  0  0  0  0  0  0  0
  161.7100  209.0790  150.6300 N   0  0  0  0  0  0  0  0  0  0  0  0
  161.5870  207.0520  151.9880 C   0  0  0  0  0  0  0  0  0  0  0  0
  161.0980  206.9160  149.6120 C   0  0  0  0  0  3  0  0  0  0  0  0
  161.3970  205.6670  152.0890 C   0  0  0  0  0  3  0  0  0  0  0  0
  161.4600  207.6740  150.7330 C   0  0  0  0  0  0  0  0  0  0  0  0
  160.5660  209.9680  154.5330 C   0  0  2  0  0  3  0  0  0  0  0  0
  159.7460  212.3650  155.0020 C   0  0  0  0  0  2  0  0  0  0  0  0
  161.0550  204.9010  150.9650 C   0  0  0  0  0  0  0  0  0  0  0  0
  160.8540  203.4820  151.0730 N   0  0  0  0  0  0  0  0  0  0  0  0
  160.7120  202.6430  149.8930 C   0  0  0  0  0  1  0  0  0  0  0  0
  160.7920  202.8960  152.2930 O   0  0  0  0  0  1  0  0  0  0  0  0
  161.0360  209.9140  149.6440 C   0  0  0  0  0  2  0  0  0  0  0  0
  162.0470  210.5100  148.6820 C   0  0  0  0  0  2  0  0  0  0  0  0
  161.9080  212.0170  148.6790 C   0  0  0  0  0  2  0  0  0  0  0  0
  163.0530  212.6250  147.8980 C   0  0  0  0  0  2  0  0  0  0  0  0
  162.5320  213.7630  147.0390 C   0  0  0  0  0  2  0  0  0  0  0  0
  162.3520  213.3050  145.6010 C   0  0  0  0  0  2  0  0  0  0  0  0
  160.3910  214.2220  144.6010 O   0  0  0  0  0  0  0  0  0  0  0  0
  160.9080  213.2650  145.2340 C   0  0  0  0  0  0  0  0  0  0  0  0
  160.1230  212.1860  145.6180 O   0  0  0  0  0  1  0  0  0  0  0  0
  3  8  1  6  0  0  0
  3  7  1  0  0  0  0
  3  4  1  0  0  0  0
  4 12  1  0  0  0  0
  4 19  1  0  0  0  0
  5 21  1  0  0  0  0
  6  1  1  0  0  0  0
  7  4  1  0  0  0  0
  7 12  1  0  0  0  0
  9  1  2  0  0  0  0
  9  2  1  0  0  0  0
 10  2  2  0  0  0  0
 11 13  2  0  0  0  0
 12  6  1  0  0  0  0
 13 19  1  0  0  0  0
 13 20  1  0  0  0  0
 14 18  1  0  0  0  0
 14  8  1  0  0  0  0
 15 17  1  0  0  0  0
 15  7  1  0  0  0  0
 16  5  2  0  0  0  0
 16 18  1  0  0  0  0
 18 15  2  0  0  0  0
 19  9  1  0  0  0  0
 20 10  1  0  0  0  0
 21 22  1  0  0  0  0
 21 17  2  0  0  0  0
 22 24  1  0  0  0  0
 23 22  1  0  0  0  0
 25 14  1  0  0  0  0
 26 25  1  0  0  0  0
 27 26  1  0  0  0  0
 28 27  1  0  0  0  0
 29 28  1  0  0  0  0
 30 29  1  0  0  0  0
 31 32  2  0  0  0  0
 32 30  1  0  0  0  0
 32 33  1  0  0  0  0
M  END
>  <MODEL>
7

>  <REMARK>
 VINA RESULT:      -4.6      2.937      7.789
  Name = 
  8 active torsions:
  status: ('A' for Active; 'I' for Inactive)
    1  A    between atoms: C_6  and  C_17
    2  A    between atoms: C_6  and  C_26
    3  A    between atoms: C_13  and  C_22
    4  A    between atoms: C_13  and  C_29
    5  A    between atoms: C_17  and  C_22
    6  A    between atoms: N_18  and  C_30
    7  A    between atoms: N_20  and  C_33
    8  A    between atoms: C_26  and  C_30
                            x       y       z     vdW  Elec       q    Type
                         _______ _______ _______ _____ _____    ______ ____

>  <TORSDO>
F 8

$$$$
=
 OpenBabel11042421263D

 33 38  0  0  1  0  0  0  0  0999 V2000
  159.1590  208.1270  155.6310 N   0  0  0  0  0  0  0  0  0  0  0  0
  158.3790  210.3420  155.9260 N   0  0  0  0  0  0  0  0  0  0  0  0
  162.4070  209.3170  153.0690 C   0  0  1  0  0  3  0  0  0  0  0  0
  160.9620  208.9540  153.3750 C   0  0  1  0  0  0  0  0  0  0  0  0
  161.0510  205.7050  149.5700 C   0  0  0  0  0  3  0  0  0  0  0  0
  160.0670  207.1480  155.1050 C   0  0  0  0  0  2  0  0  0  0  0  0
  161.9530  207.8840  153.1910 C   0  0  2  0  0  0  0  0  0  0  0  0
  162.6380  209.8330  151.6330 C   0  0  0  0  0  2  0  0  0  0  0  0
  159.3230  209.4100  155.3830 C   0  0  0  0  0  0  0  0  0  0  0  0
  158.4930  211.6300  155.7980 C   0  0  0  0  0  3  0  0  0  0  0  0
  160.8440  211.8380  153.0850 N   0  0  0  0  0  2  0  0  0  0  0  0
  160.8590  207.6520  154.1930 C   0  0  1  0  0  3  0  0  0  0  0  0
  160.2680  211.3340  154.1130 C   0  0  0  0  0  0  0  0  0  0  0  0
  161.7680  209.2200  150.6350 N   0  0  0  0  0  0  0  0  0  0  0  0
  161.6750  207.1340  151.9030 C   0  0  0  0  0  0  0  0  0  0  0  0
  161.2210  207.0900  149.5160 C   0  0  0  0  0  3  0  0  0  0  0  0
  161.5160  205.7420  151.9420 C   0  0  0  0  0  3  0  0  0  0  0  0
  161.5500  207.8060  150.6750 C   0  0  0  0  0  0  0  0  0  0  0  0
  160.5500  209.9120  154.5570 C   0  0  2  0  0  3  0  0  0  0  0  0
  159.6670  212.2670  155.1160 C   0  0  0  0  0  2  0  0  0  0  0  0
  161.2070  205.0180  150.7800 C   0  0  0  0  0  0  0  0  0  0  0  0
  161.0390  203.5920  150.8240 N   0  0  0  0  0  0  0  0  0  0  0  0
  160.8290  202.8140  149.6120 C   0  0  0  0  0  1  0  0  0  0  0  0
  161.0720  202.9400  152.0110 O   0  0  0  0  0  1  0  0  0  0  0  0
  161.0880  210.0810  149.6770 C   0  0  0  0  0  2  0  0  0  0  0  0
  162.0690  210.5870  148.6360 C   0  0  0  0  0  2  0  0  0  0  0  0
  162.0610  212.1000  148.6300 C   0  0  0  0  0  2  0  0  0  0  0  0
  160.8480  212.5920  147.8730 C   0  0  0  0  0  2  0  0  0  0  0  0
  160.3350  213.8690  148.5140 C   0  0  0  0  0  2  0  0  0  0  0  0
  160.0790  213.6540  149.9970 C   0  0  0  0  0  2  0  0  0  0  0  0
  158.2060  213.1710  151.3920 O   0  0  0  0  0  1  0  0  0  0  0  0
  158.6170  213.5960  150.2800 C   0  0  0  0  0  0  0  0  0  0  0  0
  157.7050  213.9780  149.3060 O   0  0  0  0  0  0  0  0  0  0  0  0
  3  8  1  6  0  0  0
  3  7  1  0  0  0  0
  3  4  1  0  0  0  0
  4 12  1  0  0  0  0
  4 19  1  0  0  0  0
  5 21  1  0  0  0  0
  6  1  1  0  0  0  0
  7  4  1  0  0  0  0
  7 12  1  0  0  0  0
  9  1  2  0  0  0  0
  9  2  1  0  0  0  0
 10  2  2  0  0  0  0
 11 13  2  0  0  0  0
 12  6  1  0  0  0  0
 13 19  1  0  0  0  0
 13 20  1  0  0  0  0
 14 18  1  0  0  0  0
 14  8  1  0  0  0  0
 15 17  1  0  0  0  0
 15  7  1  0  0  0  0
 16  5  2  0  0  0  0
 16 18  1  0  0  0  0
 18 15  2  0  0  0  0
 19  9  1  0  0  0  0
 20 10  1  0  0  0  0
 21 22  1  0  0  0  0
 21 17  2  0  0  0  0
 22 24  1  0  0  0  0
 23 22  1  0  0  0  0
 25 14  1  0  0  0  0
 26 25  1  0  0  0  0
 27 26  1  0  0  0  0
 28 29  1  0  0  0  0
 28 27  1  0  0  0  0
 29 30  1  0  0  0  0
 30 32  1  0  0  0  0
 32 31  1  0  0  0  0
 33 32  2  0  0  0  0
M  END
>  <MODEL>
8

>  <REMARK>
 VINA RESULT:      -4.5      2.622      7.045
  Name = 
  8 active torsions:
  status: ('A' for Active; 'I' for Inactive)
    1  A    between atoms: C_6  and  C_17
    2  A    between atoms: C_6  and  C_26
    3  A    between atoms: C_13  and  C_22
    4  A    between atoms: C_13  and  C_29
    5  A    between atoms: C_17  and  C_22
    6  A    between atoms: N_18  and  C_30
    7  A    between atoms: N_20  and  C_33
    8  A    between atoms: C_26  and  C_30
                            x       y       z     vdW  Elec       q    Type
                         _______ _______ _______ _____ _____    ______ ____

>  <TORSDO>
F 8

$$$$
=
 OpenBabel11042421263D

 33 38  0  0  1  0  0  0  0  0999 V2000
  160.1520  206.5870  154.8340 N   0  0  0  0  0  0  0  0  0  0  0  0
  159.7710  208.8900  155.2200 N   0  0  0  0  0  0  0  0  0  0  0  0
  163.0350  207.3020  151.7190 C   0  0  1  0  0  3  0  0  0  0  0  0
  161.6290  207.1540  152.2810 C   0  0  1  0  0  0  0  0  0  0  0  0
  160.5650  203.9570  148.5810 C   0  0  0  0  0  3  0  0  0  0  0  0
  160.7990  205.4870  154.1750 C   0  0  0  0  0  2  0  0  0  0  0  0
  162.4040  205.9510  151.9450 C   0  0  2  0  0  0  0  0  0  0  0  0
  163.0810  207.7890  150.2550 C   0  0  0  0  0  2  0  0  0  0  0  0
  160.4560  207.8320  154.5370 C   0  0  0  0  0  0  0  0  0  0  0  0
  160.0490  210.1480  155.0500 C   0  0  0  0  0  3  0  0  0  0  0  0
  161.8870  210.0260  151.9610 N   0  0  0  0  0  2  0  0  0  0  0  0
  161.4830  205.8760  153.1290 C   0  0  1  0  0  3  0  0  0  0  0  0
  161.4340  209.6050  153.0850 C   0  0  0  0  0  0  0  0  0  0  0  0
  161.9680  207.3190  149.4370 N   0  0  0  0  0  0  0  0  0  0  0  0
  161.7950  205.2600  150.7400 C   0  0  0  0  0  0  0  0  0  0  0  0
  160.9250  205.3020  148.4730 C   0  0  0  0  0  3  0  0  0  0  0  0
  161.4430  203.9060  150.8330 C   0  0  0  0  0  3  0  0  0  0  0  0
  161.5550  205.9530  149.5410 C   0  0  0  0  0  0  0  0  0  0  0  0
  161.5780  208.1540  153.4980 C   0  0  2  0  0  3  0  0  0  0  0  0
  161.1640  210.6090  154.1600 C   0  0  0  0  0  2  0  0  0  0  0  0
  160.8300  203.2440  149.7580 C   0  0  0  0  0  0  0  0  0  0  0  0
  160.4650  201.8590  149.8580 N   0  0  0  0  0  0  0  0  0  0  0  0
  159.2990  201.3290  149.1660 C   0  0  0  0  0  1  0  0  0  0  0  0
  161.2090  201.0130  150.6090 O   0  0  0  0  0  1  0  0  0  0  0  0
  161.2630  208.2780  148.5980 C   0  0  0  0  0  2  0  0  0  0  0  0
  162.1160  209.5150  148.3840 C   0  0  0  0  0  2  0  0  0  0  0  0
  161.2210  210.7300  148.2740 C   0  0  0  0  0  2  0  0  0  0  0  0
  162.0740  211.9780  148.2090 C   0  0  0  0  0  2  0  0  0  0  0  0
  161.1870  213.2040  148.3330 C   0  0  0  0  0  2  0  0  0  0  0  0
  160.4410  213.1890  149.6580 C   0  0  0  0  0  2  0  0  0  0  0  0
  158.3000  213.8330  150.4880 O   0  0  0  0  0  1  0  0  0  0  0  0
  159.0410  213.6720  149.4830 C   0  0  0  0  0  0  0  0  0  0  0  0
  158.5440  213.9130  148.2100 O   0  0  0  0  0  0  0  0  0  0  0  0
  3  8  1  6  0  0  0
  3  7  1  0  0  0  0
  3  4  1  0  0  0  0
  4 12  1  0  0  0  0
  4 19  1  0  0  0  0
  5 21  1  0  0  0  0
  6  1  1  0  0  0  0
  7  4  1  0  0  0  0
  7 12  1  0  0  0  0
  9  1  2  0  0  0  0
  9  2  1  0  0  0  0
 10  2  2  0  0  0  0
 11 13  2  0  0  0  0
 12  6  1  0  0  0  0
 13 19  1  0  0  0  0
 13 20  1  0  0  0  0
 14 18  1  0  0  0  0
 14  8  1  0  0  0  0
 15 17  1  0  0  0  0
 15  7  1  0  0  0  0
 16  5  2  0  0  0  0
 16 18  1  0  0  0  0
 18 15  2  0  0  0  0
 19  9  1  0  0  0  0
 20 10  1  0  0  0  0
 21 22  1  0  0  0  0
 21 17  2  0  0  0  0
 22 24  1  0  0  0  0
 23 22  1  0  0  0  0
 25 14  1  0  0  0  0
 26 25  1  0  0  0  0
 27 26  1  0  0  0  0
 28 27  1  0  0  0  0
 28 29  1  0  0  0  0
 29 30  1  0  0  0  0
 32 30  1  0  0  0  0
 32 31  1  0  0  0  0
 33 32  2  0  0  0  0
M  END
>  <MODEL>
9

>  <REMARK>
 VINA RESULT:      -4.1      2.701      6.947
  Name = 
  8 active torsions:
  status: ('A' for Active; 'I' for Inactive)
    1  A    between atoms: C_6  and  C_17
    2  A    between atoms: C_6  and  C_26
    3  A    between atoms: C_13  and  C_22
    4  A    between atoms: C_13  and  C_29
    5  A    between atoms: C_17  and  C_22
    6  A    between atoms: N_18  and  C_30
    7  A    between atoms: N_20  and  C_33
    8  A    between atoms: C_26  and  C_30
                            x       y       z     vdW  Elec       q    Type
                         _______ _______ _______ _____ _____    ______ ____

>  <TORSDO>
F 8

$$$$
