=
 OpenBabel11052410523D

 28 31  0  0  1  0  0  0  0  0999 V2000
  161.8030  209.5320  150.7410 N   0  0  0  0  0  0  0  0  0  0  0  0
  161.4260  206.1640  149.2420 C   0  0  0  0  0  3  0  0  0  0  0  0
  162.0620  210.8540  150.2000 C   0  0  0  0  0  3  0  0  0  0  0  0
  161.6770  209.2090  152.0790 C   0  0  0  0  0  0  0  0  0  0  0  0
  160.8280  203.3330  152.2390 C   0  0  0  0  0  3  0  0  0  0  0  0
  161.9260  209.1870  148.3950 C   0  0  0  0  0  3  0  0  0  0  0  0
  161.3850  206.9180  151.4360 C   0  0  0  0  0  0  0  0  0  0  0  0
  161.0480  203.7650  149.8400 C   0  0  0  0  0  3  0  0  0  0  0  0
  161.5300  207.2870  150.0520 C   0  0  0  0  0  0  0  0  0  0  0  0
  161.4540  207.8640  152.4520 C   0  0  0  0  0  3  0  0  0  0  0  0
  161.7400  208.6210  149.7450 C   0  0  0  0  0  0  0  0  0  0  0  0
  161.2180  205.1160  150.1380 C   0  0  1  0  0  3  0  0  0  0  0  0
  162.1320  210.6770  148.6780 C   0  0  0  0  0  3  0  0  0  0  0  0
  160.8520  202.8700  150.9070 C   0  0  0  0  0  3  0  0  0  0  0  0
  161.0010  204.6970  152.5260 C   0  0  0  0  0  3  0  0  0  0  0  0
  161.1930  205.5630  151.4520 C   0  0  0  0  0  0  0  0  0  0  0  0
  160.6420  211.1630  153.3610 N   0  0  0  0  0  2  0  0  0  0  0  0
  161.7260  210.2550  153.1310 C   0  0  0  0  0  0  0  0  0  0  0  0
  162.7580  210.3640  153.8430 O   0  0  0  0  0  0  0  0  0  0  0  0
  159.3210  211.0300  152.7660 C   0  0  0  0  0  2  0  0  0  0  0  0
  158.0720  211.7270  153.8850 S   0  0  0  0  0  0  0  0  0  0  0  0
  159.1730  211.6360  155.3260 C   0  0  0  0  0  2  0  0  0  0  0  0
  158.9020  210.3600  156.1030 C   0  0  0  0  0  2  0  0  0  0  0  0
  161.0430  210.4870  157.2440 C   0  0  0  0  0  2  0  0  0  0  0  0
  160.1860  209.7460  156.5530 C   0  0  0  0  0  0  0  0  0  0  0  0
  160.5260  208.3620  156.1830 C   0  0  0  0  0  0  0  0  0  0  0  0
  161.7300  208.0260  156.0240 O   0  0  0  0  0  1  0  0  0  0  0  0
  159.5240  207.4150  156.0040 O   0  0  0  0  0  0  0  0  0  0  0  0
  1  4  1  0  0  0  0
  2  9  2  0  0  0  0
  3  1  1  0  0  0  0
  4 10  2  0  0  0  0
  4 18  1  0  0  0  0
  5 15  2  0  0  0  0
  6 13  1  0  0  0  0
  6 11  2  0  0  0  0
  7 16  2  0  0  0  0
  7 10  1  0  0  0  0
  8 12  1  0  0  0  0
  8 14  2  0  0  0  0
  9  7  1  0  0  0  0
 11  9  1  0  0  0  0
 11  1  1  0  0  0  0
 12  2  1  1  0  0  0
 12 16  1  0  0  0  0
 13  3  2  0  0  0  0
 14  5  1  0  0  0  0
 16 15  1  0  0  0  0
 18 17  1  0  0  0  0
 18 19  2  0  0  0  0
 20 17  1  0  0  0  0
 20 21  1  0  0  0  0
 21 22  1  0  0  0  0
 22 23  1  0  0  0  0
 23 25  1  0  0  0  0
 25 24  2  0  0  0  0
 26 25  1  0  0  0  0
 27 26  1  0  0  0  0
 28 26  2  0  0  0  0
M  END
>  <MODEL>
1

>  <REMARK>
 VINA RESULT:      -7.5      0.000      0.000
  Name = 
  7 active torsions:
  status: ('A' for Active; 'I' for Inactive)
    1  A    between atoms: C_4  and  C_18
    2  A    between atoms: C_4  and  S_25
    3  A    between atoms: C_5  and  C_23
    4  A    between atoms: C_12  and  C_27
    5  A    between atoms: N_17  and  C_26
    6  A    between atoms: C_18  and  C_27
    7  A    between atoms: S_25  and  C_26
                            x       y       z     vdW  Elec       q    Type
                         _______ _______ _______ _____ _____    ______ ____

>  <TORSDO>
F 7

$$$$
=
 OpenBabel11052410523D

 28 31  0  0  1  0  0  0  0  0999 V2000
  161.3040  208.0040  153.2860 N   0  0  0  0  0  0  0  0  0  0  0  0
  160.8090  204.4630  152.3120 C   0  0  0  0  0  3  0  0  0  0  0  0
  161.2570  208.7200  154.5480 C   0  0  0  0  0  3  0  0  0  0  0  0
  161.5200  208.5630  152.0410 C   0  0  0  0  0  0  0  0  0  0  0  0
  161.1700  204.0610  148.1810 C   0  0  0  0  0  3  0  0  0  0  0  0
  160.8370  206.3190  154.8930 C   0  0  0  0  0  3  0  0  0  0  0  0
  161.2620  206.3800  151.0840 C   0  0  0  0  0  0  0  0  0  0  0  0
  160.7600  202.9490  150.3210 C   0  0  0  0  0  3  0  0  0  0  0  0
  161.0320  205.8310  152.3960 C   0  0  1  0  0  3  0  0  0  0  0  0
  161.5070  207.7340  150.8950 C   0  0  0  0  0  3  0  0  0  0  0  0
  161.0630  206.6890  153.4820 C   0  0  0  0  0  0  0  0  0  0  0  0
  160.9050  204.1850  150.9480 C   0  0  0  0  0  0  0  0  0  0  0  0
  160.9730  207.6590  155.6190 C   0  0  0  0  0  3  0  0  0  0  0  0
  160.8950  202.8940  148.9230 C   0  0  0  0  0  3  0  0  0  0  0  0
  161.3130  205.3020  148.8250 C   0  0  0  0  0  3  0  0  0  0  0  0
  161.1750  205.3290  150.2100 C   0  0  0  0  0  0  0  0  0  0  0  0
  160.7950  211.0130  152.0100 N   0  0  0  0  0  2  0  0  0  0  0  0
  161.8090  210.0100  151.8860 C   0  0  0  0  0  0  0  0  0  0  0  0
  162.9840  210.3780  151.6240 O   0  0  0  0  0  0  0  0  0  0  0  0
  159.4510  210.7630  152.5080 C   0  0  0  0  0  2  0  0  0  0  0  0
  158.7670  212.2870  153.2200 S   0  0  0  0  0  0  0  0  0  0  0  0
  159.3000  211.8530  154.9010 C   0  0  0  0  0  2  0  0  0  0  0  0
  158.3630  210.8120  155.4860 C   0  0  0  0  0  2  0  0  0  0  0  0
  157.0420  212.1130  157.0560 C   0  0  0  0  0  2  0  0  0  0  0  0
  157.0810  211.4480  155.9080 C   0  0  0  0  0  0  0  0  0  0  0  0
  155.8620  211.2900  155.0970 C   0  0  0  0  0  0  0  0  0  0  0  0
  155.4040  212.2660  154.4440 O   0  0  0  0  0  0  0  0  0  0  0  0
  155.2050  210.0660  155.0450 O   0  0  0  0  0  1  0  0  0  0  0  0
  1 11  1  0  0  0  0
  1  3  1  0  0  0  0
  3 13  2  0  0  0  0
  4  1  1  0  0  0  0
  5 15  2  0  0  0  0
  5 14  1  0  0  0  0
  6 13  1  0  0  0  0
  7  9  1  0  0  0  0
  8 12  1  0  0  0  0
  9  2  1  6  0  0  0
  9 11  1  0  0  0  0
 10  7  1  0  0  0  0
 10  4  2  0  0  0  0
 11  6  2  0  0  0  0
 12  2  2  0  0  0  0
 14  8  2  0  0  0  0
 15 16  1  0  0  0  0
 16 12  1  0  0  0  0
 16  7  2  0  0  0  0
 17 20  1  0  0  0  0
 18 17  1  0  0  0  0
 18  4  1  0  0  0  0
 19 18  2  0  0  0  0
 20 21  1  0  0  0  0
 21 22  1  0  0  0  0
 22 23  1  0  0  0  0
 23 25  1  0  0  0  0
 25 24  2  0  0  0  0
 26 25  1  0  0  0  0
 27 26  2  0  0  0  0
 28 26  1  0  0  0  0
M  END
>  <MODEL>
2

>  <REMARK>
 VINA RESULT:      -7.3      2.194      3.713
  Name = 
  7 active torsions:
  status: ('A' for Active; 'I' for Inactive)
    1  A    between atoms: C_4  and  C_18
    2  A    between atoms: C_4  and  S_25
    3  A    between atoms: C_5  and  C_23
    4  A    between atoms: C_12  and  C_27
    5  A    between atoms: N_17  and  C_26
    6  A    between atoms: C_18  and  C_27
    7  A    between atoms: S_25  and  C_26
                            x       y       z     vdW  Elec       q    Type
                         _______ _______ _______ _____ _____    ______ ____

>  <TORSDO>
F 7

$$$$
=
 OpenBabel11052410523D

 28 31  0  0  1  0  0  0  0  0999 V2000
  161.2600  208.1570  153.2990 N   0  0  0  0  0  0  0  0  0  0  0  0
  160.8700  204.5620  152.4890 C   0  0  0  0  0  3  0  0  0  0  0  0
  161.2250  208.9240  154.5310 C   0  0  0  0  0  3  0  0  0  0  0  0
  161.4150  208.6690  152.0250 C   0  0  0  0  0  0  0  0  0  0  0  0
  161.1160  203.9980  148.3690 C   0  0  0  0  0  3  0  0  0  0  0  0
  160.9070  206.5260  154.9890 C   0  0  0  0  0  3  0  0  0  0  0  0
  161.2100  206.4390  151.1680 C   0  0  0  0  0  0  0  0  0  0  0  0
  160.8160  202.9630  150.5660 C   0  0  0  0  0  3  0  0  0  0  0  0
  161.0430  205.9390  152.5090 C   0  0  1  0  0  3  0  0  0  0  0  0
  161.3980  207.7930  150.9160 C   0  0  0  0  0  3  0  0  0  0  0  0
  161.0750  206.8430  153.5570 C   0  0  0  0  0  0  0  0  0  0  0  0
  160.9330  204.2300  151.1360 C   0  0  0  0  0  0  0  0  0  0  0  0
  161.0150  207.8990  155.6540 C   0  0  0  0  0  3  0  0  0  0  0  0
  160.9090  202.8530  149.1670 C   0  0  0  0  0  3  0  0  0  0  0  0
  161.2320  205.2690  148.9560 C   0  0  0  0  0  3  0  0  0  0  0  0
  161.1360  205.3500  150.3430 C   0  0  0  0  0  0  0  0  0  0  0  0
  160.6230  211.0990  152.0160 N   0  0  0  0  0  2  0  0  0  0  0  0
  161.6450  210.1180  151.8010 C   0  0  0  0  0  0  0  0  0  0  0  0
  162.7710  210.5080  151.3960 O   0  0  0  0  0  0  0  0  0  0  0  0
  159.3530  210.8300  152.6720 C   0  0  0  0  0  2  0  0  0  0  0  0
  158.8800  212.2500  153.7000 S   0  0  0  0  0  0  0  0  0  0  0  0
  159.1190  213.4330  152.3420 C   0  0  0  0  0  2  0  0  0  0  0  0
  157.8140  213.6230  151.5880 C   0  0  0  0  0  2  0  0  0  0  0  0
  159.2780  213.8330  149.6610 C   0  0  0  0  0  2  0  0  0  0  0  0
  158.0580  213.5820  150.1160 C   0  0  0  0  0  0  0  0  0  0  0  0
  156.9500  213.3310  149.1800 C   0  0  0  0  0  0  0  0  0  0  0  0
  157.1500  212.6790  148.1200 O   0  0  0  0  0  0  0  0  0  0  0  0
  155.6740  213.8120  149.4530 O   0  0  0  0  0  1  0  0  0  0  0  0
  1 11  1  0  0  0  0
  1  3  1  0  0  0  0
  3 13  2  0  0  0  0
  4  1  1  0  0  0  0
  5 15  2  0  0  0  0
  5 14  1  0  0  0  0
  6 13  1  0  0  0  0
  7  9  1  0  0  0  0
  8 12  1  0  0  0  0
  9  2  1  6  0  0  0
  9 11  1  0  0  0  0
 10  7  1  0  0  0  0
 10  4  2  0  0  0  0
 11  6  2  0  0  0  0
 12  2  2  0  0  0  0
 14  8  2  0  0  0  0
 15 16  1  0  0  0  0
 16 12  1  0  0  0  0
 16  7  2  0  0  0  0
 17 20  1  0  0  0  0
 18 17  1  0  0  0  0
 18  4  1  0  0  0  0
 19 18  2  0  0  0  0
 20 21  1  0  0  0  0
 22 21  1  0  0  0  0
 23 22  1  0  0  0  0
 24 25  2  0  0  0  0
 25 23  1  0  0  0  0
 26 28  1  0  0  0  0
 26 25  1  0  0  0  0
 27 26  2  0  0  0  0
M  END
>  <MODEL>
3

>  <REMARK>
 VINA RESULT:      -7.3      3.064      4.992
  Name = 
  7 active torsions:
  status: ('A' for Active; 'I' for Inactive)
    1  A    between atoms: C_4  and  C_18
    2  A    between atoms: C_4  and  S_25
    3  A    between atoms: C_5  and  C_23
    4  A    between atoms: C_12  and  C_27
    5  A    between atoms: N_17  and  C_26
    6  A    between atoms: C_18  and  C_27
    7  A    between atoms: S_25  and  C_26
                            x       y       z     vdW  Elec       q    Type
                         _______ _______ _______ _____ _____    ______ ____

>  <TORSDO>
F 7

$$$$
=
 OpenBabel11052410523D

 28 31  0  0  1  0  0  0  0  0999 V2000
  161.4670  207.5820  152.3950 N   0  0  0  0  0  0  0  0  0  0  0  0
  161.1100  204.5810  150.2500 C   0  0  0  0  0  3  0  0  0  0  0  0
  161.3290  207.8260  153.8190 C   0  0  0  0  0  3  0  0  0  0  0  0
  161.7430  208.5300  151.4280 C   0  0  0  0  0  0  0  0  0  0  0  0
  161.7230  205.6060  146.2580 C   0  0  0  0  0  3  0  0  0  0  0  0
  160.9430  205.4510  153.3030 C   0  0  0  0  0  3  0  0  0  0  0  0
  161.5910  206.8010  149.7740 C   0  0  0  0  0  0  0  0  0  0  0  0
  161.2120  203.8320  147.8650 C   0  0  0  0  0  3  0  0  0  0  0  0
  161.2970  205.8400  150.8060 C   0  0  1  0  0  3  0  0  0  0  0  0
  161.8170  208.1390  150.0720 C   0  0  0  0  0  3  0  0  0  0  0  0
  161.2440  206.2770  152.1180 C   0  0  0  0  0  0  0  0  0  0  0  0
  161.2920  204.7830  148.8810 C   0  0  0  0  0  0  0  0  0  0  0  0
  161.0060  206.4640  154.4470 C   0  0  0  0  0  3  0  0  0  0  0  0
  161.4320  204.2550  146.5420 C   0  0  0  0  0  3  0  0  0  0  0  0
  161.8000  206.5540  147.2920 C   0  0  0  0  0  3  0  0  0  0  0  0
  161.5800  206.1090  148.5930 C   0  0  0  0  0  0  0  0  0  0  0  0
  160.9720  210.8350  152.2200 N   0  0  0  0  0  2  0  0  0  0  0  0
  162.0090  209.9440  151.7920 C   0  0  0  0  0  0  0  0  0  0  0  0
  163.1840  210.3900  151.7120 O   0  0  0  0  0  0  0  0  0  0  0  0
  159.6200  210.4170  152.5550 C   0  0  0  0  0  2  0  0  0  0  0  0
  158.6530  211.8520  153.1070 S   0  0  0  0  0  0  0  0  0  0  0  0
  158.8030  211.3980  154.8590 C   0  0  0  0  0  2  0  0  0  0  0  0
  160.1900  211.7510  155.3660 C   0  0  0  0  0  2  0  0  0  0  0  0
  159.9080  209.9790  157.0040 C   0  0  0  0  0  2  0  0  0  0  0  0
  160.7330  210.6400  156.2020 C   0  0  0  0  0  0  0  0  0  0  0  0
  162.1700  210.3220  156.1850 C   0  0  0  0  0  0  0  0  0  0  0  0
  162.9290  210.8570  155.3330 O   0  0  0  0  0  0  0  0  0  0  0  0
  162.7050  209.4290  157.1070 O   0  0  0  0  0  1  0  0  0  0  0  0
  1  3  1  0  0  0  0
  3 13  2  0  0  0  0
  4 18  1  0  0  0  0
  4  1  1  0  0  0  0
  5 14  1  0  0  0  0
  5 15  2  0  0  0  0
  6 13  1  0  0  0  0
  7 10  1  0  0  0  0
  7  9  1  0  0  0  0
  8 12  1  0  0  0  0
  9  2  1  6  0  0  0
  9 11  1  0  0  0  0
 10  4  2  0  0  0  0
 11  1  1  0  0  0  0
 11  6  2  0  0  0  0
 12  2  2  0  0  0  0
 14  8  2  0  0  0  0
 15 16  1  0  0  0  0
 16 12  1  0  0  0  0
 16  7  2  0  0  0  0
 17 20  1  0  0  0  0
 18 17  1  0  0  0  0
 19 18  2  0  0  0  0
 20 21  1  0  0  0  0
 21 22  1  0  0  0  0
 22 23  1  0  0  0  0
 23 25  1  0  0  0  0
 25 24  2  0  0  0  0
 26 25  1  0  0  0  0
 26 28  1  0  0  0  0
 27 26  2  0  0  0  0
M  END
>  <MODEL>
4

>  <REMARK>
 VINA RESULT:      -7.3      1.593      3.304
  Name = 
  7 active torsions:
  status: ('A' for Active; 'I' for Inactive)
    1  A    between atoms: C_4  and  C_18
    2  A    between atoms: C_4  and  S_25
    3  A    between atoms: C_5  and  C_23
    4  A    between atoms: C_12  and  C_27
    5  A    between atoms: N_17  and  C_26
    6  A    between atoms: C_18  and  C_27
    7  A    between atoms: S_25  and  C_26
                            x       y       z     vdW  Elec       q    Type
                         _______ _______ _______ _____ _____    ______ ____

>  <TORSDO>
F 7

$$$$
=
 OpenBabel11052410523D

 28 31  0  0  1  0  0  0  0  0999 V2000
  161.3100  208.0050  153.0970 N   0  0  0  0  0  0  0  0  0  0  0  0
  160.8250  204.5220  151.9290 C   0  0  0  0  0  3  0  0  0  0  0  0
  161.2290  208.6560  154.3930 C   0  0  0  0  0  3  0  0  0  0  0  0
  161.5670  208.6240  151.8890 C   0  0  0  0  0  0  0  0  0  0  0  0
  161.3100  204.3270  147.7960 C   0  0  0  0  0  3  0  0  0  0  0  0
  160.7840  206.2440  154.6020 C   0  0  0  0  0  3  0  0  0  0  0  0
  161.3260  206.4940  150.8150 C   0  0  0  0  0  0  0  0  0  0  0  0
  160.8280  203.1110  149.8640 C   0  0  0  0  0  3  0  0  0  0  0  0
  161.0530  205.8820  152.0900 C   0  0  1  0  0  3  0  0  0  0  0  0
  161.5850  207.8550  150.7040 C   0  0  0  0  0  3  0  0  0  0  0  0
  161.0550  206.6830  153.2190 C   0  0  0  0  0  0  0  0  0  0  0  0
  160.9610  204.3130  150.5570 C   0  0  0  0  0  0  0  0  0  0  0  0
  160.9050  207.5440  155.3990 C   0  0  0  0  0  3  0  0  0  0  0  0
  161.0060  203.1250  148.4690 C   0  0  0  0  0  3  0  0  0  0  0  0
  161.4400  205.5320  148.5070 C   0  0  0  0  0  3  0  0  0  0  0  0
  161.2600  205.4900  149.8870 C   0  0  0  0  0  0  0  0  0  0  0  0
  160.8560  211.0780  151.9530 N   0  0  0  0  0  2  0  0  0  0  0  0
  161.8700  210.0750  151.8170 C   0  0  0  0  0  0  0  0  0  0  0  0
  163.0560  210.4470  151.6180 O   0  0  0  0  0  0  0  0  0  0  0  0
  159.4940  210.8130  152.3870 C   0  0  0  0  0  2  0  0  0  0  0  0
  158.5940  212.3790  152.5750 S   0  0  0  0  0  0  0  0  0  0  0  0
  159.6300  213.2300  151.3500 C   0  0  0  0  0  2  0  0  0  0  0  0
  158.7730  213.7030  150.1890 C   0  0  0  0  0  2  0  0  0  0  0  0
  158.8030  213.4060  147.7780 C   0  0  0  0  0  2  0  0  0  0  0  0
  159.5020  213.5200  148.9000 C   0  0  0  0  0  0  0  0  0  0  0  0
  160.9700  213.4040  148.8780 C   0  0  0  0  0  0  0  0  0  0  0  0
  161.6890  214.4340  148.9800 O   0  0  0  0  0  1  0  0  0  0  0  0
  161.5760  212.1600  148.7430 O   0  0  0  0  0  0  0  0  0  0  0  0
  1 11  1  0  0  0  0
  1  3  1  0  0  0  0
  3 13  2  0  0  0  0
  4  1  1  0  0  0  0
  5 14  1  0  0  0  0
  5 15  2  0  0  0  0
  6 13  1  0  0  0  0
  7  9  1  0  0  0  0
  8 12  1  0  0  0  0
  9  2  1  6  0  0  0
  9 11  1  0  0  0  0
 10  7  1  0  0  0  0
 10  4  2  0  0  0  0
 11  6  2  0  0  0  0
 12  2  2  0  0  0  0
 14  8  2  0  0  0  0
 15 16  1  0  0  0  0
 16 12  1  0  0  0  0
 16  7  2  0  0  0  0
 17 20  1  0  0  0  0
 18  4  1  0  0  0  0
 18 17  1  0  0  0  0
 19 18  2  0  0  0  0
 20 21  1  0  0  0  0
 22 21  1  0  0  0  0
 23 22  1  0  0  0  0
 24 25  2  0  0  0  0
 25 23  1  0  0  0  0
 26 25  1  0  0  0  0
 26 27  1  0  0  0  0
 28 26  2  0  0  0  0
M  END
>  <MODEL>
5

>  <REMARK>
 VINA RESULT:      -7.2      2.543      5.081
  Name = 
  7 active torsions:
  status: ('A' for Active; 'I' for Inactive)
    1  A    between atoms: C_4  and  C_18
    2  A    between atoms: C_4  and  S_25
    3  A    between atoms: C_5  and  C_23
    4  A    between atoms: C_12  and  C_27
    5  A    between atoms: N_17  and  C_26
    6  A    between atoms: C_18  and  C_27
    7  A    between atoms: S_25  and  C_26
                            x       y       z     vdW  Elec       q    Type
                         _______ _______ _______ _____ _____    ______ ____

>  <TORSDO>
F 7

$$$$
=
 OpenBabel11052410523D

 28 31  0  0  1  0  0  0  0  0999 V2000
  161.7480  209.6370  150.8810 N   0  0  0  0  0  0  0  0  0  0  0  0
  161.5000  206.2900  149.3100 C   0  0  0  0  0  3  0  0  0  0  0  0
  162.0110  210.9720  150.3750 C   0  0  0  0  0  3  0  0  0  0  0  0
  161.5630  209.2890  152.2050 C   0  0  0  0  0  0  0  0  0  0  0  0
  160.8040  203.3980  152.2270 C   0  0  0  0  0  3  0  0  0  0  0  0
  161.9910  209.3350  148.5380 C   0  0  0  0  0  3  0  0  0  0  0  0
  161.3400  207.0050  151.5120 C   0  0  0  0  0  0  0  0  0  0  0  0
  161.1340  203.8750  149.8500 C   0  0  0  0  0  3  0  0  0  0  0  0
  161.5460  207.4000  150.1420 C   0  0  0  0  0  0  0  0  0  0  0  0
  161.3440  207.9350  152.5440 C   0  0  0  0  0  3  0  0  0  0  0  0
  161.7480  208.7420  149.8680 C   0  0  0  0  0  0  0  0  0  0  0  0
  161.2660  205.2230  150.1780 C   0  0  1  0  0  3  0  0  0  0  0  0
  162.1580  210.8220  148.8550 C   0  0  0  0  0  3  0  0  0  0  0  0
  160.9000  202.9580  150.8900 C   0  0  0  0  0  3  0  0  0  0  0  0
  160.9400  204.7600  152.5440 C   0  0  0  0  0  3  0  0  0  0  0  0
  161.1700  205.6470  151.4950 C   0  0  0  0  0  0  0  0  0  0  0  0
  160.4430  211.2190  153.4520 N   0  0  0  0  0  2  0  0  0  0  0  0
  161.5420  210.3170  153.2750 C   0  0  0  0  0  0  0  0  0  0  0  0
  162.5270  210.4170  154.0530 O   0  0  0  0  0  0  0  0  0  0  0  0
  159.1630  211.0940  152.7740 C   0  0  0  0  0  2  0  0  0  0  0  0
  158.7160  212.6800  152.0090 S   0  0  0  0  0  0  0  0  0  0  0  0
  158.1810  213.3990  153.5890 C   0  0  0  0  0  2  0  0  0  0  0  0
  156.6650  213.4210  153.6570 C   0  0  0  0  0  2  0  0  0  0  0  0
  155.7170  213.6160  155.8860 C   0  0  0  0  0  2  0  0  0  0  0  0
  156.1960  212.8180  154.9400 C   0  0  0  0  0  0  0  0  0  0  0  0
  156.3200  211.3710  155.1780 C   0  0  0  0  0  0  0  0  0  0  0  0
  157.3170  210.9130  155.7980 O   0  0  0  0  0  1  0  0  0  0  0  0
  155.3430  210.4950  154.7190 O   0  0  0  0  0  0  0  0  0  0  0  0
  1  4  1  0  0  0  0
  2  9  2  0  0  0  0
  3  1  1  0  0  0  0
  4 10  2  0  0  0  0
  4 18  1  0  0  0  0
  5 15  2  0  0  0  0
  6 13  1  0  0  0  0
  6 11  2  0  0  0  0
  7 10  1  0  0  0  0
  8 12  1  0  0  0  0
  8 14  2  0  0  0  0
  9  7  1  0  0  0  0
 11  9  1  0  0  0  0
 11  1  1  0  0  0  0
 12  2  1  1  0  0  0
 12 16  1  0  0  0  0
 13  3  2  0  0  0  0
 14  5  1  0  0  0  0
 16  7  2  0  0  0  0
 16 15  1  0  0  0  0
 18 17  1  0  0  0  0
 18 19  2  0  0  0  0
 20 17  1  0  0  0  0
 21 20  1  0  0  0  0
 21 22  1  0  0  0  0
 22 23  1  0  0  0  0
 23 25  1  0  0  0  0
 25 26  1  0  0  0  0
 25 24  2  0  0  0  0
 26 27  1  0  0  0  0
 28 26  2  0  0  0  0
M  END
>  <MODEL>
6

>  <REMARK>
 VINA RESULT:      -7.2      1.941      2.571
  Name = 
  7 active torsions:
  status: ('A' for Active; 'I' for Inactive)
    1  A    between atoms: C_4  and  C_18
    2  A    between atoms: C_4  and  S_25
    3  A    between atoms: C_5  and  C_23
    4  A    between atoms: C_12  and  C_27
    5  A    between atoms: N_17  and  C_26
    6  A    between atoms: C_18  and  C_27
    7  A    between atoms: S_25  and  C_26
                            x       y       z     vdW  Elec       q    Type
                         _______ _______ _______ _____ _____    ______ ____

>  <TORSDO>
F 7

$$$$
=
 OpenBabel11052410523D

 28 31  0  0  1  0  0  0  0  0999 V2000
  161.2910  206.6130  151.4620 N   0  0  0  0  0  0  0  0  0  0  0  0
  161.2100  203.8460  148.9980 C   0  0  0  0  0  3  0  0  0  0  0  0
  161.2510  206.6750  152.9120 C   0  0  0  0  0  3  0  0  0  0  0  0
  161.3240  207.6930  150.6010 C   0  0  0  0  0  0  0  0  0  0  0  0
  161.2780  205.3870  145.1270 C   0  0  0  0  0  3  0  0  0  0  0  0
  161.1950  204.3390  152.1380 C   0  0  0  0  0  3  0  0  0  0  0  0
  161.2900  206.1540  148.7630 C   0  0  0  0  0  0  0  0  0  0  0  0
  161.2040  203.3890  146.5390 C   0  0  0  0  0  3  0  0  0  0  0  0
  161.2490  205.0500  149.6880 C   0  0  1  0  0  3  0  0  0  0  0  0
  161.3310  207.4700  149.2050 C   0  0  0  0  0  3  0  0  0  0  0  0
  161.2510  205.3280  151.0440 C   0  0  0  0  0  0  0  0  0  0  0  0
  161.2290  204.2230  147.6550 C   0  0  0  0  0  0  0  0  0  0  0  0
  161.2060  205.2180  153.3900 C   0  0  0  0  0  3  0  0  0  0  0  0
  161.2300  203.9840  145.2640 C   0  0  0  0  0  3  0  0  0  0  0  0
  161.3020  206.2160  146.2610 C   0  0  0  0  0  3  0  0  0  0  0  0
  161.2770  205.6020  147.5110 C   0  0  0  0  0  0  0  0  0  0  0  0
  161.9180  210.1650  150.3300 N   0  0  0  0  0  2  0  0  0  0  0  0
  161.3970  209.0840  151.1140 C   0  0  0  0  0  0  0  0  0  0  0  0
  161.0020  209.3310  152.2830 O   0  0  0  0  0  0  0  0  0  0  0  0
  162.2170  210.0760  148.9100 C   0  0  0  0  0  2  0  0  0  0  0  0
  162.6080  211.7270  148.2610 S   0  0  0  0  0  0  0  0  0  0  0  0
  160.9480  211.9470  147.5580 C   0  0  0  0  0  2  0  0  0  0  0  0
  160.8850  213.2510  146.7820 C   0  0  0  0  0  2  0  0  0  0  0  0
  162.2600  213.3290  144.7800 C   0  0  0  0  0  2  0  0  0  0  0  0
  161.0970  212.9970  145.3260 C   0  0  0  0  0  0  0  0  0  0  0  0
  160.0140  212.4460  144.4950 C   0  0  0  0  0  0  0  0  0  0  0  0
  158.8160  212.5280  144.8780 O   0  0  0  0  0  1  0  0  0  0  0  0
  160.3010  211.8290  143.2830 O   0  0  0  0  0  0  0  0  0  0  0  0
  1  3  1  0  0  0  0
  3 13  2  0  0  0  0
  4 18  1  0  0  0  0
  4  1  1  0  0  0  0
  5 14  1  0  0  0  0
  5 15  2  0  0  0  0
  6 13  1  0  0  0  0
  7 10  1  0  0  0  0
  7  9  1  0  0  0  0
  8 12  1  0  0  0  0
  9  2  1  6  0  0  0
  9 11  1  0  0  0  0
 10  4  2  0  0  0  0
 11  1  1  0  0  0  0
 11  6  2  0  0  0  0
 12  2  2  0  0  0  0
 14  8  2  0  0  0  0
 15 16  1  0  0  0  0
 16 12  1  0  0  0  0
 16  7  2  0  0  0  0
 17 18  1  0  0  0  0
 18 19  2  0  0  0  0
 20 17  1  0  0  0  0
 21 20  1  0  0  0  0
 22 21  1  0  0  0  0
 23 22  1  0  0  0  0
 24 25  2  0  0  0  0
 25 23  1  0  0  0  0
 26 27  1  0  0  0  0
 26 25  1  0  0  0  0
 28 26  2  0  0  0  0
M  END
>  <MODEL>
7

>  <REMARK>
 VINA RESULT:      -7.1      3.981      7.045
  Name = 
  7 active torsions:
  status: ('A' for Active; 'I' for Inactive)
    1  A    between atoms: C_4  and  C_18
    2  A    between atoms: C_4  and  S_25
    3  A    between atoms: C_5  and  C_23
    4  A    between atoms: C_12  and  C_27
    5  A    between atoms: N_17  and  C_26
    6  A    between atoms: C_18  and  C_27
    7  A    between atoms: S_25  and  C_26
                            x       y       z     vdW  Elec       q    Type
                         _______ _______ _______ _____ _____    ______ ____

>  <TORSDO>
F 7

$$$$
=
 OpenBabel11052410523D

 28 31  0  0  1  0  0  0  0  0999 V2000
  161.5710  208.9350  151.0870 N   0  0  0  0  0  0  0  0  0  0  0  0
  161.5110  206.1070  148.6930 C   0  0  0  0  0  3  0  0  0  0  0  0
  161.8690  210.3510  150.9690 C   0  0  0  0  0  3  0  0  0  0  0  0
  161.2600  208.2620  152.2530 C   0  0  0  0  0  0  0  0  0  0  0  0
  160.5600  202.5750  150.6880 C   0  0  0  0  0  3  0  0  0  0  0  0
  162.0460  209.2400  148.7800 C   0  0  0  0  0  3  0  0  0  0  0  0
  161.1290  206.2360  150.9780 C   0  0  0  0  0  0  0  0  0  0  0  0
  161.1160  203.6410  148.5560 C   0  0  0  0  0  3  0  0  0  0  0  0
  161.4640  206.9660  149.7830 C   0  0  1  0  0  3  0  0  0  0  0  0
  161.0220  206.8700  152.2100 C   0  0  0  0  0  3  0  0  0  0  0  0
  161.6790  208.3300  149.8830 C   0  0  0  0  0  0  0  0  0  0  0  0
  161.2030  204.8570  149.2310 C   0  0  0  0  0  0  0  0  0  0  0  0
  162.1660  210.5930  149.4830 C   0  0  0  0  0  3  0  0  0  0  0  0
  160.7900  202.4920  149.2990 C   0  0  0  0  0  3  0  0  0  0  0  0
  160.6510  203.8080  151.3560 C   0  0  0  0  0  3  0  0  0  0  0  0
  160.9740  204.9300  150.5970 C   0  0  0  0  0  0  0  0  0  0  0  0
  160.2660  210.1180  153.7030 N   0  0  0  0  0  2  0  0  0  0  0  0
  161.1250  208.9820  153.5440 C   0  0  0  0  0  0  0  0  0  0  0  0
  161.7940  208.5950  154.5380 O   0  0  0  0  0  0  0  0  0  0  0  0
  159.2880  210.5500  152.7180 C   0  0  0  0  0  2  0  0  0  0  0  0
  159.3870  212.3510  152.5050 S   0  0  0  0  0  0  0  0  0  0  0  0
  158.9470  212.6760  154.2360 C   0  0  0  0  0  2  0  0  0  0  0  0
  157.4440  212.5550  154.4170 C   0  0  0  0  0  2  0  0  0  0  0  0
  158.0830  211.5440  156.5320 C   0  0  0  0  0  2  0  0  0  0  0  0
  157.1330  211.7360  155.6260 C   0  0  0  0  0  0  0  0  0  0  0  0
  155.8150  211.1000  155.7820 C   0  0  0  0  0  0  0  0  0  0  0  0
  155.1800  211.2120  156.8650 O   0  0  0  0  0  1  0  0  0  0  0  0
  155.2580  210.3670  154.7390 O   0  0  0  0  0  0  0  0  0  0  0  0
  1  4  1  0  0  0  0
  2 12  2  0  0  0  0
  3  1  1  0  0  0  0
  4 18  1  0  0  0  0
  5 15  2  0  0  0  0
  6 13  1  0  0  0  0
  6 11  2  0  0  0  0
  7 10  1  0  0  0  0
  8 12  1  0  0  0  0
  8 14  2  0  0  0  0
  9  2  1  1  0  0  0
  9 11  1  0  0  0  0
  9  7  1  0  0  0  0
 10  4  2  0  0  0  0
 11  1  1  0  0  0  0
 12 16  1  0  0  0  0
 13  3  2  0  0  0  0
 14  5  1  0  0  0  0
 16  7  2  0  0  0  0
 16 15  1  0  0  0  0
 18 17  1  0  0  0  0
 18 19  2  0  0  0  0
 20 17  1  0  0  0  0
 21 20  1  0  0  0  0
 21 22  1  0  0  0  0
 22 23  1  0  0  0  0
 23 25  1  0  0  0  0
 25 26  1  0  0  0  0
 25 24  2  0  0  0  0
 26 27  1  0  0  0  0
 28 26  2  0  0  0  0
M  END
>  <MODEL>
8

>  <REMARK>
 VINA RESULT:      -6.9      1.955      2.527
  Name = 
  7 active torsions:
  status: ('A' for Active; 'I' for Inactive)
    1  A    between atoms: C_4  and  C_18
    2  A    between atoms: C_4  and  S_25
    3  A    between atoms: C_5  and  C_23
    4  A    between atoms: C_12  and  C_27
    5  A    between atoms: N_17  and  C_26
    6  A    between atoms: C_18  and  C_27
    7  A    between atoms: S_25  and  C_26
                            x       y       z     vdW  Elec       q    Type
                         _______ _______ _______ _____ _____    ______ ____

>  <TORSDO>
F 7

$$$$
=
 OpenBabel11052410523D

 28 31  0  0  1  0  0  0  0  0999 V2000
  160.9620  208.4900  153.7860 N   0  0  0  0  0  0  0  0  0  0  0  0
  161.2090  204.7970  153.6000 C   0  0  0  0  0  3  0  0  0  0  0  0
  160.9850  209.4500  154.8750 C   0  0  0  0  0  3  0  0  0  0  0  0
  160.7760  208.7810  152.4480 C   0  0  0  0  0  0  0  0  0  0  0  0
  160.8320  203.5440  149.6450 C   0  0  0  0  0  3  0  0  0  0  0  0
  161.2710  207.1590  155.7280 C   0  0  0  0  0  3  0  0  0  0  0  0
  160.9010  206.4320  151.9820 C   0  0  0  0  0  0  0  0  0  0  0  0
  161.1550  202.8920  151.9810 C   0  0  0  0  0  3  0  0  0  0  0  0
  161.0860  206.1640  153.3850 C   0  0  1  0  0  3  0  0  0  0  0  0
  160.7490  207.7280  151.5050 C   0  0  0  0  0  3  0  0  0  0  0  0
  161.1100  207.2340  154.2620 C   0  0  0  0  0  0  0  0  0  0  0  0
  161.0990  204.2410  152.3250 C   0  0  0  0  0  0  0  0  0  0  0  0
  161.2010  208.6270  156.1520 C   0  0  0  0  0  3  0  0  0  0  0  0
  161.0190  202.5470  150.6240 C   0  0  0  0  0  3  0  0  0  0  0  0
  160.7780  204.9010  150.0060 C   0  0  0  0  0  3  0  0  0  0  0  0
  160.9150  205.2150  151.3550 C   0  0  0  0  0  0  0  0  0  0  0  0
  161.5650  210.7630  151.0400 N   0  0  0  0  0  2  0  0  0  0  0  0
  160.6480  210.1820  151.9750 C   0  0  0  0  0  0  0  0  0  0  0  0
  159.7100  210.8970  152.4150 O   0  0  0  0  0  0  0  0  0  0  0  0
  162.5630  210.0110  150.2960 C   0  0  0  0  0  2  0  0  0  0  0  0
  162.0260  209.8200  148.5710 S   0  0  0  0  0  0  0  0  0  0  0  0
  161.6900  208.0470  148.7730 C   0  0  0  0  0  2  0  0  0  0  0  0
  162.5770  207.2450  147.8370 C   0  0  0  0  0  2  0  0  0  0  0  0
  160.4650  206.5910  146.8280 C   0  0  0  0  0  2  0  0  0  0  0  0
  161.7500  206.3150  147.0120 C   0  0  0  0  0  0  0  0  0  0  0  0
  162.3330  205.0800  146.4620 C   0  0  0  0  0  0  0  0  0  0  0  0
  163.5110  205.0780  146.0160 O   0  0  0  0  0  0  0  0  0  0  0  0
  161.5900  203.9050  146.4280 O   0  0  0  0  0  1  0  0  0  0  0  0
  1 11  1  0  0  0  0
  1  3  1  0  0  0  0
  3 13  2  0  0  0  0
  4  1  1  0  0  0  0
  5 15  2  0  0  0  0
  5 14  1  0  0  0  0
  6 13  1  0  0  0  0
  7  9  1  0  0  0  0
  8 12  1  0  0  0  0
  9  2  1  1  0  0  0
  9 11  1  0  0  0  0
 10  7  1  0  0  0  0
 10  4  2  0  0  0  0
 11  6  2  0  0  0  0
 12  2  2  0  0  0  0
 14  8  2  0  0  0  0
 15 16  1  0  0  0  0
 16  7  2  0  0  0  0
 16 12  1  0  0  0  0
 17 18  1  0  0  0  0
 18 19  2  0  0  0  0
 18  4  1  0  0  0  0
 20 17  1  0  0  0  0
 21 22  1  0  0  0  0
 21 20  1  0  0  0  0
 23 22  1  0  0  0  0
 24 25  2  0  0  0  0
 25 23  1  0  0  0  0
 26 25  1  0  0  0  0
 27 26  2  0  0  0  0
 28 26  1  0  0  0  0
M  END
>  <MODEL>
9

>  <REMARK>
 VINA RESULT:      -6.9      3.299      6.085
  Name = 
  7 active torsions:
  status: ('A' for Active; 'I' for Inactive)
    1  A    between atoms: C_4  and  C_18
    2  A    between atoms: C_4  and  S_25
    3  A    between atoms: C_5  and  C_23
    4  A    between atoms: C_12  and  C_27
    5  A    between atoms: N_17  and  C_26
    6  A    between atoms: C_18  and  C_27
    7  A    between atoms: S_25  and  C_26
                            x       y       z     vdW  Elec       q    Type
                         _______ _______ _______ _____ _____    ______ ____

>  <TORSDO>
F 7

$$$$
