=
 OpenBabel11052409273D

 35 39  0  0  1  0  0  0  0  0999 V2000
  161.9260  206.3140  151.3430 C   0  0  0  0  0  0  0  0  0  0  0  0
  161.0690  205.3740  153.4160 C   0  0  0  0  0  3  0  0  0  0  0  0
  160.9560  204.0810  151.3670 C   0  0  0  0  0  0  0  0  0  0  0  0
  161.5610  205.1370  150.6800 C   0  0  0  0  0  3  0  0  0  0  0  0
  160.7100  204.2070  152.7410 C   0  0  0  0  0  3  0  0  0  0  0  0
  161.6770  206.4360  152.7300 C   0  0  0  0  0  0  0  0  0  0  0  0
  160.7820  204.9960  144.8690 C   0  0  0  0  0  2  0  0  0  0  0  0
  161.4180  203.9520  145.7450 C   0  0  0  0  0  0  0  0  0  0  0  0
  161.1700  209.0170  149.2920 N   0  0  0  0  0  2  0  0  0  0  0  0
  161.9260  208.2480  148.3100 C   0  0  1  0  0  3  0  0  0  0  0  0
  162.8240  205.9560  148.4830 C   0  0  0  0  0  3  0  0  0  0  0  0
  162.5490  207.4100  150.5150 C   0  0  1  0  0  3  0  0  0  0  0  0
  160.4590  206.1640  145.6240 O   0  0  0  0  0  0  0  0  0  0  0  0
  162.5530  207.1360  149.0620 C   0  0  0  0  0  0  0  0  0  0  0  0
  161.3100  206.6210  146.6330 C   0  0  0  0  0  0  0  0  0  0  0  0
  162.5160  205.7820  147.0190 C   0  0  2  0  0  3  0  0  0  0  0  0
  162.2300  204.3340  146.7420 C   0  0  0  0  0  3  0  0  0  0  0  0
  161.7450  208.7050  150.6090 C   0  0  0  0  0  2  0  0  0  0  0  0
  161.0430  207.7320  147.2600 N   0  0  0  0  0  0  0  0  0  0  0  0
  159.9920  202.0240  144.8350 C   0  0  0  0  0  0  0  0  0  0  0  0
  161.1580  202.5690  145.4670 N   0  0  0  0  0  2  0  0  0  0  0  0
  159.0650  202.7690  144.4200 O   0  0  0  0  0  0  0  0  0  0  0  0
  159.8880  200.6500  144.6690 O   0  0  0  0  0  1  0  0  0  0  0  0
  162.0610  207.5980  153.4130 O   0  0  0  0  0  0  0  0  0  0  0  0
  161.1720  207.9100  155.5600 C   0  0  0  0  0  3  0  0  0  0  0  0
  161.2390  208.3200  154.2880 C   0  0  0  0  0  0  0  0  0  0  0  0
  159.7430  210.2660  154.9040 C   0  0  0  0  0  0  0  0  0  0  0  0
  160.5000  209.5560  153.8160 C   0  0  0  0  0  2  0  0  0  0  0  0
  160.3820  208.6250  156.5750 C   0  0  0  0  0  3  0  0  0  0  0  0
  159.7130  209.7340  156.2710 C   0  0  0  0  0  3  0  0  0  0  0  0
  159.1200  211.3260  154.6360 O   0  0  0  0  0  0  0  0  0  0  0  0
  160.6080  202.9250  150.6600 O   0  0  0  0  0  0  0  0  0  0  0  0
  160.7190  202.8100  149.2450 C   0  0  0  0  0  2  0  0  0  0  0  0
  161.3950  200.6190  148.2750 C   0  0  0  0  0  1  0  0  0  0  0  0
  160.2300  201.4490  148.7750 C   0  0  0  0  0  2  0  0  0  0  0  0
  1  6  1  0  0  0  0
  3  5  2  0  0  0  0
  4  1  2  0  0  0  0
  4  3  1  0  0  0  0
  5  2  1  0  0  0  0
  6 24  1  0  0  0  0
  6  2  2  0  0  0  0
  7 13  1  0  0  0  0
  7  8  1  0  0  0  0
  8 17  2  0  0  0  0
  9 18  1  0  0  0  0
 10 19  1  6  0  0  0
 10 14  1  0  0  0  0
 10  9  1  0  0  0  0
 11 14  2  0  0  0  0
 12 18  1  0  0  0  0
 12  1  1  1  0  0  0
 13 15  1  0  0  0  0
 14 12  1  0  0  0  0
 15 16  1  0  0  0  0
 15 19  2  0  0  0  0
 16 17  1  1  0  0  0
 16 11  1  0  0  0  0
 20 21  1  0  0  0  0
 21  8  1  0  0  0  0
 22 20  2  0  0  0  0
 23 20  1  0  0  0  0
 24 26  1  0  0  0  0
 25 29  1  0  0  0  0
 26 25  2  0  0  0  0
 27 30  1  0  0  0  0
 28 26  1  0  0  0  0
 28 27  1  0  0  0  0
 30 29  2  0  0  0  0
 31 27  2  0  0  0  0
 32  3  1  0  0  0  0
 33 32  1  0  0  0  0
 34 35  1  0  0  0  0
 35 33  1  0  0  0  0
M  END
>  <MODEL>
1

>  <REMARK>
 VINA RESULT:      -7.9      0.000      0.000
  Name = 
  7 active torsions:
  status: ('A' for Active; 'I' for Inactive)
    1  A    between atoms: C_2  and  C_14
    2  A    between atoms: C_5  and  C_23
    3  A    between atoms: O_6  and  C_7
    4  A    between atoms: O_6  and  C_29
    5  A    between atoms: C_8  and  N_17
    6  A    between atoms: C_14  and  O_31
    7  A    between atoms: C_15  and  O_31
                            x       y       z     vdW  Elec       q    Type
                         _______ _______ _______ _____ _____    ______ ____

>  <TORSDO>
F 7

$$$$
=
 OpenBabel11052409273D

 35 39  0  0  1  0  0  0  0  0999 V2000
  161.9120  206.9040  150.8200 C   0  0  0  0  0  0  0  0  0  0  0  0
  160.7130  206.4370  148.7560 C   0  0  0  0  0  3  0  0  0  0  0  0
  161.9020  208.5350  149.0130 C   0  0  0  0  0  0  0  0  0  0  0  0
  162.2970  208.1410  150.2940 C   0  0  0  0  0  3  0  0  0  0  0  0
  161.1040  207.6750  148.2460 C   0  0  0  0  0  3  0  0  0  0  0  0
  161.1080  206.0380  150.0410 C   0  0  0  0  0  0  0  0  0  0  0  0
  159.1060  211.2950  155.0380 C   0  0  0  0  0  2  0  0  0  0  0  0
  159.8850  211.7900  153.8510 C   0  0  0  0  0  0  0  0  0  0  0  0
  160.8090  205.6710  153.8770 N   0  0  0  0  0  2  0  0  0  0  0  0
  161.2510  206.9760  154.3550 C   0  0  1  0  0  3  0  0  0  0  0  0
  162.0400  208.9230  153.0610 C   0  0  0  0  0  3  0  0  0  0  0  0
  162.3630  206.5760  152.2210 C   0  0  1  0  0  3  0  0  0  0  0  0
  159.0460  209.8690  155.0480 O   0  0  0  0  0  0  0  0  0  0  0  0
  161.9870  207.5930  153.2260 C   0  0  0  0  0  0  0  0  0  0  0  0
  160.1470  209.1050  154.6530 C   0  0  0  0  0  0  0  0  0  0  0  0
  161.3640  209.8060  154.0760 C   0  0  2  0  0  3  0  0  0  0  0  0
  160.9420  211.0870  153.4160 C   0  0  0  0  0  3  0  0  0  0  0  0
  161.6790  205.3160  152.7470 C   0  0  0  0  0  2  0  0  0  0  0  0
  160.1060  207.8050  154.7420 N   0  0  0  0  0  0  0  0  0  0  0  0
  158.6720  213.1770  152.0660 C   0  0  0  0  0  0  0  0  0  0  0  0
  159.4900  213.0230  153.2340 N   0  0  0  0  0  2  0  0  0  0  0  0
  158.1790  212.1790  151.4770 O   0  0  0  0  0  0  0  0  0  0  0  0
  158.4110  214.4510  151.5810 O   0  0  0  0  0  1  0  0  0  0  0  0
  160.7360  204.7830  150.5440 O   0  0  0  0  0  0  0  0  0  0  0  0
  160.8350  202.4410  150.5710 C   0  0  0  0  0  3  0  0  0  0  0  0
  160.8830  203.5720  149.8570 C   0  0  0  0  0  0  0  0  0  0  0  0
  161.0810  202.1640  147.7620 C   0  0  0  0  0  0  0  0  0  0  0  0
  161.0340  203.5480  148.3480 C   0  0  0  0  0  2  0  0  0  0  0  0
  160.9240  201.1120  149.9450 C   0  0  0  0  0  3  0  0  0  0  0  0
  161.0360  200.9790  148.6250 C   0  0  0  0  0  3  0  0  0  0  0  0
  161.1670  202.0210  146.5160 O   0  0  0  0  0  0  0  0  0  0  0  0
  162.3110  209.7830  148.5320 O   0  0  0  0  0  0  0  0  0  0  0  0
  161.9550  211.0150  149.1520 C   0  0  0  0  0  2  0  0  0  0  0  0
  162.7240  213.0210  147.8930 C   0  0  0  0  0  1  0  0  0  0  0  0
  161.5770  212.0540  148.1070 C   0  0  0  0  0  2  0  0  0  0  0  0
  2  6  1  0  0  0  0
  3  4  2  0  0  0  0
  4  1  1  0  0  0  0
  5  2  2  0  0  0  0
  5  3  1  0  0  0  0
  6 24  1  0  0  0  0
  6  1  2  0  0  0  0
  7 13  1  0  0  0  0
  8  7  1  0  0  0  0
  9 10  1  0  0  0  0
 10 14  1  6  0  0  0
 10 19  1  0  0  0  0
 11 14  2  0  0  0  0
 12  1  1  6  0  0  0
 12 18  1  0  0  0  0
 12 14  1  0  0  0  0
 15 19  2  0  0  0  0
 15 13  1  0  0  0  0
 16 11  1  6  0  0  0
 16 15  1  0  0  0  0
 17  8  2  0  0  0  0
 17 16  1  0  0  0  0
 18  9  1  0  0  0  0
 20 21  1  0  0  0  0
 21  8  1  0  0  0  0
 22 20  2  0  0  0  0
 23 20  1  0  0  0  0
 26 24  1  0  0  0  0
 26 25  2  0  0  0  0
 27 28  1  0  0  0  0
 27 30  1  0  0  0  0
 28 26  1  0  0  0  0
 29 25  1  0  0  0  0
 30 29  2  0  0  0  0
 31 27  2  0  0  0  0
 32  3  1  0  0  0  0
 32 33  1  0  0  0  0
 34 35  1  0  0  0  0
 35 33  1  0  0  0  0
M  END
>  <MODEL>
2

>  <REMARK>
 VINA RESULT:      -7.9      2.917      8.823
  Name = 
  7 active torsions:
  status: ('A' for Active; 'I' for Inactive)
    1  A    between atoms: C_2  and  C_14
    2  A    between atoms: C_5  and  C_23
    3  A    between atoms: O_6  and  C_7
    4  A    between atoms: O_6  and  C_29
    5  A    between atoms: C_8  and  N_17
    6  A    between atoms: C_14  and  O_31
    7  A    between atoms: C_15  and  O_31
                            x       y       z     vdW  Elec       q    Type
                         _______ _______ _______ _____ _____    ______ ____

>  <TORSDO>
F 7

$$$$
=
 OpenBabel11052409273D

 35 39  0  0  1  0  0  0  0  0999 V2000
  161.6210  209.1620  150.9850 C   0  0  0  0  0  0  0  0  0  0  0  0
  161.7880  208.8570  148.5780 C   0  0  0  0  0  3  0  0  0  0  0  0
  160.9170  207.0670  149.9630 C   0  0  0  0  0  0  0  0  0  0  0  0
  161.0990  207.8680  151.0940 C   0  0  0  0  0  3  0  0  0  0  0  0
  161.2670  207.5690  148.7020 C   0  0  0  0  0  3  0  0  0  0  0  0
  161.9710  209.6640  149.7110 C   0  0  0  0  0  0  0  0  0  0  0  0
  157.0380  214.0520  151.1700 C   0  0  0  0  0  2  0  0  0  0  0  0
  157.9350  213.9110  149.9710 C   0  0  0  0  0  0  0  0  0  0  0  0
  160.1590  209.8390  154.0660 N   0  0  0  0  0  2  0  0  0  0  0  0
  160.1820  211.2100  153.5690 C   0  0  1  0  0  3  0  0  0  0  0  0
  160.7920  212.0440  151.3290 C   0  0  0  0  0  3  0  0  0  0  0  0
  161.8070  209.9420  152.2620 C   0  0  1  0  0  3  0  0  0  0  0  0
  157.2940  213.0190  152.1210 O   0  0  0  0  0  0  0  0  0  0  0  0
  160.9990  211.1790  152.3320 C   0  0  0  0  0  0  0  0  0  0  0  0
  158.5970  212.5720  152.3570 C   0  0  0  0  0  0  0  0  0  0  0  0
  159.7270  213.0970  151.4890 C   0  0  2  0  0  3  0  0  0  0  0  0
  159.1910  213.4700  150.1360 C   0  0  0  0  0  3  0  0  0  0  0  0
  161.3180  209.1540  153.4750 C   0  0  0  0  0  2  0  0  0  0  0  0
  158.8260  211.6840  153.2840 N   0  0  0  0  0  0  0  0  0  0  0  0
  157.1010  213.4050  147.5990 C   0  0  0  0  0  0  0  0  0  0  0  0
  157.4270  214.2850  148.6830 N   0  0  0  0  0  2  0  0  0  0  0  0
  157.2110  212.1560  147.7160 O   0  0  0  0  0  1  0  0  0  0  0  0
  156.6460  213.9400  146.4020 O   0  0  0  0  0  0  0  0  0  0  0  0
  162.4710  210.9680  149.5830 O   0  0  0  0  0  0  0  0  0  0  0  0
  163.2020  212.6710  148.1480 C   0  0  0  0  0  3  0  0  0  0  0  0
  162.2360  211.8110  148.4890 C   0  0  0  0  0  0  0  0  0  0  0  0
  160.9040  212.6120  146.4920 C   0  0  0  0  0  0  0  0  0  0  0  0
  160.9530  211.7050  147.6890 C   0  0  0  0  0  2  0  0  0  0  0  0
  163.0820  213.5640  146.9840 C   0  0  0  0  0  3  0  0  0  0  0  0
  162.0050  213.5370  146.2020 C   0  0  0  0  0  3  0  0  0  0  0  0
  159.9020  212.5840  145.7320 O   0  0  0  0  0  0  0  0  0  0  0  0
  160.3930  205.7800  150.1230 O   0  0  0  0  0  0  0  0  0  0  0  0
  161.2020  204.6250  150.3210 C   0  0  0  0  0  2  0  0  0  0  0  0
  161.5390  203.9090  147.9600 C   0  0  0  0  0  1  0  0  0  0  0  0
  160.8850  203.5600  149.2820 C   0  0  0  0  0  2  0  0  0  0  0  0
  1  4  1  0  0  0  0
  2  5  2  0  0  0  0
  2  6  1  0  0  0  0
  3 32  1  0  0  0  0
  3  4  2  0  0  0  0
  5  3  1  0  0  0  0
  6  1  2  0  0  0  0
  7 13  1  0  0  0  0
  8 17  2  0  0  0  0
  8  7  1  0  0  0  0
 10 14  1  6  0  0  0
 10  9  1  0  0  0  0
 11 16  1  0  0  0  0
 11 14  2  0  0  0  0
 12  1  1  6  0  0  0
 12 14  1  0  0  0  0
 12 18  1  0  0  0  0
 13 15  1  0  0  0  0
 15 19  2  0  0  0  0
 16 17  1  6  0  0  0
 16 15  1  0  0  0  0
 18  9  1  0  0  0  0
 19 10  1  0  0  0  0
 20 22  1  0  0  0  0
 20 21  1  0  0  0  0
 21  8  1  0  0  0  0
 23 20  2  0  0  0  0
 24  6  1  0  0  0  0
 25 26  2  0  0  0  0
 26 24  1  0  0  0  0
 27 28  1  0  0  0  0
 28 26  1  0  0  0  0
 29 25  1  0  0  0  0
 30 27  1  0  0  0  0
 30 29  2  0  0  0  0
 31 27  2  0  0  0  0
 32 33  1  0  0  0  0
 34 35  1  0  0  0  0
 35 33  1  0  0  0  0
M  END
>  <MODEL>
3

>  <REMARK>
 VINA RESULT:      -7.1      4.373      7.899
  Name = 
  7 active torsions:
  status: ('A' for Active; 'I' for Inactive)
    1  A    between atoms: C_2  and  C_14
    2  A    between atoms: C_5  and  C_23
    3  A    between atoms: O_6  and  C_7
    4  A    between atoms: O_6  and  C_29
    5  A    between atoms: C_8  and  N_17
    6  A    between atoms: C_14  and  O_31
    7  A    between atoms: C_15  and  O_31
                            x       y       z     vdW  Elec       q    Type
                         _______ _______ _______ _____ _____    ______ ____

>  <TORSDO>
F 7

$$$$
=
 OpenBabel11052409273D

 35 39  0  0  1  0  0  0  0  0999 V2000
  160.4210  212.1340  151.4900 C   0  0  0  0  0  0  0  0  0  0  0  0
  159.2490  211.5590  153.5420 C   0  0  0  0  0  3  0  0  0  0  0  0
  158.1320  212.8820  151.8440 C   0  0  0  0  0  0  0  0  0  0  0  0
  159.2820  212.8200  151.0540 C   0  0  0  0  0  3  0  0  0  0  0  0
  158.1220  212.2480  153.0950 C   0  0  0  0  0  3  0  0  0  0  0  0
  160.4050  211.4940  152.7510 C   0  0  0  0  0  0  0  0  0  0  0  0
  161.1810  205.9920  148.9090 C   0  0  0  0  0  2  0  0  0  0  0  0
  161.0790  206.1710  150.3980 C   0  0  0  0  0  0  0  0  0  0  0  0
  161.3880  211.9310  148.1570 N   0  0  0  0  0  2  0  0  0  0  0  0
  162.1220  210.7630  148.6320 C   0  0  1  0  0  3  0  0  0  0  0  0
  162.0610  209.6810  150.8490 C   0  0  0  0  0  3  0  0  0  0  0  0
  161.6250  212.1430  150.5820 C   0  0  1  0  0  3  0  0  0  0  0  0
  161.0410  207.2440  148.2360 O   0  0  0  0  0  0  0  0  0  0  0  0
  162.0310  210.8010  150.1110 C   0  0  0  0  0  0  0  0  0  0  0  0
  161.5980  208.4080  148.7710 C   0  0  0  0  0  0  0  0  0  0  0  0
  162.2320  208.3580  150.1500 C   0  0  2  0  0  3  0  0  0  0  0  0
  161.5800  207.2790  150.9650 C   0  0  0  0  0  3  0  0  0  0  0  0
  161.3340  212.8820  149.2780 C   0  0  0  0  0  2  0  0  0  0  0  0
  161.5310  209.5290  148.1070 N   0  0  0  0  0  0  0  0  0  0  0  0
  161.1290  203.9940  151.7530 C   0  0  0  0  0  0  0  0  0  0  0  0
  160.4720  205.1310  151.1770 N   0  0  0  0  0  2  0  0  0  0  0  0
  162.3730  203.8320  151.6410 O   0  0  0  0  0  0  0  0  0  0  0  0
  160.3810  203.0590  152.4550 O   0  0  0  0  0  1  0  0  0  0  0  0
  161.5290  210.7800  153.1900 O   0  0  0  0  0  0  0  0  0  0  0  0
  162.2390  210.5590  155.4140 C   0  0  0  0  0  3  0  0  0  0  0  0
  161.5880  210.0290  154.3720 C   0  0  0  0  0  0  0  0  0  0  0  0
  160.9680  208.0630  155.8400 C   0  0  0  0  0  0  0  0  0  0  0  0
  160.8870  208.6890  154.4760 C   0  0  0  0  0  2  0  0  0  0  0  0
  162.3160  209.8810  156.7180 C   0  0  0  0  0  3  0  0  0  0  0  0
  161.7170  208.7100  156.9220 C   0  0  0  0  0  3  0  0  0  0  0  0
  160.3910  206.9660  156.0540 O   0  0  0  0  0  0  0  0  0  0  0  0
  157.0190  213.5820  151.3660 O   0  0  0  0  0  0  0  0  0  0  0  0
  157.0350  214.3530  150.1680 C   0  0  0  0  0  2  0  0  0  0  0  0
  157.3350  213.3410  147.9130 C   0  0  0  0  0  1  0  0  0  0  0  0
  156.3510  213.6030  149.0360 C   0  0  0  0  0  2  0  0  0  0  0  0
  1  6  1  0  0  0  0
  3  5  2  0  0  0  0
  4  1  2  0  0  0  0
  4  3  1  0  0  0  0
  5  2  1  0  0  0  0
  6 24  1  0  0  0  0
  6  2  2  0  0  0  0
  7  8  1  0  0  0  0
  8 17  2  0  0  0  0
  8 21  1  0  0  0  0
  9 10  1  0  0  0  0
  9 18  1  0  0  0  0
 10 19  1  6  0  0  0
 10 14  1  0  0  0  0
 12  1  1  1  0  0  0
 13 15  1  0  0  0  0
 13  7  1  0  0  0  0
 14 12  1  0  0  0  0
 14 11  2  0  0  0  0
 15 16  1  0  0  0  0
 16 11  1  1  0  0  0
 16 17  1  0  0  0  0
 18 12  1  0  0  0  0
 19 15  2  0  0  0  0
 20 23  1  0  0  0  0
 21 20  1  0  0  0  0
 22 20  2  0  0  0  0
 24 26  1  0  0  0  0
 25 29  1  0  0  0  0
 26 28  1  0  0  0  0
 26 25  2  0  0  0  0
 27 31  2  0  0  0  0
 27 30  1  0  0  0  0
 28 27  1  0  0  0  0
 29 30  2  0  0  0  0
 32  3  1  0  0  0  0
 33 32  1  0  0  0  0
 34 35  1  0  0  0  0
 35 33  1  0  0  0  0
M  END
>  <MODEL>
4

>  <REMARK>
 VINA RESULT:      -6.4      3.252      6.395
  Name = 
  7 active torsions:
  status: ('A' for Active; 'I' for Inactive)
    1  A    between atoms: C_2  and  C_14
    2  A    between atoms: C_5  and  C_23
    3  A    between atoms: O_6  and  C_7
    4  A    between atoms: O_6  and  C_29
    5  A    between atoms: C_8  and  N_17
    6  A    between atoms: C_14  and  O_31
    7  A    between atoms: C_15  and  O_31
                            x       y       z     vdW  Elec       q    Type
                         _______ _______ _______ _____ _____    ______ ____

>  <TORSDO>
F 7

$$$$
=
 OpenBabel11052409273D

 35 39  0  0  1  0  0  0  0  0999 V2000
  161.3070  207.5820  150.4930 C   0  0  0  0  0  0  0  0  0  0  0  0
  162.1960  209.3500  149.0790 C   0  0  0  0  0  3  0  0  0  0  0  0
  161.6210  207.2020  148.1090 C   0  0  0  0  0  0  0  0  0  0  0  0
  161.2250  206.7510  149.3710 C   0  0  0  0  0  3  0  0  0  0  0  0
  162.1100  208.5090  147.9690 C   0  0  0  0  0  3  0  0  0  0  0  0
  161.7990  208.9000  150.3470 C   0  0  0  0  0  0  0  0  0  0  0  0
  161.2400  200.8990  149.9520 C   0  0  0  0  0  2  0  0  0  0  0  0
  160.4780  201.7380  148.9640 C   0  0  0  0  0  0  0  0  0  0  0  0
  162.4560  205.7660  153.2250 N   0  0  0  0  0  2  0  0  0  0  0  0
  161.4100  204.8360  152.8150 C   0  0  1  0  0  3  0  0  0  0  0  0
  159.9890  204.8830  150.7980 C   0  0  0  0  0  3  0  0  0  0  0  0
  160.8830  207.0000  151.8180 C   0  0  1  0  0  3  0  0  0  0  0  0
  161.9440  201.7230  150.8820 O   0  0  0  0  0  0  0  0  0  0  0  0
  160.6230  205.5450  151.7780 C   0  0  0  0  0  0  0  0  0  0  0  0
  161.3730  202.9030  151.3650 C   0  0  0  0  0  0  0  0  0  0  0  0
  160.0530  203.3780  150.7830 C   0  0  2  0  0  3  0  0  0  0  0  0
  159.9230  202.8910  149.3680 C   0  0  0  0  0  3  0  0  0  0  0  0
  161.9940  207.1130  152.8590 C   0  0  0  0  0  2  0  0  0  0  0  0
  161.9910  203.6040  152.2740 N   0  0  0  0  0  0  0  0  0  0  0  0
  160.8030  201.9090  146.4260 C   0  0  0  0  0  0  0  0  0  0  0  0
  160.3400  201.2620  147.6190 N   0  0  0  0  0  2  0  0  0  0  0  0
  161.4370  202.9960  146.4760 O   0  0  0  0  0  1  0  0  0  0  0  0
  160.5570  201.3200  145.1930 O   0  0  0  0  0  0  0  0  0  0  0  0
  161.8620  209.7530  151.4570 O   0  0  0  0  0  0  0  0  0  0  0  0
  160.0400  210.3290  152.8160 C   0  0  0  0  0  3  0  0  0  0  0  0
  160.8650  210.6690  151.8200 C   0  0  0  0  0  0  0  0  0  0  0  0
  159.7070  212.9170  151.7140 C   0  0  0  0  0  0  0  0  0  0  0  0
  160.7670  212.0200  151.1390 C   0  0  0  0  0  2  0  0  0  0  0  0
  158.9930  211.2360  153.3130 C   0  0  0  0  0  3  0  0  0  0  0  0
  158.8360  212.4540  152.7990 C   0  0  0  0  0  3  0  0  0  0  0  0
  159.5590  214.0770  151.2520 O   0  0  0  0  0  0  0  0  0  0  0  0
  161.5230  206.3340  147.0170 O   0  0  0  0  0  0  0  0  0  0  0  0
  160.3710  206.2540  146.1830 C   0  0  0  0  0  2  0  0  0  0  0  0
  162.2370  205.5400  144.6960 C   0  0  0  0  0  1  0  0  0  0  0  0
  160.7610  205.8810  144.7610 C   0  0  0  0  0  2  0  0  0  0  0  0
  2  6  2  0  0  0  0
  3  4  1  0  0  0  0
  4  1  2  0  0  0  0
  5  3  2  0  0  0  0
  5  2  1  0  0  0  0
  6  1  1  0  0  0  0
  6 24  1  0  0  0  0
  7 13  1  0  0  0  0
  8 17  2  0  0  0  0
  8  7  1  0  0  0  0
 10 14  1  6  0  0  0
 10  9  1  0  0  0  0
 11 14  2  0  0  0  0
 12  1  1  6  0  0  0
 12 18  1  0  0  0  0
 13 15  1  0  0  0  0
 14 12  1  0  0  0  0
 15 19  2  0  0  0  0
 16 17  1  6  0  0  0
 16 11  1  0  0  0  0
 16 15  1  0  0  0  0
 18  9  1  0  0  0  0
 19 10  1  0  0  0  0
 20 22  1  0  0  0  0
 20 21  1  0  0  0  0
 21  8  1  0  0  0  0
 23 20  2  0  0  0  0
 24 26  1  0  0  0  0
 25 29  1  0  0  0  0
 26 25  2  0  0  0  0
 27 30  1  0  0  0  0
 28 27  1  0  0  0  0
 28 26  1  0  0  0  0
 30 29  2  0  0  0  0
 31 27  2  0  0  0  0
 32  3  1  0  0  0  0
 33 32  1  0  0  0  0
 34 35  1  0  0  0  0
 35 33  1  0  0  0  0
M  END
>  <MODEL>
5

>  <REMARK>
 VINA RESULT:      -6.4      2.395      4.516
  Name = 
  7 active torsions:
  status: ('A' for Active; 'I' for Inactive)
    1  A    between atoms: C_2  and  C_14
    2  A    between atoms: C_5  and  C_23
    3  A    between atoms: O_6  and  C_7
    4  A    between atoms: O_6  and  C_29
    5  A    between atoms: C_8  and  N_17
    6  A    between atoms: C_14  and  O_31
    7  A    between atoms: C_15  and  O_31
                            x       y       z     vdW  Elec       q    Type
                         _______ _______ _______ _____ _____    ______ ____

>  <TORSDO>
F 7

$$$$
=
 OpenBabel11052409273D

 35 39  0  0  1  0  0  0  0  0999 V2000
  161.8460  208.1830  152.3050 C   0  0  0  0  0  0  0  0  0  0  0  0
  160.5540  207.8930  154.3450 C   0  0  0  0  0  3  0  0  0  0  0  0
  161.1680  205.9570  153.0200 C   0  0  0  0  0  0  0  0  0  0  0  0
  161.8170  206.7980  152.1120 C   0  0  0  0  0  3  0  0  0  0  0  0
  160.5330  206.5130  154.1390 C   0  0  0  0  0  3  0  0  0  0  0  0
  161.2060  208.7400  153.4370 C   0  0  0  0  0  0  0  0  0  0  0  0
  160.9510  205.2730  146.3310 C   0  0  0  0  0  2  0  0  0  0  0  0
  161.5050  204.4740  147.4780 C   0  0  0  0  0  0  0  0  0  0  0  0
  161.2880  210.2850  149.5940 N   0  0  0  0  0  2  0  0  0  0  0  0
  162.0590  209.2710  148.8830 C   0  0  1  0  0  3  0  0  0  0  0  0
  162.8600  207.0790  149.6840 C   0  0  0  0  0  3  0  0  0  0  0  0
  162.5470  209.0130  151.2600 C   0  0  1  0  0  3  0  0  0  0  0  0
  160.6380  206.6040  146.7440 O   0  0  0  0  0  0  0  0  0  0  0  0
  162.6080  208.3740  149.9280 C   0  0  0  0  0  0  0  0  0  0  0  0
  161.4590  207.2830  147.6470 C   0  0  0  0  0  0  0  0  0  0  0  0
  162.6130  206.5410  148.2990 C   0  0  2  0  0  3  0  0  0  0  0  0
  162.2850  205.0780  148.3860 C   0  0  0  0  0  3  0  0  0  0  0  0
  161.7900  210.3080  150.9750 C   0  0  0  0  0  2  0  0  0  0  0  0
  161.2060  208.5250  147.9540 N   0  0  0  0  0  0  0  0  0  0  0  0
  160.9150  202.2000  146.4490 C   0  0  0  0  0  0  0  0  0  0  0  0
  161.2060  203.0730  147.5490 N   0  0  0  0  0  2  0  0  0  0  0  0
  160.9350  202.6160  145.2610 O   0  0  0  0  0  0  0  0  0  0  0  0
  160.6140  200.8680  146.6990 O   0  0  0  0  0  1  0  0  0  0  0  0
  161.2480  210.1230  153.6580 O   0  0  0  0  0  0  0  0  0  0  0  0
  160.2690  211.1100  155.5460 C   0  0  0  0  0  3  0  0  0  0  0  0
  160.2140  210.8740  154.2300 C   0  0  0  0  0  0  0  0  0  0  0  0
  158.1290  212.3050  154.1270 C   0  0  0  0  0  0  0  0  0  0  0  0
  159.1020  211.4450  153.3710 C   0  0  0  0  0  2  0  0  0  0  0  0
  159.2640  211.9310  156.2400 C   0  0  0  0  0  3  0  0  0  0  0  0
  158.2590  212.4970  155.5750 C   0  0  0  0  0  3  0  0  0  0  0  0
  157.1840  212.8620  153.5100 O   0  0  0  0  0  0  0  0  0  0  0  0
  161.1650  204.5780  152.7830 O   0  0  0  0  0  0  0  0  0  0  0  0
  161.3680  204.0050  151.4950 C   0  0  0  0  0  2  0  0  0  0  0  0
  160.8290  201.7820  150.5100 C   0  0  0  0  0  1  0  0  0  0  0  0
  161.5920  202.5050  151.6020 C   0  0  0  0  0  2  0  0  0  0  0  0
  1  6  1  0  0  0  0
  3  5  2  0  0  0  0
  4  1  2  0  0  0  0
  4  3  1  0  0  0  0
  5  2  1  0  0  0  0
  6 24  1  0  0  0  0
  6  2  2  0  0  0  0
  7 13  1  0  0  0  0
  7  8  1  0  0  0  0
  8 21  1  0  0  0  0
  8 17  2  0  0  0  0
  9 18  1  0  0  0  0
 10 19  1  6  0  0  0
 10  9  1  0  0  0  0
 10 14  1  0  0  0  0
 11 14  2  0  0  0  0
 12  1  1  1  0  0  0
 13 15  1  0  0  0  0
 14 12  1  0  0  0  0
 15 19  2  0  0  0  0
 15 16  1  0  0  0  0
 16 17  1  1  0  0  0
 16 11  1  0  0  0  0
 18 12  1  0  0  0  0
 20 23  1  0  0  0  0
 20 21  1  0  0  0  0
 22 20  2  0  0  0  0
 24 26  1  0  0  0  0
 25 29  1  0  0  0  0
 26 25  2  0  0  0  0
 27 30  1  0  0  0  0
 28 27  1  0  0  0  0
 28 26  1  0  0  0  0
 30 29  2  0  0  0  0
 31 27  2  0  0  0  0
 32  3  1  0  0  0  0
 33 35  1  0  0  0  0
 33 32  1  0  0  0  0
 34 35  1  0  0  0  0
M  END
>  <MODEL>
6

>  <REMARK>
 VINA RESULT:      -5.9      1.659      2.288
  Name = 
  7 active torsions:
  status: ('A' for Active; 'I' for Inactive)
    1  A    between atoms: C_2  and  C_14
    2  A    between atoms: C_5  and  C_23
    3  A    between atoms: O_6  and  C_7
    4  A    between atoms: O_6  and  C_29
    5  A    between atoms: C_8  and  N_17
    6  A    between atoms: C_14  and  O_31
    7  A    between atoms: C_15  and  O_31
                            x       y       z     vdW  Elec       q    Type
                         _______ _______ _______ _____ _____    ______ ____

>  <TORSDO>
F 7

$$$$
=
 OpenBabel11052409273D

 35 39  0  0  1  0  0  0  0  0999 V2000
  161.0480  207.5050  152.3350 C   0  0  0  0  0  0  0  0  0  0  0  0
  160.9730  205.1200  152.8060 C   0  0  0  0  0  3  0  0  0  0  0  0
  160.7400  206.7160  154.6180 C   0  0  0  0  0  0  0  0  0  0  0  0
  160.8680  207.7610  153.6990 C   0  0  0  0  0  3  0  0  0  0  0  0
  160.7950  205.3910  154.1630 C   0  0  0  0  0  3  0  0  0  0  0  0
  161.1010  206.1670  151.8810 C   0  0  0  0  0  0  0  0  0  0  0  0
  158.5700  212.9040  155.4440 C   0  0  0  0  0  2  0  0  0  0  0  0
  157.7260  211.6680  155.3030 C   0  0  0  0  0  0  0  0  0  0  0  0
  162.7820  210.4910  151.9350 N   0  0  0  0  0  2  0  0  0  0  0  0
  161.4400  211.0620  151.9670 C   0  0  1  0  0  3  0  0  0  0  0  0
  159.2890  209.9560  152.4540 C   0  0  0  0  0  3  0  0  0  0  0  0
  161.2030  208.6950  151.4230 C   0  0  1  0  0  3  0  0  0  0  0  0
  159.8720  212.6960  154.8970 O   0  0  0  0  0  0  0  0  0  0  0  0
  160.5080  209.9110  151.8980 C   0  0  0  0  0  0  0  0  0  0  0  0
  160.0450  211.9440  153.7320 C   0  0  0  0  0  0  0  0  0  0  0  0
  158.8480  211.2280  153.1300 C   0  0  2  0  0  3  0  0  0  0  0  0
  157.8620  210.8980  154.2140 C   0  0  0  0  0  3  0  0  0  0  0  0
  162.6580  209.1510  151.3430 C   0  0  0  0  0  2  0  0  0  0  0  0
  161.2290  211.8270  153.1990 N   0  0  0  0  0  0  0  0  0  0  0  0
  155.4650  210.8050  156.1510 C   0  0  0  0  0  0  0  0  0  0  0  0
  156.7720  211.3650  156.3310 N   0  0  0  0  0  2  0  0  0  0  0  0
  155.0420  210.4840  155.0090 O   0  0  0  0  0  0  0  0  0  0  0  0
  154.6530  210.6040  157.2590 O   0  0  0  0  0  1  0  0  0  0  0  0
  161.2540  205.8950  150.5140 O   0  0  0  0  0  0  0  0  0  0  0  0
  160.8960  203.5890  150.7450 C   0  0  0  0  0  3  0  0  0  0  0  0
  161.1760  204.6200  149.9390 C   0  0  0  0  0  0  0  0  0  0  0  0
  161.1360  203.0170  147.9810 C   0  0  0  0  0  0  0  0  0  0  0  0
  161.3470  204.4310  148.4450 C   0  0  0  0  0  2  0  0  0  0  0  0
  160.7380  202.2160  150.2380 C   0  0  0  0  0  3  0  0  0  0  0  0
  160.8470  201.9450  148.9400 C   0  0  0  0  0  3  0  0  0  0  0  0
  161.2170  202.7470  146.7550 O   0  0  0  0  0  0  0  0  0  0  0  0
  160.5640  207.0220  155.9710 O   0  0  0  0  0  0  0  0  0  0  0  0
  160.3260  208.3420  156.4500 C   0  0  0  0  0  2  0  0  0  0  0  0
  161.3740  210.4610  157.2330 C   0  0  0  0  0  1  0  0  0  0  0  0
  161.6380  209.0800  156.6650 C   0  0  0  0  0  2  0  0  0  0  0  0
  1  4  1  0  0  0  0
  2  5  2  0  0  0  0
  3 32  1  0  0  0  0
  4  3  2  0  0  0  0
  5  3  1  0  0  0  0
  6  1  2  0  0  0  0
  6  2  1  0  0  0  0
  8  7  1  0  0  0  0
  8 21  1  0  0  0  0
  9 10  1  0  0  0  0
 10 14  1  1  0  0  0
 10 19  1  0  0  0  0
 12 14  1  0  0  0  0
 12  1  1  1  0  0  0
 13  7  1  0  0  0  0
 14 11  2  0  0  0  0
 15 13  1  0  0  0  0
 16 11  1  1  0  0  0
 16 15  1  0  0  0  0
 16 17  1  0  0  0  0
 17  8  2  0  0  0  0
 18 12  1  0  0  0  0
 18  9  1  0  0  0  0
 19 15  2  0  0  0  0
 20 21  1  0  0  0  0
 20 23  1  0  0  0  0
 22 20  2  0  0  0  0
 24  6  1  0  0  0  0
 26 24  1  0  0  0  0
 26 25  2  0  0  0  0
 27 28  1  0  0  0  0
 27 30  1  0  0  0  0
 28 26  1  0  0  0  0
 29 25  1  0  0  0  0
 30 29  2  0  0  0  0
 31 27  2  0  0  0  0
 32 33  1  0  0  0  0
 33 35  1  0  0  0  0
 35 34  1  0  0  0  0
M  END
>  <MODEL>
7

>  <REMARK>
 VINA RESULT:      -5.4      2.953      9.058
  Name = 
  7 active torsions:
  status: ('A' for Active; 'I' for Inactive)
    1  A    between atoms: C_2  and  C_14
    2  A    between atoms: C_5  and  C_23
    3  A    between atoms: O_6  and  C_7
    4  A    between atoms: O_6  and  C_29
    5  A    between atoms: C_8  and  N_17
    6  A    between atoms: C_14  and  O_31
    7  A    between atoms: C_15  and  O_31
                            x       y       z     vdW  Elec       q    Type
                         _______ _______ _______ _____ _____    ______ ____

>  <TORSDO>
F 7

$$$$
=
 OpenBabel11052409273D

 35 39  0  0  1  0  0  0  0  0999 V2000
  161.7530  208.0420  151.1880 C   0  0  0  0  0  0  0  0  0  0  0  0
  161.4630  208.4800  148.8130 C   0  0  0  0  0  3  0  0  0  0  0  0
  160.6890  206.3850  149.7570 C   0  0  0  0  0  0  0  0  0  0  0  0
  161.1410  206.7960  151.0140 C   0  0  0  0  0  3  0  0  0  0  0  0
  160.8550  207.2350  148.6540 C   0  0  0  0  0  3  0  0  0  0  0  0
  161.9170  208.8970  150.0730 C   0  0  0  0  0  0  0  0  0  0  0  0
  157.2870  212.1720  154.0080 C   0  0  0  0  0  2  0  0  0  0  0  0
  157.8680  212.5030  152.6610 C   0  0  0  0  0  0  0  0  0  0  0  0
  161.0740  207.5640  154.5630 N   0  0  0  0  0  2  0  0  0  0  0  0
  160.9580  209.0190  154.5580 C   0  0  1  0  0  3  0  0  0  0  0  0
  160.9940  210.5750  152.6440 C   0  0  0  0  0  3  0  0  0  0  0  0
  162.2330  208.3890  152.5740 C   0  0  1  0  0  3  0  0  0  0  0  0
  157.7810  210.9180  154.4800 O   0  0  0  0  0  0  0  0  0  0  0  0
  161.4500  209.4580  153.2300 C   0  0  0  0  0  0  0  0  0  0  0  0
  159.1080  210.5420  154.2550 C   0  0  0  0  0  0  0  0  0  0  0  0
  159.9860  211.4190  153.3790 C   0  0  2  0  0  3  0  0  0  0  0  0
  159.1320  212.1510  152.3840 C   0  0  0  0  0  3  0  0  0  0  0  0
  162.0640  207.2140  153.5340 C   0  0  0  0  0  2  0  0  0  0  0  0
  159.5670  209.4310  154.7580 N   0  0  0  0  0  0  0  0  0  0  0  0
  155.7540  213.7710  151.9530 C   0  0  0  0  0  0  0  0  0  0  0  0
  157.0570  213.2190  151.7200 N   0  0  0  0  0  2  0  0  0  0  0  0
  155.2040  213.6940  153.0830 O   0  0  0  0  0  1  0  0  0  0  0  0
  155.0910  214.4110  150.9140 O   0  0  0  0  0  0  0  0  0  0  0  0
  162.5050  210.1590  150.2370 O   0  0  0  0  0  0  0  0  0  0  0  0
  161.2190  212.0900  149.8980 C   0  0  0  0  0  3  0  0  0  0  0  0
  162.2000  211.2890  149.4670 C   0  0  0  0  0  0  0  0  0  0  0  0
  162.6040  212.9120  147.5680 C   0  0  0  0  0  0  0  0  0  0  0  0
  162.9970  211.6160  148.2190 C   0  0  0  0  0  2  0  0  0  0  0  0
  160.8530  213.3310  149.1960 C   0  0  0  0  0  3  0  0  0  0  0  0
  161.5040  213.7220  148.1030 C   0  0  0  0  0  3  0  0  0  0  0  0
  163.2230  213.3050  146.5450 O   0  0  0  0  0  0  0  0  0  0  0  0
  160.0840  205.1290  149.6320 O   0  0  0  0  0  0  0  0  0  0  0  0
  160.6960  204.0300  148.9640 C   0  0  0  0  0  2  0  0  0  0  0  0
  160.4660  201.6170  149.5360 C   0  0  0  0  0  1  0  0  0  0  0  0
  161.0740  202.9400  149.9560 C   0  0  0  0  0  2  0  0  0  0  0  0
  2  6  1  0  0  0  0
  3  4  2  0  0  0  0
  4  1  1  0  0  0  0
  5  2  2  0  0  0  0
  5  3  1  0  0  0  0
  6 24  1  0  0  0  0
  6  1  2  0  0  0  0
  7 13  1  0  0  0  0
  8  7  1  0  0  0  0
 10 14  1  6  0  0  0
 10  9  1  0  0  0  0
 10 19  1  0  0  0  0
 11 14  2  0  0  0  0
 11 16  1  0  0  0  0
 12  1  1  6  0  0  0
 12 14  1  0  0  0  0
 12 18  1  0  0  0  0
 15 13  1  0  0  0  0
 15 19  2  0  0  0  0
 16 17  1  6  0  0  0
 16 15  1  0  0  0  0
 17  8  2  0  0  0  0
 18  9  1  0  0  0  0
 20 22  1  0  0  0  0
 21 20  1  0  0  0  0
 21  8  1  0  0  0  0
 23 20  2  0  0  0  0
 26 25  2  0  0  0  0
 26 24  1  0  0  0  0
 27 30  1  0  0  0  0
 27 28  1  0  0  0  0
 28 26  1  0  0  0  0
 29 25  1  0  0  0  0
 30 29  2  0  0  0  0
 31 27  2  0  0  0  0
 32  3  1  0  0  0  0
 33 32  1  0  0  0  0
 33 35  1  0  0  0  0
 34 35  1  0  0  0  0
M  END
>  <MODEL>
8

>  <REMARK>
 VINA RESULT:      -5.0      3.614      8.032
  Name = 
  7 active torsions:
  status: ('A' for Active; 'I' for Inactive)
    1  A    between atoms: C_2  and  C_14
    2  A    between atoms: C_5  and  C_23
    3  A    between atoms: O_6  and  C_7
    4  A    between atoms: O_6  and  C_29
    5  A    between atoms: C_8  and  N_17
    6  A    between atoms: C_14  and  O_31
    7  A    between atoms: C_15  and  O_31
                            x       y       z     vdW  Elec       q    Type
                         _______ _______ _______ _____ _____    ______ ____

>  <TORSDO>
F 7

$$$$
