=
 OpenBabel11042420103D

 30 32  0  0  0  0  0  0  0  0999 V2000
  161.6540  208.2370  151.5650 C   0  0  0  0  0  0  0  0  0  0  0  0
  162.6360  208.9270  151.1770 O   0  0  0  0  0  0  0  0  0  0  0  0
  161.0580  207.5140  149.2300 C   0  0  0  0  0  0  0  0  0  0  0  0
  161.5690  208.5590  148.7460 O   0  0  0  0  0  0  0  0  0  0  0  0
  161.0210  207.3100  150.6580 N   0  0  0  0  0  0  0  0  0  0  0  0
  159.1840  211.5120  152.9340 C   0  0  0  0  0  3  0  0  0  0  0  0
  160.3510  208.5600  155.6180 N   0  0  0  0  0  0  0  0  0  0  0  0
  161.5890  207.4080  153.9290 C   0  0  0  0  0  0  0  0  0  0  0  0
  162.4010  206.2940  153.5680 N   0  0  0  0  0  1  0  0  0  0  0  0
  161.1460  207.5240  155.2470 C   0  0  0  0  0  3  0  0  0  0  0  0
  159.9900  210.4590  152.4950 C   0  0  0  0  0  3  0  0  0  0  0  0
  158.7650  211.5660  154.2650 C   0  0  0  0  0  3  0  0  0  0  0  0
  160.3820  209.4440  153.3830 C   0  0  0  0  0  0  0  0  0  0  0  0
  159.9620  209.5140  154.7320 C   0  0  0  0  0  0  0  0  0  0  0  0
  159.1550  210.5690  155.1630 C   0  0  0  0  0  3  0  0  0  0  0  0
  161.2010  208.3680  152.9730 C   0  0  0  0  0  0  0  0  0  0  0  0
  160.3380  206.1280  151.1900 C   0  0  0  0  0  2  0  0  0  0  0  0
  161.1660  204.8990  150.9820 C   0  0  0  0  0  0  0  0  0  0  0  0
  162.3800  204.9620  151.1070 O   0  0  0  0  0  0  0  0  0  0  0  0
  160.7070  203.2890  149.1390 C   0  0  0  0  0  2  0  0  0  0  0  0
  160.9730  201.7960  149.0530 C   0  0  0  0  0  2  0  0  0  0  0  0
  160.5060  203.6070  150.6070 C   0  0  0  0  0  3  0  0  0  0  0  0
  161.0830  202.4430  151.3790 C   0  0  0  0  0  2  0  0  0  0  0  0
  160.9100  201.2510  150.4670 C   0  0  0  0  0  2  0  0  0  0  0  0
  160.4970  206.4960  148.2870 C   0  0  0  0  0  2  0  0  0  0  0  0
  161.1200  205.4530  146.1900 N   0  0  0  0  0  0  0  0  0  0  0  0
  161.4680  206.1910  147.1960 C   0  0  0  0  0  3  0  0  0  0  0  0
  162.0150  205.1410  145.1180 C   0  0  0  0  0  0  0  0  0  0  0  0
  161.6750  205.4060  143.9360 O   0  0  0  0  0  0  0  0  0  0  0  0
  163.3450  204.5100  145.3670 C   0  0  0  0  0  1  0  0  0  0  0  0
  1 16  1  0  0  0  0
  2  1  2  0  0  0  0
  3  5  1  0  0  0  0
  4  3  2  0  0  0  0
  5 17  1  0  0  0  0
  5  1  1  0  0  0  0
  6 12  1  0  0  0  0
  8 10  2  0  0  0  0
  9  8  1  0  0  0  0
 10  7  1  0  0  0  0
 11  6  2  0  0  0  0
 11 13  1  0  0  0  0
 12 15  2  0  0  0  0
 13 14  1  0  0  0  0
 14 15  1  0  0  0  0
 14  7  2  0  0  0  0
 16 13  2  0  0  0  0
 16  8  1  0  0  0  0
 18 19  2  0  0  0  0
 18 17  1  0  0  0  0
 20 22  1  0  0  0  0
 21 20  1  0  0  0  0
 21 24  1  0  0  0  0
 22 18  1  0  0  0  0
 22 23  1  0  0  0  0
 24 23  1  0  0  0  0
 25  3  1  0  0  0  0
 26 27  2  0  0  0  0
 27 25  1  0  0  0  0
 28 30  1  0  0  0  0
 28 26  1  0  0  0  0
 29 28  2  0  0  0  0
M  END
>  <MODEL>
1

>  <REMARK>
 VINA RESULT:      -7.4      0.000      0.000
  Name = 
  7 active torsions:
  status: ('A' for Active; 'I' for Inactive)
    1  A    between atoms: C_1  and  N_6
    2  A    between atoms: C_5  and  C_29
    3  A    between atoms: C_8  and  C_15
    4  A    between atoms: C_13  and  C_19
    5  A    between atoms: C_13  and  N_30
    6  A    between atoms: C_15  and  C_23
    7  A    between atoms: C_19  and  C_20
                            x       y       z     vdW  Elec       q    Type
                         _______ _______ _______ _____ _____    ______ ____

>  <TORSDO>
F 7

$$$$
=
 OpenBabel11042420103D

 30 32  0  0  0  0  0  0  0  0999 V2000
  161.5460  209.2740  152.4680 C   0  0  0  0  0  0  0  0  0  0  0  0
  162.5410  209.9910  152.1770 O   0  0  0  0  0  0  0  0  0  0  0  0
  161.7490  207.8960  150.3720 C   0  0  0  0  0  0  0  0  0  0  0  0
  162.2980  208.8530  149.7620 O   0  0  0  0  0  0  0  0  0  0  0  0
  161.2940  208.0570  151.7320 N   0  0  0  0  0  0  0  0  0  0  0  0
  158.5690  212.3920  152.1260 C   0  0  0  0  0  3  0  0  0  0  0  0
  159.0480  210.3990  155.7420 N   0  0  0  0  0  0  0  0  0  0  0  0
  160.8160  209.0560  154.8550 C   0  0  0  0  0  0  0  0  0  0  0  0
  161.7690  208.0180  155.0600 N   0  0  0  0  0  1  0  0  0  0  0  0
  159.9840  209.4290  155.9110 C   0  0  0  0  0  3  0  0  0  0  0  0
  159.5370  211.3910  152.2400 C   0  0  0  0  0  3  0  0  0  0  0  0
  157.7610  212.7120  153.2180 C   0  0  0  0  0  3  0  0  0  0  0  0
  159.7030  210.6950  153.4490 C   0  0  0  0  0  0  0  0  0  0  0  0
  158.8880  211.0360  154.5540 C   0  0  0  0  0  0  0  0  0  0  0  0
  157.9210  212.0370  154.4310 C   0  0  0  0  0  3  0  0  0  0  0  0
  160.6760  209.6820  153.5990 C   0  0  0  0  0  0  0  0  0  0  0  0
  160.5780  206.9550  152.3780 C   0  0  0  0  0  2  0  0  0  0  0  0
  161.4360  205.7300  152.4420 C   0  0  0  0  0  0  0  0  0  0  0  0
  162.6170  205.8380  152.7350 O   0  0  0  0  0  0  0  0  0  0  0  0
  160.1410  204.3890  150.7920 C   0  0  0  0  0  2  0  0  0  0  0  0
  160.4760  203.0660  150.1260 C   0  0  0  0  0  2  0  0  0  0  0  0
  160.8470  204.3880  152.1340 C   0  0  0  0  0  3  0  0  0  0  0  0
  161.9110  203.3190  152.0550 C   0  0  0  0  0  2  0  0  0  0  0  0
  161.3610  202.2960  151.0880 C   0  0  0  0  0  2  0  0  0  0  0  0
  161.5840  206.5960  149.6480 C   0  0  0  0  0  2  0  0  0  0  0  0
  161.4910  205.8010  147.3610 N   0  0  0  0  0  0  0  0  0  0  0  0
  161.6110  206.8040  148.1710 C   0  0  0  0  0  3  0  0  0  0  0  0
  161.5030  205.9540  145.9390 C   0  0  0  0  0  0  0  0  0  0  0  0
  162.6020  205.9250  145.3270 O   0  0  0  0  0  0  0  0  0  0  0  0
  160.2430  206.1450  145.1600 C   0  0  0  0  0  1  0  0  0  0  0  0
  1 16  1  0  0  0  0
  2  1  2  0  0  0  0
  3  5  1  0  0  0  0
  4  3  2  0  0  0  0
  5 17  1  0  0  0  0
  5  1  1  0  0  0  0
  6 11  2  0  0  0  0
  6 12  1  0  0  0  0
  7 10  1  0  0  0  0
  8  9  1  0  0  0  0
  8 10  2  0  0  0  0
 11 13  1  0  0  0  0
 12 15  2  0  0  0  0
 13 16  2  0  0  0  0
 13 14  1  0  0  0  0
 14  7  2  0  0  0  0
 15 14  1  0  0  0  0
 16  8  1  0  0  0  0
 17 18  1  0  0  0  0
 18 19  2  0  0  0  0
 20 22  1  0  0  0  0
 21 20  1  0  0  0  0
 21 24  1  0  0  0  0
 22 18  1  0  0  0  0
 23 22  1  0  0  0  0
 24 23  1  0  0  0  0
 25  3  1  0  0  0  0
 26 27  2  0  0  0  0
 27 25  1  0  0  0  0
 28 26  1  0  0  0  0
 29 28  2  0  0  0  0
 30 28  1  0  0  0  0
M  END
>  <MODEL>
2

>  <REMARK>
 VINA RESULT:      -6.7      1.368      1.767
  Name = 
  7 active torsions:
  status: ('A' for Active; 'I' for Inactive)
    1  A    between atoms: C_1  and  N_6
    2  A    between atoms: C_5  and  C_29
    3  A    between atoms: C_8  and  C_15
    4  A    between atoms: C_13  and  C_19
    5  A    between atoms: C_13  and  N_30
    6  A    between atoms: C_15  and  C_23
    7  A    between atoms: C_19  and  C_20
                            x       y       z     vdW  Elec       q    Type
                         _______ _______ _______ _____ _____    ______ ____

>  <TORSDO>
F 7

$$$$
=
 OpenBabel11042420103D

 30 32  0  0  0  0  0  0  0  0999 V2000
  161.7460  210.0430  153.6750 C   0  0  0  0  0  0  0  0  0  0  0  0
  162.8940  210.4900  153.9470 O   0  0  0  0  0  0  0  0  0  0  0  0
  162.3310  209.6090  151.2660 C   0  0  0  0  0  0  0  0  0  0  0  0
  163.2010  210.5210  151.2840 O   0  0  0  0  0  0  0  0  0  0  0  0
  161.5190  209.3470  152.4300 N   0  0  0  0  0  0  0  0  0  0  0  0
  158.2500  212.4820  152.9460 C   0  0  0  0  0  3  0  0  0  0  0  0
  158.6320  210.4710  156.5640 N   0  0  0  0  0  0  0  0  0  0  0  0
  160.7520  209.5690  155.9260 C   0  0  0  0  0  0  0  0  0  0  0  0
  161.8670  208.7450  156.2530 N   0  0  0  0  0  1  0  0  0  0  0  0
  159.7200  209.7120  156.8540 C   0  0  0  0  0  3  0  0  0  0  0  0
  159.3840  211.7020  153.1860 C   0  0  0  0  0  3  0  0  0  0  0  0
  157.2470  212.5770  153.9130 C   0  0  0  0  0  3  0  0  0  0  0  0
  159.5240  211.0020  154.3960 C   0  0  0  0  0  0  0  0  0  0  0  0
  158.5080  211.1140  155.3740 C   0  0  0  0  0  0  0  0  0  0  0  0
  157.3760  211.8950  155.1260 C   0  0  0  0  0  3  0  0  0  0  0  0
  160.6600  210.2090  154.6730 C   0  0  0  0  0  0  0  0  0  0  0  0
  160.4560  208.3440  152.3450 C   0  0  0  0  0  2  0  0  0  0  0  0
  160.9380  207.0170  152.8400 C   0  0  0  0  0  0  0  0  0  0  0  0
  160.9040  206.7720  154.0370 O   0  0  0  0  0  0  0  0  0  0  0  0
  161.2790  204.5930  152.3860 C   0  0  0  0  0  2  0  0  0  0  0  0
  160.8630  203.7510  151.1920 C   0  0  0  0  0  2  0  0  0  0  0  0
  161.4720  206.0060  151.8720 C   0  0  0  0  0  3  0  0  0  0  0  0
  160.7570  206.0770  150.5430 C   0  0  0  0  0  2  0  0  0  0  0  0
  160.8310  204.6740  149.9880 C   0  0  0  0  0  2  0  0  0  0  0  0
  162.1660  208.8110  150.0110 C   0  0  0  0  0  2  0  0  0  0  0  0
  161.9560  210.9930  148.9800 N   0  0  0  0  0  0  0  0  0  0  0  0
  161.9650  209.7060  148.8350 C   0  0  0  0  0  3  0  0  0  0  0  0
  161.7740  211.8900  147.8800 C   0  0  0  0  0  0  0  0  0  0  0  0
  160.7150  211.8280  147.2040 O   0  0  0  0  0  0  0  0  0  0  0  0
  162.8110  212.9020  147.5140 C   0  0  0  0  0  1  0  0  0  0  0  0
  1  2  2  0  0  0  0
  1 16  1  0  0  0  0
  3  4  2  0  0  0  0
  3  5  1  0  0  0  0
  5  1  1  0  0  0  0
  6 11  2  0  0  0  0
  6 12  1  0  0  0  0
  7 10  1  0  0  0  0
  8  9  1  0  0  0  0
  8 10  2  0  0  0  0
 11 13  1  0  0  0  0
 12 15  2  0  0  0  0
 13 16  2  0  0  0  0
 13 14  1  0  0  0  0
 14  7  2  0  0  0  0
 15 14  1  0  0  0  0
 16  8  1  0  0  0  0
 17  5  1  0  0  0  0
 17 18  1  0  0  0  0
 18 19  2  0  0  0  0
 21 20  1  0  0  0  0
 22 20  1  0  0  0  0
 22 18  1  0  0  0  0
 23 22  1  0  0  0  0
 24 23  1  0  0  0  0
 24 21  1  0  0  0  0
 25  3  1  0  0  0  0
 27 26  2  0  0  0  0
 27 25  1  0  0  0  0
 28 26  1  0  0  0  0
 29 28  2  0  0  0  0
 30 28  1  0  0  0  0
M  END
>  <MODEL>
3

>  <REMARK>
 VINA RESULT:      -6.7      2.915      3.861
  Name = 
  7 active torsions:
  status: ('A' for Active; 'I' for Inactive)
    1  A    between atoms: C_1  and  N_6
    2  A    between atoms: C_5  and  C_29
    3  A    between atoms: C_8  and  C_15
    4  A    between atoms: C_13  and  C_19
    5  A    between atoms: C_13  and  N_30
    6  A    between atoms: C_15  and  C_23
    7  A    between atoms: C_19  and  C_20
                            x       y       z     vdW  Elec       q    Type
                         _______ _______ _______ _____ _____    ______ ____

>  <TORSDO>
F 7

$$$$
=
 OpenBabel11042420103D

 30 32  0  0  0  0  0  0  0  0999 V2000
  160.0850  209.0640  155.2960 C   0  0  0  0  0  0  0  0  0  0  0  0
  159.0410  208.4450  155.6370 O   0  0  0  0  0  0  0  0  0  0  0  0
  161.1320  207.0190  154.2680 C   0  0  0  0  0  0  0  0  0  0  0  0
  160.4810  206.2640  155.0400 O   0  0  0  0  0  0  0  0  0  0  0  0
  161.0180  208.4540  154.3780 N   0  0  0  0  0  0  0  0  0  0  0  0
  157.7160  212.4560  154.0380 C   0  0  0  0  0  3  0  0  0  0  0  0
  160.7380  212.9890  156.8420 N   0  0  0  0  0  0  0  0  0  0  0  0
  161.3350  210.6770  156.7510 C   0  0  0  0  0  0  0  0  0  0  0  0
  162.1640  209.6190  157.2230 N   0  0  0  0  0  1  0  0  0  0  0  0
  161.5270  211.9640  157.2540 C   0  0  0  0  0  3  0  0  0  0  0  0
  158.4880  211.3630  154.4380 C   0  0  0  0  0  3  0  0  0  0  0  0
  157.9520  213.7190  154.5870 C   0  0  0  0  0  3  0  0  0  0  0  0
  159.5030  211.5200  155.3960 C   0  0  0  0  0  0  0  0  0  0  0  0
  159.7430  212.8050  155.9360 C   0  0  0  0  0  0  0  0  0  0  0  0
  158.9650  213.8930  155.5330 C   0  0  0  0  0  3  0  0  0  0  0  0
  160.3060  210.4360  155.8180 C   0  0  0  0  0  0  0  0  0  0  0  0
  161.8580  209.3010  153.5290 C   0  0  0  0  0  2  0  0  0  0  0  0
  161.2600  209.4420  152.1640 C   0  0  0  0  0  0  0  0  0  0  0  0
  160.0540  209.6010  152.0490 O   0  0  0  0  0  0  0  0  0  0  0  0
  161.8590  208.1220  150.1390 C   0  0  0  0  0  2  0  0  0  0  0  0
  161.9090  208.5370  148.6790 C   0  0  0  0  0  2  0  0  0  0  0  0
  162.1380  209.3710  150.9520 C   0  0  0  0  0  3  0  0  0  0  0  0
  161.9050  210.5430  150.0270 C   0  0  0  0  0  2  0  0  0  0  0  0
  162.2320  210.0180  148.6480 C   0  0  0  0  0  2  0  0  0  0  0  0
  162.0190  206.3880  153.2410 C   0  0  0  0  0  2  0  0  0  0  0  0
  161.8780  204.6610  151.5480 N   0  0  0  0  0  0  0  0  0  0  0  0
  161.2800  205.3480  152.4690 C   0  0  0  0  0  3  0  0  0  0  0  0
  161.2110  203.6480  150.7880 C   0  0  0  0  0  0  0  0  0  0  0  0
  160.9000  202.5650  151.3470 O   0  0  0  0  0  0  0  0  0  0  0  0
  160.8740  203.8440  149.3460 C   0  0  0  0  0  1  0  0  0  0  0  0
  1  2  2  0  0  0  0
  1 16  1  0  0  0  0
  3  5  1  0  0  0  0
  3  4  2  0  0  0  0
  5  1  1  0  0  0  0
  6 11  2  0  0  0  0
  6 12  1  0  0  0  0
  7 10  1  0  0  0  0
  8  9  1  0  0  0  0
  8 10  2  0  0  0  0
 11 13  1  0  0  0  0
 12 15  2  0  0  0  0
 13 16  2  0  0  0  0
 13 14  1  0  0  0  0
 14  7  2  0  0  0  0
 15 14  1  0  0  0  0
 16  8  1  0  0  0  0
 17  5  1  0  0  0  0
 18 17  1  0  0  0  0
 19 18  2  0  0  0  0
 20 22  1  0  0  0  0
 21 20  1  0  0  0  0
 22 18  1  0  0  0  0
 23 22  1  0  0  0  0
 24 21  1  0  0  0  0
 24 23  1  0  0  0  0
 25  3  1  0  0  0  0
 26 27  2  0  0  0  0
 27 25  1  0  0  0  0
 28 29  2  0  0  0  0
 28 26  1  0  0  0  0
 30 28  1  0  0  0  0
M  END
>  <MODEL>
4

>  <REMARK>
 VINA RESULT:      -6.6      2.786      5.228
  Name = 
  7 active torsions:
  status: ('A' for Active; 'I' for Inactive)
    1  A    between atoms: C_1  and  N_6
    2  A    between atoms: C_5  and  C_29
    3  A    between atoms: C_8  and  C_15
    4  A    between atoms: C_13  and  C_19
    5  A    between atoms: C_13  and  N_30
    6  A    between atoms: C_15  and  C_23
    7  A    between atoms: C_19  and  C_20
                            x       y       z     vdW  Elec       q    Type
                         _______ _______ _______ _____ _____    ______ ____

>  <TORSDO>
F 7

$$$$
=
 OpenBabel11042420103D

 30 32  0  0  0  0  0  0  0  0999 V2000
  161.6820  209.4990  151.8530 C   0  0  0  0  0  0  0  0  0  0  0  0
  162.7060  210.1700  151.5490 O   0  0  0  0  0  0  0  0  0  0  0  0
  161.9120  207.9810  149.8590 C   0  0  0  0  0  0  0  0  0  0  0  0
  162.5060  208.8810  149.2070 O   0  0  0  0  0  0  0  0  0  0  0  0
  161.4200  208.2440  151.1900 N   0  0  0  0  0  0  0  0  0  0  0  0
  161.5440  207.7410  155.8010 C   0  0  0  0  0  3  0  0  0  0  0  0
  159.1180  210.9990  154.9190 N   0  0  0  0  0  0  0  0  0  0  0  0
  159.9280  211.0900  152.6720 C   0  0  0  0  0  0  0  0  0  0  0  0
  159.9070  211.7330  151.4010 N   0  0  0  0  0  1  0  0  0  0  0  0
  159.1050  211.5740  153.6890 C   0  0  0  0  0  3  0  0  0  0  0  0
  161.5810  208.3030  154.5230 C   0  0  0  0  0  3  0  0  0  0  0  0
  160.7040  208.2780  156.7790 C   0  0  0  0  0  3  0  0  0  0  0  0
  160.7800  209.4150  154.2100 C   0  0  0  0  0  0  0  0  0  0  0  0
  159.9230  209.9440  155.2040 C   0  0  0  0  0  0  0  0  0  0  0  0
  159.8940  209.3760  156.4800 C   0  0  0  0  0  3  0  0  0  0  0  0
  160.7900  210.0040  152.9260 C   0  0  0  0  0  0  0  0  0  0  0  0
  160.6530  207.2060  151.8830 C   0  0  0  0  0  2  0  0  0  0  0  0
  161.4710  205.9630  152.0480 C   0  0  0  0  0  0  0  0  0  0  0  0
  162.6620  206.0560  152.3030 O   0  0  0  0  0  0  0  0  0  0  0  0
  160.1980  204.4710  150.5140 C   0  0  0  0  0  2  0  0  0  0  0  0
  160.4990  203.0560  150.0500 C   0  0  0  0  0  2  0  0  0  0  0  0
  160.8300  204.6190  151.8840 C   0  0  0  0  0  3  0  0  0  0  0  0
  161.8400  203.5020  152.0110 C   0  0  0  0  0  2  0  0  0  0  0  0
  161.2890  202.3850  151.1560 C   0  0  0  0  0  2  0  0  0  0  0  0
  161.7330  206.6410  149.2170 C   0  0  0  0  0  2  0  0  0  0  0  0
  161.3120  205.7400  147.0070 N   0  0  0  0  0  0  0  0  0  0  0  0
  161.4330  206.7850  147.7630 C   0  0  0  0  0  3  0  0  0  0  0  0
  161.0170  205.8310  145.6100 C   0  0  0  0  0  0  0  0  0  0  0  0
  160.0810  206.5780  145.2260 O   0  0  0  0  0  0  0  0  0  0  0  0
  161.7940  205.0610  144.5940 C   0  0  0  0  0  1  0  0  0  0  0  0
  1 16  1  0  0  0  0
  2  1  2  0  0  0  0
  3  5  1  0  0  0  0
  4  3  2  0  0  0  0
  5  1  1  0  0  0  0
  5 17  1  0  0  0  0
  6 12  1  0  0  0  0
  7 14  1  0  0  0  0
  8 16  2  0  0  0  0
  8 10  1  0  0  0  0
  9  8  1  0  0  0  0
 10  7  2  0  0  0  0
 11  6  2  0  0  0  0
 13 11  1  0  0  0  0
 13 14  2  0  0  0  0
 14 15  1  0  0  0  0
 15 12  2  0  0  0  0
 16 13  1  0  0  0  0
 17 18  1  0  0  0  0
 18 19  2  0  0  0  0
 20 22  1  0  0  0  0
 21 20  1  0  0  0  0
 21 24  1  0  0  0  0
 22 23  1  0  0  0  0
 22 18  1  0  0  0  0
 24 23  1  0  0  0  0
 25  3  1  0  0  0  0
 26 27  2  0  0  0  0
 27 25  1  0  0  0  0
 28 26  1  0  0  0  0
 29 28  2  0  0  0  0
 30 28  1  0  0  0  0
M  END
>  <MODEL>
5

>  <REMARK>
 VINA RESULT:      -6.5      1.513      2.575
  Name = 
  7 active torsions:
  status: ('A' for Active; 'I' for Inactive)
    1  A    between atoms: C_1  and  N_6
    2  A    between atoms: C_5  and  C_29
    3  A    between atoms: C_8  and  C_15
    4  A    between atoms: C_13  and  C_19
    5  A    between atoms: C_13  and  N_30
    6  A    between atoms: C_15  and  C_23
    7  A    between atoms: C_19  and  C_20
                            x       y       z     vdW  Elec       q    Type
                         _______ _______ _______ _____ _____    ______ ____

>  <TORSDO>
F 7

$$$$
=
 OpenBabel11042420103D

 30 32  0  0  0  0  0  0  0  0999 V2000
  160.0720  209.1320  155.2680 C   0  0  0  0  0  0  0  0  0  0  0  0
  160.0560  208.1950  156.1110 O   0  0  0  0  0  0  0  0  0  0  0  0
  161.0200  207.6710  153.4520 C   0  0  0  0  0  0  0  0  0  0  0  0
  161.5710  206.9230  154.3030 O   0  0  0  0  0  0  0  0  0  0  0  0
  160.2860  208.8410  153.8700 N   0  0  0  0  0  0  0  0  0  0  0  0
  156.1240  210.8930  155.3860 C   0  0  0  0  0  3  0  0  0  0  0  0
  159.4020  213.1180  156.6440 N   0  0  0  0  0  0  0  0  0  0  0  0
  160.9040  211.3260  156.1480 C   0  0  0  0  0  0  0  0  0  0  0  0
  162.2390  210.8290  156.1450 N   0  0  0  0  0  1  0  0  0  0  0  0
  160.6660  212.6220  156.6050 C   0  0  0  0  0  3  0  0  0  0  0  0
  157.4010  210.3280  155.3390 C   0  0  0  0  0  3  0  0  0  0  0  0
  155.9500  212.1930  155.8630 C   0  0  0  0  0  3  0  0  0  0  0  0
  158.5190  211.0590  155.7750 C   0  0  0  0  0  0  0  0  0  0  0  0
  158.3340  212.3800  156.2450 C   0  0  0  0  0  0  0  0  0  0  0  0
  157.0530  212.9360  156.2900 C   0  0  0  0  0  3  0  0  0  0  0  0
  159.8250  210.5190  155.7350 C   0  0  0  0  0  0  0  0  0  0  0  0
  159.7380  209.7390  152.8510 C   0  0  0  0  0  2  0  0  0  0  0  0
  160.6550  210.8970  152.6150 C   0  0  0  0  0  0  0  0  0  0  0  0
  161.8640  210.7180  152.6160 O   0  0  0  0  0  0  0  0  0  0  0  0
  160.4270  212.7890  151.0120 C   0  0  0  0  0  2  0  0  0  0  0  0
  159.1840  213.4960  150.5010 C   0  0  0  0  0  2  0  0  0  0  0  0
  160.0890  212.2670  152.3940 C   0  0  0  0  0  3  0  0  0  0  0  0
  158.5810  212.2680  152.4930 C   0  0  0  0  0  2  0  0  0  0  0  0
  158.1360  213.3960  151.5920 C   0  0  0  0  0  2  0  0  0  0  0  0
  161.1470  207.3120  152.0040 C   0  0  0  0  0  2  0  0  0  0  0  0
  160.8790  205.2740  150.7220 N   0  0  0  0  0  0  0  0  0  0  0  0
  161.2460  205.8340  151.8300 C   0  0  0  0  0  3  0  0  0  0  0  0
  160.9630  203.8610  150.5090 C   0  0  0  0  0  0  0  0  0  0  0  0
  160.8320  203.4070  149.3430 O   0  0  0  0  0  0  0  0  0  0  0  0
  161.2060  202.9120  151.6350 C   0  0  0  0  0  1  0  0  0  0  0  0
  1 16  1  0  0  0  0
  1  2  2  0  0  0  0
  3  5  1  0  0  0  0
  3  4  2  0  0  0  0
  5  1  1  0  0  0  0
  6 12  1  0  0  0  0
  8 10  2  0  0  0  0
  9  8  1  0  0  0  0
 10  7  1  0  0  0  0
 11  6  2  0  0  0  0
 11 13  1  0  0  0  0
 12 15  2  0  0  0  0
 13 14  1  0  0  0  0
 14 15  1  0  0  0  0
 14  7  2  0  0  0  0
 16 13  2  0  0  0  0
 16  8  1  0  0  0  0
 17  5  1  0  0  0  0
 18 19  2  0  0  0  0
 18 17  1  0  0  0  0
 20 22  1  0  0  0  0
 21 20  1  0  0  0  0
 21 24  1  0  0  0  0
 22 23  1  0  0  0  0
 22 18  1  0  0  0  0
 24 23  1  0  0  0  0
 25  3  1  0  0  0  0
 26 27  2  0  0  0  0
 27 25  1  0  0  0  0
 28 26  1  0  0  0  0
 28 30  1  0  0  0  0
 29 28  2  0  0  0  0
M  END
>  <MODEL>
6

>  <REMARK>
 VINA RESULT:      -6.3      2.803      6.161
  Name = 
  7 active torsions:
  status: ('A' for Active; 'I' for Inactive)
    1  A    between atoms: C_1  and  N_6
    2  A    between atoms: C_5  and  C_29
    3  A    between atoms: C_8  and  C_15
    4  A    between atoms: C_13  and  C_19
    5  A    between atoms: C_13  and  N_30
    6  A    between atoms: C_15  and  C_23
    7  A    between atoms: C_19  and  C_20
                            x       y       z     vdW  Elec       q    Type
                         _______ _______ _______ _____ _____    ______ ____

>  <TORSDO>
F 7

$$$$
=
 OpenBabel11042420103D

 30 32  0  0  0  0  0  0  0  0999 V2000
  162.0170  206.9480  152.0110 C   0  0  0  0  0  0  0  0  0  0  0  0
  163.0840  206.5380  152.5430 O   0  0  0  0  0  0  0  0  0  0  0  0
  160.8440  207.2000  154.2230 C   0  0  0  0  0  0  0  0  0  0  0  0
  161.5640  206.3030  154.7380 O   0  0  0  0  0  0  0  0  0  0  0  0
  160.9850  207.5420  152.8280 N   0  0  0  0  0  0  0  0  0  0  0  0
  160.9430  203.2670  150.0120 C   0  0  0  0  0  3  0  0  0  0  0  0
  161.5750  206.7100  147.7710 N   0  0  0  0  0  0  0  0  0  0  0  0
  162.0970  207.9790  149.7280 C   0  0  0  0  0  0  0  0  0  0  0  0
  162.4530  209.2350  150.2990 N   0  0  0  0  0  1  0  0  0  0  0  0
  161.9380  207.8860  148.3450 C   0  0  0  0  0  3  0  0  0  0  0  0
  161.2990  204.4540  150.6560 C   0  0  0  0  0  3  0  0  0  0  0  0
  160.7900  203.2410  148.6240 C   0  0  0  0  0  3  0  0  0  0  0  0
  161.5020  205.6320  149.9170 C   0  0  0  0  0  0  0  0  0  0  0  0
  161.3570  205.5920  148.5110 C   0  0  0  0  0  0  0  0  0  0  0  0
  160.9980  204.4010  147.8750 C   0  0  0  0  0  3  0  0  0  0  0  0
  161.8680  206.8480  150.5370 C   0  0  0  0  0  0  0  0  0  0  0  0
  160.0700  208.5220  152.2400 C   0  0  0  0  0  2  0  0  0  0  0  0
  160.4400  209.9110  152.6580 C   0  0  0  0  0  0  0  0  0  0  0  0
  161.6050  210.1700  152.9210 O   0  0  0  0  0  0  0  0  0  0  0  0
  159.1620  211.3820  154.2070 C   0  0  0  0  0  2  0  0  0  0  0  0
  158.9780  212.8900  154.1990 C   0  0  0  0  0  2  0  0  0  0  0  0
  159.3820  210.9660  152.7660 C   0  0  0  0  0  3  0  0  0  0  0  0
  159.7680  212.2190  152.0150 C   0  0  0  0  0  2  0  0  0  0  0  0
  159.0770  213.3410  152.7540 C   0  0  0  0  0  2  0  0  0  0  0  0
  159.8460  207.8960  155.0940 C   0  0  0  0  0  2  0  0  0  0  0  0
  161.6460  209.3330  155.8470 N   0  0  0  0  0  0  0  0  0  0  0  0
  160.5310  208.7330  156.1210 C   0  0  0  0  0  3  0  0  0  0  0  0
  162.3330  210.1520  156.7980 C   0  0  0  0  0  0  0  0  0  0  0  0
  163.4380  209.7650  157.2580 O   0  0  0  0  0  0  0  0  0  0  0  0
  161.7740  211.4580  157.2580 C   0  0  0  0  0  1  0  0  0  0  0  0
  1  2  2  0  0  0  0
  1  5  1  0  0  0  0
  3  4  2  0  0  0  0
  3 25  1  0  0  0  0
  5  3  1  0  0  0  0
  6 11  1  0  0  0  0
  7 10  2  0  0  0  0
  7 14  1  0  0  0  0
  8  9  1  0  0  0  0
  8 16  2  0  0  0  0
 10  8  1  0  0  0  0
 12  6  2  0  0  0  0
 13 16  1  0  0  0  0
 13 11  2  0  0  0  0
 14 13  1  0  0  0  0
 15 14  2  0  0  0  0
 15 12  1  0  0  0  0
 16  1  1  0  0  0  0
 17 18  1  0  0  0  0
 17  5  1  0  0  0  0
 18 22  1  0  0  0  0
 18 19  2  0  0  0  0
 21 20  1  0  0  0  0
 22 20  1  0  0  0  0
 23 24  1  0  0  0  0
 23 22  1  0  0  0  0
 24 21  1  0  0  0  0
 25 27  1  0  0  0  0
 26 27  2  0  0  0  0
 26 28  1  0  0  0  0
 28 29  2  0  0  0  0
 28 30  1  0  0  0  0
M  END
>  <MODEL>
7

>  <REMARK>
 VINA RESULT:      -6.1      2.418      8.306
  Name = 
  7 active torsions:
  status: ('A' for Active; 'I' for Inactive)
    1  A    between atoms: C_1  and  N_6
    2  A    between atoms: C_5  and  C_29
    3  A    between atoms: C_8  and  C_15
    4  A    between atoms: C_13  and  C_19
    5  A    between atoms: C_13  and  N_30
    6  A    between atoms: C_15  and  C_23
    7  A    between atoms: C_19  and  C_20
                            x       y       z     vdW  Elec       q    Type
                         _______ _______ _______ _____ _____    ______ ____

>  <TORSDO>
F 7

$$$$
=
 OpenBabel11042420103D

 30 32  0  0  0  0  0  0  0  0999 V2000
  161.7970  210.0770  152.4380 C   0  0  0  0  0  0  0  0  0  0  0  0
  162.8820  210.5120  151.9640 O   0  0  0  0  0  0  0  0  0  0  0  0
  161.5720  208.3020  150.6680 C   0  0  0  0  0  0  0  0  0  0  0  0
  162.2390  208.9930  149.8510 O   0  0  0  0  0  0  0  0  0  0  0  0
  161.2650  208.8140  151.9820 N   0  0  0  0  0  0  0  0  0  0  0  0
  158.3890  212.6130  151.6280 C   0  0  0  0  0  3  0  0  0  0  0  0
  159.8400  212.3030  155.5110 N   0  0  0  0  0  0  0  0  0  0  0  0
  161.5790  210.8150  154.8230 C   0  0  0  0  0  0  0  0  0  0  0  0
  162.6950  210.0050  155.1830 N   0  0  0  0  0  1  0  0  0  0  0  0
  160.9210  211.5400  155.8160 C   0  0  0  0  0  3  0  0  0  0  0  0
  159.4960  211.8020  151.8890 C   0  0  0  0  0  3  0  0  0  0  0  0
  157.7680  213.3080  152.6680 C   0  0  0  0  0  3  0  0  0  0  0  0
  159.9910  211.6720  153.1970 C   0  0  0  0  0  0  0  0  0  0  0  0
  159.3630  212.3890  154.2420 C   0  0  0  0  0  0  0  0  0  0  0  0
  158.2560  213.1970  153.9730 C   0  0  0  0  0  3  0  0  0  0  0  0
  161.1120  210.8640  153.4940 C   0  0  0  0  0  0  0  0  0  0  0  0
  160.4110  208.0250  152.8720 C   0  0  0  0  0  2  0  0  0  0  0  0
  161.2320  207.0980  153.7110 C   0  0  0  0  0  0  0  0  0  0  0  0
  162.1950  206.5320  153.2170 O   0  0  0  0  0  0  0  0  0  0  0  0
  161.9540  207.3240  156.0830 C   0  0  0  0  0  2  0  0  0  0  0  0
  161.2590  207.9860  157.2610 C   0  0  0  0  0  2  0  0  0  0  0  0
  160.8600  206.8580  155.1430 C   0  0  0  0  0  3  0  0  0  0  0  0
  159.6130  207.6190  155.5290 C   0  0  0  0  0  2  0  0  0  0  0  0
  159.7660  207.8880  157.0080 C   0  0  0  0  0  2  0  0  0  0  0  0
  161.1100  206.9450  150.2380 C   0  0  0  0  0  2  0  0  0  0  0  0
  161.4840  205.7480  148.1650 N   0  0  0  0  0  0  0  0  0  0  0  0
  161.0960  206.8360  148.7510 C   0  0  0  0  0  3  0  0  0  0  0  0
  161.4810  205.5960  146.7420 C   0  0  0  0  0  0  0  0  0  0  0  0
  160.8720  206.4400  146.0350 O   0  0  0  0  0  0  0  0  0  0  0  0
  162.1840  204.4610  146.0730 C   0  0  0  0  0  1  0  0  0  0  0  0
  1 16  1  0  0  0  0
  2  1  2  0  0  0  0
  3  5  1  0  0  0  0
  4  3  2  0  0  0  0
  5  1  1  0  0  0  0
  5 17  1  0  0  0  0
  6 11  2  0  0  0  0
  6 12  1  0  0  0  0
  7 10  1  0  0  0  0
  8  9  1  0  0  0  0
  8 10  2  0  0  0  0
 11 13  1  0  0  0  0
 12 15  2  0  0  0  0
 13 16  2  0  0  0  0
 13 14  1  0  0  0  0
 14  7  2  0  0  0  0
 15 14  1  0  0  0  0
 16  8  1  0  0  0  0
 17 18  1  0  0  0  0
 18 22  1  0  0  0  0
 19 18  2  0  0  0  0
 20 21  1  0  0  0  0
 22 23  1  0  0  0  0
 22 20  1  0  0  0  0
 23 24  1  0  0  0  0
 24 21  1  0  0  0  0
 25  3  1  0  0  0  0
 26 27  2  0  0  0  0
 27 25  1  0  0  0  0
 28 26  1  0  0  0  0
 29 28  2  0  0  0  0
 30 28  1  0  0  0  0
M  END
>  <MODEL>
8

>  <REMARK>
 VINA RESULT:      -5.9      2.349      4.098
  Name = 
  7 active torsions:
  status: ('A' for Active; 'I' for Inactive)
    1  A    between atoms: C_1  and  N_6
    2  A    between atoms: C_5  and  C_29
    3  A    between atoms: C_8  and  C_15
    4  A    between atoms: C_13  and  C_19
    5  A    between atoms: C_13  and  N_30
    6  A    between atoms: C_15  and  C_23
    7  A    between atoms: C_19  and  C_20
                            x       y       z     vdW  Elec       q    Type
                         _______ _______ _______ _____ _____    ______ ____

>  <TORSDO>
F 7

$$$$
=
 OpenBabel11042420103D

 30 32  0  0  0  0  0  0  0  0999 V2000
  161.5730  203.7210  150.5170 C   0  0  0  0  0  0  0  0  0  0  0  0
  162.2940  203.0030  151.2610 O   0  0  0  0  0  0  0  0  0  0  0  0
  161.0670  205.3650  152.3540 C   0  0  0  0  0  0  0  0  0  0  0  0
  161.2300  204.4760  153.2320 O   0  0  0  0  0  0  0  0  0  0  0  0
  161.1750  205.0390  150.9520 N   0  0  0  0  0  0  0  0  0  0  0  0
  162.7060  205.6800  146.8310 C   0  0  0  0  0  3  0  0  0  0  0  0
  160.4620  202.1840  146.6920 N   0  0  0  0  0  0  0  0  0  0  0  0
  160.4040  202.0370  149.0770 C   0  0  0  0  0  0  0  0  0  0  0  0
  159.9860  201.3240  150.2380 N   0  0  0  0  0  1  0  0  0  0  0  0
  160.0590  201.5420  147.8190 C   0  0  0  0  0  3  0  0  0  0  0  0
  162.3320  205.0520  148.0210 C   0  0  0  0  0  3  0  0  0  0  0  0
  162.3370  205.1300  145.6020 C   0  0  0  0  0  3  0  0  0  0  0  0
  161.5860  203.8610  147.9950 C   0  0  0  0  0  0  0  0  0  0  0  0
  161.2070  203.3180  146.7450 C   0  0  0  0  0  0  0  0  0  0  0  0
  161.5870  203.9520  145.5590 C   0  0  0  0  0  3  0  0  0  0  0  0
  161.1870  203.2040  149.1800 C   0  0  0  0  0  0  0  0  0  0  0  0
  160.8890  206.0750  149.9570 C   0  0  0  0  0  2  0  0  0  0  0  0
  161.8570  207.2100  150.0800 C   0  0  0  0  0  0  0  0  0  0  0  0
  163.0060  206.9860  150.4300 O   0  0  0  0  0  0  0  0  0  0  0  0
  161.9020  209.5790  150.8450 C   0  0  0  0  0  2  0  0  0  0  0  0
  162.3310  210.8380  150.1110 C   0  0  0  0  0  2  0  0  0  0  0  0
  161.4100  208.6100  149.7880 C   0  0  0  0  0  3  0  0  0  0  0  0
  161.9550  209.1040  148.4690 C   0  0  0  0  0  2  0  0  0  0  0  0
  162.0720  210.6020  148.6360 C   0  0  0  0  0  2  0  0  0  0  0  0
  160.7610  206.7590  152.8050 C   0  0  0  0  0  2  0  0  0  0  0  0
  161.2330  207.9630  154.8540 N   0  0  0  0  0  0  0  0  0  0  0  0
  160.8390  206.8650  154.2900 C   0  0  0  0  0  3  0  0  0  0  0  0
  161.3160  208.1120  156.2750 C   0  0  0  0  0  0  0  0  0  0  0  0
  162.1350  208.9340  156.7600 O   0  0  0  0  0  0  0  0  0  0  0  0
  160.4510  207.3180  157.1980 C   0  0  0  0  0  1  0  0  0  0  0  0
  1  5  1  0  0  0  0
  1  2  2  0  0  0  0
  3 25  1  0  0  0  0
  3  4  2  0  0  0  0
  5  3  1  0  0  0  0
  6 11  1  0  0  0  0
  7 14  1  0  0  0  0
  7 10  2  0  0  0  0
  8 16  2  0  0  0  0
  8  9  1  0  0  0  0
 10  8  1  0  0  0  0
 12  6  2  0  0  0  0
 13 11  2  0  0  0  0
 13 16  1  0  0  0  0
 14 13  1  0  0  0  0
 15 12  1  0  0  0  0
 15 14  2  0  0  0  0
 16  1  1  0  0  0  0
 17 18  1  0  0  0  0
 17  5  1  0  0  0  0
 18 19  2  0  0  0  0
 21 20  1  0  0  0  0
 22 18  1  0  0  0  0
 22 20  1  0  0  0  0
 23 24  1  0  0  0  0
 23 22  1  0  0  0  0
 24 21  1  0  0  0  0
 25 27  1  0  0  0  0
 26 28  1  0  0  0  0
 27 26  2  0  0  0  0
 28 29  2  0  0  0  0
 28 30  1  0  0  0  0
M  END
>  <MODEL>
9

>  <REMARK>
 VINA RESULT:      -5.5      2.476      8.107
  Name = 
  7 active torsions:
  status: ('A' for Active; 'I' for Inactive)
    1  A    between atoms: C_1  and  N_6
    2  A    between atoms: C_5  and  C_29
    3  A    between atoms: C_8  and  C_15
    4  A    between atoms: C_13  and  C_19
    5  A    between atoms: C_13  and  N_30
    6  A    between atoms: C_15  and  C_23
    7  A    between atoms: C_19  and  C_20
                            x       y       z     vdW  Elec       q    Type
                         _______ _______ _______ _____ _____    ______ ____

>  <TORSDO>
F 7

$$$$
