=
 OpenBabel11042422563D

 62 68  0  0  1  0  0  0  0  0999 V2000
  161.7480  210.8180  147.4850 C   0  0  0  0  0  2  0  0  0  0  0  0
  161.1370  210.5660  149.9200 N   0  0  0  0  0  0  0  0  0  0  0  0
  162.2200  214.0190  149.3890 O   0  0  0  0  0  1  0  0  0  0  0  0
  162.1480  212.6580  149.2080 C   0  0  1  0  0  3  0  0  0  0  0  0
  160.9080  212.0120  149.8740 C   0  0  0  0  0  2  0  0  0  0  0  0
  161.8050  209.9380  148.7020 C   0  0  1  0  0  3  0  0  0  0  0  0
  162.2590  212.2900  147.7140 C   0  0  2  0  0  3  0  0  0  0  0  0
  161.3530  210.8540  152.4660 C   0  0  0  0  0  3  0  0  0  0  0  0
  160.9940  208.1890  152.9020 C   0  0  0  0  0  0  0  0  0  0  0  0
  161.1110  210.0460  151.2910 C   0  0  0  0  0  0  0  0  0  0  0  0
  161.3130  208.9110  154.0140 C   0  0  0  0  0  0  0  0  0  0  0  0
  160.7800  206.8850  153.0370 F   0  0  0  0  0  0  0  0  0  0  0  0
  161.2930  210.2480  153.7840 C   0  0  0  0  0  0  0  0  0  0  0  0
  161.5020  208.2590  155.3470 C   0  0  0  0  0  1  0  0  0  0  0  0
  160.7250  208.7570  151.6250 C   0  0  0  0  0  3  0  0  0  0  0  0
  161.9140  211.2700  155.8200 O   0  0  0  0  0  0  0  0  0  0  0  0
  161.0220  211.0770  154.9600 C   0  0  0  0  0  0  0  0  0  0  0  0
  159.6900  211.4110  155.3280 C   0  0  0  0  0  2  0  0  0  0  0  0
  159.7300  212.8230  155.8410 C   0  0  0  0  0  2  0  0  0  0  0  0
  158.7080  213.5740  155.1710 N   0  0  0  0  0  2  0  0  0  0  0  0
  157.6700  212.6500  154.7260 C   0  0  0  0  0  2  0  0  0  0  0  0
  156.2770  214.3500  153.4770 C   0  0  0  0  0  2  0  0  0  0  0  0
  155.6010  214.3420  152.0590 C   0  0  0  0  0  2  0  0  0  0  0  0
  157.7450  213.1980  151.1710 C   0  0  0  0  0  2  0  0  0  0  0  0
  157.1960  213.2000  153.4990 C   0  0  1  0  0  3  0  0  0  0  0  0
  158.3590  213.4100  152.5010 C   0  0  0  0  0  2  0  0  0  0  0  0
  156.6790  214.2520  150.9340 C   0  0  1  0  0  3  0  0  0  0  0  0
  156.9510  213.3860  148.5890 N   0  0  0  0  0  1  0  0  0  0  0  0
  156.0340  214.0060  149.5790 C   0  0  0  0  0  2  0  0  0  0  0  0
  161.9070  208.4380  148.3600 C   0  0  0  0  0  0  0  0  0  0  0  0
  160.9160  206.5050  147.2710 C   0  0  0  0  0  0  0  0  0  0  0  0
  163.0320  207.5590  148.6050 C   0  0  0  0  0  3  0  0  0  0  0  0
  161.9800  205.6490  147.4480 C   0  0  0  0  0  0  0  0  0  0  0  0
  160.2090  206.2810  146.1610 F   0  0  0  0  0  0  0  0  0  0  0  0
  163.0480  206.2200  148.0610 C   0  0  0  0  0  3  0  0  0  0  0  0
  160.8530  207.8060  147.7620 C   0  0  0  0  0  3  0  0  0  0  0  0
  162.0570  204.3610  146.6600 C   0  0  0  0  0  2  0  0  0  0  0  0
  161.2930  200.6990  148.3410 N   0  0  0  0  0  0  0  0  0  0  0  0
  160.8550  202.1000  146.3140 C   0  0  0  0  0  2  0  0  0  0  0  0
  160.6760  203.1520  148.6830 C   0  0  0  0  0  2  0  0  0  0  0  0
  161.7350  200.9860  146.9300 C   0  0  0  0  0  2  0  0  0  0  0  0
  160.9660  203.3630  147.1130 C   0  0  1  0  0  3  0  0  0  0  0  0
  160.9050  201.6930  149.2110 C   0  0  0  0  0  0  0  0  0  0  0  0
  160.0830  200.4260  151.0660 O   0  0  0  0  0  0  0  0  0  0  0  0
  161.4290  202.0760  151.6640 O   0  0  0  0  0  1  0  0  0  0  0  0
  160.7830  201.3410  150.6880 C   0  0  0  0  0  0  0  0  0  0  0  0
  161.5810  213.3170  146.7250 C   0  0  0  0  0  2  0  0  0  0  0  0
  162.0810  213.8580  143.8460 C   0  0  1  0  0  3  0  0  0  0  0  0
  161.1080  214.3050  144.7860 C   0  0  0  0  0  2  0  0  0  0  0  0
  162.2060  213.4710  145.3500 N   0  0  0  0  0  0  0  0  0  0  0  0
  160.6830  211.4150  139.9820 N   0  0  0  0  0  0  0  0  0  0  0  0
  162.7840  210.5440  140.2510 O   0  0  0  0  0  0  0  0  0  0  0  0
  161.9550  211.3960  140.7190 C   0  0  0  0  0  0  0  0  0  0  0  0
  159.1650  212.4820  141.4300 O   0  0  0  0  0  0  0  0  0  0  0  0
  162.3260  212.2010  141.8240 N   0  0  0  0  0  2  0  0  0  0  0  0
  161.4460  212.8640  142.8120 C   0  0  1  0  0  3  0  0  0  0  0  0
  159.8630  211.9970  143.0280 S   0  0  0  0  0  0  0  0  0  0  0  0
  159.5280  211.8900  140.2090 C   0  0  0  0  0  0  0  0  0  0  0  0
  158.4800  211.5830  139.2040 C   0  0  0  0  0  2  0  0  0  0  0  0
  156.4760  209.9270  139.0870 C   0  0  0  0  0  1  0  0  0  0  0  0
  157.9520  210.1680  138.9760 C   0  0  0  0  0  3  0  0  0  0  0  0
  158.5520  209.5160  137.6940 C   0  0  0  0  0  1  0  0  0  0  0  0
  1  7  1  0  0  0  0
  1  6  1  0  0  0  0
  2 10  1  0  0  0  0
  4  3  1  6  0  0  0
  4  5  1  0  0  0  0
  5  2  1  0  0  0  0
  6 30  1  6  0  0  0
  6  2  1  0  0  0  0
  7 47  1  6  0  0  0
  7  4  1  0  0  0  0
  8 13  1  0  0  0  0
  9 12  1  0  0  0  0
  9 11  1  0  0  0  0
 10 15  1  0  0  0  0
 10  8  2  0  0  0  0
 11 14  1  0  0  0  0
 13 11  2  0  0  0  0
 13 17  1  0  0  0  0
 15  9  2  0  0  0  0
 17 18  1  0  0  0  0
 17 16  2  0  0  0  0
 18 19  1  0  0  0  0
 20 19  1  0  0  0  0
 21 20  1  0  0  0  0
 22 25  1  0  0  0  0
 23 22  1  0  0  0  0
 24 26  1  0  0  0  0
 25 21  1  1  0  0  0
 26 25  1  0  0  0  0
 27 29  1  6  0  0  0
 27 24  1  0  0  0  0
 27 23  1  0  0  0  0
 28 29  1  0  0  0  0
 30 32  1  0  0  0  0
 31 33  2  0  0  0  0
 31 36  1  0  0  0  0
 33 35  1  0  0  0  0
 34 31  1  0  0  0  0
 35 32  2  0  0  0  0
 36 30  2  0  0  0  0
 37 33  1  0  0  0  0
 38 43  2  0  0  0  0
 39 41  1  0  0  0  0
 39 42  1  0  0  0  0
 40 43  1  0  0  0  0
 41 38  1  0  0  0  0
 42 37  1  1  0  0  0
 42 40  1  0  0  0  0
 43 46  1  0  0  0  0
 46 44  2  0  0  0  0
 46 45  1  0  0  0  0
 48 49  1  1  0  0  0
 48 50  1  0  0  0  0
 49 50  1  0  0  0  0
 50 47  1  0  0  0  0
 51 58  2  0  0  0  0
 51 53  1  0  0  0  0
 52 53  2  0  0  0  0
 53 55  1  0  0  0  0
 54 57  1  0  0  0  0
 56 55  1  1  0  0  0
 56 57  1  0  0  0  0
 56 48  1  0  0  0  0
 58 54  1  0  0  0  0
 59 58  1  0  0  0  0
 61 60  1  0  0  0  0
 61 59  1  0  0  0  0
 62 61  1  0  0  0  0
M  END
>  <MODEL>
1

>  <REMARK>
 VINA RESULT:      -4.3      0.000      0.000
  Name = 
  17 active torsions:
  status: ('A' for Active; 'I' for Inactive)
    1  A    between atoms: C_1  and  N_35
    2  A    between atoms: C_1  and  C_60
    3  A    between atoms: C_2  and  C_49
    4  A    between atoms: C_5  and  C_48
    5  A    between atoms: C_11  and  C_41
    6  A    between atoms: N_14  and  C_17
    7  A    between atoms: N_14  and  C_33
    8  A    between atoms: C_17  and  C_36
    9  A    between atoms: C_18  and  C_29
   10  A    between atoms: N_22  and  C_28
   11  A    between atoms: C_29  and  C_47
   12  A    between atoms: C_33  and  C_52
   13  A    between atoms: C_36  and  C_54
   14  A    between atoms: C_40  and  C_54
   15  A    between atoms: C_41  and  C_62
   16  A    between atoms: C_53  and  C_58
   17  A    between atoms: CA_56  and  C_61
                            x       y       z     vdW  Elec       q    Type
                         _______ _______ _______ _____ _____    ______ ____

>  <TORSDO>
F 17

$$$$
=
 OpenBabel11042422563D

 62 68  0  0  1  0  0  0  0  0999 V2000
  161.7550  209.7800  147.6510 C   0  0  0  0  0  2  0  0  0  0  0  0
  161.0940  208.5520  149.7540 N   0  0  0  0  0  0  0  0  0  0  0  0
  162.5600  211.7540  150.7430 O   0  0  0  0  0  1  0  0  0  0  0  0
  162.3390  210.6260  149.9880 C   0  0  1  0  0  3  0  0  0  0  0  0
  161.0280  209.8870  150.3530 C   0  0  0  0  0  2  0  0  0  0  0  0
  161.7010  208.4550  148.3590 C   0  0  1  0  0  3  0  0  0  0  0  0
  162.4240  210.9410  148.4800 C   0  0  2  0  0  3  0  0  0  0  0  0
  161.2490  207.6860  152.1700 C   0  0  0  0  0  3  0  0  0  0  0  0
  160.7230  205.1270  151.3970 C   0  0  0  0  0  0  0  0  0  0  0  0
  160.9970  207.4890  150.7600 C   0  0  0  0  0  0  0  0  0  0  0  0
  161.0490  205.2700  152.7130 C   0  0  0  0  0  0  0  0  0  0  0  0
  160.4300  203.9120  150.9480 F   0  0  0  0  0  0  0  0  0  0  0  0
  161.1130  206.5710  153.0900 C   0  0  0  0  0  0  0  0  0  0  0  0
  161.1590  204.0910  153.6280 C   0  0  0  0  0  1  0  0  0  0  0  0
  160.5270  206.2120  150.4970 C   0  0  0  0  0  3  0  0  0  0  0  0
  159.7730  206.4590  155.0320 O   0  0  0  0  0  0  0  0  0  0  0  0
  160.8550  206.8210  154.5110 C   0  0  0  0  0  0  0  0  0  0  0  0
  161.6480  207.7420  155.2470 C   0  0  0  0  0  2  0  0  0  0  0  0
  160.8050  208.2010  156.4040 C   0  0  0  0  0  2  0  0  0  0  0  0
  160.5380  209.6010  156.2390 N   0  0  0  0  0  2  0  0  0  0  0  0
  159.1350  209.7650  155.8720 C   0  0  0  0  0  2  0  0  0  0  0  0
  159.0720  212.2870  155.7110 C   0  0  0  0  0  2  0  0  0  0  0  0
  158.5400  213.2740  154.6110 C   0  0  0  0  0  2  0  0  0  0  0  0
  159.5520  211.6710  152.8500 C   0  0  0  0  0  2  0  0  0  0  0  0
  159.1020  210.9540  155.0860 C   0  0  1  0  0  3  0  0  0  0  0  0
  160.1590  210.9020  153.9590 C   0  0  0  0  0  2  0  0  0  0  0  0
  159.3490  213.1110  153.2870 C   0  0  1  0  0  3  0  0  0  0  0  0
  158.9780  213.3150  150.8070 N   0  0  0  0  0  1  0  0  0  0  0  0
  158.6970  213.8840  152.1510 C   0  0  0  0  0  2  0  0  0  0  0  0
  161.6400  207.2560  147.3920 C   0  0  0  0  0  0  0  0  0  0  0  0
  162.7420  205.2920  146.4790 C   0  0  0  0  0  0  0  0  0  0  0  0
  160.5000  206.8170  146.6140 C   0  0  0  0  0  3  0  0  0  0  0  0
  161.6690  204.8190  145.7570 C   0  0  0  0  0  0  0  0  0  0  0  0
  163.5550  204.3400  146.9420 F   0  0  0  0  0  0  0  0  0  0  0  0
  160.5430  205.5650  145.8920 C   0  0  0  0  0  3  0  0  0  0  0  0
  162.7500  206.4830  147.2000 C   0  0  0  0  0  3  0  0  0  0  0  0
  161.6750  203.4020  145.2290 C   0  0  0  0  0  2  0  0  0  0  0  0
  161.1360  200.0990  147.6000 N   0  0  0  0  0  0  0  0  0  0  0  0
  160.4390  201.1420  145.4340 C   0  0  0  0  0  2  0  0  0  0  0  0
  160.5690  202.5870  147.5890 C   0  0  0  0  0  2  0  0  0  0  0  0
  161.3920  200.1310  146.1160 C   0  0  0  0  0  2  0  0  0  0  0  0
  160.6530  202.5210  145.9830 C   0  0  1  0  0  3  0  0  0  0  0  0
  160.8640  201.2350  148.3280 C   0  0  0  0  0  0  0  0  0  0  0  0
  161.9800  201.2940  150.4420 O   0  0  0  0  0  0  0  0  0  0  0  0
  159.8210  200.8430  150.6070 O   0  0  0  0  0  1  0  0  0  0  0  0
  160.9340  201.1440  149.8470 C   0  0  0  0  0  0  0  0  0  0  0  0
  161.8750  212.3620  148.0670 C   0  0  0  0  0  2  0  0  0  0  0  0
  162.5400  214.0950  145.7460 C   0  0  1  0  0  3  0  0  0  0  0  0
  161.5570  214.1490  146.7760 C   0  0  0  0  0  2  0  0  0  0  0  0
  162.5700  213.0660  146.9160 N   0  0  0  0  0  0  0  0  0  0  0  0
  159.9100  212.3600  142.1500 N   0  0  0  0  0  0  0  0  0  0  0  0
  158.4750  213.9600  142.9430 O   0  0  0  0  0  0  0  0  0  0  0  0
  159.6130  213.4110  143.1360 C   0  0  0  0  0  0  0  0  0  0  0  0
  162.2390  212.0500  142.2870 O   0  0  0  0  0  0  0  0  0  0  0  0
  160.4190  213.8300  144.2220 N   0  0  0  0  0  2  0  0  0  0  0  0
  161.8880  213.7240  144.3690 C   0  0  1  0  0  3  0  0  0  0  0  0
  162.7490  213.7190  142.7680 S   0  0  0  0  0  0  0  0  0  0  0  0
  160.9590  211.7360  141.8020 C   0  0  0  0  0  0  0  0  0  0  0  0
  160.8190  210.7960  140.6610 C   0  0  0  0  0  2  0  0  0  0  0  0
  161.9640  208.6500  139.7400 C   0  0  0  0  0  1  0  0  0  0  0  0
  162.0200  210.1250  139.9990 C   0  0  0  0  0  3  0  0  0  0  0  0
  162.5220  210.9150  138.7530 C   0  0  0  0  0  1  0  0  0  0  0  0
  1  6  1  0  0  0  0
  1  7  1  0  0  0  0
  2  5  1  0  0  0  0
  2 10  1  0  0  0  0
  4  5  1  0  0  0  0
  4  3  1  1  0  0  0
  6 30  1  6  0  0  0
  6  2  1  0  0  0  0
  7 47  1  1  0  0  0
  7  4  1  0  0  0  0
  8 13  1  0  0  0  0
  9 11  1  0  0  0  0
 10  8  2  0  0  0  0
 11 13  2  0  0  0  0
 11 14  1  0  0  0  0
 12  9  1  0  0  0  0
 13 17  1  0  0  0  0
 15 10  1  0  0  0  0
 15  9  2  0  0  0  0
 17 16  2  0  0  0  0
 17 18  1  0  0  0  0
 18 19  1  0  0  0  0
 20 19  1  0  0  0  0
 21 20  1  0  0  0  0
 23 22  1  0  0  0  0
 24 27  1  0  0  0  0
 24 26  1  0  0  0  0
 25 22  1  0  0  0  0
 25 21  1  1  0  0  0
 26 25  1  0  0  0  0
 27 29  1  6  0  0  0
 27 23  1  0  0  0  0
 28 29  1  0  0  0  0
 31 34  1  0  0  0  0
 31 36  2  0  0  0  0
 32 30  2  0  0  0  0
 33 35  2  0  0  0  0
 33 31  1  0  0  0  0
 35 32  1  0  0  0  0
 36 30  1  0  0  0  0
 37 33  1  0  0  0  0
 38 43  2  0  0  0  0
 39 42  1  0  0  0  0
 39 41  1  0  0  0  0
 40 43  1  0  0  0  0
 41 38  1  0  0  0  0
 42 37  1  1  0  0  0
 42 40  1  0  0  0  0
 43 46  1  0  0  0  0
 46 44  2  0  0  0  0
 46 45  1  0  0  0  0
 48 49  1  1  0  0  0
 48 50  1  0  0  0  0
 49 50  1  0  0  0  0
 50 47  1  0  0  0  0
 51 53  1  0  0  0  0
 52 53  2  0  0  0  0
 53 55  1  0  0  0  0
 54 57  1  0  0  0  0
 55 56  1  0  0  0  0
 56 57  1  6  0  0  0
 56 48  1  0  0  0  0
 58 51  2  0  0  0  0
 58 54  1  0  0  0  0
 59 58  1  0  0  0  0
 60 61  1  0  0  0  0
 61 59  1  0  0  0  0
 62 61  1  0  0  0  0
M  END
>  <MODEL>
2

>  <REMARK>
 VINA RESULT:      -4.2      2.140      3.150
  Name = 
  17 active torsions:
  status: ('A' for Active; 'I' for Inactive)
    1  A    between atoms: C_1  and  N_35
    2  A    between atoms: C_1  and  C_60
    3  A    between atoms: C_2  and  C_49
    4  A    between atoms: C_5  and  C_48
    5  A    between atoms: C_11  and  C_41
    6  A    between atoms: N_14  and  C_17
    7  A    between atoms: N_14  and  C_33
    8  A    between atoms: C_17  and  C_36
    9  A    between atoms: C_18  and  C_29
   10  A    between atoms: N_22  and  C_28
   11  A    between atoms: C_29  and  C_47
   12  A    between atoms: C_33  and  C_52
   13  A    between atoms: C_36  and  C_54
   14  A    between atoms: C_40  and  C_54
   15  A    between atoms: C_41  and  C_62
   16  A    between atoms: C_53  and  C_58
   17  A    between atoms: CA_56  and  C_61
                            x       y       z     vdW  Elec       q    Type
                         _______ _______ _______ _____ _____    ______ ____

>  <TORSDO>
F 17

$$$$
=
 OpenBabel11042422563D

 62 68  0  0  1  0  0  0  0  0999 V2000
  161.2290  208.2470  152.1800 C   0  0  0  0  0  2  0  0  0  0  0  0
  161.4540  209.5860  150.0530 N   0  0  0  0  0  0  0  0  0  0  0  0
  163.7720  206.7640  149.8490 O   0  0  0  0  0  1  0  0  0  0  0  0
  163.0120  207.7580  150.4200 C   0  0  1  0  0  3  0  0  0  0  0  0
  161.9310  208.3300  149.4710 C   0  0  0  0  0  2  0  0  0  0  0  0
  161.2820  209.6190  151.5680 C   0  0  1  0  0  3  0  0  0  0  0  0
  162.4150  207.2960  151.7660 C   0  0  2  0  0  3  0  0  0  0  0  0
  160.6820  211.1880  148.1960 C   0  0  0  0  0  3  0  0  0  0  0  0
  163.0890  212.4640  148.1540 C   0  0  0  0  0  0  0  0  0  0  0  0
  161.6620  210.7260  149.1540 C   0  0  0  0  0  0  0  0  0  0  0  0
  162.2190  212.8550  147.1800 C   0  0  0  0  0  0  0  0  0  0  0  0
  164.2760  213.0560  148.2130 F   0  0  0  0  0  0  0  0  0  0  0  0
  160.9780  212.3360  147.3580 C   0  0  0  0  0  0  0  0  0  0  0  0
  162.6000  213.8660  146.1440 C   0  0  0  0  0  1  0  0  0  0  0  0
  162.7620  211.5670  149.2090 C   0  0  0  0  0  3  0  0  0  0  0  0
  159.4120  214.1030  147.4040 O   0  0  0  0  0  0  0  0  0  0  0  0
  159.8860  213.1240  146.7810 C   0  0  0  0  0  0  0  0  0  0  0  0
  159.1260  212.6280  145.6870 C   0  0  0  0  0  2  0  0  0  0  0  0
  159.7990  213.1270  144.4390 C   0  0  0  0  0  2  0  0  0  0  0  0
  160.0590  212.0020  143.5870 N   0  0  0  0  0  2  0  0  0  0  0  0
  159.5890  212.3200  142.2430 C   0  0  0  0  0  2  0  0  0  0  0  0
  161.9870  212.9790  141.7920 C   0  0  0  0  0  2  0  0  0  0  0  0
  162.8330  213.0970  140.4720 C   0  0  0  0  0  2  0  0  0  0  0  0
  161.6900  210.9130  139.6850 C   0  0  0  0  0  2  0  0  0  0  0  0
  160.7560  212.2590  141.4260 C   0  0  1  0  0  3  0  0  0  0  0  0
  161.0750  210.8000  141.0260 C   0  0  0  0  0  2  0  0  0  0  0  0
  162.9830  211.7030  139.7880 C   0  0  1  0  0  3  0  0  0  0  0  0
  162.6500  212.3950  137.3930 N   0  0  0  0  0  1  0  0  0  0  0  0
  163.5900  211.8390  138.4000 C   0  0  0  0  0  2  0  0  0  0  0  0
  160.5440  210.6830  152.4040 C   0  0  0  0  0  0  0  0  0  0  0  0
  159.7740  211.4110  154.5910 C   0  0  0  0  0  0  0  0  0  0  0  0
  160.0570  211.9690  151.9500 C   0  0  0  0  0  3  0  0  0  0  0  0
  159.3350  212.6580  154.2080 C   0  0  0  0  0  0  0  0  0  0  0  0
  160.2320  211.3500  155.8430 F   0  0  0  0  0  0  0  0  0  0  0  0
  159.5460  212.9360  152.8950 C   0  0  0  0  0  3  0  0  0  0  0  0
  160.2840  210.4480  153.7250 C   0  0  0  0  0  3  0  0  0  0  0  0
  159.0450  213.7140  155.2500 C   0  0  0  0  0  2  0  0  0  0  0  0
  155.2670  212.3990  154.3470 N   0  0  0  0  0  0  0  0  0  0  0  0
  156.5990  214.4530  154.8620 C   0  0  0  0  0  2  0  0  0  0  0  0
  156.9440  212.2950  156.2670 C   0  0  0  0  0  2  0  0  0  0  0  0
  155.9990  213.5680  153.7430 C   0  0  0  0  0  2  0  0  0  0  0  0
  157.5650  213.6660  155.6960 C   0  0  1  0  0  3  0  0  0  0  0  0
  155.7380  211.7190  155.4470 C   0  0  0  0  0  0  0  0  0  0  0  0
  155.1970  209.4260  155.0340 O   0  0  0  0  0  0  0  0  0  0  0  0
  154.3560  210.1930  156.9300 O   0  0  0  0  0  1  0  0  0  0  0  0
  155.1030  210.3750  155.7830 C   0  0  0  0  0  0  0  0  0  0  0  0
  162.0040  205.7730  151.8220 C   0  0  0  0  0  2  0  0  0  0  0  0
  160.0800  204.1710  150.2200 C   0  0  1  0  0  3  0  0  0  0  0  0
  160.8380  203.9230  151.4010 C   0  0  0  0  0  2  0  0  0  0  0  0
  160.9020  205.3170  150.8810 N   0  0  0  0  0  0  0  0  0  0  0  0
  161.1620  202.3180  145.9480 N   0  0  0  0  0  0  0  0  0  0  0  0
  162.3430  204.2770  145.8300 O   0  0  0  0  0  0  0  0  0  0  0  0
  161.5500  203.5960  146.5650 C   0  0  0  0  0  0  0  0  0  0  0  0
  160.3420  201.0160  147.7280 O   0  0  0  0  0  0  0  0  0  0  0  0
  161.1360  204.1120  147.8170 N   0  0  0  0  0  2  0  0  0  0  0  0
  160.6590  203.3680  149.0040 C   0  0  1  0  0  3  0  0  0  0  0  0
  161.3350  201.6820  149.0870 S   0  0  0  0  0  0  0  0  0  0  0  0
  160.6190  201.2530  146.3720 C   0  0  0  0  0  0  0  0  0  0  0  0
  160.4970  200.1410  145.3950 C   0  0  0  0  0  2  0  0  0  0  0  0
  161.8910  198.3200  146.6230 C   0  0  0  0  0  1  0  0  0  0  0  0
  161.4930  198.9850  145.3400 C   0  0  0  0  0  3  0  0  0  0  0  0
  161.1280  197.9460  144.2370 C   0  0  0  0  0  1  0  0  0  0  0  0
  2  6  1  0  0  0  0
  4  3  1  6  0  0  0
  4  7  1  0  0  0  0
  5  2  1  0  0  0  0
  5  4  1  0  0  0  0
  6  1  1  0  0  0  0
  6 30  1  6  0  0  0
  7 47  1  6  0  0  0
  7  1  1  0  0  0  0
  8 10  1  0  0  0  0
  9 12  1  0  0  0  0
  9 15  1  0  0  0  0
 10 15  2  0  0  0  0
 10  2  1  0  0  0  0
 11 13  1  0  0  0  0
 11  9  2  0  0  0  0
 13  8  2  0  0  0  0
 14 11  1  0  0  0  0
 17 13  1  0  0  0  0
 17 16  2  0  0  0  0
 18 17  1  0  0  0  0
 19 18  1  0  0  0  0
 20 19  1  0  0  0  0
 21 20  1  0  0  0  0
 23 22  1  0  0  0  0
 24 27  1  0  0  0  0
 24 26  1  0  0  0  0
 25 22  1  0  0  0  0
 25 21  1  1  0  0  0
 26 25  1  0  0  0  0
 27 29  1  6  0  0  0
 27 23  1  0  0  0  0
 28 29  1  0  0  0  0
 30 36  1  0  0  0  0
 31 34  1  0  0  0  0
 32 30  2  0  0  0  0
 32 35  1  0  0  0  0
 33 31  1  0  0  0  0
 33 37  1  0  0  0  0
 35 33  2  0  0  0  0
 36 31  2  0  0  0  0
 38 43  2  0  0  0  0
 39 42  1  0  0  0  0
 41 38  1  0  0  0  0
 41 39  1  0  0  0  0
 42 37  1  6  0  0  0
 42 40  1  0  0  0  0
 43 46  1  0  0  0  0
 43 40  1  0  0  0  0
 44 46  2  0  0  0  0
 46 45  1  0  0  0  0
 48 50  1  0  0  0  0
 48 49  1  1  0  0  0
 50 49  1  0  0  0  0
 50 47  1  0  0  0  0
 51 58  2  0  0  0  0
 51 53  1  0  0  0  0
 52 53  2  0  0  0  0
 53 55  1  0  0  0  0
 54 57  1  0  0  0  0
 56 55  1  1  0  0  0
 56 57  1  0  0  0  0
 56 48  1  0  0  0  0
 58 54  1  0  0  0  0
 59 58  1  0  0  0  0
 61 59  1  0  0  0  0
 61 60  1  0  0  0  0
 62 61  1  0  0  0  0
M  END
>  <MODEL>
3

>  <REMARK>
 VINA RESULT:      -3.4      3.417     10.667
  Name = 
  17 active torsions:
  status: ('A' for Active; 'I' for Inactive)
    1  A    between atoms: C_1  and  N_35
    2  A    between atoms: C_1  and  C_60
    3  A    between atoms: C_2  and  C_49
    4  A    between atoms: C_5  and  C_48
    5  A    between atoms: C_11  and  C_41
    6  A    between atoms: N_14  and  C_17
    7  A    between atoms: N_14  and  C_33
    8  A    between atoms: C_17  and  C_36
    9  A    between atoms: C_18  and  C_29
   10  A    between atoms: N_22  and  C_28
   11  A    between atoms: C_29  and  C_47
   12  A    between atoms: C_33  and  C_52
   13  A    between atoms: C_36  and  C_54
   14  A    between atoms: C_40  and  C_54
   15  A    between atoms: C_41  and  C_62
   16  A    between atoms: C_53  and  C_58
   17  A    between atoms: CA_56  and  C_61
                            x       y       z     vdW  Elec       q    Type
                         _______ _______ _______ _____ _____    ______ ____

>  <TORSDO>
F 17

$$$$
=
 OpenBabel11042422563D

 62 68  0  0  1  0  0  0  0  0999 V2000
  161.4280  210.7070  148.6490 C   0  0  0  0  0  2  0  0  0  0  0  0
  160.3530  211.8000  150.6540 N   0  0  0  0  0  0  0  0  0  0  0  0
  161.4340  214.4530  148.3800 O   0  0  0  0  0  1  0  0  0  0  0  0
  161.4330  213.2340  149.0160 C   0  0  1  0  0  3  0  0  0  0  0  0
  160.1030  212.9180  149.7420 C   0  0  0  0  0  2  0  0  0  0  0  0
  161.2650  210.6890  150.1440 C   0  0  1  0  0  3  0  0  0  0  0  0
  161.8480  212.1030  148.0510 C   0  0  2  0  0  3  0  0  0  0  0  0
  158.9230  212.9250  152.4710 C   0  0  0  0  0  3  0  0  0  0  0  0
  160.6950  212.2500  154.4280 C   0  0  0  0  0  0  0  0  0  0  0  0
  160.0690  212.1500  152.0490 C   0  0  0  0  0  0  0  0  0  0  0  0
  159.6750  213.0590  154.8350 C   0  0  0  0  0  0  0  0  0  0  0  0
  161.5870  211.8590  155.3300 F   0  0  0  0  0  0  0  0  0  0  0  0
  158.7230  213.2090  153.8800 C   0  0  0  0  0  0  0  0  0  0  0  0
  159.5890  213.5700  156.2390 C   0  0  0  0  0  1  0  0  0  0  0  0
  160.7910  211.6710  153.1320 C   0  0  0  0  0  3  0  0  0  0  0  0
  157.2090  214.4500  155.2010 O   0  0  0  0  0  0  0  0  0  0  0  0
  157.3810  213.5160  154.3830 C   0  0  0  0  0  0  0  0  0  0  0  0
  156.3130  212.5930  154.2240 C   0  0  0  0  0  2  0  0  0  0  0  0
  155.7070  212.4030  155.5880 C   0  0  0  0  0  2  0  0  0  0  0  0
  156.4650  211.4020  156.2810 N   0  0  0  0  0  2  0  0  0  0  0  0
  157.0430  210.4930  155.2970 C   0  0  0  0  0  2  0  0  0  0  0  0
  158.7130  210.5510  157.1930 C   0  0  0  0  0  2  0  0  0  0  0  0
  160.2710  210.3580  157.2510 C   0  0  0  0  0  2  0  0  0  0  0  0
  159.9760  208.4270  155.5530 C   0  0  0  0  0  2  0  0  0  0  0  0
  158.2930  210.0980  155.8570 C   0  0  1  0  0  3  0  0  0  0  0  0
  158.5120  208.5750  155.7030 C   0  0  0  0  0  2  0  0  0  0  0  0
  160.6630  208.9110  156.8180 C   0  0  1  0  0  3  0  0  0  0  0  0
  162.9170  210.0070  157.0290 N   0  0  0  0  0  1  0  0  0  0  0  0
  162.1690  208.7830  156.6420 C   0  0  0  0  0  2  0  0  0  0  0  0
  161.4700  209.2900  150.7570 C   0  0  0  0  0  0  0  0  0  0  0  0
  162.1130  206.9710  150.4210 C   0  0  0  0  0  0  0  0  0  0  0  0
  161.3950  208.9290  152.1580 C   0  0  0  0  0  3  0  0  0  0  0  0
  162.0930  206.5970  151.7450 C   0  0  0  0  0  0  0  0  0  0  0  0
  163.0110  206.3170  149.6790 F   0  0  0  0  0  0  0  0  0  0  0  0
  161.7920  207.6110  152.5980 C   0  0  0  0  0  3  0  0  0  0  0  0
  161.7530  208.2280  149.9440 C   0  0  0  0  0  3  0  0  0  0  0  0
  162.7460  205.3050  152.1800 C   0  0  0  0  0  2  0  0  0  0  0  0
  159.8230  203.5850  149.8740 N   0  0  0  0  0  0  0  0  0  0  0  0
  160.3190  204.4170  152.1810 C   0  0  0  0  0  2  0  0  0  0  0  0
  162.0740  202.9800  150.9130 C   0  0  0  0  0  2  0  0  0  0  0  0
  159.6810  204.7540  150.8120 C   0  0  0  0  0  2  0  0  0  0  0  0
  161.7780  204.1100  152.0220 C   0  0  1  0  0  3  0  0  0  0  0  0
  160.9620  202.8150  149.8180 C   0  0  0  0  0  0  0  0  0  0  0  0
  161.0900  200.6680  148.7740 O   0  0  0  0  0  1  0  0  0  0  0  0
  161.3790  202.3440  147.3610 O   0  0  0  0  0  0  0  0  0  0  0  0
  161.1300  201.8710  148.6340 C   0  0  0  0  0  0  0  0  0  0  0  0
  161.3530  212.2870  146.5630 C   0  0  0  0  0  2  0  0  0  0  0  0
  162.4480  214.1850  144.5550 C   0  0  1  0  0  3  0  0  0  0  0  0
  161.2840  214.1710  145.3770 C   0  0  0  0  0  2  0  0  0  0  0  0
  162.2560  213.0690  145.6250 N   0  0  0  0  0  0  0  0  0  0  0  0
  160.7360  212.6000  140.3820 N   0  0  0  0  0  0  0  0  0  0  0  0
  158.9070  213.7530  141.1380 O   0  0  0  0  0  0  0  0  0  0  0  0
  160.0980  213.4020  141.4380 C   0  0  0  0  0  0  0  0  0  0  0  0
  163.0390  212.7110  140.8520 O   0  0  0  0  0  0  0  0  0  0  0  0
  160.6480  213.7820  142.6860 N   0  0  0  0  0  2  0  0  0  0  0  0
  162.0750  213.9290  143.0530 C   0  0  1  0  0  3  0  0  0  0  0  0
  163.1220  214.3450  141.6270 S   0  0  0  0  0  0  0  0  0  0  0  0
  161.9280  212.2470  140.1290 C   0  0  0  0  0  0  0  0  0  0  0  0
  162.1390  211.4960  138.8650 C   0  0  0  0  0  2  0  0  0  0  0  0
  161.6290  209.5460  137.2200 C   0  0  0  0  0  1  0  0  0  0  0  0
  161.4130  210.1880  138.5580 C   0  0  0  0  0  3  0  0  0  0  0  0
  161.5350  209.1600  139.7220 C   0  0  0  0  0  1  0  0  0  0  0  0
  1  6  1  0  0  0  0
  2 10  1  0  0  0  0
  4  3  1  6  0  0  0
  4  5  1  0  0  0  0
  5  2  1  0  0  0  0
  6  2  1  0  0  0  0
  6 30  1  6  0  0  0
  7 47  1  6  0  0  0
  7  1  1  0  0  0  0
  7  4  1  0  0  0  0
  8 13  1  0  0  0  0
  9 11  1  0  0  0  0
  9 12  1  0  0  0  0
 10  8  2  0  0  0  0
 10 15  1  0  0  0  0
 11 14  1  0  0  0  0
 13 17  1  0  0  0  0
 13 11  2  0  0  0  0
 15  9  2  0  0  0  0
 17 16  2  0  0  0  0
 18 17  1  0  0  0  0
 18 19  1  0  0  0  0
 19 20  1  0  0  0  0
 21 20  1  0  0  0  0
 22 23  1  0  0  0  0
 24 26  1  0  0  0  0
 24 27  1  0  0  0  0
 25 21  1  1  0  0  0
 25 22  1  0  0  0  0
 26 25  1  0  0  0  0
 27 29  1  6  0  0  0
 27 23  1  0  0  0  0
 29 28  1  0  0  0  0
 30 32  1  0  0  0  0
 31 33  2  0  0  0  0
 32 35  2  0  0  0  0
 33 37  1  0  0  0  0
 33 35  1  0  0  0  0
 34 31  1  0  0  0  0
 36 31  1  0  0  0  0
 36 30  2  0  0  0  0
 38 41  1  0  0  0  0
 40 42  1  0  0  0  0
 41 39  1  0  0  0  0
 42 37  1  6  0  0  0
 42 39  1  0  0  0  0
 43 38  2  0  0  0  0
 43 40  1  0  0  0  0
 45 46  2  0  0  0  0
 46 44  1  0  0  0  0
 46 43  1  0  0  0  0
 48 49  1  1  0  0  0
 48 50  1  0  0  0  0
 49 50  1  0  0  0  0
 50 47  1  0  0  0  0
 51 53  1  0  0  0  0
 52 53  2  0  0  0  0
 53 55  1  0  0  0  0
 54 57  1  0  0  0  0
 55 56  1  0  0  0  0
 56 57  1  6  0  0  0
 56 48  1  0  0  0  0
 58 51  2  0  0  0  0
 58 54  1  0  0  0  0
 59 58  1  0  0  0  0
 60 61  1  0  0  0  0
 61 59  1  0  0  0  0
 61 62  1  0  0  0  0
M  END
>  <MODEL>
4

>  <REMARK>
 VINA RESULT:      -1.8      2.434      4.408
  Name = 
  17 active torsions:
  status: ('A' for Active; 'I' for Inactive)
    1  A    between atoms: C_1  and  N_35
    2  A    between atoms: C_1  and  C_60
    3  A    between atoms: C_2  and  C_49
    4  A    between atoms: C_5  and  C_48
    5  A    between atoms: C_11  and  C_41
    6  A    between atoms: N_14  and  C_17
    7  A    between atoms: N_14  and  C_33
    8  A    between atoms: C_17  and  C_36
    9  A    between atoms: C_18  and  C_29
   10  A    between atoms: N_22  and  C_28
   11  A    between atoms: C_29  and  C_47
   12  A    between atoms: C_33  and  C_52
   13  A    between atoms: C_36  and  C_54
   14  A    between atoms: C_40  and  C_54
   15  A    between atoms: C_41  and  C_62
   16  A    between atoms: C_53  and  C_58
   17  A    between atoms: CA_56  and  C_61
                            x       y       z     vdW  Elec       q    Type
                         _______ _______ _______ _____ _____    ______ ____

>  <TORSDO>
F 17

$$$$
=
 OpenBabel11042422563D

 62 68  0  0  1  0  0  0  0  0999 V2000
  161.9290  210.8190  147.8400 C   0  0  0  0  0  2  0  0  0  0  0  0
  160.8360  211.2270  150.0780 N   0  0  0  0  0  0  0  0  0  0  0  0
  162.0220  214.4460  148.8070 O   0  0  0  0  0  1  0  0  0  0  0  0
  161.9810  213.0870  149.0110 C   0  0  1  0  0  3  0  0  0  0  0  0
  160.6290  212.5880  149.5770 C   0  0  0  0  0  2  0  0  0  0  0  0
  161.7340  210.3200  149.2450 C   0  0  1  0  0  3  0  0  0  0  0  0
  162.3910  212.3210  147.7360 C   0  0  2  0  0  3  0  0  0  0  0  0
  161.5070  210.7640  152.5160 C   0  0  0  0  0  3  0  0  0  0  0  0
  158.9400  211.0490  153.3850 C   0  0  0  0  0  0  0  0  0  0  0  0
  160.5310  211.1120  151.5070 C   0  0  0  0  0  0  0  0  0  0  0  0
  159.8210  210.6300  154.3370 C   0  0  0  0  0  0  0  0  0  0  0  0
  157.6730  211.2340  153.7360 F   0  0  0  0  0  0  0  0  0  0  0  0
  161.1070  210.6870  153.9100 C   0  0  0  0  0  0  0  0  0  0  0  0
  159.3790  210.3020  155.7280 C   0  0  0  0  0  1  0  0  0  0  0  0
  159.3090  211.4490  152.0700 C   0  0  0  0  0  3  0  0  0  0  0  0
  163.3260  210.6870  154.7210 O   0  0  0  0  0  0  0  0  0  0  0  0
  162.1070  210.8500  154.9690 C   0  0  0  0  0  0  0  0  0  0  0  0
  161.7260  210.8700  156.3370 C   0  0  0  0  0  2  0  0  0  0  0  0
  162.6340  209.9060  157.0480 C   0  0  0  0  0  2  0  0  0  0  0  0
  162.5560  208.6390  156.3810 N   0  0  0  0  0  2  0  0  0  0  0  0
  161.2820  208.0140  156.7210 C   0  0  0  0  0  2  0  0  0  0  0  0
  159.6810  206.6060  155.3630 C   0  0  0  0  0  2  0  0  0  0  0  0
  159.8590  205.2820  154.5370 C   0  0  0  0  0  2  0  0  0  0  0  0
  162.1100  206.2450  153.7000 C   0  0  0  0  0  2  0  0  0  0  0  0
  161.0390  207.0870  155.6650 C   0  0  1  0  0  3  0  0  0  0  0  0
  161.7670  207.5190  154.3710 C   0  0  0  0  0  2  0  0  0  0  0  0
  160.8340  205.5060  153.3400 C   0  0  1  0  0  3  0  0  0  0  0  0
  160.0790  203.5780  151.9110 N   0  0  0  0  0  1  0  0  0  0  0  0
  161.1980  204.1850  152.6780 C   0  0  0  0  0  2  0  0  0  0  0  0
  161.8960  208.7920  149.3710 C   0  0  0  0  0  0  0  0  0  0  0  0
  160.9050  206.6640  150.0010 C   0  0  0  0  0  0  0  0  0  0  0  0
  163.0050  207.9870  148.9020 C   0  0  0  0  0  3  0  0  0  0  0  0
  161.9200  205.8610  149.5320 C   0  0  0  0  0  0  0  0  0  0  0  0
  159.6920  206.1090  149.9390 F   0  0  0  0  0  0  0  0  0  0  0  0
  162.9290  206.5440  148.9310 C   0  0  0  0  0  3  0  0  0  0  0  0
  160.9230  208.0560  149.9870 C   0  0  0  0  0  3  0  0  0  0  0  0
  161.6940  204.3770  149.3550 C   0  0  0  0  0  2  0  0  0  0  0  0
  161.6690  202.9650  145.5050 N   0  0  0  0  0  0  0  0  0  0  0  0
  161.0960  204.9560  146.9090 C   0  0  0  0  0  2  0  0  0  0  0  0
  160.4630  202.5690  147.7190 C   0  0  0  0  0  2  0  0  0  0  0  0
  162.1550  204.3070  145.9860 C   0  0  0  0  0  2  0  0  0  0  0  0
  160.8340  204.0880  148.1030 C   0  0  1  0  0  3  0  0  0  0  0  0
  160.9820  202.0920  146.3170 C   0  0  0  0  0  0  0  0  0  0  0  0
  160.0610  200.3710  144.9370 O   0  0  0  0  0  0  0  0  0  0  0  0
  161.4810  199.6090  146.4500 O   0  0  0  0  0  1  0  0  0  0  0  0
  160.8150  200.6540  145.8420 C   0  0  0  0  0  0  0  0  0  0  0  0
  161.9320  212.9930  146.3830 C   0  0  0  0  0  2  0  0  0  0  0  0
  163.3620  213.4280  143.8140 C   0  0  1  0  0  3  0  0  0  0  0  0
  162.4860  214.2220  144.6090 C   0  0  0  0  0  2  0  0  0  0  0  0
  162.8980  212.9240  145.2120 N   0  0  0  0  0  0  0  0  0  0  0  0
  160.9560  211.0800  140.4150 N   0  0  0  0  0  0  0  0  0  0  0  0
  159.2000  211.8730  141.6540 O   0  0  0  0  0  0  0  0  0  0  0  0
  160.4760  211.8270  141.5880 C   0  0  0  0  0  0  0  0  0  0  0  0
  163.1990  211.7450  140.1570 O   0  0  0  0  0  0  0  0  0  0  0  0
  161.2540  212.4460  142.5960 N   0  0  0  0  0  2  0  0  0  0  0  0
  162.6460  212.9420  142.5070 C   0  0  1  0  0  3  0  0  0  0  0  0
  163.1040  213.4290  140.8160 S   0  0  0  0  0  0  0  0  0  0  0  0
  162.0730  210.9750  139.8220 C   0  0  0  0  0  0  0  0  0  0  0  0
  162.0860  210.1620  138.5800 C   0  0  0  0  0  2  0  0  0  0  0  0
  161.6230  207.7560  139.4550 C   0  0  0  0  0  1  0  0  0  0  0  0
  161.3340  208.8380  138.4580 C   0  0  0  0  0  3  0  0  0  0  0  0
  159.8030  209.0470  138.2550 C   0  0  0  0  0  1  0  0  0  0  0  0
  1  6  1  0  0  0  0
  2 10  1  0  0  0  0
  4  3  1  6  0  0  0
  4  5  1  0  0  0  0
  5  2  1  0  0  0  0
  6 30  1  6  0  0  0
  6  2  1  0  0  0  0
  7 47  1  6  0  0  0
  7  1  1  0  0  0  0
  7  4  1  0  0  0  0
  8 13  1  0  0  0  0
  9 12  1  0  0  0  0
  9 11  1  0  0  0  0
 10 15  1  0  0  0  0
 10  8  2  0  0  0  0
 11 14  1  0  0  0  0
 13 11  2  0  0  0  0
 13 17  1  0  0  0  0
 15  9  2  0  0  0  0
 16 17  2  0  0  0  0
 17 18  1  0  0  0  0
 18 19  1  0  0  0  0
 20 21  1  0  0  0  0
 20 19  1  0  0  0  0
 22 25  1  0  0  0  0
 23 22  1  0  0  0  0
 24 26  1  0  0  0  0
 25 21  1  1  0  0  0
 26 25  1  0  0  0  0
 27 29  1  1  0  0  0
 27 24  1  0  0  0  0
 27 23  1  0  0  0  0
 28 29  1  0  0  0  0
 30 36  1  0  0  0  0
 32 35  1  0  0  0  0
 32 30  2  0  0  0  0
 33 31  1  0  0  0  0
 34 31  1  0  0  0  0
 35 33  2  0  0  0  0
 36 31  2  0  0  0  0
 37 33  1  0  0  0  0
 38 41  1  0  0  0  0
 38 43  2  0  0  0  0
 39 42  1  0  0  0  0
 40 42  1  0  0  0  0
 41 39  1  0  0  0  0
 42 37  1  1  0  0  0
 43 40  1  0  0  0  0
 44 46  2  0  0  0  0
 46 43  1  0  0  0  0
 46 45  1  0  0  0  0
 48 49  1  1  0  0  0
 48 50  1  0  0  0  0
 49 50  1  0  0  0  0
 50 47  1  0  0  0  0
 51 53  1  0  0  0  0
 53 52  2  0  0  0  0
 53 55  1  0  0  0  0
 54 57  1  0  0  0  0
 56 57  1  6  0  0  0
 56 55  1  0  0  0  0
 56 48  1  0  0  0  0
 58 54  1  0  0  0  0
 58 51  2  0  0  0  0
 59 58  1  0  0  0  0
 61 59  1  0  0  0  0
 61 60  1  0  0  0  0
 62 61  1  0  0  0  0
M  END
>  <MODEL>
5

>  <REMARK>
 VINA RESULT:      -1.5      2.461      4.406
  Name = 
  17 active torsions:
  status: ('A' for Active; 'I' for Inactive)
    1  A    between atoms: C_1  and  N_35
    2  A    between atoms: C_1  and  C_60
    3  A    between atoms: C_2  and  C_49
    4  A    between atoms: C_5  and  C_48
    5  A    between atoms: C_11  and  C_41
    6  A    between atoms: N_14  and  C_17
    7  A    between atoms: N_14  and  C_33
    8  A    between atoms: C_17  and  C_36
    9  A    between atoms: C_18  and  C_29
   10  A    between atoms: N_22  and  C_28
   11  A    between atoms: C_29  and  C_47
   12  A    between atoms: C_33  and  C_52
   13  A    between atoms: C_36  and  C_54
   14  A    between atoms: C_40  and  C_54
   15  A    between atoms: C_41  and  C_62
   16  A    between atoms: C_53  and  C_58
   17  A    between atoms: CA_56  and  C_61
                            x       y       z     vdW  Elec       q    Type
                         _______ _______ _______ _____ _____    ______ ____

>  <TORSDO>
F 17

$$$$
