=
 OpenBabel11042422273D

 34 36  0  0  1  0  0  0  0  0999 V2000
  160.9460  207.0030  152.4640 C   0  0  0  0  0  0  0  0  0  0  0  0
  160.8500  206.6150  153.7500 C   0  0  0  0  0  3  0  0  0  0  0  0
  161.3210  204.6260  151.7320 C   0  0  0  0  0  3  0  0  0  0  0  0
  160.7860  205.2890  149.0720 C   0  0  0  0  0  3  0  0  0  0  0  0
  161.3710  203.6410  150.7430 C   0  0  0  0  0  3  0  0  0  0  0  0
  161.0040  205.9560  151.4070 C   0  0  0  0  0  0  0  0  0  0  0  0
  160.7370  206.2730  150.0630 C   0  0  0  0  0  3  0  0  0  0  0  0
  161.0990  203.9690  149.4130 C   0  0  0  0  0  0  0  0  0  0  0  0
  161.1800  202.9240  148.3550 C   0  0  0  0  0  2  0  0  0  0  0  0
  161.1060  203.2270  145.8810 C   0  0  0  0  0  3  0  0  0  0  0  0
  162.6650  204.6510  145.6490 C   0  0  0  0  0  3  0  0  0  0  0  0
  162.5720  204.3950  146.9680 N   0  0  0  0  0  0  0  0  0  0  0  0
  161.7610  203.9370  144.9420 N   0  0  0  0  0  0  0  0  0  0  0  0
  161.5960  203.5160  147.0950 N   0  0  0  0  0  0  0  0  0  0  0  0
  160.1510  209.2470  152.4680 O   0  0  0  0  0  0  0  0  0  0  0  0
  161.0320  208.4320  152.0810 C   0  0  0  0  0  0  0  0  0  0  0  0
  162.1380  208.8950  151.3070 N   0  0  0  0  0  2  0  0  0  0  0  0
  162.2480  210.2400  150.9390 N   0  0  0  0  0  0  0  0  0  0  0  0
  162.0330  210.5960  149.7170 C   0  0  0  0  0  3  0  0  0  0  0  0
  162.7840  212.1090  147.9550 C   0  0  0  0  0  2  0  0  0  0  0  0
  160.2760  212.7790  150.6170 F   0  0  0  0  0  0  0  0  0  0  0  0
  160.7700  212.7150  149.3270 C   0  0  2  0  0  3  0  0  0  0  0  0
  161.5280  214.0960  147.4540 N   0  0  0  0  0  0  0  0  0  0  0  0
  162.4970  213.1000  147.1080 C   0  0  0  0  0  3  0  0  0  0  0  0
  162.1430  212.0280  149.3140 C   0  0  1  0  0  3  0  0  0  0  0  0
  160.9100  214.1330  148.7770 C   0  0  0  0  0  2  0  0  0  0  0  0
  159.6350  207.4240  155.6390 O   0  0  0  0  0  0  0  0  0  0  0  0
  160.6870  207.4650  154.9440 C   0  0  0  0  0  0  0  0  0  0  0  0
  161.7520  208.2830  155.3260 O   0  0  0  0  0  0  0  0  0  0  0  0
  161.5710  209.4570  156.1120 C   0  0  1  0  0  3  0  0  0  0  0  0
  162.6460  209.5450  157.1820 C   0  0  0  0  0  1  0  0  0  0  0  0
  162.5000  210.7700  154.3420 O   0  0  0  0  0  0  0  0  0  0  0  0
  160.6920  211.7210  155.4430 N   0  0  0  0  0  1  0  0  0  0  0  0
  161.6240  210.6660  155.2400 C   0  0  0  0  0  0  0  0  0  0  0  0
  1  2  2  0  0  0  0
  2 28  1  0  0  0  0
  4  8  2  0  0  0  0
  4  7  1  0  0  0  0
  5  3  2  0  0  0  0
  6  3  1  0  0  0  0
  6  1  1  0  0  0  0
  7  6  2  0  0  0  0
  8  5  1  0  0  0  0
  9  8  1  0  0  0  0
 10 14  1  0  0  0  0
 11 12  2  0  0  0  0
 12 14  1  0  0  0  0
 13 11  1  0  0  0  0
 13 10  2  0  0  0  0
 14  9  1  0  0  0  0
 16  1  1  0  0  0  0
 16 15  2  0  0  0  0
 17 16  1  0  0  0  0
 18 17  1  0  0  0  0
 19 18  2  0  0  0  0
 20 25  1  0  0  0  0
 22 21  1  1  0  0  0
 23 26  1  0  0  0  0
 24 23  2  0  0  0  0
 24 20  1  0  0  0  0
 25 22  1  0  0  0  0
 25 19  1  6  0  0  0
 26 22  1  0  0  0  0
 28 29  1  0  0  0  0
 28 27  2  0  0  0  0
 29 30  1  0  0  0  0
 30 31  1  1  0  0  0
 32 34  2  0  0  0  0
 34 33  1  0  0  0  0
 34 30  1  0  0  0  0
M  END
>  <MODEL>
1

>  <REMARK>
 VINA RESULT:      -8.4      0.000      0.000
  Name = 
  10 active torsions:
  status: ('A' for Active; 'I' for Inactive)
    1  A    between atoms: N_7  and  N_24
    2  A    between atoms: C_12  and  C_18
    3  A    between atoms: O_13  and  C_17
    4  A    between atoms: O_13  and  C_33
    5  A    between atoms: C_16  and  C_30
    6  A    between atoms: C_17  and  C_27
    7  A    between atoms: C_18  and  C_19
    8  A    between atoms: C_25  and  C_28
    9  A    between atoms: C_28  and  N_34
   10  A    between atoms: C_32  and  C_33
                            x       y       z     vdW  Elec       q    Type
                         _______ _______ _______ _____ _____    ______ ____

>  <TORSDO>
F 10

$$$$
=
 OpenBabel11042422273D

 34 36  0  0  1  0  0  0  0  0999 V2000
  161.0600  207.4810  152.4420 C   0  0  0  0  0  0  0  0  0  0  0  0
  161.0630  207.2000  153.7590 C   0  0  0  0  0  3  0  0  0  0  0  0
  161.4090  205.0530  151.8850 C   0  0  0  0  0  3  0  0  0  0  0  0
  160.6910  205.4900  149.2220 C   0  0  0  0  0  3  0  0  0  0  0  0
  161.4030  203.9890  150.9790 C   0  0  0  0  0  3  0  0  0  0  0  0
  161.0580  206.3500  151.4730 C   0  0  0  0  0  0  0  0  0  0  0  0
  160.6980  206.5530  150.1290 C   0  0  0  0  0  3  0  0  0  0  0  0
  161.0390  204.2050  149.6490 C   0  0  0  0  0  0  0  0  0  0  0  0
  161.0600  203.0760  148.6770 C   0  0  0  0  0  2  0  0  0  0  0  0
  161.1100  203.0960  146.1850 C   0  0  0  0  0  3  0  0  0  0  0  0
  162.6370  204.5400  145.8710 C   0  0  0  0  0  3  0  0  0  0  0  0
  162.4810  204.4300  147.2040 N   0  0  0  0  0  0  0  0  0  0  0  0
  161.7940  203.7190  145.2050 N   0  0  0  0  0  0  0  0  0  0  0  0
  161.5260  203.5370  147.3800 N   0  0  0  0  0  0  0  0  0  0  0  0
  160.1360  209.6580  152.1660 O   0  0  0  0  0  0  0  0  0  0  0  0
  161.0970  208.8730  151.9370 C   0  0  0  0  0  0  0  0  0  0  0  0
  162.2420  209.3420  151.2250 N   0  0  0  0  0  2  0  0  0  0  0  0
  162.3060  210.6540  150.7450 N   0  0  0  0  0  0  0  0  0  0  0  0
  162.0530  210.9010  149.5040 C   0  0  0  0  0  3  0  0  0  0  0  0
  162.7720  212.2880  147.6280 C   0  0  0  0  0  2  0  0  0  0  0  0
  160.2010  213.0810  150.1940 F   0  0  0  0  0  0  0  0  0  0  0  0
  160.7160  212.9280  148.9200 C   0  0  2  0  0  3  0  0  0  0  0  0
  161.4480  214.1750  146.9460 N   0  0  0  0  0  0  0  0  0  0  0  0
  162.4600  213.1920  146.6970 C   0  0  0  0  0  3  0  0  0  0  0  0
  162.1140  212.2970  148.9810 C   0  0  1  0  0  3  0  0  0  0  0  0
  160.8090  214.2980  148.2530 C   0  0  0  0  0  2  0  0  0  0  0  0
  161.8260  208.1380  155.8180 O   0  0  0  0  0  0  0  0  0  0  0  0
  160.9730  208.1460  154.8880 C   0  0  0  0  0  0  0  0  0  0  0  0
  159.9490  209.0950  154.8780 O   0  0  0  0  0  0  0  0  0  0  0  0
  160.0270  210.3100  155.6140 C   0  0  1  0  0  3  0  0  0  0  0  0
  161.0810  211.2240  155.0100 C   0  0  0  0  0  1  0  0  0  0  0  0
  158.1120  211.2540  156.6920 O   0  0  0  0  0  0  0  0  0  0  0  0
  158.0870  211.3330  154.3730 N   0  0  0  0  0  1  0  0  0  0  0  0
  158.7020  210.9940  155.6100 C   0  0  0  0  0  0  0  0  0  0  0  0
  1  2  2  0  0  0  0
  2 28  1  0  0  0  0
  4  8  2  0  0  0  0
  4  7  1  0  0  0  0
  5  3  2  0  0  0  0
  6  3  1  0  0  0  0
  6  1  1  0  0  0  0
  7  6  2  0  0  0  0
  8  5  1  0  0  0  0
  9  8  1  0  0  0  0
 10 14  1  0  0  0  0
 11 12  2  0  0  0  0
 12 14  1  0  0  0  0
 13 11  1  0  0  0  0
 13 10  2  0  0  0  0
 14  9  1  0  0  0  0
 16 15  2  0  0  0  0
 16  1  1  0  0  0  0
 17 16  1  0  0  0  0
 18 17  1  0  0  0  0
 19 18  2  0  0  0  0
 20 25  1  0  0  0  0
 22 25  1  0  0  0  0
 22 21  1  1  0  0  0
 23 26  1  0  0  0  0
 24 23  2  0  0  0  0
 24 20  1  0  0  0  0
 25 19  1  6  0  0  0
 26 22  1  0  0  0  0
 28 27  2  0  0  0  0
 29 28  1  0  0  0  0
 29 30  1  0  0  0  0
 30 31  1  6  0  0  0
 33 34  1  0  0  0  0
 34 30  1  0  0  0  0
 34 32  2  0  0  0  0
M  END
>  <MODEL>
2

>  <REMARK>
 VINA RESULT:      -7.8      1.180      1.434
  Name = 
  10 active torsions:
  status: ('A' for Active; 'I' for Inactive)
    1  A    between atoms: N_7  and  N_24
    2  A    between atoms: C_12  and  C_18
    3  A    between atoms: O_13  and  C_17
    4  A    between atoms: O_13  and  C_33
    5  A    between atoms: C_16  and  C_30
    6  A    between atoms: C_17  and  C_27
    7  A    between atoms: C_18  and  C_19
    8  A    between atoms: C_25  and  C_28
    9  A    between atoms: C_28  and  N_34
   10  A    between atoms: C_32  and  C_33
                            x       y       z     vdW  Elec       q    Type
                         _______ _______ _______ _____ _____    ______ ____

>  <TORSDO>
F 10

$$$$
=
 OpenBabel11042422273D

 34 36  0  0  1  0  0  0  0  0999 V2000
  161.2630  206.1800  150.0710 C   0  0  0  0  0  0  0  0  0  0  0  0
  161.3110  204.8790  149.7260 C   0  0  0  0  0  3  0  0  0  0  0  0
  161.0480  207.8680  151.9230 C   0  0  0  0  0  3  0  0  0  0  0  0
  161.2020  205.8630  153.8610 C   0  0  0  0  0  3  0  0  0  0  0  0
  160.9790  208.1990  153.2790 C   0  0  0  0  0  3  0  0  0  0  0  0
  161.1960  206.5310  151.5170 C   0  0  0  0  0  0  0  0  0  0  0  0
  161.2710  205.5330  152.5050 C   0  0  0  0  0  3  0  0  0  0  0  0
  161.0510  207.1980  154.2490 C   0  0  0  0  0  0  0  0  0  0  0  0
  161.0060  207.5550  155.6950 C   0  0  0  0  0  2  0  0  0  0  0  0
  161.6670  209.9240  156.1050 C   0  0  0  0  0  3  0  0  0  0  0  0
  159.7520  210.8430  156.0530 C   0  0  0  0  0  3  0  0  0  0  0  0
  159.5540  209.5300  155.8250 N   0  0  0  0  0  0  0  0  0  0  0  0
  161.0620  211.1210  156.2320 N   0  0  0  0  0  0  0  0  0  0  0  0
  160.7520  208.9770  155.8530 N   0  0  0  0  0  0  0  0  0  0  0  0
  160.4570  207.1820  148.0670 O   0  0  0  0  0  0  0  0  0  0  0  0
  161.2360  207.2590  149.0560 C   0  0  0  0  0  0  0  0  0  0  0  0
  162.0650  208.4090  149.2190 N   0  0  0  0  0  2  0  0  0  0  0  0
  162.0520  209.4470  148.2810 N   0  0  0  0  0  0  0  0  0  0  0  0
  161.9040  210.6690  148.6700 C   0  0  0  0  0  3  0  0  0  0  0  0
  160.4690  212.1720  147.3900 C   0  0  0  0  0  2  0  0  0  0  0  0
  164.0480  212.6460  148.2790 F   0  0  0  0  0  0  0  0  0  0  0  0
  162.7100  212.9820  148.1830 C   0  0  2  0  0  3  0  0  0  0  0  0
  161.1430  214.4480  147.0070 N   0  0  0  0  0  0  0  0  0  0  0  0
  160.1430  213.4230  147.0560 C   0  0  0  0  0  3  0  0  0  0  0  0
  161.8930  211.7830  147.6790 C   0  0  1  0  0  3  0  0  0  0  0  0
  162.5570  214.1440  147.2050 C   0  0  0  0  0  2  0  0  0  0  0  0
  162.3230  204.7620  147.5670 O   0  0  0  0  0  0  0  0  0  0  0  0
  161.4720  204.3030  148.3780 C   0  0  0  0  0  0  0  0  0  0  0  0
  160.6960  203.1950  148.0330 O   0  0  0  0  0  0  0  0  0  0  0  0
  161.0550  201.8670  148.4000 C   0  0  1  0  0  3  0  0  0  0  0  0
  160.0520  201.3070  149.3960 C   0  0  0  0  0  1  0  0  0  0  0  0
  161.6290  199.8560  147.2400 O   0  0  0  0  0  0  0  0  0  0  0  0
  160.5730  201.4770  145.9580 N   0  0  0  0  0  1  0  0  0  0  0  0
  161.1030  200.9990  147.1880 C   0  0  0  0  0  0  0  0  0  0  0  0
  1  6  1  0  0  0  0
  2  1  2  0  0  0  0
  3  5  1  0  0  0  0
  4  8  1  0  0  0  0
  5  8  2  0  0  0  0
  6  3  2  0  0  0  0
  6  7  1  0  0  0  0
  7  4  2  0  0  0  0
  8  9  1  0  0  0  0
  9 14  1  0  0  0  0
 10 13  2  0  0  0  0
 11 13  1  0  0  0  0
 12 14  1  0  0  0  0
 12 11  2  0  0  0  0
 14 10  1  0  0  0  0
 15 16  2  0  0  0  0
 16 17  1  0  0  0  0
 16  1  1  0  0  0  0
 18 19  2  0  0  0  0
 18 17  1  0  0  0  0
 20 25  1  0  0  0  0
 22 21  1  6  0  0  0
 23 24  2  0  0  0  0
 23 26  1  0  0  0  0
 24 20  1  0  0  0  0
 25 22  1  0  0  0  0
 25 19  1  1  0  0  0
 26 22  1  0  0  0  0
 27 28  2  0  0  0  0
 28  2  1  0  0  0  0
 29 28  1  0  0  0  0
 29 30  1  0  0  0  0
 30 31  1  1  0  0  0
 33 34  1  0  0  0  0
 34 32  2  0  0  0  0
 34 30  1  0  0  0  0
M  END
>  <MODEL>
3

>  <REMARK>
 VINA RESULT:      -7.6      3.158      7.653
  Name = 
  10 active torsions:
  status: ('A' for Active; 'I' for Inactive)
    1  A    between atoms: N_7  and  N_24
    2  A    between atoms: C_12  and  C_18
    3  A    between atoms: O_13  and  C_17
    4  A    between atoms: O_13  and  C_33
    5  A    between atoms: C_16  and  C_30
    6  A    between atoms: C_17  and  C_27
    7  A    between atoms: C_18  and  C_19
    8  A    between atoms: C_25  and  C_28
    9  A    between atoms: C_28  and  N_34
   10  A    between atoms: C_32  and  C_33
                            x       y       z     vdW  Elec       q    Type
                         _______ _______ _______ _____ _____    ______ ____

>  <TORSDO>
F 10

$$$$
=
 OpenBabel11042422273D

 34 36  0  0  1  0  0  0  0  0999 V2000
  161.4590  206.6130  149.7170 C   0  0  0  0  0  0  0  0  0  0  0  0
  161.6040  205.3910  149.1710 C   0  0  0  0  0  3  0  0  0  0  0  0
  161.3950  205.5820  152.0100 C   0  0  0  0  0  3  0  0  0  0  0  0
  160.8030  208.0480  153.1790 C   0  0  0  0  0  3  0  0  0  0  0  0
  161.2250  205.6770  153.3940 C   0  0  0  0  0  3  0  0  0  0  0  0
  161.2710  206.7160  151.1910 C   0  0  0  0  0  0  0  0  0  0  0  0
  160.9730  207.9510  151.7950 C   0  0  0  0  0  3  0  0  0  0  0  0
  160.9330  206.9100  153.9800 C   0  0  0  0  0  0  0  0  0  0  0  0
  160.7240  207.0050  155.4520 C   0  0  0  0  0  2  0  0  0  0  0  0
  161.8940  209.0230  156.3320 C   0  0  0  0  0  3  0  0  0  0  0  0
  160.2560  210.3730  156.4250 C   0  0  0  0  0  3  0  0  0  0  0  0
  159.7710  209.2140  155.9400 N   0  0  0  0  0  0  0  0  0  0  0  0
  161.5800  210.2870  156.6800 N   0  0  0  0  0  0  0  0  0  0  0  0
  160.8010  208.3910  155.8820 N   0  0  0  0  0  0  0  0  0  0  0  0
  160.8730  207.8460  147.7670 O   0  0  0  0  0  0  0  0  0  0  0  0
  161.4420  207.8440  148.8920 C   0  0  0  0  0  0  0  0  0  0  0  0
  162.0370  209.0420  149.3900 N   0  0  0  0  0  2  0  0  0  0  0  0
  162.0280  210.2200  148.6360 N   0  0  0  0  0  0  0  0  0  0  0  0
  161.9820  211.3660  149.2270 C   0  0  0  0  0  3  0  0  0  0  0  0
  162.9470  212.4990  147.2930 C   0  0  0  0  0  2  0  0  0  0  0  0
  159.7290  213.2440  148.9970 F   0  0  0  0  0  0  0  0  0  0  0  0
  160.5640  212.9620  147.9320 C   0  0  2  0  0  3  0  0  0  0  0  0
  161.5860  213.9440  145.9370 N   0  0  0  0  0  0  0  0  0  0  0  0
  162.7560  213.1420  146.1390 C   0  0  0  0  0  3  0  0  0  0  0  0
  161.9760  212.6290  148.4340 C   0  0  1  0  0  3  0  0  0  0  0  0
  160.6290  214.1810  147.0140 C   0  0  0  0  0  2  0  0  0  0  0  0
  162.9530  205.4420  147.2020 O   0  0  0  0  0  0  0  0  0  0  0  0
  161.8920  205.0550  147.7640 C   0  0  0  0  0  0  0  0  0  0  0  0
  160.9840  204.2460  147.0760 O   0  0  0  0  0  0  0  0  0  0  0  0
  161.3120  202.9320  146.6390 C   0  0  1  0  0  3  0  0  0  0  0  0
  160.9220  201.9120  147.6970 C   0  0  0  0  0  1  0  0  0  0  0  0
  160.3720  203.5450  144.5270 O   0  0  0  0  0  0  0  0  0  0  0  0
  160.1720  201.3030  145.0910 N   0  0  0  0  0  1  0  0  0  0  0  0
  160.6060  202.6300  145.3600 C   0  0  0  0  0  0  0  0  0  0  0  0
  1  6  1  0  0  0  0
  2  1  2  0  0  0  0
  3  5  1  0  0  0  0
  4  8  1  0  0  0  0
  5  8  2  0  0  0  0
  6  7  1  0  0  0  0
  6  3  2  0  0  0  0
  7  4  2  0  0  0  0
  8  9  1  0  0  0  0
  9 14  1  0  0  0  0
 10 13  2  0  0  0  0
 11 13  1  0  0  0  0
 12 11  2  0  0  0  0
 14 12  1  0  0  0  0
 14 10  1  0  0  0  0
 15 16  2  0  0  0  0
 16 17  1  0  0  0  0
 16  1  1  0  0  0  0
 18 19  2  0  0  0  0
 18 17  1  0  0  0  0
 20 25  1  0  0  0  0
 22 25  1  0  0  0  0
 22 21  1  1  0  0  0
 23 24  2  0  0  0  0
 23 26  1  0  0  0  0
 24 20  1  0  0  0  0
 25 19  1  6  0  0  0
 26 22  1  0  0  0  0
 27 28  2  0  0  0  0
 28  2  1  0  0  0  0
 29 28  1  0  0  0  0
 30 29  1  0  0  0  0
 30 31  1  1  0  0  0
 32 34  2  0  0  0  0
 33 34  1  0  0  0  0
 34 30  1  0  0  0  0
M  END
>  <MODEL>
4

>  <REMARK>
 VINA RESULT:      -7.3      2.972      7.602
  Name = 
  10 active torsions:
  status: ('A' for Active; 'I' for Inactive)
    1  A    between atoms: N_7  and  N_24
    2  A    between atoms: C_12  and  C_18
    3  A    between atoms: O_13  and  C_17
    4  A    between atoms: O_13  and  C_33
    5  A    between atoms: C_16  and  C_30
    6  A    between atoms: C_17  and  C_27
    7  A    between atoms: C_18  and  C_19
    8  A    between atoms: C_25  and  C_28
    9  A    between atoms: C_28  and  N_34
   10  A    between atoms: C_32  and  C_33
                            x       y       z     vdW  Elec       q    Type
                         _______ _______ _______ _____ _____    ______ ____

>  <TORSDO>
F 10

$$$$
=
 OpenBabel11042422273D

 34 36  0  0  1  0  0  0  0  0999 V2000
  161.6250  208.8690  151.4780 C   0  0  0  0  0  0  0  0  0  0  0  0
  161.8120  209.8230  150.5470 C   0  0  0  0  0  3  0  0  0  0  0  0
  160.8180  208.3320  153.7990 C   0  0  0  0  0  3  0  0  0  0  0  0
  160.9180  211.0240  154.5320 C   0  0  0  0  0  3  0  0  0  0  0  0
  160.4560  208.7180  155.0920 C   0  0  0  0  0  3  0  0  0  0  0  0
  161.2340  209.2840  152.8540 C   0  0  0  0  0  0  0  0  0  0  0  0
  161.2800  210.6370  153.2390 C   0  0  0  0  0  3  0  0  0  0  0  0
  160.5100  210.0630  155.4620 C   0  0  0  0  0  0  0  0  0  0  0  0
  160.0970  210.4780  156.8320 C   0  0  0  0  0  2  0  0  0  0  0  0
  157.8450  211.3570  156.2210 C   0  0  0  0  0  3  0  0  0  0  0  0
  158.0540  213.3650  156.8830 C   0  0  0  0  0  3  0  0  0  0  0  0
  159.2150  212.7440  157.1680 N   0  0  0  0  0  0  0  0  0  0  0  0
  157.1770  212.5250  156.2910 N   0  0  0  0  0  0  0  0  0  0  0  0
  159.0650  211.4990  156.7580 N   0  0  0  0  0  0  0  0  0  0  0  0
  162.9300  206.8780  151.4650 O   0  0  0  0  0  0  0  0  0  0  0  0
  161.8330  207.4320  151.1820 C   0  0  0  0  0  0  0  0  0  0  0  0
  160.7740  206.6620  150.6130 N   0  0  0  0  0  2  0  0  0  0  0  0
  160.9420  205.3020  150.3320 N   0  0  0  0  0  0  0  0  0  0  0  0
  161.1940  204.9180  149.1250 C   0  0  0  0  0  3  0  0  0  0  0  0
  160.5180  202.6540  149.7380 C   0  0  0  0  0  2  0  0  0  0  0  0
  161.9680  203.8050  146.5140 F   0  0  0  0  0  0  0  0  0  0  0  0
  161.0570  203.1750  147.3420 C   0  0  2  0  0  3  0  0  0  0  0  0
  160.2470  200.9750  148.0390 N   0  0  0  0  0  0  0  0  0  0  0  0
  160.0160  201.4760  149.3620 C   0  0  0  0  0  3  0  0  0  0  0  0
  161.3790  203.4710  148.8130 C   0  0  1  0  0  3  0  0  0  0  0  0
  161.1250  201.6690  147.1030 C   0  0  0  0  0  2  0  0  0  0  0  0
  162.4720  208.5270  148.6540 O   0  0  0  0  0  0  0  0  0  0  0  0
  162.1090  209.6440  149.1130 C   0  0  0  0  0  0  0  0  0  0  0  0
  161.9240  210.7320  148.2570 O   0  0  0  0  0  0  0  0  0  0  0  0
  162.1430  212.0760  148.6720 C   0  0  1  0  0  3  0  0  0  0  0  0
  163.1660  212.7460  147.7690 C   0  0  0  0  0  1  0  0  0  0  0  0
  160.4270  213.4120  149.6680 O   0  0  0  0  0  0  0  0  0  0  0  0
  160.1060  212.8880  147.4300 N   0  0  0  0  0  1  0  0  0  0  0  0
  160.8600  212.8360  148.6350 C   0  0  0  0  0  0  0  0  0  0  0  0
  1  6  1  0  0  0  0
  2  1  2  0  0  0  0
  3  5  1  0  0  0  0
  4  8  1  0  0  0  0
  5  8  2  0  0  0  0
  6  7  1  0  0  0  0
  6  3  2  0  0  0  0
  7  4  2  0  0  0  0
  8  9  1  0  0  0  0
 10 13  2  0  0  0  0
 10 14  1  0  0  0  0
 11 12  2  0  0  0  0
 13 11  1  0  0  0  0
 14  9  1  0  0  0  0
 14 12  1  0  0  0  0
 16 15  2  0  0  0  0
 16  1  1  0  0  0  0
 17 16  1  0  0  0  0
 18 17  1  0  0  0  0
 19 18  2  0  0  0  0
 22 21  1  6  0  0  0
 22 25  1  0  0  0  0
 23 24  2  0  0  0  0
 24 20  1  0  0  0  0
 25 19  1  1  0  0  0
 25 20  1  0  0  0  0
 26 22  1  0  0  0  0
 26 23  1  0  0  0  0
 27 28  2  0  0  0  0
 28  2  1  0  0  0  0
 29 30  1  0  0  0  0
 29 28  1  0  0  0  0
 30 31  1  6  0  0  0
 33 34  1  0  0  0  0
 34 30  1  0  0  0  0
 34 32  2  0  0  0  0
M  END
>  <MODEL>
5

>  <REMARK>
 VINA RESULT:      -7.1      3.044      9.031
  Name = 
  10 active torsions:
  status: ('A' for Active; 'I' for Inactive)
    1  A    between atoms: N_7  and  N_24
    2  A    between atoms: C_12  and  C_18
    3  A    between atoms: O_13  and  C_17
    4  A    between atoms: O_13  and  C_33
    5  A    between atoms: C_16  and  C_30
    6  A    between atoms: C_17  and  C_27
    7  A    between atoms: C_18  and  C_19
    8  A    between atoms: C_25  and  C_28
    9  A    between atoms: C_28  and  N_34
   10  A    between atoms: C_32  and  C_33
                            x       y       z     vdW  Elec       q    Type
                         _______ _______ _______ _____ _____    ______ ____

>  <TORSDO>
F 10

$$$$
=
 OpenBabel11042422273D

 34 36  0  0  1  0  0  0  0  0999 V2000
  161.7110  210.3920  150.3960 C   0  0  0  0  0  0  0  0  0  0  0  0
  161.2400  210.8030  151.5890 C   0  0  0  0  0  3  0  0  0  0  0  0
  160.9830  212.4310  149.1160 C   0  0  0  0  0  3  0  0  0  0  0  0
  163.2640  212.3220  147.5090 C   0  0  0  0  0  3  0  0  0  0  0  0
  161.1800  213.3870  148.1170 C   0  0  0  0  0  3  0  0  0  0  0  0
  161.9210  211.4060  149.3260 C   0  0  0  0  0  0  0  0  0  0  0  0
  163.0650  211.3660  148.5090 C   0  0  0  0  0  3  0  0  0  0  0  0
  162.3220  213.3370  147.3160 C   0  0  0  0  0  0  0  0  0  0  0  0
  162.5180  214.3400  146.2320 C   0  0  0  0  0  2  0  0  0  0  0  0
  161.2350  213.0740  144.5090 C   0  0  0  0  0  3  0  0  0  0  0  0
  162.7050  212.9660  142.9790 C   0  0  0  0  0  3  0  0  0  0  0  0
  163.2590  213.6540  143.9950 N   0  0  0  0  0  0  0  0  0  0  0  0
  161.4390  212.5890  143.2690 N   0  0  0  0  0  0  0  0  0  0  0  0
  162.3320  213.7180  144.9320 N   0  0  0  0  0  0  0  0  0  0  0  0
  162.7080  208.2880  150.8950 O   0  0  0  0  0  0  0  0  0  0  0  0
  161.9870  208.9640  150.1120 C   0  0  0  0  0  0  0  0  0  0  0  0
  161.4020  208.3410  148.9690 N   0  0  0  0  0  2  0  0  0  0  0  0
  161.6390  206.9920  148.6820 N   0  0  0  0  0  0  0  0  0  0  0  0
  161.7610  206.6040  147.4570 C   0  0  0  0  0  3  0  0  0  0  0  0
  161.5940  204.3210  148.3070 C   0  0  0  0  0  2  0  0  0  0  0  0
  161.8250  205.4230  144.7640 F   0  0  0  0  0  0  0  0  0  0  0  0
  161.2980  204.7490  145.8500 C   0  0  2  0  0  3  0  0  0  0  0  0
  161.0220  202.5200  146.8210 N   0  0  0  0  0  0  0  0  0  0  0  0
  161.1500  203.0740  148.1360 C   0  0  0  0  0  3  0  0  0  0  0  0
  162.0190  205.1700  147.1390 C   0  0  1  0  0  3  0  0  0  0  0  0
  161.4760  203.2470  145.6390 C   0  0  0  0  0  2  0  0  0  0  0  0
  160.1270  209.1380  152.8890 O   0  0  0  0  0  0  0  0  0  0  0  0
  161.0440  210.0000  152.8110 C   0  0  0  0  0  0  0  0  0  0  0  0
  161.9370  210.1770  153.8710 O   0  0  0  0  0  0  0  0  0  0  0  0
  161.5290  210.6820  155.1370 C   0  0  1  0  0  3  0  0  0  0  0  0
  160.4400  211.7280  154.9610 C   0  0  0  0  0  1  0  0  0  0  0  0
  159.7920  209.3820  156.1430 O   0  0  0  0  0  0  0  0  0  0  0  0
  161.9560  208.7260  156.6660 N   0  0  0  0  0  1  0  0  0  0  0  0
  161.0290  209.5680  155.9930 C   0  0  0  0  0  0  0  0  0  0  0  0
  1  2  2  0  0  0  0
  2 28  1  0  0  0  0
  3  6  1  0  0  0  0
  4  7  1  0  0  0  0
  5  3  2  0  0  0  0
  6  1  1  0  0  0  0
  7  6  2  0  0  0  0
  8  4  2  0  0  0  0
  8  5  1  0  0  0  0
  9  8  1  0  0  0  0
 10 14  1  0  0  0  0
 11 13  1  0  0  0  0
 11 12  2  0  0  0  0
 12 14  1  0  0  0  0
 13 10  2  0  0  0  0
 14  9  1  0  0  0  0
 16  1  1  0  0  0  0
 16 15  2  0  0  0  0
 17 16  1  0  0  0  0
 18 17  1  0  0  0  0
 19 18  2  0  0  0  0
 22 21  1  6  0  0  0
 22 25  1  0  0  0  0
 23 24  2  0  0  0  0
 24 20  1  0  0  0  0
 25 19  1  1  0  0  0
 25 20  1  0  0  0  0
 26 22  1  0  0  0  0
 26 23  1  0  0  0  0
 28 27  2  0  0  0  0
 28 29  1  0  0  0  0
 29 30  1  0  0  0  0
 30 31  1  6  0  0  0
 30 34  1  0  0  0  0
 34 32  2  0  0  0  0
 34 33  1  0  0  0  0
M  END
>  <MODEL>
6

>  <REMARK>
 VINA RESULT:      -6.8      2.628      7.275
  Name = 
  10 active torsions:
  status: ('A' for Active; 'I' for Inactive)
    1  A    between atoms: N_7  and  N_24
    2  A    between atoms: C_12  and  C_18
    3  A    between atoms: O_13  and  C_17
    4  A    between atoms: O_13  and  C_33
    5  A    between atoms: C_16  and  C_30
    6  A    between atoms: C_17  and  C_27
    7  A    between atoms: C_18  and  C_19
    8  A    between atoms: C_25  and  C_28
    9  A    between atoms: C_28  and  N_34
   10  A    between atoms: C_32  and  C_33
                            x       y       z     vdW  Elec       q    Type
                         _______ _______ _______ _____ _____    ______ ____

>  <TORSDO>
F 10

$$$$
=
 OpenBabel11042422273D

 34 36  0  0  1  0  0  0  0  0999 V2000
  161.4940  208.2360  151.5850 C   0  0  0  0  0  0  0  0  0  0  0  0
  161.1330  208.2960  152.8810 C   0  0  0  0  0  3  0  0  0  0  0  0
  161.1660  210.7220  151.3840 C   0  0  0  0  0  3  0  0  0  0  0  0
  162.0680  210.6980  148.7420 C   0  0  0  0  0  3  0  0  0  0  0  0
  161.2260  211.9120  150.6560 C   0  0  0  0  0  3  0  0  0  0  0  0
  161.5530  209.5030  150.8040 C   0  0  0  0  0  0  0  0  0  0  0  0
  162.0070  209.5080  149.4720 C   0  0  0  0  0  3  0  0  0  0  0  0
  161.6820  211.9030  149.3360 C   0  0  0  0  0  0  0  0  0  0  0  0
  161.7190  213.1680  148.5500 C   0  0  0  0  0  2  0  0  0  0  0  0
  161.7540  213.1700  146.0570 C   0  0  0  0  0  3  0  0  0  0  0  0
  159.7600  212.5460  145.6720 C   0  0  0  0  0  3  0  0  0  0  0  0
  159.9000  212.5770  147.0110 N   0  0  0  0  0  0  0  0  0  0  0  0
  160.9010  212.9110  145.0470 N   0  0  0  0  0  0  0  0  0  0  0  0
  161.1440  212.9580  147.2320 N   0  0  0  0  0  0  0  0  0  0  0  0
  162.9070  206.3860  151.0890 O   0  0  0  0  0  0  0  0  0  0  0  0
  161.7930  206.9500  150.9120 C   0  0  0  0  0  0  0  0  0  0  0  0
  160.8020  206.3270  150.0950 N   0  0  0  0  0  2  0  0  0  0  0  0
  161.0560  205.1090  149.4560 N   0  0  0  0  0  0  0  0  0  0  0  0
  161.3940  205.0910  148.2110 C   0  0  0  0  0  3  0  0  0  0  0  0
  161.2040  202.6640  148.3900 C   0  0  0  0  0  2  0  0  0  0  0  0
  161.5720  204.6980  145.3000 F   0  0  0  0  0  0  0  0  0  0  0  0
  161.0060  203.7540  146.1370 C   0  0  2  0  0  3  0  0  0  0  0  0
  160.7020  201.3460  146.4430 N   0  0  0  0  0  0  0  0  0  0  0  0
  160.7740  201.5150  147.8640 C   0  0  0  0  0  3  0  0  0  0  0  0
  161.6710  203.7980  147.5190 C   0  0  1  0  0  3  0  0  0  0  0  0
  161.1990  202.3680  145.5270 C   0  0  0  0  0  2  0  0  0  0  0  0
  160.8280  206.0130  153.5110 O   0  0  0  0  0  0  0  0  0  0  0  0
  161.0940  207.1960  153.8620 C   0  0  0  0  0  0  0  0  0  0  0  0
  161.4150  207.4810  155.1910 O   0  0  0  0  0  0  0  0  0  0  0  0
  160.4900  208.0890  156.0860 C   0  0  1  0  0  3  0  0  0  0  0  0
  160.0690  207.1000  157.1610 C   0  0  0  0  0  1  0  0  0  0  0  0
  162.3600  209.4000  156.7960 O   0  0  0  0  0  0  0  0  0  0  0  0
  160.2760  210.3080  157.2600 N   0  0  0  0  0  1  0  0  0  0  0  0
  161.1080  209.2910  156.7180 C   0  0  0  0  0  0  0  0  0  0  0  0
  1  2  2  0  0  0  0
  2 28  1  0  0  0  0
  4  8  2  0  0  0  0
  4  7  1  0  0  0  0
  5  3  2  0  0  0  0
  6  3  1  0  0  0  0
  6  1  1  0  0  0  0
  7  6  2  0  0  0  0
  8  5  1  0  0  0  0
  9  8  1  0  0  0  0
 10 14  1  0  0  0  0
 11 12  2  0  0  0  0
 12 14  1  0  0  0  0
 13 11  1  0  0  0  0
 13 10  2  0  0  0  0
 14  9  1  0  0  0  0
 16 15  2  0  0  0  0
 16  1  1  0  0  0  0
 17 16  1  0  0  0  0
 18 17  1  0  0  0  0
 19 18  2  0  0  0  0
 22 21  1  6  0  0  0
 22 25  1  0  0  0  0
 23 24  2  0  0  0  0
 24 20  1  0  0  0  0
 25 19  1  1  0  0  0
 25 20  1  0  0  0  0
 26 22  1  0  0  0  0
 26 23  1  0  0  0  0
 27 28  2  0  0  0  0
 28 29  1  0  0  0  0
 29 30  1  0  0  0  0
 30 34  1  0  0  0  0
 30 31  1  1  0  0  0
 34 32  2  0  0  0  0
 34 33  1  0  0  0  0
M  END
>  <MODEL>
7

>  <REMARK>
 VINA RESULT:      -6.7      2.571      7.050
  Name = 
  10 active torsions:
  status: ('A' for Active; 'I' for Inactive)
    1  A    between atoms: N_7  and  N_24
    2  A    between atoms: C_12  and  C_18
    3  A    between atoms: O_13  and  C_17
    4  A    between atoms: O_13  and  C_33
    5  A    between atoms: C_16  and  C_30
    6  A    between atoms: C_17  and  C_27
    7  A    between atoms: C_18  and  C_19
    8  A    between atoms: C_25  and  C_28
    9  A    between atoms: C_28  and  N_34
   10  A    between atoms: C_32  and  C_33
                            x       y       z     vdW  Elec       q    Type
                         _______ _______ _______ _____ _____    ______ ____

>  <TORSDO>
F 10

$$$$
=
 OpenBabel11042422273D

 34 36  0  0  1  0  0  0  0  0999 V2000
  161.7490  209.0810  150.1870 C   0  0  0  0  0  0  0  0  0  0  0  0
  161.9540  209.7400  149.0300 C   0  0  0  0  0  3  0  0  0  0  0  0
  160.9030  207.0190  149.0210 C   0  0  0  0  0  3  0  0  0  0  0  0
  161.7080  205.4010  151.1510 C   0  0  0  0  0  3  0  0  0  0  0  0
  160.6910  205.6390  148.9700 C   0  0  0  0  0  3  0  0  0  0  0  0
  161.5190  207.6100  150.1370 C   0  0  0  0  0  0  0  0  0  0  0  0
  161.9200  206.7820  151.2010 C   0  0  0  0  0  3  0  0  0  0  0  0
  161.0980  204.8280  150.0320 C   0  0  0  0  0  0  0  0  0  0  0  0
  160.8460  203.3600  149.9880 C   0  0  0  0  0  2  0  0  0  0  0  0
  160.5070  201.6960  148.1630 C   0  0  0  0  0  3  0  0  0  0  0  0
  161.4920  202.7050  146.5730 C   0  0  0  0  0  3  0  0  0  0  0  0
  161.5790  203.5090  147.6500 N   0  0  0  0  0  0  0  0  0  0  0  0
  160.8270  201.5640  146.8610 N   0  0  0  0  0  0  0  0  0  0  0  0
  160.9570  202.8710  148.6240 N   0  0  0  0  0  0  0  0  0  0  0  0
  162.7800  210.1040  152.0730 O   0  0  0  0  0  0  0  0  0  0  0  0
  161.7080  209.7820  151.4910 C   0  0  0  0  0  0  0  0  0  0  0  0
  160.4520  210.1300  152.0730 N   0  0  0  0  0  2  0  0  0  0  0  0
  160.3860  210.8000  153.3000 N   0  0  0  0  0  0  0  0  0  0  0  0
  159.2390  211.0720  153.8260 C   0  0  0  0  0  3  0  0  0  0  0  0
  160.3220  211.3730  155.9930 C   0  0  0  0  0  3  0  0  0  0  0  0
  157.9440  213.6720  154.2960 F   0  0  0  0  0  0  0  0  0  0  0  0
  159.1110  213.3040  154.9400 C   0  0  2  0  0  3  0  0  0  0  0  0
  160.3370  213.5340  157.0450 N   0  0  0  0  0  2  0  0  0  0  0  0
  160.8460  212.2030  156.8970 C   0  0  0  0  0  3  0  0  0  0  0  0
  159.1560  211.7820  155.1350 C   0  0  1  0  0  3  0  0  0  0  0  0
  159.1650  213.9900  156.3030 C   0  0  0  0  0  2  0  0  0  0  0  0
  163.3020  211.5170  148.1790 O   0  0  0  0  0  0  0  0  0  0  0  0
  162.2910  211.1640  148.8450 C   0  0  0  0  0  0  0  0  0  0  0  0
  161.4290  212.1240  149.3800 O   0  0  0  0  0  0  0  0  0  0  0  0
  160.8520  213.1580  148.5900 C   0  0  1  0  0  3  0  0  0  0  0  0
  160.2790  212.5820  147.3060 C   0  0  0  0  0  1  0  0  0  0  0  0
  158.8100  214.3910  148.7630 O   0  0  0  0  0  0  0  0  0  0  0  0
  159.8590  213.9150  150.7780 N   0  0  0  0  0  1  0  0  0  0  0  0
  159.7780  213.8480  149.3600 C   0  0  0  0  0  0  0  0  0  0  0  0
  1 16  1  0  0  0  0
  2  1  2  0  0  0  0
  3  6  1  0  0  0  0
  4  7  1  0  0  0  0
  5  3  2  0  0  0  0
  5  8  1  0  0  0  0
  6  1  1  0  0  0  0
  6  7  2  0  0  0  0
  8  4  2  0  0  0  0
  9  8  1  0  0  0  0
 10 14  1  0  0  0  0
 11 13  1  0  0  0  0
 11 12  2  0  0  0  0
 12 14  1  0  0  0  0
 13 10  2  0  0  0  0
 14  9  1  0  0  0  0
 16 17  1  0  0  0  0
 16 15  2  0  0  0  0
 17 18  1  0  0  0  0
 18 19  2  0  0  0  0
 20 24  2  0  0  0  0
 22 21  1  1  0  0  0
 22 25  1  0  0  0  0
 22 26  1  0  0  0  0
 24 23  1  0  0  0  0
 25 19  1  6  0  0  0
 25 20  1  0  0  0  0
 26 23  1  0  0  0  0
 27 28  2  0  0  0  0
 28  2  1  0  0  0  0
 28 29  1  0  0  0  0
 30 31  1  6  0  0  0
 30 34  1  0  0  0  0
 30 29  1  0  0  0  0
 32 34  2  0  0  0  0
 34 33  1  0  0  0  0
M  END
>  <MODEL>
8

>  <REMARK>
 VINA RESULT:      -6.7      2.652      5.655
  Name = 
  10 active torsions:
  status: ('A' for Active; 'I' for Inactive)
    1  A    between atoms: N_7  and  N_24
    2  A    between atoms: C_12  and  C_18
    3  A    between atoms: O_13  and  C_17
    4  A    between atoms: O_13  and  C_33
    5  A    between atoms: C_16  and  C_30
    6  A    between atoms: C_17  and  C_27
    7  A    between atoms: C_18  and  C_19
    8  A    between atoms: C_25  and  C_28
    9  A    between atoms: C_28  and  N_34
   10  A    between atoms: C_32  and  C_33
                            x       y       z     vdW  Elec       q    Type
                         _______ _______ _______ _____ _____    ______ ____

>  <TORSDO>
F 10

$$$$
=
 OpenBabel11042422273D

 34 36  0  0  1  0  0  0  0  0999 V2000
  161.5480  210.3260  150.5960 C   0  0  0  0  0  0  0  0  0  0  0  0
  161.5890  211.4690  149.8850 C   0  0  0  0  0  3  0  0  0  0  0  0
  160.5090  211.5680  152.5210 C   0  0  0  0  0  3  0  0  0  0  0  0
  160.4950  209.2610  154.0930 C   0  0  0  0  0  3  0  0  0  0  0  0
  160.0030  211.6130  153.8230 C   0  0  0  0  0  3  0  0  0  0  0  0
  161.0150  210.3720  151.9870 C   0  0  0  0  0  0  0  0  0  0  0  0
  161.0000  209.2180  152.7910 C   0  0  0  0  0  3  0  0  0  0  0  0
  159.9920  210.4590  154.6090 C   0  0  0  0  0  0  0  0  0  0  0  0
  159.4790  210.5130  156.0060 C   0  0  0  0  0  2  0  0  0  0  0  0
  157.8030  212.1830  156.7940 C   0  0  0  0  0  3  0  0  0  0  0  0
  156.1070  211.5350  155.6900 C   0  0  0  0  0  3  0  0  0  0  0  0
  157.1230  210.7180  155.3490 N   0  0  0  0  0  0  0  0  0  0  0  0
  156.5010  212.4620  156.5920 N   0  0  0  0  0  0  0  0  0  0  0  0
  158.1670  211.1390  156.0360 N   0  0  0  0  0  0  0  0  0  0  0  0
  162.7440  208.2760  150.7690 O   0  0  0  0  0  0  0  0  0  0  0  0
  162.0490  209.0440  150.0500 C   0  0  0  0  0  0  0  0  0  0  0  0
  161.7110  208.6580  148.7180 N   0  0  0  0  0  2  0  0  0  0  0  0
  162.1650  207.4480  148.1800 N   0  0  0  0  0  0  0  0  0  0  0  0
  161.3650  206.4390  148.0950 C   0  0  0  0  0  3  0  0  0  0  0  0
  161.3560  204.0160  148.3900 C   0  0  0  0  0  2  0  0  0  0  0  0
  161.9480  205.9270  145.2570 F   0  0  0  0  0  0  0  0  0  0  0  0
  161.3590  204.9770  146.0700 C   0  0  2  0  0  3  0  0  0  0  0  0
  161.2190  202.5680  146.4760 N   0  0  0  0  0  0  0  0  0  0  0  0
  161.0940  202.8090  147.8830 C   0  0  0  0  0  3  0  0  0  0  0  0
  161.8350  205.1460  147.5200 C   0  0  1  0  0  3  0  0  0  0  0  0
  161.7440  203.5860  145.5710 C   0  0  0  0  0  2  0  0  0  0  0  0
  163.1960  211.7710  148.1460 O   0  0  0  0  0  0  0  0  0  0  0  0
  161.9850  211.6460  148.4750 C   0  0  0  0  0  0  0  0  0  0  0  0
  160.9880  211.6160  147.4980 O   0  0  0  0  0  0  0  0  0  0  0  0
  160.4570  212.7990  146.9110 C   0  0  1  0  0  3  0  0  0  0  0  0
  160.4380  212.6720  145.3960 C   0  0  0  0  0  1  0  0  0  0  0  0
  158.8900  213.6540  148.5030 O   0  0  0  0  0  0  0  0  0  0  0  0
  157.9600  212.5610  146.6790 N   0  0  0  0  0  1  0  0  0  0  0  0
  159.0760  213.0430  147.4170 C   0  0  0  0  0  0  0  0  0  0  0  0
  1  6  1  0  0  0  0
  2  1  2  0  0  0  0
  3  5  1  0  0  0  0
  4  8  1  0  0  0  0
  5  8  2  0  0  0  0
  6  3  2  0  0  0  0
  6  7  1  0  0  0  0
  7  4  2  0  0  0  0
  8  9  1  0  0  0  0
  9 14  1  0  0  0  0
 11 13  1  0  0  0  0
 12 11  2  0  0  0  0
 12 14  1  0  0  0  0
 13 10  2  0  0  0  0
 14 10  1  0  0  0  0
 16  1  1  0  0  0  0
 16 15  2  0  0  0  0
 17 16  1  0  0  0  0
 18 17  1  0  0  0  0
 19 18  2  0  0  0  0
 22 21  1  6  0  0  0
 22 25  1  0  0  0  0
 23 24  2  0  0  0  0
 24 20  1  0  0  0  0
 25 19  1  1  0  0  0
 25 20  1  0  0  0  0
 26 22  1  0  0  0  0
 26 23  1  0  0  0  0
 27 28  2  0  0  0  0
 28  2  1  0  0  0  0
 29 28  1  0  0  0  0
 30 31  1  6  0  0  0
 30 34  1  0  0  0  0
 30 29  1  0  0  0  0
 33 34  1  0  0  0  0
 34 32  2  0  0  0  0
M  END
>  <MODEL>
9

>  <REMARK>
 VINA RESULT:      -6.6      3.355      8.992
  Name = 
  10 active torsions:
  status: ('A' for Active; 'I' for Inactive)
    1  A    between atoms: N_7  and  N_24
    2  A    between atoms: C_12  and  C_18
    3  A    between atoms: O_13  and  C_17
    4  A    between atoms: O_13  and  C_33
    5  A    between atoms: C_16  and  C_30
    6  A    between atoms: C_17  and  C_27
    7  A    between atoms: C_18  and  C_19
    8  A    between atoms: C_25  and  C_28
    9  A    between atoms: C_28  and  N_34
   10  A    between atoms: C_32  and  C_33
                            x       y       z     vdW  Elec       q    Type
                         _______ _______ _______ _____ _____    ______ ____

>  <TORSDO>
F 10

$$$$
