=
 OpenBabel11052410413D

 53 59  0  0  1  0  0  0  0  0999 V2000
  162.0300  209.9170  148.8420 N   0  0  0  0  0  0  0  0  0  0  0  0
  161.3540  208.1350  150.4290 C   0  0  0  0  0  0  0  0  0  0  0  0
  161.1740  208.0680  152.8890 C   0  0  0  0  0  1  0  0  0  0  0  0
  162.4240  209.9460  151.8080 C   0  0  0  0  0  3  0  0  0  0  0  0
  162.4890  210.9700  150.9650 C   0  0  0  0  0  3  0  0  0  0  0  0
  161.8720  208.6620  149.1380 C   0  0  0  0  0  3  0  0  0  0  0  0
  161.6760  211.0230  149.7200 C   0  0  1  0  0  3  0  0  0  0  0  0
  161.6100  208.7280  151.6210 C   0  0  0  0  0  0  0  0  0  0  0  0
  160.5360  212.9040  148.5120 C   0  0  0  0  0  2  0  0  0  0  0  0
  160.6910  212.9390  147.0370 C   0  0  0  0  0  0  0  0  0  0  0  0
  161.8720  212.3700  149.0190 C   0  0  2  0  0  3  0  0  0  0  0  0
  162.8070  212.2690  147.8090 C   0  0  0  0  0  3  0  0  0  0  0  0
  159.7580  213.3580  146.1480 C   0  0  0  0  0  0  0  0  0  0  0  0
  161.9920  212.5420  146.6440 N   0  0  0  0  0  0  0  0  0  0  0  0
  160.1300  212.4700  142.2140 S   0  0  0  0  0  0  0  0  0  0  0  0
  162.1170  214.3590  142.1540 C   0  0  0  0  0  1  0  0  0  0  0  0
  159.7400  212.2390  143.9400 C   0  0  0  0  0  3  0  0  0  0  0  0
  160.5730  214.3570  143.9890 O   0  0  0  0  0  0  0  0  0  0  0  0
  160.0340  213.2880  144.6880 C   0  0  0  0  0  0  0  0  0  0  0  0
  160.6770  214.1740  142.5870 C   0  0  2  0  0  3  0  0  0  0  0  0
  157.5440  214.1080  145.6970 O   0  0  0  0  0  0  0  0  0  0  0  0
  158.4400  213.9160  146.5670 C   0  0  0  0  0  0  0  0  0  0  0  0
  158.1530  214.2020  147.9400 N   0  0  0  0  0  0  0  0  0  0  0  0
  157.0530  213.8190  148.5110 C   0  0  0  0  0  3  0  0  0  0  0  0
  156.8110  214.1120  149.9490 C   0  0  0  0  0  2  0  0  0  0  0  0
  158.0090  213.6870  150.7710 C   0  0  0  0  0  2  0  0  0  0  0  0
  157.8170  211.7860  154.1570 C   0  0  0  0  0  2  0  0  0  0  0  0
  158.3140  212.2840  152.8360 C   0  0  0  0  0  0  0  0  0  0  0  0
  156.9720  212.8390  154.8730 C   0  0  0  0  0  2  0  0  0  0  0  0
  156.6340  214.1660  152.8020 C   0  0  0  0  0  2  0  0  0  0  0  0
  155.9260  213.4100  153.9250 C   0  0  0  0  0  2  0  0  0  0  0  0
  159.3350  211.7430  152.3300 O   0  0  0  0  0  0  0  0  0  0  0  0
  157.5880  213.3030  152.1140 N   0  0  0  0  0  0  0  0  0  0  0  0
  160.8510  205.8480  149.6370 C   0  0  0  0  0  0  0  0  0  0  0  0
  160.6870  206.8550  150.4470 N   0  0  0  0  0  0  0  0  0  0  0  0
  160.0640  204.6030  149.8840 C   0  0  0  0  0  2  0  0  0  0  0  0
  160.8800  203.6340  150.7140 C   0  0  0  0  0  2  0  0  0  0  0  0
  161.7020  202.8240  149.8280 N   0  0  0  0  0  2  0  0  0  0  0  0
  161.3790  200.2120  150.2270 O   0  0  0  0  0  0  0  0  0  0  0  0
  159.3690  201.5610  149.8260 O   0  0  0  0  0  0  0  0  0  0  0  0
  160.8170  201.3770  149.4560 S   0  0  0  0  0  0  0  0  0  0  0  0
  160.8200  202.1750  146.7860 C   0  0  0  0  0  3  0  0  0  0  0  0
  161.4360  199.5260  145.8610 C   0  0  0  0  0  2  0  0  0  0  0  0
  160.1390  200.3360  144.8750 S   0  0  0  0  0  0  0  0  0  0  0  0
  160.5450  201.9730  145.4990 C   0  0  0  0  0  3  0  0  0  0  0  0
  160.9610  201.0590  147.7370 C   0  0  0  0  0  0  0  0  0  0  0  0
  161.2230  199.8210  147.3120 C   0  0  0  0  0  3  0  0  0  0  0  0
  161.7330  205.9190  148.5520 O   0  0  0  0  0  0  0  0  0  0  0  0
  162.1440  205.6050  144.8600 O   0  0  0  0  0  0  0  0  0  0  0  0
  162.9360  204.8660  145.7010 C   0  0  0  0  0  2  0  0  0  0  0  0
  162.2080  206.0800  146.1980 C   0  0  1  0  0  0  0  0  0  0  0  0
  160.7070  206.2710  146.4530 C   0  0  0  0  0  2  0  0  0  0  0  0
  161.4410  205.3220  147.2970 C   0  0  2  0  0  3  0  0  0  0  0  0
  1  6  2  0  0  0  0
  1  7  1  0  0  0  0
  2 35  1  0  0  0  0
  2  8  2  0  0  0  0
  5  4  2  0  0  0  0
  6  2  1  0  0  0  0
  7  5  1  1  0  0  0
  8  4  1  0  0  0  0
  8  3  1  0  0  0  0
  9 11  1  0  0  0  0
 10  9  1  0  0  0  0
 11 12  1  6  0  0  0
 11  7  1  0  0  0  0
 13 22  1  0  0  0  0
 13 10  2  0  0  0  0
 14 10  1  0  0  0  0
 14 12  2  0  0  0  0
 15 20  1  0  0  0  0
 15 17  1  0  0  0  0
 17 19  2  0  0  0  0
 18 19  1  0  0  0  0
 19 13  1  0  0  0  0
 20 16  1  1  0  0  0
 20 18  1  0  0  0  0
 21 22  2  0  0  0  0
 22 23  1  0  0  0  0
 23 24  2  0  0  0  0
 24 25  1  0  0  0  0
 25 26  1  0  0  0  0
 26 33  1  0  0  0  0
 27 29  1  0  0  0  0
 28 27  1  0  0  0  0
 30 31  1  0  0  0  0
 31 29  1  0  0  0  0
 32 28  2  0  0  0  0
 33 30  1  0  0  0  0
 33 28  1  0  0  0  0
 34 36  1  0  0  0  0
 34 35  2  0  0  0  0
 36 37  1  0  0  0  0
 38 37  1  0  0  0  0
 41 40  2  0  0  0  0
 41 38  1  0  0  0  0
 41 39  2  0  0  0  0
 42 46  1  0  0  0  0
 43 47  1  0  0  0  0
 44 45  1  0  0  0  0
 44 43  1  0  0  0  0
 45 42  2  0  0  0  0
 46 41  1  0  0  0  0
 47 46  2  0  0  0  0
 48 34  1  0  0  0  0
 49 50  1  0  0  0  0
 49 51  1  0  0  0  0
 51 50  1  1  0  0  0
 51 52  1  0  0  0  0
 51 53  1  0  0  0  0
 52 53  1  0  0  0  0
 53 48  1  1  0  0  0
M  END
>  <MODEL>
1

>  <REMARK>
 VINA RESULT:      -6.2      0.000      0.000
  Name = 
  15 active torsions:
  status: ('A' for Active; 'I' for Inactive)
    1  A    between atoms: C_10  and  N_32
    2  A    between atoms: C_14  and  C_47
    3  A    between atoms: N_15  and  S_52
    4  A    between atoms: N_15  and  C_53
    5  A    between atoms: C_20  and  C_39
    6  A    between atoms: C_20  and  O_44
    7  A    between atoms: C_26  and  S_52
    8  A    between atoms: C_27  and  C_33
    9  A    between atoms: C_27  and  C_34
   10  A    between atoms: C_33  and  N_38
   11  A    between atoms: C_39  and  C_53
   12  A    between atoms: C_40  and  C_41
   13  A    between atoms: C_40  and  C_48
   14  A    between atoms: O_44  and  C_49
   15  A    between atoms: C_48  and  N_51
                            x       y       z     vdW  Elec       q    Type
                         _______ _______ _______ _____ _____    ______ ____

>  <TORSDO>
F 15

$$$$
=
 OpenBabel11052410413D

 53 59  0  0  1  0  0  0  0  0999 V2000
  160.9580  212.8750  145.4990 N   0  0  0  0  0  0  0  0  0  0  0  0
  161.8810  212.2650  147.7180 C   0  0  0  0  0  0  0  0  0  0  0  0
  164.1800  212.2180  148.6160 C   0  0  0  0  0  1  0  0  0  0  0  0
  163.8400  212.3940  146.1440 C   0  0  0  0  0  3  0  0  0  0  0  0
  163.3310  212.9990  145.0770 C   0  0  0  0  0  3  0  0  0  0  0  0
  160.8690  212.2410  146.6280 C   0  0  0  0  0  3  0  0  0  0  0  0
  162.0550  213.7610  145.1320 C   0  0  1  0  0  3  0  0  0  0  0  0
  163.2150  212.3370  147.4810 C   0  0  0  0  0  0  0  0  0  0  0  0
  160.6040  213.7900  143.0860 C   0  0  0  0  0  2  0  0  0  0  0  0
  161.1840  213.2120  141.8490 C   0  0  0  0  0  0  0  0  0  0  0  0
  161.7880  214.4440  143.7890 C   0  0  2  0  0  3  0  0  0  0  0  0
  162.9860  214.3510  142.8370 C   0  0  0  0  0  3  0  0  0  0  0  0
  160.5050  212.5370  140.8910 C   0  0  0  0  0  0  0  0  0  0  0  0
  162.5620  213.5160  141.7330 N   0  0  0  0  0  0  0  0  0  0  0  0
  162.4960  211.7330  137.4570 S   0  0  0  0  0  0  0  0  0  0  0  0
  161.7520  209.1220  137.8410 C   0  0  0  0  0  1  0  0  0  0  0  0
  161.5830  212.6740  138.6670 C   0  0  0  0  0  3  0  0  0  0  0  0
  161.6440  210.6430  139.6920 O   0  0  0  0  0  0  0  0  0  0  0  0
  161.2300  211.9650  139.7250 C   0  0  0  0  0  0  0  0  0  0  0  0
  162.4170  210.2770  138.5610 C   0  0  2  0  0  3  0  0  0  0  0  0
  158.3010  213.2270  141.4730 O   0  0  0  0  0  0  0  0  0  0  0  0
  159.0260  212.3420  140.9370 C   0  0  0  0  0  0  0  0  0  0  0  0
  158.4070  211.1930  140.3490 N   0  0  0  0  0  0  0  0  0  0  0  0
  158.1730  211.1080  139.0760 C   0  0  0  0  0  3  0  0  0  0  0  0
  157.5560  209.8820  138.5060 C   0  0  0  0  0  2  0  0  0  0  0  0
  156.3160  210.2460  137.7170 C   0  0  0  0  0  2  0  0  0  0  0  0
  153.3550  211.3740  139.9710 C   0  0  0  0  0  2  0  0  0  0  0  0
  154.4810  211.4090  138.9850 C   0  0  0  0  0  0  0  0  0  0  0  0
  152.6250  210.0330  139.9420 C   0  0  0  0  0  2  0  0  0  0  0  0
  154.4820  208.8970  138.7480 C   0  0  0  0  0  2  0  0  0  0  0  0
  153.6240  208.8860  140.0130 C   0  0  0  0  0  2  0  0  0  0  0  0
  154.8980  212.5290  138.5800 O   0  0  0  0  0  0  0  0  0  0  0  0
  155.1380  210.1890  138.5760 N   0  0  0  0  0  0  0  0  0  0  0  0
  161.6050  210.9730  149.8070 C   0  0  0  0  0  0  0  0  0  0  0  0
  161.4540  212.0430  149.0780 N   0  0  0  0  0  0  0  0  0  0  0  0
  161.1060  210.9960  151.2140 C   0  0  0  0  0  2  0  0  0  0  0  0
  161.8590  209.9790  152.0450 C   0  0  0  0  0  2  0  0  0  0  0  0
  162.1140  210.5380  153.3640 N   0  0  0  0  0  2  0  0  0  0  0  0
  160.5180  208.4670  153.8670 O   0  0  0  0  0  0  0  0  0  0  0  0
  161.9090  209.3080  155.7050 O   0  0  0  0  0  0  0  0  0  0  0  0
  161.0990  209.7040  154.5000 S   0  0  0  0  0  0  0  0  0  0  0  0
  159.4250  210.8650  156.4020 C   0  0  0  0  0  3  0  0  0  0  0  0
  158.1190  212.5060  154.4390 C   0  0  0  0  0  2  0  0  0  0  0  0
  156.9550  211.7370  155.6060 S   0  0  0  0  0  0  0  0  0  0  0  0
  158.2460  211.3440  156.7940 C   0  0  0  0  0  3  0  0  0  0  0  0
  159.7960  210.7770  154.9790 C   0  0  0  0  0  0  0  0  0  0  0  0
  159.1770  211.5190  154.0580 C   0  0  0  0  0  3  0  0  0  0  0  0
  162.2120  209.8190  149.2950 O   0  0  0  0  0  0  0  0  0  0  0  0
  161.6010  206.1420  149.2610 O   0  0  0  0  0  0  0  0  0  0  0  0
  161.0540  206.9160  150.2520 C   0  0  0  0  0  2  0  0  0  0  0  0
  162.2060  207.4160  149.4310 C   0  0  1  0  0  0  0  0  0  0  0  0
  162.2260  207.8670  147.9640 C   0  0  0  0  0  2  0  0  0  0  0  0
  161.4640  208.6690  148.9290 C   0  0  2  0  0  3  0  0  0  0  0  0
  1  6  2  0  0  0  0
  2 35  1  0  0  0  0
  4  8  1  0  0  0  0
  5  4  2  0  0  0  0
  6  2  1  0  0  0  0
  7  5  1  6  0  0  0
  7  1  1  0  0  0  0
  8  2  2  0  0  0  0
  8  3  1  0  0  0  0
  9 11  1  0  0  0  0
 10  9  1  0  0  0  0
 11 12  1  6  0  0  0
 11  7  1  0  0  0  0
 13 22  1  0  0  0  0
 13 10  2  0  0  0  0
 14 10  1  0  0  0  0
 14 12  2  0  0  0  0
 15 20  1  0  0  0  0
 15 17  1  0  0  0  0
 17 19  2  0  0  0  0
 18 19  1  0  0  0  0
 19 13  1  0  0  0  0
 20 16  1  6  0  0  0
 20 18  1  0  0  0  0
 22 21  2  0  0  0  0
 23 22  1  0  0  0  0
 24 23  2  0  0  0  0
 25 24  1  0  0  0  0
 26 25  1  0  0  0  0
 26 33  1  0  0  0  0
 28 27  1  0  0  0  0
 29 27  1  0  0  0  0
 29 31  1  0  0  0  0
 30 31  1  0  0  0  0
 32 28  2  0  0  0  0
 33 30  1  0  0  0  0
 33 28  1  0  0  0  0
 34 36  1  0  0  0  0
 35 34  2  0  0  0  0
 36 37  1  0  0  0  0
 37 38  1  0  0  0  0
 38 41  1  0  0  0  0
 39 41  2  0  0  0  0
 41 46  1  0  0  0  0
 41 40  2  0  0  0  0
 42 45  2  0  0  0  0
 43 44  1  0  0  0  0
 44 45  1  0  0  0  0
 46 42  1  0  0  0  0
 47 43  1  0  0  0  0
 47 46  2  0  0  0  0
 48 34  1  0  0  0  0
 49 51  1  0  0  0  0
 49 50  1  0  0  0  0
 51 52  1  1  0  0  0
 51 50  1  0  0  0  0
 52 53  1  0  0  0  0
 53 48  1  1  0  0  0
 53 51  1  0  0  0  0
M  END
>  <MODEL>
2

>  <REMARK>
 VINA RESULT:      -3.7      4.907      9.254
  Name = 
  15 active torsions:
  status: ('A' for Active; 'I' for Inactive)
    1  A    between atoms: C_10  and  N_32
    2  A    between atoms: C_14  and  C_47
    3  A    between atoms: N_15  and  S_52
    4  A    between atoms: N_15  and  C_53
    5  A    between atoms: C_20  and  C_39
    6  A    between atoms: C_20  and  O_44
    7  A    between atoms: C_26  and  S_52
    8  A    between atoms: C_27  and  C_33
    9  A    between atoms: C_27  and  C_34
   10  A    between atoms: C_33  and  N_38
   11  A    between atoms: C_39  and  C_53
   12  A    between atoms: C_40  and  C_41
   13  A    between atoms: C_40  and  C_48
   14  A    between atoms: O_44  and  C_49
   15  A    between atoms: C_48  and  N_51
                            x       y       z     vdW  Elec       q    Type
                         _______ _______ _______ _____ _____    ______ ____

>  <TORSDO>
F 15

$$$$
