=
 OpenBabel11042421003D

 60 64  0  0  1  0  0  0  0  0999 V2000
  162.6670  209.3150  151.0070 N   0  0  0  0  0  0  0  0  0  0  0  0
  162.5110  209.7140  152.4030 C   0  0  1  0  0  3  0  0  0  0  0  0
  160.8260  212.1360  149.8810 C   0  0  0  0  0  0  0  0  0  0  0  0
  160.2910  213.3540  150.4090 N   0  0  0  0  0  2  0  0  0  0  0  0
  161.9040  209.9630  150.1930 C   0  0  0  0  0  0  0  0  0  0  0  0
  161.6140  210.8210  148.0220 C   0  0  0  0  0  3  0  0  0  0  0  0
  161.0590  212.0170  148.6010 N   0  0  0  0  0  0  0  0  0  0  0  0
  161.5970  211.3040  152.4290 S   0  0  0  0  0  0  0  0  0  0  0  0
  162.0360  209.8490  148.7750 N   0  0  0  0  0  0  0  0  0  0  0  0
  160.9530  210.9370  150.7770 C   0  0  1  0  0  3  0  0  0  0  0  0
  161.1040  206.4100  153.3970 C   0  0  0  0  0  3  0  0  0  0  0  0
  161.2220  209.0590  154.4890 C   0  0  0  0  0  2  0  0  0  0  0  0
  161.7970  208.7000  153.1830 N   0  0  0  0  0  0  0  0  0  0  0  0
  160.2000  208.0590  154.9550 C   0  0  0  0  0  0  0  0  0  0  0  0
  159.2700  208.4230  156.0580 C   0  0  0  0  0  1  0  0  0  0  0  0
  161.8690  207.3140  152.7850 C   0  0  0  0  0  0  0  0  0  0  0  0
  160.1970  206.8120  154.4810 C   0  0  0  0  0  3  0  0  0  0  0  0
  162.7700  206.8670  151.6790 C   0  0  0  0  0  2  0  0  0  0  0  0
  161.1500  206.3760  149.7720 C   0  0  0  0  0  0  0  0  0  0  0  0
  162.1740  207.1730  150.3880 N   0  0  0  0  0  2  0  0  0  0  0  0
  160.3190  206.9450  149.0160 O   0  0  0  0  0  0  0  0  0  0  0  0
  160.9070  203.0580  151.4420 C   0  0  0  0  0  3  0  0  0  0  0  0
  160.7900  202.6710  149.0540 C   0  0  0  0  0  0  0  0  0  0  0  0
  160.7650  202.1580  150.3690 C   0  0  0  0  0  0  0  0  0  0  0  0
  161.0600  204.9100  149.9580 C   0  0  0  0  0  0  0  0  0  0  0  0
  160.9320  204.0490  148.8670 C   0  0  0  0  0  3  0  0  0  0  0  0
  161.0430  204.3920  151.2170 N   0  0  0  0  0  0  0  0  0  0  0  0
  160.6230  200.7850  150.6060 O   0  0  0  0  0  0  0  0  0  0  0  0
  159.3690  200.1160  150.5350 C   0  0  0  0  0  1  0  0  0  0  0  0
  160.6820  201.8840  147.8980 O   0  0  0  0  0  0  0  0  0  0  0  0
  161.2290  202.1850  146.6190 C   0  0  0  0  0  2  0  0  0  0  0  0
  160.1730  201.1360  144.7390 O   0  0  0  0  0  1  0  0  0  0  0  0
  160.1410  202.2720  145.5520 C   0  0  2  0  0  3  0  0  0  0  0  0
  160.3670  203.5050  144.6870 C   0  0  0  0  0  2  0  0  0  0  0  0
  161.5740  204.2000  145.1090 N   0  0  0  0  0  2  0  0  0  0  0  0
  160.3600  206.4180  145.3620 C   0  0  0  0  0  1  0  0  0  0  0  0
  161.5700  205.5670  145.5230 C   0  0  0  0  0  0  0  0  0  0  0  0
  162.6020  206.0650  146.0390 O   0  0  0  0  0  0  0  0  0  0  0  0
  159.8270  214.4530  149.5660 C   0  0  0  0  0  2  0  0  0  0  0  0
  158.4870  214.1990  149.0260 N   0  0  0  0  0  0  0  0  0  0  0  0
  157.3720  214.2520  149.8760 N   0  0  0  0  0  1  0  0  0  0  0  0
  156.7520  214.1900  146.9960 S   0  0  0  0  0  0  0  0  0  0  0  0
  158.2730  214.1270  147.6100 C   0  0  0  0  0  0  0  0  0  0  0  0
  159.4240  214.3240  146.6780 C   0  0  0  0  0  2  0  0  0  0  0  0
  158.9610  214.4260  145.2350 C   0  0  0  0  0  2  0  0  0  0  0  0
  159.3710  213.1840  144.4620 C   0  0  2  0  0  3  0  0  0  0  0  0
  160.1130  212.3300  145.2850 O   0  0  0  0  0  1  0  0  0  0  0  0
  160.1740  213.5680  143.2230 C   0  0  1  0  0  3  0  0  0  0  0  0
  161.4910  213.1110  143.3300 O   0  0  0  0  0  1  0  0  0  0  0  0
  159.5190  212.9840  141.9770 C   0  0  0  0  0  2  0  0  0  0  0  0
  162.1830  210.9420  140.3670 C   0  0  0  0  0  2  0  0  0  0  0  0
  160.0470  212.7690  139.5930 C   0  0  1  0  0  3  0  0  0  0  0  0
  160.9630  211.2470  141.2360 C   0  0  0  0  0  2  0  0  0  0  0  0
  161.8460  211.1460  138.8910 C   0  0  0  0  0  2  0  0  0  0  0  0
  160.5290  212.6220  140.9870 N   0  0  0  0  0  0  0  0  0  0  0  0
  161.2380  212.5350  138.6510 C   0  0  0  0  0  2  0  0  0  0  0  0
  158.9320  211.4820  137.8780 O   0  0  0  0  0  1  0  0  0  0  0  0
  158.8650  211.8380  139.2260 C   0  0  2  0  0  3  0  0  0  0  0  0
  157.1010  213.2970  138.2610 C   0  0  0  0  0  1  0  0  0  0  0  0
  157.5170  212.4900  139.4710 C   0  0  0  0  0  2  0  0  0  0  0  0
  1  2  1  0  0  0  0
  2  8  1  0  0  0  0
  2 13  1  1  0  0  0
  3  4  1  0  0  0  0
  5 10  1  0  0  0  0
  5  1  2  0  0  0  0
  6  7  1  0  0  0  0
  6  9  2  0  0  0  0
  7  3  2  0  0  0  0
  9  5  1  0  0  0  0
 10  3  1  6  0  0  0
 10  8  1  0  0  0  0
 11 17  1  0  0  0  0
 12 14  1  0  0  0  0
 13 12  1  0  0  0  0
 14 15  1  0  0  0  0
 16 13  1  0  0  0  0
 16 11  2  0  0  0  0
 17 14  2  0  0  0  0
 18 16  1  0  0  0  0
 19 25  1  0  0  0  0
 19 20  1  0  0  0  0
 20 18  1  0  0  0  0
 21 19  2  0  0  0  0
 23 24  1  0  0  0  0
 24 28  1  0  0  0  0
 24 22  2  0  0  0  0
 25 27  2  0  0  0  0
 26 23  2  0  0  0  0
 26 25  1  0  0  0  0
 27 22  1  0  0  0  0
 29 28  1  0  0  0  0
 30 23  1  0  0  0  0
 31 30  1  0  0  0  0
 33 32  1  6  0  0  0
 33 31  1  0  0  0  0
 34 35  1  0  0  0  0
 34 33  1  0  0  0  0
 35 37  1  0  0  0  0
 36 37  1  0  0  0  0
 37 38  2  0  0  0  0
 39  4  1  0  0  0  0
 40 39  1  0  0  0  0
 40 41  1  0  0  0  0
 42 43  2  0  0  0  0
 43 40  1  0  0  0  0
 44 43  1  0  0  0  0
 45 44  1  0  0  0  0
 46 45  1  0  0  0  0
 46 47  1  1  0  0  0
 48 49  1  1  0  0  0
 48 46  1  0  0  0  0
 50 48  1  0  0  0  0
 51 53  1  0  0  0  0
 52 58  1  6  0  0  0
 52 55  1  0  0  0  0
 54 51  1  0  0  0  0
 55 53  1  0  0  0  0
 55 50  1  0  0  0  0
 56 54  1  0  0  0  0
 56 52  1  0  0  0  0
 58 57  1  6  0  0  0
 58 60  1  0  0  0  0
 59 60  1  0  0  0  0
M  END
>  <MODEL>
1

>  <REMARK>
 VINA RESULT:      -4.1      0.000      0.000
  Name = 
  21 active torsions:
  status: ('A' for Active; 'I' for Inactive)
    1  A    between atoms: C_2  and  C_23
    2  A    between atoms: C_2  and  C_44
    3  A    between atoms: C_3  and  N_11
    4  A    between atoms: C_4  and  C_30
    5  A    between atoms: C_7  and  C_21
    6  A    between atoms: C_7  and  N_50
    7  A    between atoms: N_8  and  C_35
    8  A    between atoms: N_12  and  C_35
    9  A    between atoms: N_12  and  C_51
   10  A    between atoms: C_13  and  O_16
   11  A    between atoms: O_16  and  C_52
   12  A    between atoms: C_17  and  O_42
   13  A    between atoms: C_18  and  C_20
   14  A    between atoms: C_18  and  N_26
   15  A    between atoms: C_20  and  C_52
   16  A    between atoms: C_21  and  C_23
   17  A    between atoms: C_22  and  N_24
   18  A    between atoms: C_22  and  C_55
   19  A    between atoms: C_25  and  C_28
   20  A    between atoms: C_25  and  C_56
   21  A    between atoms: C_44  and  C_51
                            x       y       z     vdW  Elec       q    Type
                         _______ _______ _______ _____ _____    ______ ____

>  <TORSDO>
F 21

$$$$
=
 OpenBabel11042421003D

 60 64  0  0  1  0  0  0  0  0999 V2000
  162.1930  205.3840  151.3060 N   0  0  0  0  0  0  0  0  0  0  0  0
  162.5760  206.6350  150.6560 C   0  0  1  0  0  3  0  0  0  0  0  0
  161.0730  204.0030  148.2310 C   0  0  0  0  0  0  0  0  0  0  0  0
  161.1170  204.3080  146.8340 N   0  0  0  0  0  2  0  0  0  0  0  0
  161.4680  204.6150  150.5660 C   0  0  0  0  0  0  0  0  0  0  0  0
  160.8450  202.4120  150.0260 C   0  0  0  0  0  3  0  0  0  0  0  0
  160.8790  202.7750  148.6330 N   0  0  0  0  0  0  0  0  0  0  0  0
  162.2480  206.4540  148.8610 S   0  0  0  0  0  0  0  0  0  0  0  0
  161.1430  203.2780  150.9490 N   0  0  0  0  0  0  0  0  0  0  0  0
  161.0750  205.1250  149.2310 C   0  0  1  0  0  3  0  0  0  0  0  0
  160.9860  209.9980  150.8590 C   0  0  0  0  0  3  0  0  0  0  0  0
  161.2290  207.6830  152.5340 C   0  0  0  0  0  2  0  0  0  0  0  0
  161.8410  207.7790  151.1990 N   0  0  0  0  0  0  0  0  0  0  0  0
  160.8820  209.0330  153.1000 C   0  0  0  0  0  0  0  0  0  0  0  0
  160.5890  209.1640  154.5530 C   0  0  0  0  0  1  0  0  0  0  0  0
  161.5190  208.8930  150.3390 C   0  0  0  0  0  0  0  0  0  0  0  0
  160.7130  210.0870  152.3010 C   0  0  0  0  0  3  0  0  0  0  0  0
  161.7910  208.8460  148.8700 C   0  0  0  0  0  2  0  0  0  0  0  0
  162.7640  211.1710  148.4810 C   0  0  0  0  0  0  0  0  0  0  0  0
  162.8880  209.7410  148.5320 N   0  0  0  0  0  2  0  0  0  0  0  0
  163.7760  211.8710  148.7470 O   0  0  0  0  0  0  0  0  0  0  0  0
  159.6690  212.0090  146.5890 C   0  0  0  0  0  3  0  0  0  0  0  0
  159.7330  213.4470  148.5370 C   0  0  0  0  0  0  0  0  0  0  0  0
  159.0670  213.0140  147.3700 C   0  0  0  0  0  0  0  0  0  0  0  0
  161.5080  211.8500  148.0880 C   0  0  0  0  0  0  0  0  0  0  0  0
  160.9480  212.8500  148.8840 C   0  0  0  0  0  3  0  0  0  0  0  0
  160.8540  211.4540  146.9630 N   0  0  0  0  0  0  0  0  0  0  0  0
  157.8470  213.5800  146.9820 O   0  0  0  0  0  0  0  0  0  0  0  0
  157.5200  213.8530  145.6230 C   0  0  0  0  0  1  0  0  0  0  0  0
  159.2560  214.4530  149.3890 O   0  0  0  0  0  0  0  0  0  0  0  0
  158.9010  214.3000  150.7590 C   0  0  0  0  0  2  0  0  0  0  0  0
  156.5230  214.4480  150.4900 O   0  0  0  0  0  1  0  0  0  0  0  0
  157.5520  213.6030  150.9120 C   0  0  2  0  0  3  0  0  0  0  0  0
  157.3240  213.2400  152.3740 C   0  0  0  0  0  2  0  0  0  0  0  0
  158.5500  213.4260  153.1340 N   0  0  0  0  0  2  0  0  0  0  0  0
  157.6560  212.1360  155.1320 C   0  0  0  0  0  1  0  0  0  0  0  0
  158.7600  212.8280  154.4150 C   0  0  0  0  0  0  0  0  0  0  0  0
  159.8970  212.8780  154.9480 O   0  0  0  0  0  0  0  0  0  0  0  0
  160.7940  203.3350  145.7940 C   0  0  0  0  0  2  0  0  0  0  0  0
  160.5330  203.9820  144.5030 N   0  0  0  0  0  0  0  0  0  0  0  0
  159.3930  203.6290  143.7660 N   0  0  0  0  0  1  0  0  0  0  0  0
  162.7610  205.4320  144.7600 S   0  0  0  0  0  0  0  0  0  0  0  0
  161.2930  205.1270  144.0940 C   0  0  0  0  0  0  0  0  0  0  0  0
  160.9130  205.8570  142.8470 C   0  0  0  0  0  2  0  0  0  0  0  0
  162.0360  205.8340  141.8250 C   0  0  0  0  0  2  0  0  0  0  0  0
  162.1410  207.1780  141.1270 C   0  0  2  0  0  3  0  0  0  0  0  0
  160.9600  207.9070  141.3090 O   0  0  0  0  0  1  0  0  0  0  0  0
  162.4300  206.9870  139.6400 C   0  0  1  0  0  3  0  0  0  0  0  0
  162.3350  205.6370  139.2910 O   0  0  0  0  0  1  0  0  0  0  0  0
  161.4530  207.8110  138.8110 C   0  0  0  0  0  2  0  0  0  0  0  0
  163.0550  211.0320  137.8540 C   0  0  0  0  0  2  0  0  0  0  0  0
  160.5850  210.0870  139.0820 C   0  0  1  0  0  3  0  0  0  0  0  0
  162.4980  209.6190  137.6770 C   0  0  0  0  0  2  0  0  0  0  0  0
  161.9220  212.0140  138.1520 C   0  0  0  0  0  2  0  0  0  0  0  0
  161.7790  209.2310  138.8900 N   0  0  0  0  0  0  0  0  0  0  0  0
  161.0660  211.5260  139.3280 C   0  0  0  0  0  2  0  0  0  0  0  0
  159.2470  211.3340  137.5010 O   0  0  0  0  0  1  0  0  0  0  0  0
  159.5730  210.0390  137.9100 C   0  0  2  0  0  3  0  0  0  0  0  0
  157.1040  210.0130  137.6330 C   0  0  0  0  0  1  0  0  0  0  0  0
  158.2850  209.3300  138.2870 C   0  0  0  0  0  2  0  0  0  0  0  0
  2 13  1  1  0  0  0
  2  1  1  0  0  0  0
  3  7  2  0  0  0  0
  4  3  1  0  0  0  0
  5  9  1  0  0  0  0
  5  1  2  0  0  0  0
  6  9  2  0  0  0  0
  7  6  1  0  0  0  0
  8 10  1  0  0  0  0
  8  2  1  0  0  0  0
 10  3  1  6  0  0  0
 10  5  1  0  0  0  0
 11 17  1  0  0  0  0
 12 14  1  0  0  0  0
 13 12  1  0  0  0  0
 14 15  1  0  0  0  0
 16 11  2  0  0  0  0
 16 13  1  0  0  0  0
 17 14  2  0  0  0  0
 18 16  1  0  0  0  0
 19 20  1  0  0  0  0
 19 21  2  0  0  0  0
 20 18  1  0  0  0  0
 22 27  2  0  0  0  0
 22 24  1  0  0  0  0
 23 26  1  0  0  0  0
 23 30  1  0  0  0  0
 24 23  2  0  0  0  0
 25 19  1  0  0  0  0
 25 26  2  0  0  0  0
 27 25  1  0  0  0  0
 28 24  1  0  0  0  0
 29 28  1  0  0  0  0
 30 31  1  0  0  0  0
 31 33  1  0  0  0  0
 33 32  1  1  0  0  0
 33 34  1  0  0  0  0
 34 35  1  0  0  0  0
 35 37  1  0  0  0  0
 37 38  2  0  0  0  0
 37 36  1  0  0  0  0
 39  4  1  0  0  0  0
 40 39  1  0  0  0  0
 41 40  1  0  0  0  0
 43 40  1  0  0  0  0
 43 42  2  0  0  0  0
 44 43  1  0  0  0  0
 45 44  1  0  0  0  0
 46 47  1  6  0  0  0
 46 45  1  0  0  0  0
 48 49  1  6  0  0  0
 48 46  1  0  0  0  0
 50 55  1  0  0  0  0
 50 48  1  0  0  0  0
 51 54  1  0  0  0  0
 52 58  1  6  0  0  0
 52 56  1  0  0  0  0
 53 51  1  0  0  0  0
 53 55  1  0  0  0  0
 54 56  1  0  0  0  0
 55 52  1  0  0  0  0
 58 57  1  1  0  0  0
 58 60  1  0  0  0  0
 59 60  1  0  0  0  0
M  END
>  <MODEL>
2

>  <REMARK>
 VINA RESULT:      -2.5      3.420      8.393
  Name = 
  21 active torsions:
  status: ('A' for Active; 'I' for Inactive)
    1  A    between atoms: C_2  and  C_23
    2  A    between atoms: C_2  and  C_44
    3  A    between atoms: C_3  and  N_11
    4  A    between atoms: C_4  and  C_30
    5  A    between atoms: C_7  and  C_21
    6  A    between atoms: C_7  and  N_50
    7  A    between atoms: N_8  and  C_35
    8  A    between atoms: N_12  and  C_35
    9  A    between atoms: N_12  and  C_51
   10  A    between atoms: C_13  and  O_16
   11  A    between atoms: O_16  and  C_52
   12  A    between atoms: C_17  and  O_42
   13  A    between atoms: C_18  and  C_20
   14  A    between atoms: C_18  and  N_26
   15  A    between atoms: C_20  and  C_52
   16  A    between atoms: C_21  and  C_23
   17  A    between atoms: C_22  and  N_24
   18  A    between atoms: C_22  and  C_55
   19  A    between atoms: C_25  and  C_28
   20  A    between atoms: C_25  and  C_56
   21  A    between atoms: C_44  and  C_51
                            x       y       z     vdW  Elec       q    Type
                         _______ _______ _______ _____ _____    ______ ____

>  <TORSDO>
F 21

$$$$
