=
 OpenBabel11042423103D

 29 32  0  0  1  0  0  0  0  0999 V2000
  161.6360  207.1590  151.3990 C   0  0  2  0  0  3  0  0  0  0  0  0
  161.0320  203.8990  150.4580 C   0  0  0  0  0  2  0  0  0  0  0  0
  162.0060  205.0780  152.2210 O   0  0  0  0  0  0  0  0  0  0  0  0
  161.3930  207.4320  149.9270 C   0  0  2  0  0  3  0  0  0  0  0  0
  161.6820  203.7800  151.8010 C   0  0  0  0  0  2  0  0  0  0  0  0
  161.0150  206.0970  149.3340 C   0  0  1  0  0  3  0  0  0  0  0  0
  160.5000  205.2940  150.5100 C   0  0  2  0  0  3  0  0  0  0  0  0
  161.0110  205.8850  151.7490 N   0  0  2  0  0  0  0  0  0  0  0  0
  159.8560  210.0770  156.9470 S   0  0  0  0  0  0  0  0  0  0  0  0
  160.1250  210.1590  154.3010 N   0  0  0  0  0  0  0  0  0  0  0  0
  161.1010  208.2550  152.2610 C   0  0  0  0  0  0  0  0  0  0  0  0
  160.6830  209.0490  154.6450 C   0  0  0  0  0  0  0  0  0  0  0  0
  161.1900  208.1190  153.6830 N   0  0  0  0  0  2  0  0  0  0  0  0
  160.5390  209.2560  151.7390 O   0  0  0  0  0  0  0  0  0  0  0  0
  159.6460  210.9930  155.3850 C   0  0  1  0  0  3  0  0  0  0  0  0
  160.7640  208.7560  156.0910 C   0  0  0  0  0  2  0  0  0  0  0  0
  158.2080  211.3390  155.1860 C   0  0  0  0  0  0  0  0  0  0  0  0
  155.9990  212.1570  154.4360 C   0  0  0  0  0  3  0  0  0  0  0  0
  155.9770  211.0970  155.3440 C   0  0  0  0  0  3  0  0  0  0  0  0
  157.1970  210.6440  155.7460 N   0  0  0  0  0  0  0  0  0  0  0  0
  157.6200  212.5170  154.1450 S   0  0  0  0  0  0  0  0  0  0  0  0
  162.3050  209.3760  148.5710 C   0  0  0  0  0  1  0  0  0  0  0  0
  162.6150  208.0460  149.2450 C   0  0  0  0  0  2  0  0  0  0  0  0
  159.9600  206.2640  148.3500 N   0  0  0  0  0  2  0  0  0  0  0  0
  160.5830  206.2050  147.0360 C   0  0  0  0  0  2  0  0  0  0  0  0
  161.6620  205.1350  147.0180 C   0  0  0  0  0  2  0  0  0  0  0  0
  161.2290  203.1520  145.6060 C   0  0  0  0  0  1  0  0  0  0  0  0
  161.8270  204.5410  145.6290 C   0  0  0  0  0  3  0  0  0  0  0  0
  161.1210  205.4040  144.6040 C   0  0  0  0  0  1  0  0  0  0  0  0
  1  8  1  0  0  0  0
  1 11  1  1  0  0  0
  2  5  1  0  0  0  0
  4 23  1  6  0  0  0
  4  1  1  0  0  0  0
  5  3  1  0  0  0  0
  6 24  1  6  0  0  0
  6  4  1  0  0  0  0
  6  7  1  0  0  0  0
  7  2  1  6  0  0  0
  7  8  1  0  0  0  0
  8  3  1  6  0  0  0
 10 12  2  0  0  0  0
 10 15  1  0  0  0  0
 11 13  1  0  0  0  0
 12 16  1  0  0  0  0
 13 12  1  0  0  0  0
 14 11  2  0  0  0  0
 15 17  1  6  0  0  0
 15  9  1  0  0  0  0
 16  9  1  0  0  0  0
 17 20  2  0  0  0  0
 18 19  2  0  0  0  0
 19 20  1  0  0  0  0
 21 18  1  0  0  0  0
 21 17  1  0  0  0  0
 22 23  1  0  0  0  0
 25 24  1  0  0  0  0
 26 25  1  0  0  0  0
 27 28  1  0  0  0  0
 28 26  1  0  0  0  0
 29 28  1  0  0  0  0
M  END
>  <MODEL>
1

>  <REMARK>
 VINA RESULT:      -7.1      0.000      0.000
  Name = 
  7 active torsions:
  status: ('A' for Active; 'I' for Inactive)
    1  A    between atoms: C_1  and  C_27
    2  A    between atoms: C_4  and  C_5
    3  A    between atoms: N_6  and  C_10
    4  A    between atoms: N_6  and  C_21
    5  A    between atoms: C_10  and  C_19
    6  A    between atoms: C_13  and  C_18
    7  A    between atoms: C_19  and  C_22
                            x       y       z     vdW  Elec       q    Type
                         _______ _______ _______ _____ _____    ______ ____

>  <TORSDO>
F 7

$$$$
=
 OpenBabel11042423103D

 29 32  0  0  1  0  0  0  0  0999 V2000
  160.7640  211.0390  153.2820 C   0  0  2  0  0  3  0  0  0  0  0  0
  158.1190  213.2480  153.3490 C   0  0  0  0  0  2  0  0  0  0  0  0
  160.0530  212.8430  152.1060 O   0  0  0  0  0  0  0  0  0  0  0  0
  160.3200  210.7560  154.7060 C   0  0  2  0  0  3  0  0  0  0  0  0
  158.9240  213.6740  152.1610 C   0  0  0  0  0  2  0  0  0  0  0  0
  159.0790  211.5900  154.9060 C   0  0  1  0  0  3  0  0  0  0  0  0
  158.5520  211.8270  153.5070 C   0  0  2  0  0  3  0  0  0  0  0  0
  159.6410  211.6190  152.5490 N   0  0  2  0  0  0  0  0  0  0  0  0
  162.3240  207.2120  148.2440 S   0  0  0  0  0  0  0  0  0  0  0  0
  162.1490  207.5770  150.8740 N   0  0  0  0  0  0  0  0  0  0  0  0
  161.2500  209.8030  152.5980 C   0  0  0  0  0  0  0  0  0  0  0  0
  161.8630  208.7290  150.3720 C   0  0  0  0  0  0  0  0  0  0  0  0
  161.4510  209.8340  151.1820 N   0  0  0  0  0  2  0  0  0  0  0  0
  161.4320  208.7430  153.2570 O   0  0  0  0  0  0  0  0  0  0  0  0
  162.5360  206.5480  149.9290 C   0  0  1  0  0  3  0  0  0  0  0  0
  161.9560  208.8650  148.9030 C   0  0  0  0  0  2  0  0  0  0  0  0
  161.6950  205.3280  150.1070 C   0  0  0  0  0  0  0  0  0  0  0  0
  160.4630  203.1940  149.9220 C   0  0  0  0  0  3  0  0  0  0  0  0
  160.6450  203.6790  151.2180 C   0  0  0  0  0  3  0  0  0  0  0  0
  161.3330  204.8500  151.3140 N   0  0  0  0  0  0  0  0  0  0  0  0
  161.2020  204.2930  148.8800 S   0  0  0  0  0  0  0  0  0  0  0  0
  161.8710  209.8560  156.5040 C   0  0  0  0  0  1  0  0  0  0  0  0
  161.4110  211.0810  155.7250 C   0  0  0  0  0  2  0  0  0  0  0  0
  158.0990  210.8540  155.6840 N   0  0  0  0  0  2  0  0  0  0  0  0
  157.6330  211.7410  156.7400 C   0  0  0  0  0  2  0  0  0  0  0  0
  156.1600  212.0610  156.5410 C   0  0  0  0  0  2  0  0  0  0  0  0
  157.2060  214.2750  156.8880 C   0  0  0  0  0  1  0  0  0  0  0  0
  155.8920  213.5500  156.6940 C   0  0  0  0  0  3  0  0  0  0  0  0
  155.2060  214.0870  155.4560 C   0  0  0  0  0  1  0  0  0  0  0  0
  1 11  1  6  0  0  0
  1  4  1  0  0  0  0
  3  5  1  0  0  0  0
  4  6  1  0  0  0  0
  4 23  1  1  0  0  0
  5  2  1  0  0  0  0
  6 24  1  1  0  0  0
  7  2  1  1  0  0  0
  7  6  1  0  0  0  0
  8  3  1  1  0  0  0
  8  1  1  0  0  0  0
  8  7  1  0  0  0  0
  9 16  1  0  0  0  0
  9 15  1  0  0  0  0
 11 14  2  0  0  0  0
 12 10  2  0  0  0  0
 12 13  1  0  0  0  0
 13 11  1  0  0  0  0
 15 17  1  6  0  0  0
 15 10  1  0  0  0  0
 16 12  1  0  0  0  0
 17 20  2  0  0  0  0
 18 19  2  0  0  0  0
 19 20  1  0  0  0  0
 21 18  1  0  0  0  0
 21 17  1  0  0  0  0
 23 22  1  0  0  0  0
 24 25  1  0  0  0  0
 26 28  1  0  0  0  0
 26 25  1  0  0  0  0
 28 27  1  0  0  0  0
 29 28  1  0  0  0  0
M  END
>  <MODEL>
2

>  <REMARK>
 VINA RESULT:      -5.4      3.443      9.174
  Name = 
  7 active torsions:
  status: ('A' for Active; 'I' for Inactive)
    1  A    between atoms: C_1  and  C_27
    2  A    between atoms: C_4  and  C_5
    3  A    between atoms: N_6  and  C_10
    4  A    between atoms: N_6  and  C_21
    5  A    between atoms: C_10  and  C_19
    6  A    between atoms: C_13  and  C_18
    7  A    between atoms: C_19  and  C_22
                            x       y       z     vdW  Elec       q    Type
                         _______ _______ _______ _____ _____    ______ ____

>  <TORSDO>
F 7

$$$$
=
 OpenBabel11042423103D

 29 32  0  0  1  0  0  0  0  0999 V2000
  161.2840  208.6850  155.2310 C   0  0  2  0  0  3  0  0  0  0  0  0
  161.1530  211.5240  157.1800 C   0  0  0  0  0  2  0  0  0  0  0  0
  162.6980  209.9040  156.5190 O   0  0  0  0  0  0  0  0  0  0  0  0
  159.7750  208.7330  155.3910 C   0  0  2  0  0  3  0  0  0  0  0  0
  162.5860  211.0940  157.2530 C   0  0  0  0  0  2  0  0  0  0  0  0
  159.5000  209.9960  156.1680 C   0  0  1  0  0  3  0  0  0  0  0  0
  160.7110  210.8690  155.9130 C   0  0  2  0  0  3  0  0  0  0  0  0
  161.8230  210.0210  155.4770 N   0  0  2  0  0  0  0  0  0  0  0  0
  161.9560  208.9430  148.7560 S   0  0  0  0  0  0  0  0  0  0  0  0
  162.3170  207.6350  151.0450 N   0  0  0  0  0  0  0  0  0  0  0  0
  161.6820  208.2040  153.8740 C   0  0  0  0  0  0  0  0  0  0  0  0
  161.8710  208.7900  151.4030 C   0  0  0  0  0  0  0  0  0  0  0  0
  161.5790  209.1060  152.7670 N   0  0  0  0  0  2  0  0  0  0  0  0
  162.0540  207.0110  153.7080 O   0  0  0  0  0  0  0  0  0  0  0  0
  162.5520  207.4550  149.6260 C   0  0  1  0  0  3  0  0  0  0  0  0
  161.6470  209.7860  150.3350 C   0  0  0  0  0  2  0  0  0  0  0  0
  161.8350  206.2480  149.1220 C   0  0  0  0  0  0  0  0  0  0  0  0
  160.8800  204.3610  147.8420 C   0  0  0  0  0  3  0  0  0  0  0  0
  160.8310  204.2380  149.2320 C   0  0  0  0  0  3  0  0  0  0  0  0
  161.3670  205.2760  149.9310 N   0  0  0  0  0  0  0  0  0  0  0  0
  161.6280  205.8340  147.5090 S   0  0  0  0  0  0  0  0  0  0  0  0
  160.1750  206.9540  157.1590 C   0  0  0  0  0  1  0  0  0  0  0  0
  159.2300  207.4880  156.0910 C   0  0  0  0  0  2  0  0  0  0  0  0
  158.3060  210.6490  155.6610 N   0  0  0  0  0  2  0  0  0  0  0  0
  158.5920  211.0680  154.2960 C   0  0  0  0  0  2  0  0  0  0  0  0
  157.8150  212.3310  153.9640 C   0  0  0  0  0  2  0  0  0  0  0  0
  159.7060  212.5440  152.3840 C   0  0  0  0  0  1  0  0  0  0  0  0
  158.6660  213.3100  153.1710 C   0  0  0  0  0  3  0  0  0  0  0  0
  157.7990  214.1000  152.2130 C   0  0  0  0  0  1  0  0  0  0  0  0
  1 11  1  6  0  0  0
  1  4  1  0  0  0  0
  1  8  1  0  0  0  0
  2  5  1  0  0  0  0
  3  5  1  0  0  0  0
  4 23  1  1  0  0  0
  4  6  1  0  0  0  0
  6 24  1  6  0  0  0
  7  6  1  0  0  0  0
  7  2  1  1  0  0  0
  8  7  1  0  0  0  0
  8  3  1  1  0  0  0
  9 15  1  0  0  0  0
  9 16  1  0  0  0  0
 10 12  2  0  0  0  0
 12 13  1  0  0  0  0
 13 11  1  0  0  0  0
 14 11  2  0  0  0  0
 15 17  1  6  0  0  0
 15 10  1  0  0  0  0
 16 12  1  0  0  0  0
 17 20  2  0  0  0  0
 18 19  2  0  0  0  0
 19 20  1  0  0  0  0
 21 18  1  0  0  0  0
 21 17  1  0  0  0  0
 23 22  1  0  0  0  0
 25 24  1  0  0  0  0
 26 25  1  0  0  0  0
 27 28  1  0  0  0  0
 28 26  1  0  0  0  0
 29 28  1  0  0  0  0
M  END
>  <MODEL>
3

>  <REMARK>
 VINA RESULT:      -5.3      3.181      8.271
  Name = 
  7 active torsions:
  status: ('A' for Active; 'I' for Inactive)
    1  A    between atoms: C_1  and  C_27
    2  A    between atoms: C_4  and  C_5
    3  A    between atoms: N_6  and  C_10
    4  A    between atoms: N_6  and  C_21
    5  A    between atoms: C_10  and  C_19
    6  A    between atoms: C_13  and  C_18
    7  A    between atoms: C_19  and  C_22
                            x       y       z     vdW  Elec       q    Type
                         _______ _______ _______ _____ _____    ______ ____

>  <TORSDO>
F 7

$$$$
=
 OpenBabel11042423103D

 29 32  0  0  1  0  0  0  0  0999 V2000
  160.9810  208.1220  154.3730 C   0  0  2  0  0  3  0  0  0  0  0  0
  161.5360  211.2780  155.6410 C   0  0  0  0  0  2  0  0  0  0  0  0
  162.7370  209.5250  154.6770 O   0  0  0  0  0  0  0  0  0  0  0  0
  159.6890  208.2370  155.1610 C   0  0  2  0  0  3  0  0  0  0  0  0
  162.8820  210.8330  155.1600 C   0  0  0  0  0  2  0  0  0  0  0  0
  159.7020  209.6300  155.7400 C   0  0  1  0  0  3  0  0  0  0  0  0
  160.6300  210.4080  154.8330 C   0  0  2  0  0  3  0  0  0  0  0  0
  161.4930  209.4670  154.1160 N   0  0  2  0  0  0  0  0  0  0  0  0
  161.1520  203.0330  150.3080 S   0  0  0  0  0  0  0  0  0  0  0  0
  160.5440  205.5830  150.7590 N   0  0  0  0  0  0  0  0  0  0  0  0
  160.7820  207.3860  153.0890 C   0  0  0  0  0  0  0  0  0  0  0  0
  160.8960  205.1300  151.9130 C   0  0  0  0  0  0  0  0  0  0  0  0
  160.9950  205.9710  153.0660 N   0  0  0  0  0  2  0  0  0  0  0  0
  160.4800  208.0140  152.0380 O   0  0  0  0  0  0  0  0  0  0  0  0
  160.5040  204.6170  149.6800 C   0  0  1  0  0  3  0  0  0  0  0  0
  161.2200  203.6910  152.0000 C   0  0  0  0  0  2  0  0  0  0  0  0
  161.3270  205.0820  148.5250 C   0  0  0  0  0  0  0  0  0  0  0  0
  162.5400  205.4080  146.3960 C   0  0  0  0  0  3  0  0  0  0  0  0
  162.3310  206.5590  147.1580 C   0  0  0  0  0  3  0  0  0  0  0  0
  161.6540  206.3750  148.3250 N   0  0  0  0  0  0  0  0  0  0  0  0
  161.8380  204.1290  147.2410 S   0  0  0  0  0  0  0  0  0  0  0  0
  160.7010  207.2270  157.2600 C   0  0  0  0  0  1  0  0  0  0  0  0
  159.5730  207.1590  156.2390 C   0  0  0  0  0  2  0  0  0  0  0  0
  158.3690  210.2050  155.6940 N   0  0  0  0  0  2  0  0  0  0  0  0
  158.3220  211.2630  156.6940 C   0  0  0  0  0  2  0  0  0  0  0  0
  158.0530  212.6010  156.0250 C   0  0  0  0  0  2  0  0  0  0  0  0
  155.9860  213.0110  154.7310 C   0  0  0  0  0  1  0  0  0  0  0  0
  157.3760  212.4180  154.6760 C   0  0  0  0  0  3  0  0  0  0  0  0
  158.1730  213.1170  153.5940 C   0  0  0  0  0  1  0  0  0  0  0  0
  1 11  1  6  0  0  0
  1  4  1  0  0  0  0
  3  5  1  0  0  0  0
  4  6  1  0  0  0  0
  4 23  1  1  0  0  0
  5  2  1  0  0  0  0
  6 24  1  6  0  0  0
  7  2  1  1  0  0  0
  7  6  1  0  0  0  0
  8  1  1  0  0  0  0
  8  3  1  1  0  0  0
  8  7  1  0  0  0  0
  9 16  1  0  0  0  0
 10 12  2  0  0  0  0
 12 16  1  0  0  0  0
 12 13  1  0  0  0  0
 13 11  1  0  0  0  0
 14 11  2  0  0  0  0
 15 17  1  6  0  0  0
 15  9  1  0  0  0  0
 15 10  1  0  0  0  0
 18 19  2  0  0  0  0
 18 21  1  0  0  0  0
 19 20  1  0  0  0  0
 20 17  2  0  0  0  0
 21 17  1  0  0  0  0
 23 22  1  0  0  0  0
 24 25  1  0  0  0  0
 26 25  1  0  0  0  0
 28 27  1  0  0  0  0
 28 26  1  0  0  0  0
 29 28  1  0  0  0  0
M  END
>  <MODEL>
4

>  <REMARK>
 VINA RESULT:      -5.0      3.236      8.746
  Name = 
  7 active torsions:
  status: ('A' for Active; 'I' for Inactive)
    1  A    between atoms: C_1  and  C_27
    2  A    between atoms: C_4  and  C_5
    3  A    between atoms: N_6  and  C_10
    4  A    between atoms: N_6  and  C_21
    5  A    between atoms: C_10  and  C_19
    6  A    between atoms: C_13  and  C_18
    7  A    between atoms: C_19  and  C_22
                            x       y       z     vdW  Elec       q    Type
                         _______ _______ _______ _____ _____    ______ ____

>  <TORSDO>
F 7

$$$$
=
 OpenBabel11042423103D

 29 32  0  0  1  0  0  0  0  0999 V2000
  161.8520  210.7340  140.0390 C   0  0  2  0  0  3  0  0  0  0  0  0
  161.1540  207.7650  138.4350 C   0  0  0  0  0  2  0  0  0  0  0  0
  162.2750  208.5250  140.3360 O   0  0  0  0  0  0  0  0  0  0  0  0
  161.4920  211.3300  138.6910 C   0  0  2  0  0  3  0  0  0  0  0  0
  161.9110  207.3520  139.6590 C   0  0  0  0  0  2  0  0  0  0  0  0
  161.0590  210.1590  137.8440 C   0  0  1  0  0  3  0  0  0  0  0  0
  160.6360  209.1050  138.8440 C   0  0  2  0  0  3  0  0  0  0  0  0
  161.2490  209.4060  140.1400 N   0  0  2  0  0  0  0  0  0  0  0  0
  162.3470  213.9830  145.6660 S   0  0  0  0  0  0  0  0  0  0  0  0
  160.8930  213.2680  143.5550 N   0  0  0  0  0  0  0  0  0  0  0  0
  161.3950  211.6000  141.1670 C   0  0  0  0  0  0  0  0  0  0  0  0
  162.0750  212.8240  143.2950 C   0  0  0  0  0  0  0  0  0  0  0  0
  162.3550  212.0360  142.1340 N   0  0  0  0  0  2  0  0  0  0  0  0
  160.1750  211.8960  141.2850 O   0  0  0  0  0  0  0  0  0  0  0  0
  160.7570  214.0380  144.7760 C   0  0  1  0  0  3  0  0  0  0  0  0
  163.1430  213.1420  144.2650 C   0  0  0  0  0  2  0  0  0  0  0  0
  159.6720  213.4760  145.6330 C   0  0  0  0  0  0  0  0  0  0  0  0
  158.0620  212.8740  147.4090 C   0  0  0  0  0  3  0  0  0  0  0  0
  157.6970  212.5130  146.1110 C   0  0  0  0  0  3  0  0  0  0  0  0
  158.5830  212.8560  145.1360 N   0  0  0  0  0  0  0  0  0  0  0  0
  159.5540  213.6490  147.2990 S   0  0  0  0  0  0  0  0  0  0  0  0
  163.9330  212.0000  138.8980 C   0  0  0  0  0  1  0  0  0  0  0  0
  162.6590  212.0980  138.0700 C   0  0  0  0  0  2  0  0  0  0  0  0
  159.9290  210.5320  137.0110 N   0  0  0  0  0  2  0  0  0  0  0  0
  159.0650  211.3850  137.8150 C   0  0  0  0  0  2  0  0  0  0  0  0
  157.6850  211.4730  137.1850 C   0  0  0  0  0  2  0  0  0  0  0  0
  156.9790  209.8030  138.8670 C   0  0  0  0  0  1  0  0  0  0  0  0
  156.5990  211.0950  138.1800 C   0  0  0  0  0  3  0  0  0  0  0  0
  156.4420  212.1850  139.2200 C   0  0  0  0  0  1  0  0  0  0  0  0
  1  8  1  0  0  0  0
  1 11  1  1  0  0  0
  2  5  1  0  0  0  0
  4 23  1  6  0  0  0
  4  1  1  0  0  0  0
  5  3  1  0  0  0  0
  6 24  1  6  0  0  0
  6  4  1  0  0  0  0
  6  7  1  0  0  0  0
  7  2  1  6  0  0  0
  7  8  1  0  0  0  0
  8  3  1  6  0  0  0
 10 15  1  0  0  0  0
 11 14  2  0  0  0  0
 11 13  1  0  0  0  0
 12 10  2  0  0  0  0
 12 16  1  0  0  0  0
 13 12  1  0  0  0  0
 15 17  1  1  0  0  0
 15  9  1  0  0  0  0
 16  9  1  0  0  0  0
 17 21  1  0  0  0  0
 19 18  2  0  0  0  0
 20 17  2  0  0  0  0
 20 19  1  0  0  0  0
 21 18  1  0  0  0  0
 23 22  1  0  0  0  0
 24 25  1  0  0  0  0
 26 25  1  0  0  0  0
 26 28  1  0  0  0  0
 28 27  1  0  0  0  0
 28 29  1  0  0  0  0
M  END
>  <MODEL>
5

>  <REMARK>
 VINA RESULT:      -4.9      8.606     11.315
  Name = 
  7 active torsions:
  status: ('A' for Active; 'I' for Inactive)
    1  A    between atoms: C_1  and  C_27
    2  A    between atoms: C_4  and  C_5
    3  A    between atoms: N_6  and  C_10
    4  A    between atoms: N_6  and  C_21
    5  A    between atoms: C_10  and  C_19
    6  A    between atoms: C_13  and  C_18
    7  A    between atoms: C_19  and  C_22
                            x       y       z     vdW  Elec       q    Type
                         _______ _______ _______ _____ _____    ______ ____

>  <TORSDO>
F 7

$$$$
=
 OpenBabel11042423103D

 29 32  0  0  1  0  0  0  0  0999 V2000
  160.9030  211.1950  153.5200 C   0  0  2  0  0  3  0  0  0  0  0  0
  158.1100  213.1370  154.0690 C   0  0  0  0  0  2  0  0  0  0  0  0
  159.7840  212.8620  152.4650 O   0  0  0  0  0  0  0  0  0  0  0  0
  160.7890  210.9410  155.0120 C   0  0  2  0  0  3  0  0  0  0  0  0
  158.6080  213.5800  152.7280 C   0  0  0  0  0  2  0  0  0  0  0  0
  159.5340  211.6600  155.4400 C   0  0  1  0  0  3  0  0  0  0  0  0
  158.7130  211.7750  154.1740 C   0  0  2  0  0  3  0  0  0  0  0  0
  159.6000  211.6260  153.0180 N   0  0  2  0  0  0  0  0  0  0  0  0
  162.2850  207.5080  148.3280 S   0  0  0  0  0  0  0  0  0  0  0  0
  162.2090  207.8040  150.9710 N   0  0  0  0  0  0  0  0  0  0  0  0
  161.3680  209.9800  152.7860 C   0  0  0  0  0  0  0  0  0  0  0  0
  161.9000  208.9670  150.5100 C   0  0  0  0  0  0  0  0  0  0  0  0
  161.5150  210.0490  151.3640 N   0  0  0  0  0  2  0  0  0  0  0  0
  161.5790  208.9040  153.4090 O   0  0  0  0  0  0  0  0  0  0  0  0
  162.5640  206.8020  149.9860 C   0  0  1  0  0  3  0  0  0  0  0  0
  161.9370  209.1420  149.0440 C   0  0  0  0  0  2  0  0  0  0  0  0
  161.7350  205.5740  150.1620 C   0  0  0  0  0  0  0  0  0  0  0  0
  160.4920  203.4460  149.9630 C   0  0  0  0  0  3  0  0  0  0  0  0
  160.7550  203.8760  151.2650 C   0  0  0  0  0  3  0  0  0  0  0  0
  161.4480  205.0430  151.3690 N   0  0  0  0  0  0  0  0  0  0  0  0
  161.1660  204.5910  148.9260 S   0  0  0  0  0  0  0  0  0  0  0  0
  162.8570  210.2710  156.3260 C   0  0  0  0  0  1  0  0  0  0  0  0
  162.0240  211.4210  155.7750 C   0  0  0  0  0  2  0  0  0  0  0  0
  158.8140  210.8710  156.4250 N   0  0  0  0  0  2  0  0  0  0  0  0
  159.5910  209.6620  156.6590 C   0  0  0  0  0  2  0  0  0  0  0  0
  159.0820  208.5360  155.7740 C   0  0  0  0  0  2  0  0  0  0  0  0
  160.3960  206.6100  154.9490 C   0  0  0  0  0  1  0  0  0  0  0  0
  159.7090  207.2050  156.1580 C   0  0  0  0  0  3  0  0  0  0  0  0
  160.7280  207.4070  157.2600 C   0  0  0  0  0  1  0  0  0  0  0  0
  1 11  1  6  0  0  0
  1  4  1  0  0  0  0
  3  5  1  0  0  0  0
  4  6  1  0  0  0  0
  4 23  1  1  0  0  0
  5  2  1  0  0  0  0
  6 24  1  1  0  0  0
  7  2  1  6  0  0  0
  7  6  1  0  0  0  0
  8  3  1  1  0  0  0
  8  1  1  0  0  0  0
  8  7  1  0  0  0  0
  9 16  1  0  0  0  0
  9 15  1  0  0  0  0
 11 14  2  0  0  0  0
 12 10  2  0  0  0  0
 12 13  1  0  0  0  0
 13 11  1  0  0  0  0
 15 17  1  1  0  0  0
 15 10  1  0  0  0  0
 16 12  1  0  0  0  0
 17 20  2  0  0  0  0
 18 19  2  0  0  0  0
 19 20  1  0  0  0  0
 21 18  1  0  0  0  0
 21 17  1  0  0  0  0
 23 22  1  0  0  0  0
 24 25  1  0  0  0  0
 26 28  1  0  0  0  0
 26 25  1  0  0  0  0
 27 28  1  0  0  0  0
 28 29  1  0  0  0  0
M  END
>  <MODEL>
6

>  <REMARK>
 VINA RESULT:      -4.7      3.473      8.292
  Name = 
  7 active torsions:
  status: ('A' for Active; 'I' for Inactive)
    1  A    between atoms: C_1  and  C_27
    2  A    between atoms: C_4  and  C_5
    3  A    between atoms: N_6  and  C_10
    4  A    between atoms: N_6  and  C_21
    5  A    between atoms: C_10  and  C_19
    6  A    between atoms: C_13  and  C_18
    7  A    between atoms: C_19  and  C_22
                            x       y       z     vdW  Elec       q    Type
                         _______ _______ _______ _____ _____    ______ ____

>  <TORSDO>
F 7

$$$$
=
 OpenBabel11042423103D

 29 32  0  0  1  0  0  0  0  0999 V2000
  161.3040  210.4820  153.3060 C   0  0  2  0  0  3  0  0  0  0  0  0
  161.3150  208.3350  156.0020 C   0  0  0  0  0  2  0  0  0  0  0  0
  161.7350  210.5820  155.5310 O   0  0  0  0  0  0  0  0  0  0  0  0
  161.3540  209.1880  152.5150 C   0  0  2  0  0  3  0  0  0  0  0  0
  161.6690  209.6660  156.5900 C   0  0  0  0  0  2  0  0  0  0  0  0
  161.2770  208.0900  153.5470 C   0  0  1  0  0  3  0  0  0  0  0  0
  160.6200  208.7430  154.7440 C   0  0  2  0  0  3  0  0  0  0  0  0
  160.7760  210.1950  154.6380 N   0  0  2  0  0  0  0  0  0  0  0  0
  156.2020  214.4490  152.4790 S   0  0  0  0  0  0  0  0  0  0  0  0
  158.5400  213.5170  151.6180 N   0  0  0  0  0  0  0  0  0  0  0  0
  160.4670  211.5150  152.6250 C   0  0  0  0  0  0  0  0  0  0  0  0
  158.3950  212.9880  152.7840 C   0  0  0  0  0  0  0  0  0  0  0  0
  159.3240  212.0360  153.3110 N   0  0  0  0  0  2  0  0  0  0  0  0
  160.7410  211.8800  151.4500 O   0  0  0  0  0  0  0  0  0  0  0  0
  157.5120  214.4530  151.2100 C   0  0  1  0  0  3  0  0  0  0  0  0
  157.2040  213.3880  153.5610 C   0  0  0  0  0  2  0  0  0  0  0  0
  156.9410  214.0650  149.8870 C   0  0  0  0  0  0  0  0  0  0  0  0
  155.6400  213.7800  147.8050 C   0  0  0  0  0  3  0  0  0  0  0  0
  156.9440  213.2840  147.7780 C   0  0  0  0  0  3  0  0  0  0  0  0
  157.6590  213.4520  148.9240 N   0  0  0  0  0  0  0  0  0  0  0  0
  155.4040  214.4490  149.3340 S   0  0  0  0  0  0  0  0  0  0  0  0
  162.3040  208.7390  150.2030 C   0  0  0  0  0  1  0  0  0  0  0  0
  162.6120  209.0880  151.6520 C   0  0  0  0  0  2  0  0  0  0  0  0
  160.4470  207.0010  153.0610 N   0  0  0  0  0  2  0  0  0  0  0  0
  161.3380  206.0140  152.4690 C   0  0  0  0  0  2  0  0  0  0  0  0
  160.6780  205.3770  151.2560 C   0  0  0  0  0  2  0  0  0  0  0  0
  160.9110  202.9580  151.7150 C   0  0  0  0  0  1  0  0  0  0  0  0
  161.3920  204.0990  150.8460 C   0  0  0  0  0  3  0  0  0  0  0  0
  161.0980  203.7780  149.3960 C   0  0  0  0  0  1  0  0  0  0  0  0
  1 11  1  6  0  0  0
  1  8  1  0  0  0  0
  2  5  1  0  0  0  0
  3  5  1  0  0  0  0
  4 23  1  1  0  0  0
  4  1  1  0  0  0  0
  4  6  1  0  0  0  0
  6 24  1  6  0  0  0
  6  7  1  0  0  0  0
  7  2  1  1  0  0  0
  8  7  1  0  0  0  0
  8  3  1  1  0  0  0
  9 16  1  0  0  0  0
 10 12  2  0  0  0  0
 11 13  1  0  0  0  0
 12 13  1  0  0  0  0
 12 16  1  0  0  0  0
 14 11  2  0  0  0  0
 15 17  1  6  0  0  0
 15 10  1  0  0  0  0
 15  9  1  0  0  0  0
 18 21  1  0  0  0  0
 19 18  2  0  0  0  0
 19 20  1  0  0  0  0
 20 17  2  0  0  0  0
 21 17  1  0  0  0  0
 22 23  1  0  0  0  0
 25 24  1  0  0  0  0
 26 25  1  0  0  0  0
 28 26  1  0  0  0  0
 28 27  1  0  0  0  0
 29 28  1  0  0  0  0
M  END
>  <MODEL>
7

>  <REMARK>
 VINA RESULT:      -4.6      3.296      5.470
  Name = 
  7 active torsions:
  status: ('A' for Active; 'I' for Inactive)
    1  A    between atoms: C_1  and  C_27
    2  A    between atoms: C_4  and  C_5
    3  A    between atoms: N_6  and  C_10
    4  A    between atoms: N_6  and  C_21
    5  A    between atoms: C_10  and  C_19
    6  A    between atoms: C_13  and  C_18
    7  A    between atoms: C_19  and  C_22
                            x       y       z     vdW  Elec       q    Type
                         _______ _______ _______ _____ _____    ______ ____

>  <TORSDO>
F 7

$$$$
=
 OpenBabel11042423103D

 29 32  0  0  1  0  0  0  0  0999 V2000
  161.3870  208.0270  151.5310 C   0  0  2  0  0  3  0  0  0  0  0  0
  161.6000  204.5940  151.3200 C   0  0  0  0  0  2  0  0  0  0  0  0
  162.1100  206.3070  152.8210 O   0  0  0  0  0  0  0  0  0  0  0  0
  161.2440  207.9230  150.0240 C   0  0  2  0  0  3  0  0  0  0  0  0
  162.1200  204.9110  152.6880 C   0  0  0  0  0  2  0  0  0  0  0  0
  161.2260  206.4440  149.7300 C   0  0  1  0  0  3  0  0  0  0  0  0
  160.7770  205.8050  151.0270 C   0  0  2  0  0  3  0  0  0  0  0  0
  161.0190  206.7440  152.1260 N   0  0  2  0  0  0  0  0  0  0  0  0
  159.2030  214.1230  152.2540 S   0  0  0  0  0  0  0  0  0  0  0  0
  159.0810  211.5530  152.9290 N   0  0  0  0  0  0  0  0  0  0  0  0
  160.5420  209.1230  152.0930 C   0  0  0  0  0  0  0  0  0  0  0  0
  159.9070  211.5850  151.9400 C   0  0  0  0  0  0  0  0  0  0  0  0
  160.6100  210.4210  151.4940 N   0  0  0  0  0  2  0  0  0  0  0  0
  159.8220  208.9130  153.1070 O   0  0  0  0  0  0  0  0  0  0  0  0
  158.4560  212.8130  153.2770 C   0  0  1  0  0  3  0  0  0  0  0  0
  160.1240  212.8920  151.2860 C   0  0  0  0  0  2  0  0  0  0  0  0
  158.6570  213.1180  154.7240 C   0  0  0  0  0  0  0  0  0  0  0  0
  158.6500  213.2400  157.1930 C   0  0  0  0  0  3  0  0  0  0  0  0
  159.7380  213.8410  156.5580 C   0  0  0  0  0  3  0  0  0  0  0  0
  159.7410  213.7630  155.1990 N   0  0  0  0  0  0  0  0  0  0  0  0
  157.6740  212.5930  155.9800 S   0  0  0  0  0  0  0  0  0  0  0  0
  161.8600  209.7940  148.4210 C   0  0  0  0  0  1  0  0  0  0  0  0
  162.3690  208.6490  149.2860 C   0  0  0  0  0  2  0  0  0  0  0  0
  160.2660  206.1520  148.6790 N   0  0  0  0  0  2  0  0  0  0  0  0
  160.7310  204.9560  147.9920 C   0  0  0  0  0  2  0  0  0  0  0  0
  162.0050  205.2580  147.2210 C   0  0  0  0  0  2  0  0  0  0  0  0
  161.5400  203.1540  146.0060 C   0  0  0  0  0  1  0  0  0  0  0  0
  161.9970  204.5890  145.8560 C   0  0  0  0  0  3  0  0  0  0  0  0
  161.0510  205.3160  144.9230 C   0  0  0  0  0  1  0  0  0  0  0  0
  1 11  1  1  0  0  0
  1  8  1  0  0  0  0
  2  5  1  0  0  0  0
  4 23  1  6  0  0  0
  4  1  1  0  0  0  0
  5  3  1  0  0  0  0
  6 24  1  6  0  0  0
  6  4  1  0  0  0  0
  6  7  1  0  0  0  0
  7  2  1  1  0  0  0
  7  8  1  0  0  0  0
  8  3  1  1  0  0  0
  9 15  1  0  0  0  0
 10 15  1  0  0  0  0
 11 14  2  0  0  0  0
 12 10  2  0  0  0  0
 13 12  1  0  0  0  0
 13 11  1  0  0  0  0
 15 17  1  1  0  0  0
 16 12  1  0  0  0  0
 16  9  1  0  0  0  0
 17 20  2  0  0  0  0
 17 21  1  0  0  0  0
 19 18  2  0  0  0  0
 20 19  1  0  0  0  0
 21 18  1  0  0  0  0
 22 23  1  0  0  0  0
 25 24  1  0  0  0  0
 26 25  1  0  0  0  0
 28 27  1  0  0  0  0
 28 26  1  0  0  0  0
 29 28  1  0  0  0  0
M  END
>  <MODEL>
8

>  <REMARK>
 VINA RESULT:      -4.6      1.980      2.607
  Name = 
  7 active torsions:
  status: ('A' for Active; 'I' for Inactive)
    1  A    between atoms: C_1  and  C_27
    2  A    between atoms: C_4  and  C_5
    3  A    between atoms: N_6  and  C_10
    4  A    between atoms: N_6  and  C_21
    5  A    between atoms: C_10  and  C_19
    6  A    between atoms: C_13  and  C_18
    7  A    between atoms: C_19  and  C_22
                            x       y       z     vdW  Elec       q    Type
                         _______ _______ _______ _____ _____    ______ ____

>  <TORSDO>
F 7

$$$$
=
 OpenBabel11042423103D

 29 32  0  0  1  0  0  0  0  0999 V2000
  160.4580  205.8760  148.9710 C   0  0  2  0  0  3  0  0  0  0  0  0
  161.2330  204.8540  145.7730 C   0  0  0  0  0  2  0  0  0  0  0  0
  160.0610  206.5630  146.8460 O   0  0  0  0  0  0  0  0  0  0  0  0
  160.8380  204.4490  149.3180 C   0  0  2  0  0  3  0  0  0  0  0  0
  160.4570  206.1190  145.5770 C   0  0  0  0  0  2  0  0  0  0  0  0
  161.3060  203.8380  148.0210 C   0  0  1  0  0  3  0  0  0  0  0  0
  161.7230  205.0210  147.1740 C   0  0  2  0  0  3  0  0  0  0  0  0
  161.0780  206.2280  147.6950 N   0  0  2  0  0  0  0  0  0  0  0  0
  161.3100  208.0700  155.0480 S   0  0  0  0  0  0  0  0  0  0  0  0
  161.5740  208.4320  152.4250 N   0  0  0  0  0  0  0  0  0  0  0  0
  160.8790  206.8360  150.0370 C   0  0  0  0  0  0  0  0  0  0  0  0
  161.1500  207.2200  152.5390 C   0  0  0  0  0  0  0  0  0  0  0  0
  160.8310  206.4120  151.4020 N   0  0  0  0  0  2  0  0  0  0  0  0
  161.2220  208.0100  149.7330 O   0  0  0  0  0  0  0  0  0  0  0  0
  161.8410  209.1330  153.6650 C   0  0  1  0  0  3  0  0  0  0  0  0
  160.9830  206.6920  153.9090 C   0  0  0  0  0  2  0  0  0  0  0  0
  161.1040  210.4290  153.7060 C   0  0  0  0  0  0  0  0  0  0  0  0
  159.7050  212.4290  153.3110 C   0  0  0  0  0  3  0  0  0  0  0  0
  160.0800  212.2030  154.6360 C   0  0  0  0  0  3  0  0  0  0  0  0
  160.8430  211.0950  154.8490 N   0  0  0  0  0  0  0  0  0  0  0  0
  160.3670  211.1770  152.3960 S   0  0  0  0  0  0  0  0  0  0  0  0
  160.0960  202.8500  151.1460 C   0  0  0  0  0  1  0  0  0  0  0  0
  159.6740  203.6770  149.9390 C   0  0  0  0  0  2  0  0  0  0  0  0
  162.4490  202.9720  148.2560 N   0  0  0  0  0  2  0  0  0  0  0  0
  161.9530  201.6030  148.2820 C   0  0  0  0  0  2  0  0  0  0  0  0
  160.7200  201.4780  147.4030 C   0  0  0  0  0  2  0  0  0  0  0  0
  161.2060  199.4780  146.0310 C   0  0  0  0  0  1  0  0  0  0  0  0
  161.0820  200.9850  146.0110 C   0  0  0  0  0  3  0  0  0  0  0  0
  160.0070  201.3830  145.0200 C   0  0  0  0  0  1  0  0  0  0  0  0
  1  4  1  0  0  0  0
  1 11  1  1  0  0  0
  4 23  1  6  0  0  0
  5  2  1  0  0  0  0
  5  3  1  0  0  0  0
  6 24  1  1  0  0  0
  6  4  1  0  0  0  0
  7  2  1  6  0  0  0
  7  8  1  0  0  0  0
  7  6  1  0  0  0  0
  8  3  1  6  0  0  0
  8  1  1  0  0  0  0
 10 12  2  0  0  0  0
 10 15  1  0  0  0  0
 11 13  1  0  0  0  0
 12 16  1  0  0  0  0
 13 12  1  0  0  0  0
 14 11  2  0  0  0  0
 15 17  1  6  0  0  0
 15  9  1  0  0  0  0
 16  9  1  0  0  0  0
 17 20  2  0  0  0  0
 18 19  2  0  0  0  0
 19 20  1  0  0  0  0
 21 18  1  0  0  0  0
 21 17  1  0  0  0  0
 23 22  1  0  0  0  0
 24 25  1  0  0  0  0
 26 25  1  0  0  0  0
 28 27  1  0  0  0  0
 28 26  1  0  0  0  0
 29 28  1  0  0  0  0
M  END
>  <MODEL>
9

>  <REMARK>
 VINA RESULT:      -4.5      2.312      4.072
  Name = 
  7 active torsions:
  status: ('A' for Active; 'I' for Inactive)
    1  A    between atoms: C_1  and  C_27
    2  A    between atoms: C_4  and  C_5
    3  A    between atoms: N_6  and  C_10
    4  A    between atoms: N_6  and  C_21
    5  A    between atoms: C_10  and  C_19
    6  A    between atoms: C_13  and  C_18
    7  A    between atoms: C_19  and  C_22
                            x       y       z     vdW  Elec       q    Type
                         _______ _______ _______ _____ _____    ______ ____

>  <TORSDO>
F 7

$$$$
