=
 OpenBabel11042421133D

 32 35  0  0  1  0  0  0  0  0999 V2000
  160.9520  206.2800  149.0240 N   0  0  0  0  0  0  0  0  0  0  0  0
  161.3590  205.0360  151.5750 C   0  0  2  0  0  3  0  0  0  0  0  0
  161.3250  209.8340  155.9940 C   0  0  0  0  0  2  0  0  0  0  0  0
  161.0670  207.2830  152.4240 C   0  0  0  0  0  0  0  0  0  0  0  0
  160.3910  212.2190  155.4200 C   0  0  1  0  0  3  0  0  0  0  0  0
  161.2950  207.0680  150.0040 C   0  0  0  0  0  0  0  0  0  0  0  0
  160.7390  210.4580  153.5730 N   0  0  0  0  0  0  0  0  0  0  0  0
  159.9710  209.2590  153.2590 C   0  0  0  0  0  2  0  0  0  0  0  0
  160.8130  208.0380  153.4550 C   0  0  0  0  0  0  0  0  0  0  0  0
  161.3310  207.6190  154.8000 C   0  0  0  0  0  2  0  0  0  0  0  0
  160.5850  204.9050  149.2220 C   0  0  0  0  0  3  0  0  0  0  0  0
  161.3050  206.5240  151.3860 C   0  0  0  0  0  0  0  0  0  0  0  0
  160.7590  208.4210  155.9670 C   0  0  1  0  0  3  0  0  0  0  0  0
  161.1210  207.7240  157.2610 C   0  0  0  0  0  1  0  0  0  0  0  0
  160.5880  210.7550  155.0180 C   0  0  1  0  0  0  0  0  0  0  0  0
  162.6800  204.6430  151.6890 F   0  0  0  0  0  0  0  0  0  0  0  0
  159.2180  211.2400  155.4590 C   0  0  0  0  0  2  0  0  0  0  0  0
  160.8480  212.4730  156.7760 N   0  0  0  0  0  1  0  0  0  0  0  0
  160.7340  204.3140  150.4120 C   0  0  0  0  0  3  0  0  0  0  0  0
  162.1280  209.2890  150.6820 N   0  0  0  0  0  0  0  0  0  0  0  0
  162.4100  211.0580  149.1060 C   0  0  0  0  0  0  0  0  0  0  0  0
  161.5820  208.9300  148.4230 N   0  0  0  0  0  0  0  0  0  0  0  0
  162.5000  210.5670  150.4110 C   0  0  0  0  0  3  0  0  0  0  0  0
  161.9390  210.2020  148.1120 C   0  0  0  0  0  3  0  0  0  0  0  0
  161.6650  208.4670  149.7010 C   0  0  0  0  0  0  0  0  0  0  0  0
  162.6750  212.9390  147.4320 C   0  0  0  0  0  1  0  0  0  0  0  0
  162.7910  212.3940  148.7750 N   0  0  0  0  0  2  0  0  0  0  0  0
  158.0220  210.7130  152.9380 O   0  0  0  0  0  0  0  0  0  0  0  0
  159.1680  213.7130  151.2000 C   0  0  0  0  0  1  0  0  0  0  0  0
  158.8150  211.5860  152.4960 C   0  0  0  0  0  0  0  0  0  0  0  0
  158.3050  212.6680  151.7210 N   0  0  0  0  0  2  0  0  0  0  0  0
  160.2140  211.4910  152.7750 N   0  0  0  0  0  2  0  0  0  0  0  0
  1 11  1  0  0  0  0
  1  6  2  0  0  0  0
  2 16  1  6  0  0  0
  4  9  2  0  0  0  0
  5 17  1  0  0  0  0
  5 18  1  1  0  0  0
  6 12  1  0  0  0  0
  7 15  1  0  0  0  0
  8  9  1  0  0  0  0
  8  7  1  0  0  0  0
  9 10  1  0  0  0  0
 10 13  1  0  0  0  0
 11 19  2  0  0  0  0
 12  2  1  0  0  0  0
 12  4  2  0  0  0  0
 13  3  1  0  0  0  0
 13 14  1  1  0  0  0
 15  5  1  0  0  0  0
 15 17  1  1  0  0  0
 15  3  1  0  0  0  0
 19  2  1  0  0  0  0
 21 23  2  0  0  0  0
 22 25  1  0  0  0  0
 23 20  1  0  0  0  0
 24 22  2  0  0  0  0
 24 21  1  0  0  0  0
 25  6  1  0  0  0  0
 25 20  2  0  0  0  0
 26 27  1  0  0  0  0
 27 21  1  0  0  0  0
 29 31  1  0  0  0  0
 30 32  1  0  0  0  0
 30 28  2  0  0  0  0
 31 30  1  0  0  0  0
 32  7  1  0  0  0  0
M  END
>  <MODEL>
1

>  <REMARK>
 VINA RESULT:      -5.0      0.000      0.000
  Name = 
  3 active torsions:
  status: ('A' for Active; 'I' for Inactive)
    1  A    between atoms: C_10  and  N_13
    2  A    between atoms: C_14  and  C_32
    3  A    between atoms: N_15  and  N_29
                            x       y       z     vdW  Elec       q    Type
                         _______ _______ _______ _____ _____    ______ ____

>  <TORSDO>
F 3

$$$$
=
 OpenBabel11042421133D

 32 35  0  0  1  0  0  0  0  0999 V2000
  162.7110  212.4060  147.8250 N   0  0  0  0  0  0  0  0  0  0  0  0
  160.2190  213.7980  147.5520 C   0  0  2  0  0  3  0  0  0  0  0  0
  156.8220  212.5810  152.9870 C   0  0  0  0  0  2  0  0  0  0  0  0
  159.8150  212.9760  149.7920 C   0  0  0  0  0  0  0  0  0  0  0  0
  157.9770  211.6100  155.1350 C   0  0  1  0  0  3  0  0  0  0  0  0
  161.7580  212.0510  148.6400 C   0  0  0  0  0  0  0  0  0  0  0  0
  159.2450  211.7350  152.8980 N   0  0  0  0  0  0  0  0  0  0  0  0
  159.8110  212.8830  152.1990 C   0  0  0  0  0  2  0  0  0  0  0  0
  159.1200  213.0850  150.8890 C   0  0  0  0  0  0  0  0  0  0  0  0
  157.6700  213.4610  150.7870 C   0  0  0  0  0  2  0  0  0  0  0  0
  162.6200  213.5620  146.9760 C   0  0  0  0  0  3  0  0  0  0  0  0
  160.5250  212.8780  148.6980 C   0  0  0  0  0  0  0  0  0  0  0  0
  157.0230  213.8190  152.1230 C   0  0  1  0  0  3  0  0  0  0  0  0
  155.6750  214.4530  151.8580 C   0  0  0  0  0  1  0  0  0  0  0  0
  158.1070  212.1960  153.7270 C   0  0  1  0  0  0  0  0  0  0  0  0
  159.4190  213.1340  146.6420 F   0  0  0  0  0  0  0  0  0  0  0  0
  158.4630  213.0450  154.9360 C   0  0  0  0  0  2  0  0  0  0  0  0
  156.6010  211.6310  155.6050 N   0  0  0  0  0  1  0  0  0  0  0  0
  161.4780  214.2470  146.8600 C   0  0  0  0  0  3  0  0  0  0  0  0
  161.6670  209.6060  148.9600 N   0  0  0  0  0  0  0  0  0  0  0  0
  162.3410  208.5840  151.0080 C   0  0  0  0  0  0  0  0  0  0  0  0
  162.4190  210.9510  150.7380 N   0  0  0  0  0  0  0  0  0  0  0  0
  161.8590  208.4840  149.7010 C   0  0  0  0  0  3  0  0  0  0  0  0
  162.6180  209.8540  151.5120 C   0  0  0  0  0  3  0  0  0  0  0  0
  161.9390  210.8400  149.4680 C   0  0  0  0  0  0  0  0  0  0  0  0
  161.7860  206.2070  151.6800 C   0  0  0  0  0  1  0  0  0  0  0  0
  162.5580  207.4310  151.8230 N   0  0  0  0  0  2  0  0  0  0  0  0
  159.7050  208.9880  153.2130 O   0  0  0  0  0  0  0  0  0  0  0  0
  162.4970  210.1450  155.2630 C   0  0  0  0  0  1  0  0  0  0  0  0
  160.4800  209.7880  153.8020 C   0  0  0  0  0  0  0  0  0  0  0  0
  161.5610  209.2730  154.5760 N   0  0  0  0  0  2  0  0  0  0  0  0
  160.2770  211.1980  153.6890 N   0  0  0  0  0  2  0  0  0  0  0  0
  1  6  2  0  0  0  0
  2 16  1  6  0  0  0
  2 12  1  0  0  0  0
  4  9  2  0  0  0  0
  5 18  1  1  0  0  0
  6 12  1  0  0  0  0
  6 25  1  0  0  0  0
  7 32  1  0  0  0  0
  7 15  1  0  0  0  0
  8  7  1  0  0  0  0
  9  8  1  0  0  0  0
 10  9  1  0  0  0  0
 10 13  1  0  0  0  0
 11  1  1  0  0  0  0
 12  4  2  0  0  0  0
 13 14  1  6  0  0  0
 13  3  1  0  0  0  0
 15  3  1  6  0  0  0
 15 17  1  0  0  0  0
 15  5  1  0  0  0  0
 17  5  1  0  0  0  0
 19 11  2  0  0  0  0
 19  2  1  0  0  0  0
 20 25  2  0  0  0  0
 20 23  1  0  0  0  0
 21 24  1  0  0  0  0
 21 27  1  0  0  0  0
 22 24  2  0  0  0  0
 23 21  2  0  0  0  0
 25 22  1  0  0  0  0
 26 27  1  0  0  0  0
 28 30  2  0  0  0  0
 30 31  1  0  0  0  0
 31 29  1  0  0  0  0
 32 30  1  0  0  0  0
M  END
>  <MODEL>
2

>  <REMARK>
 VINA RESULT:      -4.5      2.596      5.975
  Name = 
  3 active torsions:
  status: ('A' for Active; 'I' for Inactive)
    1  A    between atoms: C_10  and  N_13
    2  A    between atoms: C_14  and  C_32
    3  A    between atoms: N_15  and  N_29
                            x       y       z     vdW  Elec       q    Type
                         _______ _______ _______ _____ _____    ______ ____

>  <TORSDO>
F 3

$$$$
=
 OpenBabel11042421133D

 32 35  0  0  1  0  0  0  0  0999 V2000
  161.1760  205.6630  149.0070 N   0  0  0  0  0  0  0  0  0  0  0  0
  161.6090  204.4260  151.5570 C   0  0  2  0  0  3  0  0  0  0  0  0
  160.8540  209.1130  156.0320 C   0  0  0  0  0  2  0  0  0  0  0  0
  161.0330  206.6130  152.4210 C   0  0  0  0  0  0  0  0  0  0  0  0
  159.6860  211.3900  155.4470 C   0  0  1  0  0  3  0  0  0  0  0  0
  161.3880  206.4670  150.0110 C   0  0  0  0  0  0  0  0  0  0  0  0
  160.3060  209.7120  153.5950 N   0  0  0  0  0  0  0  0  0  0  0  0
  159.6900  208.4400  153.2320 C   0  0  0  0  0  2  0  0  0  0  0  0
  160.6530  207.3170  153.4490 C   0  0  0  0  0  0  0  0  0  0  0  0
  161.1570  206.9340  154.8110 C   0  0  0  0  0  2  0  0  0  0  0  0
  160.9560  204.2530  149.1710 C   0  0  0  0  0  3  0  0  0  0  0  0
  161.3990  205.9030  151.3860 C   0  0  0  0  0  0  0  0  0  0  0  0
  160.4490  207.6470  155.9610 C   0  0  1  0  0  3  0  0  0  0  0  0
  160.8310  206.9720  157.2610 C   0  0  0  0  0  1  0  0  0  0  0  0
  160.0620  209.9640  155.0350 C   0  0  1  0  0  0  0  0  0  0  0  0
  162.9590  204.1810  151.7250 F   0  0  0  0  0  0  0  0  0  0  0  0
  158.6280  210.2870  155.4210 C   0  0  0  0  0  2  0  0  0  0  0  0
  160.0540  211.6700  156.8260 N   0  0  0  0  0  1  0  0  0  0  0  0
  161.1190  203.6610  150.3580 C   0  0  0  0  0  3  0  0  0  0  0  0
  162.1030  208.7210  150.7150 N   0  0  0  0  0  0  0  0  0  0  0  0
  162.0850  210.5700  149.2070 C   0  0  0  0  0  0  0  0  0  0  0  0
  161.3670  208.4090  148.5030 N   0  0  0  0  0  0  0  0  0  0  0  0
  162.3420  210.0350  150.4710 C   0  0  0  0  0  3  0  0  0  0  0  0
  161.5890  209.7190  148.2220 C   0  0  0  0  0  3  0  0  0  0  0  0
  161.6130  207.9040  149.7430 C   0  0  0  0  0  0  0  0  0  0  0  0
  161.5530  212.6840  147.9190 C   0  0  0  0  0  1  0  0  0  0  0  0
  162.3230  211.9460  148.9070 N   0  0  0  0  0  2  0  0  0  0  0  0
  161.6240  212.0140  152.6930 O   0  0  0  0  0  0  0  0  0  0  0  0
  158.4340  212.6470  151.0320 C   0  0  0  0  0  1  0  0  0  0  0  0
  160.4270  211.8420  152.3390 C   0  0  0  0  0  0  0  0  0  0  0  0
  159.8040  212.8000  151.4860 N   0  0  0  0  0  2  0  0  0  0  0  0
  159.7040  210.6940  152.7880 N   0  0  0  0  0  2  0  0  0  0  0  0
  1 11  1  0  0  0  0
  1  6  2  0  0  0  0
  2 16  1  6  0  0  0
  4  9  2  0  0  0  0
  5 18  1  1  0  0  0
  6 12  1  0  0  0  0
  7 15  1  0  0  0  0
  8  9  1  0  0  0  0
  8  7  1  0  0  0  0
  9 10  1  0  0  0  0
 10 13  1  0  0  0  0
 11 19  2  0  0  0  0
 12  2  1  0  0  0  0
 12  4  2  0  0  0  0
 13  3  1  0  0  0  0
 13 14  1  1  0  0  0
 15 17  1  1  0  0  0
 15  5  1  0  0  0  0
 15  3  1  0  0  0  0
 17  5  1  0  0  0  0
 19  2  1  0  0  0  0
 21 23  2  0  0  0  0
 22 25  1  0  0  0  0
 23 20  1  0  0  0  0
 24 22  2  0  0  0  0
 24 21  1  0  0  0  0
 25  6  1  0  0  0  0
 25 20  2  0  0  0  0
 26 27  1  0  0  0  0
 27 21  1  0  0  0  0
 29 31  1  0  0  0  0
 30 28  2  0  0  0  0
 30 32  1  0  0  0  0
 31 30  1  0  0  0  0
 32  7  1  0  0  0  0
M  END
>  <MODEL>
3

>  <REMARK>
 VINA RESULT:      -4.2      1.088      1.105
  Name = 
  3 active torsions:
  status: ('A' for Active; 'I' for Inactive)
    1  A    between atoms: C_10  and  N_13
    2  A    between atoms: C_14  and  C_32
    3  A    between atoms: N_15  and  N_29
                            x       y       z     vdW  Elec       q    Type
                         _______ _______ _______ _____ _____    ______ ____

>  <TORSDO>
F 3

$$$$
