=
 OpenBabel11042421423D

 47 52  0  0  1  0  0  0  0  0999 V2000
  159.6730  209.9180  156.6810 N   0  0  0  0  0  0  0  0  0  0  0  0
  159.0940  211.2430  156.4380 C   0  0  0  0  0  0  0  0  0  0  0  0
  159.2200  213.4750  153.3120 C   0  0  0  0  0  3  0  0  0  0  0  0
  159.9220  210.8310  154.0200 C   0  0  2  0  0  3  0  0  0  0  0  0
  162.0000  206.7560  151.9120 S   0  0  0  0  0  0  0  0  0  0  0  0
  160.2020  209.1590  155.7680 C   0  0  0  0  0  3  0  0  0  0  0  0
  161.3400  206.6790  154.6820 C   0  0  0  0  0  1  0  0  0  0  0  0
  160.0800  211.3180  152.6640 N   0  0  0  0  0  0  0  0  0  0  0  0
  161.0040  209.2220  151.9460 C   0  0  0  0  0  0  0  0  0  0  0  0
  161.5820  208.2680  150.9630 C   0  0  2  0  0  3  0  0  0  0  0  0
  160.6260  210.4620  151.6420 C   0  0  0  0  0  2  0  0  0  0  0  0
  161.3430  207.4700  153.4210 C   0  0  1  0  0  3  0  0  0  0  0  0
  159.7080  212.6790  152.3550 C   0  0  0  0  0  0  0  0  0  0  0  0
  157.6630  211.1950  156.6920 N   0  0  0  0  0  1  0  0  0  0  0  0
  160.8890  208.7160  153.3020 C   0  0  0  0  0  0  0  0  0  0  0  0
  159.3500  211.7360  155.0380 C   0  0  0  0  0  0  0  0  0  0  0  0
  159.0280  212.9860  154.6930 C   0  0  0  0  0  3  0  0  0  0  0  0
  160.3120  209.5900  154.3610 C   0  0  0  0  0  0  0  0  0  0  0  0
  161.7470  206.0440  149.1240 N   0  0  0  0  0  0  0  0  0  0  0  0
  160.7180  206.8300  149.0640 C   0  0  0  0  0  3  0  0  0  0  0  0
  160.5930  207.9500  149.9420 N   0  0  0  0  0  2  0  0  0  0  0  0
  161.2850  203.6350  148.6300 C   0  0  0  0  0  2  0  0  0  0  0  0
  162.6690  205.1200  147.0570 C   0  0  0  0  0  2  0  0  0  0  0  0
  161.4630  202.5570  147.5610 C   0  0  0  0  0  2  0  0  0  0  0  0
  161.7430  205.1360  145.8490 C   0  0  0  0  0  2  0  0  0  0  0  0
  161.5010  203.7200  145.3390 C   0  0  0  0  0  2  0  0  0  0  0  0
  160.6620  202.9000  146.3100 C   0  0  0  0  0  2  0  0  0  0  0  0
  161.9020  204.9270  148.2820 N   0  0  0  0  0  0  0  0  0  0  0  0
  159.8780  213.2310  150.9750 C   0  0  0  0  0  2  0  0  0  0  0  0
  158.5150  213.4210  150.3080 C   0  0  1  0  0  3  0  0  0  0  0  0
  156.2610  214.2750  150.5200 C   0  0  0  0  0  1  0  0  0  0  0  0
  157.4550  213.8310  151.2340 N   0  0  0  0  0  2  0  0  0  0  0  0
  158.5540  214.2540  149.0220 C   0  0  0  0  0  2  0  0  0  0  0  0
  159.5540  213.7700  148.0810 N   0  0  0  0  0  0  0  0  0  0  0  0
  161.6000  213.4690  147.1280 C   0  0  0  0  0  0  0  0  0  0  0  0
  159.3210  213.2430  146.7830 C   0  0  0  0  0  0  0  0  0  0  0  0
  160.6030  213.0250  146.1450 C   0  0  0  0  0  0  0  0  0  0  0  0
  158.1800  213.0500  146.2790 O   0  0  0  0  0  0  0  0  0  0  0  0
  160.9740  213.9010  148.2250 C   0  0  0  0  0  3  0  0  0  0  0  0
  160.8330  212.5330  144.9690 N   0  0  0  0  0  0  0  0  0  0  0  0
  163.8170  212.4820  147.5950 C   0  0  0  0  0  1  0  0  0  0  0  0
  162.9910  213.4660  146.9900 O   0  0  0  0  0  0  0  0  0  0  0  0
  159.8050  212.1520  144.1360 O   0  0  0  0  0  0  0  0  0  0  0  0
  161.5270  212.0950  142.4610 C   0  0  0  0  0  1  0  0  0  0  0  0
  160.0430  211.9540  142.7520 C   0  0  2  0  0  3  0  0  0  0  0  0
  159.2390  212.9490  141.9210 C   0  0  0  0  0  2  0  0  0  0  0  0
  159.2000  212.5610  140.5770 O   0  0  0  0  0  1  0  0  0  0  0  0
  2  1  2  0  0  0  0
  2 14  1  0  0  0  0
  3 17  1  0  0  0  0
  4 18  1  1  0  0  0
  4 16  1  0  0  0  0
  5 12  1  0  0  0  0
  6  1  1  0  0  0  0
  8  4  1  0  0  0  0
  9 15  2  0  0  0  0
 10 21  1  6  0  0  0
 10  5  1  0  0  0  0
 10  9  1  0  0  0  0
 11  9  1  0  0  0  0
 11  8  1  0  0  0  0
 12  7  1  1  0  0  0
 13  8  1  0  0  0  0
 13  3  2  0  0  0  0
 15 12  1  0  0  0  0
 15 18  1  0  0  0  0
 16  2  1  0  0  0  0
 17 16  2  0  0  0  0
 18  6  2  0  0  0  0
 20 19  2  0  0  0  0
 20 21  1  0  0  0  0
 23 28  1  0  0  0  0
 24 22  1  0  0  0  0
 25 23  1  0  0  0  0
 26 25  1  0  0  0  0
 26 27  1  0  0  0  0
 27 24  1  0  0  0  0
 28 22  1  0  0  0  0
 28 19  1  0  0  0  0
 29 13  1  0  0  0  0
 30 33  1  6  0  0  0
 30 29  1  0  0  0  0
 30 32  1  0  0  0  0
 31 32  1  0  0  0  0
 34 39  1  0  0  0  0
 34 33  1  0  0  0  0
 35 39  2  0  0  0  0
 36 34  1  0  0  0  0
 37 36  1  0  0  0  0
 37 35  1  0  0  0  0
 38 36  2  0  0  0  0
 40 37  2  0  0  0  0
 42 35  1  0  0  0  0
 42 41  1  0  0  0  0
 43 40  1  0  0  0  0
 45 44  1  1  0  0  0
 45 43  1  0  0  0  0
 46 45  1  0  0  0  0
 47 46  1  0  0  0  0
M  END
>  <MODEL>
1

>  <REMARK>
 VINA RESULT:      -6.6      0.000      0.000
  Name = 
  11 active torsions:
  status: ('A' for Active; 'I' for Inactive)
    1  A    between atoms: N_3  and  C_45
    2  A    between atoms: N_8  and  N_47
    3  A    between atoms: O_11  and  C_15
    4  A    between atoms: C_14  and  C_41
    5  A    between atoms: C_20  and  C_32
    6  A    between atoms: C_20  and  C_35
    7  A    between atoms: C_28  and  N_40
    8  A    between atoms: O_31  and  N_33
    9  A    between atoms: O_31  and  C_41
   10  A    between atoms: C_35  and  N_42
   11  A    between atoms: C_35  and  C_45
                            x       y       z     vdW  Elec       q    Type
                         _______ _______ _______ _____ _____    ______ ____

>  <TORSDO>
F 11

$$$$
=
 OpenBabel11042421423D

 47 52  0  0  1  0  0  0  0  0999 V2000
  160.2170  210.7740  156.3000 N   0  0  0  0  0  0  0  0  0  0  0  0
  159.7870  212.0390  155.6950 C   0  0  0  0  0  0  0  0  0  0  0  0
  159.8990  213.2080  152.0360 C   0  0  0  0  0  3  0  0  0  0  0  0
  160.3300  210.8160  153.4790 C   0  0  2  0  0  3  0  0  0  0  0  0
  161.6800  206.0430  152.6070 S   0  0  0  0  0  0  0  0  0  0  0  0
  160.5610  209.7100  155.6360 C   0  0  0  0  0  3  0  0  0  0  0  0
  161.2770  206.8820  155.2990 C   0  0  0  0  0  1  0  0  0  0  0  0
  160.4210  210.8540  152.0320 N   0  0  0  0  0  0  0  0  0  0  0  0
  161.0070  208.5280  151.9400 C   0  0  0  0  0  0  0  0  0  0  0  0
  161.3680  207.2530  151.2660 C   0  0  2  0  0  3  0  0  0  0  0  0
  160.7590  209.6650  151.2930 C   0  0  0  0  0  2  0  0  0  0  0  0
  161.2610  207.2580  153.8580 C   0  0  1  0  0  3  0  0  0  0  0  0
  160.1940  212.1030  151.3430 C   0  0  0  0  0  0  0  0  0  0  0  0
  158.3920  212.2770  156.0240 N   0  0  0  0  0  1  0  0  0  0  0  0
  160.9560  208.4660  153.3890 C   0  0  0  0  0  0  0  0  0  0  0  0
  159.9720  212.0550  154.2000 C   0  0  0  0  0  0  0  0  0  0  0  0
  159.7770  213.1810  153.5080 C   0  0  0  0  0  3  0  0  0  0  0  0
  160.5930  209.6870  154.1600 C   0  0  0  0  0  0  0  0  0  0  0  0
  161.6220  205.6790  148.8560 N   0  0  0  0  0  0  0  0  0  0  0  0
  160.4380  206.0100  149.2630 C   0  0  0  0  0  3  0  0  0  0  0  0
  160.2570  206.7970  150.4420 N   0  0  0  0  0  2  0  0  0  0  0  0
  161.1790  203.5920  147.5480 C   0  0  0  0  0  2  0  0  0  0  0  0
  162.7190  205.4550  146.6820 C   0  0  0  0  0  2  0  0  0  0  0  0
  161.4420  202.9240  146.1990 C   0  0  0  0  0  2  0  0  0  0  0  0
  161.9080  205.9100  145.4770 C   0  0  0  0  0  2  0  0  0  0  0  0
  161.6970  204.7550  144.5050 C   0  0  0  0  0  2  0  0  0  0  0  0
  160.7630  203.6950  145.0730 C   0  0  0  0  0  2  0  0  0  0  0  0
  161.8410  204.8990  147.7040 N   0  0  0  0  0  0  0  0  0  0  0  0
  160.3020  212.1930  149.8540 C   0  0  0  0  0  2  0  0  0  0  0  0
  161.6210  212.8580  149.4570 C   0  0  1  0  0  3  0  0  0  0  0  0
  161.7000  210.9270  148.0010 C   0  0  0  0  0  1  0  0  0  0  0  0
  162.4570  212.0360  148.5760 N   0  0  0  0  0  2  0  0  0  0  0  0
  161.4770  214.3080  148.9800 C   0  0  0  0  0  2  0  0  0  0  0  0
  160.7700  214.4040  147.7110 N   0  0  0  0  0  0  0  0  0  0  0  0
  159.0230  214.4070  146.2520 C   0  0  0  0  0  0  0  0  0  0  0  0
  161.3300  214.2910  146.4120 C   0  0  0  0  0  0  0  0  0  0  0  0
  160.2480  214.3020  145.4490 C   0  0  0  0  0  0  0  0  0  0  0  0
  162.5620  214.1610  146.1670 O   0  0  0  0  0  0  0  0  0  0  0  0
  159.3470  214.4530  147.5460 C   0  0  0  0  0  3  0  0  0  0  0  0
  160.3310  214.2460  144.1570 N   0  0  0  0  0  0  0  0  0  0  0  0
  156.5860  214.3280  146.6570 C   0  0  0  0  0  1  0  0  0  0  0  0
  157.7030  214.4510  145.7900 O   0  0  0  0  0  0  0  0  0  0  0  0
  161.5470  214.1480  143.5190 O   0  0  0  0  0  0  0  0  0  0  0  0
  161.2110  214.3090  141.1450 C   0  0  0  0  0  1  0  0  0  0  0  0
  161.6580  213.4310  142.3000 C   0  0  2  0  0  3  0  0  0  0  0  0
  160.8270  212.1520  142.3540 C   0  0  0  0  0  2  0  0  0  0  0  0
  161.3070  211.2070  141.4400 O   0  0  0  0  0  1  0  0  0  0  0  0
  2 14  1  0  0  0  0
  2  1  2  0  0  0  0
  3 17  1  0  0  0  0
  4 18  1  1  0  0  0
  4 16  1  0  0  0  0
  5 12  1  0  0  0  0
  6  1  1  0  0  0  0
  8  4  1  0  0  0  0
  9 15  2  0  0  0  0
 10 21  1  6  0  0  0
 10  9  1  0  0  0  0
 10  5  1  0  0  0  0
 11  9  1  0  0  0  0
 11  8  1  0  0  0  0
 12  7  1  1  0  0  0
 13  8  1  0  0  0  0
 13  3  2  0  0  0  0
 15 12  1  0  0  0  0
 15 18  1  0  0  0  0
 16  2  1  0  0  0  0
 17 16  2  0  0  0  0
 18  6  2  0  0  0  0
 19 20  2  0  0  0  0
 20 21  1  0  0  0  0
 22 28  1  0  0  0  0
 23 28  1  0  0  0  0
 24 22  1  0  0  0  0
 25 23  1  0  0  0  0
 26 27  1  0  0  0  0
 26 25  1  0  0  0  0
 27 24  1  0  0  0  0
 28 19  1  0  0  0  0
 29 13  1  0  0  0  0
 30 33  1  6  0  0  0
 30 29  1  0  0  0  0
 31 32  1  0  0  0  0
 32 30  1  0  0  0  0
 34 33  1  0  0  0  0
 35 39  2  0  0  0  0
 36 34  1  0  0  0  0
 37 35  1  0  0  0  0
 37 36  1  0  0  0  0
 38 36  2  0  0  0  0
 39 34  1  0  0  0  0
 40 37  2  0  0  0  0
 42 35  1  0  0  0  0
 42 41  1  0  0  0  0
 43 40  1  0  0  0  0
 45 44  1  6  0  0  0
 45 46  1  0  0  0  0
 45 43  1  0  0  0  0
 47 46  1  0  0  0  0
M  END
>  <MODEL>
2

>  <REMARK>
 VINA RESULT:      -6.3      1.505      2.507
  Name = 
  11 active torsions:
  status: ('A' for Active; 'I' for Inactive)
    1  A    between atoms: N_3  and  C_45
    2  A    between atoms: N_8  and  N_47
    3  A    between atoms: O_11  and  C_15
    4  A    between atoms: C_14  and  C_41
    5  A    between atoms: C_20  and  C_32
    6  A    between atoms: C_20  and  C_35
    7  A    between atoms: C_28  and  N_40
    8  A    between atoms: O_31  and  N_33
    9  A    between atoms: O_31  and  C_41
   10  A    between atoms: C_35  and  N_42
   11  A    between atoms: C_35  and  C_45
                            x       y       z     vdW  Elec       q    Type
                         _______ _______ _______ _____ _____    ______ ____

>  <TORSDO>
F 11

$$$$
=
 OpenBabel11042421423D

 47 52  0  0  1  0  0  0  0  0999 V2000
  160.1710  211.3740  155.7710 N   0  0  0  0  0  0  0  0  0  0  0  0
  159.8560  212.5260  154.9180 C   0  0  0  0  0  0  0  0  0  0  0  0
  160.2310  212.9830  151.1220 C   0  0  0  0  0  3  0  0  0  0  0  0
  160.4310  210.8830  153.0020 C   0  0  2  0  0  3  0  0  0  0  0  0
  161.5120  205.9650  153.1070 S   0  0  0  0  0  0  0  0  0  0  0  0
  160.4790  210.1890  155.3360 C   0  0  0  0  0  3  0  0  0  0  0  0
  161.0250  207.3120  155.5690 C   0  0  0  0  0  1  0  0  0  0  0  0
  160.5990  210.6450  151.5820 N   0  0  0  0  0  0  0  0  0  0  0  0
  161.0360  208.3140  151.9540 C   0  0  0  0  0  0  0  0  0  0  0  0
  161.3480  206.9180  151.5490 C   0  0  2  0  0  3  0  0  0  0  0  0
  160.8970  209.3220  151.0960 C   0  0  0  0  0  2  0  0  0  0  0  0
  161.1080  207.4130  154.0850 C   0  0  1  0  0  3  0  0  0  0  0  0
  160.4890  211.7540  150.6630 C   0  0  0  0  0  0  0  0  0  0  0  0
  158.4640  212.8970  155.1110 N   0  0  0  0  0  1  0  0  0  0  0  0
  160.9070  208.5270  153.3850 C   0  0  0  0  0  0  0  0  0  0  0  0
  160.1180  212.2520  153.4610 C   0  0  0  0  0  0  0  0  0  0  0  0
  160.0320  213.2380  152.5630 C   0  0  0  0  0  3  0  0  0  0  0  0
  160.5850  209.8890  153.8950 C   0  0  0  0  0  0  0  0  0  0  0  0
  161.6180  205.7750  148.9090 N   0  0  0  0  0  0  0  0  0  0  0  0
  160.4440  205.8130  149.4570 C   0  0  0  0  0  3  0  0  0  0  0  0
  160.2540  206.3780  150.7550 N   0  0  0  0  0  2  0  0  0  0  0  0
  161.6260  203.7830  147.3930 C   0  0  0  0  0  2  0  0  0  0  0  0
  162.2780  206.1310  146.5820 C   0  0  0  0  0  2  0  0  0  0  0  0
  161.8210  203.3650  145.9370 C   0  0  0  0  0  2  0  0  0  0  0  0
  161.1440  206.3790  145.5980 C   0  0  0  0  0  2  0  0  0  0  0  0
  161.1320  205.3110  144.5120 C   0  0  0  0  0  2  0  0  0  0  0  0
  160.7210  203.9490  145.0560 C   0  0  0  0  0  2  0  0  0  0  0  0
  161.8460  205.2200  147.6360 N   0  0  0  0  0  0  0  0  0  0  0  0
  160.6800  211.5580  149.1920 C   0  0  0  0  0  2  0  0  0  0  0  0
  161.2010  212.8440  148.5490 C   0  0  1  0  0  3  0  0  0  0  0  0
  163.1730  211.4630  148.3030 C   0  0  0  0  0  1  0  0  0  0  0  0
  162.6390  212.8220  148.2620 N   0  0  0  0  0  2  0  0  0  0  0  0
  160.3540  213.3490  147.3750 C   0  0  0  0  0  2  0  0  0  0  0  0
  161.0300  213.1840  146.0960 N   0  0  0  0  0  0  0  0  0  0  0  0
  162.5900  213.4890  144.4660 C   0  0  0  0  0  0  0  0  0  0  0  0
  160.4810  212.6400  144.9060 C   0  0  0  0  0  0  0  0  0  0  0  0
  161.4510  212.8030  143.8430 C   0  0  0  0  0  0  0  0  0  0  0  0
  159.3240  212.1440  144.8070 O   0  0  0  0  0  0  0  0  0  0  0  0
  162.3210  213.7060  145.7560 C   0  0  0  0  0  3  0  0  0  0  0  0
  161.3530  212.4180  142.6090 N   0  0  0  0  0  0  0  0  0  0  0  0
  163.8320  214.4490  142.5580 C   0  0  0  0  0  1  0  0  0  0  0  0
  163.7870  213.8790  143.8570 O   0  0  0  0  0  0  0  0  0  0  0  0
  160.2240  211.7810  142.1430 O   0  0  0  0  0  0  0  0  0  0  0  0
  161.5210  210.5950  140.5030 C   0  0  0  0  0  1  0  0  0  0  0  0
  160.1930  211.2590  140.8240 C   0  0  2  0  0  3  0  0  0  0  0  0
  159.8900  212.3640  139.8170 C   0  0  0  0  0  2  0  0  0  0  0  0
  160.1820  211.9450  138.5140 O   0  0  0  0  0  1  0  0  0  0  0  0
  2 14  1  0  0  0  0
  2  1  2  0  0  0  0
  3 17  1  0  0  0  0
  4 16  1  1  0  0  0
  4 18  1  0  0  0  0
  5 12  1  0  0  0  0
  6  1  1  0  0  0  0
  8  4  1  0  0  0  0
  9 15  2  0  0  0  0
 10 21  1  6  0  0  0
 10  9  1  0  0  0  0
 10  5  1  0  0  0  0
 11  8  1  0  0  0  0
 11  9  1  0  0  0  0
 12  7  1  1  0  0  0
 13  3  2  0  0  0  0
 13  8  1  0  0  0  0
 15 18  1  0  0  0  0
 15 12  1  0  0  0  0
 16  2  1  0  0  0  0
 17 16  2  0  0  0  0
 18  6  2  0  0  0  0
 19 20  2  0  0  0  0
 20 21  1  0  0  0  0
 22 28  1  0  0  0  0
 23 28  1  0  0  0  0
 24 22  1  0  0  0  0
 25 23  1  0  0  0  0
 26 27  1  0  0  0  0
 26 25  1  0  0  0  0
 27 24  1  0  0  0  0
 28 19  1  0  0  0  0
 29 13  1  0  0  0  0
 30 33  1  6  0  0  0
 30 29  1  0  0  0  0
 32 31  1  0  0  0  0
 32 30  1  0  0  0  0
 34 33  1  0  0  0  0
 35 39  2  0  0  0  0
 36 34  1  0  0  0  0
 37 35  1  0  0  0  0
 37 36  1  0  0  0  0
 38 36  2  0  0  0  0
 39 34  1  0  0  0  0
 40 37  2  0  0  0  0
 41 42  1  0  0  0  0
 42 35  1  0  0  0  0
 43 40  1  0  0  0  0
 45 44  1  6  0  0  0
 45 43  1  0  0  0  0
 46 45  1  0  0  0  0
 47 46  1  0  0  0  0
M  END
>  <MODEL>
3

>  <REMARK>
 VINA RESULT:      -6.0      1.701      2.514
  Name = 
  11 active torsions:
  status: ('A' for Active; 'I' for Inactive)
    1  A    between atoms: N_3  and  C_45
    2  A    between atoms: N_8  and  N_47
    3  A    between atoms: O_11  and  C_15
    4  A    between atoms: C_14  and  C_41
    5  A    between atoms: C_20  and  C_32
    6  A    between atoms: C_20  and  C_35
    7  A    between atoms: C_28  and  N_40
    8  A    between atoms: O_31  and  N_33
    9  A    between atoms: O_31  and  C_41
   10  A    between atoms: C_35  and  N_42
   11  A    between atoms: C_35  and  C_45
                            x       y       z     vdW  Elec       q    Type
                         _______ _______ _______ _____ _____    ______ ____

>  <TORSDO>
F 11

$$$$
=
 OpenBabel11042421423D

 47 52  0  0  1  0  0  0  0  0999 V2000
  160.2310  210.3010  157.2610 N   0  0  0  0  0  0  0  0  0  0  0  0
  160.7190  208.9810  156.8470 C   0  0  0  0  0  0  0  0  0  0  0  0
  160.7920  207.3330  153.3770 C   0  0  0  0  0  3  0  0  0  0  0  0
  160.2400  209.8800  154.4680 C   0  0  2  0  0  3  0  0  0  0  0  0
  158.8060  214.4520  152.9140 S   0  0  0  0  0  0  0  0  0  0  0  0
  159.8890  211.2550  156.4470 C   0  0  0  0  0  3  0  0  0  0  0  0
  159.1160  213.9910  155.7080 C   0  0  0  0  0  1  0  0  0  0  0  0
  160.2110  209.6480  153.0370 N   0  0  0  0  0  0  0  0  0  0  0  0
  159.5700  211.9220  152.6120 C   0  0  0  0  0  0  0  0  0  0  0  0
  159.2060  213.0850  151.7590 C   0  0  2  0  0  3  0  0  0  0  0  0
  159.8740  210.7180  152.1330 C   0  0  0  0  0  2  0  0  0  0  0  0
  159.2030  213.4270  154.3320 C   0  0  1  0  0  3  0  0  0  0  0  0
  160.4990  208.3270  152.5310 C   0  0  0  0  0  0  0  0  0  0  0  0
  162.1050  208.8310  157.2590 N   0  0  0  0  0  1  0  0  0  0  0  0
  159.5580  212.1780  154.0410 C   0  0  0  0  0  0  0  0  0  0  0  0
  160.5980  208.7610  155.3620 C   0  0  0  0  0  0  0  0  0  0  0  0
  160.8510  207.5590  154.8350 C   0  0  0  0  0  3  0  0  0  0  0  0
  159.9190  211.0810  154.9820 C   0  0  0  0  0  0  0  0  0  0  0  0
  159.0570  213.7290  148.9460 N   0  0  0  0  0  0  0  0  0  0  0  0
  160.2080  213.7810  149.5390 C   0  0  0  0  0  3  0  0  0  0  0  0
  160.3380  213.4610  150.9250 N   0  0  0  0  0  2  0  0  0  0  0  0
  160.0500  214.1330  146.6850 C   0  0  0  0  0  2  0  0  0  0  0  0
  157.5210  214.2450  147.1150 C   0  0  0  0  0  2  0  0  0  0  0  0
  159.6840  214.3800  145.2230 C   0  0  0  0  0  2  0  0  0  0  0  0
  157.0720  213.0620  146.2690 C   0  0  0  0  0  2  0  0  0  0  0  0
  157.4790  213.2560  144.8140 C   0  0  0  0  0  2  0  0  0  0  0  0
  158.9880  213.1620  144.6270 C   0  0  0  0  0  2  0  0  0  0  0  0
  158.8860  214.0430  147.5850 N   0  0  0  0  0  0  0  0  0  0  0  0
  160.4560  208.0360  151.0640 C   0  0  0  0  0  2  0  0  0  0  0  0
  161.7140  208.5740  150.3790 C   0  0  1  0  0  3  0  0  0  0  0  0
  163.1490  210.2890  151.3030 C   0  0  0  0  0  1  0  0  0  0  0  0
  162.8120  208.8680  151.3050 N   0  0  0  0  0  2  0  0  0  0  0  0
  162.1530  207.7710  149.1500 C   0  0  0  0  0  2  0  0  0  0  0  0
  161.7330  206.3780  149.2200 N   0  0  0  0  0  0  0  0  0  0  0  0
  161.3220  204.3300  150.1250 C   0  0  0  0  0  0  0  0  0  0  0  0
  161.5490  205.4870  148.1320 C   0  0  0  0  0  0  0  0  0  0  0  0
  161.2720  204.1690  148.6660 C   0  0  0  0  0  0  0  0  0  0  0  0
  161.6580  205.8040  146.9140 O   0  0  0  0  0  0  0  0  0  0  0  0
  161.5980  205.6030  150.4180 C   0  0  0  0  0  3  0  0  0  0  0  0
  161.0200  203.0810  148.0100 N   0  0  0  0  0  0  0  0  0  0  0  0
  160.8290  203.6560  152.4510 C   0  0  0  0  0  1  0  0  0  0  0  0
  161.1250  203.3450  151.0970 O   0  0  0  0  0  0  0  0  0  0  0  0
  161.0020  203.0600  146.6330 O   0  0  0  0  0  0  0  0  0  0  0  0
  159.9530  201.9090  144.8030 C   0  0  0  0  0  1  0  0  0  0  0  0
  160.9570  201.8240  145.9390 C   0  0  2  0  0  3  0  0  0  0  0  0
  160.5930  200.6870  146.8900 C   0  0  0  0  0  2  0  0  0  0  0  0
  161.7290  199.9540  147.2480 O   0  0  0  0  0  1  0  0  0  0  0  0
  2 14  1  0  0  0  0
  2  1  2  0  0  0  0
  3 17  1  0  0  0  0
  4 18  1  1  0  0  0
  4 16  1  0  0  0  0
  5 12  1  0  0  0  0
  6  1  1  0  0  0  0
  8  4  1  0  0  0  0
  9 15  2  0  0  0  0
 10 21  1  6  0  0  0
 10  9  1  0  0  0  0
 10  5  1  0  0  0  0
 11  9  1  0  0  0  0
 11  8  1  0  0  0  0
 12  7  1  1  0  0  0
 13  8  1  0  0  0  0
 13  3  2  0  0  0  0
 15 12  1  0  0  0  0
 15 18  1  0  0  0  0
 16  2  1  0  0  0  0
 17 16  2  0  0  0  0
 18  6  2  0  0  0  0
 19 20  2  0  0  0  0
 20 21  1  0  0  0  0
 22 28  1  0  0  0  0
 23 28  1  0  0  0  0
 24 22  1  0  0  0  0
 25 23  1  0  0  0  0
 26 25  1  0  0  0  0
 27 26  1  0  0  0  0
 27 24  1  0  0  0  0
 28 19  1  0  0  0  0
 29 13  1  0  0  0  0
 30 33  1  6  0  0  0
 30 29  1  0  0  0  0
 30 32  1  0  0  0  0
 31 32  1  0  0  0  0
 33 34  1  0  0  0  0
 34 39  1  0  0  0  0
 35 39  2  0  0  0  0
 35 42  1  0  0  0  0
 36 37  1  0  0  0  0
 36 34  1  0  0  0  0
 37 35  1  0  0  0  0
 38 36  2  0  0  0  0
 40 37  2  0  0  0  0
 42 41  1  0  0  0  0
 43 40  1  0  0  0  0
 45 44  1  6  0  0  0
 45 43  1  0  0  0  0
 45 46  1  0  0  0  0
 46 47  1  0  0  0  0
M  END
>  <MODEL>
4

>  <REMARK>
 VINA RESULT:      -5.8      3.618      7.993
  Name = 
  11 active torsions:
  status: ('A' for Active; 'I' for Inactive)
    1  A    between atoms: N_3  and  C_45
    2  A    between atoms: N_8  and  N_47
    3  A    between atoms: O_11  and  C_15
    4  A    between atoms: C_14  and  C_41
    5  A    between atoms: C_20  and  C_32
    6  A    between atoms: C_20  and  C_35
    7  A    between atoms: C_28  and  N_40
    8  A    between atoms: O_31  and  N_33
    9  A    between atoms: O_31  and  C_41
   10  A    between atoms: C_35  and  N_42
   11  A    between atoms: C_35  and  C_45
                            x       y       z     vdW  Elec       q    Type
                         _______ _______ _______ _____ _____    ______ ____

>  <TORSDO>
F 11

$$$$
=
 OpenBabel11042421423D

 47 52  0  0  1  0  0  0  0  0999 V2000
  161.3190  202.4980  146.0230 N   0  0  0  0  0  0  0  0  0  0  0  0
  161.4720  203.8110  145.3880 C   0  0  2  0  0  3  0  0  0  0  0  0
  160.9560  207.3390  146.8200 C   0  0  0  0  0  3  0  0  0  0  0  0
  161.0570  204.6870  147.7880 C   0  0  0  0  0  0  0  0  0  0  0  0
  160.5880  202.2120  152.1500 S   0  0  0  0  0  0  0  0  0  0  0  0
  161.1480  202.3030  147.2970 C   0  0  0  0  0  3  0  0  0  0  0  0
  160.9630  200.7110  149.7580 C   0  0  0  0  0  1  0  0  0  0  0  0
  160.8870  205.8130  148.6850 N   0  0  0  0  0  0  0  0  0  0  0  0
  160.7460  204.3620  150.5920 C   0  0  0  0  0  0  0  0  0  0  0  0
  160.5980  204.0420  152.0360 C   0  0  2  0  0  3  0  0  0  0  0  0
  160.7420  205.5990  150.1020 C   0  0  0  0  0  2  0  0  0  0  0  0
  160.8340  202.0590  150.3800 C   0  0  1  0  0  3  0  0  0  0  0  0
  160.8390  207.1490  148.1390 C   0  0  0  0  0  0  0  0  0  0  0  0
  162.8120  203.9240  144.8370 N   0  0  0  0  0  1  0  0  0  0  0  0
  160.8820  203.2120  149.7170 C   0  0  0  0  0  0  0  0  0  0  0  0
  161.2110  204.9470  146.3430 C   0  0  0  0  0  0  0  0  0  0  0  0
  161.1550  206.2050  145.8960 C   0  0  0  0  0  3  0  0  0  0  0  0
  161.0470  203.4240  148.2520 C   0  0  0  0  0  0  0  0  0  0  0  0
  160.5990  206.5270  153.5110 N   0  0  0  0  0  0  0  0  0  0  0  0
  161.6750  205.8050  153.5030 C   0  0  0  0  0  3  0  0  0  0  0  0
  161.7320  204.5740  152.7800 N   0  0  0  0  0  2  0  0  0  0  0  0
  160.6130  207.7650  155.6860 C   0  0  0  0  0  2  0  0  0  0  0  0
  160.3160  208.9540  153.4300 C   0  0  0  0  0  2  0  0  0  0  0  0
  160.5900  209.1700  156.2850 C   0  0  0  0  0  2  0  0  0  0  0  0
  161.5990  209.7740  153.4090 C   0  0  0  0  0  2  0  0  0  0  0  0
  161.6620  210.7030  154.6140 C   0  0  0  0  0  2  0  0  0  0  0  0
  161.8560  209.9360  155.9160 C   0  0  0  0  0  2  0  0  0  0  0  0
  160.5020  207.7410  154.2170 N   0  0  0  0  0  0  0  0  0  0  0  0
  160.6400  208.3380  149.0240 C   0  0  0  0  0  2  0  0  0  0  0  0
  161.9780  209.0290  149.2940 C   0  0  1  0  0  3  0  0  0  0  0  0
  162.9890  207.5110  150.8840 C   0  0  0  0  0  1  0  0  0  0  0  0
  163.0830  208.1010  149.5510 N   0  0  0  0  0  2  0  0  0  0  0  0
  162.3310  210.1310  148.2890 C   0  0  0  0  0  2  0  0  0  0  0  0
  161.6230  211.3750  148.5610 N   0  0  0  0  0  0  0  0  0  0  0  0
  160.5370  212.9780  149.7580 C   0  0  0  0  0  0  0  0  0  0  0  0
  160.9750  212.2120  147.6170 C   0  0  0  0  0  0  0  0  0  0  0  0
  160.2800  213.2570  148.3390 C   0  0  0  0  0  0  0  0  0  0  0  0
  160.9830  212.0300  146.3670 O   0  0  0  0  0  0  0  0  0  0  0  0
  161.3010  211.8880  149.8600 C   0  0  0  0  0  3  0  0  0  0  0  0
  159.5890  214.2380  147.8510 N   0  0  0  0  0  0  0  0  0  0  0  0
  159.3160  213.1050  151.9020 C   0  0  0  0  0  1  0  0  0  0  0  0
  160.0790  213.7000  150.8640 O   0  0  0  0  0  0  0  0  0  0  0  0
  159.4190  214.3920  146.4930 O   0  0  0  0  0  0  0  0  0  0  0  0
  157.4360  213.0370  146.4290 C   0  0  0  0  0  1  0  0  0  0  0  0
  158.1260  214.2900  145.9180 C   0  0  2  0  0  3  0  0  0  0  0  0
  158.2160  214.2690  144.3950 C   0  0  0  0  0  2  0  0  0  0  0  0
  158.9580  213.1670  143.9550 O   0  0  0  0  0  1  0  0  0  0  0  0
  1  6  2  0  0  0  0
  2 14  1  1  0  0  0
  2  1  1  0  0  0  0
  2 16  1  0  0  0  0
  3 13  2  0  0  0  0
  4 18  2  0  0  0  0
  4  8  1  0  0  0  0
  6 18  1  0  0  0  0
  8 11  1  0  0  0  0
  9 10  1  0  0  0  0
 10  5  1  0  0  0  0
 10 21  1  1  0  0  0
 11  9  1  0  0  0  0
 12  7  1  6  0  0  0
 12  5  1  0  0  0  0
 13  8  1  0  0  0  0
 13 29  1  0  0  0  0
 15 12  1  0  0  0  0
 15  9  2  0  0  0  0
 16  4  1  0  0  0  0
 17 16  2  0  0  0  0
 17  3  1  0  0  0  0
 18 15  1  0  0  0  0
 19 28  1  0  0  0  0
 20 19  2  0  0  0  0
 21 20  1  0  0  0  0
 22 24  1  0  0  0  0
 23 28  1  0  0  0  0
 25 23  1  0  0  0  0
 25 26  1  0  0  0  0
 26 27  1  0  0  0  0
 27 24  1  0  0  0  0
 28 22  1  0  0  0  0
 29 30  1  0  0  0  0
 30 33  1  6  0  0  0
 30 32  1  0  0  0  0
 32 31  1  0  0  0  0
 33 34  1  0  0  0  0
 34 39  1  0  0  0  0
 35 39  2  0  0  0  0
 35 42  1  0  0  0  0
 36 37  1  0  0  0  0
 36 34  1  0  0  0  0
 37 35  1  0  0  0  0
 38 36  2  0  0  0  0
 40 37  2  0  0  0  0
 42 41  1  0  0  0  0
 43 40  1  0  0  0  0
 45 44  1  1  0  0  0
 45 43  1  0  0  0  0
 46 45  1  0  0  0  0
 47 46  1  0  0  0  0
M  END
>  <MODEL>
5

>  <REMARK>
 VINA RESULT:      -5.3      2.383      7.557
  Name = 
  11 active torsions:
  status: ('A' for Active; 'I' for Inactive)
    1  A    between atoms: N_3  and  C_45
    2  A    between atoms: N_8  and  N_47
    3  A    between atoms: O_11  and  C_15
    4  A    between atoms: C_14  and  C_41
    5  A    between atoms: C_20  and  C_32
    6  A    between atoms: C_20  and  C_35
    7  A    between atoms: C_28  and  N_40
    8  A    between atoms: O_31  and  N_33
    9  A    between atoms: O_31  and  C_41
   10  A    between atoms: C_35  and  N_42
   11  A    between atoms: C_35  and  C_45
                            x       y       z     vdW  Elec       q    Type
                         _______ _______ _______ _____ _____    ______ ____

>  <TORSDO>
F 11

$$$$
=
 OpenBabel11042421423D

 47 52  0  0  1  0  0  0  0  0999 V2000
  161.5810  203.3400  146.3780 N   0  0  0  0  0  0  0  0  0  0  0  0
  161.8520  204.7010  145.9010 C   0  0  2  0  0  3  0  0  0  0  0  0
  161.4280  208.0850  147.6720 C   0  0  0  0  0  3  0  0  0  0  0  0
  161.3130  205.3440  148.3500 C   0  0  0  0  0  0  0  0  0  0  0  0
  160.3920  202.4600  152.3750 S   0  0  0  0  0  0  0  0  0  0  0  0
  161.3080  203.0250  147.6090 C   0  0  0  0  0  3  0  0  0  0  0  0
  160.8570  201.1980  149.8640 C   0  0  0  0  0  1  0  0  0  0  0  0
  161.1400  206.3790  149.3510 N   0  0  0  0  0  0  0  0  0  0  0  0
  160.7810  204.7470  151.0750 C   0  0  0  0  0  0  0  0  0  0  0  0
  160.5110  204.2870  152.4630 C   0  0  2  0  0  3  0  0  0  0  0  0
  160.8810  206.0270  150.7240 C   0  0  0  0  0  2  0  0  0  0  0  0
  160.7580  202.4780  150.6190 C   0  0  1  0  0  3  0  0  0  0  0  0
  161.2060  207.7650  148.9510 C   0  0  0  0  0  0  0  0  0  0  0  0
  163.2330  204.7870  145.4570 N   0  0  0  0  0  1  0  0  0  0  0  0
  160.9170  203.6890  150.0900 C   0  0  0  0  0  0  0  0  0  0  0  0
  161.5860  205.7440  146.9550 C   0  0  0  0  0  0  0  0  0  0  0  0
  161.6320  207.0430  146.6450 C   0  0  0  0  0  3  0  0  0  0  0  0
  161.1990  204.0430  148.6710 C   0  0  0  0  0  0  0  0  0  0  0  0
  160.5360  206.5910  154.2070 N   0  0  0  0  0  0  0  0  0  0  0  0
  161.5720  205.8120  154.1860 C   0  0  0  0  0  3  0  0  0  0  0  0
  161.6150  204.6670  153.3330 N   0  0  0  0  0  2  0  0  0  0  0  0
  160.3770  207.5760  156.5030 C   0  0  0  0  0  2  0  0  0  0  0  0
  160.4710  209.0290  154.3870 C   0  0  0  0  0  2  0  0  0  0  0  0
  160.3960  208.9030  157.2600 C   0  0  0  0  0  2  0  0  0  0  0  0
  161.8100  209.7160  154.6160 C   0  0  0  0  0  2  0  0  0  0  0  0
  161.7970  210.4960  155.9240 C   0  0  0  0  0  2  0  0  0  0  0  0
  161.7580  209.5760  157.1370 C   0  0  0  0  0  2  0  0  0  0  0  0
  160.4530  207.7240  155.0380 N   0  0  0  0  0  0  0  0  0  0  0  0
  161.0090  208.8650  149.9460 C   0  0  0  0  0  2  0  0  0  0  0  0
  162.0230  209.9850  149.7080 C   0  0  1  0  0  3  0  0  0  0  0  0
  162.9810  211.5480  148.1280 C   0  0  0  0  0  1  0  0  0  0  0  0
  161.8430  210.6840  148.4320 N   0  0  0  0  0  2  0  0  0  0  0  0
  162.2090  210.9310  150.8990 C   0  0  0  0  0  2  0  0  0  0  0  0
  160.9580  211.5510  151.3120 N   0  0  0  0  0  0  0  0  0  0  0  0
  159.0000  211.8290  152.4390 C   0  0  0  0  0  0  0  0  0  0  0  0
  160.2330  212.5530  150.6170 C   0  0  0  0  0  0  0  0  0  0  0  0
  158.9800  212.7700  151.3120 C   0  0  0  0  0  0  0  0  0  0  0  0
  160.6160  213.1130  149.5520 O   0  0  0  0  0  0  0  0  0  0  0  0
  160.1390  211.1340  152.4120 C   0  0  0  0  0  3  0  0  0  0  0  0
  158.0440  213.6170  151.0190 N   0  0  0  0  0  0  0  0  0  0  0  0
  157.8220  212.5500  154.4880 C   0  0  0  0  0  1  0  0  0  0  0  0
  158.0120  211.6450  153.4110 O   0  0  0  0  0  0  0  0  0  0  0  0
  158.1440  214.4500  149.9270 O   0  0  0  0  0  0  0  0  0  0  0  0
  155.8420  213.9110  149.4970 C   0  0  0  0  0  1  0  0  0  0  0  0
  157.1480  214.4280  148.9180 C   0  0  2  0  0  3  0  0  0  0  0  0
  157.5930  213.5610  147.7440 C   0  0  0  0  0  2  0  0  0  0  0  0
  157.1010  214.0670  146.5360 O   0  0  0  0  0  1  0  0  0  0  0  0
  1  6  2  0  0  0  0
  2 14  1  1  0  0  0
  2  1  1  0  0  0  0
  2 16  1  0  0  0  0
  3 13  2  0  0  0  0
  4 18  2  0  0  0  0
  4  8  1  0  0  0  0
  5 10  1  0  0  0  0
  6 18  1  0  0  0  0
  8 11  1  0  0  0  0
  9 10  1  0  0  0  0
 10 21  1  1  0  0  0
 11  9  1  0  0  0  0
 12  7  1  6  0  0  0
 12  5  1  0  0  0  0
 13  8  1  0  0  0  0
 13 29  1  0  0  0  0
 15 12  1  0  0  0  0
 15  9  2  0  0  0  0
 16  4  1  0  0  0  0
 17 16  2  0  0  0  0
 17  3  1  0  0  0  0
 18 15  1  0  0  0  0
 19 28  1  0  0  0  0
 20 19  2  0  0  0  0
 21 20  1  0  0  0  0
 22 24  1  0  0  0  0
 23 25  1  0  0  0  0
 23 28  1  0  0  0  0
 25 26  1  0  0  0  0
 26 27  1  0  0  0  0
 27 24  1  0  0  0  0
 28 22  1  0  0  0  0
 30 29  1  1  0  0  0
 30 33  1  0  0  0  0
 31 32  1  0  0  0  0
 32 30  1  0  0  0  0
 33 34  1  0  0  0  0
 34 39  1  0  0  0  0
 35 42  1  0  0  0  0
 36 37  1  0  0  0  0
 36 34  1  0  0  0  0
 37 35  1  0  0  0  0
 38 36  2  0  0  0  0
 39 35  2  0  0  0  0
 40 37  2  0  0  0  0
 42 41  1  0  0  0  0
 43 40  1  0  0  0  0
 45 44  1  1  0  0  0
 45 43  1  0  0  0  0
 46 45  1  0  0  0  0
 47 46  1  0  0  0  0
M  END
>  <MODEL>
6

>  <REMARK>
 VINA RESULT:      -5.3      2.722      7.873
  Name = 
  11 active torsions:
  status: ('A' for Active; 'I' for Inactive)
    1  A    between atoms: N_3  and  C_45
    2  A    between atoms: N_8  and  N_47
    3  A    between atoms: O_11  and  C_15
    4  A    between atoms: C_14  and  C_41
    5  A    between atoms: C_20  and  C_32
    6  A    between atoms: C_20  and  C_35
    7  A    between atoms: C_28  and  N_40
    8  A    between atoms: O_31  and  N_33
    9  A    between atoms: O_31  and  C_41
   10  A    between atoms: C_35  and  N_42
   11  A    between atoms: C_35  and  C_45
                            x       y       z     vdW  Elec       q    Type
                         _______ _______ _______ _____ _____    ______ ____

>  <TORSDO>
F 11

$$$$
=
 OpenBabel11042421423D

 47 52  0  0  1  0  0  0  0  0999 V2000
  161.5800  204.0510  146.8790 N   0  0  0  0  0  0  0  0  0  0  0  0
  162.1220  205.3300  146.4060 C   0  0  2  0  0  3  0  0  0  0  0  0
  162.2920  208.7530  148.1430 C   0  0  0  0  0  3  0  0  0  0  0  0
  161.6320  206.0920  148.8300 C   0  0  0  0  0  0  0  0  0  0  0  0
  160.0390  203.4850  152.8350 S   0  0  0  0  0  0  0  0  0  0  0  0
  161.2100  203.8080  148.1020 C   0  0  0  0  0  3  0  0  0  0  0  0
  160.3400  202.1280  150.3480 C   0  0  0  0  0  1  0  0  0  0  0  0
  161.6260  207.1530  149.8190 N   0  0  0  0  0  0  0  0  0  0  0  0
  160.9030  205.6400  151.5380 C   0  0  0  0  0  0  0  0  0  0  0  0
  160.5020  205.2570  152.9170 C   0  0  2  0  0  3  0  0  0  0  0  0
  161.2570  206.8740  151.1830 C   0  0  0  0  0  2  0  0  0  0  0  0
  160.4620  203.4120  151.0930 C   0  0  1  0  0  3  0  0  0  0  0  0
  161.9690  208.4960  149.4150 C   0  0  0  0  0  0  0  0  0  0  0  0
  163.5090  205.1450  146.0110 N   0  0  0  0  0  1  0  0  0  0  0  0
  160.8670  204.5640  150.5640 C   0  0  0  0  0  0  0  0  0  0  0  0
  162.0240  206.4170  147.4440 C   0  0  0  0  0  0  0  0  0  0  0  0
  162.3280  207.6790  147.1290 C   0  0  0  0  0  3  0  0  0  0  0  0
  161.2610  204.8410  149.1540 C   0  0  0  0  0  0  0  0  0  0  0  0
  160.7560  207.3750  154.8660 N   0  0  0  0  0  0  0  0  0  0  0  0
  161.6990  206.4900  154.7790 C   0  0  0  0  0  3  0  0  0  0  0  0
  161.6280  205.4290  153.8240 N   0  0  0  0  0  2  0  0  0  0  0  0
  162.0690  208.9230  156.3310 C   0  0  0  0  0  2  0  0  0  0  0  0
  159.5080  209.0170  156.1790 C   0  0  0  0  0  2  0  0  0  0  0  0
  161.9320  210.1360  157.2490 C   0  0  0  0  0  2  0  0  0  0  0  0
  159.3460  210.3920  155.5460 C   0  0  0  0  0  2  0  0  0  0  0  0
  159.9710  211.4660  156.4270 C   0  0  0  0  0  2  0  0  0  0  0  0
  161.4900  211.3630  156.4600 C   0  0  0  0  0  2  0  0  0  0  0  0
  160.7870  208.4310  155.7970 N   0  0  0  0  0  0  0  0  0  0  0  0
  161.9510  209.6250  150.3970 C   0  0  0  0  0  2  0  0  0  0  0  0
  161.3130  210.8650  149.7680 C   0  0  1  0  0  3  0  0  0  0  0  0
  160.5060  211.1140  152.0360 C   0  0  0  0  0  1  0  0  0  0  0  0
  160.6860  211.7650  150.7410 N   0  0  0  0  0  2  0  0  0  0  0  0
  162.2080  211.5900  148.7570 C   0  0  0  0  0  2  0  0  0  0  0  0
  161.4390  212.3800  147.8060 N   0  0  0  0  0  0  0  0  0  0  0  0
  159.6160  213.2290  146.7380 C   0  0  0  0  0  0  0  0  0  0  0  0
  161.9130  212.9700  146.6060 C   0  0  0  0  0  0  0  0  0  0  0  0
  160.7820  213.5350  145.9000 C   0  0  0  0  0  0  0  0  0  0  0  0
  163.1160  212.9520  146.2210 O   0  0  0  0  0  0  0  0  0  0  0  0
  160.0160  212.5580  147.8210 C   0  0  0  0  0  3  0  0  0  0  0  0
  160.7870  214.1840  144.7780 N   0  0  0  0  0  0  0  0  0  0  0  0
  157.2260  212.6140  146.6030 C   0  0  0  0  0  1  0  0  0  0  0  0
  158.2800  213.5590  146.4920 O   0  0  0  0  0  0  0  0  0  0  0  0
  161.9540  214.4060  144.0810 O   0  0  0  0  0  0  0  0  0  0  0  0
  160.7080  214.1170  142.0470 C   0  0  0  0  0  1  0  0  0  0  0  0
  162.0630  214.0070  142.7250 C   0  0  2  0  0  3  0  0  0  0  0  0
  162.5970  212.5810  142.6260 C   0  0  0  0  0  2  0  0  0  0  0  0
  162.0960  211.9390  141.4880 O   0  0  0  0  0  1  0  0  0  0  0  0
  1  6  2  0  0  0  0
  2 14  1  1  0  0  0
  2  1  1  0  0  0  0
  2 16  1  0  0  0  0
  3 13  2  0  0  0  0
  4 18  2  0  0  0  0
  4  8  1  0  0  0  0
  5 10  1  0  0  0  0
  6 18  1  0  0  0  0
  8 11  1  0  0  0  0
  9 10  1  0  0  0  0
 10 21  1  1  0  0  0
 11  9  1  0  0  0  0
 12  7  1  6  0  0  0
 12  5  1  0  0  0  0
 13  8  1  0  0  0  0
 13 29  1  0  0  0  0
 15 12  1  0  0  0  0
 15  9  2  0  0  0  0
 16  4  1  0  0  0  0
 17 16  2  0  0  0  0
 17  3  1  0  0  0  0
 18 15  1  0  0  0  0
 19 28  1  0  0  0  0
 20 19  2  0  0  0  0
 21 20  1  0  0  0  0
 22 24  1  0  0  0  0
 25 23  1  0  0  0  0
 25 26  1  0  0  0  0
 26 27  1  0  0  0  0
 27 24  1  0  0  0  0
 28 23  1  0  0  0  0
 28 22  1  0  0  0  0
 30 33  1  1  0  0  0
 30 29  1  0  0  0  0
 30 32  1  0  0  0  0
 32 31  1  0  0  0  0
 34 39  1  0  0  0  0
 34 33  1  0  0  0  0
 35 39  2  0  0  0  0
 36 34  1  0  0  0  0
 37 36  1  0  0  0  0
 37 35  1  0  0  0  0
 38 36  2  0  0  0  0
 40 37  2  0  0  0  0
 42 41  1  0  0  0  0
 42 35  1  0  0  0  0
 43 40  1  0  0  0  0
 45 44  1  1  0  0  0
 45 43  1  0  0  0  0
 46 45  1  0  0  0  0
 47 46  1  0  0  0  0
M  END
>  <MODEL>
7

>  <REMARK>
 VINA RESULT:      -5.3      2.113      7.086
  Name = 
  11 active torsions:
  status: ('A' for Active; 'I' for Inactive)
    1  A    between atoms: N_3  and  C_45
    2  A    between atoms: N_8  and  N_47
    3  A    between atoms: O_11  and  C_15
    4  A    between atoms: C_14  and  C_41
    5  A    between atoms: C_20  and  C_32
    6  A    between atoms: C_20  and  C_35
    7  A    between atoms: C_28  and  N_40
    8  A    between atoms: O_31  and  N_33
    9  A    between atoms: O_31  and  C_41
   10  A    between atoms: C_35  and  N_42
   11  A    between atoms: C_35  and  C_45
                            x       y       z     vdW  Elec       q    Type
                         _______ _______ _______ _____ _____    ______ ____

>  <TORSDO>
F 11

$$$$
=
 OpenBabel11042421423D

 47 52  0  0  1  0  0  0  0  0999 V2000
  161.3070  202.3250  146.1990 N   0  0  0  0  0  0  0  0  0  0  0  0
  161.4520  203.5960  145.4790 C   0  0  2  0  0  3  0  0  0  0  0  0
  160.9460  207.2080  146.6870 C   0  0  0  0  0  3  0  0  0  0  0  0
  161.0610  204.6230  147.8230 C   0  0  0  0  0  0  0  0  0  0  0  0
  160.6380  202.4330  152.3390 S   0  0  0  0  0  0  0  0  0  0  0  0
  161.1500  202.2130  147.4840 C   0  0  0  0  0  3  0  0  0  0  0  0
  160.9910  200.7820  150.0440 C   0  0  0  0  0  1  0  0  0  0  0  0
  160.8980  205.8040  148.6470 N   0  0  0  0  0  0  0  0  0  0  0  0
  160.7780  204.4780  150.6450 C   0  0  0  0  0  0  0  0  0  0  0  0
  160.6450  204.2510  152.1080 C   0  0  2  0  0  3  0  0  0  0  0  0
  160.7670  205.6820  150.0770 C   0  0  0  0  0  2  0  0  0  0  0  0
  160.8670  202.1660  150.5790 C   0  0  1  0  0  3  0  0  0  0  0  0
  160.8430  207.1020  148.0170 C   0  0  0  0  0  0  0  0  0  0  0  0
  162.7870  203.6740  144.9090 N   0  0  0  0  0  1  0  0  0  0  0  0
  160.9060  203.2740  149.8430 C   0  0  0  0  0  0  0  0  0  0  0  0
  161.2000  204.7900  146.3620 C   0  0  0  0  0  0  0  0  0  0  0  0
  161.1380  206.0170  145.8360 C   0  0  0  0  0  3  0  0  0  0  0  0
  161.0560  203.3930  148.3660 C   0  0  0  0  0  0  0  0  0  0  0  0
  160.5720  206.6660  153.6940 N   0  0  0  0  0  0  0  0  0  0  0  0
  161.6920  206.0230  153.5850 C   0  0  0  0  0  3  0  0  0  0  0  0
  161.7850  204.8310  152.8040 N   0  0  0  0  0  2  0  0  0  0  0  0
  160.3130  207.7670  155.9260 C   0  0  0  0  0  2  0  0  0  0  0  0
  160.4580  209.1080  153.7410 C   0  0  0  0  0  2  0  0  0  0  0  0
  160.2810  209.1320  156.6120 C   0  0  0  0  0  2  0  0  0  0  0  0
  161.7760  209.8320  153.9790 C   0  0  0  0  0  2  0  0  0  0  0  0
  161.7020  210.6800  155.2430 C   0  0  0  0  0  2  0  0  0  0  0  0
  161.6350  209.8240  156.5010 C   0  0  0  0  0  2  0  0  0  0  0  0
  160.4390  207.8400  154.4600 N   0  0  0  0  0  0  0  0  0  0  0  0
  160.6520  208.3460  148.8260 C   0  0  0  0  0  2  0  0  0  0  0  0
  162.0040  208.9010  149.2750 C   0  0  1  0  0  3  0  0  0  0  0  0
  163.0020  207.5100  150.9860 C   0  0  0  0  0  1  0  0  0  0  0  0
  163.0010  207.8660  149.5690 N   0  0  0  0  0  2  0  0  0  0  0  0
  162.5450  210.0320  148.3940 C   0  0  0  0  0  2  0  0  0  0  0  0
  161.7510  211.2480  148.5080 N   0  0  0  0  0  0  0  0  0  0  0  0
  160.8070  213.2290  147.9010 C   0  0  0  0  0  0  0  0  0  0  0  0
  161.2890  211.8570  149.7040 C   0  0  0  0  0  0  0  0  0  0  0  0
  160.6690  213.1190  149.3590 C   0  0  0  0  0  0  0  0  0  0  0  0
  161.4460  211.3790  150.8620 O   0  0  0  0  0  0  0  0  0  0  0  0
  161.4400  212.1480  147.4370 C   0  0  0  0  0  3  0  0  0  0  0  0
  160.0990  213.9690  150.1540 N   0  0  0  0  0  0  0  0  0  0  0  0
  160.7590  214.3890  145.7200 C   0  0  0  0  0  1  0  0  0  0  0  0
  160.3700  214.2720  147.0800 O   0  0  0  0  0  0  0  0  0  0  0  0
  160.0340  213.7510  151.5120 O   0  0  0  0  0  0  0  0  0  0  0  0
  158.7010  212.9730  153.3540 C   0  0  0  0  0  1  0  0  0  0  0  0
  158.8200  213.9670  152.2130 C   0  0  2  0  0  3  0  0  0  0  0  0
  157.6270  213.8430  151.2690 C   0  0  0  0  0  2  0  0  0  0  0  0
  156.4240  214.0270  151.9590 O   0  0  0  0  0  1  0  0  0  0  0  0
  1  6  2  0  0  0  0
  2 14  1  1  0  0  0
  2  1  1  0  0  0  0
  2 16  1  0  0  0  0
  3 13  2  0  0  0  0
  4 18  2  0  0  0  0
  4  8  1  0  0  0  0
  6 18  1  0  0  0  0
  8 11  1  0  0  0  0
  9 10  1  0  0  0  0
 10  5  1  0  0  0  0
 10 21  1  1  0  0  0
 11  9  1  0  0  0  0
 12  7  1  6  0  0  0
 12  5  1  0  0  0  0
 13  8  1  0  0  0  0
 13 29  1  0  0  0  0
 15 12  1  0  0  0  0
 15  9  2  0  0  0  0
 16  4  1  0  0  0  0
 17 16  2  0  0  0  0
 17  3  1  0  0  0  0
 18 15  1  0  0  0  0
 19 28  1  0  0  0  0
 20 19  2  0  0  0  0
 21 20  1  0  0  0  0
 22 24  1  0  0  0  0
 23 25  1  0  0  0  0
 23 28  1  0  0  0  0
 25 26  1  0  0  0  0
 26 27  1  0  0  0  0
 27 24  1  0  0  0  0
 28 22  1  0  0  0  0
 29 30  1  0  0  0  0
 30 33  1  6  0  0  0
 30 32  1  0  0  0  0
 32 31  1  0  0  0  0
 33 34  1  0  0  0  0
 34 36  1  0  0  0  0
 35 37  1  0  0  0  0
 36 38  2  0  0  0  0
 37 36  1  0  0  0  0
 37 40  2  0  0  0  0
 39 35  2  0  0  0  0
 39 34  1  0  0  0  0
 40 43  1  0  0  0  0
 41 42  1  0  0  0  0
 42 35  1  0  0  0  0
 43 45  1  0  0  0  0
 45 44  1  1  0  0  0
 46 47  1  0  0  0  0
 46 45  1  0  0  0  0
M  END
>  <MODEL>
8

>  <REMARK>
 VINA RESULT:      -5.2      2.526      8.216
  Name = 
  11 active torsions:
  status: ('A' for Active; 'I' for Inactive)
    1  A    between atoms: N_3  and  C_45
    2  A    between atoms: N_8  and  N_47
    3  A    between atoms: O_11  and  C_15
    4  A    between atoms: C_14  and  C_41
    5  A    between atoms: C_20  and  C_32
    6  A    between atoms: C_20  and  C_35
    7  A    between atoms: C_28  and  N_40
    8  A    between atoms: O_31  and  N_33
    9  A    between atoms: O_31  and  C_41
   10  A    between atoms: C_35  and  N_42
   11  A    between atoms: C_35  and  C_45
                            x       y       z     vdW  Elec       q    Type
                         _______ _______ _______ _____ _____    ______ ____

>  <TORSDO>
F 11

$$$$
=
 OpenBabel11042421423D

 47 52  0  0  1  0  0  0  0  0999 V2000
  161.6070  203.5380  146.4270 N   0  0  0  0  0  0  0  0  0  0  0  0
  161.9380  204.8900  145.9620 C   0  0  2  0  0  3  0  0  0  0  0  0
  161.6160  208.2790  147.7450 C   0  0  0  0  0  3  0  0  0  0  0  0
  161.3850  205.5410  148.4060 C   0  0  0  0  0  0  0  0  0  0  0  0
  160.2890  202.6750  152.4000 S   0  0  0  0  0  0  0  0  0  0  0  0
  161.3020  203.2270  147.6520 C   0  0  0  0  0  3  0  0  0  0  0  0
  160.7450  201.4080  149.8890 C   0  0  0  0  0  1  0  0  0  0  0  0
  161.2360  206.5770  149.4090 N   0  0  0  0  0  0  0  0  0  0  0  0
  160.7870  204.9510  151.1190 C   0  0  0  0  0  0  0  0  0  0  0  0
  160.4770  204.4950  152.4990 C   0  0  2  0  0  3  0  0  0  0  0  0
  160.9410  206.2280  150.7760 C   0  0  0  0  0  2  0  0  0  0  0  0
  160.6830  202.6870  150.6500 C   0  0  1  0  0  3  0  0  0  0  0  0
  161.3610  207.9610  149.0190 C   0  0  0  0  0  0  0  0  0  0  0  0
  163.3280  204.9250  145.5400 N   0  0  0  0  0  1  0  0  0  0  0  0
  160.8970  203.8940  150.1300 C   0  0  0  0  0  0  0  0  0  0  0  0
  161.6950  205.9370  147.0170 C   0  0  0  0  0  0  0  0  0  0  0  0
  161.7960  207.2350  146.7150 C   0  0  0  0  0  3  0  0  0  0  0  0
  161.2160  204.2440  148.7180 C   0  0  0  0  0  0  0  0  0  0  0  0
  160.5800  206.8090  154.2270 N   0  0  0  0  0  0  0  0  0  0  0  0
  161.5760  205.9810  154.2320 C   0  0  0  0  0  3  0  0  0  0  0  0
  161.5810  204.8280  153.3890 N   0  0  0  0  0  2  0  0  0  0  0  0
  160.4580  207.8190  156.5140 C   0  0  0  0  0  2  0  0  0  0  0  0
  160.5950  209.2490  154.3850 C   0  0  0  0  0  2  0  0  0  0  0  0
  160.5220  209.1510  157.2590 C   0  0  0  0  0  2  0  0  0  0  0  0
  161.9560  209.8940  154.6040 C   0  0  0  0  0  2  0  0  0  0  0  0
  161.9720  210.6870  155.9060 C   0  0  0  0  0  2  0  0  0  0  0  0
  161.9050  209.7790  157.1270 C   0  0  0  0  0  2  0  0  0  0  0  0
  160.5350  207.9520  155.0480 N   0  0  0  0  0  0  0  0  0  0  0  0
  161.1910  209.0630  150.0160 C   0  0  0  0  0  2  0  0  0  0  0  0
  162.0760  210.2540  149.6480 C   0  0  1  0  0  3  0  0  0  0  0  0
  162.8680  211.7600  147.9280 C   0  0  0  0  0  1  0  0  0  0  0  0
  161.9170  210.7040  148.2620 N   0  0  0  0  0  2  0  0  0  0  0  0
  162.0460  211.4000  150.6660 C   0  0  0  0  0  2  0  0  0  0  0  0
  160.7870  212.1300  150.6380 N   0  0  0  0  0  0  0  0  0  0  0  0
  159.1240  213.4600  149.8330 C   0  0  0  0  0  0  0  0  0  0  0  0
  159.9870  212.4950  151.7530 C   0  0  0  0  0  0  0  0  0  0  0  0
  158.9060  213.3350  151.2800 C   0  0  0  0  0  0  0  0  0  0  0  0
  160.2250  212.1660  152.9490 O   0  0  0  0  0  0  0  0  0  0  0  0
  160.2140  212.7690  149.4900 C   0  0  0  0  0  3  0  0  0  0  0  0
  157.9420  213.8560  151.9710 N   0  0  0  0  0  0  0  0  0  0  0  0
  157.1350  213.6710  148.3810 C   0  0  0  0  0  1  0  0  0  0  0  0
  158.3500  214.1760  148.9140 O   0  0  0  0  0  0  0  0  0  0  0  0
  157.8480  213.6640  153.3320 O   0  0  0  0  0  0  0  0  0  0  0  0
  155.4680  213.7880  153.6410 C   0  0  0  0  0  1  0  0  0  0  0  0
  156.7320  212.9810  153.8810 C   0  0  2  0  0  3  0  0  0  0  0  0
  156.9360  212.7350  155.3730 C   0  0  0  0  0  2  0  0  0  0  0  0
  156.7330  211.3870  155.6880 O   0  0  0  0  0  1  0  0  0  0  0  0
  1  6  2  0  0  0  0
  2 14  1  1  0  0  0
  2  1  1  0  0  0  0
  2 16  1  0  0  0  0
  3 13  2  0  0  0  0
  4 18  2  0  0  0  0
  4  8  1  0  0  0  0
  5 10  1  0  0  0  0
  6 18  1  0  0  0  0
  8 11  1  0  0  0  0
  9 10  1  0  0  0  0
 10 21  1  1  0  0  0
 11  9  1  0  0  0  0
 12  7  1  6  0  0  0
 12  5  1  0  0  0  0
 13  8  1  0  0  0  0
 13 29  1  0  0  0  0
 15 12  1  0  0  0  0
 15  9  2  0  0  0  0
 16  4  1  0  0  0  0
 17 16  2  0  0  0  0
 17  3  1  0  0  0  0
 18 15  1  0  0  0  0
 19 20  2  0  0  0  0
 19 28  1  0  0  0  0
 21 20  1  0  0  0  0
 22 24  1  0  0  0  0
 23 25  1  0  0  0  0
 23 28  1  0  0  0  0
 25 26  1  0  0  0  0
 26 27  1  0  0  0  0
 27 24  1  0  0  0  0
 28 22  1  0  0  0  0
 30 29  1  1  0  0  0
 30 33  1  0  0  0  0
 31 32  1  0  0  0  0
 32 30  1  0  0  0  0
 34 33  1  0  0  0  0
 34 36  1  0  0  0  0
 35 37  1  0  0  0  0
 36 38  2  0  0  0  0
 37 36  1  0  0  0  0
 37 40  2  0  0  0  0
 39 35  2  0  0  0  0
 39 34  1  0  0  0  0
 40 43  1  0  0  0  0
 41 42  1  0  0  0  0
 42 35  1  0  0  0  0
 43 45  1  0  0  0  0
 45 44  1  1  0  0  0
 45 46  1  0  0  0  0
 46 47  1  0  0  0  0
M  END
>  <MODEL>
9

>  <REMARK>
 VINA RESULT:      -5.1      3.010      8.449
  Name = 
  11 active torsions:
  status: ('A' for Active; 'I' for Inactive)
    1  A    between atoms: N_3  and  C_45
    2  A    between atoms: N_8  and  N_47
    3  A    between atoms: O_11  and  C_15
    4  A    between atoms: C_14  and  C_41
    5  A    between atoms: C_20  and  C_32
    6  A    between atoms: C_20  and  C_35
    7  A    between atoms: C_28  and  N_40
    8  A    between atoms: O_31  and  N_33
    9  A    between atoms: O_31  and  C_41
   10  A    between atoms: C_35  and  N_42
   11  A    between atoms: C_35  and  C_45
                            x       y       z     vdW  Elec       q    Type
                         _______ _______ _______ _____ _____    ______ ____

>  <TORSDO>
F 11

$$$$
