=
 OpenBabel11042421093D

 28 33  0  0  0  0  0  0  0  0999 V2000
  161.1380  202.9410  152.0400 C   0  0  0  0  0  3  0  0  0  0  0  0
  160.8680  203.9850  149.0940 C   0  0  0  0  0  3  0  0  0  0  0  0
  161.5970  209.1830  148.5220 C   0  0  0  0  0  3  0  0  0  0  0  0
  161.1830  204.2590  152.1880 C   0  0  0  0  0  2  0  0  0  0  0  0
  161.8600  210.2080  154.7260 O   0  0  0  0  0  0  0  0  0  0  0  0
  160.4060  207.0450  155.0800 C   0  0  0  0  0  3  0  0  0  0  0  0
  162.0960  209.5630  152.1010 C   0  0  0  0  0  3  0  0  0  0  0  0
  161.1440  207.2870  150.1450 C   0  0  0  0  0  0  0  0  0  0  0  0
  161.4540  208.5770  149.8890 C   0  0  0  0  0  0  0  0  0  0  0  0
  160.9430  205.1310  149.7850 C   0  0  0  0  0  0  0  0  0  0  0  0
  162.5920  210.5920  150.0200 N   0  0  0  0  0  0  0  0  0  0  0  0
  161.5280  208.6130  153.0690 C   0  0  0  0  0  0  0  0  0  0  0  0
  161.1570  206.6720  151.3980 C   0  0  0  0  0  0  0  0  0  0  0  0
  161.4360  209.0650  154.4050 C   0  0  0  0  0  0  0  0  0  0  0  0
  162.3910  210.4140  148.6440 N   0  0  0  0  0  0  0  0  0  0  0  0
  161.0730  205.2950  151.1500 C   0  0  0  0  0  0  0  0  0  0  0  0
  161.0780  207.3050  152.7540 C   0  0  0  0  0  0  0  0  0  0  0  0
  160.9740  202.1700  150.8070 C   0  0  0  0  0  3  0  0  0  0  0  0
  160.4980  206.5500  153.7870 C   0  0  0  0  0  2  0  0  0  0  0  0
  160.9160  206.3460  149.1800 N   0  0  0  0  0  0  0  0  0  0  0  0
  160.8620  202.5840  149.5390 C   0  0  0  0  0  0  0  0  0  0  0  0
  162.0550  209.5360  150.7800 C   0  0  0  0  0  0  0  0  0  0  0  0
  160.8820  208.2810  155.3620 N   0  0  0  0  0  0  0  0  0  0  0  0
  162.0900  206.5070  146.9940 C   0  0  0  0  0  2  0  0  0  0  0  0
  160.7560  206.5750  147.7320 C   0  0  0  0  0  3  0  0  0  0  0  0
  161.1650  205.3210  146.9650 C   0  0  0  0  0  2  0  0  0  0  0  0
  161.5820  200.5220  148.3460 C   0  0  0  0  0  1  0  0  0  0  0  0
  160.7070  201.6320  148.5200 O   0  0  0  0  0  0  0  0  0  0  0  0
  1  4  1  0  0  0  0
  2 21  2  0  0  0  0
  2 10  1  0  0  0  0
  3 15  2  0  0  0  0
  3  9  1  0  0  0  0
  6 23  2  0  0  0  0
  7 12  2  0  0  0  0
  8 13  1  0  0  0  0
  9  8  2  0  0  0  0
  9 22  1  0  0  0  0
 10 16  2  0  0  0  0
 11 22  2  0  0  0  0
 12 14  1  0  0  0  0
 13 17  2  0  0  0  0
 14  5  2  0  0  0  0
 14 23  1  0  0  0  0
 15 11  1  0  0  0  0
 16 13  1  0  0  0  0
 16  4  1  0  0  0  0
 17 12  1  0  0  0  0
 17 19  1  0  0  0  0
 18  1  2  0  0  0  0
 19  6  1  0  0  0  0
 20 10  1  0  0  0  0
 20  8  1  0  0  0  0
 21 18  1  0  0  0  0
 22  7  1  0  0  0  0
 24 25  1  0  0  0  0
 25 20  1  0  0  0  0
 26 24  1  0  0  0  0
 26 25  1  0  0  0  0
 27 28  1  0  0  0  0
 28 21  1  0  0  0  0
M  END
>  <MODEL>
1

>  <REMARK>
 VINA RESULT:     -10.3      0.000      0.000
  Name = 
  2 active torsions:
  status: ('A' for Active; 'I' for Inactive)
    1  A    between atoms: C_15  and  N_24
    2  A    between atoms: C_25  and  O_26
                            x       y       z     vdW  Elec       q    Type
                         _______ _______ _______ _____ _____    ______ ____

>  <TORSDO>
F 2

$$$$
=
 OpenBabel11042421093D

 28 33  0  0  0  0  0  0  0  0999 V2000
  162.1560  209.5680  148.7900 C   0  0  0  0  0  3  0  0  0  0  0  0
  161.4590  208.3180  151.5820 C   0  0  0  0  0  3  0  0  0  0  0  0
  160.7760  203.0830  151.5460 C   0  0  0  0  0  3  0  0  0  0  0  0
  161.8640  208.3100  148.4870 C   0  0  0  0  0  3  0  0  0  0  0  0
  161.1110  202.7060  145.2720 O   0  0  0  0  0  0  0  0  0  0  0  0
  160.5530  206.1600  145.2620 C   0  0  0  0  0  3  0  0  0  0  0  0
  161.3590  202.9760  147.9610 C   0  0  0  0  0  3  0  0  0  0  0  0
  160.9250  205.1960  150.1510 C   0  0  0  0  0  0  0  0  0  0  0  0
  160.8720  203.8500  150.2580 C   0  0  0  0  0  0  0  0  0  0  0  0
  161.2720  207.2760  150.7610 C   0  0  0  0  0  0  0  0  0  0  0  0
  161.4520  201.6320  149.9150 N   0  0  0  0  0  0  0  0  0  0  0  0
  161.1130  204.1420  147.1000 C   0  0  0  0  0  0  0  0  0  0  0  0
  161.1670  205.9180  148.9810 C   0  0  0  0  0  0  0  0  0  0  0  0
  160.9820  203.8790  145.7170 C   0  0  0  0  0  0  0  0  0  0  0  0
  161.2280  201.7060  151.2970 N   0  0  0  0  0  0  0  0  0  0  0  0
  161.4310  207.2330  149.3900 C   0  0  0  0  0  0  0  0  0  0  0  0
  161.0020  205.4800  147.5570 C   0  0  0  0  0  0  0  0  0  0  0  0
  162.1300  210.2160  150.1020 C   0  0  0  0  0  3  0  0  0  0  0  0
  160.6970  206.4700  146.6080 C   0  0  0  0  0  3  0  0  0  0  0  0
  160.8950  206.0530  151.2150 N   0  0  0  0  0  0  0  0  0  0  0  0
  161.8430  209.7110  151.3080 C   0  0  0  0  0  0  0  0  0  0  0  0
  161.2520  202.8690  149.2740 C   0  0  0  0  0  0  0  0  0  0  0  0
  160.7060  204.8810  144.8470 N   0  0  0  0  0  0  0  0  0  0  0  0
  161.8570  205.7360  153.4860 C   0  0  0  0  0  2  0  0  0  0  0  0
  160.6000  205.7180  152.6210 C   0  0  0  0  0  3  0  0  0  0  0  0
  160.9220  206.9140  153.5120 C   0  0  0  0  0  2  0  0  0  0  0  0
  160.7870  210.7230  153.3220 C   0  0  0  0  0  1  0  0  0  0  0  0
  161.8840  210.5520  152.4290 O   0  0  0  0  0  0  0  0  0  0  0  0
  1 18  1  0  0  0  0
  4  1  2  0  0  0  0
  4 16  1  0  0  0  0
  5 14  2  0  0  0  0
  6 19  1  0  0  0  0
  7 22  1  0  0  0  0
  8  9  2  0  0  0  0
  8 20  1  0  0  0  0
  9  3  1  0  0  0  0
 10 20  1  0  0  0  0
 10  2  2  0  0  0  0
 11 15  1  0  0  0  0
 12 17  1  0  0  0  0
 12  7  2  0  0  0  0
 13 16  2  0  0  0  0
 13  8  1  0  0  0  0
 14 12  1  0  0  0  0
 15  3  2  0  0  0  0
 16 10  1  0  0  0  0
 17 13  1  0  0  0  0
 18 21  2  0  0  0  0
 19 17  2  0  0  0  0
 20 25  1  0  0  0  0
 21  2  1  0  0  0  0
 21 28  1  0  0  0  0
 22 11  2  0  0  0  0
 22  9  1  0  0  0  0
 23  6  2  0  0  0  0
 23 14  1  0  0  0  0
 24 26  1  0  0  0  0
 25 24  1  0  0  0  0
 25 26  1  0  0  0  0
 28 27  1  0  0  0  0
M  END
>  <MODEL>
2

>  <REMARK>
 VINA RESULT:     -10.0      2.141      7.438
  Name = 
  2 active torsions:
  status: ('A' for Active; 'I' for Inactive)
    1  A    between atoms: C_15  and  N_24
    2  A    between atoms: C_25  and  O_26
                            x       y       z     vdW  Elec       q    Type
                         _______ _______ _______ _____ _____    ______ ____

>  <TORSDO>
F 2

$$$$
=
 OpenBabel11042421093D

 28 33  0  0  0  0  0  0  0  0999 V2000
  160.9970  205.8820  146.3960 C   0  0  0  0  0  3  0  0  0  0  0  0
  161.3400  203.6780  148.6030 C   0  0  0  0  0  3  0  0  0  0  0  0
  161.2380  205.4900  153.5610 C   0  0  0  0  0  3  0  0  0  0  0  0
  161.1150  206.5930  147.5090 C   0  0  0  0  0  2  0  0  0  0  0  0
  161.2080  211.5190  151.7550 O   0  0  0  0  0  0  0  0  0  0  0  0
  162.2730  210.3520  148.6330 C   0  0  0  0  0  3  0  0  0  0  0  0
  160.8500  208.8990  152.3660 C   0  0  0  0  0  3  0  0  0  0  0  0
  161.4850  206.0840  151.1070 C   0  0  0  0  0  0  0  0  0  0  0  0
  161.3300  206.4400  152.4020 C   0  0  0  0  0  0  0  0  0  0  0  0
  161.4170  204.8040  149.3250 C   0  0  0  0  0  0  0  0  0  0  0  0
  160.4480  207.5180  154.2540 N   0  0  0  0  0  0  0  0  0  0  0  0
  161.3160  209.3120  151.0340 C   0  0  0  0  0  0  0  0  0  0  0  0
  161.4190  206.9400  150.0060 C   0  0  0  0  0  0  0  0  0  0  0  0
  161.4840  210.7020  150.8360 C   0  0  0  0  0  0  0  0  0  0  0  0
  160.6010  206.1930  154.6840 N   0  0  0  0  0  0  0  0  0  0  0  0
  161.3320  206.1090  148.8810 C   0  0  0  0  0  0  0  0  0  0  0  0
  161.5980  208.4270  149.9620 C   0  0  0  0  0  0  0  0  0  0  0  0
  161.0450  204.4270  146.2380 C   0  0  0  0  0  3  0  0  0  0  0  0
  162.1000  208.9820  148.7730 C   0  0  0  0  0  2  0  0  0  0  0  0
  161.5810  204.7920  150.6730 N   0  0  0  0  0  0  0  0  0  0  0  0
  161.1850  203.4640  147.1560 C   0  0  0  0  0  0  0  0  0  0  0  0
  160.8660  207.7000  152.9220 C   0  0  0  0  0  0  0  0  0  0  0  0
  161.9560  211.1780  149.6570 N   0  0  0  0  0  0  0  0  0  0  0  0
  160.4030  203.0580  152.0110 C   0  0  0  0  0  2  0  0  0  0  0  0
  161.7430  203.5820  151.5020 C   0  0  0  0  0  3  0  0  0  0  0  0
  161.0560  202.4010  150.8250 C   0  0  0  0  0  2  0  0  0  0  0  0
  160.4570  201.6330  145.6360 C   0  0  0  0  0  1  0  0  0  0  0  0
  161.2050  202.1230  146.7440 O   0  0  0  0  0  0  0  0  0  0  0  0
  1  4  1  0  0  0  0
  2 10  1  0  0  0  0
  3 15  1  0  0  0  0
  4 16  1  0  0  0  0
  6 19  1  0  0  0  0
  6 23  2  0  0  0  0
  7 22  2  0  0  0  0
  8  9  1  0  0  0  0
  9 22  1  0  0  0  0
  9  3  2  0  0  0  0
 10 20  1  0  0  0  0
 11 15  2  0  0  0  0
 12  7  1  0  0  0  0
 13  8  2  0  0  0  0
 14 12  1  0  0  0  0
 14  5  2  0  0  0  0
 16 10  2  0  0  0  0
 16 13  1  0  0  0  0
 17 13  1  0  0  0  0
 17 12  2  0  0  0  0
 18  1  2  0  0  0  0
 18 21  1  0  0  0  0
 19 17  1  0  0  0  0
 20  8  1  0  0  0  0
 20 25  1  0  0  0  0
 21  2  2  0  0  0  0
 22 11  1  0  0  0  0
 23 14  1  0  0  0  0
 25 24  1  0  0  0  0
 26 25  1  0  0  0  0
 26 24  1  0  0  0  0
 27 28  1  0  0  0  0
 28 21  1  0  0  0  0
M  END
>  <MODEL>
3

>  <REMARK>
 VINA RESULT:      -9.2      1.440      4.396
  Name = 
  2 active torsions:
  status: ('A' for Active; 'I' for Inactive)
    1  A    between atoms: C_15  and  N_24
    2  A    between atoms: C_25  and  O_26
                            x       y       z     vdW  Elec       q    Type
                         _______ _______ _______ _____ _____    ______ ____

>  <TORSDO>
F 2

$$$$
=
 OpenBabel11042421093D

 28 33  0  0  0  0  0  0  0  0999 V2000
  160.6450  206.2080  145.4190 C   0  0  0  0  0  3  0  0  0  0  0  0
  161.0230  203.5020  146.9610 C   0  0  0  0  0  3  0  0  0  0  0  0
  161.3790  203.9830  152.2070 C   0  0  0  0  0  3  0  0  0  0  0  0
  160.8830  206.6060  146.6620 C   0  0  0  0  0  2  0  0  0  0  0  0
  161.5560  210.2710  151.9930 O   0  0  0  0  0  0  0  0  0  0  0  0
  162.3270  209.9070  148.6000 C   0  0  0  0  0  3  0  0  0  0  0  0
  161.0970  207.5970  151.9500 C   0  0  0  0  0  3  0  0  0  0  0  0
  161.4810  205.1780  149.9710 C   0  0  0  0  0  0  0  0  0  0  0  0
  161.4400  205.1950  151.3220 C   0  0  0  0  0  0  0  0  0  0  0  0
  161.2140  204.4010  147.9360 C   0  0  0  0  0  0  0  0  0  0  0  0
  160.7550  205.7930  153.4540 N   0  0  0  0  0  0  0  0  0  0  0  0
  161.4880  208.3210  150.7310 C   0  0  0  0  0  0  0  0  0  0  0  0
  161.3850  206.2890  149.1320 C   0  0  0  0  0  0  0  0  0  0  0  0
  161.7190  209.7080  150.8770 C   0  0  0  0  0  0  0  0  0  0  0  0
  160.8650  204.3970  153.5200 N   0  0  0  0  0  0  0  0  0  0  0  0
  161.1700  205.7780  147.8440 C   0  0  0  0  0  0  0  0  0  0  0  0
  161.6430  207.7310  149.4500 C   0  0  0  0  0  0  0  0  0  0  0  0
  160.6010  204.8420  144.8950 C   0  0  0  0  0  3  0  0  0  0  0  0
  162.0890  208.5540  148.4030 C   0  0  0  0  0  2  0  0  0  0  0  0
  161.4740  204.0380  149.2170 N   0  0  0  0  0  0  0  0  0  0  0  0
  160.7520  203.6710  145.5250 C   0  0  0  0  0  0  0  0  0  0  0  0
  161.0850  206.2950  152.1810 C   0  0  0  0  0  0  0  0  0  0  0  0
  162.1310  210.4530  149.8220 N   0  0  0  0  0  0  0  0  0  0  0  0
  160.2780  201.9710  149.9110 C   0  0  0  0  0  2  0  0  0  0  0  0
  161.6270  202.6510  149.6970 C   0  0  0  0  0  3  0  0  0  0  0  0
  161.0630  201.6840  148.6610 C   0  0  0  0  0  2  0  0  0  0  0  0
  160.0800  201.2860  145.2920 C   0  0  0  0  0  1  0  0  0  0  0  0
  160.6680  202.4810  144.7870 O   0  0  0  0  0  0  0  0  0  0  0  0
  1  4  1  0  0  0  0
  2 10  1  0  0  0  0
  3 15  1  0  0  0  0
  4 16  1  0  0  0  0
  6 23  2  0  0  0  0
  7 22  2  0  0  0  0
  8  9  1  0  0  0  0
  9 22  1  0  0  0  0
  9  3  2  0  0  0  0
 10 20  1  0  0  0  0
 11 15  2  0  0  0  0
 12 14  1  0  0  0  0
 12  7  1  0  0  0  0
 13 17  1  0  0  0  0
 13  8  2  0  0  0  0
 14  5  2  0  0  0  0
 16 10  2  0  0  0  0
 16 13  1  0  0  0  0
 17 12  2  0  0  0  0
 18  1  2  0  0  0  0
 18 21  1  0  0  0  0
 19  6  1  0  0  0  0
 19 17  1  0  0  0  0
 20 25  1  0  0  0  0
 20  8  1  0  0  0  0
 21  2  2  0  0  0  0
 22 11  1  0  0  0  0
 23 14  1  0  0  0  0
 25 24  1  0  0  0  0
 26 25  1  0  0  0  0
 26 24  1  0  0  0  0
 28 27  1  0  0  0  0
 28 21  1  0  0  0  0
M  END
>  <MODEL>
4

>  <REMARK>
 VINA RESULT:      -9.0      1.885      4.698
  Name = 
  2 active torsions:
  status: ('A' for Active; 'I' for Inactive)
    1  A    between atoms: C_15  and  N_24
    2  A    between atoms: C_25  and  O_26
                            x       y       z     vdW  Elec       q    Type
                         _______ _______ _______ _____ _____    ______ ____

>  <TORSDO>
F 2

$$$$
=
 OpenBabel11042421093D

 28 33  0  0  1  0  0  0  0  0999 V2000
  160.7110  203.2990  152.0010 C   0  0  0  0  0  3  0  0  0  0  0  0
  161.6420  206.0570  150.8310 C   0  0  0  0  0  3  0  0  0  0  0  0
  161.7800  206.2810  145.5580 C   0  0  0  0  0  3  0  0  0  0  0  0
  160.8310  203.0450  150.7050 C   0  0  0  0  0  3  0  0  0  0  0  0
  160.5800  200.1390  144.8920 O   0  0  0  0  0  0  0  0  0  0  0  0
  161.4780  199.8300  148.2590 C   0  0  0  0  0  3  0  0  0  0  0  0
  160.7190  202.8140  145.3270 C   0  0  0  0  0  3  0  0  0  0  0  0
  161.6630  204.7790  147.5990 C   0  0  2  0  0  3  0  0  0  0  0  0
  161.5920  204.9680  146.2630 C   0  0  0  0  0  0  0  0  0  0  0  0
  161.6120  205.2890  149.7330 C   0  0  0  0  0  0  0  0  0  0  0  0
  160.7500  204.8490  144.1060 N   0  0  0  0  0  0  0  0  0  0  0  0
  160.9650  201.8530  146.4130 C   0  0  0  0  0  0  0  0  0  0  0  0
  161.3410  203.6040  148.2810 C   0  0  0  0  0  0  0  0  0  0  0  0
  160.8840  200.4850  146.0650 C   0  0  0  0  0  0  0  0  0  0  0  0
  161.1620  206.1830  144.2280 N   0  0  0  0  0  0  0  0  0  0  0  0
  161.2690  203.9550  149.6360 C   0  0  0  0  0  0  0  0  0  0  0  0
  161.2710  202.2030  147.7530 C   0  0  0  0  0  0  0  0  0  0  0  0
  160.9770  204.5520  152.7100 C   0  0  0  0  0  3  0  0  0  0  0  0
  161.5460  201.1600  148.6530 C   0  0  0  0  0  2  0  0  0  0  0  0
  161.9200  205.7720  148.5020 N   0  0  0  0  0  0  0  0  0  0  0  0
  161.3690  205.7420  152.2410 C   0  0  0  0  0  0  0  0  0  0  0  0
  160.9880  204.1070  145.2790 C   0  0  0  0  0  0  0  0  0  0  0  0
  161.1430  199.5230  146.9850 N   0  0  0  0  0  0  0  0  0  0  0  0
  161.2060  208.1420  148.2610 C   0  0  0  0  0  2  0  0  0  0  0  0
  162.3630  207.1490  148.2120 C   0  0  0  0  0  3  0  0  0  0  0  0
  162.1390  208.0300  149.4360 C   0  0  0  0  0  2  0  0  0  0  0  0
  160.8310  206.9420  154.3550 C   0  0  0  0  0  1  0  0  0  0  0  0
  161.5620  206.8010  153.1400 O   0  0  0  0  0  0  0  0  0  0  0  0
  1 18  1  0  0  0  0
  2 21  1  0  0  0  0
  3  9  2  0  0  0  0
  4  1  2  0  0  0  0
  5 14  2  0  0  0  0
  6 19  1  0  0  0  0
  7 12  1  0  0  0  0
  8  9  1  6  0  0  0
  8 13  1  0  0  0  0
  8 20  1  0  0  0  0
 10  2  2  0  0  0  0
 11 15  2  0  0  0  0
 11 22  1  0  0  0  0
 12 17  2  0  0  0  0
 13 16  2  0  0  0  0
 14 12  1  0  0  0  0
 14 23  1  0  0  0  0
 15  3  1  0  0  0  0
 16 10  1  0  0  0  0
 16  4  1  0  0  0  0
 17 13  1  0  0  0  0
 17 19  1  0  0  0  0
 20 10  1  0  0  0  0
 21 18  2  0  0  0  0
 21 28  1  0  0  0  0
 22  7  2  0  0  0  0
 22  9  1  0  0  0  0
 23  6  2  0  0  0  0
 24 26  1  0  0  0  0
 25 24  1  0  0  0  0
 25 20  1  0  0  0  0
 25 26  1  0  0  0  0
 28 27  1  0  0  0  0
M  END
>  <MODEL>
5

>  <REMARK>
 VINA RESULT:      -8.8      2.532      6.872
  Name = 
  2 active torsions:
  status: ('A' for Active; 'I' for Inactive)
    1  A    between atoms: C_15  and  N_24
    2  A    between atoms: C_25  and  O_26
                            x       y       z     vdW  Elec       q    Type
                         _______ _______ _______ _____ _____    ______ ____

>  <TORSDO>
F 2

$$$$
=
 OpenBabel11042421093D

 28 33  0  0  1  0  0  0  0  0999 V2000
  160.7350  206.7010  153.8090 C   0  0  0  0  0  3  0  0  0  0  0  0
  161.8580  208.7020  151.6700 C   0  0  0  0  0  3  0  0  0  0  0  0
  162.1040  206.7730  146.7610 C   0  0  0  0  0  3  0  0  0  0  0  0
  160.8620  205.9400  152.7300 C   0  0  0  0  0  3  0  0  0  0  0  0
  160.5320  200.9530  148.5680 O   0  0  0  0  0  0  0  0  0  0  0  0
  161.3500  201.9840  151.8100 C   0  0  0  0  0  3  0  0  0  0  0  0
  160.8310  203.5660  147.8980 C   0  0  0  0  0  3  0  0  0  0  0  0
  161.8560  206.2300  149.2260 C   0  0  2  0  0  3  0  0  0  0  0  0
  161.8210  205.8680  147.9250 C   0  0  0  0  0  0  0  0  0  0  0  0
  161.8000  207.5600  150.9720 C   0  0  0  0  0  0  0  0  0  0  0  0
  161.0120  204.9310  145.9650 N   0  0  0  0  0  0  0  0  0  0  0  0
  160.9980  203.1130  149.2880 C   0  0  0  0  0  0  0  0  0  0  0  0
  161.4490  205.4480  150.3090 C   0  0  0  0  0  0  0  0  0  0  0  0
  160.8370  201.7270  149.5150 C   0  0  0  0  0  0  0  0  0  0  0  0
  161.5050  206.1790  145.5580 N   0  0  0  0  0  0  0  0  0  0  0  0
  161.3750  206.3190  151.4050 C   0  0  0  0  0  0  0  0  0  0  0  0
  161.3010  203.9580  150.3860 C   0  0  0  0  0  0  0  0  0  0  0  0
  161.0670  208.1180  153.9660 C   0  0  0  0  0  3  0  0  0  0  0  0
  161.4940  203.3540  151.6390 C   0  0  0  0  0  2  0  0  0  0  0  0
  162.1590  207.4890  149.6650 N   0  0  0  0  0  0  0  0  0  0  0  0
  161.5410  208.9970  153.0750 C   0  0  0  0  0  0  0  0  0  0  0  0
  161.1820  204.7140  147.3460 C   0  0  0  0  0  0  0  0  0  0  0  0
  161.0190  201.2060  150.7530 N   0  0  0  0  0  0  0  0  0  0  0  0
  161.5800  209.4860  148.3020 C   0  0  0  0  0  2  0  0  0  0  0  0
  162.6930  208.6070  148.8650 C   0  0  0  0  0  3  0  0  0  0  0  0
  162.3310  209.9320  149.5280 C   0  0  0  0  0  2  0  0  0  0  0  0
  161.9380  210.7030  154.8430 C   0  0  0  0  0  1  0  0  0  0  0  0
  161.7840  210.3180  153.4800 O   0  0  0  0  0  0  0  0  0  0  0  0
  1 18  1  0  0  0  0
  2 21  1  0  0  0  0
  3  9  2  0  0  0  0
  4  1  2  0  0  0  0
  5 14  2  0  0  0  0
  7 12  1  0  0  0  0
  8  9  1  6  0  0  0
  8 20  1  0  0  0  0
  8 13  1  0  0  0  0
 10 16  1  0  0  0  0
 10  2  2  0  0  0  0
 11 22  1  0  0  0  0
 12 14  1  0  0  0  0
 12 17  2  0  0  0  0
 13 17  1  0  0  0  0
 13 16  2  0  0  0  0
 14 23  1  0  0  0  0
 15 11  2  0  0  0  0
 15  3  1  0  0  0  0
 16  4  1  0  0  0  0
 17 19  1  0  0  0  0
 19  6  1  0  0  0  0
 20 10  1  0  0  0  0
 21 28  1  0  0  0  0
 21 18  2  0  0  0  0
 22  7  2  0  0  0  0
 22  9  1  0  0  0  0
 23  6  2  0  0  0  0
 24 25  1  0  0  0  0
 24 26  1  0  0  0  0
 25 26  1  0  0  0  0
 25 20  1  0  0  0  0
 28 27  1  0  0  0  0
M  END
>  <MODEL>
6

>  <REMARK>
 VINA RESULT:      -8.3      1.722      6.107
  Name = 
  2 active torsions:
  status: ('A' for Active; 'I' for Inactive)
    1  A    between atoms: C_15  and  N_24
    2  A    between atoms: C_25  and  O_26
                            x       y       z     vdW  Elec       q    Type
                         _______ _______ _______ _____ _____    ______ ____

>  <TORSDO>
F 2

$$$$
=
 OpenBabel11042421093D

 28 33  0  0  0  0  0  0  0  0999 V2000
  162.3990  209.4880  148.1890 C   0  0  0  0  0  3  0  0  0  0  0  0
  161.4690  211.3170  150.5630 C   0  0  0  0  0  3  0  0  0  0  0  0
  160.5110  208.7530  155.0780 C   0  0  0  0  0  3  0  0  0  0  0  0
  162.0590  208.6110  149.1240 C   0  0  0  0  0  2  0  0  0  0  0  0
  161.2030  203.0810  152.4390 O   0  0  0  0  0  0  0  0  0  0  0  0
  160.8310  204.7160  149.3680 C   0  0  0  0  0  3  0  0  0  0  0  0
  161.3030  205.5740  153.5050 C   0  0  0  0  0  3  0  0  0  0  0  0
  160.8560  208.5490  152.5730 C   0  0  0  0  0  0  0  0  0  0  0  0
  160.7260  207.9950  153.7990 C   0  0  0  0  0  0  0  0  0  0  0  0
  161.2760  210.0920  151.0700 C   0  0  0  0  0  0  0  0  0  0  0  0
  161.2060  206.6450  155.6210 N   0  0  0  0  0  0  0  0  0  0  0  0
  161.1710  205.3730  152.0540 C   0  0  0  0  0  0  0  0  0  0  0  0
  161.2070  207.8760  151.4010 C   0  0  0  0  0  0  0  0  0  0  0  0
  161.1100  204.0300  151.6150 C   0  0  0  0  0  0  0  0  0  0  0  0
  160.9030  207.8860  156.1980 N   0  0  0  0  0  0  0  0  0  0  0  0
  161.5150  208.8730  150.4650 C   0  0  0  0  0  0  0  0  0  0  0  0
  161.1050  206.4130  151.0920 C   0  0  0  0  0  0  0  0  0  0  0  0
  162.3270  210.9500  148.2460 C   0  0  0  0  0  3  0  0  0  0  0  0
  160.9110  206.0480  149.7500 C   0  0  0  0  0  2  0  0  0  0  0  0
  160.8080  209.8920  152.3280 N   0  0  0  0  0  0  0  0  0  0  0  0
  161.9420  211.7560  149.2420 C   0  0  0  0  0  0  0  0  0  0  0  0
  161.1110  206.6720  154.2170 C   0  0  0  0  0  0  0  0  0  0  0  0
  160.9400  203.7420  150.3010 N   0  0  0  0  0  0  0  0  0  0  0  0
  159.7050  212.1090  152.5620 C   0  0  0  0  0  2  0  0  0  0  0  0
  160.4120  210.9560  153.2700 C   0  0  0  0  0  3  0  0  0  0  0  0
  158.8920  211.0780  153.2970 C   0  0  0  0  0  2  0  0  0  0  0  0
  162.5150  213.7630  147.8860 C   0  0  0  0  0  1  0  0  0  0  0  0
  161.9610  213.1450  149.0430 O   0  0  0  0  0  0  0  0  0  0  0  0
  1 18  2  0  0  0  0
  1  4  1  0  0  0  0
  2 10  1  0  0  0  0
  3 15  1  0  0  0  0
  4 16  1  0  0  0  0
  6 19  1  0  0  0  0
  6 23  2  0  0  0  0
  7 22  2  0  0  0  0
  8  9  1  0  0  0  0
  9 22  1  0  0  0  0
  9  3  2  0  0  0  0
 10 20  1  0  0  0  0
 11 15  2  0  0  0  0
 12  7  1  0  0  0  0
 13  8  2  0  0  0  0
 14 12  1  0  0  0  0
 14  5  2  0  0  0  0
 16 10  2  0  0  0  0
 16 13  1  0  0  0  0
 17 13  1  0  0  0  0
 17 12  2  0  0  0  0
 18 21  1  0  0  0  0
 19 17  1  0  0  0  0
 20  8  1  0  0  0  0
 20 25  1  0  0  0  0
 21  2  2  0  0  0  0
 22 11  1  0  0  0  0
 23 14  1  0  0  0  0
 24 25  1  0  0  0  0
 24 26  1  0  0  0  0
 25 26  1  0  0  0  0
 27 28  1  0  0  0  0
 28 21  1  0  0  0  0
M  END
>  <MODEL>
7

>  <REMARK>
 VINA RESULT:      -7.8      2.386      6.852
  Name = 
  2 active torsions:
  status: ('A' for Active; 'I' for Inactive)
    1  A    between atoms: C_15  and  N_24
    2  A    between atoms: C_25  and  O_26
                            x       y       z     vdW  Elec       q    Type
                         _______ _______ _______ _____ _____    ______ ____

>  <TORSDO>
F 2

$$$$
=
 OpenBabel11042421093D

 28 33  0  0  1  0  0  0  0  0999 V2000
  160.0810  206.5780  155.4280 C   0  0  0  0  0  3  0  0  0  0  0  0
  161.2610  209.1660  154.1010 C   0  0  0  0  0  3  0  0  0  0  0  0
  162.0280  208.8180  148.8890 C   0  0  0  0  0  3  0  0  0  0  0  0
  160.3420  206.1840  154.1880 C   0  0  0  0  0  3  0  0  0  0  0  0
  160.6520  202.6790  148.7190 O   0  0  0  0  0  0  0  0  0  0  0  0
  161.1350  202.7070  152.1840 C   0  0  0  0  0  3  0  0  0  0  0  0
  160.8530  205.3790  148.8900 C   0  0  0  0  0  3  0  0  0  0  0  0
  161.6070  207.5480  151.0450 C   0  0  2  0  0  3  0  0  0  0  0  0
  161.7020  207.5950  149.6970 C   0  0  0  0  0  0  0  0  0  0  0  0
  161.3270  208.2860  153.0930 C   0  0  0  0  0  0  0  0  0  0  0  0
  161.1150  207.2690  147.4780 N   0  0  0  0  0  0  0  0  0  0  0  0
  160.9290  204.5340  150.0910 C   0  0  0  0  0  0  0  0  0  0  0  0
  161.1570  206.4630  151.8000 C   0  0  0  0  0  0  0  0  0  0  0  0
  160.8310  203.1400  149.8780 C   0  0  0  0  0  0  0  0  0  0  0  0
  161.5670  208.5960  147.5110 N   0  0  0  0  0  0  0  0  0  0  0  0
  160.9410  206.9600  153.0930 C   0  0  0  0  0  0  0  0  0  0  0  0
  161.0900  205.0160  151.4150 C   0  0  0  0  0  0  0  0  0  0  0  0
  160.3160  207.8920  156.0310 C   0  0  0  0  0  3  0  0  0  0  0  0
  161.2120  204.0680  152.4440 C   0  0  0  0  0  2  0  0  0  0  0  0
  161.7980  208.6240  151.8650 N   0  0  0  0  0  0  0  0  0  0  0  0
  160.8100  209.0120  155.4930 C   0  0  0  0  0  0  0  0  0  0  0  0
  161.1810  206.6510  148.7410 C   0  0  0  0  0  0  0  0  0  0  0  0
  160.9390  202.2740  150.9170 N   0  0  0  0  0  0  0  0  0  0  0  0
  161.2790  210.8090  150.7980 C   0  0  0  0  0  2  0  0  0  0  0  0
  162.3310  209.9470  151.4900 C   0  0  0  0  0  3  0  0  0  0  0  0
  161.5850  211.0370  152.2540 C   0  0  0  0  0  2  0  0  0  0  0  0
  160.7500  211.4810  155.8070 C   0  0  0  0  0  1  0  0  0  0  0  0
  160.9420  210.1560  156.2940 O   0  0  0  0  0  0  0  0  0  0  0  0
  1 18  1  0  0  0  0
  2 21  1  0  0  0  0
  3  9  2  0  0  0  0
  4  1  2  0  0  0  0
  5 14  2  0  0  0  0
  6 19  1  0  0  0  0
  7 12  1  0  0  0  0
  8  9  1  6  0  0  0
  8 13  1  0  0  0  0
  8 20  1  0  0  0  0
 10 16  1  0  0  0  0
 10  2  2  0  0  0  0
 11 15  2  0  0  0  0
 11 22  1  0  0  0  0
 12 17  2  0  0  0  0
 13 16  2  0  0  0  0
 14 12  1  0  0  0  0
 14 23  1  0  0  0  0
 15  3  1  0  0  0  0
 16  4  1  0  0  0  0
 17 13  1  0  0  0  0
 17 19  1  0  0  0  0
 20 10  1  0  0  0  0
 21 18  2  0  0  0  0
 21 28  1  0  0  0  0
 22  7  2  0  0  0  0
 22  9  1  0  0  0  0
 23  6  2  0  0  0  0
 24 25  1  0  0  0  0
 24 26  1  0  0  0  0
 25 20  1  0  0  0  0
 25 26  1  0  0  0  0
 27 28  1  0  0  0  0
M  END
>  <MODEL>
8

>  <REMARK>
 VINA RESULT:      -7.6      1.520      6.100
  Name = 
  2 active torsions:
  status: ('A' for Active; 'I' for Inactive)
    1  A    between atoms: C_15  and  N_24
    2  A    between atoms: C_25  and  O_26
                            x       y       z     vdW  Elec       q    Type
                         _______ _______ _______ _____ _____    ______ ____

>  <TORSDO>
F 2

$$$$
