=
 OpenBabel11052410143D

 25 29  0  0  1  0  0  0  0  0999 V2000
  161.7940  209.1100  149.7630 C   0  0  0  0  0  0  0  0  0  0  0  0
  161.6890  205.8480  151.6570 N   0  0  0  0  0  0  0  0  0  0  0  0
  161.9400  205.7450  153.0410 N   0  0  0  0  0  2  0  0  0  0  0  0
  162.1020  209.9230  150.8730 C   0  0  0  0  0  3  0  0  0  0  0  0
  162.0760  207.9860  152.2900 C   0  0  0  0  0  0  0  0  0  0  0  0
  161.6340  207.7190  149.9420 C   0  0  0  0  0  3  0  0  0  0  0  0
  162.2490  209.3640  152.1530 C   0  0  0  0  0  3  0  0  0  0  0  0
  162.1770  207.1300  153.5060 C   0  0  1  0  0  3  0  0  0  0  0  0
  161.7850  207.1950  151.2280 C   0  0  0  0  0  0  0  0  0  0  0  0
  159.9820  208.4920  156.2030 C   0  0  2  0  0  3  0  0  0  0  0  0
  159.4450  209.6650  156.1930 N   0  0  0  0  0  2  0  0  0  0  0  0
  161.4610  209.8890  155.1800 N   0  0  0  0  0  0  0  0  0  0  0  0
  161.3380  208.5090  155.6190 C   0  0  2  0  0  3  0  0  0  0  0  0
  159.2370  207.3660  155.7670 N   0  0  0  0  0  2  0  0  0  0  0  0
  161.1430  207.5140  154.5180 C   0  0  2  0  0  3  0  0  0  0  0  0
  160.0110  206.8360  154.6930 C   0  0  0  0  0  2  0  0  0  0  0  0
  160.4040  210.5180  155.5790 C   0  0  0  0  0  3  0  0  0  0  0  0
  161.2260  204.7980  149.4600 C   0  0  0  0  0  3  0  0  0  0  0  0
  161.3570  204.7010  150.8530 C   0  0  0  0  0  0  0  0  0  0  0  0
  161.1560  203.4560  151.4690 C   0  0  0  0  0  3  0  0  0  0  0  0
  160.7050  202.4400  149.3190 C   0  0  0  0  0  3  0  0  0  0  0  0
  160.9030  203.6730  148.6960 C   0  0  0  0  0  3  0  0  0  0  0  0
  160.8310  202.3310  150.7060 C   0  0  0  0  0  3  0  0  0  0  0  0
  161.9540  211.0750  148.2720 C   0  0  0  0  0  1  0  0  0  0  0  0
  161.6550  209.7060  148.5080 O   0  0  0  0  0  0  0  0  0  0  0  0
  1  6  2  0  0  0  0
  1  4  1  0  0  0  0
  2  3  1  0  0  0  0
  3  8  1  0  0  0  0
  4  7  2  0  0  0  0
  6  9  1  0  0  0  0
  7  5  1  0  0  0  0
  8  5  1  6  0  0  0
  8 15  1  0  0  0  0
  9  2  1  0  0  0  0
  9  5  2  0  0  0  0
 10 14  1  6  0  0  0
 11 10  1  0  0  0  0
 12 17  2  0  0  0  0
 13 12  1  6  0  0  0
 13 10  1  0  0  0  0
 15 16  1  1  0  0  0
 15 13  1  0  0  0  0
 16 14  1  0  0  0  0
 17 11  1  0  0  0  0
 18 19  1  0  0  0  0
 19 20  2  0  0  0  0
 19  2  1  0  0  0  0
 21 23  2  0  0  0  0
 22 21  1  0  0  0  0
 22 18  2  0  0  0  0
 23 20  1  0  0  0  0
 24 25  1  0  0  0  0
 25  1  1  0  0  0  0
M  END
>  <MODEL>
1

>  <REMARK>
 VINA RESULT:      -7.2      0.000      0.000
  Name = 
  3 active torsions:
  status: ('A' for Active; 'I' for Inactive)
    1  A    between atoms: C_1  and  O_18
    2  A    between atoms: N_5  and  C_13
    3  A    between atoms: C_19  and  C_22
                            x       y       z     vdW  Elec       q    Type
                         _______ _______ _______ _____ _____    ______ ____

>  <TORSDO>
F 3

$$$$
=
 OpenBabel11052410143D

 25 29  0  0  1  0  0  0  0  0999 V2000
  160.3490  208.3360  154.5780 C   0  0  0  0  0  0  0  0  0  0  0  0
  162.0250  208.1360  151.2040 N   0  0  0  0  0  0  0  0  0  0  0  0
  162.6700  206.9770  150.7240 N   0  0  0  0  0  2  0  0  0  0  0  0
  160.6180  207.0060  154.9630 C   0  0  0  0  0  3  0  0  0  0  0  0
  161.7270  206.6320  152.8680 C   0  0  0  0  0  0  0  0  0  0  0  0
  160.7870  208.7980  153.3190 C   0  0  0  0  0  3  0  0  0  0  0  0
  161.3160  206.1390  154.1070 C   0  0  0  0  0  3  0  0  0  0  0  0
  162.4790  205.9530  151.7750 C   0  0  1  0  0  3  0  0  0  0  0  0
  161.4770  207.9100  152.4910 C   0  0  0  0  0  0  0  0  0  0  0  0
  160.4060  203.4240  149.9720 C   0  0  2  0  0  3  0  0  0  0  0  0
  160.7150  202.8930  148.8380 N   0  0  0  0  0  2  0  0  0  0  0  0
  161.4860  205.0240  148.7630 N   0  0  0  0  0  0  0  0  0  0  0  0
  160.8030  204.8450  150.0340 C   0  0  2  0  0  3  0  0  0  0  0  0
  160.7030  202.7430  151.1810 N   0  0  0  0  0  2  0  0  0  0  0  0
  161.7030  204.7960  151.2290 C   0  0  2  0  0  3  0  0  0  0  0  0
  161.5440  203.6520  151.8900 C   0  0  0  0  0  2  0  0  0  0  0  0
  161.3570  203.9230  148.0960 C   0  0  0  0  0  3  0  0  0  0  0  0
  161.7110  210.5890  151.0290 C   0  0  0  0  0  3  0  0  0  0  0  0
  161.9460  209.3440  150.4250 C   0  0  0  0  0  0  0  0  0  0  0  0
  162.1060  209.2850  149.0320 C   0  0  0  0  0  3  0  0  0  0  0  0
  161.7970  211.6810  148.8710 C   0  0  0  0  0  3  0  0  0  0  0  0
  161.6380  211.7520  150.2560 C   0  0  0  0  0  3  0  0  0  0  0  0
  162.0310  210.4470  148.2580 C   0  0  0  0  0  3  0  0  0  0  0  0
  159.6910  210.5830  155.3700 C   0  0  0  0  0  1  0  0  0  0  0  0
  159.6510  209.1660  155.4590 O   0  0  0  0  0  0  0  0  0  0  0  0
  1  4  1  0  0  0  0
  1 25  1  0  0  0  0
  2  9  1  0  0  0  0
  3  2  1  0  0  0  0
  5  7  1  0  0  0  0
  6  1  2  0  0  0  0
  7  4  2  0  0  0  0
  8  3  1  6  0  0  0
  8  5  1  0  0  0  0
  9  5  2  0  0  0  0
  9  6  1  0  0  0  0
 10 11  1  6  0  0  0
 10 13  1  0  0  0  0
 10 14  1  0  0  0  0
 13 12  1  6  0  0  0
 13 15  1  0  0  0  0
 14 16  1  0  0  0  0
 15  8  1  0  0  0  0
 15 16  1  1  0  0  0
 17 12  2  0  0  0  0
 17 11  1  0  0  0  0
 19 18  1  0  0  0  0
 19  2  1  0  0  0  0
 20 19  2  0  0  0  0
 21 22  1  0  0  0  0
 22 18  2  0  0  0  0
 23 21  2  0  0  0  0
 23 20  1  0  0  0  0
 24 25  1  0  0  0  0
M  END
>  <MODEL>
2

>  <REMARK>
 VINA RESULT:      -7.2      2.592      6.322
  Name = 
  3 active torsions:
  status: ('A' for Active; 'I' for Inactive)
    1  A    between atoms: C_1  and  O_18
    2  A    between atoms: N_5  and  C_13
    3  A    between atoms: C_19  and  C_22
                            x       y       z     vdW  Elec       q    Type
                         _______ _______ _______ _____ _____    ______ ____

>  <TORSDO>
F 3

$$$$
=
 OpenBabel11052410143D

 25 29  0  0  1  0  0  0  0  0999 V2000
  161.2070  202.2960  149.8830 C   0  0  0  0  0  0  0  0  0  0  0  0
  160.8790  205.5570  148.0140 N   0  0  0  0  0  0  0  0  0  0  0  0
  160.3820  206.7420  148.5990 N   0  0  0  0  0  2  0  0  0  0  0  0
  160.7310  202.7780  151.1200 C   0  0  0  0  0  3  0  0  0  0  0  0
  160.4480  204.9570  150.1530 C   0  0  0  0  0  0  0  0  0  0  0  0
  161.2920  203.1730  148.7800 C   0  0  0  0  0  3  0  0  0  0  0  0
  160.3420  204.1200  151.2650 C   0  0  0  0  0  3  0  0  0  0  0  0
  160.1080  206.4010  150.0130 C   0  0  1  0  0  3  0  0  0  0  0  0
  160.9000  204.5010  148.9590 C   0  0  0  0  0  0  0  0  0  0  0  0
  162.5110  208.6470  151.7820 C   0  0  2  0  0  3  0  0  0  0  0  0
  162.5500  209.9290  151.6530 N   0  0  0  0  0  2  0  0  0  0  0  0
  161.9560  209.1130  149.6230 N   0  0  0  0  0  0  0  0  0  0  0  0
  162.1900  207.9810  150.5040 C   0  0  2  0  0  3  0  0  0  0  0  0
  161.8100  208.0630  152.8680 N   0  0  0  0  0  2  0  0  0  0  0  0
  160.9560  207.2410  150.9160 C   0  0  2  0  0  3  0  0  0  0  0  0
  160.8360  207.2300  152.2420 C   0  0  0  0  0  2  0  0  0  0  0  0
  162.2330  210.1860  150.2900 C   0  0  0  0  0  3  0  0  0  0  0  0
  162.6140  205.1030  146.3040 C   0  0  0  0  0  3  0  0  0  0  0  0
  161.3140  205.5070  146.6430 C   0  0  0  0  0  0  0  0  0  0  0  0
  160.4270  205.8690  145.6190 C   0  0  0  0  0  3  0  0  0  0  0  0
  162.1280  205.4250  143.9560 C   0  0  0  0  0  3  0  0  0  0  0  0
  163.0200  205.0620  144.9670 C   0  0  0  0  0  3  0  0  0  0  0  0
  160.8310  205.8300  144.2810 C   0  0  0  0  0  3  0  0  0  0  0  0
  161.5800  200.2490  148.5480 C   0  0  0  0  0  1  0  0  0  0  0  0
  161.5840  200.9550  149.7810 O   0  0  0  0  0  0  0  0  0  0  0  0
  1  4  1  0  0  0  0
  2  3  1  0  0  0  0
  2  9  1  0  0  0  0
  4  7  2  0  0  0  0
  5  7  1  0  0  0  0
  6  9  1  0  0  0  0
  6  1  2  0  0  0  0
  8  3  1  6  0  0  0
  8  5  1  0  0  0  0
  8 15  1  0  0  0  0
  9  5  2  0  0  0  0
 10 11  1  6  0  0  0
 10 14  1  0  0  0  0
 12 17  2  0  0  0  0
 13 12  1  6  0  0  0
 13 15  1  0  0  0  0
 13 10  1  0  0  0  0
 15 16  1  1  0  0  0
 16 14  1  0  0  0  0
 17 11  1  0  0  0  0
 18 19  1  0  0  0  0
 19  2  1  0  0  0  0
 20 19  2  0  0  0  0
 21 23  2  0  0  0  0
 21 22  1  0  0  0  0
 22 18  2  0  0  0  0
 23 20  1  0  0  0  0
 24 25  1  0  0  0  0
 25  1  1  0  0  0  0
M  END
>  <MODEL>
3

>  <REMARK>
 VINA RESULT:      -7.0      3.233      5.656
  Name = 
  3 active torsions:
  status: ('A' for Active; 'I' for Inactive)
    1  A    between atoms: C_1  and  O_18
    2  A    between atoms: N_5  and  C_13
    3  A    between atoms: C_19  and  C_22
                            x       y       z     vdW  Elec       q    Type
                         _______ _______ _______ _____ _____    ______ ____

>  <TORSDO>
F 3

$$$$
=
 OpenBabel11052410143D

 25 29  0  0  1  0  0  0  0  0999 V2000
  160.9570  206.7850  147.0340 C   0  0  0  0  0  0  0  0  0  0  0  0
  161.7270  205.1610  150.3510 N   0  0  0  0  0  0  0  0  0  0  0  0
  162.3320  205.8430  151.4280 N   0  0  0  0  0  2  0  0  0  0  0  0
  161.4370  208.0660  147.3740 C   0  0  0  0  0  3  0  0  0  0  0  0
  162.0030  207.2640  149.5640 C   0  0  0  0  0  0  0  0  0  0  0  0
  161.0150  205.7440  147.9850 C   0  0  0  0  0  3  0  0  0  0  0  0
  161.9700  208.3180  148.6490 C   0  0  0  0  0  3  0  0  0  0  0  0
  162.5100  207.2370  150.9650 C   0  0  1  0  0  3  0  0  0  0  0  0
  161.5490  206.0280  149.2440 C   0  0  0  0  0  0  0  0  0  0  0  0
  160.3720  209.0840  153.4060 C   0  0  2  0  0  3  0  0  0  0  0  0
  160.5920  209.1490  154.6750 N   0  0  0  0  0  2  0  0  0  0  0  0
  161.2730  207.0870  154.0250 N   0  0  0  0  0  0  0  0  0  0  0  0
  160.7200  207.7570  152.8600 C   0  0  2  0  0  3  0  0  0  0  0  0
  160.8070  210.1320  152.5540 N   0  0  0  0  0  2  0  0  0  0  0  0
  161.7290  208.1700  151.8360 C   0  0  2  0  0  3  0  0  0  0  0  0
  161.6760  209.4840  151.6280 C   0  0  0  0  0  2  0  0  0  0  0  0
  161.1220  207.8790  155.0360 C   0  0  0  0  0  3  0  0  0  0  0  0
  161.4040  203.0810  151.6590 C   0  0  0  0  0  3  0  0  0  0  0  0
  161.3420  203.7770  150.4430 C   0  0  0  0  0  0  0  0  0  0  0  0
  160.8960  203.1020  149.2970 C   0  0  0  0  0  3  0  0  0  0  0  0
  160.5850  201.0750  150.5830 C   0  0  0  0  0  3  0  0  0  0  0  0
  161.0270  201.7370  151.7300 C   0  0  0  0  0  3  0  0  0  0  0  0
  160.5190  201.7570  149.3650 C   0  0  0  0  0  3  0  0  0  0  0  0
  160.8580  205.5100  144.9180 C   0  0  0  0  0  1  0  0  0  0  0  0
  160.4340  206.5770  145.7550 O   0  0  0  0  0  0  0  0  0  0  0  0
  1  4  2  0  0  0  0
  1  6  1  0  0  0  0
  2 19  1  0  0  0  0
  2  3  1  0  0  0  0
  4  7  1  0  0  0  0
  6  9  2  0  0  0  0
  7  5  2  0  0  0  0
  8  5  1  6  0  0  0
  8  3  1  0  0  0  0
  8 15  1  0  0  0  0
  9  5  1  0  0  0  0
  9  2  1  0  0  0  0
 10 14  1  6  0  0  0
 10 11  1  0  0  0  0
 11 17  1  0  0  0  0
 12 17  2  0  0  0  0
 13 10  1  0  0  0  0
 13 12  1  1  0  0  0
 15 16  1  6  0  0  0
 15 13  1  0  0  0  0
 16 14  1  0  0  0  0
 18 22  1  0  0  0  0
 19 18  2  0  0  0  0
 20 23  2  0  0  0  0
 20 19  1  0  0  0  0
 21 22  2  0  0  0  0
 23 21  1  0  0  0  0
 24 25  1  0  0  0  0
 25  1  1  0  0  0  0
M  END
>  <MODEL>
4

>  <REMARK>
 VINA RESULT:      -6.9      1.885      3.201
  Name = 
  3 active torsions:
  status: ('A' for Active; 'I' for Inactive)
    1  A    between atoms: C_1  and  O_18
    2  A    between atoms: N_5  and  C_13
    3  A    between atoms: C_19  and  C_22
                            x       y       z     vdW  Elec       q    Type
                         _______ _______ _______ _____ _____    ______ ____

>  <TORSDO>
F 3

$$$$
=
 OpenBabel11052410143D

 25 29  0  0  1  0  0  0  0  0999 V2000
  160.8590  204.3590  151.1350 C   0  0  0  0  0  0  0  0  0  0  0  0
  162.0910  207.0690  148.8180 N   0  0  0  0  0  0  0  0  0  0  0  0
  162.5210  206.8260  147.4970 N   0  0  0  0  0  2  0  0  0  0  0  0
  160.9990  203.2960  150.2190 C   0  0  0  0  0  3  0  0  0  0  0  0
  161.7980  204.8400  148.5640 C   0  0  0  0  0  0  0  0  0  0  0  0
  161.2040  205.6690  150.7400 C   0  0  0  0  0  3  0  0  0  0  0  0
  161.4750  203.5290  148.9180 C   0  0  0  0  0  3  0  0  0  0  0  0
  162.3250  205.3750  147.2770 C   0  0  1  0  0  3  0  0  0  0  0  0
  161.6720  205.8670  149.4400 C   0  0  0  0  0  0  0  0  0  0  0  0
  160.2020  204.3490  144.3810 C   0  0  2  0  0  3  0  0  0  0  0  0
  159.4550  203.2980  144.3520 N   0  0  0  0  0  2  0  0  0  0  0  0
  161.2760  202.7390  145.5810 N   0  0  0  0  0  0  0  0  0  0  0  0
  161.4630  204.1010  145.1080 C   0  0  2  0  0  3  0  0  0  0  0  0
  159.6430  205.6090  144.7150 N   0  0  0  0  0  2  0  0  0  0  0  0
  161.3470  205.1540  146.1650 C   0  0  2  0  0  3  0  0  0  0  0  0
  160.3880  206.0250  145.8570 C   0  0  0  0  0  2  0  0  0  0  0  0
  160.1660  202.3040  145.0800 C   0  0  0  0  0  3  0  0  0  0  0  0
  162.1520  208.5930  150.7720 C   0  0  0  0  0  3  0  0  0  0  0  0
  162.0780  208.3920  149.3850 C   0  0  0  0  0  0  0  0  0  0  0  0
  161.9870  209.5090  148.5410 C   0  0  0  0  0  3  0  0  0  0  0  0
  162.0470  210.9900  150.4560 C   0  0  0  0  0  3  0  0  0  0  0  0
  162.1380  209.8850  151.3050 C   0  0  0  0  0  3  0  0  0  0  0  0
  161.9710  210.8020  149.0730 C   0  0  0  0  0  3  0  0  0  0  0  0
  160.8070  204.8070  153.5660 C   0  0  0  0  0  1  0  0  0  0  0  0
  160.3810  204.0840  152.4190 O   0  0  0  0  0  0  0  0  0  0  0  0
  1 25  1  0  0  0  0
  2 19  1  0  0  0  0
  2  9  1  0  0  0  0
  3  2  1  0  0  0  0
  4  1  2  0  0  0  0
  5  7  2  0  0  0  0
  5  9  1  0  0  0  0
  6  1  1  0  0  0  0
  7  4  1  0  0  0  0
  8  3  1  1  0  0  0
  8  5  1  0  0  0  0
  9  6  2  0  0  0  0
 10 11  1  1  0  0  0
 10 14  1  0  0  0  0
 10 13  1  0  0  0  0
 11 17  1  0  0  0  0
 13 12  1  1  0  0  0
 13 15  1  0  0  0  0
 14 16  1  0  0  0  0
 15 16  1  6  0  0  0
 15  8  1  0  0  0  0
 17 12  2  0  0  0  0
 18 22  1  0  0  0  0
 19 18  2  0  0  0  0
 20 23  2  0  0  0  0
 20 19  1  0  0  0  0
 21 22  2  0  0  0  0
 23 21  1  0  0  0  0
 25 24  1  0  0  0  0
M  END
>  <MODEL>
5

>  <REMARK>
 VINA RESULT:      -6.9      3.733      8.240
  Name = 
  3 active torsions:
  status: ('A' for Active; 'I' for Inactive)
    1  A    between atoms: C_1  and  O_18
    2  A    between atoms: N_5  and  C_13
    3  A    between atoms: C_19  and  C_22
                            x       y       z     vdW  Elec       q    Type
                         _______ _______ _______ _____ _____    ______ ____

>  <TORSDO>
F 3

$$$$
=
 OpenBabel11052410143D

 25 29  0  0  1  0  0  0  0  0999 V2000
  160.9320  206.5470  149.3670 C   0  0  0  0  0  0  0  0  0  0  0  0
  161.4630  208.8790  152.2860 N   0  0  0  0  0  0  0  0  0  0  0  0
  162.0550  210.1530  152.1640 N   0  0  0  0  0  2  0  0  0  0  0  0
  161.4660  207.4060  148.3840 C   0  0  0  0  0  3  0  0  0  0  0  0
  161.8890  209.0600  150.0710 C   0  0  0  0  0  0  0  0  0  0  0  0
  160.8910  206.9700  150.7130 C   0  0  0  0  0  3  0  0  0  0  0  0
  161.9550  208.6760  148.7300 C   0  0  0  0  0  3  0  0  0  0  0  0
  162.3310  210.3260  150.7210 C   0  0  1  0  0  3  0  0  0  0  0  0
  161.3820  208.2400  151.0240 C   0  0  0  0  0  0  0  0  0  0  0  0
  160.8030  213.2430  148.9580 C   0  0  2  0  0  3  0  0  0  0  0  0
  160.2000  213.1810  147.8200 N   0  0  0  0  0  2  0  0  0  0  0  0
  161.8710  211.6510  147.7280 N   0  0  0  0  0  0  0  0  0  0  0  0
  161.9610  212.3290  149.0110 C   0  0  2  0  0  3  0  0  0  0  0  0
  160.0540  213.2090  150.1630 N   0  0  0  0  0  2  0  0  0  0  0  0
  161.5650  211.4970  150.1900 C   0  0  2  0  0  3  0  0  0  0  0  0
  160.5650  212.0730  150.8550 C   0  0  0  0  0  2  0  0  0  0  0  0
  160.9080  212.2050  147.0650 C   0  0  0  0  0  3  0  0  0  0  0  0
  161.0020  206.9950  153.8290 C   0  0  0  0  0  3  0  0  0  0  0  0
  160.9980  208.3700  153.5490 C   0  0  0  0  0  0  0  0  0  0  0  0
  160.5300  209.2600  154.5270 C   0  0  0  0  0  3  0  0  0  0  0  0
  160.0820  207.4140  156.0270 C   0  0  0  0  0  3  0  0  0  0  0  0
  160.5460  206.5190  155.0620 C   0  0  0  0  0  3  0  0  0  0  0  0
  160.0720  208.7850  155.7600 C   0  0  0  0  0  3  0  0  0  0  0  0
  161.2060  204.0990  149.1650 C   0  0  0  0  0  1  0  0  0  0  0  0
  160.4570  205.2920  148.9810 O   0  0  0  0  0  0  0  0  0  0  0  0
  1  6  1  0  0  0  0
  2 19  1  0  0  0  0
  3  2  1  0  0  0  0
  4  7  1  0  0  0  0
  4  1  2  0  0  0  0
  5  9  1  0  0  0  0
  6  9  2  0  0  0  0
  7  5  2  0  0  0  0
  8  5  1  6  0  0  0
  8  3  1  0  0  0  0
  9  2  1  0  0  0  0
 10 11  1  6  0  0  0
 10 13  1  0  0  0  0
 10 14  1  0  0  0  0
 13 12  1  6  0  0  0
 13 15  1  0  0  0  0
 14 16  1  0  0  0  0
 15  8  1  0  0  0  0
 15 16  1  1  0  0  0
 17 12  2  0  0  0  0
 17 11  1  0  0  0  0
 18 22  1  0  0  0  0
 19 18  2  0  0  0  0
 19 20  1  0  0  0  0
 20 23  2  0  0  0  0
 22 21  2  0  0  0  0
 23 21  1  0  0  0  0
 25 24  1  0  0  0  0
 25  1  1  0  0  0  0
M  END
>  <MODEL>
6

>  <REMARK>
 VINA RESULT:      -6.8      3.051      6.102
  Name = 
  3 active torsions:
  status: ('A' for Active; 'I' for Inactive)
    1  A    between atoms: C_1  and  O_18
    2  A    between atoms: N_5  and  C_13
    3  A    between atoms: C_19  and  C_22
                            x       y       z     vdW  Elec       q    Type
                         _______ _______ _______ _____ _____    ______ ____

>  <TORSDO>
F 3

$$$$
=
 OpenBabel11052410143D

 25 29  0  0  1  0  0  0  0  0999 V2000
  160.5690  208.0570  154.7070 C   0  0  0  0  0  0  0  0  0  0  0  0
  161.4090  209.6130  151.3740 N   0  0  0  0  0  0  0  0  0  0  0  0
  162.1170  208.9370  150.3570 N   0  0  0  0  0  2  0  0  0  0  0  0
  161.1520  206.8010  154.4430 C   0  0  0  0  0  3  0  0  0  0  0  0
  161.7820  207.5620  152.2560 C   0  0  0  0  0  0  0  0  0  0  0  0
  160.6100  209.0650  153.7200 C   0  0  0  0  0  3  0  0  0  0  0  0
  161.7690  206.5420  153.2080 C   0  0  0  0  0  3  0  0  0  0  0  0
  162.3630  207.5760  150.8840 C   0  0  1  0  0  3  0  0  0  0  0  0
  161.2290  208.7750  152.5030 C   0  0  0  0  0  0  0  0  0  0  0  0
  160.7520  205.4380  148.2790 C   0  0  2  0  0  3  0  0  0  0  0  0
  161.3620  204.9350  147.2600 N   0  0  0  0  0  2  0  0  0  0  0  0
  162.3310  206.9490  147.6390 N   0  0  0  0  0  0  0  0  0  0  0  0
  161.2520  206.7900  148.5990 C   0  0  2  0  0  3  0  0  0  0  0  0
  160.5610  204.6590  149.4490 N   0  0  0  0  0  2  0  0  0  0  0  0
  161.6950  206.5600  150.0100 C   0  0  2  0  0  3  0  0  0  0  0  0
  161.2090  205.4110  150.4730 C   0  0  0  0  0  2  0  0  0  0  0  0
  162.3160  205.9130  146.8650 C   0  0  0  0  0  3  0  0  0  0  0  0
  160.1550  211.5890  152.1900 C   0  0  0  0  0  3  0  0  0  0  0  0
  160.9380  210.9620  151.2090 C   0  0  0  0  0  0  0  0  0  0  0  0
  161.2630  211.6740  150.0440 C   0  0  0  0  0  3  0  0  0  0  0  0
  160.0340  213.5980  150.8480 C   0  0  0  0  0  3  0  0  0  0  0  0
  159.7050  212.9000  152.0120 C   0  0  0  0  0  3  0  0  0  0  0  0
  160.8120  212.9850  149.8630 C   0  0  0  0  0  3  0  0  0  0  0  0
  160.0860  207.3600  157.0290 C   0  0  0  0  0  1  0  0  0  0  0  0
  159.9640  208.2730  155.9480 O   0  0  0  0  0  0  0  0  0  0  0  0
  1 25  1  0  0  0  0
  2  9  1  0  0  0  0
  3  2  1  0  0  0  0
  4  1  1  0  0  0  0
  5  9  2  0  0  0  0
  5  7  1  0  0  0  0
  6  1  2  0  0  0  0
  7  4  2  0  0  0  0
  8  3  1  6  0  0  0
  8  5  1  0  0  0  0
  9  6  1  0  0  0  0
 10 11  1  6  0  0  0
 10 13  1  0  0  0  0
 10 14  1  0  0  0  0
 13 12  1  6  0  0  0
 13 15  1  0  0  0  0
 14 16  1  0  0  0  0
 15 16  1  1  0  0  0
 15  8  1  0  0  0  0
 17 11  1  0  0  0  0
 17 12  2  0  0  0  0
 19  2  1  0  0  0  0
 19 18  2  0  0  0  0
 20 19  1  0  0  0  0
 21 22  2  0  0  0  0
 22 18  1  0  0  0  0
 23 20  2  0  0  0  0
 23 21  1  0  0  0  0
 25 24  1  0  0  0  0
M  END
>  <MODEL>
7

>  <REMARK>
 VINA RESULT:      -6.7      2.911      7.120
  Name = 
  3 active torsions:
  status: ('A' for Active; 'I' for Inactive)
    1  A    between atoms: C_1  and  O_18
    2  A    between atoms: N_5  and  C_13
    3  A    between atoms: C_19  and  C_22
                            x       y       z     vdW  Elec       q    Type
                         _______ _______ _______ _____ _____    ______ ____

>  <TORSDO>
F 3

$$$$
=
 OpenBabel11052410143D

 25 29  0  0  1  0  0  0  0  0999 V2000
  160.1020  210.7200  153.6350 C   0  0  0  0  0  0  0  0  0  0  0  0
  161.7730  210.6250  150.2540 N   0  0  0  0  0  0  0  0  0  0  0  0
  162.4720  209.5010  149.7640 N   0  0  0  0  0  2  0  0  0  0  0  0
  160.4370  209.4030  154.0110 C   0  0  0  0  0  3  0  0  0  0  0  0
  161.5540  209.0960  151.9090 C   0  0  0  0  0  0  0  0  0  0  0  0
  160.5130  211.2120  152.3780 C   0  0  0  0  0  3  0  0  0  0  0  0
  161.1730  208.5760  153.1460 C   0  0  0  0  0  3  0  0  0  0  0  0
  162.3340  208.4620  150.8090 C   0  0  1  0  0  3  0  0  0  0  0  0
  161.2420  210.3630  151.5410 C   0  0  0  0  0  0  0  0  0  0  0  0
  160.5470  205.7790  148.9240 C   0  0  2  0  0  3  0  0  0  0  0  0
  161.0790  205.0460  148.0060 N   0  0  0  0  0  2  0  0  0  0  0  0
  162.0470  207.0870  147.8170 N   0  0  0  0  0  0  0  0  0  0  0  0
  161.0520  207.1650  148.8740 C   0  0  2  0  0  3  0  0  0  0  0  0
  160.4630  205.2990  150.2560 N   0  0  0  0  0  2  0  0  0  0  0  0
  161.6120  207.2730  150.2570 C   0  0  2  0  0  3  0  0  0  0  0  0
  161.1810  206.2680  151.0170 C   0  0  0  0  0  2  0  0  0  0  0  0
  161.9840  205.8980  147.3130 C   0  0  0  0  0  3  0  0  0  0  0  0
  160.6310  212.7710  149.7720 C   0  0  0  0  0  3  0  0  0  0  0  0
  161.6340  211.8320  149.4840 C   0  0  0  0  0  0  0  0  0  0  0  0
  162.5140  212.0840  148.4210 C   0  0  0  0  0  3  0  0  0  0  0  0
  161.3920  214.1780  147.9570 C   0  0  0  0  0  3  0  0  0  0  0  0
  160.5100  213.9380  149.0130 C   0  0  0  0  0  3  0  0  0  0  0  0
  162.3930  213.2510  147.6600 C   0  0  0  0  0  3  0  0  0  0  0  0
  158.3290  210.9830  155.3380 C   0  0  0  0  0  1  0  0  0  0  0  0
  159.3690  211.5090  154.5250 O   0  0  0  0  0  0  0  0  0  0  0  0
  1  4  1  0  0  0  0
  1 25  1  0  0  0  0
  2  9  1  0  0  0  0
  3  2  1  0  0  0  0
  5  7  1  0  0  0  0
  6  1  2  0  0  0  0
  7  4  2  0  0  0  0
  8  3  1  6  0  0  0
  8  5  1  0  0  0  0
  9  5  2  0  0  0  0
  9  6  1  0  0  0  0
 10 11  1  6  0  0  0
 10 14  1  0  0  0  0
 13 12  1  6  0  0  0
 13 10  1  0  0  0  0
 13 15  1  0  0  0  0
 14 16  1  0  0  0  0
 15  8  1  0  0  0  0
 15 16  1  1  0  0  0
 17 12  2  0  0  0  0
 17 11  1  0  0  0  0
 19 18  1  0  0  0  0
 19  2  1  0  0  0  0
 20 19  2  0  0  0  0
 21 22  1  0  0  0  0
 22 18  2  0  0  0  0
 23 21  2  0  0  0  0
 23 20  1  0  0  0  0
 25 24  1  0  0  0  0
M  END
>  <MODEL>
8

>  <REMARK>
 VINA RESULT:      -6.5      3.095      7.034
  Name = 
  3 active torsions:
  status: ('A' for Active; 'I' for Inactive)
    1  A    between atoms: C_1  and  O_18
    2  A    between atoms: N_5  and  C_13
    3  A    between atoms: C_19  and  C_22
                            x       y       z     vdW  Elec       q    Type
                         _______ _______ _______ _____ _____    ______ ____

>  <TORSDO>
F 3

$$$$
=
 OpenBabel11052410143D

 25 29  0  0  1  0  0  0  0  0999 V2000
  160.1190  210.2480  153.8530 C   0  0  0  0  0  0  0  0  0  0  0  0
  161.8120  210.1230  150.4830 N   0  0  0  0  0  0  0  0  0  0  0  0
  162.5250  209.0000  150.0130 N   0  0  0  0  0  2  0  0  0  0  0  0
  160.4660  208.9400  154.2490 C   0  0  0  0  0  3  0  0  0  0  0  0
  161.5990  208.6170  152.1580 C   0  0  0  0  0  0  0  0  0  0  0  0
  160.5330  210.7270  152.5910 C   0  0  0  0  0  3  0  0  0  0  0  0
  161.2160  208.1090  153.4010 C   0  0  0  0  0  3  0  0  0  0  0  0
  162.3930  207.9750  151.0720 C   0  0  1  0  0  3  0  0  0  0  0  0
  161.2750  209.8740  151.7710 C   0  0  0  0  0  0  0  0  0  0  0  0
  160.9850  204.6630  150.0740 C   0  0  2  0  0  3  0  0  0  0  0  0
  160.3060  203.8890  150.8500 N   0  0  0  0  0  2  0  0  0  0  0  0
  161.8420  204.9070  152.1700 N   0  0  0  0  0  0  0  0  0  0  0  0
  162.0700  205.3490  150.8050 C   0  0  2  0  0  3  0  0  0  0  0  0
  160.3170  205.5400  149.1820 N   0  0  0  0  0  2  0  0  0  0  0  0
  161.6870  206.7700  150.5330 C   0  0  2  0  0  3  0  0  0  0  0  0
  160.7820  206.8350  149.5590 C   0  0  0  0  0  2  0  0  0  0  0  0
  160.8840  204.0380  152.1410 C   0  0  0  0  0  3  0  0  0  0  0  0
  162.3400  211.4780  148.4760 C   0  0  0  0  0  3  0  0  0  0  0  0
  161.6640  211.3180  149.6950 C   0  0  0  0  0  0  0  0  0  0  0  0
  160.8290  212.3510  150.1480 C   0  0  0  0  0  3  0  0  0  0  0  0
  161.3520  213.6680  148.1850 C   0  0  0  0  0  3  0  0  0  0  0  0
  162.1850  212.6460  147.7240 C   0  0  0  0  0  3  0  0  0  0  0  0
  160.6740  213.5210  149.3980 C   0  0  0  0  0  3  0  0  0  0  0  0
  159.0660  210.6410  156.0550 C   0  0  0  0  0  1  0  0  0  0  0  0
  159.3720  211.0420  154.7260 O   0  0  0  0  0  0  0  0  0  0  0  0
  1  4  1  0  0  0  0
  1 25  1  0  0  0  0
  2  9  1  0  0  0  0
  3  2  1  0  0  0  0
  5  7  1  0  0  0  0
  6  1  2  0  0  0  0
  7  4  2  0  0  0  0
  8  3  1  6  0  0  0
  8  5  1  0  0  0  0
  9  5  2  0  0  0  0
  9  6  1  0  0  0  0
 10 14  1  1  0  0  0
 10 13  1  0  0  0  0
 10 11  1  0  0  0  0
 11 17  1  0  0  0  0
 13 12  1  1  0  0  0
 14 16  1  0  0  0  0
 15 16  1  6  0  0  0
 15 13  1  0  0  0  0
 15  8  1  0  0  0  0
 17 12  2  0  0  0  0
 18 19  1  0  0  0  0
 19 20  2  0  0  0  0
 19  2  1  0  0  0  0
 21 23  2  0  0  0  0
 22 21  1  0  0  0  0
 22 18  2  0  0  0  0
 23 20  1  0  0  0  0
 25 24  1  0  0  0  0
M  END
>  <MODEL>
9

>  <REMARK>
 VINA RESULT:      -6.4      2.656      6.533
  Name = 
  3 active torsions:
  status: ('A' for Active; 'I' for Inactive)
    1  A    between atoms: C_1  and  O_18
    2  A    between atoms: N_5  and  C_13
    3  A    between atoms: C_19  and  C_22
                            x       y       z     vdW  Elec       q    Type
                         _______ _______ _______ _____ _____    ______ ____

>  <TORSDO>
F 3

$$$$
