=
 OpenBabel11042420083D

 30 34  0  0  1  0  0  0  0  0999 V2000
  160.8180  205.6420  150.1750 C   0  0  0  0  0  0  0  0  0  0  0  0
  160.9870  206.9800  153.6640 N   0  0  0  0  0  0  0  0  0  0  0  0
  161.9920  208.9490  149.6060 N   0  0  0  0  0  0  0  0  0  0  0  0
  161.3250  204.4690  152.2950 C   0  0  0  0  0  3  0  0  0  0  0  0
  161.3360  203.3070  151.6240 C   0  0  0  0  0  3  0  0  0  0  0  0
  160.6280  205.6590  151.6810 C   0  0  1  0  0  3  0  0  0  0  0  0
  161.0460  206.8150  149.4580 O   0  0  0  0  0  0  0  0  0  0  0  0
  162.2810  209.9690  150.6000 C   0  0  2  0  0  3  0  0  0  0  0  0
  160.8800  208.2460  151.5350 C   0  0  2  0  0  3  0  0  0  0  0  0
  160.6570  203.2350  150.2780 C   0  0  2  0  0  3  0  0  0  0  0  0
  160.9520  206.9750  152.3580 C   0  0  0  0  0  0  0  0  0  0  0  0
  161.2880  208.0070  150.1290 C   0  0  0  0  0  0  0  0  0  0  0  0
  161.2250  202.0900  149.4660 C   0  0  0  0  0  1  0  0  0  0  0  0
  161.8560  209.3500  151.9330 C   0  0  0  0  0  2  0  0  0  0  0  0
  160.8290  204.4990  149.5530 N   0  0  0  0  0  0  0  0  0  0  0  0
  160.8460  210.1600  156.4190 C   0  0  0  0  0  0  0  0  0  0  0  0
  159.8350  210.0570  155.4630 C   0  0  0  0  0  3  0  0  0  0  0  0
  160.8210  211.0950  157.2610 O   0  0  0  0  0  0  0  0  0  0  0  0
  161.9160  208.2270  155.5500 C   0  0  0  0  0  3  0  0  0  0  0  0
  161.8540  209.2480  156.4460 N   0  0  0  0  0  0  0  0  0  0  0  0
  160.9450  208.1050  154.5520 C   0  0  2  0  0  3  0  0  0  0  0  0
  159.8810  209.0170  154.5340 C   0  0  0  0  0  3  0  0  0  0  0  0
  160.1360  213.6200  149.7980 C   0  0  0  0  0  3  0  0  0  0  0  0
  161.0500  213.1250  148.8660 C   0  0  0  0  0  3  0  0  0  0  0  0
  161.5240  211.2370  150.3160 C   0  0  0  0  0  0  0  0  0  0  0  0
  161.7520  211.9340  149.1160 C   0  0  0  0  0  0  0  0  0  0  0  0
  160.6050  211.7440  151.2500 C   0  0  0  0  0  3  0  0  0  0  0  0
  159.9130  212.9290  150.9910 C   0  0  0  0  0  3  0  0  0  0  0  0
  162.6730  211.4310  148.1900 O   0  0  0  0  0  0  0  0  0  0  0  0
  163.6670  212.2400  147.5750 C   0  0  0  0  0  1  0  0  0  0  0  0
  1  6  1  0  0  0  0
  3 12  2  0  0  0  0
  3  8  1  0  0  0  0
  5  4  2  0  0  0  0
  6  4  1  1  0  0  0
  6 11  1  0  0  0  0
  7 12  1  0  0  0  0
  7  1  1  0  0  0  0
  8 25  1  6  0  0  0
  8 14  1  0  0  0  0
  9 14  1  1  0  0  0
  9 11  1  0  0  0  0
 10 13  1  6  0  0  0
 10  5  1  0  0  0  0
 11  2  2  0  0  0  0
 12  9  1  0  0  0  0
 15  1  2  0  0  0  0
 15 10  1  0  0  0  0
 16 20  1  0  0  0  0
 16 18  2  0  0  0  0
 17 16  1  0  0  0  0
 19 20  2  0  0  0  0
 21  2  1  1  0  0  0
 21 19  1  0  0  0  0
 22 21  1  0  0  0  0
 22 17  2  0  0  0  0
 23 28  1  0  0  0  0
 24 26  1  0  0  0  0
 24 23  2  0  0  0  0
 25 27  1  0  0  0  0
 26 25  2  0  0  0  0
 28 27  2  0  0  0  0
 29 26  1  0  0  0  0
 30 29  1  0  0  0  0
M  END
>  <MODEL>
1

>  <REMARK>
 VINA RESULT:      -7.4      0.000      0.000
  Name = 
  3 active torsions:
  status: ('A' for Active; 'I' for Inactive)
    1  A    between atoms: N_3  and  C_24
    2  A    between atoms: C_15  and  C_17
    3  A    between atoms: C_16  and  O_20
                            x       y       z     vdW  Elec       q    Type
                         _______ _______ _______ _____ _____    ______ ____

>  <TORSDO>
F 3

$$$$
=
 OpenBabel11042420083D

 30 34  0  0  1  0  0  0  0  0999 V2000
  157.1490  211.9360  154.7350 C   0  0  0  0  0  0  0  0  0  0  0  0
  158.1970  213.7210  151.6190 N   0  0  0  0  0  0  0  0  0  0  0  0
  160.2230  210.3130  153.9930 N   0  0  0  0  0  0  0  0  0  0  0  0
  156.7630  214.2840  154.0520 C   0  0  0  0  0  3  0  0  0  0  0  0
  155.9900  214.4490  155.1370 C   0  0  0  0  0  3  0  0  0  0  0  0
  157.0320  212.8840  153.5540 C   0  0  1  0  0  3  0  0  0  0  0  0
  158.0940  210.9130  154.7530 O   0  0  0  0  0  0  0  0  0  0  0  0
  161.1270  210.5910  152.8900 C   0  0  2  0  0  3  0  0  0  0  0  0
  158.9430  211.5060  152.4470 C   0  0  2  0  0  3  0  0  0  0  0  0
  155.4250  213.2300  155.8230 C   0  0  2  0  0  3  0  0  0  0  0  0
  158.1560  212.7980  152.5440 C   0  0  0  0  0  0  0  0  0  0  0  0
  159.0750  210.8510  153.7720 C   0  0  0  0  0  0  0  0  0  0  0  0
  155.0770  213.5530  157.2610 C   0  0  0  0  0  1  0  0  0  0  0  0
  160.4100  211.6510  152.0520 C   0  0  0  0  0  2  0  0  0  0  0  0
  156.3890  212.1260  155.7750 N   0  0  0  0  0  0  0  0  0  0  0  0
  160.3330  213.8860  147.9940 C   0  0  0  0  0  0  0  0  0  0  0  0
  159.0560  213.3220  147.9940 C   0  0  0  0  0  3  0  0  0  0  0  0
  160.9870  213.9570  146.9220 O   0  0  0  0  0  0  0  0  0  0  0  0
  160.1900  214.3000  150.3280 C   0  0  0  0  0  3  0  0  0  0  0  0
  160.8660  214.3650  149.1500 N   0  0  0  0  0  0  0  0  0  0  0  0
  158.9240  213.7110  150.3830 C   0  0  2  0  0  3  0  0  0  0  0  0
  158.3460  213.2460  149.1940 C   0  0  0  0  0  3  0  0  0  0  0  0
  161.8980  207.0370  150.5790 C   0  0  0  0  0  3  0  0  0  0  0  0
  162.1090  208.2970  150.0170 C   0  0  0  0  0  3  0  0  0  0  0  0
  161.4060  209.3500  152.0880 C   0  0  0  0  0  0  0  0  0  0  0  0
  161.8640  209.4630  150.7630 C   0  0  0  0  0  0  0  0  0  0  0  0
  161.1930  208.0780  152.6440 C   0  0  0  0  0  3  0  0  0  0  0  0
  161.4390  206.9270  151.8930 C   0  0  0  0  0  3  0  0  0  0  0  0
  162.0690  210.7320  150.2080 O   0  0  0  0  0  0  0  0  0  0  0  0
  162.2710  210.9400  148.8160 C   0  0  0  0  0  1  0  0  0  0  0  0
  1  7  1  0  0  0  0
  1 15  2  0  0  0  0
  2 11  2  0  0  0  0
  4  5  2  0  0  0  0
  5 10  1  0  0  0  0
  6  4  1  1  0  0  0
  6  1  1  0  0  0  0
  8 25  1  6  0  0  0
  8  3  1  0  0  0  0
  9 14  1  1  0  0  0
  9 11  1  0  0  0  0
  9 12  1  0  0  0  0
 10 13  1  1  0  0  0
 11  6  1  0  0  0  0
 12  3  2  0  0  0  0
 12  7  1  0  0  0  0
 14  8  1  0  0  0  0
 15 10  1  0  0  0  0
 16 20  1  0  0  0  0
 17 16  1  0  0  0  0
 17 22  2  0  0  0  0
 18 16  2  0  0  0  0
 19 21  1  0  0  0  0
 20 19  2  0  0  0  0
 21  2  1  6  0  0  0
 22 21  1  0  0  0  0
 23 28  1  0  0  0  0
 24 23  2  0  0  0  0
 24 26  1  0  0  0  0
 25 27  1  0  0  0  0
 26 25  2  0  0  0  0
 28 27  2  0  0  0  0
 29 26  1  0  0  0  0
 30 29  1  0  0  0  0
M  END
>  <MODEL>
2

>  <REMARK>
 VINA RESULT:      -6.2      3.344      7.821
  Name = 
  3 active torsions:
  status: ('A' for Active; 'I' for Inactive)
    1  A    between atoms: N_3  and  C_24
    2  A    between atoms: C_15  and  C_17
    3  A    between atoms: C_16  and  O_20
                            x       y       z     vdW  Elec       q    Type
                         _______ _______ _______ _____ _____    ______ ____

>  <TORSDO>
F 3

$$$$
=
 OpenBabel11042420083D

 30 34  0  0  1  0  0  0  0  0999 V2000
  161.4030  204.1030  151.7730 C   0  0  0  0  0  0  0  0  0  0  0  0
  161.6060  207.1760  149.6490 N   0  0  0  0  0  0  0  0  0  0  0  0
  160.4330  206.6230  154.0850 N   0  0  0  0  0  0  0  0  0  0  0  0
  160.9800  204.3810  149.3500 C   0  0  0  0  0  3  0  0  0  0  0  0
  160.8310  203.0520  149.2460 C   0  0  0  0  0  3  0  0  0  0  0  0
  161.7110  204.9420  150.5450 C   0  0  1  0  0  3  0  0  0  0  0  0
  161.2060  204.6880  153.0220 O   0  0  0  0  0  0  0  0  0  0  0  0
  160.2980  208.0480  153.8360 C   0  0  2  0  0  3  0  0  0  0  0  0
  161.6390  207.0110  152.1230 C   0  0  2  0  0  3  0  0  0  0  0  0
  161.3960  202.1670  150.3300 C   0  0  2  0  0  3  0  0  0  0  0  0
  161.5380  206.4350  150.7250 C   0  0  0  0  0  0  0  0  0  0  0  0
  161.1050  206.0690  153.1370 C   0  0  0  0  0  0  0  0  0  0  0  0
  160.6830  200.8300  150.3380 C   0  0  0  0  0  1  0  0  0  0  0  0
  160.7790  208.2430  152.3970 C   0  0  0  0  0  2  0  0  0  0  0  0
  161.2590  202.8160  151.6390 N   0  0  0  0  0  0  0  0  0  0  0  0
  162.3090  211.3060  149.2370 C   0  0  0  0  0  0  0  0  0  0  0  0
  162.5770  210.7010  150.4660 C   0  0  0  0  0  3  0  0  0  0  0  0
  162.5210  212.5370  149.0850 O   0  0  0  0  0  0  0  0  0  0  0  0
  161.5810  209.2350  148.3330 C   0  0  0  0  0  3  0  0  0  0  0  0
  161.8270  210.5670  148.2040 N   0  0  0  0  0  0  0  0  0  0  0  0
  161.8000  208.5930  149.5550 C   0  0  2  0  0  3  0  0  0  0  0  0
  162.3310  209.3360  150.6190 C   0  0  0  0  0  3  0  0  0  0  0  0
  162.6820  210.3420  156.5970 C   0  0  0  0  0  3  0  0  0  0  0  0
  162.2210  210.9270  155.4160 C   0  0  0  0  0  3  0  0  0  0  0  0
  161.1210  208.8510  154.8050 C   0  0  0  0  0  0  0  0  0  0  0  0
  161.4400  210.1890  154.5110 C   0  0  0  0  0  0  0  0  0  0  0  0
  161.5930  208.2690  155.9940 C   0  0  0  0  0  3  0  0  0  0  0  0
  162.3690  209.0130  156.8860 C   0  0  0  0  0  3  0  0  0  0  0  0
  160.9750  210.7640  153.3220 O   0  0  0  0  0  0  0  0  0  0  0  0
  160.0400  211.8350  153.3000 C   0  0  0  0  0  1  0  0  0  0  0  0
  1  7  1  0  0  0  0
  2 11  2  0  0  0  0
  5  4  2  0  0  0  0
  5 10  1  0  0  0  0
  6  4  1  6  0  0  0
  6 11  1  0  0  0  0
  6  1  1  0  0  0  0
  7 12  1  0  0  0  0
  8  3  1  0  0  0  0
  8 25  1  1  0  0  0
  9 14  1  6  0  0  0
  9 12  1  0  0  0  0
 10 13  1  1  0  0  0
 10 15  1  0  0  0  0
 11  9  1  0  0  0  0
 12  3  2  0  0  0  0
 14  8  1  0  0  0  0
 15  1  2  0  0  0  0
 16 17  1  0  0  0  0
 17 22  2  0  0  0  0
 18 16  2  0  0  0  0
 19 21  1  0  0  0  0
 20 19  2  0  0  0  0
 20 16  1  0  0  0  0
 21  2  1  6  0  0  0
 21 22  1  0  0  0  0
 23 28  1  0  0  0  0
 24 23  2  0  0  0  0
 25 27  1  0  0  0  0
 26 25  2  0  0  0  0
 26 24  1  0  0  0  0
 27 28  2  0  0  0  0
 29 26  1  0  0  0  0
 30 29  1  0  0  0  0
M  END
>  <MODEL>
3

>  <REMARK>
 VINA RESULT:      -6.1      1.963      5.177
  Name = 
  3 active torsions:
  status: ('A' for Active; 'I' for Inactive)
    1  A    between atoms: N_3  and  C_24
    2  A    between atoms: C_15  and  C_17
    3  A    between atoms: C_16  and  O_20
                            x       y       z     vdW  Elec       q    Type
                         _______ _______ _______ _____ _____    ______ ____

>  <TORSDO>
F 3

$$$$
=
 OpenBabel11042420083D

 30 34  0  0  1  0  0  0  0  0999 V2000
  160.8140  205.5310  150.2590 C   0  0  0  0  0  0  0  0  0  0  0  0
  160.8560  206.8950  153.7420 N   0  0  0  0  0  0  0  0  0  0  0  0
  162.0790  208.8100  149.7180 N   0  0  0  0  0  0  0  0  0  0  0  0
  161.2020  204.3660  152.4080 C   0  0  0  0  0  3  0  0  0  0  0  0
  161.2190  203.1990  151.7460 C   0  0  0  0  0  3  0  0  0  0  0  0
  160.5580  205.5650  151.7550 C   0  0  1  0  0  3  0  0  0  0  0  0
  161.0970  206.6940  149.5440 O   0  0  0  0  0  0  0  0  0  0  0  0
  162.3440  209.8310  150.7160 C   0  0  2  0  0  3  0  0  0  0  0  0
  160.8680  208.1460  151.6010 C   0  0  2  0  0  3  0  0  0  0  0  0
  160.5990  203.1300  150.3720 C   0  0  2  0  0  3  0  0  0  0  0  0
  160.8790  206.8790  152.4350 C   0  0  0  0  0  0  0  0  0  0  0  0
  161.3340  207.8860  150.2160 C   0  0  0  0  0  0  0  0  0  0  0  0
  161.1790  201.9660  149.5950 C   0  0  0  0  0  1  0  0  0  0  0  0
  161.8490  209.2320  152.0340 C   0  0  0  0  0  2  0  0  0  0  0  0
  160.8290  204.3830  149.6460 N   0  0  0  0  0  0  0  0  0  0  0  0
  160.7870  210.1210  156.4460 C   0  0  0  0  0  0  0  0  0  0  0  0
  159.5770  209.5290  156.0780 C   0  0  0  0  0  3  0  0  0  0  0  0
  160.7940  211.0790  157.2610 O   0  0  0  0  0  0  0  0  0  0  0  0
  161.9860  208.6280  155.0430 C   0  0  0  0  0  3  0  0  0  0  0  0
  161.9560  209.6580  155.9300 N   0  0  0  0  0  0  0  0  0  0  0  0
  160.7970  208.0280  154.6190 C   0  0  2  0  0  3  0  0  0  0  0  0
  159.5870  208.4700  155.1690 C   0  0  0  0  0  3  0  0  0  0  0  0
  160.2630  213.4850  149.7730 C   0  0  0  0  0  3  0  0  0  0  0  0
  160.1570  212.9280  151.0480 C   0  0  0  0  0  3  0  0  0  0  0  0
  161.6270  211.1120  150.3890 C   0  0  0  0  0  0  0  0  0  0  0  0
  160.8340  211.7390  151.3670 C   0  0  0  0  0  0  0  0  0  0  0  0
  161.7240  211.6770  149.1070 C   0  0  0  0  0  3  0  0  0  0  0  0
  161.0460  212.8590  148.8010 C   0  0  0  0  0  3  0  0  0  0  0  0
  160.7330  211.1700  152.6430 O   0  0  0  0  0  0  0  0  0  0  0  0
  160.1740  211.8620  153.7520 C   0  0  0  0  0  1  0  0  0  0  0  0
  1  6  1  0  0  0  0
  3 12  2  0  0  0  0
  3  8  1  0  0  0  0
  5  4  2  0  0  0  0
  6  4  1  1  0  0  0
  6 11  1  0  0  0  0
  7 12  1  0  0  0  0
  7  1  1  0  0  0  0
  8 25  1  6  0  0  0
  8 14  1  0  0  0  0
  9 14  1  1  0  0  0
  9 11  1  0  0  0  0
 10 13  1  6  0  0  0
 10  5  1  0  0  0  0
 11  2  2  0  0  0  0
 12  9  1  0  0  0  0
 15  1  2  0  0  0  0
 15 10  1  0  0  0  0
 16 18  2  0  0  0  0
 17 16  1  0  0  0  0
 19 20  2  0  0  0  0
 20 16  1  0  0  0  0
 21  2  1  1  0  0  0
 21 19  1  0  0  0  0
 21 22  1  0  0  0  0
 22 17  2  0  0  0  0
 23 24  1  0  0  0  0
 24 26  2  0  0  0  0
 25 26  1  0  0  0  0
 26 29  1  0  0  0  0
 27 25  2  0  0  0  0
 28 27  1  0  0  0  0
 28 23  2  0  0  0  0
 29 30  1  0  0  0  0
M  END
>  <MODEL>
4

>  <REMARK>
 VINA RESULT:      -6.1      1.053      1.831
  Name = 
  3 active torsions:
  status: ('A' for Active; 'I' for Inactive)
    1  A    between atoms: N_3  and  C_24
    2  A    between atoms: C_15  and  C_17
    3  A    between atoms: C_16  and  O_20
                            x       y       z     vdW  Elec       q    Type
                         _______ _______ _______ _____ _____    ______ ____

>  <TORSDO>
F 3

$$$$
=
 OpenBabel11042420083D

 30 34  0  0  1  0  0  0  0  0999 V2000
  160.9750  206.4950  149.3600 C   0  0  0  0  0  0  0  0  0  0  0  0
  161.1040  207.8530  152.8430 N   0  0  0  0  0  0  0  0  0  0  0  0
  162.0660  209.8280  148.7780 N   0  0  0  0  0  0  0  0  0  0  0  0
  161.5070  205.3450  151.4860 C   0  0  0  0  0  3  0  0  0  0  0  0
  161.5490  204.1810  150.8200 C   0  0  0  0  0  3  0  0  0  0  0  0
  160.7820  206.5150  150.8660 C   0  0  1  0  0  3  0  0  0  0  0  0
  161.1750  207.6700  148.6380 O   0  0  0  0  0  0  0  0  0  0  0  0
  162.3280  210.8590  149.7670 C   0  0  2  0  0  3  0  0  0  0  0  0
  160.9690  209.1070  150.7080 C   0  0  2  0  0  3  0  0  0  0  0  0
  160.8740  204.0860  149.4730 C   0  0  2  0  0  3  0  0  0  0  0  0
  161.0720  207.8410  151.5360 C   0  0  0  0  0  0  0  0  0  0  0  0
  161.3850  208.8710  149.3040 C   0  0  0  0  0  0  0  0  0  0  0  0
  161.4730  202.9510  148.6680 C   0  0  0  0  0  1  0  0  0  0  0  0
  161.9170  210.2360  151.1030 C   0  0  0  0  0  2  0  0  0  0  0  0
  161.0160  205.3500  148.7430 N   0  0  0  0  0  0  0  0  0  0  0  0
  160.8540  211.2760  155.2810 C   0  0  0  0  0  0  0  0  0  0  0  0
  162.0700  210.5950  155.2050 C   0  0  0  0  0  3  0  0  0  0  0  0
  160.7560  212.3080  155.9930 O   0  0  0  0  0  0  0  0  0  0  0  0
  159.8450  209.7150  153.8040 C   0  0  0  0  0  3  0  0  0  0  0  0
  159.7780  210.8290  154.5800 N   0  0  0  0  0  0  0  0  0  0  0  0
  161.0320  208.9800  153.7250 C   0  0  2  0  0  3  0  0  0  0  0  0
  162.1600  209.4490  154.4140 C   0  0  0  0  0  3  0  0  0  0  0  0
  160.0920  214.4510  148.9460 C   0  0  0  0  0  3  0  0  0  0  0  0
  161.0410  213.9910  148.0300 C   0  0  0  0  0  3  0  0  0  0  0  0
  161.5390  212.1070  149.4760 C   0  0  0  0  0  0  0  0  0  0  0  0
  161.7730  212.8190  148.2870 C   0  0  0  0  0  0  0  0  0  0  0  0
  160.5860  212.5790  150.3940 C   0  0  0  0  0  3  0  0  0  0  0  0
  159.8660  213.7450  150.1280 C   0  0  0  0  0  3  0  0  0  0  0  0
  162.7280  212.3510  147.3770 O   0  0  0  0  0  0  0  0  0  0  0  0
  163.0750  213.0570  146.1920 C   0  0  0  0  0  1  0  0  0  0  0  0
  1  6  1  0  0  0  0
  3 12  2  0  0  0  0
  3  8  1  0  0  0  0
  5  4  2  0  0  0  0
  6  4  1  1  0  0  0
  6 11  1  0  0  0  0
  7 12  1  0  0  0  0
  7  1  1  0  0  0  0
  8 25  1  6  0  0  0
  8 14  1  0  0  0  0
  9 14  1  1  0  0  0
  9 11  1  0  0  0  0
 10 13  1  6  0  0  0
 10  5  1  0  0  0  0
 11  2  2  0  0  0  0
 12  9  1  0  0  0  0
 15  1  2  0  0  0  0
 15 10  1  0  0  0  0
 16 18  2  0  0  0  0
 17 16  1  0  0  0  0
 19 20  2  0  0  0  0
 20 16  1  0  0  0  0
 21  2  1  6  0  0  0
 21 19  1  0  0  0  0
 21 22  1  0  0  0  0
 22 17  2  0  0  0  0
 23 28  1  0  0  0  0
 24 26  1  0  0  0  0
 24 23  2  0  0  0  0
 25 27  1  0  0  0  0
 26 25  2  0  0  0  0
 28 27  2  0  0  0  0
 29 26  1  0  0  0  0
 30 29  1  0  0  0  0
M  END
>  <MODEL>
5

>  <REMARK>
 VINA RESULT:      -5.9      1.320      1.553
  Name = 
  3 active torsions:
  status: ('A' for Active; 'I' for Inactive)
    1  A    between atoms: N_3  and  C_24
    2  A    between atoms: C_15  and  C_17
    3  A    between atoms: C_16  and  O_20
                            x       y       z     vdW  Elec       q    Type
                         _______ _______ _______ _____ _____    ______ ____

>  <TORSDO>
F 3

$$$$
=
 OpenBabel11042420083D

 30 34  0  0  1  0  0  0  0  0999 V2000
  161.4930  212.2030  149.4050 C   0  0  0  0  0  0  0  0  0  0  0  0
  158.6990  213.6180  151.4520 N   0  0  0  0  0  0  0  0  0  0  0  0
  161.1040  209.6980  151.8980 N   0  0  0  0  0  0  0  0  0  0  0  0
  159.5710  213.5980  148.7070 C   0  0  0  0  0  3  0  0  0  0  0  0
  160.0970  213.6660  147.4740 C   0  0  0  0  0  3  0  0  0  0  0  0
  160.4670  213.2250  149.8630 C   0  0  1  0  0  3  0  0  0  0  0  0
  161.8690  211.1370  150.2210 O   0  0  0  0  0  0  0  0  0  0  0  0
  160.1410  209.6730  152.9850 C   0  0  2  0  0  3  0  0  0  0  0  0
  160.3670  211.9040  152.1040 C   0  0  2  0  0  3  0  0  0  0  0  0
  161.5640  213.3620  147.2890 C   0  0  2  0  0  3  0  0  0  0  0  0
  159.7170  212.8650  151.1280 C   0  0  0  0  0  0  0  0  0  0  0  0
  161.1790  210.8820  151.3990 C   0  0  0  0  0  0  0  0  0  0  0  0
  161.8360  212.9560  145.8560 C   0  0  0  0  0  1  0  0  0  0  0  0
  159.4110  211.0150  152.8950 C   0  0  0  0  0  2  0  0  0  0  0  0
  161.9810  212.2930  148.2020 N   0  0  0  0  0  0  0  0  0  0  0  0
  156.6040  214.0250  155.0800 C   0  0  0  0  0  0  0  0  0  0  0  0
  157.9310  214.4530  155.0220 C   0  0  0  0  0  3  0  0  0  0  0  0
  155.9520  214.1450  156.1500 O   0  0  0  0  0  0  0  0  0  0  0  0
  156.6870  213.3340  152.8100 C   0  0  0  0  0  3  0  0  0  0  0  0
  156.0130  213.4840  153.9810 N   0  0  0  0  0  0  0  0  0  0  0  0
  158.0290  213.7150  152.7150 C   0  0  2  0  0  3  0  0  0  0  0  0
  158.6400  214.3070  153.8290 C   0  0  0  0  0  3  0  0  0  0  0  0
  162.0690  209.1960  156.8100 C   0  0  0  0  0  3  0  0  0  0  0  0
  161.5800  208.0800  156.1270 C   0  0  0  0  0  3  0  0  0  0  0  0
  160.8230  209.5060  154.3150 C   0  0  0  0  0  0  0  0  0  0  0  0
  160.9530  208.2240  154.8780 C   0  0  0  0  0  0  0  0  0  0  0  0
  161.3130  210.6240  155.0110 C   0  0  0  0  0  3  0  0  0  0  0  0
  161.9340  210.4690  156.2520 C   0  0  0  0  0  3  0  0  0  0  0  0
  160.4580  207.1120  154.1870 O   0  0  0  0  0  0  0  0  0  0  0  0
  161.3000  206.1880  153.5100 C   0  0  0  0  0  1  0  0  0  0  0  0
  1  6  1  0  0  0  0
  1  7  1  0  0  0  0
  3  8  1  0  0  0  0
  5  4  2  0  0  0  0
  6  4  1  6  0  0  0
  6 11  1  0  0  0  0
  7 12  1  0  0  0  0
  8 25  1  1  0  0  0
  9 14  1  6  0  0  0
 10 13  1  6  0  0  0
 10  5  1  0  0  0  0
 10 15  1  0  0  0  0
 11  2  2  0  0  0  0
 11  9  1  0  0  0  0
 12  3  2  0  0  0  0
 12  9  1  0  0  0  0
 14  8  1  0  0  0  0
 15  1  2  0  0  0  0
 16 18  2  0  0  0  0
 17 16  1  0  0  0  0
 19 20  2  0  0  0  0
 20 16  1  0  0  0  0
 21  2  1  6  0  0  0
 21 19  1  0  0  0  0
 21 22  1  0  0  0  0
 22 17  2  0  0  0  0
 24 23  2  0  0  0  0
 25 26  2  0  0  0  0
 25 27  1  0  0  0  0
 26 24  1  0  0  0  0
 27 28  2  0  0  0  0
 28 23  1  0  0  0  0
 29 26  1  0  0  0  0
 30 29  1  0  0  0  0
M  END
>  <MODEL>
6

>  <REMARK>
 VINA RESULT:      -5.9      3.118      7.055
  Name = 
  3 active torsions:
  status: ('A' for Active; 'I' for Inactive)
    1  A    between atoms: N_3  and  C_24
    2  A    between atoms: C_15  and  C_17
    3  A    between atoms: C_16  and  O_20
                            x       y       z     vdW  Elec       q    Type
                         _______ _______ _______ _____ _____    ______ ____

>  <TORSDO>
F 3

$$$$
=
 OpenBabel11042420083D

 30 34  0  0  1  0  0  0  0  0999 V2000
  161.0160  206.1290  147.8560 C   0  0  0  0  0  0  0  0  0  0  0  0
  161.1320  206.1540  151.5960 N   0  0  0  0  0  0  0  0  0  0  0  0
  162.1410  209.4380  148.5050 N   0  0  0  0  0  0  0  0  0  0  0  0
  161.5230  204.2910  149.4350 C   0  0  0  0  0  3  0  0  0  0  0  0
  161.5590  203.4400  148.3980 C   0  0  0  0  0  3  0  0  0  0  0  0
  160.8120  205.6120  149.2700 C   0  0  1  0  0  3  0  0  0  0  0  0
  161.2310  207.4820  147.6020 O   0  0  0  0  0  0  0  0  0  0  0  0
  162.4040  210.0460  149.7970 C   0  0  2  0  0  3  0  0  0  0  0  0
  161.0230  208.0880  150.0470 C   0  0  2  0  0  3  0  0  0  0  0  0
  160.8930  203.8380  147.1030 C   0  0  2  0  0  3  0  0  0  0  0  0
  161.1090  206.6090  150.3700 C   0  0  0  0  0  0  0  0  0  0  0  0
  161.4480  208.3640  148.6530 C   0  0  0  0  0  0  0  0  0  0  0  0
  161.4870  203.0590  145.9490 C   0  0  0  0  0  1  0  0  0  0  0  0
  161.9780  208.9920  150.8220 C   0  0  0  0  0  2  0  0  0  0  0  0
  161.0510  205.2780  146.8720 N   0  0  0  0  0  0  0  0  0  0  0  0
  160.7930  208.2060  155.2560 C   0  0  0  0  0  0  0  0  0  0  0  0
  160.4940  208.8890  154.0760 C   0  0  0  0  0  3  0  0  0  0  0  0
  160.6890  208.7940  156.3640 O   0  0  0  0  0  0  0  0  0  0  0  0
  161.3180  206.2410  154.0310 C   0  0  0  0  0  3  0  0  0  0  0  0
  161.1900  206.9070  155.2100 N   0  0  0  0  0  0  0  0  0  0  0  0
  161.0640  206.8940  152.8220 C   0  0  2  0  0  3  0  0  0  0  0  0
  160.6200  208.2230  152.8550 C   0  0  0  0  0  3  0  0  0  0  0  0
  160.2100  213.7220  150.2950 C   0  0  0  0  0  3  0  0  0  0  0  0
  160.9150  213.4810  149.1140 C   0  0  0  0  0  3  0  0  0  0  0  0
  161.6300  211.3240  149.9680 C   0  0  0  0  0  0  0  0  0  0  0  0
  161.6310  212.2840  148.9400 C   0  0  0  0  0  0  0  0  0  0  0  0
  160.9220  211.5770  151.1540 C   0  0  0  0  0  3  0  0  0  0  0  0
  160.2140  212.7700  151.3160 C   0  0  0  0  0  3  0  0  0  0  0  0
  162.3430  212.0340  147.7610 O   0  0  0  0  0  0  0  0  0  0  0  0
  162.7570  213.0670  146.8770 C   0  0  0  0  0  1  0  0  0  0  0  0
  1  6  1  0  0  0  0
  3 12  2  0  0  0  0
  3  8  1  0  0  0  0
  5  4  2  0  0  0  0
  6  4  1  1  0  0  0
  6 11  1  0  0  0  0
  7  1  1  0  0  0  0
  7 12  1  0  0  0  0
  8 25  1  1  0  0  0
  8 14  1  0  0  0  0
  9 11  1  0  0  0  0
  9 14  1  1  0  0  0
 10 13  1  6  0  0  0
 10  5  1  0  0  0  0
 11  2  2  0  0  0  0
 12  9  1  0  0  0  0
 15 10  1  0  0  0  0
 15  1  2  0  0  0  0
 16 18  2  0  0  0  0
 17 16  1  0  0  0  0
 19 20  2  0  0  0  0
 20 16  1  0  0  0  0
 21  2  1  1  0  0  0
 21 22  1  0  0  0  0
 21 19  1  0  0  0  0
 22 17  2  0  0  0  0
 23 28  1  0  0  0  0
 24 23  2  0  0  0  0
 25 27  1  0  0  0  0
 26 24  1  0  0  0  0
 26 25  2  0  0  0  0
 27 28  2  0  0  0  0
 29 26  1  0  0  0  0
 30 29  1  0  0  0  0
M  END
>  <MODEL>
7

>  <REMARK>
 VINA RESULT:      -5.8      1.599      2.036
  Name = 
  3 active torsions:
  status: ('A' for Active; 'I' for Inactive)
    1  A    between atoms: N_3  and  C_24
    2  A    between atoms: C_15  and  C_17
    3  A    between atoms: C_16  and  O_20
                            x       y       z     vdW  Elec       q    Type
                         _______ _______ _______ _____ _____    ______ ____

>  <TORSDO>
F 3

$$$$
=
 OpenBabel11042420083D

 30 34  0  0  1  0  0  0  0  0999 V2000
  162.2420  209.9100  148.7790 C   0  0  0  0  0  0  0  0  0  0  0  0
  161.1280  209.7260  152.3460 N   0  0  0  0  0  0  0  0  0  0  0  0
  160.7440  206.6870  148.8860 N   0  0  0  0  0  0  0  0  0  0  0  0
  161.4680  211.7120  150.2890 C   0  0  0  0  0  3  0  0  0  0  0  0
  161.7730  212.6090  149.3380 C   0  0  0  0  0  3  0  0  0  0  0  0
  162.0980  210.3410  150.2280 C   0  0  1  0  0  3  0  0  0  0  0  0
  162.0040  208.5940  148.3870 O   0  0  0  0  0  0  0  0  0  0  0  0
  160.1010  206.0480  150.0200 C   0  0  2  0  0  3  0  0  0  0  0  0
  161.5050  207.8620  150.7550 C   0  0  2  0  0  3  0  0  0  0  0  0
  162.7300  212.2120  148.2410 C   0  0  2  0  0  3  0  0  0  0  0  0
  161.4450  209.3260  151.1420 C   0  0  0  0  0  0  0  0  0  0  0  0
  161.4500  207.6880  149.2820 C   0  0  0  0  0  0  0  0  0  0  0  0
  162.5260  213.0920  147.0260 C   0  0  0  0  0  1  0  0  0  0  0  0
  160.3130  207.0120  151.1880 C   0  0  0  0  0  2  0  0  0  0  0  0
  162.5340  210.8040  147.8800 N   0  0  0  0  0  0  0  0  0  0  0  0
  160.2960  207.5090  155.8270 C   0  0  0  0  0  0  0  0  0  0  0  0
  161.0450  206.9080  154.8140 C   0  0  0  0  0  3  0  0  0  0  0  0
  160.0440  206.8720  156.8820 O   0  0  0  0  0  0  0  0  0  0  0  0
  160.0960  209.5010  154.5500 C   0  0  0  0  0  3  0  0  0  0  0  0
  159.8460  208.7830  155.6780 N   0  0  0  0  0  0  0  0  0  0  0  0
  160.8110  208.9280  153.4940 C   0  0  2  0  0  3  0  0  0  0  0  0
  161.3120  207.6280  153.6480 C   0  0  0  0  0  3  0  0  0  0  0  0
  161.8050  202.1720  150.8260 C   0  0  0  0  0  3  0  0  0  0  0  0
  161.5670  202.5730  149.5100 C   0  0  0  0  0  3  0  0  0  0  0  0
  160.7050  204.6990  150.3010 C   0  0  0  0  0  0  0  0  0  0  0  0
  161.0140  203.8350  149.2360 C   0  0  0  0  0  0  0  0  0  0  0  0
  160.9440  204.2860  151.6230 C   0  0  0  0  0  3  0  0  0  0  0  0
  161.4930  203.0290  151.8830 C   0  0  0  0  0  3  0  0  0  0  0  0
  160.7690  204.2460  147.9200 O   0  0  0  0  0  0  0  0  0  0  0  0
  161.6360  203.9270  146.8390 C   0  0  0  0  0  1  0  0  0  0  0  0
  1  6  1  0  0  0  0
  3 12  2  0  0  0  0
  3  8  1  0  0  0  0
  5  4  2  0  0  0  0
  6  4  1  6  0  0  0
  6 11  1  0  0  0  0
  7  1  1  0  0  0  0
  7 12  1  0  0  0  0
  8 25  1  1  0  0  0
  8 14  1  0  0  0  0
  9 11  1  0  0  0  0
  9 14  1  1  0  0  0
 10 13  1  6  0  0  0
 10  5  1  0  0  0  0
 11  2  2  0  0  0  0
 12  9  1  0  0  0  0
 15 10  1  0  0  0  0
 15  1  2  0  0  0  0
 16 18  2  0  0  0  0
 17 16  1  0  0  0  0
 19 20  2  0  0  0  0
 20 16  1  0  0  0  0
 21  2  1  1  0  0  0
 21 22  1  0  0  0  0
 21 19  1  0  0  0  0
 22 17  2  0  0  0  0
 23 28  1  0  0  0  0
 24 23  2  0  0  0  0
 25 27  1  0  0  0  0
 26 24  1  0  0  0  0
 26 25  2  0  0  0  0
 27 28  2  0  0  0  0
 29 26  1  0  0  0  0
 30 29  1  0  0  0  0
M  END
>  <MODEL>
8

>  <REMARK>
 VINA RESULT:      -5.7      1.775      6.372
  Name = 
  3 active torsions:
  status: ('A' for Active; 'I' for Inactive)
    1  A    between atoms: N_3  and  C_24
    2  A    between atoms: C_15  and  C_17
    3  A    between atoms: C_16  and  O_20
                            x       y       z     vdW  Elec       q    Type
                         _______ _______ _______ _____ _____    ______ ____

>  <TORSDO>
F 3

$$$$
=
 OpenBabel11042420083D

 30 34  0  0  1  0  0  0  0  0999 V2000
  158.9230  211.7970  154.2840 C   0  0  0  0  0  0  0  0  0  0  0  0
  159.6420  213.5710  151.0700 N   0  0  0  0  0  0  0  0  0  0  0  0
  161.3470  209.6480  152.8190 N   0  0  0  0  0  0  0  0  0  0  0  0
  158.9140  214.2200  153.7800 C   0  0  0  0  0  3  0  0  0  0  0  0
  158.4450  214.4530  155.0150 C   0  0  0  0  0  3  0  0  0  0  0  0
  158.7640  212.8380  153.1910 C   0  0  1  0  0  3  0  0  0  0  0  0
  159.6080  210.6050  154.0570 O   0  0  0  0  0  0  0  0  0  0  0  0
  162.0330  209.8230  151.5510 C   0  0  2  0  0  3  0  0  0  0  0  0
  160.0530  211.1930  151.6390 C   0  0  2  0  0  3  0  0  0  0  0  0
  157.7900  213.3230  155.7720 C   0  0  2  0  0  3  0  0  0  0  0  0
  159.6020  212.6060  151.9510 C   0  0  0  0  0  0  0  0  0  0  0  0
  160.3210  210.4230  152.8790 C   0  0  0  0  0  0  0  0  0  0  0  0
  157.8340  213.5970  157.2610 C   0  0  0  0  0  1  0  0  0  0  0  0
  161.3980  211.0680  150.9290 C   0  0  0  0  0  2  0  0  0  0  0  0
  158.4610  212.0540  155.4740 N   0  0  0  0  0  0  0  0  0  0  0  0
  160.9050  213.5880  147.0540 C   0  0  0  0  0  0  0  0  0  0  0  0
  159.6440  213.0720  147.3570 C   0  0  0  0  0  3  0  0  0  0  0  0
  161.3020  213.6150  145.8600 O   0  0  0  0  0  0  0  0  0  0  0  0
  161.3080  214.0510  149.3480 C   0  0  0  0  0  3  0  0  0  0  0  0
  161.7010  214.0690  148.0460 N   0  0  0  0  0  0  0  0  0  0  0  0
  160.0690  213.5110  149.7030 C   0  0  2  0  0  3  0  0  0  0  0  0
  159.2220  213.0450  148.6870 C   0  0  0  0  0  3  0  0  0  0  0  0
  161.5720  206.3650  149.0190 C   0  0  0  0  0  3  0  0  0  0  0  0
  161.6500  206.2140  150.4050 C   0  0  0  0  0  3  0  0  0  0  0  0
  161.8610  208.6170  150.6670 C   0  0  0  0  0  0  0  0  0  0  0  0
  161.7970  207.3340  151.2390 C   0  0  0  0  0  0  0  0  0  0  0  0
  161.7870  208.7600  149.2720 C   0  0  0  0  0  3  0  0  0  0  0  0
  161.6410  207.6390  148.4520 C   0  0  0  0  0  3  0  0  0  0  0  0
  161.8780  207.1930  152.6300 O   0  0  0  0  0  0  0  0  0  0  0  0
  161.3560  206.0660  153.3220 C   0  0  0  0  0  1  0  0  0  0  0  0
  1 15  2  0  0  0  0
  2 11  2  0  0  0  0
  3 12  2  0  0  0  0
  4  5  2  0  0  0  0
  5 10  1  0  0  0  0
  6  4  1  1  0  0  0
  6  1  1  0  0  0  0
  7  1  1  0  0  0  0
  8 25  1  6  0  0  0
  8  3  1  0  0  0  0
  9 14  1  6  0  0  0
  9 11  1  0  0  0  0
  9 12  1  0  0  0  0
 10 13  1  1  0  0  0
 11  6  1  0  0  0  0
 12  7  1  0  0  0  0
 14  8  1  0  0  0  0
 15 10  1  0  0  0  0
 16 17  1  0  0  0  0
 16 20  1  0  0  0  0
 17 22  2  0  0  0  0
 18 16  2  0  0  0  0
 19 21  1  0  0  0  0
 20 19  2  0  0  0  0
 21  2  1  6  0  0  0
 22 21  1  0  0  0  0
 23 24  1  0  0  0  0
 24 26  2  0  0  0  0
 25 26  1  0  0  0  0
 26 29  1  0  0  0  0
 27 25  2  0  0  0  0
 28 23  2  0  0  0  0
 28 27  1  0  0  0  0
 29 30  1  0  0  0  0
M  END
>  <MODEL>
9

>  <REMARK>
 VINA RESULT:      -5.5      2.766      7.864
  Name = 
  3 active torsions:
  status: ('A' for Active; 'I' for Inactive)
    1  A    between atoms: N_3  and  C_24
    2  A    between atoms: C_15  and  C_17
    3  A    between atoms: C_16  and  O_20
                            x       y       z     vdW  Elec       q    Type
                         _______ _______ _______ _____ _____    ______ ____

>  <TORSDO>
F 3

$$$$
