=
 OpenBabel11052411143D

 26 30  0  0  0  0  0  0  0  0999 V2000
  161.7340  208.8020  150.5280 C   0  0  0  0  0  0  0  0  0  0  0  0
  160.3200  208.1050  157.2610 C   0  0  0  0  0  3  0  0  0  0  0  0
  162.1880  210.0230  148.5090 N   0  0  0  0  0  0  0  0  0  0  0  0
  160.7190  209.7550  155.5780 C   0  0  0  0  0  3  0  0  0  0  0  0
  160.4810  207.0620  156.3350 C   0  0  0  0  0  3  0  0  0  0  0  0
  161.1700  208.8890  153.2710 C   0  0  0  0  0  0  0  0  0  0  0  0
  160.8830  208.7430  154.6320 C   0  0  0  0  0  0  0  0  0  0  0  0
  161.5510  207.5790  151.2400 C   0  0  0  0  0  0  0  0  0  0  0  0
  161.3470  210.0880  152.5860 C   0  0  0  0  0  3  0  0  0  0  0  0
  161.8090  211.2450  150.5240 C   0  0  0  0  0  3  0  0  0  0  0  0
  160.4410  209.4090  156.8680 N   0  0  0  0  0  0  0  0  0  0  0  0
  160.7640  207.4180  155.0210 C   0  0  0  0  0  0  0  0  0  0  0  0
  161.0070  206.4010  153.6980 S   0  0  0  0  0  0  0  0  0  0  0  0
  161.6290  210.0470  151.2160 C   0  0  0  0  0  0  0  0  0  0  0  0
  162.0200  208.8390  149.1560 C   0  0  0  0  0  3  0  0  0  0  0  0
  162.0890  211.2120  149.1590 C   0  0  0  0  0  3  0  0  0  0  0  0
  161.2710  207.6690  152.6070 C   0  0  0  0  0  0  0  0  0  0  0  0
  160.6700  205.6390  150.0540 C   0  0  0  0  0  3  0  0  0  0  0  0
  161.6330  206.2670  150.6520 N   0  0  0  0  0  0  0  0  0  0  0  0
  161.4370  202.8300  147.6540 C   0  0  0  0  0  3  0  0  0  0  0  0
  161.2110  201.7340  148.4900 C   0  0  0  0  0  0  0  0  0  0  0  0
  160.8640  204.3020  149.4890 C   0  0  0  0  0  0  0  0  0  0  0  0
  161.2620  204.1180  148.1580 C   0  0  0  0  0  3  0  0  0  0  0  0
  160.6500  203.1780  150.2900 C   0  0  0  0  0  3  0  0  0  0  0  0
  160.8260  201.9300  149.7810 N   0  0  0  0  0  0  0  0  0  0  0  0
  161.4260  200.1090  147.8790 Cl  0  0  0  0  0  0  0  0  0  0  0  0
  1 14  2  0  0  0  0
  1  8  1  0  0  0  0
  3 15  2  0  0  0  0
  3 16  1  0  0  0  0
  4 11  2  0  0  0  0
  5  2  2  0  0  0  0
  6  7  1  0  0  0  0
  7 12  2  0  0  0  0
  7  4  1  0  0  0  0
  8 17  2  0  0  0  0
  9  6  2  0  0  0  0
 10 14  1  0  0  0  0
 11  2  1  0  0  0  0
 12  5  1  0  0  0  0
 13 12  1  0  0  0  0
 14  9  1  0  0  0  0
 15  1  1  0  0  0  0
 16 10  2  0  0  0  0
 17  6  1  0  0  0  0
 17 13  1  0  0  0  0
 18 19  2  0  0  0  0
 19  8  1  0  0  0  0
 20 23  2  0  0  0  0
 20 21  1  0  0  0  0
 21 25  2  0  0  0  0
 22 18  1  0  0  0  0
 22 24  2  0  0  0  0
 23 22  1  0  0  0  0
 25 24  1  0  0  0  0
 26 21  1  0  0  0  0
M  END
>  <MODEL>
1

>  <REMARK>
 VINA RESULT:      -9.3      0.000      0.000
  Name = 
  2 active torsions:
  status: ('A' for Active; 'I' for Inactive)
    1  A    between atoms: C_3  and  C_9
    2  A    between atoms: N_6  and  C_14
                            x       y       z     vdW  Elec       q    Type
                         _______ _______ _______ _____ _____    ______ ____

>  <TORSDO>
F 2

$$$$
=
 OpenBabel11052411143D

 26 30  0  0  0  0  0  0  0  0999 V2000
  161.4430  208.2660  151.5890 C   0  0  0  0  0  0  0  0  0  0  0  0
  161.0310  202.2910  148.1330 C   0  0  0  0  0  3  0  0  0  0  0  0
  161.3970  209.6640  153.5430 N   0  0  0  0  0  0  0  0  0  0  0  0
  160.8890  203.2110  150.3350 C   0  0  0  0  0  3  0  0  0  0  0  0
  161.2780  203.5560  147.5760 C   0  0  0  0  0  3  0  0  0  0  0  0
  161.2140  205.6870  150.5170 C   0  0  0  0  0  0  0  0  0  0  0  0
  161.1310  204.4810  149.8140 C   0  0  0  0  0  0  0  0  0  0  0  0
  161.5910  208.0810  150.1820 C   0  0  0  0  0  0  0  0  0  0  0  0
  161.0680  205.8570  151.8920 C   0  0  0  0  0  3  0  0  0  0  0  0
  161.0370  207.3190  153.8050 C   0  0  0  0  0  3  0  0  0  0  0  0
  160.8460  202.1480  149.4800 N   0  0  0  0  0  0  0  0  0  0  0  0
  161.3220  204.6360  148.4500 C   0  0  0  0  0  0  0  0  0  0  0  0
  161.5950  206.2590  148.0830 S   0  0  0  0  0  0  0  0  0  0  0  0
  161.1820  207.1430  152.4300 C   0  0  0  0  0  0  0  0  0  0  0  0
  161.5450  209.5250  152.1990 C   0  0  0  0  0  3  0  0  0  0  0  0
  161.1490  208.5980  154.3490 C   0  0  0  0  0  3  0  0  0  0  0  0
  161.4690  206.7780  149.6900 C   0  0  0  0  0  0  0  0  0  0  0  0
  161.6290  210.4000  149.4280 C   0  0  0  0  0  3  0  0  0  0  0  0
  161.8560  209.1380  149.2400 N   0  0  0  0  0  0  0  0  0  0  0  0
  163.4700  212.9060  147.2900 C   0  0  0  0  0  3  0  0  0  0  0  0
  162.4440  213.2720  146.4160 C   0  0  0  0  0  0  0  0  0  0  0  0
  161.9380  211.3940  148.3970 C   0  0  0  0  0  0  0  0  0  0  0  0
  163.2130  211.9620  148.2840 C   0  0  0  0  0  3  0  0  0  0  0  0
  160.9410  211.7880  147.5020 C   0  0  0  0  0  3  0  0  0  0  0  0
  161.2110  212.7100  146.5390 N   0  0  0  0  0  0  0  0  0  0  0  0
  162.7450  214.4530  145.1610 Cl  0  0  0  0  0  0  0  0  0  0  0  0
  1 15  1  0  0  0  0
  1 14  1  0  0  0  0
  2 11  1  0  0  0  0
  3 16  1  0  0  0  0
  5  2  2  0  0  0  0
  5 12  1  0  0  0  0
  6  9  1  0  0  0  0
  7  4  1  0  0  0  0
  7  6  1  0  0  0  0
  8  1  2  0  0  0  0
  9 14  2  0  0  0  0
 10 16  2  0  0  0  0
 11  4  2  0  0  0  0
 12  7  2  0  0  0  0
 13 12  1  0  0  0  0
 13 17  1  0  0  0  0
 14 10  1  0  0  0  0
 15  3  2  0  0  0  0
 17  8  1  0  0  0  0
 17  6  2  0  0  0  0
 19 18  2  0  0  0  0
 19  8  1  0  0  0  0
 20 23  1  0  0  0  0
 21 25  1  0  0  0  0
 21 20  2  0  0  0  0
 22 18  1  0  0  0  0
 23 22  2  0  0  0  0
 24 22  1  0  0  0  0
 25 24  2  0  0  0  0
 26 21  1  0  0  0  0
M  END
>  <MODEL>
2

>  <REMARK>
 VINA RESULT:      -8.6      3.469      7.561
  Name = 
  2 active torsions:
  status: ('A' for Active; 'I' for Inactive)
    1  A    between atoms: C_3  and  C_9
    2  A    between atoms: N_6  and  C_14
                            x       y       z     vdW  Elec       q    Type
                         _______ _______ _______ _____ _____    ______ ____

>  <TORSDO>
F 2

$$$$
=
 OpenBabel11052411143D

 26 30  0  0  0  0  0  0  0  0999 V2000
  161.3590  206.8280  150.8480 C   0  0  0  0  0  0  0  0  0  0  0  0
  161.0490  201.8880  146.0190 C   0  0  0  0  0  3  0  0  0  0  0  0
  161.3650  207.6890  153.0910 N   0  0  0  0  0  0  0  0  0  0  0  0
  161.0000  202.2180  148.3860 C   0  0  0  0  0  3  0  0  0  0  0  0
  161.1890  203.2650  145.7880 C   0  0  0  0  0  3  0  0  0  0  0  0
  161.2010  204.5880  149.1720 C   0  0  0  0  0  0  0  0  0  0  0  0
  161.1390  203.5920  148.1920 C   0  0  0  0  0  0  0  0  0  0  0  0
  161.4260  207.0100  149.4340 C   0  0  0  0  0  0  0  0  0  0  0  0
  161.1350  204.4000  150.5500 C   0  0  0  0  0  3  0  0  0  0  0  0
  161.1500  205.3340  152.7700 C   0  0  0  0  0  3  0  0  0  0  0  0
  160.9580  201.4020  147.2950 N   0  0  0  0  0  0  0  0  0  0  0  0
  161.2310  204.0950  146.9030 C   0  0  0  0  0  0  0  0  0  0  0  0
  161.3920  205.7730  146.9450 S   0  0  0  0  0  0  0  0  0  0  0  0
  161.2150  205.5170  151.3890 C   0  0  0  0  0  0  0  0  0  0  0  0
  161.4320  207.8990  151.7500 C   0  0  0  0  0  3  0  0  0  0  0  0
  161.2270  206.4420  153.6120 C   0  0  0  0  0  3  0  0  0  0  0  0
  161.3430  205.8660  148.6360 C   0  0  0  0  0  0  0  0  0  0  0  0
  161.9370  209.3930  149.3390 C   0  0  0  0  0  3  0  0  0  0  0  0
  161.5710  208.2840  148.7770 N   0  0  0  0  0  0  0  0  0  0  0  0
  163.2870  212.5980  147.8730 C   0  0  0  0  0  3  0  0  0  0  0  0
  162.1950  212.9800  147.0920 C   0  0  0  0  0  0  0  0  0  0  0  0
  162.0530  210.6360  148.5730 C   0  0  0  0  0  0  0  0  0  0  0  0
  163.2130  211.4200  148.6170 C   0  0  0  0  0  3  0  0  0  0  0  0
  160.9840  211.0550  147.7770 C   0  0  0  0  0  3  0  0  0  0  0  0
  161.0760  212.2070  147.0600 N   0  0  0  0  0  0  0  0  0  0  0  0
  162.2660  214.4530  146.1510 Cl  0  0  0  0  0  0  0  0  0  0  0  0
  1 14  1  0  0  0  0
  1 15  1  0  0  0  0
  2 11  1  0  0  0  0
  3 16  1  0  0  0  0
  5  2  2  0  0  0  0
  5 12  1  0  0  0  0
  6  9  1  0  0  0  0
  7  4  1  0  0  0  0
  7  6  1  0  0  0  0
  8  1  2  0  0  0  0
  9 14  2  0  0  0  0
 10 16  2  0  0  0  0
 11  4  2  0  0  0  0
 12 13  1  0  0  0  0
 12  7  2  0  0  0  0
 13 17  1  0  0  0  0
 14 10  1  0  0  0  0
 15  3  2  0  0  0  0
 17  6  2  0  0  0  0
 17  8  1  0  0  0  0
 19 18  2  0  0  0  0
 19  8  1  0  0  0  0
 20 23  1  0  0  0  0
 21 20  2  0  0  0  0
 22 23  2  0  0  0  0
 22 18  1  0  0  0  0
 24 22  1  0  0  0  0
 25 21  1  0  0  0  0
 25 24  2  0  0  0  0
 26 21  1  0  0  0  0
M  END
>  <MODEL>
3

>  <REMARK>
 VINA RESULT:      -8.6      3.762      8.154
  Name = 
  2 active torsions:
  status: ('A' for Active; 'I' for Inactive)
    1  A    between atoms: C_3  and  C_9
    2  A    between atoms: N_6  and  C_14
                            x       y       z     vdW  Elec       q    Type
                         _______ _______ _______ _____ _____    ______ ____

>  <TORSDO>
F 2

$$$$
=
 OpenBabel11052411143D

 26 30  0  0  0  0  0  0  0  0999 V2000
  161.4460  206.4970  149.5100 C   0  0  0  0  0  0  0  0  0  0  0  0
  160.9310  208.9800  155.9430 C   0  0  0  0  0  3  0  0  0  0  0  0
  161.4470  204.7820  147.8270 N   0  0  0  0  0  0  0  0  0  0  0  0
  160.8350  206.9440  154.6930 C   0  0  0  0  0  3  0  0  0  0  0  0
  161.1740  209.7290  154.7820 C   0  0  0  0  0  3  0  0  0  0  0  0
  161.1790  207.1530  152.2210 C   0  0  0  0  0  0  0  0  0  0  0  0
  161.0760  207.6590  153.5200 C   0  0  0  0  0  0  0  0  0  0  0  0
  161.5650  207.8610  149.9110 C   0  0  0  0  0  0  0  0  0  0  0  0
  161.0610  205.8190  151.8400 C   0  0  0  0  0  3  0  0  0  0  0  0
  161.0750  204.1540  150.0990 C   0  0  0  0  0  3  0  0  0  0  0  0
  160.7690  207.6230  155.8740 N   0  0  0  0  0  0  0  0  0  0  0  0
  161.2410  209.0350  153.5800 C   0  0  0  0  0  0  0  0  0  0  0  0
  161.5180  209.6530  152.0360 S   0  0  0  0  0  0  0  0  0  0  0  0
  161.1930  205.4880  150.4870 C   0  0  0  0  0  0  0  0  0  0  0  0
  161.5660  206.0910  148.1730 C   0  0  0  0  0  3  0  0  0  0  0  0
  161.2060  203.8170  148.7530 C   0  0  0  0  0  3  0  0  0  0  0  0
  161.4250  208.1430  151.2730 C   0  0  0  0  0  0  0  0  0  0  0  0
  161.6050  210.2130  149.2690 C   0  0  0  0  0  3  0  0  0  0  0  0
  161.8190  208.9600  149.0150 N   0  0  0  0  0  0  0  0  0  0  0  0
  163.4030  212.8560  147.2630 C   0  0  0  0  0  3  0  0  0  0  0  0
  162.3840  213.2180  146.3790 C   0  0  0  0  0  0  0  0  0  0  0  0
  161.9010  211.2530  148.2810 C   0  0  0  0  0  0  0  0  0  0  0  0
  163.1580  211.8690  148.2170 C   0  0  0  0  0  3  0  0  0  0  0  0
  160.9100  211.6450  147.3770 C   0  0  0  0  0  3  0  0  0  0  0  0
  161.1690  212.6090  146.4540 N   0  0  0  0  0  0  0  0  0  0  0  0
  162.6700  214.4530  145.1740 Cl  0  0  0  0  0  0  0  0  0  0  0  0
  1  8  2  0  0  0  0
  1 14  1  0  0  0  0
  3 15  2  0  0  0  0
  3 16  1  0  0  0  0
  4 11  2  0  0  0  0
  5  2  2  0  0  0  0
  6  7  1  0  0  0  0
  7 12  2  0  0  0  0
  7  4  1  0  0  0  0
  8 17  1  0  0  0  0
  9  6  1  0  0  0  0
 10 14  1  0  0  0  0
 11  2  1  0  0  0  0
 12  5  1  0  0  0  0
 13 12  1  0  0  0  0
 14  9  2  0  0  0  0
 15  1  1  0  0  0  0
 16 10  2  0  0  0  0
 17 13  1  0  0  0  0
 17  6  2  0  0  0  0
 19 18  2  0  0  0  0
 19  8  1  0  0  0  0
 20 23  1  0  0  0  0
 21 25  1  0  0  0  0
 21 20  2  0  0  0  0
 22 18  1  0  0  0  0
 23 22  2  0  0  0  0
 24 22  1  0  0  0  0
 25 24  2  0  0  0  0
 26 21  1  0  0  0  0
M  END
>  <MODEL>
4

>  <REMARK>
 VINA RESULT:      -7.7      3.401      6.369
  Name = 
  2 active torsions:
  status: ('A' for Active; 'I' for Inactive)
    1  A    between atoms: C_3  and  C_9
    2  A    between atoms: N_6  and  C_14
                            x       y       z     vdW  Elec       q    Type
                         _______ _______ _______ _____ _____    ______ ____

>  <TORSDO>
F 2

$$$$
=
 OpenBabel11052411143D

 26 30  0  0  0  0  0  0  0  0999 V2000
  161.2020  207.4430  152.7710 C   0  0  0  0  0  0  0  0  0  0  0  0
  161.9440  212.3690  147.9750 C   0  0  0  0  0  3  0  0  0  0  0  0
  160.8440  206.5950  154.9910 N   0  0  0  0  0  0  0  0  0  0  0  0
  161.5600  212.0550  150.3140 C   0  0  0  0  0  3  0  0  0  0  0  0
  161.9940  210.9840  147.7560 C   0  0  0  0  0  3  0  0  0  0  0  0
  161.4540  209.6800  151.1030 C   0  0  0  0  0  0  0  0  0  0  0  0
  161.6050  210.6730  150.1310 C   0  0  0  0  0  0  0  0  0  0  0  0
  161.4330  207.2490  151.3760 C   0  0  0  0  0  0  0  0  0  0  0  0
  161.2280  209.8800  152.4630 C   0  0  0  0  0  3  0  0  0  0  0  0
  160.8740  208.9580  154.6600 C   0  0  0  0  0  3  0  0  0  0  0  0
  161.7310  212.8670  149.2310 N   0  0  0  0  0  0  0  0  0  0  0  0
  161.8200  210.1590  148.8610 C   0  0  0  0  0  0  0  0  0  0  0  0
  161.8280  208.4730  148.9120 S   0  0  0  0  0  0  0  0  0  0  0  0
  161.1010  208.7640  153.2980 C   0  0  0  0  0  0  0  0  0  0  0  0
  161.0640  206.3740  153.6670 C   0  0  0  0  0  3  0  0  0  0  0  0
  160.7470  207.8520  155.4980 C   0  0  0  0  0  3  0  0  0  0  0  0
  161.5530  208.3930  150.5810 C   0  0  0  0  0  0  0  0  0  0  0  0
  160.5750  205.2570  150.2620 C   0  0  0  0  0  3  0  0  0  0  0  0
  161.5520  205.9650  150.7350 N   0  0  0  0  0  0  0  0  0  0  0  0
  160.8880  201.5390  149.6930 C   0  0  0  0  0  3  0  0  0  0  0  0
  161.2750  201.5360  148.3510 C   0  0  0  0  0  0  0  0  0  0  0  0
  160.8100  203.9580  149.6260 C   0  0  0  0  0  0  0  0  0  0  0  0
  160.6550  202.7580  150.3310 C   0  0  0  0  0  3  0  0  0  0  0  0
  161.1990  203.9090  148.2850 C   0  0  0  0  0  3  0  0  0  0  0  0
  161.4210  202.7120  147.6810 N   0  0  0  0  0  0  0  0  0  0  0  0
  161.5720  200.0200  147.5300 Cl  0  0  0  0  0  0  0  0  0  0  0  0
  1 14  1  0  0  0  0
  1 15  1  0  0  0  0
  2 11  1  0  0  0  0
  3 16  1  0  0  0  0
  5  2  2  0  0  0  0
  5 12  1  0  0  0  0
  6  9  1  0  0  0  0
  7  4  1  0  0  0  0
  7  6  1  0  0  0  0
  8  1  2  0  0  0  0
  9 14  2  0  0  0  0
 10 16  2  0  0  0  0
 11  4  2  0  0  0  0
 12 13  1  0  0  0  0
 12  7  2  0  0  0  0
 13 17  1  0  0  0  0
 14 10  1  0  0  0  0
 15  3  2  0  0  0  0
 17  6  2  0  0  0  0
 17  8  1  0  0  0  0
 18 19  2  0  0  0  0
 19  8  1  0  0  0  0
 20 23  1  0  0  0  0
 21 20  2  0  0  0  0
 22 18  1  0  0  0  0
 22 23  2  0  0  0  0
 24 22  1  0  0  0  0
 25 24  2  0  0  0  0
 25 21  1  0  0  0  0
 26 21  1  0  0  0  0
M  END
>  <MODEL>
5

>  <REMARK>
 VINA RESULT:      -7.7      1.611      4.844
  Name = 
  2 active torsions:
  status: ('A' for Active; 'I' for Inactive)
    1  A    between atoms: C_3  and  C_9
    2  A    between atoms: N_6  and  C_14
                            x       y       z     vdW  Elec       q    Type
                         _______ _______ _______ _____ _____    ______ ____

>  <TORSDO>
F 2

$$$$
=
 OpenBabel11052411143D

 26 30  0  0  0  0  0  0  0  0999 V2000
  160.9900  203.9140  150.5190 C   0  0  0  0  0  0  0  0  0  0  0  0
  161.1590  205.7570  143.8570 C   0  0  0  0  0  3  0  0  0  0  0  0
  161.0630  202.3690  152.3580 N   0  0  0  0  0  0  0  0  0  0  0  0
  161.2990  203.8490  145.2910 C   0  0  0  0  0  3  0  0  0  0  0  0
  160.9960  206.6200  144.9510 C   0  0  0  0  0  3  0  0  0  0  0  0
  161.1050  204.3020  147.7460 C   0  0  0  0  0  0  0  0  0  0  0  0
  161.1380  204.6780  146.4000 C   0  0  0  0  0  0  0  0  0  0  0  0
  160.8670  205.2360  149.9950 C   0  0  0  0  0  0  0  0  0  0  0  0
  161.2260  203.0080  148.2480 C   0  0  0  0  0  3  0  0  0  0  0  0
  161.2910  201.5190  150.1400 C   0  0  0  0  0  3  0  0  0  0  0  0
  161.3050  204.4100  144.0470 N   0  0  0  0  0  0  0  0  0  0  0  0
  160.9900  206.0450  146.2170 C   0  0  0  0  0  0  0  0  0  0  0  0
  160.8150  206.8140  147.7080 S   0  0  0  0  0  0  0  0  0  0  0  0
  161.1690  202.8120  149.6320 C   0  0  0  0  0  0  0  0  0  0  0  0
  160.9430  203.6410  151.8940 C   0  0  0  0  0  3  0  0  0  0  0  0
  161.2340  201.3160  151.5180 C   0  0  0  0  0  3  0  0  0  0  0  0
  160.9300  205.3830  148.6060 C   0  0  0  0  0  0  0  0  0  0  0  0
  161.6050  207.0390  151.4610 C   0  0  0  0  0  3  0  0  0  0  0  0
  160.6830  206.4210  150.7930 N   0  0  0  0  0  0  0  0  0  0  0  0
  160.6610  209.3340  154.3050 C   0  0  0  0  0  3  0  0  0  0  0  0
  160.7550  210.5670  153.6570 C   0  0  0  0  0  0  0  0  0  0  0  0
  161.3060  208.2410  152.2430 C   0  0  0  0  0  0  0  0  0  0  0  0
  160.9380  208.1670  153.5920 C   0  0  0  0  0  3  0  0  0  0  0  0
  161.3890  209.4960  151.6340 C   0  0  0  0  0  3  0  0  0  0  0  0
  161.1150  210.6220  152.3450 N   0  0  0  0  0  0  0  0  0  0  0  0
  160.4130  212.0430  154.5310 Cl  0  0  0  0  0  0  0  0  0  0  0  0
  1 15  2  0  0  0  0
  2 11  2  0  0  0  0
  2  5  1  0  0  0  0
  4  7  2  0  0  0  0
  5 12  2  0  0  0  0
  6  9  2  0  0  0  0
  6 17  1  0  0  0  0
  7  6  1  0  0  0  0
  8  1  1  0  0  0  0
  8 19  1  0  0  0  0
  9 14  1  0  0  0  0
 10 16  1  0  0  0  0
 11  4  1  0  0  0  0
 12  7  1  0  0  0  0
 12 13  1  0  0  0  0
 13 17  1  0  0  0  0
 14 10  2  0  0  0  0
 14  1  1  0  0  0  0
 15  3  1  0  0  0  0
 16  3  2  0  0  0  0
 17  8  2  0  0  0  0
 18 22  1  0  0  0  0
 19 18  2  0  0  0  0
 21 20  1  0  0  0  0
 21 26  1  0  0  0  0
 22 23  1  0  0  0  0
 23 20  2  0  0  0  0
 24 22  2  0  0  0  0
 24 25  1  0  0  0  0
 25 21  2  0  0  0  0
M  END
>  <MODEL>
6

>  <REMARK>
 VINA RESULT:      -7.0      3.732      8.693
  Name = 
  2 active torsions:
  status: ('A' for Active; 'I' for Inactive)
    1  A    between atoms: C_3  and  C_9
    2  A    between atoms: N_6  and  C_14
                            x       y       z     vdW  Elec       q    Type
                         _______ _______ _______ _____ _____    ______ ____

>  <TORSDO>
F 2

$$$$
