=
 OpenBabel11052409283D

 35 36  0  0  1  0  0  0  0  0999 V2000
  162.3110  207.4220  151.5430 C   0  0  1  0  0  3  0  0  0  0  0  0
  162.4700  209.8060  151.6220 O   0  0  0  0  0  0  0  0  0  0  0  0
  161.7580  208.7880  151.8510 C   0  0  0  0  0  0  0  0  0  0  0  0
  160.4960  208.9340  152.4330 O   0  0  0  0  0  0  0  0  0  0  0  0
  160.2320  209.9790  153.3580 C   0  0  0  0  0  2  0  0  0  0  0  0
  156.0250  213.3030  154.0940 C   0  0  0  0  0  3  0  0  0  0  0  0
  159.9350  212.0850  155.5760 N   0  0  0  0  0  1  0  0  0  0  0  0
  157.9130  212.9530  152.5770 C   0  0  0  0  0  0  0  0  0  0  0  0
  159.3570  211.0230  152.7380 C   0  0  0  0  0  3  0  0  0  0  0  0
  158.6930  212.0540  154.8720 C   0  0  0  0  0  0  0  0  0  0  0  0
  156.7770  213.6660  153.0990 N   0  0  0  0  0  0  0  0  0  0  0  0
  157.5420  212.0650  155.5570 C   0  0  0  0  0  0  0  0  0  0  0  0
  156.2320  212.0300  154.8430 C   0  0  0  0  0  2  0  0  0  0  0  0
  158.2540  213.1680  151.3830 O   0  0  0  0  0  0  0  0  0  0  0  0
  158.7080  211.9940  153.3880 C   0  0  0  0  0  0  0  0  0  0  0  0
  157.5240  212.1650  157.0460 C   0  0  0  0  0  1  0  0  0  0  0  0
  161.6300  206.3540  153.7140 C   0  0  0  0  0  1  0  0  0  0  0  0
  161.4740  206.3130  152.2020 C   0  0  2  0  0  3  0  0  0  0  0  0
  161.9080  205.0050  151.7390 N   0  0  0  0  0  2  0  0  0  0  0  0
  160.0530  203.8420  152.5570 O   0  0  0  0  0  0  0  0  0  0  0  0
  161.0960  203.8330  151.8500 C   0  0  0  0  0  0  0  0  0  0  0  0
  161.4890  202.6010  151.1130 C   0  0  0  0  0  2  0  0  0  0  0  0
  160.4170  202.2450  150.0980 C   0  0  0  0  0  2  0  0  0  0  0  0
  161.0380  201.6240  148.8560 C   0  0  0  0  0  2  0  0  0  0  0  0
  161.7090  204.9410  147.1650 C   0  0  0  0  0  3  0  0  0  0  0  0
  161.5650  204.6100  145.8150 C   0  0  0  0  0  3  0  0  0  0  0  0
  161.0220  202.3240  146.4200 C   0  0  0  0  0  0  0  0  0  0  0  0
  161.1820  202.6530  147.7830 C   0  0  0  0  0  0  0  0  0  0  0  0
  161.5210  203.9630  148.1430 C   0  0  0  0  0  3  0  0  0  0  0  0
  161.2230  203.3050  145.4430 C   0  0  0  0  0  3  0  0  0  0  0  0
  160.6810  200.9380  145.9800 C   0  0  0  0  0  2  0  0  0  0  0  0
  159.9560  200.9860  144.7200 N   0  0  0  0  0  1  0  0  0  0  0  0
  162.4150  207.2280  150.0350 C   0  0  0  0  0  2  0  0  0  0  0  0
  161.7000  208.3680  148.2900 C   0  0  0  0  0  1  0  0  0  0  0  0
  161.2500  207.6880  149.4230 O   0  0  0  0  0  0  0  0  0  0  0  0
  1 33  1  6  0  0  0
  1  3  1  0  0  0  0
  1 18  1  0  0  0  0
  2  3  2  0  0  0  0
  3  4  1  0  0  0  0
  4  5  1  0  0  0  0
  6 13  1  0  0  0  0
  8 11  1  0  0  0  0
  8 15  1  0  0  0  0
  9  5  1  0  0  0  0
  9 15  2  0  0  0  0
 10 12  2  0  0  0  0
 10  7  1  0  0  0  0
 11  6  2  0  0  0  0
 12 16  1  0  0  0  0
 13 12  1  0  0  0  0
 14  8  2  0  0  0  0
 15 10  1  0  0  0  0
 18 17  1  1  0  0  0
 19 21  1  0  0  0  0
 19 18  1  0  0  0  0
 21 20  2  0  0  0  0
 22 21  1  0  0  0  0
 23 22  1  0  0  0  0
 24 23  1  0  0  0  0
 25 29  1  0  0  0  0
 26 25  2  0  0  0  0
 27 28  1  0  0  0  0
 28 29  2  0  0  0  0
 28 24  1  0  0  0  0
 30 26  1  0  0  0  0
 30 27  2  0  0  0  0
 31 27  1  0  0  0  0
 32 31  1  0  0  0  0
 34 35  1  0  0  0  0
 35 33  1  0  0  0  0
M  END
>  <MODEL>
1

>  <REMARK>
 VINA RESULT:      -7.6      0.000      0.000
  Name = 
  13 active torsions:
  status: ('A' for Active; 'I' for Inactive)
    1  A    between atoms: O_4  and  C_8
    2  A    between atoms: O_4  and  C_24
    3  A    between atoms: C_5  and  C_11
    4  A    between atoms: N_7  and  C_34
    5  A    between atoms: C_8  and  C_30
    6  A    between atoms: C_14  and  C_24
    7  A    between atoms: C_16  and  C_22
    8  A    between atoms: C_17  and  C_18
    9  A    between atoms: C_17  and  C_19
   10  A    between atoms: C_18  and  C_22
   11  A    between atoms: O_28  and  C_35
   12  A    between atoms: C_30  and  C_34
   13  A    between atoms: C_30  and  C_35
                            x       y       z     vdW  Elec       q    Type
                         _______ _______ _______ _____ _____    ______ ____

>  <TORSDO>
F 13

$$$$
=
 OpenBabel11052409283D

 35 36  0  0  1  0  0  0  0  0999 V2000
  160.7760  213.0460  148.2060 C   0  0  1  0  0  3  0  0  0  0  0  0
  158.7410  213.7760  149.2240 O   0  0  0  0  0  0  0  0  0  0  0  0
  159.9020  213.3120  149.4030 C   0  0  0  0  0  0  0  0  0  0  0  0
  160.3800  213.1020  150.6990 O   0  0  0  0  0  0  0  0  0  0  0  0
  159.5410  212.5710  151.7130 C   0  0  0  0  0  2  0  0  0  0  0  0
  160.8330  209.8300  156.1970 C   0  0  0  0  0  3  0  0  0  0  0  0
  157.6500  211.8670  154.0320 N   0  0  0  0  0  1  0  0  0  0  0  0
  160.4900  209.4770  153.7990 C   0  0  0  0  0  0  0  0  0  0  0  0
  160.1170  211.3060  152.2660 C   0  0  0  0  0  3  0  0  0  0  0  0
  158.9590  211.4620  154.4320 C   0  0  0  0  0  0  0  0  0  0  0  0
  160.7250  209.0600  155.1570 N   0  0  0  0  0  0  0  0  0  0  0  0
  159.3850  211.7290  155.6740 C   0  0  0  0  0  0  0  0  0  0  0  0
  160.7500  211.3170  156.1160 C   0  0  0  0  0  2  0  0  0  0  0  0
  160.8500  208.7080  152.8690 O   0  0  0  0  0  0  0  0  0  0  0  0
  159.8270  210.7610  153.4520 C   0  0  0  0  0  0  0  0  0  0  0  0
  158.5010  212.3970  156.6730 C   0  0  0  0  0  1  0  0  0  0  0  0
  163.2760  212.8890  147.9850 C   0  0  0  0  0  1  0  0  0  0  0  0
  162.0360  212.2520  148.5930 C   0  0  2  0  0  3  0  0  0  0  0  0
  161.9450  210.8850  148.1050 N   0  0  0  0  0  2  0  0  0  0  0  0
  162.3260  209.8740  150.1780 O   0  0  0  0  0  0  0  0  0  0  0  0
  161.9870  209.7480  148.9710 C   0  0  0  0  0  0  0  0  0  0  0  0
  161.6140  208.4090  148.4330 C   0  0  0  0  0  2  0  0  0  0  0  0
  161.4100  207.4350  149.5800 C   0  0  0  0  0  2  0  0  0  0  0  0
  160.7110  206.1740  149.0950 C   0  0  0  0  0  2  0  0  0  0  0  0
  161.0250  204.3400  152.3890 C   0  0  0  0  0  3  0  0  0  0  0  0
  161.1840  203.0180  151.9680 C   0  0  0  0  0  3  0  0  0  0  0  0
  161.0870  203.7300  149.6510 C   0  0  0  0  0  0  0  0  0  0  0  0
  160.9120  205.0640  150.0740 C   0  0  0  0  0  0  0  0  0  0  0  0
  160.8860  205.3570  151.4430 C   0  0  0  0  0  3  0  0  0  0  0  0
  161.2150  202.7130  150.6040 C   0  0  0  0  0  3  0  0  0  0  0  0
  161.1030  203.3590  148.2040 C   0  0  0  0  0  2  0  0  0  0  0  0
  160.9400  201.9210  148.0630 N   0  0  0  0  0  1  0  0  0  0  0  0
  159.9760  212.3360  147.1200 C   0  0  0  0  0  2  0  0  0  0  0  0
  159.2580  212.4270  145.0390 C   0  0  0  0  0  1  0  0  0  0  0  0
  160.2620  212.9080  145.8800 O   0  0  0  0  0  0  0  0  0  0  0  0
  1 33  1  6  0  0  0
  1 18  1  0  0  0  0
  1  3  1  0  0  0  0
  2  3  2  0  0  0  0
  3  4  1  0  0  0  0
  4  5  1  0  0  0  0
  5  9  1  0  0  0  0
  7 10  1  0  0  0  0
  8 11  1  0  0  0  0
  9 15  2  0  0  0  0
 10 12  2  0  0  0  0
 11  6  2  0  0  0  0
 12 13  1  0  0  0  0
 12 16  1  0  0  0  0
 13  6  1  0  0  0  0
 14  8  2  0  0  0  0
 15  8  1  0  0  0  0
 15 10  1  0  0  0  0
 18 17  1  6  0  0  0
 19 18  1  0  0  0  0
 19 21  1  0  0  0  0
 21 20  2  0  0  0  0
 22 21  1  0  0  0  0
 22 23  1  0  0  0  0
 24 23  1  0  0  0  0
 24 28  1  0  0  0  0
 26 25  1  0  0  0  0
 27 28  2  0  0  0  0
 27 30  1  0  0  0  0
 28 29  1  0  0  0  0
 29 25  2  0  0  0  0
 30 26  2  0  0  0  0
 31 27  1  0  0  0  0
 32 31  1  0  0  0  0
 34 35  1  0  0  0  0
 35 33  1  0  0  0  0
M  END
>  <MODEL>
2

>  <REMARK>
 VINA RESULT:      -7.5      2.900      5.172
  Name = 
  13 active torsions:
  status: ('A' for Active; 'I' for Inactive)
    1  A    between atoms: O_4  and  C_8
    2  A    between atoms: O_4  and  C_24
    3  A    between atoms: C_5  and  C_11
    4  A    between atoms: N_7  and  C_34
    5  A    between atoms: C_8  and  C_30
    6  A    between atoms: C_14  and  C_24
    7  A    between atoms: C_16  and  C_22
    8  A    between atoms: C_17  and  C_18
    9  A    between atoms: C_17  and  C_19
   10  A    between atoms: C_18  and  C_22
   11  A    between atoms: O_28  and  C_35
   12  A    between atoms: C_30  and  C_34
   13  A    between atoms: C_30  and  C_35
                            x       y       z     vdW  Elec       q    Type
                         _______ _______ _______ _____ _____    ______ ____

>  <TORSDO>
F 13

$$$$
=
 OpenBabel11052409283D

 35 36  0  0  1  0  0  0  0  0999 V2000
  160.4120  209.5090  154.0820 C   0  0  1  0  0  3  0  0  0  0  0  0
  161.9900  211.0750  154.9600 O   0  0  0  0  0  0  0  0  0  0  0  0
  160.9000  210.9090  154.3420 C   0  0  0  0  0  0  0  0  0  0  0  0
  160.1390  212.0150  153.9560 O   0  0  0  0  0  0  0  0  0  0  0  0
  159.1910  211.9210  152.9040 C   0  0  0  0  0  2  0  0  0  0  0  0
  157.9570  214.1390  148.1240 C   0  0  0  0  0  3  0  0  0  0  0  0
  157.3310  214.3210  152.4290 N   0  0  0  0  0  1  0  0  0  0  0  0
  159.8250  213.9540  149.6950 C   0  0  0  0  0  0  0  0  0  0  0  0
  159.7280  212.5420  151.6530 C   0  0  0  0  0  3  0  0  0  0  0  0
  157.6860  213.8180  151.1410 C   0  0  0  0  0  0  0  0  0  0  0  0
  159.1540  214.4500  148.5220 N   0  0  0  0  0  0  0  0  0  0  0  0
  156.7450  213.6870  150.1980 C   0  0  0  0  0  0  0  0  0  0  0  0
  157.0920  213.1610  148.8440 C   0  0  0  0  0  2  0  0  0  0  0  0
  161.0840  213.9770  149.7150 O   0  0  0  0  0  0  0  0  0  0  0  0
  159.0980  213.4360  150.8830 C   0  0  0  0  0  0  0  0  0  0  0  0
  155.3340  214.1080  150.4420 C   0  0  0  0  0  1  0  0  0  0  0  0
  161.7270  209.4830  151.9390 C   0  0  0  0  0  1  0  0  0  0  0  0
  161.4060  208.7180  153.2140 C   0  0  2  0  0  3  0  0  0  0  0  0
  160.8420  207.4320  152.8380 N   0  0  0  0  0  2  0  0  0  0  0  0
  162.8930  206.3930  152.4170 O   0  0  0  0  0  0  0  0  0  0  0  0
  161.6460  206.2820  152.5610 C   0  0  0  0  0  0  0  0  0  0  0  0
  160.9960  204.9460  152.4560 C   0  0  0  0  0  2  0  0  0  0  0  0
  161.5860  204.1790  151.2850 C   0  0  0  0  0  2  0  0  0  0  0  0
  160.4890  203.7150  150.3400 C   0  0  0  0  0  2  0  0  0  0  0  0
  161.6150  202.8030  146.8450 C   0  0  0  0  0  3  0  0  0  0  0  0
  161.6830  204.0550  146.2290 C   0  0  0  0  0  3  0  0  0  0  0  0
  161.0190  205.1260  148.3020 C   0  0  0  0  0  0  0  0  0  0  0  0
  160.9350  203.8610  148.9220 C   0  0  0  0  0  0  0  0  0  0  0  0
  161.2390  202.7090  148.1860 C   0  0  0  0  0  3  0  0  0  0  0  0
  161.3860  205.2130  146.9540 C   0  0  0  0  0  3  0  0  0  0  0  0
  160.6870  206.3840  149.0340 C   0  0  0  0  0  2  0  0  0  0  0  0
  161.8620  207.2400  149.1010 N   0  0  0  0  0  1  0  0  0  0  0  0
  160.1300  208.7990  155.4010 C   0  0  0  0  0  2  0  0  0  0  0  0
  160.9670  207.8340  157.1970 C   0  0  0  0  0  1  0  0  0  0  0  0
  161.3230  208.3110  155.9340 O   0  0  0  0  0  0  0  0  0  0  0  0
  1  3  1  0  0  0  0
  1 33  1  1  0  0  0
  3  2  2  0  0  0  0
  4  3  1  0  0  0  0
  5  4  1  0  0  0  0
  6 11  2  0  0  0  0
  6 13  1  0  0  0  0
  8 14  2  0  0  0  0
  8 15  1  0  0  0  0
  9  5  1  0  0  0  0
 10  7  1  0  0  0  0
 11  8  1  0  0  0  0
 12 16  1  0  0  0  0
 12 10  2  0  0  0  0
 13 12  1  0  0  0  0
 15 10  1  0  0  0  0
 15  9  2  0  0  0  0
 18 17  1  6  0  0  0
 18  1  1  0  0  0  0
 19 18  1  0  0  0  0
 20 21  2  0  0  0  0
 21 19  1  0  0  0  0
 22 21  1  0  0  0  0
 23 22  1  0  0  0  0
 24 23  1  0  0  0  0
 25 29  1  0  0  0  0
 26 25  2  0  0  0  0
 26 30  1  0  0  0  0
 27 28  1  0  0  0  0
 27 31  1  0  0  0  0
 28 24  1  0  0  0  0
 29 28  2  0  0  0  0
 30 27  2  0  0  0  0
 31 32  1  0  0  0  0
 33 35  1  0  0  0  0
 35 34  1  0  0  0  0
M  END
>  <MODEL>
3

>  <REMARK>
 VINA RESULT:      -7.4      2.678      4.405
  Name = 
  13 active torsions:
  status: ('A' for Active; 'I' for Inactive)
    1  A    between atoms: O_4  and  C_8
    2  A    between atoms: O_4  and  C_24
    3  A    between atoms: C_5  and  C_11
    4  A    between atoms: N_7  and  C_34
    5  A    between atoms: C_8  and  C_30
    6  A    between atoms: C_14  and  C_24
    7  A    between atoms: C_16  and  C_22
    8  A    between atoms: C_17  and  C_18
    9  A    between atoms: C_17  and  C_19
   10  A    between atoms: C_18  and  C_22
   11  A    between atoms: O_28  and  C_35
   12  A    between atoms: C_30  and  C_34
   13  A    between atoms: C_30  and  C_35
                            x       y       z     vdW  Elec       q    Type
                         _______ _______ _______ _____ _____    ______ ____

>  <TORSDO>
F 13

$$$$
=
 OpenBabel11052409283D

 35 36  0  0  1  0  0  0  0  0999 V2000
  161.2620  207.4460  151.7120 C   0  0  1  0  0  3  0  0  0  0  0  0
  162.9970  205.8130  151.9000 O   0  0  0  0  0  0  0  0  0  0  0  0
  161.8090  206.0530  151.5440 C   0  0  0  0  0  0  0  0  0  0  0  0
  161.0380  205.0480  150.9540 O   0  0  0  0  0  0  0  0  0  0  0  0
  160.8950  204.9670  149.5440 C   0  0  0  0  0  2  0  0  0  0  0  0
  160.5030  201.6050  145.3210 C   0  0  0  0  0  3  0  0  0  0  0  0
  162.7690  204.8660  147.1090 N   0  0  0  0  0  1  0  0  0  0  0  0
  161.0980  201.5950  147.6950 C   0  0  0  0  0  0  0  0  0  0  0  0
  160.8230  203.5390  149.1020 C   0  0  0  0  0  3  0  0  0  0  0  0
  161.6980  203.9600  146.8410 C   0  0  0  0  0  0  0  0  0  0  0  0
  160.9630  201.0170  146.3840 N   0  0  0  0  0  0  0  0  0  0  0  0
  161.1280  203.9480  145.6280 C   0  0  0  0  0  0  0  0  0  0  0  0
  160.0070  203.0110  145.3240 C   0  0  0  0  0  2  0  0  0  0  0  0
  161.1210  200.8210  148.6880 O   0  0  0  0  0  0  0  0  0  0  0  0
  161.2300  203.0580  147.9230 C   0  0  0  0  0  0  0  0  0  0  0  0
  161.6230  204.8250  144.5270 C   0  0  0  0  0  1  0  0  0  0  0  0
  160.8180  206.7490  154.0860 C   0  0  0  0  0  1  0  0  0  0  0  0
  161.2810  207.8850  153.1860 C   0  0  2  0  0  3  0  0  0  0  0  0
  160.3910  209.0160  153.3920 N   0  0  0  0  0  2  0  0  0  0  0  0
  162.0860  210.5760  153.7850 O   0  0  0  0  0  0  0  0  0  0  0  0
  160.8640  210.3530  153.5740 C   0  0  0  0  0  0  0  0  0  0  0  0
  159.8980  211.4840  153.5020 C   0  0  0  0  0  2  0  0  0  0  0  0
  159.7260  211.9220  152.0580 C   0  0  0  0  0  2  0  0  0  0  0  0
  159.4310  213.4120  151.9810 C   0  0  0  0  0  2  0  0  0  0  0  0
  156.9750  213.5480  149.1060 C   0  0  0  0  0  3  0  0  0  0  0  0
  155.8070  213.9710  149.7450 C   0  0  0  0  0  3  0  0  0  0  0  0
  156.9910  214.0880  151.8590 C   0  0  0  0  0  0  0  0  0  0  0  0
  158.1680  213.6470  151.2180 C   0  0  0  0  0  0  0  0  0  0  0  0
  158.1490  213.3840  149.8430 C   0  0  0  0  0  3  0  0  0  0  0  0
  155.8140  214.2400  151.1180 C   0  0  0  0  0  3  0  0  0  0  0  0
  156.9510  214.3640  153.3270 C   0  0  0  0  0  2  0  0  0  0  0  0
  155.8370  213.6510  153.9320 N   0  0  0  0  0  1  0  0  0  0  0  0
  162.0300  208.4200  150.8250 C   0  0  0  0  0  2  0  0  0  0  0  0
  162.3450  208.2240  148.6530 C   0  0  0  0  0  1  0  0  0  0  0  0
  161.3750  208.5530  149.6010 O   0  0  0  0  0  0  0  0  0  0  0  0
  1 33  1  6  0  0  0
  1 18  1  0  0  0  0
  3  1  1  0  0  0  0
  3  2  2  0  0  0  0
  4  3  1  0  0  0  0
  5  4  1  0  0  0  0
  6 13  1  0  0  0  0
  6 11  2  0  0  0  0
  8 15  1  0  0  0  0
  8 14  2  0  0  0  0
  9  5  1  0  0  0  0
 10  7  1  0  0  0  0
 10 15  1  0  0  0  0
 11  8  1  0  0  0  0
 12 10  2  0  0  0  0
 13 12  1  0  0  0  0
 15  9  2  0  0  0  0
 16 12  1  0  0  0  0
 18 19  1  0  0  0  0
 18 17  1  1  0  0  0
 19 21  1  0  0  0  0
 21 20  2  0  0  0  0
 22 21  1  0  0  0  0
 23 22  1  0  0  0  0
 24 23  1  0  0  0  0
 25 26  2  0  0  0  0
 25 29  1  0  0  0  0
 26 30  1  0  0  0  0
 27 31  1  0  0  0  0
 28 27  1  0  0  0  0
 28 24  1  0  0  0  0
 29 28  2  0  0  0  0
 30 27  2  0  0  0  0
 31 32  1  0  0  0  0
 34 35  1  0  0  0  0
 35 33  1  0  0  0  0
M  END
>  <MODEL>
4

>  <REMARK>
 VINA RESULT:      -7.2      2.182     10.335
  Name = 
  13 active torsions:
  status: ('A' for Active; 'I' for Inactive)
    1  A    between atoms: O_4  and  C_8
    2  A    between atoms: O_4  and  C_24
    3  A    between atoms: C_5  and  C_11
    4  A    between atoms: N_7  and  C_34
    5  A    between atoms: C_8  and  C_30
    6  A    between atoms: C_14  and  C_24
    7  A    between atoms: C_16  and  C_22
    8  A    between atoms: C_17  and  C_18
    9  A    between atoms: C_17  and  C_19
   10  A    between atoms: C_18  and  C_22
   11  A    between atoms: O_28  and  C_35
   12  A    between atoms: C_30  and  C_34
   13  A    between atoms: C_30  and  C_35
                            x       y       z     vdW  Elec       q    Type
                         _______ _______ _______ _____ _____    ______ ____

>  <TORSDO>
F 13

$$$$
=
 OpenBabel11052409283D

 35 36  0  0  1  0  0  0  0  0999 V2000
  160.9260  207.9980  152.9250 C   0  0  1  0  0  3  0  0  0  0  0  0
  161.9080  210.0740  153.5850 O   0  0  0  0  0  0  0  0  0  0  0  0
  160.9540  209.5020  152.9870 C   0  0  0  0  0  0  0  0  0  0  0  0
  159.9160  210.2600  152.4400 O   0  0  0  0  0  0  0  0  0  0  0  0
  160.0200  211.6710  152.3260 C   0  0  0  0  0  2  0  0  0  0  0  0
  155.8060  212.3130  155.6610 C   0  0  0  0  0  3  0  0  0  0  0  0
  160.1230  212.6890  155.2240 N   0  0  0  0  0  1  0  0  0  0  0  0
  156.8050  213.3160  153.6640 C   0  0  0  0  0  0  0  0  0  0  0  0
  158.6840  212.3160  152.5210 C   0  0  0  0  0  3  0  0  0  0  0  0
  158.7760  212.2820  154.9800 C   0  0  0  0  0  0  0  0  0  0  0  0
  155.8710  213.2430  154.7570 N   0  0  0  0  0  0  0  0  0  0  0  0
  158.1210  211.5680  155.9050 C   0  0  0  0  0  0  0  0  0  0  0  0
  156.7130  211.1300  155.6720 C   0  0  0  0  0  2  0  0  0  0  0  0
  156.4820  213.9860  152.6480 O   0  0  0  0  0  0  0  0  0  0  0  0
  158.1350  212.6520  153.6930 C   0  0  0  0  0  0  0  0  0  0  0  0
  158.7500  211.2290  157.2150 C   0  0  0  0  0  1  0  0  0  0  0  0
  162.1800  208.5940  150.8300 C   0  0  0  0  0  1  0  0  0  0  0  0
  161.7920  207.4640  151.7710 C   0  0  2  0  0  3  0  0  0  0  0  0
  161.0600  206.4690  151.0040 N   0  0  0  0  0  2  0  0  0  0  0  0
  161.8020  204.6310  152.2410 O   0  0  0  0  0  0  0  0  0  0  0  0
  161.0210  205.0860  151.3640 C   0  0  0  0  0  0  0  0  0  0  0  0
  160.0380  204.1870  150.6980 C   0  0  0  0  0  2  0  0  0  0  0  0
  160.7590  202.9970  150.0910 C   0  0  0  0  0  2  0  0  0  0  0  0
  161.7920  203.4560  149.0740 C   0  0  0  0  0  2  0  0  0  0  0  0
  160.4340  201.3120  146.2680 C   0  0  0  0  0  3  0  0  0  0  0  0
  160.5310  202.1750  145.1740 C   0  0  0  0  0  3  0  0  0  0  0  0
  161.5030  203.8860  146.5930 C   0  0  0  0  0  0  0  0  0  0  0  0
  161.3930  203.0210  147.7020 C   0  0  0  0  0  0  0  0  0  0  0  0
  160.8610  201.7370  147.5270 C   0  0  0  0  0  3  0  0  0  0  0  0
  161.0630  203.4580  145.3350 C   0  0  0  0  0  3  0  0  0  0  0  0
  162.0440  205.2720  146.7260 C   0  0  0  0  0  2  0  0  0  0  0  0
  162.4310  205.7780  145.4190 N   0  0  0  0  0  1  0  0  0  0  0  0
  161.3530  207.4110  154.2660 C   0  0  0  0  0  2  0  0  0  0  0  0
  159.9720  207.4390  155.9840 C   0  0  0  0  0  1  0  0  0  0  0  0
  160.2860  206.7140  154.8330 O   0  0  0  0  0  0  0  0  0  0  0  0
  1  3  1  0  0  0  0
  1 33  1  1  0  0  0
  3  2  2  0  0  0  0
  4  3  1  0  0  0  0
  5  4  1  0  0  0  0
  5  9  1  0  0  0  0
  6 13  1  0  0  0  0
  8 15  1  0  0  0  0
  8 11  1  0  0  0  0
  9 15  2  0  0  0  0
 10  7  1  0  0  0  0
 10 12  2  0  0  0  0
 11  6  2  0  0  0  0
 12 16  1  0  0  0  0
 13 12  1  0  0  0  0
 14  8  2  0  0  0  0
 15 10  1  0  0  0  0
 18 17  1  6  0  0  0
 18  1  1  0  0  0  0
 19 21  1  0  0  0  0
 19 18  1  0  0  0  0
 21 20  2  0  0  0  0
 22 21  1  0  0  0  0
 23 22  1  0  0  0  0
 24 23  1  0  0  0  0
 25 29  1  0  0  0  0
 26 30  1  0  0  0  0
 26 25  2  0  0  0  0
 27 31  1  0  0  0  0
 27 28  1  0  0  0  0
 28 24  1  0  0  0  0
 29 28  2  0  0  0  0
 30 27  2  0  0  0  0
 32 31  1  0  0  0  0
 33 35  1  0  0  0  0
 35 34  1  0  0  0  0
M  END
>  <MODEL>
5

>  <REMARK>
 VINA RESULT:      -7.1      1.717      2.778
  Name = 
  13 active torsions:
  status: ('A' for Active; 'I' for Inactive)
    1  A    between atoms: O_4  and  C_8
    2  A    between atoms: O_4  and  C_24
    3  A    between atoms: C_5  and  C_11
    4  A    between atoms: N_7  and  C_34
    5  A    between atoms: C_8  and  C_30
    6  A    between atoms: C_14  and  C_24
    7  A    between atoms: C_16  and  C_22
    8  A    between atoms: C_17  and  C_18
    9  A    between atoms: C_17  and  C_19
   10  A    between atoms: C_18  and  C_22
   11  A    between atoms: O_28  and  C_35
   12  A    between atoms: C_30  and  C_34
   13  A    between atoms: C_30  and  C_35
                            x       y       z     vdW  Elec       q    Type
                         _______ _______ _______ _____ _____    ______ ____

>  <TORSDO>
F 13

$$$$
=
 OpenBabel11052409283D

 35 36  0  0  1  0  0  0  0  0999 V2000
  161.4630  207.4960  151.3290 C   0  0  1  0  0  3  0  0  0  0  0  0
  162.8860  205.7910  152.2140 O   0  0  0  0  0  0  0  0  0  0  0  0
  161.8460  206.0560  151.5480 C   0  0  0  0  0  0  0  0  0  0  0  0
  161.0970  205.0220  150.9790 O   0  0  0  0  0  0  0  0  0  0  0  0
  160.9250  204.9300  149.5730 C   0  0  0  0  0  2  0  0  0  0  0  0
  160.5190  201.5370  145.3770 C   0  0  0  0  0  3  0  0  0  0  0  0
  162.7530  204.8520  147.1030 N   0  0  0  0  0  1  0  0  0  0  0  0
  161.1600  201.5520  147.7390 C   0  0  0  0  0  0  0  0  0  0  0  0
  160.8730  203.4990  149.1400 C   0  0  0  0  0  3  0  0  0  0  0  0
  161.6960  203.9240  146.8600 C   0  0  0  0  0  0  0  0  0  0  0  0
  161.0110  200.9640  146.4340 N   0  0  0  0  0  0  0  0  0  0  0  0
  161.1030  203.8930  145.6600 C   0  0  0  0  0  0  0  0  0  0  0  0
  159.9950  202.9330  145.3820 C   0  0  0  0  0  2  0  0  0  0  0  0
  161.2170  200.7840  148.7360 O   0  0  0  0  0  0  0  0  0  0  0  0
  161.2670  203.0180  147.9570 C   0  0  0  0  0  0  0  0  0  0  0  0
  161.5590  204.7740  144.5440 C   0  0  0  0  0  1  0  0  0  0  0  0
  160.7430  207.3460  153.7330 C   0  0  0  0  0  1  0  0  0  0  0  0
  161.3310  208.2520  152.6630 C   0  0  2  0  0  3  0  0  0  0  0  0
  160.4530  209.4000  152.5110 N   0  0  0  0  0  2  0  0  0  0  0  0
  161.5710  210.7520  154.0560 O   0  0  0  0  0  0  0  0  0  0  0  0
  160.6990  210.6550  153.1520 C   0  0  0  0  0  0  0  0  0  0  0  0
  159.9170  211.8520  152.7340 C   0  0  0  0  0  2  0  0  0  0  0  0
  160.2950  212.2420  151.3160 C   0  0  0  0  0  2  0  0  0  0  0  0
  159.8710  213.6730  151.0220 C   0  0  0  0  0  2  0  0  0  0  0  0
  156.4240  213.7060  149.4610 C   0  0  0  0  0  3  0  0  0  0  0  0
  156.7260  213.8120  148.1010 C   0  0  0  0  0  3  0  0  0  0  0  0
  159.0970  213.7800  148.6100 C   0  0  0  0  0  0  0  0  0  0  0  0
  158.7950  213.6870  149.9850 C   0  0  0  0  0  0  0  0  0  0  0  0
  157.4570  213.6480  150.3980 C   0  0  0  0  0  3  0  0  0  0  0  0
  158.0580  213.8490  147.6760 C   0  0  0  0  0  3  0  0  0  0  0  0
  160.5050  213.8460  148.1170 C   0  0  0  0  0  2  0  0  0  0  0  0
  160.9470  212.5210  147.7090 N   0  0  0  0  0  1  0  0  0  0  0  0
  162.4660  208.1680  150.3990 C   0  0  0  0  0  2  0  0  0  0  0  0
  161.8340  208.3070  148.2910 C   0  0  0  0  0  1  0  0  0  0  0  0
  161.7890  208.9970  149.5040 O   0  0  0  0  0  0  0  0  0  0  0  0
  1 33  1  6  0  0  0
  1  3  1  0  0  0  0
  1 18  1  0  0  0  0
  3  2  2  0  0  0  0
  4  3  1  0  0  0  0
  5  4  1  0  0  0  0
  6 13  1  0  0  0  0
  6 11  2  0  0  0  0
  8 15  1  0  0  0  0
  8 14  2  0  0  0  0
  9  5  1  0  0  0  0
 10  7  1  0  0  0  0
 10 15  1  0  0  0  0
 11  8  1  0  0  0  0
 12 10  2  0  0  0  0
 13 12  1  0  0  0  0
 15  9  2  0  0  0  0
 16 12  1  0  0  0  0
 18 17  1  1  0  0  0
 19 18  1  0  0  0  0
 19 21  1  0  0  0  0
 21 20  2  0  0  0  0
 22 21  1  0  0  0  0
 23 22  1  0  0  0  0
 24 23  1  0  0  0  0
 25 29  1  0  0  0  0
 26 25  2  0  0  0  0
 27 28  1  0  0  0  0
 28 29  2  0  0  0  0
 28 24  1  0  0  0  0
 30 26  1  0  0  0  0
 30 27  2  0  0  0  0
 31 27  1  0  0  0  0
 32 31  1  0  0  0  0
 34 35  1  0  0  0  0
 35 33  1  0  0  0  0
M  END
>  <MODEL>
6

>  <REMARK>
 VINA RESULT:      -7.1      2.881      9.930
  Name = 
  13 active torsions:
  status: ('A' for Active; 'I' for Inactive)
    1  A    between atoms: O_4  and  C_8
    2  A    between atoms: O_4  and  C_24
    3  A    between atoms: C_5  and  C_11
    4  A    between atoms: N_7  and  C_34
    5  A    between atoms: C_8  and  C_30
    6  A    between atoms: C_14  and  C_24
    7  A    between atoms: C_16  and  C_22
    8  A    between atoms: C_17  and  C_18
    9  A    between atoms: C_17  and  C_19
   10  A    between atoms: C_18  and  C_22
   11  A    between atoms: O_28  and  C_35
   12  A    between atoms: C_30  and  C_34
   13  A    between atoms: C_30  and  C_35
                            x       y       z     vdW  Elec       q    Type
                         _______ _______ _______ _____ _____    ______ ____

>  <TORSDO>
F 13

$$$$
=
 OpenBabel11052409283D

 35 36  0  0  1  0  0  0  0  0999 V2000
  161.5590  209.0060  152.8260 C   0  0  1  0  0  3  0  0  0  0  0  0
  161.3700  210.6790  154.5220 O   0  0  0  0  0  0  0  0  0  0  0  0
  160.8500  210.1510  153.4990 C   0  0  0  0  0  0  0  0  0  0  0  0
  159.6080  210.5940  153.0370 O   0  0  0  0  0  0  0  0  0  0  0  0
  159.3030  211.9790  152.9710 C   0  0  0  0  0  2  0  0  0  0  0  0
  157.7420  214.1800  148.2800 C   0  0  0  0  0  3  0  0  0  0  0  0
  157.5140  214.4530  152.6200 N   0  0  0  0  0  1  0  0  0  0  0  0
  159.7340  213.9340  149.6810 C   0  0  0  0  0  0  0  0  0  0  0  0
  159.7520  212.5570  151.6660 C   0  0  0  0  0  3  0  0  0  0  0  0
  157.7300  213.9150  151.3150 C   0  0  0  0  0  0  0  0  0  0  0  0
  158.9820  214.4430  148.5640 N   0  0  0  0  0  0  0  0  0  0  0  0
  156.7030  213.8130  150.4610 C   0  0  0  0  0  0  0  0  0  0  0  0
  156.9040  213.2530  149.0930 C   0  0  0  0  0  2  0  0  0  0  0  0
  160.9890  213.9010  149.5890 O   0  0  0  0  0  0  0  0  0  0  0  0
  159.0950  213.4660  150.9390 C   0  0  0  0  0  0  0  0  0  0  0  0
  155.3390  214.3010  150.8230 C   0  0  0  0  0  1  0  0  0  0  0  0
  161.1020  207.5520  154.8250 C   0  0  0  0  0  1  0  0  0  0  0  0
  161.0220  207.6480  153.3090 C   0  0  2  0  0  3  0  0  0  0  0  0
  161.8050  206.5610  152.7460 N   0  0  0  0  0  2  0  0  0  0  0  0
  160.1240  204.9470  152.9240 O   0  0  0  0  0  0  0  0  0  0  0  0
  161.2570  205.2680  152.4770 C   0  0  0  0  0  0  0  0  0  0  0  0
  162.0370  204.3030  151.6530 C   0  0  0  0  0  2  0  0  0  0  0  0
  161.1530  203.7280  150.5610 C   0  0  0  0  0  2  0  0  0  0  0  0
  161.3020  204.5250  149.2740 C   0  0  0  0  0  2  0  0  0  0  0  0
  160.8120  201.3900  147.2140 C   0  0  0  0  0  3  0  0  0  0  0  0
  161.0010  201.8670  145.9140 C   0  0  0  0  0  3  0  0  0  0  0  0
  161.4420  204.0900  146.7810 C   0  0  0  0  0  0  0  0  0  0  0  0
  161.2370  203.6130  148.0930 C   0  0  0  0  0  0  0  0  0  0  0  0
  160.9270  202.2630  148.2970 C   0  0  0  0  0  3  0  0  0  0  0  0
  161.3150  203.2130  145.6980 C   0  0  0  0  0  3  0  0  0  0  0  0
  161.7560  205.5240  146.5050 C   0  0  0  0  0  2  0  0  0  0  0  0
  162.5290  205.6320  145.2780 N   0  0  0  0  0  1  0  0  0  0  0  0
  161.4570  209.1440  151.3110 C   0  0  0  0  0  2  0  0  0  0  0  0
  162.0040  210.4340  149.6100 C   0  0  0  0  0  1  0  0  0  0  0  0
  162.4650  209.9920  150.8500 O   0  0  0  0  0  0  0  0  0  0  0  0
  1 33  1  6  0  0  0
  1 18  1  0  0  0  0
  1  3  1  0  0  0  0
  3  2  2  0  0  0  0
  4  3  1  0  0  0  0
  5  4  1  0  0  0  0
  6 11  2  0  0  0  0
  6 13  1  0  0  0  0
  8 15  1  0  0  0  0
  9  5  1  0  0  0  0
 10  7  1  0  0  0  0
 11  8  1  0  0  0  0
 12 16  1  0  0  0  0
 12 10  2  0  0  0  0
 13 12  1  0  0  0  0
 14  8  2  0  0  0  0
 15 10  1  0  0  0  0
 15  9  2  0  0  0  0
 18 17  1  1  0  0  0
 19 18  1  0  0  0  0
 21 19  1  0  0  0  0
 21 20  2  0  0  0  0
 22 21  1  0  0  0  0
 23 22  1  0  0  0  0
 24 23  1  0  0  0  0
 25 29  1  0  0  0  0
 26 25  2  0  0  0  0
 27 28  1  0  0  0  0
 28 29  2  0  0  0  0
 28 24  1  0  0  0  0
 30 26  1  0  0  0  0
 30 27  2  0  0  0  0
 31 27  1  0  0  0  0
 32 31  1  0  0  0  0
 34 35  1  0  0  0  0
 35 33  1  0  0  0  0
M  END
>  <MODEL>
7

>  <REMARK>
 VINA RESULT:      -7.1      2.288      3.417
  Name = 
  13 active torsions:
  status: ('A' for Active; 'I' for Inactive)
    1  A    between atoms: O_4  and  C_8
    2  A    between atoms: O_4  and  C_24
    3  A    between atoms: C_5  and  C_11
    4  A    between atoms: N_7  and  C_34
    5  A    between atoms: C_8  and  C_30
    6  A    between atoms: C_14  and  C_24
    7  A    between atoms: C_16  and  C_22
    8  A    between atoms: C_17  and  C_18
    9  A    between atoms: C_17  and  C_19
   10  A    between atoms: C_18  and  C_22
   11  A    between atoms: O_28  and  C_35
   12  A    between atoms: C_30  and  C_34
   13  A    between atoms: C_30  and  C_35
                            x       y       z     vdW  Elec       q    Type
                         _______ _______ _______ _____ _____    ______ ____

>  <TORSDO>
F 13

$$$$
=
 OpenBabel11052409283D

 35 36  0  0  1  0  0  0  0  0999 V2000
  160.8230  207.3440  153.6750 C   0  0  1  0  0  3  0  0  0  0  0  0
  162.8970  206.2830  153.1390 O   0  0  0  0  0  0  0  0  0  0  0  0
  161.6430  206.1590  153.2370 C   0  0  0  0  0  0  0  0  0  0  0  0
  161.0300  204.9530  152.8910 O   0  0  0  0  0  0  0  0  0  0  0  0
  161.3990  204.2560  151.7110 C   0  0  0  0  0  2  0  0  0  0  0  0
  161.5770  204.5170  146.3080 C   0  0  0  0  0  3  0  0  0  0  0  0
  159.8140  202.5050  149.7440 N   0  0  0  0  0  1  0  0  0  0  0  0
  160.7400  205.7750  148.2330 C   0  0  0  0  0  0  0  0  0  0  0  0
  161.2370  205.1320  150.5090 C   0  0  0  0  0  3  0  0  0  0  0  0
  160.7090  203.2940  148.9600 C   0  0  0  0  0  0  0  0  0  0  0  0
  160.8990  205.4940  146.8310 N   0  0  0  0  0  0  0  0  0  0  0  0
  161.3930  202.7240  147.9590 C   0  0  0  0  0  0  0  0  0  0  0  0
  162.3350  203.5280  147.1270 C   0  0  0  0  0  2  0  0  0  0  0  0
  160.4590  206.9540  148.5770 O   0  0  0  0  0  0  0  0  0  0  0  0
  160.8720  204.7340  149.2860 C   0  0  0  0  0  0  0  0  0  0  0  0
  161.2000  201.2870  147.6040 C   0  0  0  0  0  1  0  0  0  0  0  0
  159.7260  207.0010  155.9100 C   0  0  0  0  0  1  0  0  0  0  0  0
  160.9350  207.5780  155.1910 C   0  0  2  0  0  3  0  0  0  0  0  0
  160.9970  209.0010  155.4820 N   0  0  0  0  0  2  0  0  0  0  0  0
  162.6230  208.8250  157.1520 O   0  0  0  0  0  0  0  0  0  0  0  0
  161.9430  209.5660  156.3930 C   0  0  0  0  0  0  0  0  0  0  0  0
  162.1270  211.0440  156.4300 C   0  0  0  0  0  2  0  0  0  0  0  0
  161.0250  211.6780  157.2610 C   0  0  0  0  0  2  0  0  0  0  0  0
  160.2920  212.7420  156.4590 C   0  0  0  0  0  2  0  0  0  0  0  0
  156.7400  211.4640  156.2030 C   0  0  0  0  0  3  0  0  0  0  0  0
  156.6240  211.2100  154.8340 C   0  0  0  0  0  3  0  0  0  0  0  0
  158.9240  211.9050  154.4970 C   0  0  0  0  0  0  0  0  0  0  0  0
  159.0380  212.1760  155.8760 C   0  0  0  0  0  0  0  0  0  0  0  0
  157.9430  211.9490  156.7190 C   0  0  0  0  0  3  0  0  0  0  0  0
  157.7120  211.4300  153.9830 C   0  0  0  0  0  3  0  0  0  0  0  0
  160.0530  212.1490  153.5500 C   0  0  0  0  0  2  0  0  0  0  0  0
  159.5390  212.6590  152.2900 N   0  0  0  0  0  1  0  0  0  0  0  0
  161.2280  208.5820  152.8830 C   0  0  0  0  0  2  0  0  0  0  0  0
  162.0130  208.7850  150.8340 C   0  0  0  0  0  1  0  0  0  0  0  0
  160.8690  208.4190  151.5450 O   0  0  0  0  0  0  0  0  0  0  0  0
  1 33  1  6  0  0  0
  1 18  1  0  0  0  0
  2  3  2  0  0  0  0
  3  1  1  0  0  0  0
  4  3  1  0  0  0  0
  5  4  1  0  0  0  0
  6 11  2  0  0  0  0
  6 13  1  0  0  0  0
  8 14  2  0  0  0  0
  8 15  1  0  0  0  0
  9  5  1  0  0  0  0
 10 15  1  0  0  0  0
 10  7  1  0  0  0  0
 11  8  1  0  0  0  0
 12 10  2  0  0  0  0
 13 12  1  0  0  0  0
 15  9  2  0  0  0  0
 16 12  1  0  0  0  0
 18 19  1  0  0  0  0
 18 17  1  1  0  0  0
 19 21  1  0  0  0  0
 21 22  1  0  0  0  0
 21 20  2  0  0  0  0
 22 23  1  0  0  0  0
 24 23  1  0  0  0  0
 25 29  1  0  0  0  0
 26 25  2  0  0  0  0
 27 28  1  0  0  0  0
 28 24  1  0  0  0  0
 28 29  2  0  0  0  0
 30 27  2  0  0  0  0
 30 26  1  0  0  0  0
 31 27  1  0  0  0  0
 32 31  1  0  0  0  0
 34 35  1  0  0  0  0
 35 33  1  0  0  0  0
M  END
>  <MODEL>
8

>  <REMARK>
 VINA RESULT:      -7.1      2.319      9.734
  Name = 
  13 active torsions:
  status: ('A' for Active; 'I' for Inactive)
    1  A    between atoms: O_4  and  C_8
    2  A    between atoms: O_4  and  C_24
    3  A    between atoms: C_5  and  C_11
    4  A    between atoms: N_7  and  C_34
    5  A    between atoms: C_8  and  C_30
    6  A    between atoms: C_14  and  C_24
    7  A    between atoms: C_16  and  C_22
    8  A    between atoms: C_17  and  C_18
    9  A    between atoms: C_17  and  C_19
   10  A    between atoms: C_18  and  C_22
   11  A    between atoms: O_28  and  C_35
   12  A    between atoms: C_30  and  C_34
   13  A    between atoms: C_30  and  C_35
                            x       y       z     vdW  Elec       q    Type
                         _______ _______ _______ _____ _____    ______ ____

>  <TORSDO>
F 13

$$$$
=
 OpenBabel11052409283D

 35 36  0  0  1  0  0  0  0  0999 V2000
  161.9740  208.7740  151.6760 C   0  0  1  0  0  3  0  0  0  0  0  0
  160.8450  210.7940  152.2750 O   0  0  0  0  0  0  0  0  0  0  0  0
  161.5850  210.2090  151.4340 C   0  0  0  0  0  0  0  0  0  0  0  0
  161.9880  210.8730  150.2740 O   0  0  0  0  0  0  0  0  0  0  0  0
  161.2360  211.9590  149.7530 C   0  0  0  0  0  2  0  0  0  0  0  0
  159.4520  213.1370  144.7810 C   0  0  0  0  0  3  0  0  0  0  0  0
  159.4570  214.3390  148.9670 N   0  0  0  0  0  1  0  0  0  0  0  0
  161.5130  213.1540  146.1020 C   0  0  0  0  0  0  0  0  0  0  0  0
  161.6220  212.2340  148.3330 C   0  0  0  0  0  3  0  0  0  0  0  0
  159.5980  213.5290  147.7990 C   0  0  0  0  0  0  0  0  0  0  0  0
  160.7080  213.4290  144.9410 N   0  0  0  0  0  0  0  0  0  0  0  0
  158.5260  213.2690  147.0390 C   0  0  0  0  0  0  0  0  0  0  0  0
  158.6480  212.4240  145.8150 C   0  0  0  0  0  2  0  0  0  0  0  0
  162.7610  213.0750  145.9570 O   0  0  0  0  0  0  0  0  0  0  0  0
  160.9360  212.9810  147.4610 C   0  0  0  0  0  0  0  0  0  0  0  0
  157.1890  213.8520  147.3540 C   0  0  0  0  0  1  0  0  0  0  0  0
  161.0640  207.8910  153.8470 C   0  0  0  0  0  1  0  0  0  0  0  0
  160.8340  207.9870  152.3460 C   0  0  2  0  0  3  0  0  0  0  0  0
  160.7660  206.6370  151.8120 N   0  0  0  0  0  2  0  0  0  0  0  0
  162.5780  205.8120  153.0370 O   0  0  0  0  0  0  0  0  0  0  0  0
  161.5950  205.5720  152.2860 C   0  0  0  0  0  0  0  0  0  0  0  0
  161.2800  204.1710  151.8900 C   0  0  0  0  0  2  0  0  0  0  0  0
  160.4910  204.1690  150.5930 C   0  0  0  0  0  2  0  0  0  0  0  0
  161.3900  204.5200  149.4170 C   0  0  0  0  0  2  0  0  0  0  0  0
  160.6840  201.2190  147.7070 C   0  0  0  0  0  3  0  0  0  0  0  0
  160.8770  201.5460  146.3620 C   0  0  0  0  0  3  0  0  0  0  0  0
  161.4590  203.8170  146.9830 C   0  0  0  0  0  0  0  0  0  0  0  0
  161.2510  203.4940  148.3400 C   0  0  0  0  0  0  0  0  0  0  0  0
  160.8680  202.1930  148.6900 C   0  0  0  0  0  3  0  0  0  0  0  0
  161.2620  202.8400  146.0000 C   0  0  0  0  0  3  0  0  0  0  0  0
  161.8490  205.1940  146.5530 C   0  0  0  0  0  2  0  0  0  0  0  0
  160.8820  205.7020  145.5920 N   0  0  0  0  0  1  0  0  0  0  0  0
  162.4140  208.1240  150.3700 C   0  0  0  0  0  2  0  0  0  0  0  0
  161.8890  208.2120  148.2310 C   0  0  0  0  0  1  0  0  0  0  0  0
  161.3280  208.0450  149.4980 O   0  0  0  0  0  0  0  0  0  0  0  0
  1 33  1  6  0  0  0
  1 18  1  0  0  0  0
  3  1  1  0  0  0  0
  3  2  2  0  0  0  0
  4  3  1  0  0  0  0
  5  4  1  0  0  0  0
  6 11  2  0  0  0  0
  6 13  1  0  0  0  0
  8 15  1  0  0  0  0
  9  5  1  0  0  0  0
 10  7  1  0  0  0  0
 11  8  1  0  0  0  0
 12 16  1  0  0  0  0
 12 10  2  0  0  0  0
 13 12  1  0  0  0  0
 14  8  2  0  0  0  0
 15 10  1  0  0  0  0
 15  9  2  0  0  0  0
 18 17  1  1  0  0  0
 19 21  1  0  0  0  0
 19 18  1  0  0  0  0
 21 20  2  0  0  0  0
 22 21  1  0  0  0  0
 23 22  1  0  0  0  0
 24 23  1  0  0  0  0
 25 29  1  0  0  0  0
 26 25  2  0  0  0  0
 27 28  1  0  0  0  0
 28 29  2  0  0  0  0
 28 24  1  0  0  0  0
 30 26  1  0  0  0  0
 30 27  2  0  0  0  0
 31 27  1  0  0  0  0
 32 31  1  0  0  0  0
 34 35  1  0  0  0  0
 35 33  1  0  0  0  0
M  END
>  <MODEL>
9

>  <REMARK>
 VINA RESULT:      -7.0      3.581      4.981
  Name = 
  13 active torsions:
  status: ('A' for Active; 'I' for Inactive)
    1  A    between atoms: O_4  and  C_8
    2  A    between atoms: O_4  and  C_24
    3  A    between atoms: C_5  and  C_11
    4  A    between atoms: N_7  and  C_34
    5  A    between atoms: C_8  and  C_30
    6  A    between atoms: C_14  and  C_24
    7  A    between atoms: C_16  and  C_22
    8  A    between atoms: C_17  and  C_18
    9  A    between atoms: C_17  and  C_19
   10  A    between atoms: C_18  and  C_22
   11  A    between atoms: O_28  and  C_35
   12  A    between atoms: C_30  and  C_34
   13  A    between atoms: C_30  and  C_35
                            x       y       z     vdW  Elec       q    Type
                         _______ _______ _______ _____ _____    ______ ____

>  <TORSDO>
F 13

$$$$
