=
 OpenBabel11052411083D

 34 39  0  0  1  0  0  0  0  0999 V2000
  161.9370  214.4530  147.7920 O   0  0  0  0  0  0  0  0  0  0  0  0
  161.3810  207.5660  153.8070 O   0  0  0  0  0  0  0  0  0  0  0  0
  161.5760  208.8100  151.8520 N   0  0  0  0  0  0  0  0  0  0  0  0
  161.7090  210.1930  152.1650 C   0  0  2  0  0  0  0  0  0  0  0  0
  160.3750  210.7690  152.6510 C   0  0  2  0  0  3  0  0  0  0  0  0
  161.0350  203.9520  151.5330 O   0  0  0  0  0  0  0  0  0  0  0  0
  161.8670  208.7710  149.1580 C   0  0  0  0  0  2  0  0  0  0  0  0
  161.2880  206.3580  151.8020 N   0  0  0  0  0  2  0  0  0  0  0  0
  161.1240  205.0550  152.3690 C   0  0  0  0  0  0  0  0  0  0  0  0
  159.1930  212.8900  149.6640 C   0  0  0  0  0  2  0  0  0  0  0  0
  162.5390  212.1960  147.5500 C   0  0  0  0  0  2  0  0  0  0  0  0
  158.6650  213.6570  150.7020 O   0  0  0  0  0  0  0  0  0  0  0  0
  159.2000  213.7050  148.3860 C   0  0  0  0  0  2  0  0  0  0  0  0
  161.7860  209.2170  150.4620 C   0  0  2  0  0  0  0  0  0  0  0  0
  161.9390  210.5630  150.7960 C   0  0  0  0  0  0  0  0  0  0  0  0
  159.3400  211.3110  154.8590 N   0  0  1  0  0  0  0  0  0  0  0  0
  160.3910  212.2340  152.6090 N   0  0  0  0  0  2  0  0  0  0  0  0
  161.5450  213.3150  147.5880 C   0  0  0  0  0  0  0  0  0  0  0  0
  161.0610  204.8930  153.6170 O   0  0  0  0  0  1  0  0  0  0  0  0
  161.4080  207.5750  152.5470 C   0  0  0  0  0  0  0  0  0  0  0  0
  162.1140  209.8020  148.2120 C   0  0  0  0  0  3  0  0  0  0  0  0
  160.0850  213.0460  147.3340 C   0  0  2  0  0  3  0  0  0  0  0  0
  162.2630  211.1760  148.6050 C   0  0  0  0  0  0  0  0  0  0  0  0
  162.1800  211.5590  149.9260 N   0  0  0  0  0  0  0  0  0  0  0  0
  160.0360  210.2840  154.0710 C   0  0  0  0  0  2  0  0  0  0  0  0
  158.1870  212.7300  151.6310 C   0  0  0  0  0  2  0  0  0  0  0  0
  159.0440  212.7550  152.8900 C   0  0  1  0  0  3  0  0  0  0  0  0
  158.3460  211.9770  154.0140 C   0  0  0  0  0  2  0  0  0  0  0  0
  158.8800  214.4270  145.7880 O   0  0  0  0  0  1  0  0  0  0  0  0
  160.2810  212.8700  144.8570 O   0  0  0  0  0  0  0  0  0  0  0  0
  159.7010  213.4850  145.9580 C   0  0  0  0  0  0  0  0  0  0  0  0
  159.5980  209.9480  156.8590 C   0  0  0  0  0  2  0  0  0  0  0  0
  158.9520  211.2550  157.2590 C   0  0  0  0  0  2  0  0  0  0  0  0
  158.6150  210.6240  155.9190 C   0  0  0  0  0  3  0  0  0  0  0  0
  3  4  1  0  0  0  0
  3 20  1  0  0  0  0
  4 15  1  1  0  0  0
  4  5  1  0  0  0  0
  5 25  1  1  0  0  0
  6  9  2  0  0  0  0
  8  9  1  0  0  0  0
  8 20  1  0  0  0  0
  9 19  1  0  0  0  0
 10 12  1  0  0  0  0
 11 18  1  0  0  0  0
 11 23  1  0  0  0  0
 12 26  1  0  0  0  0
 13 10  1  0  0  0  0
 14  7  1  6  0  0  0
 14 15  1  0  0  0  0
 14  3  1  0  0  0  0
 14  4  1  0  0  0  0
 16 34  1  1  0  0  0
 17  5  1  0  0  0  0
 17 27  1  0  0  0  0
 18  1  2  0  0  0  0
 20  2  2  0  0  0  0
 21 23  2  0  0  0  0
 21  7  1  0  0  0  0
 22 31  1  6  0  0  0
 22 18  1  0  0  0  0
 22 13  1  0  0  0  0
 23 24  1  0  0  0  0
 24 15  2  0  0  0  0
 25 16  1  0  0  0  0
 27 26  1  6  0  0  0
 27 28  1  0  0  0  0
 28 16  1  0  0  0  0
 29 31  1  0  0  0  0
 30 31  2  0  0  0  0
 32 33  1  0  0  0  0
 34 32  1  0  0  0  0
 34 33  1  0  0  0  0
M  END
>  <MODEL>
1

>  <REMARK>
 VINA RESULT:      -6.5      0.000      0.000
  Name = 
  2 active torsions:
  status: ('A' for Active; 'I' for Inactive)
    1  A    between atoms: N_19  and  C_27
    2  A    between atoms: C_21  and  C_28
                            x       y       z     vdW  Elec       q    Type
                         _______ _______ _______ _____ _____    ______ ____

>  <TORSDO>
F 2

$$$$
=
 OpenBabel11052411083D

 34 39  0  0  1  0  0  0  0  0999 V2000
  162.1110  214.3450  148.9890 O   0  0  0  0  0  0  0  0  0  0  0  0
  161.7620  206.1660  153.1000 O   0  0  0  0  0  0  0  0  0  0  0  0
  161.7720  207.8660  151.5140 N   0  0  0  0  0  0  0  0  0  0  0  0
  162.1180  209.1050  152.1290 C   0  0  2  0  0  0  0  0  0  0  0  0
  160.9620  209.6230  152.9900 C   0  0  2  0  0  3  0  0  0  0  0  0
  160.6140  203.3190  150.1110 O   0  0  0  0  0  0  0  0  0  0  0  0
  161.5990  208.5240  148.8910 C   0  0  0  0  0  2  0  0  0  0  0  0
  161.1910  205.5430  150.9150 N   0  0  0  0  0  2  0  0  0  0  0  0
  160.9710  204.1510  151.1620 C   0  0  0  0  0  0  0  0  0  0  0  0
  159.5550  212.5390  150.9080 C   0  0  0  0  0  2  0  0  0  0  0  0
  162.3920  212.1960  148.0840 C   0  0  0  0  0  2  0  0  0  0  0  0
  159.3030  213.0390  152.1860 O   0  0  0  0  0  0  0  0  0  0  0  0
  159.4440  213.6620  149.8960 C   0  0  0  0  0  2  0  0  0  0  0  0
  161.7910  208.6120  150.2550 C   0  0  2  0  0  0  0  0  0  0  0  0
  162.1570  209.8070  150.8760 C   0  0  0  0  0  0  0  0  0  0  0  0
  160.3850  209.6320  155.4210 N   0  0  1  0  0  0  0  0  0  0  0  0
  161.1450  211.0420  153.3100 N   0  0  0  0  0  2  0  0  0  0  0  0
  161.5580  213.3320  148.5890 C   0  0  0  0  0  0  0  0  0  0  0  0
  161.1000  203.6690  152.3190 O   0  0  0  0  0  1  0  0  0  0  0  0
  161.5770  206.5070  151.9010 C   0  0  0  0  0  0  0  0  0  0  0  0
  161.8040  209.7490  148.2000 C   0  0  0  0  0  3  0  0  0  0  0  0
  160.0560  213.2450  148.5620 C   0  0  2  0  0  3  0  0  0  0  0  0
  162.1790  210.9550  148.8850 C   0  0  0  0  0  0  0  0  0  0  0  0
  162.3650  210.9790  150.2500 N   0  0  0  0  0  0  0  0  0  0  0  0
  160.8120  208.8050  154.2830 C   0  0  0  0  0  2  0  0  0  0  0  0
  158.8820  211.9350  152.9300 C   0  0  0  0  0  2  0  0  0  0  0  0
  159.9350  211.5640  153.9660 C   0  0  1  0  0  3  0  0  0  0  0  0
  159.3490  210.5670  154.9750 C   0  0  0  0  0  2  0  0  0  0  0  0
  160.2190  214.3660  146.4490 O   0  0  0  0  0  0  0  0  0  0  0  0
  158.1700  214.4530  147.4720 O   0  0  0  0  0  1  0  0  0  0  0  0
  159.5000  214.0590  147.4390 C   0  0  0  0  0  0  0  0  0  0  0  0
  160.2200  207.3120  156.1400 C   0  0  0  0  0  2  0  0  0  0  0  0
  160.8520  208.1100  157.2590 C   0  0  0  0  0  2  0  0  0  0  0  0
  159.7710  208.7410  156.3960 C   0  0  0  0  0  3  0  0  0  0  0  0
  3 20  1  0  0  0  0
  3  4  1  0  0  0  0
  4 15  1  1  0  0  0
  4  5  1  0  0  0  0
  5 17  1  0  0  0  0
  5 25  1  1  0  0  0
  6  9  2  0  0  0  0
  8  9  1  0  0  0  0
  8 20  1  0  0  0  0
  9 19  1  0  0  0  0
 10 12  1  0  0  0  0
 11 18  1  0  0  0  0
 11 23  1  0  0  0  0
 12 26  1  0  0  0  0
 13 10  1  0  0  0  0
 14  7  1  1  0  0  0
 14 15  1  0  0  0  0
 14  3  1  0  0  0  0
 14  4  1  0  0  0  0
 16 34  1  1  0  0  0
 17 27  1  0  0  0  0
 18  1  2  0  0  0  0
 20  2  2  0  0  0  0
 21 23  2  0  0  0  0
 21  7  1  0  0  0  0
 22 31  1  6  0  0  0
 22 18  1  0  0  0  0
 22 13  1  0  0  0  0
 23 24  1  0  0  0  0
 24 15  2  0  0  0  0
 25 16  1  0  0  0  0
 27 26  1  6  0  0  0
 27 28  1  0  0  0  0
 28 16  1  0  0  0  0
 29 31  2  0  0  0  0
 31 30  1  0  0  0  0
 32 34  1  0  0  0  0
 32 33  1  0  0  0  0
 34 33  1  0  0  0  0
M  END
>  <MODEL>
2

>  <REMARK>
 VINA RESULT:      -5.1      1.337      1.680
  Name = 
  2 active torsions:
  status: ('A' for Active; 'I' for Inactive)
    1  A    between atoms: N_19  and  C_27
    2  A    between atoms: C_21  and  C_28
                            x       y       z     vdW  Elec       q    Type
                         _______ _______ _______ _____ _____    ______ ____

>  <TORSDO>
F 2

$$$$
=
 OpenBabel11052411083D

 34 39  0  0  1  0  0  0  0  0999 V2000
  161.0730  214.4530  145.6690 O   0  0  0  0  0  0  0  0  0  0  0  0
  160.0250  211.2560  154.1900 O   0  0  0  0  0  0  0  0  0  0  0  0
  160.5730  211.4720  151.9400 N   0  0  0  0  0  0  0  0  0  0  0  0
  160.3310  212.8070  151.5050 C   0  0  2  0  0  0  0  0  0  0  0  0
  158.8260  213.0720  151.3850 C   0  0  2  0  0  3  0  0  0  0  0  0
  161.1120  207.1120  154.1070 O   0  0  0  0  0  0  0  0  0  0  0  0
  161.6870  210.3200  149.7560 C   0  0  0  0  0  2  0  0  0  0  0  0
  160.7960  209.3170  153.1240 N   0  0  0  0  0  2  0  0  0  0  0  0
  160.7200  208.4360  154.2480 C   0  0  0  0  0  0  0  0  0  0  0  0
  158.2420  213.1070  147.5800 C   0  0  0  0  0  2  0  0  0  0  0  0
  162.1470  212.6610  146.7430 C   0  0  0  0  0  2  0  0  0  0  0  0
  157.2790  214.0420  147.9600 O   0  0  0  0  0  0  0  0  0  0  0  0
  158.4870  213.2120  146.0880 C   0  0  0  0  0  2  0  0  0  0  0  0
  161.1200  211.2520  150.6010 C   0  0  2  0  0  0  0  0  0  0  0  0
  160.8970  212.5720  150.2060 C   0  0  0  0  0  0  0  0  0  0  0  0
  157.0720  214.1830  152.7740 N   0  0  1  0  0  0  0  0  0  0  0  0
  158.5700  214.2770  150.5910 N   0  0  0  0  0  2  0  0  0  0  0  0
  160.9920  213.2870  146.0230 C   0  0  0  0  0  0  0  0  0  0  0  0
  160.3060  208.8430  155.3660 O   0  0  0  0  0  1  0  0  0  0  0  0
  160.4400  210.7040  153.1350 C   0  0  0  0  0  0  0  0  0  0  0  0
  162.0110  210.8310  148.4690 C   0  0  0  0  0  3  0  0  0  0  0  0
  159.7660  212.4760  145.7010 C   0  0  2  0  0  3  0  0  0  0  0  0
  161.7610  212.1990  148.1090 C   0  0  0  0  0  0  0  0  0  0  0  0
  161.1990  213.0860  149.0010 N   0  0  0  0  0  0  0  0  0  0  0  0
  158.1640  213.2000  152.7670 C   0  0  0  0  0  2  0  0  0  0  0  0
  156.7260  213.5350  149.1380 C   0  0  0  0  0  2  0  0  0  0  0  0
  157.1280  214.4010  150.3250 C   0  0  1  0  0  3  0  0  0  0  0  0
  156.2800  214.0340  151.5510 C   0  0  0  0  0  2  0  0  0  0  0  0
  158.6830  212.1510  143.5860 O   0  0  0  0  0  0  0  0  0  0  0  0
  160.9320  211.7110  143.6370 O   0  0  0  0  0  1  0  0  0  0  0  0
  159.7500  212.0960  144.2550 C   0  0  0  0  0  0  0  0  0  0  0  0
  156.8950  212.8580  154.8080 C   0  0  0  0  0  2  0  0  0  0  0  0
  156.8430  214.3190  155.1910 C   0  0  0  0  0  2  0  0  0  0  0  0
  156.2020  213.8540  153.8950 C   0  0  0  0  0  3  0  0  0  0  0  0
  1 18  2  0  0  0  0
  3 20  1  0  0  0  0
  4 15  1  1  0  0  0
  4  3  1  0  0  0  0
  5  4  1  0  0  0  0
  5 25  1  1  0  0  0
  6  9  2  0  0  0  0
  8 20  1  0  0  0  0
  8  9  1  0  0  0  0
  9 19  1  0  0  0  0
 10 12  1  0  0  0  0
 11 23  1  0  0  0  0
 12 26  1  0  0  0  0
 13 10  1  0  0  0  0
 14  7  1  6  0  0  0
 14  4  1  0  0  0  0
 14  3  1  0  0  0  0
 15 14  1  0  0  0  0
 16 34  1  1  0  0  0
 17  5  1  0  0  0  0
 18 11  1  0  0  0  0
 20  2  2  0  0  0  0
 21  7  1  0  0  0  0
 22 31  1  6  0  0  0
 22 18  1  0  0  0  0
 22 13  1  0  0  0  0
 23 21  2  0  0  0  0
 23 24  1  0  0  0  0
 24 15  2  0  0  0  0
 25 16  1  0  0  0  0
 27 26  1  6  0  0  0
 27 17  1  0  0  0  0
 27 28  1  0  0  0  0
 28 16  1  0  0  0  0
 29 31  2  0  0  0  0
 30 31  1  0  0  0  0
 32 33  1  0  0  0  0
 34 32  1  0  0  0  0
 34 33  1  0  0  0  0
M  END
>  <MODEL>
3

>  <REMARK>
 VINA RESULT:      -4.3      2.110      3.086
  Name = 
  2 active torsions:
  status: ('A' for Active; 'I' for Inactive)
    1  A    between atoms: N_19  and  C_27
    2  A    between atoms: C_21  and  C_28
                            x       y       z     vdW  Elec       q    Type
                         _______ _______ _______ _____ _____    ______ ____

>  <TORSDO>
F 2

$$$$
=
 OpenBabel11052411083D

 34 39  0  0  1  0  0  0  0  0999 V2000
  163.3070  204.7980  151.9470 O   0  0  0  0  0  0  0  0  0  0  0  0
  159.9690  213.3190  152.3720 O   0  0  0  0  0  0  0  0  0  0  0  0
  160.3230  211.0430  152.6940 N   0  0  0  0  0  0  0  0  0  0  0  0
  161.5360  210.6440  152.0630 C   0  0  2  0  0  0  0  0  0  0  0  0
  161.3710  210.6200  150.5390 C   0  0  2  0  0  3  0  0  0  0  0  0
  156.2930  213.1070  154.5620 O   0  0  0  0  0  1  0  0  0  0  0  0
  159.5210  208.7770  153.9450 C   0  0  0  0  0  2  0  0  0  0  0  0
  158.3190  212.1790  153.5830 N   0  0  0  0  0  2  0  0  0  0  0  0
  157.4550  213.2930  153.8270 C   0  0  0  0  0  0  0  0  0  0  0  0
  161.2310  206.8600  149.7300 C   0  0  0  0  0  2  0  0  0  0  0  0
  161.8890  205.7780  153.5430 C   0  0  0  0  0  2  0  0  0  0  0  0
  161.8610  207.3120  148.5700 O   0  0  0  0  0  0  0  0  0  0  0  0
  161.3960  205.3560  149.8410 C   0  0  0  0  0  2  0  0  0  0  0  0
  160.2610  209.6700  153.1950 C   0  0  2  0  0  0  0  0  0  0  0  0
  161.4650  209.3090  152.5890 C   0  0  0  0  0  0  0  0  0  0  0  0
  161.9530  212.1310  148.6370 N   0  0  1  0  0  0  0  0  0  0  0  0
  162.4550  209.8610  149.9080 N   0  0  0  0  0  2  0  0  0  0  0  0
  162.1660  205.1400  152.2170 C   0  0  0  0  0  0  0  0  0  0  0  0
  157.7340  214.4400  153.3870 O   0  0  0  0  0  0  0  0  0  0  0  0
  159.5520  212.2320  152.8560 C   0  0  0  0  0  0  0  0  0  0  0  0
  160.0980  207.4820  154.0320 C   0  0  0  0  0  3  0  0  0  0  0  0
  161.0440  204.8810  151.2470 C   0  0  2  0  0  3  0  0  0  0  0  0
  161.3420  207.1580  153.3880 C   0  0  0  0  0  0  0  0  0  0  0  0
  162.0400  208.0960  152.6590 N   0  0  0  0  0  0  0  0  0  0  0  0
  161.3130  212.0420  149.9570 C   0  0  0  0  0  2  0  0  0  0  0  0
  161.2230  208.5130  148.2560 C   0  0  0  0  0  2  0  0  0  0  0  0
  162.1710  209.6860  148.4750 C   0  0  1  0  0  3  0  0  0  0  0  0
  161.5850  210.9570  147.8420 C   0  0  0  0  0  2  0  0  0  0  0  0
  160.6090  202.7850  152.3260 O   0  0  0  0  0  1  0  0  0  0  0  0
  160.3580  202.8080  150.0480 O   0  0  0  0  0  0  0  0  0  0  0  0
  160.6710  203.4340  151.2470 C   0  0  0  0  0  0  0  0  0  0  0  0
  161.1770  214.4130  148.9720 C   0  0  0  0  0  2  0  0  0  0  0  0
  162.3800  214.4530  148.0560 C   0  0  0  0  0  2  0  0  0  0  0  0
  161.3970  213.2980  147.9650 C   0  0  0  0  0  3  0  0  0  0  0  0
  1 18  2  0  0  0  0
  2 20  2  0  0  0  0
  3 20  1  0  0  0  0
  3 14  1  0  0  0  0
  4 15  1  1  0  0  0
  4  3  1  0  0  0  0
  4 14  1  0  0  0  0
  5 25  1  6  0  0  0
  5  4  1  0  0  0  0
  7 21  1  0  0  0  0
  8  9  1  0  0  0  0
  9  6  1  0  0  0  0
 10 13  1  0  0  0  0
 12 10  1  0  0  0  0
 13 22  1  0  0  0  0
 14  7  1  6  0  0  0
 15 24  2  0  0  0  0
 15 14  1  0  0  0  0
 16 34  1  6  0  0  0
 16 25  1  0  0  0  0
 17  5  1  0  0  0  0
 18 11  1  0  0  0  0
 19  9  2  0  0  0  0
 20  8  1  0  0  0  0
 22 31  1  6  0  0  0
 22 18  1  0  0  0  0
 23 11  1  0  0  0  0
 23 21  2  0  0  0  0
 24 23  1  0  0  0  0
 26 27  1  0  0  0  0
 26 12  1  0  0  0  0
 27 28  1  1  0  0  0
 27 17  1  0  0  0  0
 28 16  1  0  0  0  0
 30 31  2  0  0  0  0
 31 29  1  0  0  0  0
 33 32  1  0  0  0  0
 34 33  1  0  0  0  0
 34 32  1  0  0  0  0
M  END
>  <MODEL>
4

>  <REMARK>
 VINA RESULT:      -3.7      2.621      7.713
  Name = 
  2 active torsions:
  status: ('A' for Active; 'I' for Inactive)
    1  A    between atoms: N_19  and  C_27
    2  A    between atoms: C_21  and  C_28
                            x       y       z     vdW  Elec       q    Type
                         _______ _______ _______ _____ _____    ______ ____

>  <TORSDO>
F 2

$$$$
=
 OpenBabel11052411083D

 34 39  0  0  1  0  0  0  0  0999 V2000
  162.7090  208.4310  155.9900 O   0  0  0  0  0  0  0  0  0  0  0  0
  161.4950  211.1970  147.3420 O   0  0  0  0  0  0  0  0  0  0  0  0
  161.3940  211.0040  149.6570 N   0  0  0  0  0  0  0  0  0  0  0  0
  162.3360  210.0340  150.1070 C   0  0  2  0  0  0  0  0  0  0  0  0
  161.8650  208.6190  149.7550 C   0  0  2  0  0  3  0  0  0  0  0  0
  158.3840  214.1410  147.4020 O   0  0  0  0  0  1  0  0  0  0  0  0
  160.3810  211.9800  151.9720 C   0  0  0  0  0  2  0  0  0  0  0  0
  159.9130  212.5460  148.4220 N   0  0  0  0  0  2  0  0  0  0  0  0
  159.3850  213.1910  147.2600 C   0  0  0  0  0  0  0  0  0  0  0  0
  160.7360  207.2000  153.1500 C   0  0  0  0  0  2  0  0  0  0  0  0
  161.8950  210.4750  155.1670 C   0  0  0  0  0  2  0  0  0  0  0  0
  161.2030  206.0230  152.5630 O   0  0  0  0  0  0  0  0  0  0  0  0
  160.5830  206.9930  154.6440 C   0  0  0  0  0  2  0  0  0  0  0  0
  161.1320  211.2480  151.0760 C   0  0  2  0  0  0  0  0  0  0  0  0
  162.0790  210.3110  151.4930 C   0  0  0  0  0  0  0  0  0  0  0  0
  162.3700  206.9390  147.9770 N   0  0  1  0  0  0  0  0  0  0  0  0
  162.6030  207.6160  150.5280 N   0  0  0  0  0  2  0  0  0  0  0  0
  161.7500  209.0290  155.5260 C   0  0  0  0  0  0  0  0  0  0  0  0
  159.8160  212.9120  146.1090 O   0  0  0  0  0  0  0  0  0  0  0  0
  160.9540  211.5630  148.4200 C   0  0  0  0  0  0  0  0  0  0  0  0
  160.6620  211.6870  153.3340 C   0  0  0  0  0  3  0  0  0  0  0  0
  160.4270  208.3310  155.3580 C   0  0  2  0  0  3  0  0  0  0  0  0
  161.6470  210.7120  153.7150 C   0  0  0  0  0  0  0  0  0  0  0  0
  162.3730  210.0170  152.7720 N   0  0  0  0  0  0  0  0  0  0  0  0
  162.0060  208.3370  148.2500 C   0  0  0  0  0  2  0  0  0  0  0  0
  160.7960  206.0970  151.2290 C   0  0  0  0  0  2  0  0  0  0  0  0
  162.0040  206.2880  150.3200 C   0  0  1  0  0  3  0  0  0  0  0  0
  161.5990  206.0590  148.8570 C   0  0  0  0  0  2  0  0  0  0  0  0
  159.2120  209.1410  157.2600 O   0  0  0  0  0  1  0  0  0  0  0  0
  159.6870  206.8980  157.2570 O   0  0  0  0  0  0  0  0  0  0  0  0
  159.7500  208.1590  156.6800 C   0  0  0  0  0  0  0  0  0  0  0  0
  162.7030  205.4210  146.1040 C   0  0  0  0  0  2  0  0  0  0  0  0
  161.2680  205.2960  146.5630 C   0  0  0  0  0  2  0  0  0  0  0  0
  161.9630  206.6460  146.6090 C   0  0  0  0  0  3  0  0  0  0  0  0
  2 20  2  0  0  0  0
  3  4  1  0  0  0  0
  3 14  1  0  0  0  0
  4 14  1  0  0  0  0
  4 15  1  6  0  0  0
  5 25  1  6  0  0  0
  5  4  1  0  0  0  0
  5 17  1  0  0  0  0
  7 21  1  0  0  0  0
  9  6  1  0  0  0  0
  9  8  1  0  0  0  0
 10 13  1  0  0  0  0
 11 18  1  0  0  0  0
 12 10  1  0  0  0  0
 13 22  1  0  0  0  0
 14 15  1  0  0  0  0
 14  7  1  1  0  0  0
 15 24  2  0  0  0  0
 16 34  1  6  0  0  0
 16 25  1  0  0  0  0
 16 28  1  0  0  0  0
 18  1  2  0  0  0  0
 19  9  2  0  0  0  0
 20  8  1  0  0  0  0
 20  3  1  0  0  0  0
 21 23  2  0  0  0  0
 22 18  1  0  0  0  0
 22 31  1  1  0  0  0
 23 11  1  0  0  0  0
 24 23  1  0  0  0  0
 26 12  1  0  0  0  0
 27 28  1  6  0  0  0
 27 17  1  0  0  0  0
 27 26  1  0  0  0  0
 31 30  2  0  0  0  0
 31 29  1  0  0  0  0
 32 33  1  0  0  0  0
 32 34  1  0  0  0  0
 33 34  1  0  0  0  0
M  END
>  <MODEL>
5

>  <REMARK>
 VINA RESULT:      -3.5      2.418      8.367
  Name = 
  2 active torsions:
  status: ('A' for Active; 'I' for Inactive)
    1  A    between atoms: N_19  and  C_27
    2  A    between atoms: C_21  and  C_28
                            x       y       z     vdW  Elec       q    Type
                         _______ _______ _______ _____ _____    ______ ____

>  <TORSDO>
F 2

$$$$
