=
 OpenBabel11052409563D

 29 33  0  0  1  0  0  0  0  0999 V2000
  161.9990  207.2970  152.9490 C   0  0  2  0  0  3  0  0  0  0  0  0
  160.4770  209.3270  152.4210 C   0  0  0  0  0  2  0  0  0  0  0  0
  161.7140  206.8720  151.5020 C   0  0  0  0  0  0  0  0  0  0  0  0
  161.1310  206.5130  153.9320 C   0  0  0  0  0  2  0  0  0  0  0  0
  160.3170  207.6820  154.2710 N   0  0  0  0  0  0  0  0  0  0  0  0
  161.2160  208.5100  153.4740 C   0  0  1  0  0  3  0  0  0  0  0  0
  161.5000  209.8900  151.5050 C   0  0  0  0  0  3  0  0  0  0  0  0
  162.1110  209.1450  150.6400 N   0  0  0  0  0  0  0  0  0  0  0  0
  161.8710  207.7290  150.4460 C   0  0  0  0  0  0  0  0  0  0  0  0
  161.3800  204.9820  143.6910 N   0  0  0  0  0  1  0  0  0  0  0  0
  161.4180  205.5440  144.9900 C   0  0  0  0  0  0  0  0  0  0  0  0
  162.2780  206.2380  146.8910 C   0  0  0  0  0  0  0  0  0  0  0  0
  162.5560  205.5900  145.7440 N   0  0  0  0  0  0  0  0  0  0  0  0
  161.0120  206.6660  147.0730 C   0  0  0  0  0  0  0  0  0  0  0  0
  161.8410  207.2680  149.0320 C   0  0  0  0  0  0  0  0  0  0  0  0
  163.1910  206.5400  148.2520 S   0  0  0  0  0  0  0  0  0  0  0  0
  160.0600  206.2770  145.7450 S   0  0  0  0  0  0  0  0  0  0  0  0
  160.7150  207.2420  148.2570 N   0  0  0  0  0  0  0  0  0  0  0  0
  160.1190  203.7480  150.0870 C   0  0  0  0  0  3  0  0  0  0  0  0
  160.3770  205.0980  150.3630 C   0  0  0  0  0  3  0  0  0  0  0  0
  161.8980  203.1090  151.6080 C   0  0  0  0  0  3  0  0  0  0  0  0
  162.1620  204.4520  151.8740 C   0  0  0  0  0  3  0  0  0  0  0  0
  161.3850  205.4500  151.2710 C   0  0  0  0  0  0  0  0  0  0  0  0
  160.8720  202.7440  150.7280 C   0  0  0  0  0  0  0  0  0  0  0  0
  160.8980  200.7760  149.2410 C   0  0  0  0  0  1  0  0  0  0  0  0
  160.6280  201.3890  150.4960 O   0  0  0  0  0  0  0  0  0  0  0  0
  160.4050  208.0260  155.7060 C   0  0  0  0  0  3  0  0  0  0  0  0
  159.7050  209.3550  155.9860 C   0  0  0  0  0  1  0  0  0  0  0  0
  159.8670  206.9510  156.6660 C   0  0  0  0  0  1  0  0  0  0  0  0
  1  6  1  0  0  0  0
  1  4  1  1  0  0  0
  3  1  1  0  0  0  0
  4  5  1  0  0  0  0
  5 27  1  0  0  0  0
  6  2  1  6  0  0  0
  6  5  1  0  0  0  0
  7  2  1  0  0  0  0
  8  7  2  0  0  0  0
  9  8  1  0  0  0  0
  9  3  2  0  0  0  0
 10 11  1  0  0  0  0
 11 13  2  0  0  0  0
 11 17  1  0  0  0  0
 12 14  2  0  0  0  0
 12 16  1  0  0  0  0
 13 12  1  0  0  0  0
 14 18  1  0  0  0  0
 15  9  1  0  0  0  0
 16 15  1  0  0  0  0
 17 14  1  0  0  0  0
 18 15  2  0  0  0  0
 19 20  2  0  0  0  0
 19 24  1  0  0  0  0
 20 23  1  0  0  0  0
 21 22  1  0  0  0  0
 23  3  1  0  0  0  0
 23 22  2  0  0  0  0
 24 21  2  0  0  0  0
 25 26  1  0  0  0  0
 26 24  1  0  0  0  0
 27 28  1  0  0  0  0
 27 29  1  0  0  0  0
M  END
>  <MODEL>
1

>  <REMARK>
 VINA RESULT:      -7.3      0.000      0.000
  Name = 
  4 active torsions:
  status: ('A' for Active; 'I' for Inactive)
    1  A    between atoms: C_7  and  N_19
    2  A    between atoms: C_13  and  C_21
    3  A    between atoms: C_16  and  C_26
    4  A    between atoms: C_28  and  O_29
                            x       y       z     vdW  Elec       q    Type
                         _______ _______ _______ _____ _____    ______ ____

>  <TORSDO>
F 4

$$$$
=
 OpenBabel11052409563D

 29 33  0  0  1  0  0  0  0  0999 V2000
  160.3160  206.1110  149.9990 C   0  0  2  0  0  3  0  0  0  0  0  0
  161.8060  205.0320  151.8230 C   0  0  0  0  0  2  0  0  0  0  0  0
  160.8030  204.9620  149.1050 C   0  0  0  0  0  0  0  0  0  0  0  0
  161.0830  207.3990  149.7020 C   0  0  0  0  0  2  0  0  0  0  0  0
  161.7960  207.3660  150.9790 N   0  0  0  0  0  0  0  0  0  0  0  0
  160.9730  206.2290  151.3820 C   0  0  1  0  0  3  0  0  0  0  0  0
  160.8870  203.8720  151.9260 C   0  0  0  0  0  3  0  0  0  0  0  0
  160.4250  203.2840  150.8690 N   0  0  0  0  0  0  0  0  0  0  0  0
  160.7470  203.6540  149.5050 C   0  0  0  0  0  0  0  0  0  0  0  0
  161.2710  197.9880  144.9180 N   0  0  0  0  0  1  0  0  0  0  0  0
  161.1560  199.1240  145.7550 C   0  0  0  0  0  0  0  0  0  0  0  0
  161.4180  200.3790  147.5420 C   0  0  0  0  0  0  0  0  0  0  0  0
  161.6170  199.1450  147.0410 N   0  0  0  0  0  0  0  0  0  0  0  0
  160.8210  201.2860  146.7420 C   0  0  0  0  0  0  0  0  0  0  0  0
  160.9790  202.5210  148.5680 C   0  0  0  0  0  0  0  0  0  0  0  0
  161.6650  201.0220  149.0590 S   0  0  0  0  0  0  0  0  0  0  0  0
  160.4770  200.6160  145.2400 S   0  0  0  0  0  0  0  0  0  0  0  0
  160.5470  202.4970  147.2720 N   0  0  0  0  0  0  0  0  0  0  0  0
  162.8630  205.2200  145.9430 C   0  0  0  0  0  3  0  0  0  0  0  0
  162.4970  204.9600  147.2710 C   0  0  0  0  0  3  0  0  0  0  0  0
  160.6590  206.1500  145.5310 C   0  0  0  0  0  3  0  0  0  0  0  0
  160.2920  205.8810  146.8490 C   0  0  0  0  0  3  0  0  0  0  0  0
  161.2180  205.3090  147.7310 C   0  0  0  0  0  0  0  0  0  0  0  0
  161.9430  205.8370  145.0700 C   0  0  0  0  0  0  0  0  0  0  0  0
  161.4370  205.7820  142.6560 C   0  0  0  0  0  1  0  0  0  0  0  0
  162.2800  206.1320  143.7470 O   0  0  0  0  0  0  0  0  0  0  0  0
  161.5100  208.5530  151.8100 C   0  0  0  0  0  3  0  0  0  0  0  0
  161.5410  208.1940  153.2940 C   0  0  0  0  0  1  0  0  0  0  0  0
  162.4280  209.7610  151.5550 C   0  0  0  0  0  1  0  0  0  0  0  0
  1  4  1  6  0  0  0
  1  6  1  0  0  0  0
  2  7  1  0  0  0  0
  3  9  2  0  0  0  0
  3  1  1  0  0  0  0
  4  5  1  0  0  0  0
  5  6  1  0  0  0  0
  5 27  1  0  0  0  0
  6  2  1  6  0  0  0
  8  7  2  0  0  0  0
  9  8  1  0  0  0  0
 10 11  1  0  0  0  0
 11 13  2  0  0  0  0
 12 16  1  0  0  0  0
 13 12  1  0  0  0  0
 14 18  1  0  0  0  0
 14 12  2  0  0  0  0
 15 16  1  0  0  0  0
 15  9  1  0  0  0  0
 17 11  1  0  0  0  0
 17 14  1  0  0  0  0
 18 15  2  0  0  0  0
 19 20  1  0  0  0  0
 20 23  2  0  0  0  0
 21 22  2  0  0  0  0
 22 23  1  0  0  0  0
 23  3  1  0  0  0  0
 24 21  1  0  0  0  0
 24 19  2  0  0  0  0
 25 26  1  0  0  0  0
 26 24  1  0  0  0  0
 27 28  1  0  0  0  0
 29 27  1  0  0  0  0
M  END
>  <MODEL>
2

>  <REMARK>
 VINA RESULT:      -6.2      3.357      5.494
  Name = 
  4 active torsions:
  status: ('A' for Active; 'I' for Inactive)
    1  A    between atoms: C_7  and  N_19
    2  A    between atoms: C_13  and  C_21
    3  A    between atoms: C_16  and  C_26
    4  A    between atoms: C_28  and  O_29
                            x       y       z     vdW  Elec       q    Type
                         _______ _______ _______ _____ _____    ______ ____

>  <TORSDO>
F 4

$$$$
=
 OpenBabel11052409563D

 29 33  0  0  1  0  0  0  0  0999 V2000
  162.3520  205.5720  150.4440 C   0  0  2  0  0  3  0  0  0  0  0  0
  160.1940  204.3410  151.1810 C   0  0  0  0  0  2  0  0  0  0  0  0
  161.7590  206.7810  151.1810 C   0  0  0  0  0  0  0  0  0  0  0  0
  162.1350  205.6900  148.9360 C   0  0  0  0  0  2  0  0  0  0  0  0
  161.1570  204.6010  148.9090 N   0  0  0  0  0  0  0  0  0  0  0  0
  161.4480  204.3370  150.3150 C   0  0  1  0  0  3  0  0  0  0  0  0
  160.6390  204.3520  152.5970 C   0  0  0  0  0  3  0  0  0  0  0  0
  161.1350  205.4200  153.1370 N   0  0  0  0  0  0  0  0  0  0  0  0
  161.2930  206.6940  152.4650 C   0  0  0  0  0  0  0  0  0  0  0  0
  159.9910  212.9180  156.0700 N   0  0  0  0  0  1  0  0  0  0  0  0
  160.1970  211.7290  155.3280 C   0  0  0  0  0  0  0  0  0  0  0  0
  160.8440  209.6690  154.9100 C   0  0  0  0  0  0  0  0  0  0  0  0
  160.8790  210.6550  155.8270 N   0  0  0  0  0  0  0  0  0  0  0  0
  160.2090  209.9230  153.7470 C   0  0  0  0  0  0  0  0  0  0  0  0
  160.9490  207.8950  153.2740 C   0  0  0  0  0  0  0  0  0  0  0  0
  161.5550  208.1630  154.8620 S   0  0  0  0  0  0  0  0  0  0  0  0
  159.5740  211.4780  153.7470 S   0  0  0  0  0  0  0  0  0  0  0  0
  160.2450  208.9650  152.7970 N   0  0  0  0  0  0  0  0  0  0  0  0
  162.5080  210.4200  150.4720 C   0  0  0  0  0  3  0  0  0  0  0  0
  162.3730  209.2010  151.1500 C   0  0  0  0  0  3  0  0  0  0  0  0
  161.5780  209.3990  148.4770 C   0  0  0  0  0  3  0  0  0  0  0  0
  161.4540  208.1840  149.1480 C   0  0  0  0  0  3  0  0  0  0  0  0
  161.8270  208.0870  150.4950 C   0  0  0  0  0  0  0  0  0  0  0  0
  162.0910  210.5260  149.1300 C   0  0  0  0  0  0  0  0  0  0  0  0
  161.1830  212.1610  147.5200 C   0  0  0  0  0  1  0  0  0  0  0  0
  162.1890  211.7310  148.4290 O   0  0  0  0  0  0  0  0  0  0  0  0
  161.5950  203.4780  148.0530 C   0  0  0  0  0  3  0  0  0  0  0  0
  160.7630  202.2290  148.3340 C   0  0  0  0  0  1  0  0  0  0  0  0
  161.5850  203.7720  146.5420 C   0  0  0  0  0  1  0  0  0  0  0  0
  1  4  1  6  0  0  0
  1  3  1  0  0  0  0
  2  7  1  0  0  0  0
  3  9  2  0  0  0  0
  5  4  1  0  0  0  0
  5  6  1  0  0  0  0
  6  1  1  0  0  0  0
  6  2  1  1  0  0  0
  7  8  2  0  0  0  0
  9  8  1  0  0  0  0
  9 15  1  0  0  0  0
 11 13  2  0  0  0  0
 11 10  1  0  0  0  0
 12 13  1  0  0  0  0
 14 12  2  0  0  0  0
 15 16  1  0  0  0  0
 16 12  1  0  0  0  0
 17 14  1  0  0  0  0
 17 11  1  0  0  0  0
 18 15  2  0  0  0  0
 18 14  1  0  0  0  0
 19 20  1  0  0  0  0
 21 24  1  0  0  0  0
 21 22  2  0  0  0  0
 22 23  1  0  0  0  0
 23 20  2  0  0  0  0
 23  3  1  0  0  0  0
 24 19  2  0  0  0  0
 25 26  1  0  0  0  0
 26 24  1  0  0  0  0
 27 28  1  0  0  0  0
 27  5  1  0  0  0  0
 29 27  1  0  0  0  0
M  END
>  <MODEL>
3

>  <REMARK>
 VINA RESULT:      -4.9      3.572      7.810
  Name = 
  4 active torsions:
  status: ('A' for Active; 'I' for Inactive)
    1  A    between atoms: C_7  and  N_19
    2  A    between atoms: C_13  and  C_21
    3  A    between atoms: C_16  and  C_26
    4  A    between atoms: C_28  and  O_29
                            x       y       z     vdW  Elec       q    Type
                         _______ _______ _______ _____ _____    ______ ____

>  <TORSDO>
F 4

$$$$
=
 OpenBabel11052409563D

 29 33  0  0  1  0  0  0  0  0999 V2000
  161.9950  203.2290  148.4580 C   0  0  2  0  0  3  0  0  0  0  0  0
  159.8810  201.9670  149.2660 C   0  0  0  0  0  2  0  0  0  0  0  0
  161.5560  204.3260  149.4370 C   0  0  0  0  0  0  0  0  0  0  0  0
  161.6070  203.5860  147.0240 C   0  0  0  0  0  2  0  0  0  0  0  0
  160.5790  202.5460  146.9560 N   0  0  0  0  0  0  0  0  0  0  0  0
  161.0210  202.0580  148.2590 C   0  0  1  0  0  3  0  0  0  0  0  0
  160.4910  201.7440  150.6000 C   0  0  0  0  0  3  0  0  0  0  0  0
  161.1000  202.6980  151.2290 N   0  0  0  0  0  0  0  0  0  0  0  0
  161.2430  204.0560  150.7420 C   0  0  0  0  0  0  0  0  0  0  0  0
  160.9110  209.5200  155.5850 N   0  0  0  0  0  1  0  0  0  0  0  0
  160.9550  208.5030  154.6010 C   0  0  0  0  0  0  0  0  0  0  0  0
  160.9930  206.4690  153.7650 C   0  0  0  0  0  0  0  0  0  0  0  0
  161.0360  207.1750  154.9120 N   0  0  0  0  0  0  0  0  0  0  0  0
  160.9100  207.1610  152.6110 C   0  0  0  0  0  0  0  0  0  0  0  0
  161.0590  205.1270  151.7580 C   0  0  0  0  0  0  0  0  0  0  0  0
  161.1420  204.8390  153.4520 S   0  0  0  0  0  0  0  0  0  0  0  0
  160.8590  208.8130  152.9130 S   0  0  0  0  0  0  0  0  0  0  0  0
  160.9500  206.4570  151.4600 N   0  0  0  0  0  0  0  0  0  0  0  0
  160.5220  207.6330  147.9190 C   0  0  0  0  0  3  0  0  0  0  0  0
  160.4990  206.2870  148.3100 C   0  0  0  0  0  3  0  0  0  0  0  0
  162.7560  207.8490  148.8410 C   0  0  0  0  0  3  0  0  0  0  0  0
  162.7290  206.5130  149.2390 C   0  0  0  0  0  3  0  0  0  0  0  0
  161.6090  205.7210  148.9520 C   0  0  0  0  0  0  0  0  0  0  0  0
  161.6660  208.4160  148.1700 C   0  0  0  0  0  0  0  0  0  0  0  0
  162.0700  210.7960  148.6840 C   0  0  0  0  0  1  0  0  0  0  0  0
  161.7350  209.7540  147.7750 O   0  0  0  0  0  0  0  0  0  0  0  0
  160.8540  201.5570  145.8930 C   0  0  0  0  0  3  0  0  0  0  0  0
  161.1160  200.1780  146.4950 C   0  0  0  0  0  1  0  0  0  0  0  0
  159.7650  201.4470  144.8110 C   0  0  0  0  0  1  0  0  0  0  0  0
  1  4  1  6  0  0  0
  1  3  1  0  0  0  0
  2  7  1  0  0  0  0
  3  9  2  0  0  0  0
  5  4  1  0  0  0  0
  5  6  1  0  0  0  0
  6  1  1  0  0  0  0
  6  2  1  1  0  0  0
  7  8  2  0  0  0  0
  9  8  1  0  0  0  0
  9 15  1  0  0  0  0
 11 13  2  0  0  0  0
 11 10  1  0  0  0  0
 12 13  1  0  0  0  0
 14 17  1  0  0  0  0
 14 12  2  0  0  0  0
 15 16  1  0  0  0  0
 16 12  1  0  0  0  0
 17 11  1  0  0  0  0
 18 15  2  0  0  0  0
 18 14  1  0  0  0  0
 19 24  2  0  0  0  0
 19 20  1  0  0  0  0
 20 23  2  0  0  0  0
 21 22  2  0  0  0  0
 23 22  1  0  0  0  0
 23  3  1  0  0  0  0
 24 21  1  0  0  0  0
 26 24  1  0  0  0  0
 26 25  1  0  0  0  0
 27 28  1  0  0  0  0
 27  5  1  0  0  0  0
 29 27  1  0  0  0  0
M  END
>  <MODEL>
4

>  <REMARK>
 VINA RESULT:      -4.4      3.176      7.812
  Name = 
  4 active torsions:
  status: ('A' for Active; 'I' for Inactive)
    1  A    between atoms: C_7  and  N_19
    2  A    between atoms: C_13  and  C_21
    3  A    between atoms: C_16  and  C_26
    4  A    between atoms: C_28  and  O_29
                            x       y       z     vdW  Elec       q    Type
                         _______ _______ _______ _____ _____    ______ ____

>  <TORSDO>
F 4

$$$$
=
 OpenBabel11052409563D

 29 33  0  0  1  0  0  0  0  0999 V2000
  162.5190  205.7510  148.8420 C   0  0  2  0  0  3  0  0  0  0  0  0
  160.4460  204.2320  149.1720 C   0  0  0  0  0  2  0  0  0  0  0  0
  161.9030  206.6130  149.9530 C   0  0  0  0  0  0  0  0  0  0  0  0
  162.2400  206.3520  147.4650 C   0  0  0  0  0  2  0  0  0  0  0  0
  161.3100  205.2830  147.0970 N   0  0  0  0  0  0  0  0  0  0  0  0
  161.6650  204.5820  148.3270 C   0  0  1  0  0  3  0  0  0  0  0  0
  160.9430  203.7960  150.5000 C   0  0  0  0  0  3  0  0  0  0  0  0
  161.4120  204.6480  151.3550 N   0  0  0  0  0  0  0  0  0  0  0  0
  161.4900  206.0800  151.1440 C   0  0  0  0  0  0  0  0  0  0  0  0
  160.1410  210.6280  156.7040 N   0  0  0  0  0  1  0  0  0  0  0  0
  160.3620  209.7830  155.5900 C   0  0  0  0  0  0  0  0  0  0  0  0
  160.9390  207.9730  154.4820 C   0  0  0  0  0  0  0  0  0  0  0  0
  160.9280  208.5450  155.7010 N   0  0  0  0  0  0  0  0  0  0  0  0
  160.4480  208.6930  153.4530 C   0  0  0  0  0  0  0  0  0  0  0  0
  161.1260  206.9250  152.3140 C   0  0  0  0  0  0  0  0  0  0  0  0
  161.5700  206.5330  153.9290 S   0  0  0  0  0  0  0  0  0  0  0  0
  159.9000  210.1890  153.9860 S   0  0  0  0  0  0  0  0  0  0  0  0
  160.5350  208.1530  152.2190 N   0  0  0  0  0  0  0  0  0  0  0  0
  162.3970  210.3200  150.5190 C   0  0  0  0  0  3  0  0  0  0  0  0
  162.3380  208.9390  150.7490 C   0  0  0  0  0  3  0  0  0  0  0  0
  161.5850  209.9650  148.2600 C   0  0  0  0  0  3  0  0  0  0  0  0
  161.5370  208.5900  148.4860 C   0  0  0  0  0  3  0  0  0  0  0  0
  161.8890  208.0750  149.7400 C   0  0  0  0  0  0  0  0  0  0  0  0
  162.0010  210.8400  149.2700 C   0  0  0  0  0  0  0  0  0  0  0  0
  162.7070  212.7600  147.8900 C   0  0  0  0  0  1  0  0  0  0  0  0
  162.0240  212.2130  149.0120 O   0  0  0  0  0  0  0  0  0  0  0  0
  161.7630  204.5330  145.9060 C   0  0  0  0  0  3  0  0  0  0  0  0
  161.2060  203.1110  145.9200 C   0  0  0  0  0  1  0  0  0  0  0  0
  161.4380  205.1990  144.5570 C   0  0  0  0  0  1  0  0  0  0  0  0
  1  4  1  6  0  0  0
  1  3  1  0  0  0  0
  2  7  1  0  0  0  0
  3  9  2  0  0  0  0
  5  4  1  0  0  0  0
  5  6  1  0  0  0  0
  6  1  1  0  0  0  0
  6  2  1  1  0  0  0
  7  8  2  0  0  0  0
  9  8  1  0  0  0  0
  9 15  1  0  0  0  0
 11 13  2  0  0  0  0
 11 10  1  0  0  0  0
 12 13  1  0  0  0  0
 14 17  1  0  0  0  0
 14 12  2  0  0  0  0
 15 16  1  0  0  0  0
 16 12  1  0  0  0  0
 17 11  1  0  0  0  0
 18 15  2  0  0  0  0
 18 14  1  0  0  0  0
 19 20  1  0  0  0  0
 21 22  2  0  0  0  0
 21 24  1  0  0  0  0
 22 23  1  0  0  0  0
 23  3  1  0  0  0  0
 23 20  2  0  0  0  0
 24 19  2  0  0  0  0
 25 26  1  0  0  0  0
 26 24  1  0  0  0  0
 27 28  1  0  0  0  0
 27  5  1  0  0  0  0
 29 27  1  0  0  0  0
M  END
>  <MODEL>
5

>  <REMARK>
 VINA RESULT:      -4.3      3.343      8.033
  Name = 
  4 active torsions:
  status: ('A' for Active; 'I' for Inactive)
    1  A    between atoms: C_7  and  N_19
    2  A    between atoms: C_13  and  C_21
    3  A    between atoms: C_16  and  C_26
    4  A    between atoms: C_28  and  O_29
                            x       y       z     vdW  Elec       q    Type
                         _______ _______ _______ _____ _____    ______ ____

>  <TORSDO>
F 4

$$$$
