=
 OpenBabel11042421523D

 47 51  0  0  1  0  0  0  0  0999 V2000
  160.6580  203.4680  152.5240 C   0  0  0  0  0  3  0  0  0  0  0  0
  161.4820  205.7260  153.0450 C   0  0  0  0  0  0  0  0  0  0  0  0
  161.3760  203.4960  151.1820 C   0  0  0  0  0  0  0  0  0  0  0  0
  162.0930  204.5550  150.8440 C   0  0  0  0  0  3  0  0  0  0  0  0
  161.5950  206.7240  153.8340 N   0  0  0  0  0  0  0  0  0  0  0  0
  161.9650  205.7960  151.6170 C   0  0  2  0  0  3  0  0  0  0  0  0
  160.7510  204.4740  153.3460 C   0  0  0  0  0  3  0  0  0  0  0  0
  161.4900  201.1080  150.6840 O   0  0  0  0  0  0  0  0  0  0  0  0
  161.2330  202.2970  150.3170 C   0  0  0  0  0  0  0  0  0  0  0  0
  159.5700  202.3180  148.6400 O   0  0  0  0  0  0  0  0  0  0  0  0
  161.6360  202.9290  147.8990 N   0  0  0  0  0  2  0  0  0  0  0  0
  160.7730  202.5310  148.9310 C   0  0  0  0  0  0  0  0  0  0  0  0
  162.3650  205.6920  145.7220 C   0  0  0  0  0  3  0  0  0  0  0  0
  160.8150  204.3330  144.5590 C   0  0  0  0  0  3  0  0  0  0  0  0
  162.4150  204.7670  146.7410 C   0  0  0  0  0  3  0  0  0  0  0  0
  160.8450  203.3910  145.5880 C   0  0  0  0  0  3  0  0  0  0  0  0
  161.6290  203.6630  146.6940 C   0  0  0  0  0  0  0  0  0  0  0  0
  161.5460  205.5070  144.6090 C   0  0  0  0  0  3  0  0  0  0  0  0
  161.0990  207.1800  155.0200 O   0  0  0  0  0  0  0  0  0  0  0  0
  160.8770  208.5670  155.2850 C   0  0  0  0  0  2  0  0  0  0  0  0
  160.6490  209.2870  153.9900 C   0  0  0  0  0  2  0  0  0  0  0  0
  161.1920  210.6670  154.3930 C   0  0  0  0  0  2  0  0  0  0  0  0
  160.3670  211.7510  154.8930 C   0  0  1  0  0  3  0  0  0  0  0  0
  158.8490  213.8160  154.2430 O   0  0  0  0  0  1  0  0  0  0  0  0
  157.9660  211.4640  153.6840 O   0  0  0  0  0  1  0  0  0  0  0  0
  159.2480  212.3960  153.9140 P   0  0  0  0  0  0  0  0  0  0  0  0
  160.1600  212.3220  152.5530 O   0  0  0  0  0  0  0  0  0  0  0  0
  159.2570  211.4540  157.1140 C   0  0  0  0  0  1  0  0  0  0  0  0
  160.5550  212.0790  156.3440 C   0  0  0  0  0  2  0  0  0  0  0  0
  162.5090  206.9780  150.9250 C   0  0  0  0  0  2  0  0  0  0  0  0
  161.8570  207.9670  148.2410 C   0  0  0  0  0  2  0  0  0  0  0  0
  161.4690  209.4120  150.8520 C   0  0  0  0  0  2  0  0  0  0  0  0
  160.7920  207.5330  149.2760 C   0  0  0  0  0  2  0  0  0  0  0  0
  161.2910  207.8560  150.6670 C   0  0  1  0  0  3  0  0  0  0  0  0
  162.1160  209.9930  149.6930 C   0  0  1  0  0  3  0  0  0  0  0  0
  162.5710  209.3190  148.5060 C   0  0  0  0  0  2  0  0  0  0  0  0
  161.8190  211.3880  149.4060 N   0  0  0  0  0  2  0  0  0  0  0  0
  160.2100  213.3410  145.0170 C   0  0  2  0  0  3  0  0  0  0  0  0
  160.9530  213.9870  143.9650 C   0  0  0  0  0  2  0  0  0  0  0  0
  163.1140  213.4470  145.0760 C   0  0  0  0  0  2  0  0  0  0  0  0
  162.3730  213.0080  146.3220 C   0  0  0  0  0  0  0  0  0  0  0  0
  162.2920  214.3630  144.3710 O   0  0  0  0  0  0  0  0  0  0  0  0
  162.9180  212.5800  147.5110 C   0  0  0  0  0  3  0  0  0  0  0  0
  161.0040  212.8970  146.1860 C   0  0  0  0  0  0  0  0  0  0  0  0
  158.9840  212.5890  144.6560 C   0  0  0  0  0  1  0  0  0  0  0  0
  160.4170  212.2370  147.5990 S   0  0  0  0  0  0  0  0  0  0  0  0
  161.8570  212.0940  148.3220 C   0  0  0  0  0  0  0  0  0  0  0  0
  1  7  2  0  0  0  0
  2  7  1  0  0  0  0
  2  5  2  0  0  0  0
  3  1  1  0  0  0  0
  4  3  2  0  0  0  0
  4  6  1  0  0  0  0
  5 19  1  0  0  0  0
  6 30  1  1  0  0  0
  6  2  1  0  0  0  0
  9  8  2  0  0  0  0
  9  3  1  0  0  0  0
 10 12  2  0  0  0  0
 11 12  1  0  0  0  0
 12  9  1  0  0  0  0
 13 15  1  0  0  0  0
 14 18  1  0  0  0  0
 14 16  2  0  0  0  0
 16 17  1  0  0  0  0
 17 15  2  0  0  0  0
 17 11  1  0  0  0  0
 18 13  2  0  0  0  0
 19 20  1  0  0  0  0
 21 22  1  0  0  0  0
 21 20  1  0  0  0  0
 23 22  1  1  0  0  0
 23 29  1  0  0  0  0
 25 26  1  0  0  0  0
 26 24  1  0  0  0  0
 26 23  1  0  0  0  0
 27 26  2  0  0  0  0
 29 28  1  0  0  0  0
 31 36  1  0  0  0  0
 31 33  1  0  0  0  0
 33 34  1  0  0  0  0
 34 32  1  0  0  0  0
 34 30  1  6  0  0  0
 35 37  1  6  0  0  0
 35 32  1  0  0  0  0
 36 35  1  0  0  0  0
 38 45  1  6  0  0  0
 38 44  1  0  0  0  0
 39 42  1  0  0  0  0
 39 38  1  0  0  0  0
 40 41  1  0  0  0  0
 41 43  1  0  0  0  0
 42 40  1  0  0  0  0
 43 47  2  0  0  0  0
 44 41  2  0  0  0  0
 44 46  1  0  0  0  0
 46 47  1  0  0  0  0
 47 37  1  0  0  0  0
M  END
>  <MODEL>
1

>  <REMARK>
 VINA RESULT:      -7.6      0.000      0.000
  Name = 
  14 active torsions:
  status: ('A' for Active; 'I' for Inactive)
    1  A    between atoms: C_2  and  C_5
    2  A    between atoms: C_2  and  C_40
    3  A    between atoms: C_5  and  O_21
    4  A    between atoms: P_12  and  C_28
    5  A    between atoms: C_13  and  C_31
    6  A    between atoms: N_17  and  C_29
    7  A    between atoms: O_21  and  N_43
    8  A    between atoms: C_22  and  C_46
    9  A    between atoms: C_25  and  N_26
   10  A    between atoms: N_26  and  C_42
   11  A    between atoms: C_28  and  C_33
   12  A    between atoms: C_28  and  C_40
   13  A    between atoms: C_31  and  C_44
   14  A    between atoms: C_34  and  C_46
                            x       y       z     vdW  Elec       q    Type
                         _______ _______ _______ _____ _____    ______ ____

>  <TORSDO>
F 14

$$$$
=
 OpenBabel11042421523D

 47 51  0  0  1  0  0  0  0  0999 V2000
  160.7690  204.0740  152.9350 C   0  0  0  0  0  3  0  0  0  0  0  0
  161.5090  206.3890  153.3100 C   0  0  0  0  0  0  0  0  0  0  0  0
  161.5460  204.0190  151.6260 C   0  0  0  0  0  0  0  0  0  0  0  0
  162.2490  205.0700  151.2360 C   0  0  0  0  0  3  0  0  0  0  0  0
  161.5590  207.4490  154.0210 N   0  0  0  0  0  0  0  0  0  0  0  0
  162.0520  206.3620  151.9020 C   0  0  2  0  0  3  0  0  0  0  0  0
  160.7990  205.1430  153.6780 C   0  0  0  0  0  3  0  0  0  0  0  0
  161.8910  201.6280  151.2720 O   0  0  0  0  0  0  0  0  0  0  0  0
  161.4740  202.7520  150.8540 C   0  0  0  0  0  0  0  0  0  0  0  0
  159.6860  202.5050  149.3310 O   0  0  0  0  0  0  0  0  0  0  0  0
  161.6250  203.2140  148.3690 N   0  0  0  0  0  2  0  0  0  0  0  0
  160.8850  202.8350  149.4990 C   0  0  0  0  0  0  0  0  0  0  0  0
  161.0780  205.9500  146.1070 C   0  0  0  0  0  3  0  0  0  0  0  0
  160.8980  203.9790  144.8080 C   0  0  0  0  0  3  0  0  0  0  0  0
  161.4280  205.1960  147.2050 C   0  0  0  0  0  3  0  0  0  0  0  0
  161.2410  203.2000  145.9130 C   0  0  0  0  0  3  0  0  0  0  0  0
  161.4590  203.8440  147.1180 C   0  0  0  0  0  0  0  0  0  0  0  0
  160.7840  205.3560  144.8790 C   0  0  0  0  0  3  0  0  0  0  0  0
  160.9980  207.9810  155.1450 O   0  0  0  0  0  0  0  0  0  0  0  0
  160.9370  209.3880  155.3890 C   0  0  0  0  0  2  0  0  0  0  0  0
  160.2070  210.0540  154.2620 C   0  0  0  0  0  2  0  0  0  0  0  0
  160.0550  211.4540  154.8790 C   0  0  0  0  0  2  0  0  0  0  0  0
  158.8650  212.2730  154.7500 C   0  0  1  0  0  3  0  0  0  0  0  0
  156.6570  210.8970  155.2230 O   0  0  0  0  0  0  0  0  0  0  0  0
  156.8060  213.2800  156.1830 O   0  0  0  0  0  1  0  0  0  0  0  0
  157.6000  211.9700  155.7160 P   0  0  0  0  0  0  0  0  0  0  0  0
  158.4910  211.4550  156.9930 O   0  0  0  0  0  1  0  0  0  0  0  0
  157.7130  213.2980  152.7810 C   0  0  0  0  0  1  0  0  0  0  0  0
  158.9850  213.4260  153.7990 C   0  0  0  0  0  2  0  0  0  0  0  0
  162.5960  207.5030  151.1420 C   0  0  0  0  0  2  0  0  0  0  0  0
  161.8770  208.3240  148.4190 C   0  0  0  0  0  2  0  0  0  0  0  0
  161.5840  209.9420  150.9400 C   0  0  0  0  0  2  0  0  0  0  0  0
  160.8370  207.9740  149.5100 C   0  0  0  0  0  2  0  0  0  0  0  0
  161.3810  208.3800  150.8630 C   0  0  1  0  0  3  0  0  0  0  0  0
  162.2040  210.4370  149.7270 C   0  0  1  0  0  3  0  0  0  0  0  0
  162.6150  209.6810  148.5750 C   0  0  0  0  0  2  0  0  0  0  0  0
  161.9160  211.8140  149.3580 N   0  0  0  0  0  2  0  0  0  0  0  0
  157.6630  214.2420  148.0580 C   0  0  2  0  0  3  0  0  0  0  0  0
  157.0070  214.3360  146.7800 C   0  0  0  0  0  2  0  0  0  0  0  0
  158.5900  212.6970  145.7770 C   0  0  0  0  0  2  0  0  0  0  0  0
  159.4660  212.7770  147.0100 C   0  0  0  0  0  0  0  0  0  0  0  0
  157.8470  213.9020  145.6810 O   0  0  0  0  0  0  0  0  0  0  0  0
  160.6670  212.1420  147.2240 C   0  0  0  0  0  3  0  0  0  0  0  0
  158.9160  213.4520  148.0810 C   0  0  0  0  0  0  0  0  0  0  0  0
  156.8310  214.3020  149.2850 C   0  0  0  0  0  1  0  0  0  0  0  0
  159.9550  213.2670  149.3710 S   0  0  0  0  0  0  0  0  0  0  0  0
  161.0320  212.3530  148.5810 C   0  0  0  0  0  0  0  0  0  0  0  0
  1  7  2  0  0  0  0
  2  7  1  0  0  0  0
  2  5  2  0  0  0  0
  3  1  1  0  0  0  0
  4  3  2  0  0  0  0
  4  6  1  0  0  0  0
  5 19  1  0  0  0  0
  6 30  1  1  0  0  0
  6  2  1  0  0  0  0
  9  8  2  0  0  0  0
  9  3  1  0  0  0  0
 10 12  2  0  0  0  0
 11 12  1  0  0  0  0
 12  9  1  0  0  0  0
 13 15  1  0  0  0  0
 14 18  1  0  0  0  0
 14 16  2  0  0  0  0
 16 17  1  0  0  0  0
 17 15  2  0  0  0  0
 17 11  1  0  0  0  0
 18 13  2  0  0  0  0
 19 20  1  0  0  0  0
 21 22  1  0  0  0  0
 21 20  1  0  0  0  0
 23 29  1  1  0  0  0
 23 22  1  0  0  0  0
 23 26  1  0  0  0  0
 24 26  2  0  0  0  0
 26 25  1  0  0  0  0
 26 27  1  0  0  0  0
 28 29  1  0  0  0  0
 31 36  1  0  0  0  0
 31 33  1  0  0  0  0
 33 34  1  0  0  0  0
 34 32  1  0  0  0  0
 34 30  1  6  0  0  0
 35 37  1  6  0  0  0
 35 32  1  0  0  0  0
 36 35  1  0  0  0  0
 38 44  1  0  0  0  0
 38 45  1  1  0  0  0
 39 38  1  0  0  0  0
 40 41  1  0  0  0  0
 41 43  1  0  0  0  0
 41 44  2  0  0  0  0
 42 40  1  0  0  0  0
 42 39  1  0  0  0  0
 43 47  2  0  0  0  0
 44 46  1  0  0  0  0
 47 37  1  0  0  0  0
 47 46  1  0  0  0  0
M  END
>  <MODEL>
2

>  <REMARK>
 VINA RESULT:      -6.9      1.875      2.305
  Name = 
  14 active torsions:
  status: ('A' for Active; 'I' for Inactive)
    1  A    between atoms: C_2  and  C_5
    2  A    between atoms: C_2  and  C_40
    3  A    between atoms: C_5  and  O_21
    4  A    between atoms: P_12  and  C_28
    5  A    between atoms: C_13  and  C_31
    6  A    between atoms: N_17  and  C_29
    7  A    between atoms: O_21  and  N_43
    8  A    between atoms: C_22  and  C_46
    9  A    between atoms: C_25  and  N_26
   10  A    between atoms: N_26  and  C_42
   11  A    between atoms: C_28  and  C_33
   12  A    between atoms: C_28  and  C_40
   13  A    between atoms: C_31  and  C_44
   14  A    between atoms: C_34  and  C_46
                            x       y       z     vdW  Elec       q    Type
                         _______ _______ _______ _____ _____    ______ ____

>  <TORSDO>
F 14

$$$$
=
 OpenBabel11042421523D

 47 51  0  0  1  0  0  0  0  0999 V2000
  161.5430  206.1120  154.1420 C   0  0  0  0  0  3  0  0  0  0  0  0
  161.1470  205.9840  151.7180 C   0  0  0  0  0  0  0  0  0  0  0  0
  161.0840  207.5640  154.1580 C   0  0  0  0  0  0  0  0  0  0  0  0
  160.6790  208.1360  153.0370 C   0  0  0  0  0  3  0  0  0  0  0  0
  161.1210  205.3330  150.6190 N   0  0  0  0  0  0  0  0  0  0  0  0
  160.9390  207.4780  151.7510 C   0  0  2  0  0  3  0  0  0  0  0  0
  161.5310  205.4260  153.0350 C   0  0  0  0  0  3  0  0  0  0  0  0
  161.5030  207.7400  156.5570 O   0  0  0  0  0  0  0  0  0  0  0  0
  161.1090  208.2620  155.4690 C   0  0  0  0  0  0  0  0  0  0  0  0
  161.4510  210.5990  155.4180 O   0  0  0  0  0  0  0  0  0  0  0  0
  159.2660  209.9910  155.6280 N   0  0  0  0  0  2  0  0  0  0  0  0
  160.6210  209.6590  155.4840 C   0  0  0  0  0  0  0  0  0  0  0  0
  157.8110  212.5200  153.5320 C   0  0  0  0  0  3  0  0  0  0  0  0
  156.7330  212.7080  155.6310 C   0  0  0  0  0  3  0  0  0  0  0  0
  158.4980  211.4140  153.9810 C   0  0  0  0  0  3  0  0  0  0  0  0
  157.4290  211.5960  156.1050 C   0  0  0  0  0  3  0  0  0  0  0  0
  158.3440  210.9940  155.2610 C   0  0  0  0  0  0  0  0  0  0  0  0
  156.9210  213.2090  154.3550 C   0  0  0  0  0  3  0  0  0  0  0  0
  161.4970  204.1240  150.1110 O   0  0  0  0  0  0  0  0  0  0  0  0
  160.5700  203.0640  149.8700 C   0  0  0  0  0  2  0  0  0  0  0  0
  160.9760  202.3240  148.6310 C   0  0  0  0  0  2  0  0  0  0  0  0
  161.4520  203.5200  147.7910 C   0  0  0  0  0  2  0  0  0  0  0  0
  161.3280  203.5990  146.3480 C   0  0  1  0  0  3  0  0  0  0  0  0
  160.6950  206.1640  146.2290 O   0  0  0  0  0  1  0  0  0  0  0  0
  161.3570  204.9960  144.0340 O   0  0  0  0  0  0  0  0  0  0  0  0
  161.5070  205.0400  145.6270 P   0  0  0  0  0  0  0  0  0  0  0  0
  163.1040  205.1950  145.9660 O   0  0  0  0  0  1  0  0  0  0  0  0
  159.6580  202.2800  145.0360 C   0  0  0  0  0  1  0  0  0  0  0  0
  161.1730  202.2830  145.6480 C   0  0  0  0  0  2  0  0  0  0  0  0
  160.7860  208.3750  150.5910 C   0  0  0  0  0  2  0  0  0  0  0  0
  161.3620  210.9820  151.8060 C   0  0  0  0  0  2  0  0  0  0  0  0
  162.3870  209.9400  149.1760 C   0  0  0  0  0  2  0  0  0  0  0  0
  162.3940  209.8330  151.7180 C   0  0  0  0  0  2  0  0  0  0  0  0
  162.1490  209.0420  150.4510 C   0  0  1  0  0  3  0  0  0  0  0  0
  161.7810  211.2450  149.3500 C   0  0  1  0  0  3  0  0  0  0  0  0
  161.0430  211.7300  150.4840 C   0  0  0  0  0  2  0  0  0  0  0  0
  162.3830  212.3500  148.6210 N   0  0  0  0  0  2  0  0  0  0  0  0
  160.0260  213.5200  144.2910 C   0  0  2  0  0  3  0  0  0  0  0  0
  160.5720  213.8020  142.9890 C   0  0  0  0  0  2  0  0  0  0  0  0
  162.8630  213.1970  143.7510 C   0  0  0  0  0  2  0  0  0  0  0  0
  162.3840  213.1570  145.1870 C   0  0  0  0  0  0  0  0  0  0  0  0
  161.9990  214.0510  143.0180 O   0  0  0  0  0  0  0  0  0  0  0  0
  163.1380  212.9210  146.3130 C   0  0  0  0  0  3  0  0  0  0  0  0
  161.0150  213.2270  145.3540 C   0  0  0  0  0  0  0  0  0  0  0  0
  158.6800  212.9010  144.3740 C   0  0  0  0  0  1  0  0  0  0  0  0
  160.6990  212.9870  146.9720 S   0  0  0  0  0  0  0  0  0  0  0  0
  162.2450  212.7890  147.4110 C   0  0  0  0  0  0  0  0  0  0  0  0
  1  3  1  0  0  0  0
  2  6  1  0  0  0  0
  2  7  1  0  0  0  0
  3  9  1  0  0  0  0
  4  3  2  0  0  0  0
  5  2  2  0  0  0  0
  6 30  1  6  0  0  0
  6  4  1  0  0  0  0
  7  1  2  0  0  0  0
  9 12  1  0  0  0  0
  9  8  2  0  0  0  0
 10 12  2  0  0  0  0
 12 11  1  0  0  0  0
 13 15  2  0  0  0  0
 13 18  1  0  0  0  0
 14 16  1  0  0  0  0
 15 17  1  0  0  0  0
 17 11  1  0  0  0  0
 17 16  2  0  0  0  0
 18 14  2  0  0  0  0
 19  5  1  0  0  0  0
 20 19  1  0  0  0  0
 21 20  1  0  0  0  0
 22 21  1  0  0  0  0
 23 29  1  6  0  0  0
 23 22  1  0  0  0  0
 25 26  2  0  0  0  0
 26 27  1  0  0  0  0
 26 24  1  0  0  0  0
 26 23  1  0  0  0  0
 28 29  1  0  0  0  0
 32 35  1  0  0  0  0
 32 34  1  0  0  0  0
 33 31  1  0  0  0  0
 34 30  1  1  0  0  0
 34 33  1  0  0  0  0
 35 37  1  1  0  0  0
 35 36  1  0  0  0  0
 36 31  1  0  0  0  0
 38 45  1  6  0  0  0
 38 44  1  0  0  0  0
 39 42  1  0  0  0  0
 39 38  1  0  0  0  0
 40 41  1  0  0  0  0
 41 44  2  0  0  0  0
 41 43  1  0  0  0  0
 42 40  1  0  0  0  0
 43 47  2  0  0  0  0
 44 46  1  0  0  0  0
 46 47  1  0  0  0  0
 47 37  1  0  0  0  0
M  END
>  <MODEL>
3

>  <REMARK>
 VINA RESULT:      -6.7      2.741      7.883
  Name = 
  14 active torsions:
  status: ('A' for Active; 'I' for Inactive)
    1  A    between atoms: C_2  and  C_5
    2  A    between atoms: C_2  and  C_40
    3  A    between atoms: C_5  and  O_21
    4  A    between atoms: P_12  and  C_28
    5  A    between atoms: C_13  and  C_31
    6  A    between atoms: N_17  and  C_29
    7  A    between atoms: O_21  and  N_43
    8  A    between atoms: C_22  and  C_46
    9  A    between atoms: C_25  and  N_26
   10  A    between atoms: N_26  and  C_42
   11  A    between atoms: C_28  and  C_33
   12  A    between atoms: C_28  and  C_40
   13  A    between atoms: C_31  and  C_44
   14  A    between atoms: C_34  and  C_46
                            x       y       z     vdW  Elec       q    Type
                         _______ _______ _______ _____ _____    ______ ____

>  <TORSDO>
F 14

$$$$
=
 OpenBabel11042421523D

 47 51  0  0  1  0  0  0  0  0999 V2000
  160.7240  212.5800  151.3050 C   0  0  0  0  0  3  0  0  0  0  0  0
  160.5280  210.8610  153.0520 C   0  0  0  0  0  0  0  0  0  0  0  0
  161.3380  211.5660  150.3500 C   0  0  0  0  0  0  0  0  0  0  0  0
  161.4980  210.3120  150.7400 C   0  0  0  0  0  3  0  0  0  0  0  0
  160.1620  210.4810  154.2150 N   0  0  0  0  0  0  0  0  0  0  0  0
  161.3560  209.9690  152.1600 C   0  0  2  0  0  3  0  0  0  0  0  0
  160.3460  212.2220  152.4990 C   0  0  0  0  0  3  0  0  0  0  0  0
  162.7300  211.6540  148.3460 O   0  0  0  0  0  0  0  0  0  0  0  0
  161.7190  212.0560  149.0010 C   0  0  0  0  0  0  0  0  0  0  0  0
  161.3120  214.2540  148.2350 O   0  0  0  0  0  0  0  0  0  0  0  0
  159.5080  212.8720  148.0730 N   0  0  0  0  0  2  0  0  0  0  0  0
  160.8520  213.0980  148.4070 C   0  0  0  0  0  0  0  0  0  0  0  0
  158.1980  213.9280  144.9000 C   0  0  0  0  0  3  0  0  0  0  0  0
  156.4840  214.3260  146.4820 C   0  0  0  0  0  3  0  0  0  0  0  0
  158.9700  213.3450  145.8800 C   0  0  0  0  0  3  0  0  0  0  0  0
  157.2570  213.7490  147.4890 C   0  0  0  0  0  3  0  0  0  0  0  0
  158.5250  213.3030  147.1600 C   0  0  0  0  0  0  0  0  0  0  0  0
  156.9380  214.4530  145.1800 C   0  0  0  0  0  3  0  0  0  0  0  0
  159.6830  211.0010  155.3820 O   0  0  0  0  0  0  0  0  0  0  0  0
  160.4440  211.8870  156.2040 C   0  0  0  0  0  2  0  0  0  0  0  0
  159.7710  213.2260  156.2430 C   0  0  0  0  0  2  0  0  0  0  0  0
  158.3150  212.7590  156.0840 C   0  0  0  0  0  2  0  0  0  0  0  0
  157.3360  213.4230  155.2440 C   0  0  1  0  0  3  0  0  0  0  0  0
  154.8170  213.9940  154.6790 O   0  0  0  0  0  0  0  0  0  0  0  0
  155.3870  213.3960  157.1160 O   0  0  0  0  0  1  0  0  0  0  0  0
  155.7620  213.2200  155.5700 P   0  0  0  0  0  0  0  0  0  0  0  0
  155.7320  211.6150  155.2360 O   0  0  0  0  0  1  0  0  0  0  0  0
  157.3580  213.8150  152.7740 C   0  0  0  0  0  1  0  0  0  0  0  0
  157.9050  214.3550  154.2160 C   0  0  0  0  0  2  0  0  0  0  0  0
  161.9220  208.6520  152.5050 C   0  0  0  0  0  2  0  0  0  0  0  0
  161.8780  206.0550  153.8680 C   0  0  0  0  0  2  0  0  0  0  0  0
  160.7750  206.6930  151.1410 C   0  0  0  0  0  2  0  0  0  0  0  0
  160.6230  206.9390  153.6690 C   0  0  0  0  0  2  0  0  0  0  0  0
  160.7480  207.6910  152.3620 C   0  0  1  0  0  3  0  0  0  0  0  0
  161.6460  205.5680  151.4210 C   0  0  1  0  0  3  0  0  0  0  0  0
  162.4170  205.3240  152.6100 C   0  0  0  0  0  2  0  0  0  0  0  0
  161.3380  204.3170  150.7460 N   0  0  0  0  0  2  0  0  0  0  0  0
  160.7480  201.3680  146.6690 C   0  0  2  0  0  3  0  0  0  0  0  0
  160.7690  201.7090  145.2700 C   0  0  0  0  0  2  0  0  0  0  0  0
  161.4560  204.0450  145.7880 C   0  0  0  0  0  2  0  0  0  0  0  0
  161.1810  203.8080  147.2590 C   0  0  0  0  0  0  0  0  0  0  0  0
  160.6670  203.1360  145.0370 O   0  0  0  0  0  0  0  0  0  0  0  0
  161.2820  204.7190  148.2850 C   0  0  0  0  0  3  0  0  0  0  0  0
  160.9410  202.4950  147.6100 C   0  0  0  0  0  0  0  0  0  0  0  0
  161.1990  200.0130  147.0710 C   0  0  0  0  0  1  0  0  0  0  0  0
  160.8450  202.4350  149.2730 S   0  0  0  0  0  0  0  0  0  0  0  0
  161.1170  204.0130  149.5070 C   0  0  0  0  0  0  0  0  0  0  0  0
  1  7  2  0  0  0  0
  2  5  2  0  0  0  0
  3  4  2  0  0  0  0
  3  1  1  0  0  0  0
  4  6  1  0  0  0  0
  5 19  1  0  0  0  0
  6 30  1  6  0  0  0
  6  2  1  0  0  0  0
  7  2  1  0  0  0  0
  8  9  2  0  0  0  0
  9  3  1  0  0  0  0
 10 12  2  0  0  0  0
 11 12  1  0  0  0  0
 12  9  1  0  0  0  0
 13 18  2  0  0  0  0
 13 15  1  0  0  0  0
 14 16  2  0  0  0  0
 15 17  2  0  0  0  0
 17 16  1  0  0  0  0
 17 11  1  0  0  0  0
 18 14  1  0  0  0  0
 19 20  1  0  0  0  0
 20 21  1  0  0  0  0
 22 21  1  0  0  0  0
 23 29  1  1  0  0  0
 23 26  1  0  0  0  0
 23 22  1  0  0  0  0
 24 26  2  0  0  0  0
 26 25  1  0  0  0  0
 27 26  1  0  0  0  0
 28 29  1  0  0  0  0
 32 35  1  0  0  0  0
 32 34  1  0  0  0  0
 33 31  1  0  0  0  0
 34 30  1  1  0  0  0
 34 33  1  0  0  0  0
 35 37  1  1  0  0  0
 35 36  1  0  0  0  0
 36 31  1  0  0  0  0
 38 45  1  6  0  0  0
 38 44  1  0  0  0  0
 39 38  1  0  0  0  0
 40 41  1  0  0  0  0
 41 44  2  0  0  0  0
 41 43  1  0  0  0  0
 42 39  1  0  0  0  0
 42 40  1  0  0  0  0
 43 47  2  0  0  0  0
 44 46  1  0  0  0  0
 46 47  1  0  0  0  0
 47 37  1  0  0  0  0
M  END
>  <MODEL>
4

>  <REMARK>
 VINA RESULT:      -5.9      2.974      7.997
  Name = 
  14 active torsions:
  status: ('A' for Active; 'I' for Inactive)
    1  A    between atoms: C_2  and  C_5
    2  A    between atoms: C_2  and  C_40
    3  A    between atoms: C_5  and  O_21
    4  A    between atoms: P_12  and  C_28
    5  A    between atoms: C_13  and  C_31
    6  A    between atoms: N_17  and  C_29
    7  A    between atoms: O_21  and  N_43
    8  A    between atoms: C_22  and  C_46
    9  A    between atoms: C_25  and  N_26
   10  A    between atoms: N_26  and  C_42
   11  A    between atoms: C_28  and  C_33
   12  A    between atoms: C_28  and  C_40
   13  A    between atoms: C_31  and  C_44
   14  A    between atoms: C_34  and  C_46
                            x       y       z     vdW  Elec       q    Type
                         _______ _______ _______ _____ _____    ______ ____

>  <TORSDO>
F 14

$$$$
=
 OpenBabel11042421523D

 47 51  0  0  1  0  0  0  0  0999 V2000
  161.0730  204.6480  148.7110 C   0  0  0  0  0  3  0  0  0  0  0  0
  161.2440  206.1090  150.6810 C   0  0  0  0  0  0  0  0  0  0  0  0
  161.1190  205.8580  147.7870 C   0  0  0  0  0  0  0  0  0  0  0  0
  161.2390  207.0700  148.3020 C   0  0  0  0  0  3  0  0  0  0  0  0
  161.3360  206.2830  151.9430 N   0  0  0  0  0  0  0  0  0  0  0  0
  161.0400  207.2720  149.7410 C   0  0  2  0  0  3  0  0  0  0  0  0
  161.1600  204.7960  150.0020 C   0  0  0  0  0  3  0  0  0  0  0  0
  160.6130  206.4270  145.4670 O   0  0  0  0  0  0  0  0  0  0  0  0
  161.0350  205.5940  146.3280 C   0  0  0  0  0  0  0  0  0  0  0  0
  162.5360  204.1390  145.2270 O   0  0  0  0  0  0  0  0  0  0  0  0
  160.6980  203.0970  146.0780 N   0  0  0  0  0  2  0  0  0  0  0  0
  161.4650  204.2530  145.8720 C   0  0  0  0  0  0  0  0  0  0  0  0
  161.5840  200.0820  147.8180 C   0  0  0  0  0  3  0  0  0  0  0  0
  161.1330  199.4410  145.5850 C   0  0  0  0  0  3  0  0  0  0  0  0
  161.2070  201.3730  147.5260 C   0  0  0  0  0  3  0  0  0  0  0  0
  160.7580  200.7460  145.2690 C   0  0  0  0  0  3  0  0  0  0  0  0
  160.8490  201.7070  146.2610 C   0  0  0  0  0  0  0  0  0  0  0  0
  161.5750  199.0820  146.8470 C   0  0  0  0  0  3  0  0  0  0  0  0
  161.2540  205.5730  153.1060 O   0  0  0  0  0  0  0  0  0  0  0  0
  160.9750  206.1830  154.3670 C   0  0  0  0  0  2  0  0  0  0  0  0
  161.3620  207.6300  154.3140 C   0  0  0  0  0  2  0  0  0  0  0  0
  160.1260  208.2260  155.0070 C   0  0  0  0  0  2  0  0  0  0  0  0
  160.1530  209.4260  155.8240 C   0  0  1  0  0  3  0  0  0  0  0  0
  159.1470  210.7310  153.7560 O   0  0  0  0  0  0  0  0  0  0  0  0
  160.4590  212.0920  155.5030 O   0  0  0  0  0  1  0  0  0  0  0  0
  159.5580  210.8020  155.2090 P   0  0  0  0  0  0  0  0  0  0  0  0
  158.2560  210.8750  156.2050 O   0  0  0  0  0  1  0  0  0  0  0  0
  162.2540  209.3000  157.1730 C   0  0  0  0  0  1  0  0  0  0  0  0
  160.6230  209.2270  157.2330 C   0  0  0  0  0  2  0  0  0  0  0  0
  160.8260  208.6820  150.1130 C   0  0  0  0  0  2  0  0  0  0  0  0
  161.5330  211.2300  151.3830 C   0  0  0  0  0  2  0  0  0  0  0  0
  162.3420  210.2820  148.6440 C   0  0  0  0  0  2  0  0  0  0  0  0
  162.5360  210.0720  151.1720 C   0  0  0  0  0  2  0  0  0  0  0  0
  162.1850  209.3370  149.8970 C   0  0  1  0  0  3  0  0  0  0  0  0
  161.7710  211.5860  148.9140 C   0  0  1  0  0  3  0  0  0  0  0  0
  161.1280  212.0360  150.1190 C   0  0  0  0  0  2  0  0  0  0  0  0
  162.3350  212.7120  148.1860 N   0  0  0  0  0  2  0  0  0  0  0  0
  160.0450  214.1960  143.9170 C   0  0  2  0  0  3  0  0  0  0  0  0
  160.5580  214.2820  142.5740 C   0  0  0  0  0  2  0  0  0  0  0  0
  162.6920  213.1960  143.2560 C   0  0  0  0  0  2  0  0  0  0  0  0
  162.3070  213.3360  144.7140 C   0  0  0  0  0  0  0  0  0  0  0  0
  162.0040  214.1930  142.5170 O   0  0  0  0  0  0  0  0  0  0  0  0
  163.0550  212.9830  145.8130 C   0  0  0  0  0  3  0  0  0  0  0  0
  161.0050  213.7300  144.9440 C   0  0  0  0  0  0  0  0  0  0  0  0
  158.6010  213.9130  144.1030 C   0  0  0  0  0  1  0  0  0  0  0  0
  160.7440  213.6460  146.5880 S   0  0  0  0  0  0  0  0  0  0  0  0
  162.2260  213.1140  146.9600 C   0  0  0  0  0  0  0  0  0  0  0  0
  1  7  2  0  0  0  0
  2  5  2  0  0  0  0
  3  4  2  0  0  0  0
  3  1  1  0  0  0  0
  4  6  1  0  0  0  0
  5 19  1  0  0  0  0
  6 30  1  1  0  0  0
  6  2  1  0  0  0  0
  7  2  1  0  0  0  0
  8  9  2  0  0  0  0
  9  3  1  0  0  0  0
 10 12  2  0  0  0  0
 11 17  1  0  0  0  0
 12 11  1  0  0  0  0
 12  9  1  0  0  0  0
 14 18  1  0  0  0  0
 15 13  1  0  0  0  0
 16 14  2  0  0  0  0
 16 17  1  0  0  0  0
 17 15  2  0  0  0  0
 18 13  2  0  0  0  0
 19 20  1  0  0  0  0
 21 20  1  0  0  0  0
 21 22  1  0  0  0  0
 23 22  1  1  0  0  0
 23 29  1  0  0  0  0
 24 26  2  0  0  0  0
 26 25  1  0  0  0  0
 26 23  1  0  0  0  0
 26 27  1  0  0  0  0
 28 29  1  0  0  0  0
 32 35  1  0  0  0  0
 32 34  1  0  0  0  0
 33 31  1  0  0  0  0
 34 30  1  1  0  0  0
 34 33  1  0  0  0  0
 35 37  1  1  0  0  0
 35 36  1  0  0  0  0
 36 31  1  0  0  0  0
 38 45  1  6  0  0  0
 38 44  1  0  0  0  0
 39 38  1  0  0  0  0
 40 41  1  0  0  0  0
 41 44  2  0  0  0  0
 41 43  1  0  0  0  0
 42 39  1  0  0  0  0
 42 40  1  0  0  0  0
 43 47  2  0  0  0  0
 44 46  1  0  0  0  0
 46 47  1  0  0  0  0
 47 37  1  0  0  0  0
M  END
>  <MODEL>
5

>  <REMARK>
 VINA RESULT:      -5.7      2.104      3.338
  Name = 
  14 active torsions:
  status: ('A' for Active; 'I' for Inactive)
    1  A    between atoms: C_2  and  C_5
    2  A    between atoms: C_2  and  C_40
    3  A    between atoms: C_5  and  O_21
    4  A    between atoms: P_12  and  C_28
    5  A    between atoms: C_13  and  C_31
    6  A    between atoms: N_17  and  C_29
    7  A    between atoms: O_21  and  N_43
    8  A    between atoms: C_22  and  C_46
    9  A    between atoms: C_25  and  N_26
   10  A    between atoms: N_26  and  C_42
   11  A    between atoms: C_28  and  C_33
   12  A    between atoms: C_28  and  C_40
   13  A    between atoms: C_31  and  C_44
   14  A    between atoms: C_34  and  C_46
                            x       y       z     vdW  Elec       q    Type
                         _______ _______ _______ _____ _____    ______ ____

>  <TORSDO>
F 14

$$$$
=
 OpenBabel11042421523D

 47 51  0  0  1  0  0  0  0  0999 V2000
  162.4780  207.7900  147.0690 C   0  0  0  0  0  3  0  0  0  0  0  0
  161.7670  208.8900  149.1500 C   0  0  0  0  0  0  0  0  0  0  0  0
  161.7440  206.5170  147.4700 C   0  0  0  0  0  0  0  0  0  0  0  0
  161.0730  206.4790  148.6090 C   0  0  0  0  0  3  0  0  0  0  0  0
  161.7120  209.9100  149.9170 N   0  0  0  0  0  0  0  0  0  0  0  0
  161.2700  207.5390  149.6040 C   0  0  2  0  0  3  0  0  0  0  0  0
  162.4430  208.8430  147.8330 C   0  0  0  0  0  3  0  0  0  0  0  0
  162.0860  205.4730  145.2890 O   0  0  0  0  0  0  0  0  0  0  0  0
  161.8190  205.3720  146.5270 C   0  0  0  0  0  0  0  0  0  0  0  0
  161.8690  203.0120  146.4330 O   0  0  0  0  0  0  0  0  0  0  0  0
  160.8820  203.8400  148.3110 N   0  0  0  0  0  2  0  0  0  0  0  0
  161.5450  204.0320  147.0900 C   0  0  0  0  0  0  0  0  0  0  0  0
  161.3720  202.6710  151.6720 C   0  0  0  0  0  3  0  0  0  0  0  0
  160.6900  200.7840  150.4150 C   0  0  0  0  0  3  0  0  0  0  0  0
  161.1920  203.4740  150.5690 C   0  0  0  0  0  3  0  0  0  0  0  0
  160.5130  201.5820  149.2850 C   0  0  0  0  0  3  0  0  0  0  0  0
  160.8170  202.9280  149.3860 C   0  0  0  0  0  0  0  0  0  0  0  0
  161.1430  201.2960  151.6190 C   0  0  0  0  0  3  0  0  0  0  0  0
  162.2450  211.1610  150.0330 O   0  0  0  0  0  0  0  0  0  0  0  0
  161.8740  212.2420  149.1770 C   0  0  0  0  0  2  0  0  0  0  0  0
  162.9840  212.5070  148.2050 C   0  0  0  0  0  2  0  0  0  0  0  0
  162.4550  213.8160  147.5980 C   0  0  0  0  0  2  0  0  0  0  0  0
  161.7790  213.9020  146.3160 C   0  0  1  0  0  3  0  0  0  0  0  0
  159.5060  214.4520  145.0820 O   0  0  0  0  0  0  0  0  0  0  0  0
  159.4480  214.2250  147.6450 O   0  0  0  0  0  1  0  0  0  0  0  0
  160.1620  213.7990  146.2780 P   0  0  0  0  0  0  0  0  0  0  0  0
  160.1050  212.1630  146.1820 O   0  0  0  0  0  1  0  0  0  0  0  0
  162.4490  212.9930  144.0850 C   0  0  0  0  0  1  0  0  0  0  0  0
  162.6650  214.2150  145.1490 C   0  0  0  0  0  2  0  0  0  0  0  0
  160.7730  207.1850  150.9460 C   0  0  0  0  0  2  0  0  0  0  0  0
  161.2470  205.7940  153.4840 C   0  0  0  0  0  2  0  0  0  0  0  0
  161.6020  208.7310  152.9310 C   0  0  0  0  0  2  0  0  0  0  0  0
  162.3800  206.3340  152.5800 C   0  0  0  0  0  2  0  0  0  0  0  0
  161.9040  207.5900  151.8840 C   0  0  1  0  0  3  0  0  0  0  0  0
  160.8680  208.2020  154.0640 C   0  0  1  0  0  3  0  0  0  0  0  0
  160.4310  206.8490  154.2790 C   0  0  0  0  0  2  0  0  0  0  0  0
  161.0370  208.8920  155.3330 N   0  0  0  0  0  2  0  0  0  0  0  0
  157.5480  212.2580  156.8040 C   0  0  2  0  0  3  0  0  0  0  0  0
  157.6740  213.6710  157.0550 C   0  0  0  0  0  2  0  0  0  0  0  0
  160.0180  213.6720  156.2170 C   0  0  0  0  0  2  0  0  0  0  0  0
  160.0210  212.1570  156.1980 C   0  0  0  0  0  0  0  0  0  0  0  0
  159.0540  214.1020  157.1640 O   0  0  0  0  0  0  0  0  0  0  0  0
  161.0680  211.3280  155.8690 C   0  0  0  0  0  3  0  0  0  0  0  0
  158.7910  211.5630  156.3970 C   0  0  0  0  0  0  0  0  0  0  0  0
  156.2450  211.7420  156.3170 C   0  0  0  0  0  1  0  0  0  0  0  0
  158.9860  209.9250  156.1600 S   0  0  0  0  0  0  0  0  0  0  0  0
  160.5640  210.0010  155.8050 C   0  0  0  0  0  0  0  0  0  0  0  0
  1  3  1  0  0  0  0
  1  7  2  0  0  0  0
  2  6  1  0  0  0  0
  2  5  2  0  0  0  0
  3  4  2  0  0  0  0
  4  6  1  0  0  0  0
  5 19  1  0  0  0  0
  6 30  1  6  0  0  0
  7  2  1  0  0  0  0
  8  9  2  0  0  0  0
  9 12  1  0  0  0  0
  9  3  1  0  0  0  0
 10 12  2  0  0  0  0
 11 17  1  0  0  0  0
 12 11  1  0  0  0  0
 14 18  2  0  0  0  0
 15 13  2  0  0  0  0
 16 17  2  0  0  0  0
 16 14  1  0  0  0  0
 17 15  1  0  0  0  0
 18 13  1  0  0  0  0
 20 19  1  0  0  0  0
 21 20  1  0  0  0  0
 22 21  1  0  0  0  0
 23 29  1  1  0  0  0
 23 22  1  0  0  0  0
 24 26  2  0  0  0  0
 26 23  1  0  0  0  0
 26 25  1  0  0  0  0
 27 26  1  0  0  0  0
 28 29  1  0  0  0  0
 31 36  1  0  0  0  0
 32 35  1  0  0  0  0
 33 31  1  0  0  0  0
 34 30  1  1  0  0  0
 34 33  1  0  0  0  0
 34 32  1  0  0  0  0
 35 36  1  0  0  0  0
 35 37  1  1  0  0  0
 37 47  1  0  0  0  0
 38 45  1  6  0  0  0
 38 39  1  0  0  0  0
 39 42  1  0  0  0  0
 40 42  1  0  0  0  0
 41 40  1  0  0  0  0
 41 44  2  0  0  0  0
 43 41  1  0  0  0  0
 44 38  1  0  0  0  0
 46 44  1  0  0  0  0
 47 43  2  0  0  0  0
 47 46  1  0  0  0  0
M  END
>  <MODEL>
6

>  <REMARK>
 VINA RESULT:      -5.1      2.706      7.580
  Name = 
  14 active torsions:
  status: ('A' for Active; 'I' for Inactive)
    1  A    between atoms: C_2  and  C_5
    2  A    between atoms: C_2  and  C_40
    3  A    between atoms: C_5  and  O_21
    4  A    between atoms: P_12  and  C_28
    5  A    between atoms: C_13  and  C_31
    6  A    between atoms: N_17  and  C_29
    7  A    between atoms: O_21  and  N_43
    8  A    between atoms: C_22  and  C_46
    9  A    between atoms: C_25  and  N_26
   10  A    between atoms: N_26  and  C_42
   11  A    between atoms: C_28  and  C_33
   12  A    between atoms: C_28  and  C_40
   13  A    between atoms: C_31  and  C_44
   14  A    between atoms: C_34  and  C_46
                            x       y       z     vdW  Elec       q    Type
                         _______ _______ _______ _____ _____    ______ ____

>  <TORSDO>
F 14

$$$$
=
 OpenBabel11042421523D

 47 51  0  0  1  0  0  0  0  0999 V2000
  161.7950  209.3280  147.8660 C   0  0  0  0  0  3  0  0  0  0  0  0
  161.5370  207.0880  148.8480 C   0  0  0  0  0  0  0  0  0  0  0  0
  161.7990  209.9560  149.2530 C   0  0  0  0  0  0  0  0  0  0  0  0
  161.7000  209.1830  150.3220 C   0  0  0  0  0  3  0  0  0  0  0  0
  161.4520  205.8190  148.7380 N   0  0  0  0  0  0  0  0  0  0  0  0
  161.3030  207.7790  150.1690 C   0  0  2  0  0  3  0  0  0  0  0  0
  161.7050  208.0370  147.7230 C   0  0  0  0  0  3  0  0  0  0  0  0
  161.5310  212.1480  150.2940 O   0  0  0  0  0  0  0  0  0  0  0  0
  161.9280  211.4340  149.3220 C   0  0  0  0  0  0  0  0  0  0  0  0
  163.8030  212.1980  148.1050 O   0  0  0  0  0  0  0  0  0  0  0  0
  161.8060  212.6820  147.1230 N   0  0  0  0  0  2  0  0  0  0  0  0
  162.5530  212.0990  148.1570 C   0  0  0  0  0  0  0  0  0  0  0  0
  160.8370  212.5260  143.6670 C   0  0  0  0  0  3  0  0  0  0  0  0
  162.9650  213.5620  143.7050 C   0  0  0  0  0  3  0  0  0  0  0  0
  160.8190  212.5080  145.0440 C   0  0  0  0  0  3  0  0  0  0  0  0
  162.9680  213.5410  145.0990 C   0  0  0  0  0  3  0  0  0  0  0  0
  161.8890  212.9620  145.7430 C   0  0  0  0  0  0  0  0  0  0  0  0
  161.9230  213.0380  142.9590 C   0  0  0  0  0  3  0  0  0  0  0  0
  161.3210  204.8590  147.7770 O   0  0  0  0  0  0  0  0  0  0  0  0
  162.3030  204.6400  146.7630 C   0  0  0  0  0  2  0  0  0  0  0  0
  162.2520  203.2070  146.3270 C   0  0  0  0  0  2  0  0  0  0  0  0
  161.0480  202.7510  147.1670 C   0  0  0  0  0  2  0  0  0  0  0  0
  161.0610  201.5950  148.0440 C   0  0  1  0  0  3  0  0  0  0  0  0
  158.8990  201.1850  149.5110 O   0  0  0  0  0  0  0  0  0  0  0  0
  160.4400  203.1360  150.1760 O   0  0  0  0  0  1  0  0  0  0  0  0
  160.3210  201.6980  149.4820 P   0  0  0  0  0  0  0  0  0  0  0  0
  161.3460  200.6870  150.2670 O   0  0  0  0  0  1  0  0  0  0  0  0
  160.8330  200.0690  146.0770 C   0  0  0  0  0  1  0  0  0  0  0  0
  161.6620  200.3540  147.4560 C   0  0  0  0  0  2  0  0  0  0  0  0
  160.8680  207.1510  151.4300 C   0  0  0  0  0  2  0  0  0  0  0  0
  161.0560  205.9150  154.0830 C   0  0  0  0  0  2  0  0  0  0  0  0
  161.5410  208.8020  153.3880 C   0  0  0  0  0  2  0  0  0  0  0  0
  162.2850  206.3720  153.2630 C   0  0  0  0  0  2  0  0  0  0  0  0
  161.9130  207.5910  152.4480 C   0  0  1  0  0  3  0  0  0  0  0  0
  160.6880  208.3620  154.4740 C   0  0  1  0  0  3  0  0  0  0  0  0
  160.1960  207.0350  154.7270 C   0  0  0  0  0  2  0  0  0  0  0  0
  160.7510  209.1270  155.7090 N   0  0  0  0  0  2  0  0  0  0  0  0
  157.2580  212.7640  156.2000 C   0  0  2  0  0  3  0  0  0  0  0  0
  157.4110  214.1500  156.5600 C   0  0  0  0  0  2  0  0  0  0  0  0
  159.8920  213.9540  156.5050 C   0  0  0  0  0  2  0  0  0  0  0  0
  159.7790  212.4470  156.3990 C   0  0  0  0  0  0  0  0  0  0  0  0
  158.7140  214.4460  157.1240 O   0  0  0  0  0  0  0  0  0  0  0  0
  160.8050  211.5320  156.3700 C   0  0  0  0  0  3  0  0  0  0  0  0
  158.5060  211.9670  156.1660 C   0  0  0  0  0  0  0  0  0  0  0  0
  156.1420  212.3890  155.2980 C   0  0  0  0  0  1  0  0  0  0  0  0
  158.6340  210.3260  155.9070 S   0  0  0  0  0  0  0  0  0  0  0  0
  160.2430  210.2610  156.0720 C   0  0  0  0  0  0  0  0  0  0  0  0
  1  3  1  0  0  0  0
  2  6  1  0  0  0  0
  3  9  1  0  0  0  0
  3  4  2  0  0  0  0
  5  2  2  0  0  0  0
  6  4  1  0  0  0  0
  6 30  1  1  0  0  0
  7  1  2  0  0  0  0
  7  2  1  0  0  0  0
  9  8  2  0  0  0  0
 10 12  2  0  0  0  0
 11 12  1  0  0  0  0
 12  9  1  0  0  0  0
 13 15  1  0  0  0  0
 14 16  2  0  0  0  0
 15 17  2  0  0  0  0
 16 17  1  0  0  0  0
 17 11  1  0  0  0  0
 18 13  2  0  0  0  0
 18 14  1  0  0  0  0
 19  5  1  0  0  0  0
 20 19  1  0  0  0  0
 21 20  1  0  0  0  0
 21 22  1  0  0  0  0
 23 22  1  6  0  0  0
 23 26  1  0  0  0  0
 26 24  2  0  0  0  0
 26 25  1  0  0  0  0
 26 27  1  0  0  0  0
 28 29  1  0  0  0  0
 29 23  1  0  0  0  0
 31 36  1  0  0  0  0
 32 35  1  0  0  0  0
 33 31  1  0  0  0  0
 34 30  1  6  0  0  0
 34 33  1  0  0  0  0
 34 32  1  0  0  0  0
 35 36  1  0  0  0  0
 35 37  1  1  0  0  0
 37 47  1  0  0  0  0
 38 45  1  6  0  0  0
 38 39  1  0  0  0  0
 39 42  1  0  0  0  0
 40 42  1  0  0  0  0
 41 40  1  0  0  0  0
 43 41  1  0  0  0  0
 44 38  1  0  0  0  0
 44 41  2  0  0  0  0
 46 47  1  0  0  0  0
 46 44  1  0  0  0  0
 47 43  2  0  0  0  0
M  END
>  <MODEL>
7

>  <REMARK>
 VINA RESULT:      -5.1      3.013      9.352
  Name = 
  14 active torsions:
  status: ('A' for Active; 'I' for Inactive)
    1  A    between atoms: C_2  and  C_5
    2  A    between atoms: C_2  and  C_40
    3  A    between atoms: C_5  and  O_21
    4  A    between atoms: P_12  and  C_28
    5  A    between atoms: C_13  and  C_31
    6  A    between atoms: N_17  and  C_29
    7  A    between atoms: O_21  and  N_43
    8  A    between atoms: C_22  and  C_46
    9  A    between atoms: C_25  and  N_26
   10  A    between atoms: N_26  and  C_42
   11  A    between atoms: C_28  and  C_33
   12  A    between atoms: C_28  and  C_40
   13  A    between atoms: C_31  and  C_44
   14  A    between atoms: C_34  and  C_46
                            x       y       z     vdW  Elec       q    Type
                         _______ _______ _______ _____ _____    ______ ____

>  <TORSDO>
F 14

$$$$
=
 OpenBabel11042421523D

 47 51  0  0  1  0  0  0  0  0999 V2000
  160.9940  202.2560  145.8460 C   0  0  0  0  0  3  0  0  0  0  0  0
  161.1970  204.6440  145.2950 C   0  0  0  0  0  0  0  0  0  0  0  0
  161.2080  202.5600  147.3230 C   0  0  0  0  0  0  0  0  0  0  0  0
  161.3770  203.8120  147.7160 C   0  0  0  0  0  3  0  0  0  0  0  0
  161.1700  205.6080  144.4570 N   0  0  0  0  0  0  0  0  0  0  0  0
  161.6430  204.8570  146.7210 C   0  0  2  0  0  3  0  0  0  0  0  0
  160.9660  203.2180  144.9690 C   0  0  0  0  0  3  0  0  0  0  0  0
  161.2320  200.1870  147.8950 O   0  0  0  0  0  0  0  0  0  0  0  0
  161.2020  201.4050  148.2550 C   0  0  0  0  0  0  0  0  0  0  0  0
  161.1150  200.7800  150.5320 O   0  0  0  0  0  0  0  0  0  0  0  0
  161.0490  203.0310  150.1900 N   0  0  0  0  0  2  0  0  0  0  0  0
  161.1400  201.7200  149.7000 C   0  0  0  0  0  0  0  0  0  0  0  0
  160.5720  204.6670  153.3520 C   0  0  0  0  0  3  0  0  0  0  0  0
  162.6560  205.4290  152.5280 C   0  0  0  0  0  3  0  0  0  0  0  0
  160.4600  203.8090  152.2820 C   0  0  0  0  0  3  0  0  0  0  0  0
  162.5530  204.5730  151.4310 C   0  0  0  0  0  3  0  0  0  0  0  0
  161.4110  203.8020  151.3150 C   0  0  0  0  0  0  0  0  0  0  0  0
  161.6690  205.5170  153.4940 C   0  0  0  0  0  3  0  0  0  0  0  0
  161.1090  205.8210  143.1110 O   0  0  0  0  0  0  0  0  0  0  0  0
  162.0580  206.6280  142.4110 C   0  0  0  0  0  2  0  0  0  0  0  0
  161.9570  206.3480  140.9420 C   0  0  0  0  0  2  0  0  0  0  0  0
  162.4660  207.6980  140.4120 C   0  0  0  0  0  2  0  0  0  0  0  0
  161.7760  208.4900  139.4110 C   0  0  1  0  0  3  0  0  0  0  0  0
  162.3100  210.7690  138.1800 O   0  0  0  0  0  0  0  0  0  0  0  0
  162.7520  210.6490  140.7130 O   0  0  0  0  0  1  0  0  0  0  0  0
  161.8960  210.1050  139.4740 P   0  0  0  0  0  0  0  0  0  0  0  0
  160.3140  210.3730  139.8140 O   0  0  0  0  0  1  0  0  0  0  0  0
  162.3280  207.1330  137.3850 C   0  0  0  0  0  1  0  0  0  0  0  0
  161.1160  207.7030  138.3200 C   0  0  0  0  0  2  0  0  0  0  0  0
  162.1800  206.1000  147.3030 C   0  0  0  0  0  2  0  0  0  0  0  0
  162.3640  208.7820  148.4770 C   0  0  0  0  0  2  0  0  0  0  0  0
  160.4540  206.5900  149.2520 C   0  0  0  0  0  2  0  0  0  0  0  0
  161.2080  208.3290  147.5550 C   0  0  0  0  0  2  0  0  0  0  0  0
  160.9440  206.8560  147.7760 C   0  0  1  0  0  3  0  0  0  0  0  0
  161.2570  207.3370  150.1990 C   0  0  1  0  0  3  0  0  0  0  0  0
  162.3650  208.2110  149.9200 C   0  0  0  0  0  2  0  0  0  0  0  0
  160.6190  207.7060  151.4520 N   0  0  0  0  0  2  0  0  0  0  0  0
  160.4520  210.6320  155.5850 C   0  0  2  0  0  3  0  0  0  0  0  0
  160.1730  212.0390  155.7110 C   0  0  0  0  0  2  0  0  0  0  0  0
  159.5900  212.2020  153.2960 C   0  0  0  0  0  2  0  0  0  0  0  0
  160.1320  210.8060  153.0630 C   0  0  0  0  0  0  0  0  0  0  0  0
  160.2290  212.7400  154.4430 O   0  0  0  0  0  0  0  0  0  0  0  0
  160.2200  210.1330  151.8670 C   0  0  0  0  0  3  0  0  0  0  0  0
  160.4340  210.0930  154.2060 C   0  0  0  0  0  0  0  0  0  0  0  0
  160.0840  209.7370  156.7100 C   0  0  0  0  0  1  0  0  0  0  0  0
  160.8340  208.5460  153.7340 S   0  0  0  0  0  0  0  0  0  0  0  0
  160.6080  208.7960  152.1510 C   0  0  0  0  0  0  0  0  0  0  0  0
  1  3  1  0  0  0  0
  2  6  1  0  0  0  0
  3  4  2  0  0  0  0
  3  9  1  0  0  0  0
  5  2  2  0  0  0  0
  6 30  1  1  0  0  0
  6  4  1  0  0  0  0
  7  2  1  0  0  0  0
  7  1  2  0  0  0  0
  8  9  2  0  0  0  0
  9 12  1  0  0  0  0
 11 17  1  0  0  0  0
 12 11  1  0  0  0  0
 12 10  2  0  0  0  0
 13 18  1  0  0  0  0
 14 18  2  0  0  0  0
 15 13  2  0  0  0  0
 16 14  1  0  0  0  0
 17 16  2  0  0  0  0
 17 15  1  0  0  0  0
 19  5  1  0  0  0  0
 20 19  1  0  0  0  0
 21 20  1  0  0  0  0
 22 21  1  0  0  0  0
 23 29  1  6  0  0  0
 23 26  1  0  0  0  0
 23 22  1  0  0  0  0
 24 26  2  0  0  0  0
 26 27  1  0  0  0  0
 26 25  1  0  0  0  0
 28 29  1  0  0  0  0
 31 36  1  0  0  0  0
 32 35  1  0  0  0  0
 33 34  1  0  0  0  0
 33 31  1  0  0  0  0
 34 30  1  1  0  0  0
 34 32  1  0  0  0  0
 35 37  1  6  0  0  0
 36 35  1  0  0  0  0
 37 47  1  0  0  0  0
 38 39  1  0  0  0  0
 38 45  1  1  0  0  0
 40 42  1  0  0  0  0
 41 40  1  0  0  0  0
 41 44  2  0  0  0  0
 42 39  1  0  0  0  0
 43 47  2  0  0  0  0
 43 41  1  0  0  0  0
 44 38  1  0  0  0  0
 46 44  1  0  0  0  0
 47 46  1  0  0  0  0
M  END
>  <MODEL>
8

>  <REMARK>
 VINA RESULT:      -4.8      3.859      9.388
  Name = 
  14 active torsions:
  status: ('A' for Active; 'I' for Inactive)
    1  A    between atoms: C_2  and  C_5
    2  A    between atoms: C_2  and  C_40
    3  A    between atoms: C_5  and  O_21
    4  A    between atoms: P_12  and  C_28
    5  A    between atoms: C_13  and  C_31
    6  A    between atoms: N_17  and  C_29
    7  A    between atoms: O_21  and  N_43
    8  A    between atoms: C_22  and  C_46
    9  A    between atoms: C_25  and  N_26
   10  A    between atoms: N_26  and  C_42
   11  A    between atoms: C_28  and  C_33
   12  A    between atoms: C_28  and  C_40
   13  A    between atoms: C_31  and  C_44
   14  A    between atoms: C_34  and  C_46
                            x       y       z     vdW  Elec       q    Type
                         _______ _______ _______ _____ _____    ______ ____

>  <TORSDO>
F 14

$$$$
