=
 OpenBabel11052410013D

 39 42  0  0  1  0  0  0  0  0999 V2000
  161.5710  209.6840  151.1770 C   0  0  0  0  0  3  0  0  0  0  0  0
  162.1080  208.5760  150.6510 C   0  0  0  0  0  0  0  0  0  0  0  0
  161.6680  210.4420  154.8310 C   0  0  0  0  0  2  0  0  0  0  0  0
  161.2900  209.8800  152.5710 N   0  0  0  0  0  0  0  0  0  0  0  0
  160.1970  210.6800  154.5120 C   0  0  2  0  0  3  0  0  0  0  0  0
  159.9700  210.0860  153.1370 C   0  0  0  0  0  2  0  0  0  0  0  0
  162.3540  210.1730  153.5050 C   0  0  0  0  0  2  0  0  0  0  0  0
  159.9450  212.1110  154.4550 N   0  0  0  0  0  2  0  0  0  0  0  0
  156.4600  212.6090  155.5650 C   0  0  1  0  0  3  0  0  0  0  0  0
  156.9220  214.2120  156.2920 S   0  0  0  0  0  0  0  0  0  0  0  0
  155.5440  212.8200  154.3740 C   0  0  0  0  0  1  0  0  0  0  0  0
  157.6810  211.9430  155.1460 N   0  0  0  0  0  0  0  0  0  0  0  0
  158.6880  212.6830  154.8160 C   0  0  0  0  0  0  0  0  0  0  0  0
  158.4780  214.4520  154.8520 S   0  0  0  0  0  0  0  0  0  0  0  0
  162.2390  208.4950  149.1780 C   0  0  0  0  0  0  0  0  0  0  0  0
  162.2020  209.5490  148.4210 N   0  0  0  0  0  0  0  0  0  0  0  0
  162.0110  210.8390  148.9340 N   0  0  0  0  0  1  0  0  0  0  0  0
  162.3680  207.1560  148.5320 C   0  0  0  0  0  2  0  0  0  0  0  0
  161.0020  206.6700  148.0710 C   0  0  0  0  0  2  0  0  0  0  0  0
  161.0120  206.4510  146.6320 N   0  0  0  0  0  2  0  0  0  0  0  0
  162.6370  205.9390  145.0140 O   0  0  0  0  0  1  0  0  0  0  0  0
  162.2060  205.6730  146.3190 C   0  0  2  0  0  3  0  0  0  0  0  0
  161.9490  204.2480  146.4960 N   0  0  0  0  0  2  0  0  0  0  0  0
  161.0080  203.8350  145.5310 N   0  0  0  0  0  0  0  0  0  0  0  0
  160.3290  202.6000  145.9150 C   0  0  1  0  0  3  0  0  0  0  0  0
  161.4210  202.5840  145.1010 O   0  0  0  0  0  0  0  0  0  0  0  0
  160.5090  203.3520  151.1480 S   0  0  0  0  0  1  0  0  0  0  0  0
  161.2500  200.8030  147.4130 C   0  0  0  0  0  3  0  0  0  0  0  0
  160.4540  202.8520  148.4310 C   0  0  0  0  0  3  0  0  0  0  0  0
  160.6660  202.0700  147.2860 C   0  0  0  0  0  0  0  0  0  0  0  0
  160.7970  202.3580  149.6930 C   0  0  0  0  0  0  0  0  0  0  0  0
  161.5930  200.3100  148.6750 C   0  0  0  0  0  3  0  0  0  0  0  0
  161.3640  201.0870  149.8150 C   0  0  0  0  0  3  0  0  0  0  0  0
  162.4970  207.4780  151.4890 N   0  0  0  0  0  2  0  0  0  0  0  0
  160.3380  206.6240  151.3840 F   0  0  0  0  0  0  0  0  0  0  0  0
  161.5990  206.4140  151.9150 C   0  0  2  0  0  3  0  0  0  0  0  0
  160.3960  207.0500  153.8780 F   0  0  0  0  0  0  0  0  0  0  0  0
  161.5260  206.3830  153.4320 C   0  0  0  0  0  3  0  0  0  0  0  0
  161.4980  205.0730  153.8760 F   0  0  0  0  0  0  0  0  0  0  0  0
  1  4  1  0  0  0  0
  2  1  2  0  0  0  0
  2 34  1  0  0  0  0
  4  6  1  0  0  0  0
  4  7  1  0  0  0  0
  5  8  1  6  0  0  0
  5  3  1  0  0  0  0
  6  5  1  0  0  0  0
  7  3  1  0  0  0  0
  8 13  1  0  0  0  0
  9 11  1  6  0  0  0
  9 10  1  0  0  0  0
 12  9  1  0  0  0  0
 13 14  1  0  0  0  0
 13 12  2  0  0  0  0
 14 10  1  0  0  0  0
 15  2  1  0  0  0  0
 16 17  1  0  0  0  0
 16 15  2  0  0  0  0
 18 15  1  0  0  0  0
 19 18  1  0  0  0  0
 20 19  1  0  0  0  0
 22 21  1  6  0  0  0
 22 23  1  0  0  0  0
 22 20  1  0  0  0  0
 24 25  1  0  0  0  0
 24 23  1  0  0  0  0
 25 30  1  1  0  0  0
 26 24  1  0  0  0  0
 26 25  1  0  0  0  0
 28 32  1  0  0  0  0
 29 31  2  0  0  0  0
 30 28  2  0  0  0  0
 30 29  1  0  0  0  0
 31 33  1  0  0  0  0
 31 27  1  0  0  0  0
 32 33  2  0  0  0  0
 34 36  1  0  0  0  0
 36 35  1  6  0  0  0
 36 38  1  0  0  0  0
 38 39  1  0  0  0  0
 38 37  1  0  0  0  0
M  END
>  <MODEL>
1

>  <REMARK>
 VINA RESULT:      -6.9      0.000      0.000
  Name = 
  13 active torsions:
  status: ('A' for Active; 'I' for Inactive)
    1  A    between atoms: C_3  and  N_8
    2  A    between atoms: N_6  and  C_17
    3  A    between atoms: C_11  and  C_13
    4  A    between atoms: C_11  and  C_33
    5  A    between atoms: C_13  and  C_21
    6  A    between atoms: C_16  and  C_30
    7  A    between atoms: N_18  and  C_21
    8  A    between atoms: N_18  and  C_31
    9  A    between atoms: C_20  and  C_36
   10  A    between atoms: N_24  and  N_28
   11  A    between atoms: N_28  and  C_31
   12  A    between atoms: C_33  and  N_34
   13  A    between atoms: N_34  and  C_36
                            x       y       z     vdW  Elec       q    Type
                         _______ _______ _______ _____ _____    ______ ____

>  <TORSDO>
F 13

$$$$
=
 OpenBabel11052410013D

 39 42  0  0  1  0  0  0  0  0999 V2000
  162.3980  213.1280  145.9740 C   0  0  0  0  0  3  0  0  0  0  0  0
  161.3640  213.0960  146.8240 C   0  0  0  0  0  0  0  0  0  0  0  0
  163.0100  214.0670  142.4130 C   0  0  0  0  0  2  0  0  0  0  0  0
  162.3050  213.4430  144.5770 N   0  0  0  0  0  0  0  0  0  0  0  0
  161.7760  213.1830  142.2840 C   0  0  2  0  0  3  0  0  0  0  0  0
  161.2400  213.0130  143.6910 C   0  0  0  0  0  2  0  0  0  0  0  0
  163.4390  213.9930  143.8670 C   0  0  0  0  0  2  0  0  0  0  0  0
  162.1700  211.8820  141.7700 N   0  0  0  0  0  2  0  0  0  0  0  0
  160.0630  211.2410  138.8080 C   0  0  1  0  0  3  0  0  0  0  0  0
  161.4290  210.3190  138.0360 S   0  0  0  0  0  0  0  0  0  0  0  0
  158.9260  210.2980  139.1530 C   0  0  0  0  0  1  0  0  0  0  0  0
  160.5760  211.8710  140.0120 N   0  0  0  0  0  0  0  0  0  0  0  0
  161.5640  211.2970  140.6170 C   0  0  0  0  0  0  0  0  0  0  0  0
  162.1770  209.7610  139.9550 S   0  0  0  0  0  0  0  0  0  0  0  0
  161.6160  212.6520  148.2130 C   0  0  0  0  0  0  0  0  0  0  0  0
  161.1380  213.2860  149.2400 N   0  0  0  0  0  0  0  0  0  0  0  0
  160.3690  214.4510  149.1160 N   0  0  0  0  0  1  0  0  0  0  0  0
  162.4890  211.4650  148.4500 C   0  0  0  0  0  2  0  0  0  0  0  0
  161.6670  210.3240  149.0300 C   0  0  0  0  0  2  0  0  0  0  0  0
  162.3820  209.7080  150.1370 N   0  0  0  0  0  2  0  0  0  0  0  0
  161.9080  208.1340  151.8160 O   0  0  0  0  0  1  0  0  0  0  0  0
  161.6790  208.4760  150.4780 C   0  0  2  0  0  3  0  0  0  0  0  0
  162.0870  207.3920  149.5920 N   0  0  0  0  0  2  0  0  0  0  0  0
  161.4910  207.5910  148.3310 N   0  0  0  0  0  0  0  0  0  0  0  0
  160.8560  206.3770  147.8230 C   0  0  1  0  0  3  0  0  0  0  0  0
  162.1260  206.7170  147.4620 O   0  0  0  0  0  0  0  0  0  0  0  0
  161.2680  201.1540  148.5470 S   0  0  0  0  0  1  0  0  0  0  0  0
  160.6100  205.4040  150.1280 C   0  0  0  0  0  3  0  0  0  0  0  0
  161.0430  203.8950  148.2830 C   0  0  0  0  0  3  0  0  0  0  0  0
  160.8550  205.1990  148.7640 C   0  0  0  0  0  0  0  0  0  0  0  0
  161.0130  202.8100  149.1630 C   0  0  0  0  0  0  0  0  0  0  0  0
  160.5800  204.3180  151.0080 C   0  0  0  0  0  3  0  0  0  0  0  0
  160.7840  203.0220  150.5260 C   0  0  0  0  0  3  0  0  0  0  0  0
  160.0410  213.4340  146.3840 N   0  0  0  0  0  2  0  0  0  0  0  0
  158.4950  212.2590  145.1080 F   0  0  0  0  0  0  0  0  0  0  0  0
  158.9110  212.5160  146.4030 C   0  0  2  0  0  3  0  0  0  0  0  0
  156.9340  213.8560  146.3810 F   0  0  0  0  0  0  0  0  0  0  0  0
  157.7730  213.1220  147.2050 C   0  0  0  0  0  3  0  0  0  0  0  0
  157.0500  212.1220  147.8290 F   0  0  0  0  0  0  0  0  0  0  0  0
  1  2  2  0  0  0  0
  2 15  1  0  0  0  0
  3  7  1  0  0  0  0
  4  1  1  0  0  0  0
  5  8  1  1  0  0  0
  5  3  1  0  0  0  0
  5  6  1  0  0  0  0
  6  4  1  0  0  0  0
  7  4  1  0  0  0  0
  9 11  1  1  0  0  0
  9 12  1  0  0  0  0
 10  9  1  0  0  0  0
 10 14  1  0  0  0  0
 12 13  2  0  0  0  0
 13  8  1  0  0  0  0
 14 13  1  0  0  0  0
 15 18  1  0  0  0  0
 15 16  2  0  0  0  0
 17 16  1  0  0  0  0
 18 19  1  0  0  0  0
 19 20  1  0  0  0  0
 20 22  1  0  0  0  0
 22 21  1  1  0  0  0
 23 22  1  0  0  0  0
 24 23  1  0  0  0  0
 25 24  1  0  0  0  0
 25 30  1  1  0  0  0
 26 25  1  0  0  0  0
 26 24  1  0  0  0  0
 27 31  1  0  0  0  0
 28 32  1  0  0  0  0
 29 30  1  0  0  0  0
 29 31  2  0  0  0  0
 30 28  2  0  0  0  0
 31 33  1  0  0  0  0
 33 32  2  0  0  0  0
 34 36  1  0  0  0  0
 34  2  1  0  0  0  0
 36 35  1  6  0  0  0
 36 38  1  0  0  0  0
 37 38  1  0  0  0  0
 38 39  1  0  0  0  0
M  END
>  <MODEL>
2

>  <REMARK>
 VINA RESULT:      -6.7      6.325      9.284
  Name = 
  13 active torsions:
  status: ('A' for Active; 'I' for Inactive)
    1  A    between atoms: C_3  and  N_8
    2  A    between atoms: N_6  and  C_17
    3  A    between atoms: C_11  and  C_13
    4  A    between atoms: C_11  and  C_33
    5  A    between atoms: C_13  and  C_21
    6  A    between atoms: C_16  and  C_30
    7  A    between atoms: N_18  and  C_21
    8  A    between atoms: N_18  and  C_31
    9  A    between atoms: C_20  and  C_36
   10  A    between atoms: N_24  and  N_28
   11  A    between atoms: N_28  and  C_31
   12  A    between atoms: C_33  and  N_34
   13  A    between atoms: N_34  and  C_36
                            x       y       z     vdW  Elec       q    Type
                         _______ _______ _______ _____ _____    ______ ____

>  <TORSDO>
F 13

$$$$
=
 OpenBabel11052410013D

 39 42  0  0  1  0  0  0  0  0999 V2000
  160.7710  213.1980  146.4050 C   0  0  0  0  0  3  0  0  0  0  0  0
  160.0740  213.6640  147.4490 C   0  0  0  0  0  0  0  0  0  0  0  0
  160.1450  214.0400  142.8220 C   0  0  0  0  0  2  0  0  0  0  0  0
  160.3390  213.2500  145.0380 N   0  0  0  0  0  0  0  0  0  0  0  0
  159.9400  212.5300  142.8180 C   0  0  2  0  0  3  0  0  0  0  0  0
  159.8420  212.1210  144.2730 C   0  0  0  0  0  2  0  0  0  0  0  0
  160.6340  214.4000  144.2120 C   0  0  0  0  0  2  0  0  0  0  0  0
  161.1050  211.8910  142.2270 N   0  0  0  0  0  2  0  0  0  0  0  0
  160.1250  210.8700  138.8180 C   0  0  1  0  0  3  0  0  0  0  0  0
  161.8260  211.1620  138.2420 S   0  0  0  0  0  0  0  0  0  0  0  0
  159.8050  209.3870  138.7740 C   0  0  0  0  0  1  0  0  0  0  0  0
  160.0250  211.3640  140.1800 N   0  0  0  0  0  0  0  0  0  0  0  0
  161.0990  211.3630  140.9000 C   0  0  0  0  0  0  0  0  0  0  0  0
  162.5930  210.7090  140.1810 S   0  0  0  0  0  0  0  0  0  0  0  0
  160.6180  213.4400  148.8080 C   0  0  0  0  0  0  0  0  0  0  0  0
  161.4070  212.4460  149.0820 N   0  0  0  0  0  0  0  0  0  0  0  0
  161.7840  211.4960  148.1240 N   0  0  0  0  0  1  0  0  0  0  0  0
  160.2090  214.3540  149.9140 C   0  0  0  0  0  2  0  0  0  0  0  0
  159.1030  213.7110  150.7350 C   0  0  0  0  0  2  0  0  0  0  0  0
  159.6590  213.1210  151.9440 N   0  0  0  0  0  2  0  0  0  0  0  0
  157.9350  212.3140  153.3210 O   0  0  0  0  0  1  0  0  0  0  0  0
  158.8240  211.9770  152.2940 C   0  0  2  0  0  3  0  0  0  0  0  0
  159.6510  210.8390  152.6820 N   0  0  0  0  0  2  0  0  0  0  0  0
  160.7700  211.3160  153.3930 N   0  0  0  0  0  0  0  0  0  0  0  0
  161.8680  210.3530  153.4040 C   0  0  1  0  0  3  0  0  0  0  0  0
  160.9750  210.4220  154.4320 O   0  0  0  0  0  0  0  0  0  0  0  0
  162.0070  207.9600  148.6900 S   0  0  0  0  0  1  0  0  0  0  0  0
  161.1450  207.9550  153.1900 C   0  0  0  0  0  3  0  0  0  0  0  0
  161.9030  209.1100  151.2000 C   0  0  0  0  0  3  0  0  0  0  0  0
  161.6530  209.1090  152.5800 C   0  0  0  0  0  0  0  0  0  0  0  0
  161.6720  207.9570  150.4430 C   0  0  0  0  0  0  0  0  0  0  0  0
  160.9150  206.8030  152.4330 C   0  0  0  0  0  3  0  0  0  0  0  0
  161.1810  206.8030  151.0600 C   0  0  0  0  0  3  0  0  0  0  0  0
  158.8110  214.3170  147.2560 N   0  0  0  0  0  2  0  0  0  0  0  0
  157.6620  212.4680  148.0700 F   0  0  0  0  0  0  0  0  0  0  0  0
  157.5200  213.6530  147.3710 C   0  0  2  0  0  3  0  0  0  0  0  0
  156.7010  212.0240  145.8280 F   0  0  0  0  0  0  0  0  0  0  0  0
  156.9630  213.3760  145.9850 C   0  0  0  0  0  3  0  0  0  0  0  0
  155.8000  214.1000  145.7910 F   0  0  0  0  0  0  0  0  0  0  0  0
  1  2  2  0  0  0  0
  2 15  1  0  0  0  0
  3  7  1  0  0  0  0
  4  1  1  0  0  0  0
  5  8  1  1  0  0  0
  5  3  1  0  0  0  0
  5  6  1  0  0  0  0
  6  4  1  0  0  0  0
  7  4  1  0  0  0  0
  9 11  1  1  0  0  0
  9 12  1  0  0  0  0
 10  9  1  0  0  0  0
 10 14  1  0  0  0  0
 12 13  2  0  0  0  0
 13  8  1  0  0  0  0
 14 13  1  0  0  0  0
 15 16  2  0  0  0  0
 15 18  1  0  0  0  0
 17 16  1  0  0  0  0
 18 19  1  0  0  0  0
 19 20  1  0  0  0  0
 20 22  1  0  0  0  0
 22 23  1  0  0  0  0
 22 21  1  1  0  0  0
 23 24  1  0  0  0  0
 24 25  1  0  0  0  0
 24 26  1  0  0  0  0
 25 30  1  6  0  0  0
 25 26  1  0  0  0  0
 27 31  1  0  0  0  0
 29 30  2  0  0  0  0
 30 28  1  0  0  0  0
 31 33  2  0  0  0  0
 31 29  1  0  0  0  0
 32 28  2  0  0  0  0
 33 32  1  0  0  0  0
 34 36  1  0  0  0  0
 34  2  1  0  0  0  0
 36 35  1  6  0  0  0
 37 38  1  0  0  0  0
 38 36  1  0  0  0  0
 39 38  1  0  0  0  0
M  END
>  <MODEL>
3

>  <REMARK>
 VINA RESULT:      -6.6      6.817     10.509
  Name = 
  13 active torsions:
  status: ('A' for Active; 'I' for Inactive)
    1  A    between atoms: C_3  and  N_8
    2  A    between atoms: N_6  and  C_17
    3  A    between atoms: C_11  and  C_13
    4  A    between atoms: C_11  and  C_33
    5  A    between atoms: C_13  and  C_21
    6  A    between atoms: C_16  and  C_30
    7  A    between atoms: N_18  and  C_21
    8  A    between atoms: N_18  and  C_31
    9  A    between atoms: C_20  and  C_36
   10  A    between atoms: N_24  and  N_28
   11  A    between atoms: N_28  and  C_31
   12  A    between atoms: C_33  and  N_34
   13  A    between atoms: N_34  and  C_36
                            x       y       z     vdW  Elec       q    Type
                         _______ _______ _______ _____ _____    ______ ____

>  <TORSDO>
F 13

$$$$
=
 OpenBabel11052410013D

 39 42  0  0  1  0  0  0  0  0999 V2000
  161.9510  210.6930  148.9620 C   0  0  0  0  0  3  0  0  0  0  0  0
  161.6760  210.5380  150.2630 C   0  0  0  0  0  0  0  0  0  0  0  0
  162.5700  213.9830  147.3100 C   0  0  0  0  0  2  0  0  0  0  0  0
  161.8670  211.9340  148.2460 N   0  0  0  0  0  0  0  0  0  0  0  0
  161.4280  213.4310  146.4660 C   0  0  2  0  0  3  0  0  0  0  0  0
  160.8720  212.2540  147.2400 C   0  0  0  0  0  2  0  0  0  0  0  0
  162.9630  212.8770  148.2710 C   0  0  0  0  0  2  0  0  0  0  0  0
  161.9570  212.9540  145.1980 N   0  0  0  0  0  2  0  0  0  0  0  0
  159.7940  214.3630  142.5600 C   0  0  1  0  0  3  0  0  0  0  0  0
  161.2240  214.4530  141.4380 S   0  0  0  0  0  0  0  0  0  0  0  0
  158.8070  213.3220  142.0650 C   0  0  0  0  0  1  0  0  0  0  0  0
  160.2860  214.0000  143.8780 N   0  0  0  0  0  0  0  0  0  0  0  0
  161.3700  213.2980  143.9440 C   0  0  0  0  0  0  0  0  0  0  0  0
  162.1380  212.7920  142.4170 S   0  0  0  0  0  0  0  0  0  0  0  0
  161.7130  209.1700  150.8270 C   0  0  0  0  0  0  0  0  0  0  0  0
  161.6550  208.9450  152.1040 N   0  0  0  0  0  0  0  0  0  0  0  0
  161.5800  209.9780  153.0480 N   0  0  0  0  0  1  0  0  0  0  0  0
  161.8710  208.0080  149.9040 C   0  0  0  0  0  2  0  0  0  0  0  0
  160.9290  206.8870  150.3150 C   0  0  0  0  0  2  0  0  0  0  0  0
  161.6930  205.7040  150.6820 N   0  0  0  0  0  2  0  0  0  0  0  0
  161.2120  204.0110  152.2380 O   0  0  0  0  0  1  0  0  0  0  0  0
  160.7390  204.6850  151.1060 C   0  0  2  0  0  3  0  0  0  0  0  0
  160.4760  203.7460  150.0200 N   0  0  0  0  0  2  0  0  0  0  0  0
  160.8060  202.4480  150.4560 N   0  0  0  0  0  0  0  0  0  0  0  0
  161.1250  201.5570  149.3430 C   0  0  1  0  0  3  0  0  0  0  0  0
  159.8730  201.6000  149.8800 O   0  0  0  0  0  0  0  0  0  0  0  0
  162.1440  205.8000  146.3550 S   0  0  0  0  0  1  0  0  0  0  0  0
  160.6920  201.4850  146.8680 C   0  0  0  0  0  3  0  0  0  0  0  0
  161.5850  203.5250  147.8200 C   0  0  0  0  0  3  0  0  0  0  0  0
  161.1530  202.2010  147.9800 C   0  0  0  0  0  0  0  0  0  0  0  0
  161.5790  204.1180  146.5540 C   0  0  0  0  0  0  0  0  0  0  0  0
  160.6860  202.0790  145.6020 C   0  0  0  0  0  3  0  0  0  0  0  0
  161.1320  203.3940  145.4450 C   0  0  0  0  0  3  0  0  0  0  0  0
  161.3070  211.6620  151.0750 N   0  0  0  0  0  2  0  0  0  0  0  0
  160.4350  213.7750  150.6520 F   0  0  0  0  0  0  0  0  0  0  0  0
  160.0990  212.4520  150.8800 C   0  0  2  0  0  3  0  0  0  0  0  0
  158.8040  211.0350  152.3010 F   0  0  0  0  0  0  0  0  0  0  0  0
  159.2140  212.3450  152.1100 C   0  0  0  0  0  3  0  0  0  0  0  0
  159.9030  212.7830  153.2270 F   0  0  0  0  0  0  0  0  0  0  0  0
  1  2  2  0  0  0  0
  2 15  1  0  0  0  0
  2 34  1  0  0  0  0
  3  7  1  0  0  0  0
  4  7  1  0  0  0  0
  4  1  1  0  0  0  0
  5  8  1  6  0  0  0
  5  6  1  0  0  0  0
  5  3  1  0  0  0  0
  6  4  1  0  0  0  0
  9 11  1  6  0  0  0
  9 12  1  0  0  0  0
 10 14  1  0  0  0  0
 10  9  1  0  0  0  0
 12 13  2  0  0  0  0
 13  8  1  0  0  0  0
 14 13  1  0  0  0  0
 15 16  2  0  0  0  0
 16 17  1  0  0  0  0
 18 19  1  0  0  0  0
 18 15  1  0  0  0  0
 19 20  1  0  0  0  0
 20 22  1  0  0  0  0
 22 21  1  1  0  0  0
 23 24  1  0  0  0  0
 23 22  1  0  0  0  0
 25 30  1  6  0  0  0
 25 26  1  0  0  0  0
 25 24  1  0  0  0  0
 26 24  1  0  0  0  0
 27 31  1  0  0  0  0
 28 30  1  0  0  0  0
 29 30  2  0  0  0  0
 31 29  1  0  0  0  0
 32 28  2  0  0  0  0
 33 32  1  0  0  0  0
 33 31  2  0  0  0  0
 36 35  1  1  0  0  0
 36 34  1  0  0  0  0
 36 38  1  0  0  0  0
 38 37  1  0  0  0  0
 38 39  1  0  0  0  0
M  END
>  <MODEL>
4

>  <REMARK>
 VINA RESULT:      -6.5      5.177      7.001
  Name = 
  13 active torsions:
  status: ('A' for Active; 'I' for Inactive)
    1  A    between atoms: C_3  and  N_8
    2  A    between atoms: N_6  and  C_17
    3  A    between atoms: C_11  and  C_13
    4  A    between atoms: C_11  and  C_33
    5  A    between atoms: C_13  and  C_21
    6  A    between atoms: C_16  and  C_30
    7  A    between atoms: N_18  and  C_21
    8  A    between atoms: N_18  and  C_31
    9  A    between atoms: C_20  and  C_36
   10  A    between atoms: N_24  and  N_28
   11  A    between atoms: N_28  and  C_31
   12  A    between atoms: C_33  and  N_34
   13  A    between atoms: N_34  and  C_36
                            x       y       z     vdW  Elec       q    Type
                         _______ _______ _______ _____ _____    ______ ____

>  <TORSDO>
F 13

$$$$
=
 OpenBabel11052410013D

 39 42  0  0  1  0  0  0  0  0999 V2000
  160.1890  209.4850  152.4730 C   0  0  0  0  0  3  0  0  0  0  0  0
  160.3260  210.6710  153.0790 C   0  0  0  0  0  0  0  0  0  0  0  0
  161.9480  206.4030  153.6310 C   0  0  0  0  0  2  0  0  0  0  0  0
  161.0620  208.3610  152.6570 N   0  0  0  0  0  0  0  0  0  0  0  0
  162.2580  206.3850  152.1390 C   0  0  2  0  0  3  0  0  0  0  0  0
  161.8790  207.7570  151.6210 C   0  0  0  0  0  2  0  0  0  0  0  0
  160.9820  207.5510  153.8520 C   0  0  0  0  0  2  0  0  0  0  0  0
  161.4230  205.3880  151.4890 N   0  0  0  0  0  2  0  0  0  0  0  0
  161.9270  205.8040  147.8560 C   0  0  1  0  0  3  0  0  0  0  0  0
  161.6890  204.0150  147.6190 S   0  0  0  0  0  0  0  0  0  0  0  0
  160.7720  206.5700  147.2390 C   0  0  0  0  0  1  0  0  0  0  0  0
  161.9920  206.0580  149.2840 N   0  0  0  0  0  0  0  0  0  0  0  0
  161.3590  205.2490  150.0690 C   0  0  0  0  0  0  0  0  0  0  0  0
  160.4210  203.9250  149.3320 S   0  0  0  0  0  0  0  0  0  0  0  0
  159.3970  211.7600  152.7010 C   0  0  0  0  0  0  0  0  0  0  0  0
  158.2970  211.9890  153.3510 N   0  0  0  0  0  0  0  0  0  0  0  0
  157.8900  211.2100  154.4430 N   0  0  0  0  0  1  0  0  0  0  0  0
  159.7050  212.5940  151.5030 C   0  0  0  0  0  2  0  0  0  0  0  0
  158.4560  213.3380  151.0550 C   0  0  0  0  0  2  0  0  0  0  0  0
  158.7640  214.1830  149.9100 N   0  0  0  0  0  2  0  0  0  0  0  0
  156.6640  213.2470  149.4290 O   0  0  0  0  0  1  0  0  0  0  0  0
  157.5540  214.2760  149.1010 C   0  0  2  0  0  3  0  0  0  0  0  0
  157.8850  214.2380  147.6800 N   0  0  0  0  0  2  0  0  0  0  0  0
  157.0900  213.2550  147.0580 N   0  0  0  0  0  0  0  0  0  0  0  0
  157.8360  212.4930  146.0590 C   0  0  1  0  0  3  0  0  0  0  0  0
  157.0750  213.5690  145.7080 O   0  0  0  0  0  0  0  0  0  0  0  0
  162.6880  212.2020  148.1440 S   0  0  0  0  0  1  0  0  0  0  0  0
  159.7780  213.5710  144.8800 C   0  0  0  0  0  3  0  0  0  0  0  0
  160.1980  212.4070  146.9630 C   0  0  0  0  0  3  0  0  0  0  0  0
  159.3060  212.8130  145.9600 C   0  0  0  0  0  0  0  0  0  0  0  0
  161.5540  212.7340  146.8720 C   0  0  0  0  0  0  0  0  0  0  0  0
  161.1340  213.8980  144.7900 C   0  0  0  0  0  3  0  0  0  0  0  0
  162.0220  213.4770  145.7840 C   0  0  0  0  0  3  0  0  0  0  0  0
  161.3750  210.8910  154.0320 N   0  0  0  0  0  2  0  0  0  0  0  0
  160.8160  212.2350  155.8440 F   0  0  0  0  0  0  0  0  0  0  0  0
  161.1740  210.9510  155.4730 C   0  0  2  0  0  3  0  0  0  0  0  0
  162.4880  209.1680  156.3670 F   0  0  0  0  0  0  0  0  0  0  0  0
  162.4510  210.5410  156.1850 C   0  0  0  0  0  3  0  0  0  0  0  0
  163.5520  210.9410  155.4490 F   0  0  0  0  0  0  0  0  0  0  0  0
  1  4  1  0  0  0  0
  1  2  2  0  0  0  0
  2 34  1  0  0  0  0
  3  7  1  0  0  0  0
  4  7  1  0  0  0  0
  5  8  1  6  0  0  0
  5  3  1  0  0  0  0
  6  5  1  0  0  0  0
  6  4  1  0  0  0  0
  9 11  1  1  0  0  0
  9 12  1  0  0  0  0
 10  9  1  0  0  0  0
 10 14  1  0  0  0  0
 12 13  2  0  0  0  0
 13  8  1  0  0  0  0
 14 13  1  0  0  0  0
 15  2  1  0  0  0  0
 15 16  2  0  0  0  0
 16 17  1  0  0  0  0
 18 15  1  0  0  0  0
 19 18  1  0  0  0  0
 20 19  1  0  0  0  0
 22 21  1  1  0  0  0
 22 20  1  0  0  0  0
 23 22  1  0  0  0  0
 24 23  1  0  0  0  0
 25 30  1  1  0  0  0
 25 24  1  0  0  0  0
 26 25  1  0  0  0  0
 26 24  1  0  0  0  0
 28 30  1  0  0  0  0
 30 29  2  0  0  0  0
 31 29  1  0  0  0  0
 31 27  1  0  0  0  0
 32 28  2  0  0  0  0
 32 33  1  0  0  0  0
 33 31  2  0  0  0  0
 34 36  1  0  0  0  0
 36 35  1  1  0  0  0
 36 38  1  0  0  0  0
 38 37  1  0  0  0  0
 39 38  1  0  0  0  0
M  END
>  <MODEL>
5

>  <REMARK>
 VINA RESULT:      -6.4      4.560      8.841
  Name = 
  13 active torsions:
  status: ('A' for Active; 'I' for Inactive)
    1  A    between atoms: C_3  and  N_8
    2  A    between atoms: N_6  and  C_17
    3  A    between atoms: C_11  and  C_13
    4  A    between atoms: C_11  and  C_33
    5  A    between atoms: C_13  and  C_21
    6  A    between atoms: C_16  and  C_30
    7  A    between atoms: N_18  and  C_21
    8  A    between atoms: N_18  and  C_31
    9  A    between atoms: C_20  and  C_36
   10  A    between atoms: N_24  and  N_28
   11  A    between atoms: N_28  and  C_31
   12  A    between atoms: C_33  and  N_34
   13  A    between atoms: N_34  and  C_36
                            x       y       z     vdW  Elec       q    Type
                         _______ _______ _______ _____ _____    ______ ____

>  <TORSDO>
F 13

$$$$
=
 OpenBabel11052410013D

 39 42  0  0  1  0  0  0  0  0999 V2000
  162.0240  209.4060  152.3260 C   0  0  0  0  0  3  0  0  0  0  0  0
  160.9470  209.6850  153.0710 C   0  0  0  0  0  0  0  0  0  0  0  0
  161.9970  209.7450  148.6090 C   0  0  0  0  0  2  0  0  0  0  0  0
  162.2030  209.8020  150.9590 N   0  0  0  0  0  0  0  0  0  0  0  0
  162.1950  211.1930  149.0430 C   0  0  2  0  0  3  0  0  0  0  0  0
  162.5520  211.1390  150.5140 C   0  0  0  0  0  2  0  0  0  0  0  0
  161.7660  208.9470  149.8780 C   0  0  0  0  0  2  0  0  0  0  0  0
  160.9420  211.9140  148.8880 N   0  0  0  0  0  2  0  0  0  0  0  0
  160.7430  212.9260  145.3440 C   0  0  1  0  0  3  0  0  0  0  0  0
  158.9330  212.7530  145.3970 S   0  0  0  0  0  0  0  0  0  0  0  0
  161.1240  214.3860  145.1820 C   0  0  0  0  0  1  0  0  0  0  0  0
  161.2760  212.4040  146.5900 N   0  0  0  0  0  0  0  0  0  0  0  0
  160.5220  212.4620  147.6390 C   0  0  0  0  0  0  0  0  0  0  0  0
  158.9170  213.2210  147.4790 S   0  0  0  0  0  0  0  0  0  0  0  0
  160.8750  209.1140  154.4350 C   0  0  0  0  0  0  0  0  0  0  0  0
  161.4210  209.6960  155.4590 N   0  0  0  0  0  0  0  0  0  0  0  0
  162.1420  210.8930  155.3500 N   0  0  0  0  0  1  0  0  0  0  0  0
  160.1950  207.8020  154.6390 C   0  0  0  0  0  2  0  0  0  0  0  0
  161.1900  206.6680  154.4430 C   0  0  0  0  0  2  0  0  0  0  0  0
  160.8400  205.8980  153.2590 N   0  0  0  0  0  2  0  0  0  0  0  0
  163.1050  206.2890  152.7730 O   0  0  0  0  0  1  0  0  0  0  0  0
  162.0760  205.3410  152.7210 C   0  0  2  0  0  3  0  0  0  0  0  0
  161.8750  204.8730  151.3540 N   0  0  0  0  0  2  0  0  0  0  0  0
  161.4140  203.5420  151.3960 N   0  0  0  0  0  0  0  0  0  0  0  0
  160.8450  203.1150  150.1200 C   0  0  1  0  0  3  0  0  0  0  0  0
  160.0560  203.5960  151.1230 O   0  0  0  0  0  0  0  0  0  0  0  0
  162.7180  204.3480  145.3290 S   0  0  0  0  0  1  0  0  0  0  0  0
  160.3660  205.3740  149.1250 C   0  0  0  0  0  3  0  0  0  0  0  0
  161.6840  203.8050  147.8340 C   0  0  0  0  0  3  0  0  0  0  0  0
  160.9540  204.1100  148.9920 C   0  0  0  0  0  0  0  0  0  0  0  0
  161.8000  204.7480  146.8080 C   0  0  0  0  0  0  0  0  0  0  0  0
  160.4830  206.3160  148.0990 C   0  0  0  0  0  3  0  0  0  0  0  0
  161.1980  206.0020  146.9400 C   0  0  0  0  0  3  0  0  0  0  0  0
  159.8720  210.4740  152.5420 N   0  0  0  0  0  2  0  0  0  0  0  0
  159.6670  212.1780  154.1090 F   0  0  0  0  0  0  0  0  0  0  0  0
  159.7270  211.9070  152.7530 C   0  0  2  0  0  3  0  0  0  0  0  0
  157.5330  212.8170  153.0060 F   0  0  0  0  0  0  0  0  0  0  0  0
  158.4640  212.4000  152.0680 C   0  0  0  0  0  3  0  0  0  0  0  0
  158.7660  213.4480  151.2170 F   0  0  0  0  0  0  0  0  0  0  0  0
  1  2  2  0  0  0  0
  2 15  1  0  0  0  0
  3  5  1  0  0  0  0
  3  7  1  0  0  0  0
  4  1  1  0  0  0  0
  5  8  1  1  0  0  0
  5  6  1  0  0  0  0
  6  4  1  0  0  0  0
  7  4  1  0  0  0  0
  9 11  1  1  0  0  0
  9 10  1  0  0  0  0
  9 12  1  0  0  0  0
 10 14  1  0  0  0  0
 12 13  2  0  0  0  0
 13  8  1  0  0  0  0
 14 13  1  0  0  0  0
 15 18  1  0  0  0  0
 15 16  2  0  0  0  0
 17 16  1  0  0  0  0
 19 18  1  0  0  0  0
 20 19  1  0  0  0  0
 22 21  1  6  0  0  0
 22 20  1  0  0  0  0
 23 24  1  0  0  0  0
 23 22  1  0  0  0  0
 25 30  1  6  0  0  0
 25 26  1  0  0  0  0
 25 24  1  0  0  0  0
 26 24  1  0  0  0  0
 27 31  1  0  0  0  0
 29 30  2  0  0  0  0
 30 28  1  0  0  0  0
 31 33  2  0  0  0  0
 31 29  1  0  0  0  0
 32 28  2  0  0  0  0
 33 32  1  0  0  0  0
 34 36  1  0  0  0  0
 34  2  1  0  0  0  0
 36 35  1  1  0  0  0
 38 36  1  0  0  0  0
 38 37  1  0  0  0  0
 39 38  1  0  0  0  0
M  END
>  <MODEL>
6

>  <REMARK>
 VINA RESULT:      -6.3      4.021      6.409
  Name = 
  13 active torsions:
  status: ('A' for Active; 'I' for Inactive)
    1  A    between atoms: C_3  and  N_8
    2  A    between atoms: N_6  and  C_17
    3  A    between atoms: C_11  and  C_13
    4  A    between atoms: C_11  and  C_33
    5  A    between atoms: C_13  and  C_21
    6  A    between atoms: C_16  and  C_30
    7  A    between atoms: N_18  and  C_21
    8  A    between atoms: N_18  and  C_31
    9  A    between atoms: C_20  and  C_36
   10  A    between atoms: N_24  and  N_28
   11  A    between atoms: N_28  and  C_31
   12  A    between atoms: C_33  and  N_34
   13  A    between atoms: N_34  and  C_36
                            x       y       z     vdW  Elec       q    Type
                         _______ _______ _______ _____ _____    ______ ____

>  <TORSDO>
F 13

$$$$
=
 OpenBabel11052410013D

 39 42  0  0  1  0  0  0  0  0999 V2000
  161.5760  208.3700  148.8680 C   0  0  0  0  0  3  0  0  0  0  0  0
  161.8820  208.3340  150.1710 C   0  0  0  0  0  0  0  0  0  0  0  0
  162.8790  205.5120  146.8500 C   0  0  0  0  0  2  0  0  0  0  0  0
  161.7800  207.2900  147.9450 N   0  0  0  0  0  0  0  0  0  0  0  0
  161.3780  205.2580  146.7990 C   0  0  2  0  0  3  0  0  0  0  0  0
  160.7250  206.5290  147.3000 C   0  0  0  0  0  2  0  0  0  0  0  0
  163.0830  206.6800  147.7970 C   0  0  0  0  0  2  0  0  0  0  0  0
  161.0460  204.1690  147.7040 N   0  0  0  0  0  2  0  0  0  0  0  0
  160.8420  201.1140  145.6430 C   0  0  1  0  0  3  0  0  0  0  0  0
  161.4580  200.1290  147.0430 S   0  0  0  0  0  0  0  0  0  0  0  0
  159.3960  200.7600  145.3510 C   0  0  0  0  0  1  0  0  0  0  0  0
  160.9520  202.5170  146.0030 N   0  0  0  0  0  0  0  0  0  0  0  0
  160.8830  202.8230  147.2580 C   0  0  0  0  0  0  0  0  0  0  0  0
  160.6060  201.5090  148.4290 S   0  0  0  0  0  0  0  0  0  0  0  0
  161.7020  209.5710  150.9640 C   0  0  0  0  0  0  0  0  0  0  0  0
  161.9100  210.7510  150.4640 N   0  0  0  0  0  0  0  0  0  0  0  0
  162.3430  210.9440  149.1450 N   0  0  0  0  0  1  0  0  0  0  0  0
  161.3190  209.4630  152.4020 C   0  0  0  0  0  2  0  0  0  0  0  0
  160.8480  210.8150  152.9160 C   0  0  0  0  0  2  0  0  0  0  0  0
  159.4010  210.9160  152.7970 N   0  0  0  0  0  2  0  0  0  0  0  0
  159.2630  213.2190  152.3560 O   0  0  0  0  0  1  0  0  0  0  0  0
  159.0130  212.2250  153.3090 C   0  0  2  0  0  3  0  0  0  0  0  0
  159.7160  212.5160  154.5540 N   0  0  0  0  0  2  0  0  0  0  0  0
  158.7650  212.8150  155.5500 N   0  0  0  0  0  0  0  0  0  0  0  0
  158.8150  211.8680  156.6620 C   0  0  1  0  0  3  0  0  0  0  0  0
  157.9350  211.7080  155.6340 O   0  0  0  0  0  0  0  0  0  0  0  0
  160.3930  206.9800  155.3990 S   0  0  0  0  0  1  0  0  0  0  0  0
  161.1880  211.1610  157.0970 C   0  0  0  0  0  3  0  0  0  0  0  0
  159.6770  209.5580  156.0890 C   0  0  0  0  0  3  0  0  0  0  0  0
  159.9190  210.8430  156.5960 C   0  0  0  0  0  0  0  0  0  0  0  0
  160.7030  208.6090  156.0600 C   0  0  0  0  0  0  0  0  0  0  0  0
  162.2140  210.2110  157.0680 C   0  0  0  0  0  3  0  0  0  0  0  0
  161.9720  208.9370  156.5460 C   0  0  0  0  0  3  0  0  0  0  0  0
  162.4160  207.1430  150.7670 N   0  0  0  0  0  2  0  0  0  0  0  0
  162.3310  206.0210  152.8010 F   0  0  0  0  0  0  0  0  0  0  0  0
  161.6530  206.2380  151.6140 C   0  0  2  0  0  3  0  0  0  0  0  0
  161.9580  203.8700  151.6280 F   0  0  0  0  0  0  0  0  0  0  0  0
  161.4360  204.9210  150.8900 C   0  0  0  0  0  3  0  0  0  0  0  0
  160.0850  204.7130  150.6800 F   0  0  0  0  0  0  0  0  0  0  0  0
  1  2  2  0  0  0  0
  2 34  1  0  0  0  0
  2 15  1  0  0  0  0
  3  7  1  0  0  0  0
  4  1  1  0  0  0  0
  5  3  1  0  0  0  0
  5  6  1  0  0  0  0
  5  8  1  1  0  0  0
  6  4  1  0  0  0  0
  7  4  1  0  0  0  0
  9 11  1  1  0  0  0
  9 12  1  0  0  0  0
  9 10  1  0  0  0  0
 10 14  1  0  0  0  0
 12 13  2  0  0  0  0
 13  8  1  0  0  0  0
 13 14  1  0  0  0  0
 15 18  1  0  0  0  0
 16 15  2  0  0  0  0
 17 16  1  0  0  0  0
 18 19  1  0  0  0  0
 20 19  1  0  0  0  0
 20 22  1  0  0  0  0
 22 21  1  6  0  0  0
 22 23  1  0  0  0  0
 23 24  1  0  0  0  0
 24 26  1  0  0  0  0
 24 25  1  0  0  0  0
 25 30  1  6  0  0  0
 26 25  1  0  0  0  0
 27 31  1  0  0  0  0
 29 30  1  0  0  0  0
 30 28  2  0  0  0  0
 31 29  2  0  0  0  0
 31 33  1  0  0  0  0
 32 28  1  0  0  0  0
 33 32  2  0  0  0  0
 34 36  1  0  0  0  0
 36 35  1  1  0  0  0
 38 36  1  0  0  0  0
 38 37  1  0  0  0  0
 39 38  1  0  0  0  0
M  END
>  <MODEL>
7

>  <REMARK>
 VINA RESULT:      -6.1      3.685      9.818
  Name = 
  13 active torsions:
  status: ('A' for Active; 'I' for Inactive)
    1  A    between atoms: C_3  and  N_8
    2  A    between atoms: N_6  and  C_17
    3  A    between atoms: C_11  and  C_13
    4  A    between atoms: C_11  and  C_33
    5  A    between atoms: C_13  and  C_21
    6  A    between atoms: C_16  and  C_30
    7  A    between atoms: N_18  and  C_21
    8  A    between atoms: N_18  and  C_31
    9  A    between atoms: C_20  and  C_36
   10  A    between atoms: N_24  and  N_28
   11  A    between atoms: N_28  and  C_31
   12  A    between atoms: C_33  and  N_34
   13  A    between atoms: N_34  and  C_36
                            x       y       z     vdW  Elec       q    Type
                         _______ _______ _______ _____ _____    ______ ____

>  <TORSDO>
F 13

$$$$
=
 OpenBabel11052410013D

 39 42  0  0  1  0  0  0  0  0999 V2000
  161.2040  207.7540  149.3030 C   0  0  0  0  0  3  0  0  0  0  0  0
  161.4350  207.5050  150.5980 C   0  0  0  0  0  0  0  0  0  0  0  0
  162.7560  205.4360  146.8220 C   0  0  0  0  0  2  0  0  0  0  0  0
  161.4920  206.8500  148.2260 N   0  0  0  0  0  0  0  0  0  0  0  0
  161.3160  204.9400  146.8390 C   0  0  2  0  0  3  0  0  0  0  0  0
  160.5180  206.0090  147.5560 C   0  0  0  0  0  2  0  0  0  0  0  0
  162.8570  206.4930  147.9060 C   0  0  0  0  0  2  0  0  0  0  0  0
  161.2440  203.7050  147.6040 N   0  0  0  0  0  2  0  0  0  0  0  0
  160.4500  201.0230  145.1950 C   0  0  1  0  0  3  0  0  0  0  0  0
  161.4260  199.8480  146.1840 S   0  0  0  0  0  0  0  0  0  0  0  0
  158.9770  200.6630  145.2610 C   0  0  0  0  0  1  0  0  0  0  0  0
  160.6660  202.3510  145.7420 N   0  0  0  0  0  0  0  0  0  0  0  0
  160.9520  202.4450  146.9990 C   0  0  0  0  0  0  0  0  0  0  0  0
  161.0060  200.9470  147.9630 S   0  0  0  0  0  0  0  0  0  0  0  0
  161.1740  208.5860  151.5740 C   0  0  0  0  0  0  0  0  0  0  0  0
  161.5860  209.8030  151.3870 N   0  0  0  0  0  0  0  0  0  0  0  0
  162.3310  210.1810  150.2620 N   0  0  0  0  0  1  0  0  0  0  0  0
  160.4570  208.2630  152.8420 C   0  0  0  0  0  2  0  0  0  0  0  0
  161.3510  208.5640  154.0350 C   0  0  0  0  0  2  0  0  0  0  0  0
  161.2730  207.4790  155.0020 N   0  0  0  0  0  2  0  0  0  0  0  0
  160.5500  207.1970  157.2190 O   0  0  0  0  0  1  0  0  0  0  0  0
  161.1620  208.0830  156.3250 C   0  0  2  0  0  3  0  0  0  0  0  0
  160.4200  209.3380  156.2540 N   0  0  0  0  0  2  0  0  0  0  0  0
  160.9500  210.2300  157.2080 N   0  0  0  0  0  0  0  0  0  0  0  0
  160.5010  211.6030  156.9870 C   0  0  1  0  0  3  0  0  0  0  0  0
  161.6920  211.1580  156.4950 O   0  0  0  0  0  0  0  0  0  0  0  0
  159.4850  212.7830  151.9330 S   0  0  0  0  0  1  0  0  0  0  0  0
  158.1270  211.6590  156.1620 C   0  0  0  0  0  3  0  0  0  0  0  0
  159.9040  212.1470  154.5890 C   0  0  0  0  0  3  0  0  0  0  0  0
  159.4930  211.7900  155.8810 C   0  0  0  0  0  0  0  0  0  0  0  0
  158.9560  212.3440  153.5800 C   0  0  0  0  0  0  0  0  0  0  0  0
  157.1800  211.8570  155.1530 C   0  0  0  0  0  3  0  0  0  0  0  0
  157.5950  212.1960  153.8620 C   0  0  0  0  0  3  0  0  0  0  0  0
  161.9690  206.2410  151.0180 N   0  0  0  0  0  2  0  0  0  0  0  0
  159.9340  205.1970  150.6050 F   0  0  0  0  0  0  0  0  0  0  0  0
  161.2710  204.9710  150.8820 C   0  0  2  0  0  3  0  0  0  0  0  0
  160.8200  204.8480  153.2250 F   0  0  0  0  0  0  0  0  0  0  0  0
  161.4080  204.1720  152.1670 C   0  0  0  0  0  3  0  0  0  0  0  0
  160.8120  202.9330  152.0190 F   0  0  0  0  0  0  0  0  0  0  0  0
  1  2  2  0  0  0  0
  2 34  1  0  0  0  0
  2 15  1  0  0  0  0
  3  5  1  0  0  0  0
  3  7  1  0  0  0  0
  4  1  1  0  0  0  0
  5  6  1  0  0  0  0
  5  8  1  1  0  0  0
  6  4  1  0  0  0  0
  7  4  1  0  0  0  0
  9 11  1  1  0  0  0
  9 12  1  0  0  0  0
  9 10  1  0  0  0  0
 10 14  1  0  0  0  0
 12 13  2  0  0  0  0
 13  8  1  0  0  0  0
 13 14  1  0  0  0  0
 15 18  1  0  0  0  0
 16 15  2  0  0  0  0
 17 16  1  0  0  0  0
 18 19  1  0  0  0  0
 19 20  1  0  0  0  0
 20 22  1  0  0  0  0
 22 21  1  1  0  0  0
 23 22  1  0  0  0  0
 23 24  1  0  0  0  0
 25 30  1  6  0  0  0
 25 24  1  0  0  0  0
 26 25  1  0  0  0  0
 26 24  1  0  0  0  0
 27 31  1  0  0  0  0
 29 30  2  0  0  0  0
 30 28  1  0  0  0  0
 31 33  2  0  0  0  0
 31 29  1  0  0  0  0
 32 28  2  0  0  0  0
 33 32  1  0  0  0  0
 36 35  1  1  0  0  0
 36 34  1  0  0  0  0
 36 38  1  0  0  0  0
 38 37  1  0  0  0  0
 39 38  1  0  0  0  0
M  END
>  <MODEL>
8

>  <REMARK>
 VINA RESULT:      -6.1      3.594     10.210
  Name = 
  13 active torsions:
  status: ('A' for Active; 'I' for Inactive)
    1  A    between atoms: C_3  and  N_8
    2  A    between atoms: N_6  and  C_17
    3  A    between atoms: C_11  and  C_13
    4  A    between atoms: C_11  and  C_33
    5  A    between atoms: C_13  and  C_21
    6  A    between atoms: C_16  and  C_30
    7  A    between atoms: N_18  and  C_21
    8  A    between atoms: N_18  and  C_31
    9  A    between atoms: C_20  and  C_36
   10  A    between atoms: N_24  and  N_28
   11  A    between atoms: N_28  and  C_31
   12  A    between atoms: C_33  and  N_34
   13  A    between atoms: N_34  and  C_36
                            x       y       z     vdW  Elec       q    Type
                         _______ _______ _______ _____ _____    ______ ____

>  <TORSDO>
F 13

$$$$
=
 OpenBabel11052410013D

 39 42  0  0  1  0  0  0  0  0999 V2000
  160.5490  209.5340  152.9320 C   0  0  0  0  0  3  0  0  0  0  0  0
  160.8440  208.8950  154.0710 C   0  0  0  0  0  0  0  0  0  0  0  0
  160.0600  213.0460  151.7650 C   0  0  0  0  0  2  0  0  0  0  0  0
  160.3630  210.9510  152.8090 N   0  0  0  0  0  0  0  0  0  0  0  0
  159.4010  213.0890  153.1380 C   0  0  2  0  0  3  0  0  0  0  0  0
  159.8270  211.8180  153.8420 C   0  0  0  0  0  2  0  0  0  0  0  0
  160.4340  211.5960  151.5160 C   0  0  0  0  0  2  0  0  0  0  0  0
  157.9560  213.0770  152.9760 N   0  0  0  0  0  2  0  0  0  0  0  0
  156.5180  213.5490  156.3420 C   0  0  1  0  0  3  0  0  0  0  0  0
  155.1140  214.4490  155.6150 S   0  0  0  0  0  0  0  0  0  0  0  0
  156.0490  212.2240  156.9150 C   0  0  0  0  0  1  0  0  0  0  0  0
  157.4940  213.3230  155.2900 N   0  0  0  0  0  0  0  0  0  0  0  0
  157.0600  213.2330  154.0760 C   0  0  0  0  0  0  0  0  0  0  0  0
  155.3020  213.3410  153.8010 S   0  0  0  0  0  0  0  0  0  0  0  0
  160.9030  207.4150  154.0460 C   0  0  0  0  0  0  0  0  0  0  0  0
  160.3120  206.6840  154.9420 N   0  0  0  0  0  0  0  0  0  0  0  0
  159.5960  207.2360  156.0120 N   0  0  0  0  0  1  0  0  0  0  0  0
  161.7080  206.7380  152.9890 C   0  0  0  0  0  2  0  0  0  0  0  0
  161.2380  205.3010  152.8210 C   0  0  0  0  0  2  0  0  0  0  0  0
  161.9190  204.6830  151.6940 N   0  0  0  0  0  2  0  0  0  0  0  0
  161.5420  202.3650  151.7660 O   0  0  0  0  0  1  0  0  0  0  0  0
  161.0860  203.5770  151.2340 C   0  0  2  0  0  3  0  0  0  0  0  0
  161.0640  203.5240  149.7770 N   0  0  0  0  0  2  0  0  0  0  0  0
  160.9810  202.1760  149.3750 N   0  0  0  0  0  0  0  0  0  0  0  0
  161.0940  202.0230  147.9270 C   0  0  1  0  0  3  0  0  0  0  0  0
  159.8780  202.0890  148.5410 O   0  0  0  0  0  0  0  0  0  0  0  0
  162.0890  207.2180  147.9590 S   0  0  0  0  0  1  0  0  0  0  0  0
  161.3980  203.2590  145.7580 C   0  0  0  0  0  3  0  0  0  0  0  0
  161.5810  204.5050  147.8280 C   0  0  0  0  0  3  0  0  0  0  0  0
  161.3820  203.2890  147.1590 C   0  0  0  0  0  0  0  0  0  0  0  0
  161.8210  205.6750  147.1020 C   0  0  0  0  0  0  0  0  0  0  0  0
  161.6370  204.4300  145.0330 C   0  0  0  0  0  3  0  0  0  0  0  0
  161.8510  205.6370  145.7050 C   0  0  0  0  0  3  0  0  0  0  0  0
  161.0470  209.6230  155.2900 N   0  0  0  0  0  2  0  0  0  0  0  0
  162.3510  208.4150  156.7870 F   0  0  0  0  0  0  0  0  0  0  0  0
  162.2780  209.5940  156.0660 C   0  0  2  0  0  3  0  0  0  0  0  0
  163.5870  211.3360  157.0440 F   0  0  0  0  0  0  0  0  0  0  0  0
  162.3170  210.7830  157.0100 C   0  0  0  0  0  3  0  0  0  0  0  0
  161.4050  211.7400  156.6010 F   0  0  0  0  0  0  0  0  0  0  0  0
  1  2  2  0  0  0  0
  2 34  1  0  0  0  0
  3  5  1  0  0  0  0
  4  1  1  0  0  0  0
  4  6  1  0  0  0  0
  5  8  1  6  0  0  0
  5  6  1  0  0  0  0
  7  3  1  0  0  0  0
  7  4  1  0  0  0  0
  8 13  1  0  0  0  0
  9 11  1  6  0  0  0
 10  9  1  0  0  0  0
 12  9  1  0  0  0  0
 13 12  2  0  0  0  0
 14 13  1  0  0  0  0
 14 10  1  0  0  0  0
 15  2  1  0  0  0  0
 15 16  2  0  0  0  0
 16 17  1  0  0  0  0
 18 15  1  0  0  0  0
 19 18  1  0  0  0  0
 20 19  1  0  0  0  0
 22 20  1  0  0  0  0
 22 21  1  1  0  0  0
 23 22  1  0  0  0  0
 24 23  1  0  0  0  0
 25 30  1  6  0  0  0
 25 26  1  0  0  0  0
 25 24  1  0  0  0  0
 26 24  1  0  0  0  0
 28 30  1  0  0  0  0
 30 29  2  0  0  0  0
 31 29  1  0  0  0  0
 31 27  1  0  0  0  0
 32 33  1  0  0  0  0
 32 28  2  0  0  0  0
 33 31  2  0  0  0  0
 34 36  1  0  0  0  0
 36 35  1  1  0  0  0
 36 38  1  0  0  0  0
 38 37  1  0  0  0  0
 39 38  1  0  0  0  0
M  END
>  <MODEL>
9

>  <REMARK>
 VINA RESULT:      -6.1      2.944      4.524
  Name = 
  13 active torsions:
  status: ('A' for Active; 'I' for Inactive)
    1  A    between atoms: C_3  and  N_8
    2  A    between atoms: N_6  and  C_17
    3  A    between atoms: C_11  and  C_13
    4  A    between atoms: C_11  and  C_33
    5  A    between atoms: C_13  and  C_21
    6  A    between atoms: C_16  and  C_30
    7  A    between atoms: N_18  and  C_21
    8  A    between atoms: N_18  and  C_31
    9  A    between atoms: C_20  and  C_36
   10  A    between atoms: N_24  and  N_28
   11  A    between atoms: N_28  and  C_31
   12  A    between atoms: C_33  and  N_34
   13  A    between atoms: N_34  and  C_36
                            x       y       z     vdW  Elec       q    Type
                         _______ _______ _______ _____ _____    ______ ____

>  <TORSDO>
F 13

$$$$
