=
 OpenBabel11052409293D

 35 39  0  0  1  0  0  0  0  0999 V2000
  160.6980  201.6940  149.8750 C   0  0  0  0  0  2  0  0  0  0  0  0
  160.3550  203.7430  148.6800 C   0  0  1  0  0  3  0  0  0  0  0  0
  162.4700  209.5860  152.1820 S   0  0  0  0  0  0  0  0  0  0  0  0
  160.6040  206.1930  148.9230 C   0  0  0  0  0  3  0  0  0  0  0  0
  162.3700  206.6220  147.5910 C   0  0  0  0  0  3  0  0  0  0  0  0
  162.1650  209.5230  148.3670 C   0  0  0  0  0  3  0  0  0  0  0  0
  162.7400  203.3190  152.5460 C   0  0  0  0  0  1  0  0  0  0  0  0
  161.8200  207.9960  152.6950 C   0  0  0  0  0  0  0  0  0  0  0  0
  161.4700  212.3320  150.5600 O   0  0  0  0  0  0  0  0  0  0  0  0
  160.8200  205.5020  153.4740 C   0  0  0  0  0  3  0  0  0  0  0  0
  160.7940  200.8770  146.2100 N   0  0  0  0  0  1  0  0  0  0  0  0
  161.1080  210.0120  151.0310 C   0  0  2  0  0  3  0  0  0  0  0  0
  162.2180  206.8370  152.0230 C   0  0  0  0  0  3  0  0  0  0  0  0
  160.1120  202.8750  147.4280 C   0  0  0  0  0  2  0  0  0  0  0  0
  160.7630  208.8650  150.1920 N   0  0  0  0  0  2  0  0  0  0  0  0
  162.1720  210.8550  148.8950 N   0  0  0  0  0  0  0  0  0  0  0  0
  161.1580  203.0740  149.7210 N   0  0  1  0  0  0  0  0  0  0  0  0
  161.4570  207.1820  148.4730 C   0  0  0  0  0  0  0  0  0  0  0  0
  162.1090  204.3460  151.6210 C   0  0  2  0  0  0  0  0  0  0  0  0
  160.4290  206.6580  154.1570 C   0  0  0  0  0  3  0  0  0  0  0  0
  161.4760  208.5580  148.9860 C   0  0  2  0  0  3  0  0  0  0  0  0
  161.0900  201.7070  147.3630 C   0  0  1  0  0  3  0  0  0  0  0  0
  162.0150  205.2830  147.5490 C   0  0  0  0  0  0  0  0  0  0  0  0
  161.7230  205.5810  152.4000 C   0  0  0  0  0  0  0  0  0  0  0  0
  160.9430  205.0370  148.3310 N   0  0  0  0  0  0  0  0  0  0  0  0
  160.8560  203.7420  150.9820 C   0  0  0  0  0  2  0  0  0  0  0  0
  163.0380  204.6720  150.6420 F   0  0  0  0  0  0  0  0  0  0  0  0
  161.5630  211.1420  150.1580 C   0  0  0  0  0  0  0  0  0  0  0  0
  160.9280  207.9060  153.7680 C   0  0  0  0  0  3  0  0  0  0  0  0
  161.0430  200.8610  148.6360 C   0  0  0  0  0  2  0  0  0  0  0  0
  162.6880  204.2930  146.8300 O   0  0  0  0  0  0  0  0  0  0  0  0
  162.8660  204.3700  145.4210 C   0  0  0  0  0  2  0  0  0  0  0  0
  160.6760  203.8380  144.6060 O   0  0  0  0  0  1  0  0  0  0  0  0
  161.3830  205.9840  144.2420 O   0  0  0  0  0  0  0  0  0  0  0  0
  161.5790  204.7040  144.7410 C   0  0  0  0  0  0  0  0  0  0  0  0
  2 14  1  6  0  0  0
  2 17  1  0  0  0  0
  3  8  1  0  0  0  0
  5 18  1  0  0  0  0
  6 16  2  0  0  0  0
  8 29  1  0  0  0  0
 10 20  1  0  0  0  0
 12 28  1  6  0  0  0
 12  3  1  0  0  0  0
 13 24  1  0  0  0  0
 13  8  2  0  0  0  0
 15 12  1  0  0  0  0
 16 28  1  0  0  0  0
 17  1  1  1  0  0  0
 17 26  1  0  0  0  0
 18  4  2  0  0  0  0
 18 21  1  0  0  0  0
 19 24  1  0  0  0  0
 19  7  1  1  0  0  0
 21  6  1  1  0  0  0
 21 15  1  0  0  0  0
 22 11  1  6  0  0  0
 22 14  1  0  0  0  0
 22 30  1  0  0  0  0
 23  5  2  0  0  0  0
 23 25  1  0  0  0  0
 24 10  2  0  0  0  0
 25  2  1  0  0  0  0
 25  4  1  0  0  0  0
 26 19  1  0  0  0  0
 27 19  1  0  0  0  0
 28  9  2  0  0  0  0
 29 20  2  0  0  0  0
 30  1  1  0  0  0  0
 31 23  1  0  0  0  0
 32 31  1  0  0  0  0
 33 35  1  0  0  0  0
 34 35  2  0  0  0  0
 35 32  1  0  0  0  0
M  END
>  <MODEL>
1

>  <REMARK>
 VINA RESULT:      -2.1      0.000      0.000
  Name = 
  3 active torsions:
  status: ('A' for Active; 'I' for Inactive)
    1  A    between atoms: C_1  and  C_15
    2  A    between atoms: C_1  and  O_34
    3  A    between atoms: C_27  and  O_34
                            x       y       z     vdW  Elec       q    Type
                         _______ _______ _______ _____ _____    ______ ____

>  <TORSDO>
F 3

$$$$
=
 OpenBabel11052409293D

 35 39  0  0  1  0  0  0  0  0999 V2000
  156.1230  214.4510  140.2330 C   0  0  0  0  0  2  0  0  0  0  0  0
  156.6150  212.7930  138.5730 C   0  0  1  0  0  3  0  0  0  0  0  0
  162.7070  209.2470  139.6640 S   0  0  0  0  0  0  0  0  0  0  0  0
  158.3510  211.1510  137.9290 C   0  0  0  0  0  3  0  0  0  0  0  0
  157.3740  209.1940  138.4710 C   0  0  0  0  0  3  0  0  0  0  0  0
  159.8670  207.7740  137.5630 C   0  0  0  0  0  3  0  0  0  0  0  0
  158.8680  213.3300  142.5040 C   0  0  0  0  0  1  0  0  0  0  0  0
  162.1540  210.9110  140.0350 C   0  0  0  0  0  0  0  0  0  0  0  0
  163.4300  207.3460  137.0110 O   0  0  0  0  0  0  0  0  0  0  0  0
  161.2630  213.4980  140.6210 C   0  0  0  0  0  3  0  0  0  0  0  0
  152.8460  213.2910  138.8120 N   0  0  0  0  0  1  0  0  0  0  0  0
  162.3280  209.2910  137.8700 C   0  0  2  0  0  3  0  0  0  0  0  0
  160.8400  211.1230  140.4640 C   0  0  0  0  0  3  0  0  0  0  0  0
  155.1540  212.9500  138.1040 C   0  0  0  0  0  2  0  0  0  0  0  0
  161.0080  209.8770  137.6360 N   0  0  0  0  0  2  0  0  0  0  0  0
  161.1240  207.1370  137.3080 N   0  0  0  0  0  0  0  0  0  0  0  0
  156.8370  213.2010  139.9740 N   0  0  1  0  0  0  0  0  0  0  0  0
  158.5300  209.7820  137.9810 C   0  0  0  0  0  0  0  0  0  0  0  0
  158.9390  212.6350  141.1550 C   0  0  2  0  0  0  0  0  0  0  0  0
  162.5810  213.2880  140.2030 C   0  0  0  0  0  3  0  0  0  0  0  0
  159.8040  209.1020  137.7120 C   0  0  2  0  0  3  0  0  0  0  0  0
  154.2010  213.0820  139.2880 C   0  0  1  0  0  3  0  0  0  0  0  0
  156.5250  210.2660  138.6990 C   0  0  0  0  0  0  0  0  0  0  0  0
  160.3790  212.4140  140.7580 C   0  0  0  0  0  0  0  0  0  0  0  0
  157.1070  211.4330  138.3510 N   0  0  0  0  0  0  0  0  0  0  0  0
  158.2560  213.5120  140.1020 C   0  0  0  0  0  2  0  0  0  0  0  0
  158.2820  211.4160  141.2630 F   0  0  0  0  0  0  0  0  0  0  0  0
  162.3440  207.8860  137.3490 C   0  0  0  0  0  0  0  0  0  0  0  0
  163.0280  211.9960  139.9100 C   0  0  0  0  0  3  0  0  0  0  0  0
  154.6080  214.2310  140.2130 C   0  0  0  0  0  2  0  0  0  0  0  0
  155.2460  210.1790  139.2520 O   0  0  0  0  0  0  0  0  0  0  0  0
  154.6470  208.9310  139.5790 C   0  0  0  0  0  2  0  0  0  0  0  0
  152.5980  208.3900  140.6980 O   0  0  0  0  0  1  0  0  0  0  0  0
  152.4640  210.0300  139.1070 O   0  0  0  0  0  0  0  0  0  0  0  0
  153.1850  209.0960  139.8370 C   0  0  0  0  0  0  0  0  0  0  0  0
  2 14  1  1  0  0  0
  2 17  1  0  0  0  0
  3  8  1  0  0  0  0
  4 18  2  0  0  0  0
  4 25  1  0  0  0  0
  5 23  2  0  0  0  0
  8 13  1  0  0  0  0
  9 28  2  0  0  0  0
 10 24  1  0  0  0  0
 12 28  1  1  0  0  0
 12  3  1  0  0  0  0
 13 24  2  0  0  0  0
 14 22  1  0  0  0  0
 15 21  1  0  0  0  0
 15 12  1  0  0  0  0
 16 28  1  0  0  0  0
 16  6  2  0  0  0  0
 17 26  1  6  0  0  0
 17  1  1  0  0  0  0
 18  5  1  0  0  0  0
 19 27  1  0  0  0  0
 19  7  1  1  0  0  0
 20 10  2  0  0  0  0
 21  6  1  1  0  0  0
 21 18  1  0  0  0  0
 22 11  1  6  0  0  0
 22 30  1  0  0  0  0
 23 31  1  0  0  0  0
 24 19  1  0  0  0  0
 25  2  1  0  0  0  0
 25 23  1  0  0  0  0
 26 19  1  0  0  0  0
 29  8  2  0  0  0  0
 29 20  1  0  0  0  0
 30  1  1  0  0  0  0
 31 32  1  0  0  0  0
 32 35  1  0  0  0  0
 34 35  2  0  0  0  0
 35 33  1  0  0  0  0
M  END
>  <MODEL>
2

>  <REMARK>
 VINA RESULT:      -1.8     11.214     13.365
  Name = 
  3 active torsions:
  status: ('A' for Active; 'I' for Inactive)
    1  A    between atoms: C_1  and  C_15
    2  A    between atoms: C_1  and  O_34
    3  A    between atoms: C_27  and  O_34
                            x       y       z     vdW  Elec       q    Type
                         _______ _______ _______ _____ _____    ______ ____

>  <TORSDO>
F 3

$$$$
=
 OpenBabel11052409293D

 35 39  0  0  1  0  0  0  0  0999 V2000
  160.8150  214.0750  148.9700 C   0  0  0  0  0  2  0  0  0  0  0  0
  161.9960  212.2500  149.9810 C   0  0  1  0  0  3  0  0  0  0  0  0
  158.8110  209.5070  155.7430 S   0  0  0  0  0  0  0  0  0  0  0  0
  161.8940  210.7090  151.9140 C   0  0  0  0  0  3  0  0  0  0  0  0
  161.3070  208.7650  150.9380 C   0  0  0  0  0  3  0  0  0  0  0  0
  161.2990  207.4790  153.6580 C   0  0  0  0  0  3  0  0  0  0  0  0
  157.7630  213.5640  151.0620 C   0  0  0  0  0  1  0  0  0  0  0  0
  158.8730  211.1460  155.0190 C   0  0  0  0  0  0  0  0  0  0  0  0
  160.8400  207.3240  157.2560 O   0  0  0  0  0  0  0  0  0  0  0  0
  158.9700  213.6910  153.8610 C   0  0  0  0  0  3  0  0  0  0  0  0
  162.8180  212.4090  146.2650 N   0  0  0  0  0  1  0  0  0  0  0  0
  160.6230  209.2550  155.8580 C   0  0  2  0  0  3  0  0  0  0  0  0
  158.8360  211.2880  153.6290 C   0  0  0  0  0  3  0  0  0  0  0  0
  162.8440  212.1950  148.6930 C   0  0  0  0  0  2  0  0  0  0  0  0
  161.2820  209.6700  154.6190 N   0  0  0  0  0  2  0  0  0  0  0  0
  161.1130  206.9360  154.9720 N   0  0  0  0  0  2  0  0  0  0  0  0
  160.6720  212.8750  149.7960 N   0  0  1  0  0  0  0  0  0  0  0  0
  161.5740  209.3860  152.1490 C   0  0  0  0  0  0  0  0  0  0  0  0
  158.9150  212.6930  151.5310 C   0  0  2  0  0  0  0  0  0  0  0  0
  158.9950  213.5520  155.2530 C   0  0  0  0  0  3  0  0  0  0  0  0
  161.3910  208.8010  153.4840 C   0  0  0  0  0  0  0  0  0  0  0  0
  161.9830  212.4030  147.4510 C   0  0  1  0  0  3  0  0  0  0  0  0
  161.4840  209.7710  150.0010 C   0  0  0  0  0  0  0  0  0  0  0  0
  158.8870  212.5570  153.0350 C   0  0  0  0  0  0  0  0  0  0  0  0
  161.8580  210.9270  150.5900 N   0  0  0  0  0  0  0  0  0  0  0  0
  160.2370  213.3380  151.1080 C   0  0  0  0  0  2  0  0  0  0  0  0
  158.7800  211.4440  150.9380 F   0  0  0  0  0  0  0  0  0  0  0  0
  160.8850  207.7980  156.0910 C   0  0  0  0  0  0  0  0  0  0  0  0
  158.9470  212.2810  155.8330 C   0  0  0  0  0  3  0  0  0  0  0  0
  161.1860  213.7070  147.5300 C   0  0  0  0  0  2  0  0  0  0  0  0
  161.2710  209.6410  148.6280 O   0  0  0  0  0  0  0  0  0  0  0  0
  162.0280  208.7420  147.8260 C   0  0  0  0  0  2  0  0  0  0  0  0
  162.2180  206.5770  148.8360 O   0  0  0  0  0  1  0  0  0  0  0  0
  160.4800  206.8470  147.3710 O   0  0  0  0  0  0  0  0  0  0  0  0
  161.5890  207.3330  148.0500 C   0  0  0  0  0  0  0  0  0  0  0  0
  2 14  1  6  0  0  0
  2 25  1  0  0  0  0
  3 12  1  0  0  0  0
  4 18  2  0  0  0  0
  5 18  1  0  0  0  0
  6 16  1  0  0  0  0
  8  3  1  0  0  0  0
  8 29  1  0  0  0  0
 10 20  1  0  0  0  0
 12 15  1  6  0  0  0
 12 28  1  0  0  0  0
 13  8  2  0  0  0  0
 16 28  1  0  0  0  0
 17  1  1  6  0  0  0
 17  2  1  0  0  0  0
 17 26  1  0  0  0  0
 18 21  1  0  0  0  0
 19  7  1  6  0  0  0
 19 24  1  0  0  0  0
 20 29  2  0  0  0  0
 21  6  2  0  0  0  0
 21 15  1  0  0  0  0
 22 11  1  6  0  0  0
 22 30  1  0  0  0  0
 22 14  1  0  0  0  0
 23 25  1  0  0  0  0
 23  5  2  0  0  0  0
 24 13  1  0  0  0  0
 24 10  2  0  0  0  0
 25  4  1  0  0  0  0
 26 19  1  0  0  0  0
 27 19  1  0  0  0  0
 28  9  2  0  0  0  0
 30  1  1  0  0  0  0
 31 23  1  0  0  0  0
 32 35  1  0  0  0  0
 32 31  1  0  0  0  0
 34 35  2  0  0  0  0
 35 33  1  0  0  0  0
M  END
>  <MODEL>
3

>  <REMARK>
 VINA RESULT:      -0.8      4.193      7.593
  Name = 
  3 active torsions:
  status: ('A' for Active; 'I' for Inactive)
    1  A    between atoms: C_1  and  C_15
    2  A    between atoms: C_1  and  O_34
    3  A    between atoms: C_27  and  O_34
                            x       y       z     vdW  Elec       q    Type
                         _______ _______ _______ _____ _____    ______ ____

>  <TORSDO>
F 3

$$$$
=
 OpenBabel11052409293D

 35 39  0  0  1  0  0  0  0  0999 V2000
  161.3910  209.0000  156.7130 C   0  0  0  0  0  2  0  0  0  0  0  0
  162.3130  209.7280  154.6240 C   0  0  1  0  0  3  0  0  0  0  0  0
  160.6470  205.5850  149.0620 S   0  0  0  0  0  0  0  0  0  0  0  0
  162.4620  209.0810  152.2400 C   0  0  0  0  0  3  0  0  0  0  0  0
  161.0850  210.5700  151.2590 C   0  0  0  0  0  3  0  0  0  0  0  0
  161.6510  209.2520  148.6140 C   0  0  0  0  0  3  0  0  0  0  0  0
  159.2040  206.4260  155.1180 C   0  0  0  0  0  1  0  0  0  0  0  0
  160.8960  205.2780  150.8100 C   0  0  0  0  0  0  0  0  0  0  0  0
  162.4080  206.4990  146.3710 O   0  0  0  0  0  0  0  0  0  0  0  0
  161.2710  204.8250  153.5450 C   0  0  0  0  0  3  0  0  0  0  0  0
  161.8450  212.7210  156.9330 N   0  0  0  0  0  1  0  0  0  0  0  0
  162.2560  206.4120  148.7590 C   0  0  2  0  0  3  0  0  0  0  0  0
  160.4320  206.2060  151.7470 C   0  0  0  0  0  3  0  0  0  0  0  0
  162.6300  211.0650  155.3250 C   0  0  0  0  0  2  0  0  0  0  0  0
  162.5440  207.3840  149.8140 N   0  0  0  0  0  2  0  0  0  0  0  0
  161.7820  208.4960  147.4040 N   0  0  0  0  0  0  0  0  0  0  0  0
  161.2220  208.9660  155.2600 N   0  0  1  0  0  0  0  0  0  0  0  0
  161.8990  209.4690  151.0400 C   0  0  0  0  0  0  0  0  0  0  0  0
  160.1710  207.0370  154.1180 C   0  0  2  0  0  0  0  0  0  0  0  0
  161.7260  203.8890  152.6110 C   0  0  0  0  0  3  0  0  0  0  0  0
  162.0280  208.7210  149.7820 C   0  0  2  0  0  3  0  0  0  0  0  0
  161.4890  211.4960  156.2420 C   0  0  1  0  0  3  0  0  0  0  0  0
  161.1970  210.8020  152.6210 C   0  0  0  0  0  0  0  0  0  0  0  0
  160.6160  205.9940  153.1210 C   0  0  0  0  0  0  0  0  0  0  0  0
  162.0400  209.9210  153.1980 N   0  0  0  0  0  0  0  0  0  0  0  0
  161.3940  207.5730  154.8660 C   0  0  0  0  0  2  0  0  0  0  0  0
  159.5160  208.0720  153.4630 F   0  0  0  0  0  0  0  0  0  0  0  0
  162.1830  207.1220  147.4420 C   0  0  0  0  0  0  0  0  0  0  0  0
  161.5390  204.1140  151.2430 C   0  0  0  0  0  3  0  0  0  0  0  0
  161.1440  210.4080  157.2610 C   0  0  0  0  0  2  0  0  0  0  0  0
  160.5070  211.7860  153.3310 O   0  0  0  0  0  0  0  0  0  0  0  0
  159.1690  212.1520  153.0120 C   0  0  0  0  0  2  0  0  0  0  0  0
  158.3850  210.8790  154.8850 O   0  0  0  0  0  1  0  0  0  0  0  0
  157.2640  212.8290  154.4630 O   0  0  0  0  0  0  0  0  0  0  0  0
  158.2620  211.9100  154.1740 C   0  0  0  0  0  0  0  0  0  0  0  0
  1 30  1  0  0  0  0
  2 17  1  0  0  0  0
  2 14  1  1  0  0  0
  3  8  1  0  0  0  0
  4 25  1  0  0  0  0
  5 23  2  0  0  0  0
  8 29  2  0  0  0  0
  8 13  1  0  0  0  0
  9 28  2  0  0  0  0
 12 28  1  6  0  0  0
 12  3  1  0  0  0  0
 12 15  1  0  0  0  0
 13 24  2  0  0  0  0
 14 22  1  0  0  0  0
 16 28  1  0  0  0  0
 16  6  2  0  0  0  0
 17 26  1  6  0  0  0
 17  1  1  0  0  0  0
 18  5  1  0  0  0  0
 18  4  2  0  0  0  0
 19 26  1  0  0  0  0
 19  7  1  1  0  0  0
 20 10  2  0  0  0  0
 21  6  1  1  0  0  0
 21 15  1  0  0  0  0
 21 18  1  0  0  0  0
 22 11  1  1  0  0  0
 22 30  1  0  0  0  0
 23 25  1  0  0  0  0
 23 31  1  0  0  0  0
 24 10  1  0  0  0  0
 24 19  1  0  0  0  0
 25  2  1  0  0  0  0
 27 19  1  0  0  0  0
 29 20  1  0  0  0  0
 32 31  1  0  0  0  0
 32 35  1  0  0  0  0
 35 34  2  0  0  0  0
 35 33  1  0  0  0  0
M  END
>  <MODEL>
4

>  <REMARK>
 VINA RESULT:      -0.3      3.275      7.854
  Name = 
  3 active torsions:
  status: ('A' for Active; 'I' for Inactive)
    1  A    between atoms: C_1  and  C_15
    2  A    between atoms: C_1  and  O_34
    3  A    between atoms: C_27  and  O_34
                            x       y       z     vdW  Elec       q    Type
                         _______ _______ _______ _____ _____    ______ ____

>  <TORSDO>
F 3

$$$$
=
 OpenBabel11052409293D

 35 39  0  0  1  0  0  0  0  0999 V2000
  160.9780  210.7580  151.2190 C   0  0  0  0  0  2  0  0  0  0  0  0
  160.2410  208.6380  152.0610 C   0  0  1  0  0  3  0  0  0  0  0  0
  162.1150  203.0540  148.0390 S   0  0  0  0  0  0  0  0  0  0  0  0
  160.2340  206.2280  151.5040 C   0  0  0  0  0  3  0  0  0  0  0  0
  161.7420  205.4020  152.9600 C   0  0  0  0  0  3  0  0  0  0  0  0
  161.3080  202.6760  151.7610 C   0  0  0  0  0  3  0  0  0  0  0  0
  163.1580  209.2240  148.6030 C   0  0  0  0  0  1  0  0  0  0  0  0
  161.7290  204.7680  147.6830 C   0  0  0  0  0  0  0  0  0  0  0  0
  160.5920  200.2840  149.1260 O   0  0  0  0  0  0  0  0  0  0  0  0
  161.1400  207.4520  147.1550 C   0  0  0  0  0  3  0  0  0  0  0  0
  160.6740  211.0860  154.9470 N   0  0  0  0  0  1  0  0  0  0  0  0
  160.5700  202.6710  148.9490 C   0  0  2  0  0  3  0  0  0  0  0  0
  162.1650  205.7690  148.5560 C   0  0  0  0  0  3  0  0  0  0  0  0
  159.9340  209.3660  153.3860 C   0  0  0  0  0  2  0  0  0  0  0  0
  160.2500  203.7400  149.8970 N   0  0  0  0  0  2  0  0  0  0  0  0
  161.2300  201.4320  151.0540 N   0  0  0  0  0  0  0  0  0  0  0  0
  161.2490  209.3200  151.2280 N   0  0  1  0  0  0  0  0  0  0  0  0
  160.8970  205.0850  151.9060 C   0  0  0  0  0  0  0  0  0  0  0  0
  162.2930  208.1820  149.2920 C   0  0  2  0  0  0  0  0  0  0  0  0
  160.7120  206.4530  146.2730 C   0  0  0  0  0  3  0  0  0  0  0  0
  160.8250  203.7940  151.2090 C   0  0  2  0  0  3  0  0  0  0  0  0
  161.0240  210.3760  153.7320 C   0  0  1  0  0  3  0  0  0  0  0  0
  161.5430  206.7600  153.1500 C   0  0  0  0  0  0  0  0  0  0  0  0
  161.8750  207.1180  148.3050 C   0  0  0  0  0  0  0  0  0  0  0  0
  160.6230  207.2440  152.2900 N   0  0  0  0  0  0  0  0  0  0  0  0
  161.0440  208.8630  149.8580 C   0  0  0  0  0  2  0  0  0  0  0  0
  163.0380  207.6140  150.3170 F   0  0  0  0  0  0  0  0  0  0  0  0
  160.7680  201.3900  149.7000 C   0  0  0  0  0  0  0  0  0  0  0  0
  161.0050  205.1110  146.5370 C   0  0  0  0  0  3  0  0  0  0  0  0
  161.2480  211.3740  152.5950 C   0  0  0  0  0  2  0  0  0  0  0  0
  162.2240  207.5530  154.0760 O   0  0  0  0  0  0  0  0  0  0  0  0
  162.3070  207.2050  155.4530 C   0  0  0  0  0  2  0  0  0  0  0  0
  161.3550  208.7600  157.0080 O   0  0  0  0  0  1  0  0  0  0  0  0
  159.8970  207.2670  156.0690 O   0  0  0  0  0  0  0  0  0  0  0  0
  161.1700  207.7970  156.2200 C   0  0  0  0  0  0  0  0  0  0  0  0
  1 17  1  0  0  0  0
  1 30  1  0  0  0  0
  2 25  1  0  0  0  0
  2 14  1  1  0  0  0
  4 18  2  0  0  0  0
  4 25  1  0  0  0  0
  5 23  2  0  0  0  0
  8  3  1  0  0  0  0
  8 13  1  0  0  0  0
  9 28  2  0  0  0  0
 10 24  1  0  0  0  0
 12  3  1  1  0  0  0
 12 28  1  0  0  0  0
 12 15  1  0  0  0  0
 14 22  1  0  0  0  0
 15 21  1  0  0  0  0
 16  6  2  0  0  0  0
 17 26  1  6  0  0  0
 17  2  1  0  0  0  0
 18  5  1  0  0  0  0
 19  7  1  6  0  0  0
 19 26  1  0  0  0  0
 19 27  1  0  0  0  0
 20 29  1  0  0  0  0
 20 10  2  0  0  0  0
 21  6  1  6  0  0  0
 21 18  1  0  0  0  0
 22 11  1  1  0  0  0
 23 31  1  0  0  0  0
 24 13  2  0  0  0  0
 24 19  1  0  0  0  0
 25 23  1  0  0  0  0
 28 16  1  0  0  0  0
 29  8  2  0  0  0  0
 30 22  1  0  0  0  0
 31 32  1  0  0  0  0
 32 35  1  0  0  0  0
 34 35  2  0  0  0  0
 35 33  1  0  0  0  0
M  END
>  <MODEL>
5

>  <REMARK>
 VINA RESULT:       0.2      3.105      8.137
  Name = 
  3 active torsions:
  status: ('A' for Active; 'I' for Inactive)
    1  A    between atoms: C_1  and  C_15
    2  A    between atoms: C_1  and  O_34
    3  A    between atoms: C_27  and  O_34
                            x       y       z     vdW  Elec       q    Type
                         _______ _______ _______ _____ _____    ______ ____

>  <TORSDO>
F 3

$$$$
