=
 OpenBabel11052409503D

 26 31  0  0  1  0  0  0  0  0999 V2000
  161.9620  207.3290  150.3960 C   0  0  2  0  0  3  0  0  0  0  0  0
  160.3120  203.6220  153.1320 O   0  0  0  0  0  1  0  0  0  0  0  0
  160.0640  200.9540  149.8020 O   0  0  0  0  0  0  0  0  0  0  0  0
  161.6880  207.2310  151.8710 C   0  0  2  0  0  3  0  0  0  0  0  0
  162.1930  201.3830  152.0110 O   0  0  0  0  0  1  0  0  0  0  0  0
  162.7850  206.3150  152.3350 C   0  0  0  0  0  2  0  0  0  0  0  0
  160.9950  201.9470  149.8680 C   0  0  2  0  0  0  0  0  0  0  0  0
  161.9560  209.1220  149.7260 S   0  0  0  0  0  0  0  0  0  0  0  0
  161.3370  205.8830  152.5500 C   0  0  2  0  0  0  0  0  0  0  0  0
  161.3020  205.0250  147.6710 N   0  0  0  0  0  0  0  0  0  0  0  0
  161.4850  207.2420  148.0140 C   0  0  0  0  0  0  0  0  0  0  0  0
  161.1920  200.6790  148.9530 C   0  0  0  0  0  2  0  0  0  0  0  0
  161.5980  203.6530  151.1810 C   0  0  1  0  0  3  0  0  0  0  0  0
  161.2300  202.1910  151.3450 C   0  0  2  0  0  3  0  0  0  0  0  0
  160.9120  204.2420  149.9820 N   0  0  2  0  0  0  0  0  0  0  0  0
  161.8030  208.4980  147.9730 C   0  0  0  0  0  2  0  0  0  0  0  0
  160.1760  203.1690  149.3970 C   0  0  0  0  0  2  0  0  0  0  0  0
  161.3890  204.3660  152.5450 C   0  0  2  0  0  3  0  0  0  0  0  0
  161.4170  206.5600  149.2850 C   0  0  0  0  0  0  0  0  0  0  0  0
  161.4050  205.2270  149.0560 C   0  0  2  0  0  3  0  0  0  0  0  0
  161.3960  206.1560  146.9990 C   0  0  0  0  0  0  0  0  0  0  0  0
  160.2950  206.2030  144.8860 N   0  0  0  0  0  2  0  0  0  0  0  0
  161.3750  205.9780  145.5630 C   0  0  0  0  0  0  0  0  0  0  0  0
  162.5280  205.4530  144.8590 C   0  0  0  0  0  1  0  0  0  0  0  0
  160.8310  206.4400  153.8580 C   0  0  0  0  0  0  0  0  0  0  0  0
  160.5790  206.9530  154.8750 N   0  0  0  0  0  0  0  0  0  0  0  0
  1 19  1  6  0  0  0
  1  4  1  0  0  0  0
  3  7  1  0  0  0  0
  4  6  1  1  0  0  0
  4  9  1  0  0  0  0
  6  9  1  0  0  0  0
  7 12  1  6  0  0  0
  7 14  1  0  0  0  0
  8  1  1  0  0  0  0
  9 25  1  1  0  0  0
 10 20  1  0  0  0  0
 11 19  2  0  0  0  0
 12  3  1  0  0  0  0
 13 14  1  0  0  0  0
 13 18  1  0  0  0  0
 14  5  1  0  0  0  0
 15 13  1  0  0  0  0
 16 11  1  0  0  0  0
 16  8  1  0  0  0  0
 17  7  1  0  0  0  0
 17 15  1  0  0  0  0
 18  9  1  0  0  0  0
 18  2  1  0  0  0  0
 20 19  1  0  0  0  0
 20 15  1  0  0  0  0
 21 10  2  0  0  0  0
 21 11  1  0  0  0  0
 22 23  2  0  0  0  0
 23 21  1  0  0  0  0
 24 23  1  0  0  0  0
 25 26  3  0  0  0  0
M  END
>  <MODEL>
1

>  <REMARK>
 VINA RESULT:      -6.9      0.000      0.000
  Name = 
  2 active torsions:
  status: ('A' for Active; 'I' for Inactive)
    1  A    between atoms: C_7  and  C_10
    2  A    between atoms: C_21  and  C_26
                            x       y       z     vdW  Elec       q    Type
                         _______ _______ _______ _____ _____    ______ ____

>  <TORSDO>
F 2

$$$$
=
 OpenBabel11052409503D

 26 31  0  0  1  0  0  0  0  0999 V2000
  161.4860  208.0370  148.6840 C   0  0  2  0  0  3  0  0  0  0  0  0
  162.1710  203.2670  147.8340 O   0  0  0  0  0  1  0  0  0  0  0  0
  161.3890  202.1810  151.8920 O   0  0  0  0  0  0  0  0  0  0  0  0
  161.8250  207.2940  147.4220 C   0  0  2  0  0  3  0  0  0  0  0  0
  159.6430  202.1890  149.3340 O   0  0  0  0  0  1  0  0  0  0  0  0
  160.5440  206.5630  147.1340 C   0  0  0  0  0  2  0  0  0  0  0  0
  160.7970  203.2570  151.3030 C   0  0  2  0  0  0  0  0  0  0  0  0
  161.9680  209.8890  148.6440 S   0  0  0  0  0  0  0  0  0  0  0  0
  161.8130  205.7460  147.3570 C   0  0  2  0  0  0  0  0  0  0  0  0
  161.2460  206.9320  152.1330 N   0  0  0  0  0  0  0  0  0  0  0  0
  161.7450  208.7980  150.9780 C   0  0  0  0  0  0  0  0  0  0  0  0
  160.1720  202.5500  152.5650 C   0  0  0  0  0  2  0  0  0  0  0  0
  160.8140  204.3860  149.3720 C   0  0  1  0  0  3  0  0  0  0  0  0
  160.7490  202.9380  149.8220 C   0  0  2  0  0  3  0  0  0  0  0  0
  161.5540  205.2210  150.3770 N   0  0  0  0  0  0  0  0  0  0  0  0
  161.8060  210.0030  150.5010 C   0  0  0  0  0  2  0  0  0  0  0  0
  161.9010  204.3290  151.4360 C   0  0  0  0  0  2  0  0  0  0  0  0
  161.3200  204.4190  147.9040 C   0  0  2  0  0  3  0  0  0  0  0  0
  161.7010  207.6710  150.0780 C   0  0  0  0  0  0  0  0  0  0  0  0
  161.3060  206.5810  150.7750 C   0  0  0  0  0  0  0  0  0  0  0  0
  161.4390  208.2240  152.3180 C   0  0  2  0  0  3  0  0  0  0  0  0
  161.6030  209.8430  154.0580 N   0  0  0  0  0  2  0  0  0  0  0  0
  161.3040  208.6370  153.6980 C   0  0  0  0  0  0  0  0  0  0  0  0
  160.9280  207.6870  154.7260 C   0  0  0  0  0  1  0  0  0  0  0  0
  162.5530  205.5930  146.0500 C   0  0  0  0  0  0  0  0  0  0  0  0
  163.0000  205.3800  144.9940 N   0  0  0  0  0  0  0  0  0  0  0  0
  1  8  1  6  0  0  0
  1 19  1  0  0  0  0
  3 12  1  0  0  0  0
  4  6  1  6  0  0  0
  4  1  1  0  0  0  0
  6  9  1  0  0  0  0
  7 17  1  1  0  0  0
  7  3  1  0  0  0  0
  7 12  1  0  0  0  0
  8 16  1  0  0  0  0
  9 25  1  6  0  0  0
  9  4  1  0  0  0  0
  9 18  1  0  0  0  0
 10 21  1  0  0  0  0
 11 21  1  0  0  0  0
 13 14  1  0  0  0  0
 13 15  1  1  0  0  0
 14  5  1  1  0  0  0
 14  7  1  0  0  0  0
 15 20  1  0  0  0  0
 15 17  1  0  0  0  0
 16 11  1  0  0  0  0
 18  2  1  1  0  0  0
 18 13  1  0  0  0  0
 19 20  1  0  0  0  0
 19 11  2  0  0  0  0
 20 10  2  0  0  0  0
 21 23  1  1  0  0  0
 23 22  2  0  0  0  0
 23 24  1  0  0  0  0
 26 25  3  0  0  0  0
M  END
>  <MODEL>
2

>  <REMARK>
 VINA RESULT:      -6.9      1.732      5.296
  Name = 
  2 active torsions:
  status: ('A' for Active; 'I' for Inactive)
    1  A    between atoms: C_7  and  C_10
    2  A    between atoms: C_21  and  C_26
                            x       y       z     vdW  Elec       q    Type
                         _______ _______ _______ _____ _____    ______ ____

>  <TORSDO>
F 2

$$$$
=
 OpenBabel11052409503D

 26 31  0  0  1  0  0  0  0  0999 V2000
  162.0130  207.5340  151.5660 C   0  0  2  0  0  3  0  0  0  0  0  0
  160.4130  203.5410  149.2320 O   0  0  0  0  0  1  0  0  0  0  0  0
  160.6900  205.3800  145.3840 O   0  0  0  0  0  0  0  0  0  0  0  0
  161.6110  206.1800  152.0800 C   0  0  2  0  0  3  0  0  0  0  0  0
  162.5630  203.4770  146.9550 O   0  0  0  0  0  1  0  0  0  0  0  0
  162.7290  205.3100  151.5810 C   0  0  0  0  0  2  0  0  0  0  0  0
  161.5290  205.7090  146.4070 C   0  0  2  0  0  0  0  0  0  0  0  0
  161.9280  208.9200  152.8840 S   0  0  0  0  0  0  0  0  0  0  0  0
  161.3060  205.0000  151.1240 C   0  0  2  0  0  0  0  0  0  0  0  0
  161.7960  209.0100  148.2570 N   0  0  0  0  0  0  0  0  0  0  0  0
  161.7690  209.6600  150.4120 C   0  0  0  0  0  0  0  0  0  0  0  0
  161.9110  205.9670  144.9000 C   0  0  0  0  0  2  0  0  0  0  0  0
  161.8700  205.2430  148.5680 C   0  0  1  0  0  3  0  0  0  0  0  0
  161.6050  204.4760  147.2860 C   0  0  2  0  0  3  0  0  0  0  0  0
  161.2550  206.6120  148.5040 N   0  0  2  0  0  0  0  0  0  0  0  0
  161.9890  210.2300  151.5560 C   0  0  0  0  0  2  0  0  0  0  0  0
  160.6640  206.7060  147.2080 C   0  0  0  0  0  2  0  0  0  0  0  0
  161.4780  204.3400  149.7680 C   0  0  2  0  0  3  0  0  0  0  0  0
  161.6370  208.2240  150.3390 C   0  0  0  0  0  0  0  0  0  0  0  0
  161.7520  207.8490  149.0440 C   0  0  2  0  0  3  0  0  0  0  0  0
  161.8630  210.1030  148.9930 C   0  0  0  0  0  0  0  0  0  0  0  0
  163.0950  211.9900  148.2180 N   0  0  0  0  0  2  0  0  0  0  0  0
  161.9900  211.3170  148.2150 C   0  0  0  0  0  0  0  0  0  0  0  0
  160.8570  211.8610  147.4940 C   0  0  0  0  0  1  0  0  0  0  0  0
  160.6370  204.0930  152.1280 C   0  0  0  0  0  0  0  0  0  0  0  0
  160.1930  203.2700  152.8250 N   0  0  0  0  0  0  0  0  0  0  0  0
  1 19  1  6  0  0  0
  1  4  1  0  0  0  0
  1  8  1  0  0  0  0
  2 18  1  0  0  0  0
  3  7  1  0  0  0  0
  4  6  1  1  0  0  0
  5 14  1  0  0  0  0
  7 12  1  6  0  0  0
  7 17  1  0  0  0  0
  7 14  1  0  0  0  0
  9  6  1  0  0  0  0
  9  4  1  0  0  0  0
  9 25  1  1  0  0  0
 10 21  2  0  0  0  0
 10 20  1  0  0  0  0
 11 16  1  0  0  0  0
 12  3  1  0  0  0  0
 13 18  1  0  0  0  0
 14 13  1  0  0  0  0
 15 13  1  0  0  0  0
 15 20  1  0  0  0  0
 16  8  1  0  0  0  0
 17 15  1  0  0  0  0
 18  9  1  0  0  0  0
 19 11  2  0  0  0  0
 20 19  1  0  0  0  0
 21 11  1  0  0  0  0
 23 22  2  0  0  0  0
 23 21  1  0  0  0  0
 24 23  1  0  0  0  0
 25 26  3  0  0  0  0
M  END
>  <MODEL>
3

>  <REMARK>
 VINA RESULT:      -6.2      2.853      4.287
  Name = 
  2 active torsions:
  status: ('A' for Active; 'I' for Inactive)
    1  A    between atoms: C_7  and  C_10
    2  A    between atoms: C_21  and  C_26
                            x       y       z     vdW  Elec       q    Type
                         _______ _______ _______ _____ _____    ______ ____

>  <TORSDO>
F 2

$$$$
=
 OpenBabel11052409503D

 26 31  0  0  1  0  0  0  0  0999 V2000
  161.6800  208.5510  150.5240 C   0  0  2  0  0  3  0  0  0  0  0  0
  160.1600  210.9820  154.4900 O   0  0  0  0  0  1  0  0  0  0  0  0
  159.8890  207.4360  156.8600 O   0  0  0  0  0  0  0  0  0  0  0  0
  161.4400  210.0170  150.7570 C   0  0  2  0  0  3  0  0  0  0  0  0
  162.0580  209.6300  156.5830 O   0  0  0  0  0  1  0  0  0  0  0  0
  162.5640  210.3750  151.6870 C   0  0  0  0  0  2  0  0  0  0  0  0
  160.8020  207.5700  155.8570 C   0  0  2  0  0  0  0  0  0  0  0  0
  161.6250  208.0420  148.6800 S   0  0  0  0  0  0  0  0  0  0  0  0
  161.1300  210.5810  152.1660 C   0  0  2  0  0  0  0  0  0  0  0  0
  161.0030  205.6470  152.5930 N   0  0  0  0  0  0  0  0  0  0  0  0
  161.1510  206.1810  150.4120 C   0  0  0  0  0  0  0  0  0  0  0  0
  161.0020  206.5430  157.0360 C   0  0  0  0  0  2  0  0  0  0  0  0
  161.4020  209.0160  154.2610 C   0  0  1  0  0  3  0  0  0  0  0  0
  161.0650  209.0580  155.7400 C   0  0  2  0  0  3  0  0  0  0  0  0
  160.6790  207.8880  153.5840 N   0  0  2  0  0  0  0  0  0  0  0  0
  161.4450  206.2440  149.1500 C   0  0  0  0  0  2  0  0  0  0  0  0
  159.9500  207.2250  154.6160 C   0  0  0  0  0  2  0  0  0  0  0  0
  161.2100  210.4420  153.6750 C   0  0  2  0  0  3  0  0  0  0  0  0
  161.1240  207.3880  151.2040 C   0  0  0  0  0  0  0  0  0  0  0  0
  161.1330  207.0420  152.5110 C   0  0  2  0  0  3  0  0  0  0  0  0
  161.0610  205.0750  151.4060 C   0  0  0  0  0  0  0  0  0  0  0  0
  161.1830  203.0030  152.5750 N   0  0  0  0  0  2  0  0  0  0  0  0
  161.0110  203.6300  151.4570 C   0  0  0  0  0  0  0  0  0  0  0  0
  160.8640  202.8460  150.2470 C   0  0  0  0  0  1  0  0  0  0  0  0
  160.6420  211.9430  151.7370 C   0  0  0  0  0  0  0  0  0  0  0  0
  160.1200  212.9500  151.4640 N   0  0  0  0  0  0  0  0  0  0  0  0
  1  8  1  6  0  0  0
  1  4  1  0  0  0  0
  1 19  1  0  0  0  0
  3 12  1  0  0  0  0
  4  6  1  1  0  0  0
  4  9  1  0  0  0  0
  6  9  1  0  0  0  0
  7 17  1  6  0  0  0
  7  3  1  0  0  0  0
  7 12  1  0  0  0  0
  8 16  1  0  0  0  0
  9 25  1  6  0  0  0
  9 18  1  0  0  0  0
 11 19  2  0  0  0  0
 11 21  1  0  0  0  0
 13 14  1  0  0  0  0
 14  7  1  0  0  0  0
 14  5  1  0  0  0  0
 15 13  1  0  0  0  0
 15 17  1  0  0  0  0
 16 11  1  0  0  0  0
 18 13  1  0  0  0  0
 18  2  1  0  0  0  0
 19 20  1  0  0  0  0
 20 10  1  0  0  0  0
 20 15  1  0  0  0  0
 21 23  1  0  0  0  0
 21 10  2  0  0  0  0
 23 22  2  0  0  0  0
 24 23  1  0  0  0  0
 26 25  3  0  0  0  0
M  END
>  <MODEL>
4

>  <REMARK>
 VINA RESULT:      -5.9      3.687      6.139
  Name = 
  2 active torsions:
  status: ('A' for Active; 'I' for Inactive)
    1  A    between atoms: C_7  and  C_10
    2  A    between atoms: C_21  and  C_26
                            x       y       z     vdW  Elec       q    Type
                         _______ _______ _______ _____ _____    ______ ____

>  <TORSDO>
F 2

$$$$
=
 OpenBabel11052409503D

 26 31  0  0  1  0  0  0  0  0999 V2000
  161.3820  204.7210  151.4790 C   0  0  2  0  0  3  0  0  0  0  0  0
  159.9570  202.2570  147.4990 O   0  0  0  0  0  1  0  0  0  0  0  0
  160.8150  205.5180  144.8730 O   0  0  0  0  0  0  0  0  0  0  0  0
  160.8630  203.3190  151.3140 C   0  0  2  0  0  3  0  0  0  0  0  0
  162.3870  202.9660  145.6550 O   0  0  0  0  0  1  0  0  0  0  0  0
  162.0040  202.6430  150.6080 C   0  0  0  0  0  2  0  0  0  0  0  0
  161.5220  205.3040  146.0190 C   0  0  2  0  0  0  0  0  0  0  0  0
  161.1740  205.4190  153.2500 S   0  0  0  0  0  0  0  0  0  0  0  0
  160.6440  202.6890  149.9160 C   0  0  2  0  0  0  0  0  0  0  0  0
  161.6650  207.4720  149.1290 N   0  0  0  0  0  0  0  0  0  0  0  0
  161.3760  207.1480  151.3370 C   0  0  0  0  0  0  0  0  0  0  0  0
  162.1110  206.1400  144.8200 C   0  0  0  0  0  2  0  0  0  0  0  0
  161.5540  203.9380  147.7890 C   0  0  1  0  0  3  0  0  0  0  0  0
  161.4330  203.8140  146.2820 C   0  0  2  0  0  3  0  0  0  0  0  0
  161.0050  205.2550  148.2590 N   0  0  0  0  0  0  0  0  0  0  0  0
  161.4630  207.1560  152.6320 C   0  0  0  0  0  2  0  0  0  0  0  0
  160.5960  205.9430  147.0770 C   0  0  0  0  0  2  0  0  0  0  0  0
  160.9700  202.6510  148.4350 C   0  0  2  0  0  3  0  0  0  0  0  0
  161.2000  205.8960  150.6380 C   0  0  0  0  0  0  0  0  0  0  0  0
  161.4730  206.0960  149.3290 C   0  0  0  0  0  0  0  0  0  0  0  0
  161.6750  208.1390  150.2670 C   0  0  2  0  0  3  0  0  0  0  0  0
  162.0660  210.3220  151.1400 N   0  0  0  0  0  2  0  0  0  0  0  0
  161.9500  209.5510  150.1070 C   0  0  0  0  0  0  0  0  0  0  0  0
  162.0080  210.1540  148.7910 C   0  0  0  0  0  1  0  0  0  0  0  0
  159.8130  201.5080  150.3550 C   0  0  0  0  0  0  0  0  0  0  0  0
  159.1760  200.5470  150.5380 N   0  0  0  0  0  0  0  0  0  0  0  0
  1 19  1  6  0  0  0
  1  8  1  0  0  0  0
  3  7  1  0  0  0  0
  4  6  1  1  0  0  0
  4  1  1  0  0  0  0
  7 12  1  6  0  0  0
  7 14  1  0  0  0  0
  7 17  1  0  0  0  0
  9 25  1  1  0  0  0
  9  6  1  0  0  0  0
  9  4  1  0  0  0  0
 10 20  2  0  0  0  0
 10 21  1  0  0  0  0
 11 16  1  0  0  0  0
 12  3  1  0  0  0  0
 13 15  1  1  0  0  0
 13 18  1  0  0  0  0
 14  5  1  6  0  0  0
 14 13  1  0  0  0  0
 15 20  1  0  0  0  0
 16  8  1  0  0  0  0
 17 15  1  0  0  0  0
 18  2  1  6  0  0  0
 18  9  1  0  0  0  0
 19 11  2  0  0  0  0
 20 19  1  0  0  0  0
 21 23  1  6  0  0  0
 21 11  1  0  0  0  0
 23 22  2  0  0  0  0
 24 23  1  0  0  0  0
 25 26  3  0  0  0  0
M  END
>  <MODEL>
5

>  <REMARK>
 VINA RESULT:      -5.6      2.705      5.003
  Name = 
  2 active torsions:
  status: ('A' for Active; 'I' for Inactive)
    1  A    between atoms: C_7  and  C_10
    2  A    between atoms: C_21  and  C_26
                            x       y       z     vdW  Elec       q    Type
                         _______ _______ _______ _____ _____    ______ ____

>  <TORSDO>
F 2

$$$$
=
 OpenBabel11052409503D

 26 31  0  0  1  0  0  0  0  0999 V2000
  160.7200  205.8740  152.7040 C   0  0  2  0  0  3  0  0  0  0  0  0
  162.1130  210.4230  153.8500 O   0  0  0  0  0  1  0  0  0  0  0  0
  162.3250  211.6490  149.7610 O   0  0  0  0  0  0  0  0  0  0  0  0
  160.9480  206.5350  154.0350 C   0  0  2  0  0  3  0  0  0  0  0  0
  160.1580  211.9670  151.9510 O   0  0  0  0  0  1  0  0  0  0  0  0
  159.7950  207.4960  154.1100 C   0  0  0  0  0  2  0  0  0  0  0  0
  161.4420  210.7040  150.1890 C   0  0  2  0  0  0  0  0  0  0  0  0
  160.8310  203.9630  152.7610 S   0  0  0  0  0  0  0  0  0  0  0  0
  161.2140  208.0560  154.1570 C   0  0  2  0  0  0  0  0  0  0  0  0
  161.3440  207.0140  149.3160 N   0  0  0  0  0  0  0  0  0  0  0  0
  161.2590  205.0830  150.4690 C   0  0  0  0  0  0  0  0  0  0  0  0
  161.2090  211.5210  148.8620 C   0  0  0  0  0  2  0  0  0  0  0  0
  160.8840  209.5880  152.0450 C   0  0  1  0  0  3  0  0  0  0  0  0
  161.1770  211.0220  151.6470 C   0  0  2  0  0  3  0  0  0  0  0  0
  161.6310  208.6300  151.1630 N   0  0  2  0  0  0  0  0  0  0  0  0
  161.0030  203.8880  150.9040 C   0  0  0  0  0  2  0  0  0  0  0  0
  162.3310  209.4420  150.2210 C   0  0  0  0  0  2  0  0  0  0  0  0
  161.0900  209.4540  153.5790 C   0  0  2  0  0  3  0  0  0  0  0  0
  161.2580  206.1960  151.3890 C   0  0  0  0  0  0  0  0  0  0  0  0
  161.2120  207.3430  150.6740 C   0  0  2  0  0  3  0  0  0  0  0  0
  161.3230  205.7090  149.1200 C   0  0  0  0  0  0  0  0  0  0  0  0
  161.1440  206.2050  146.7960 N   0  0  0  0  0  2  0  0  0  0  0  0
  161.3760  205.3330  147.7230 C   0  0  0  0  0  0  0  0  0  0  0  0
  161.5930  203.9550  147.3300 C   0  0  0  0  0  1  0  0  0  0  0  0
  161.7110  208.0620  155.5820 C   0  0  0  0  0  0  0  0  0  0  0  0
  161.9670  208.1640  156.7160 N   0  0  0  0  0  0  0  0  0  0  0  0
  1 19  1  6  0  0  0
  1  8  1  0  0  0  0
  1  4  1  0  0  0  0
  3  7  1  0  0  0  0
  4  6  1  1  0  0  0
  4  9  1  0  0  0  0
  6  9  1  0  0  0  0
  7 12  1  6  0  0  0
  7 17  1  0  0  0  0
  7 14  1  0  0  0  0
  9 25  1  1  0  0  0
 10 20  1  0  0  0  0
 11 16  1  0  0  0  0
 11 19  2  0  0  0  0
 12  3  1  0  0  0  0
 13 18  1  0  0  0  0
 14  5  1  0  0  0  0
 14 13  1  0  0  0  0
 15 13  1  0  0  0  0
 16  8  1  0  0  0  0
 17 15  1  0  0  0  0
 18  2  1  0  0  0  0
 18  9  1  0  0  0  0
 20 15  1  0  0  0  0
 20 19  1  0  0  0  0
 21 10  2  0  0  0  0
 21 11  1  0  0  0  0
 22 23  2  0  0  0  0
 23 21  1  0  0  0  0
 24 23  1  0  0  0  0
 25 26  3  0  0  0  0
M  END
>  <MODEL>
6

>  <REMARK>
 VINA RESULT:      -5.5      3.744      5.739
  Name = 
  2 active torsions:
  status: ('A' for Active; 'I' for Inactive)
    1  A    between atoms: C_7  and  C_10
    2  A    between atoms: C_21  and  C_26
                            x       y       z     vdW  Elec       q    Type
                         _______ _______ _______ _____ _____    ______ ____

>  <TORSDO>
F 2

$$$$
=
 OpenBabel11052409503D

 26 31  0  0  1  0  0  0  0  0999 V2000
  161.9920  207.2490  148.3370 C   0  0  2  0  0  3  0  0  0  0  0  0
  161.0330  211.0870  151.2180 O   0  0  0  0  0  1  0  0  0  0  0  0
  160.5590  208.6610  154.7050 O   0  0  0  0  0  0  0  0  0  0  0  0
  161.9270  208.7220  148.0380 C   0  0  2  0  0  3  0  0  0  0  0  0
  162.9230  210.3280  153.5970 O   0  0  0  0  0  1  0  0  0  0  0  0
  163.1480  209.2390  148.7440 C   0  0  0  0  0  2  0  0  0  0  0  0
  161.4060  208.3190  153.6930 C   0  0  2  0  0  0  0  0  0  0  0  0
  161.7490  206.1370  146.7980 S   0  0  0  0  0  0  0  0  0  0  0  0
  161.7820  209.7780  149.1620 C   0  0  2  0  0  0  0  0  0  0  0  0
  161.1630  205.3650  151.3260 N   0  0  0  0  0  0  0  0  0  0  0  0
  161.2080  205.0760  149.0940 C   0  0  0  0  0  0  0  0  0  0  0  0
  161.5810  207.7540  155.1540 C   0  0  0  0  0  2  0  0  0  0  0  0
  162.0390  209.0260  151.6680 C   0  0  1  0  0  3  0  0  0  0  0  0
  161.8170  209.6260  153.0440 C   0  0  2  0  0  3  0  0  0  0  0  0
  161.1520  207.8320  151.4600 N   0  0  2  0  0  0  0  0  0  0  0  0
  161.4140  204.6560  147.8840 C   0  0  0  0  0  2  0  0  0  0  0  0
  160.4340  207.6710  152.6830 C   0  0  0  0  0  2  0  0  0  0  0  0
  161.9560  210.1680  150.6180 C   0  0  2  0  0  3  0  0  0  0  0  0
  161.3670  206.4780  149.4030 C   0  0  0  0  0  0  0  0  0  0  0  0
  161.4340  206.6150  150.7470 C   0  0  2  0  0  3  0  0  0  0  0  0
  161.0730  204.4100  150.4190 C   0  0  0  0  0  0  0  0  0  0  0  0
  160.8310  202.9250  152.2660 N   0  0  0  0  0  2  0  0  0  0  0  0
  160.8730  203.0930  150.9840 C   0  0  0  0  0  0  0  0  0  0  0  0
  160.8140  201.9200  150.1360 C   0  0  0  0  0  1  0  0  0  0  0  0
  161.4120  210.9520  148.2900 C   0  0  0  0  0  0  0  0  0  0  0  0
  161.1940  211.9530  147.7310 N   0  0  0  0  0  0  0  0  0  0  0  0
  1  8  1  6  0  0  0
  1 19  1  0  0  0  0
  3 12  1  0  0  0  0
  4  1  1  0  0  0  0
  4  6  1  1  0  0  0
  4  9  1  0  0  0  0
  6  9  1  0  0  0  0
  7 17  1  6  0  0  0
  7  3  1  0  0  0  0
  7 12  1  0  0  0  0
  8 16  1  0  0  0  0
  9 25  1  6  0  0  0
  9 18  1  0  0  0  0
 11 19  2  0  0  0  0
 11 21  1  0  0  0  0
 13 14  1  0  0  0  0
 14  5  1  0  0  0  0
 14  7  1  0  0  0  0
 15 13  1  0  0  0  0
 15 17  1  0  0  0  0
 16 11  1  0  0  0  0
 18  2  1  0  0  0  0
 18 13  1  0  0  0  0
 19 20  1  0  0  0  0
 20 10  1  0  0  0  0
 20 15  1  0  0  0  0
 21 23  1  0  0  0  0
 21 10  2  0  0  0  0
 23 22  2  0  0  0  0
 24 23  1  0  0  0  0
 26 25  3  0  0  0  0
M  END
>  <MODEL>
7

>  <REMARK>
 VINA RESULT:      -5.2      3.458      6.072
  Name = 
  2 active torsions:
  status: ('A' for Active; 'I' for Inactive)
    1  A    between atoms: C_7  and  C_10
    2  A    between atoms: C_21  and  C_26
                            x       y       z     vdW  Elec       q    Type
                         _______ _______ _______ _____ _____    ______ ____

>  <TORSDO>
F 2

$$$$
=
 OpenBabel11052409503D

 26 31  0  0  1  0  0  0  0  0999 V2000
  162.2160  205.9550  146.7710 C   0  0  2  0  0  3  0  0  0  0  0  0
  160.9470  207.7550  151.1410 O   0  0  0  0  0  1  0  0  0  0  0  0
  160.1090  203.8900  152.7620 O   0  0  0  0  0  0  0  0  0  0  0  0
  162.1800  207.3660  147.2890 C   0  0  2  0  0  3  0  0  0  0  0  0
  162.5740  205.7580  152.9230 O   0  0  0  0  0  1  0  0  0  0  0  0
  163.3180  207.3690  148.2710 C   0  0  0  0  0  2  0  0  0  0  0  0
  161.0600  204.0840  151.8040 C   0  0  2  0  0  0  0  0  0  0  0  0
  162.1410  205.8300  144.8620 S   0  0  0  0  0  0  0  0  0  0  0  0
  161.9140  207.6810  148.7820 C   0  0  2  0  0  0  0  0  0  0  0  0
  161.0770  202.8300  148.2240 N   0  0  0  0  0  0  0  0  0  0  0  0
  161.3600  203.7540  146.1910 C   0  0  0  0  0  0  0  0  0  0  0  0
  161.0800  202.8280  152.7560 C   0  0  0  0  0  2  0  0  0  0  0  0
  161.9040  205.7130  150.5260 C   0  0  1  0  0  3  0  0  0  0  0  0
  161.5350  205.5120  151.9840 C   0  0  2  0  0  3  0  0  0  0  0  0
  161.0470  204.8560  149.6390 N   0  0  2  0  0  0  0  0  0  0  0  0
  161.6950  204.0210  144.9670 C   0  0  0  0  0  2  0  0  0  0  0  0
  160.2030  204.1160  150.5200 C   0  0  0  0  0  2  0  0  0  0  0  0
  161.9310  207.2390  150.2340 C   0  0  2  0  0  3  0  0  0  0  0  0
  161.4830  204.7740  147.2070 C   0  0  0  0  0  0  0  0  0  0  0  0
  161.4060  204.1810  148.4200 C   0  0  2  0  0  3  0  0  0  0  0  0
  161.0860  202.5000  146.9470 C   0  0  0  0  0  0  0  0  0  0  0  0
  161.2070  200.2030  147.5680 N   0  0  0  0  0  2  0  0  0  0  0  0
  160.8310  201.0960  146.7100 C   0  0  0  0  0  0  0  0  0  0  0  0
  160.2370  200.6450  145.4680 C   0  0  0  0  0  1  0  0  0  0  0  0
  161.6360  209.1570  148.6310 C   0  0  0  0  0  0  0  0  0  0  0  0
  161.5800  210.3190  148.5480 N   0  0  0  0  0  0  0  0  0  0  0  0
  1  8  1  6  0  0  0
  1 19  1  0  0  0  0
  1  4  1  0  0  0  0
  4  6  1  1  0  0  0
  4  9  1  0  0  0  0
  6  9  1  0  0  0  0
  7 17  1  6  0  0  0
  7 14  1  0  0  0  0
  7 12  1  0  0  0  0
  7  3  1  0  0  0  0
  8 16  1  0  0  0  0
  9 25  1  1  0  0  0
  9 18  1  0  0  0  0
 10 20  1  0  0  0  0
 11 21  1  0  0  0  0
 11 19  2  0  0  0  0
 12  3  1  0  0  0  0
 13 14  1  0  0  0  0
 14  5  1  0  0  0  0
 15 17  1  0  0  0  0
 15 13  1  0  0  0  0
 16 11  1  0  0  0  0
 18 13  1  0  0  0  0
 18  2  1  0  0  0  0
 19 20  1  0  0  0  0
 20 15  1  0  0  0  0
 21 10  2  0  0  0  0
 23 21  1  0  0  0  0
 23 22  2  0  0  0  0
 24 23  1  0  0  0  0
 26 25  3  0  0  0  0
M  END
>  <MODEL>
8

>  <REMARK>
 VINA RESULT:      -4.9      2.597      4.314
  Name = 
  2 active torsions:
  status: ('A' for Active; 'I' for Inactive)
    1  A    between atoms: C_7  and  C_10
    2  A    between atoms: C_21  and  C_26
                            x       y       z     vdW  Elec       q    Type
                         _______ _______ _______ _____ _____    ______ ____

>  <TORSDO>
F 2

$$$$
=
 OpenBabel11052409503D

 26 31  0  0  1  0  0  0  0  0999 V2000
  161.2910  206.7480  149.4480 C   0  0  2  0  0  3  0  0  0  0  0  0
  161.8670  205.8630  154.2260 O   0  0  0  0  0  1  0  0  0  0  0  0
  161.9390  210.0150  155.2360 O   0  0  0  0  0  0  0  0  0  0  0  0
  161.3800  205.4570  150.2130 C   0  0  2  0  0  3  0  0  0  0  0  0
  159.7120  207.8640  155.3030 O   0  0  0  0  0  1  0  0  0  0  0  0
  160.0790  205.4470  150.9650 C   0  0  0  0  0  2  0  0  0  0  0  0
  161.2220  209.5380  154.1790 C   0  0  2  0  0  0  0  0  0  0  0  0
  161.7260  206.5780  147.5920 S   0  0  0  0  0  0  0  0  0  0  0  0
  161.3810  205.4230  151.7620 C   0  0  2  0  0  0  0  0  0  0  0  0
  161.7710  210.1930  150.4830 N   0  0  0  0  0  0  0  0  0  0  0  0
  161.9960  208.9280  148.6360 C   0  0  0  0  0  0  0  0  0  0  0  0
  160.8770  210.9130  154.8680 C   0  0  0  0  0  2  0  0  0  0  0  0
  160.8310  207.6240  153.0920 C   0  0  1  0  0  3  0  0  0  0  0  0
  160.8820  208.1040  154.5300 C   0  0  2  0  0  3  0  0  0  0  0  0
  161.7460  208.4420  152.2270 N   0  0  2  0  0  0  0  0  0  0  0  0
  161.9400  208.4260  147.4410 C   0  0  0  0  0  2  0  0  0  0  0  0
  162.3130  209.4260  153.0920 C   0  0  0  0  0  2  0  0  0  0  0  0
  161.0300  206.0830  153.0830 C   0  0  2  0  0  3  0  0  0  0  0  0
  161.7900  208.0750  149.7830 C   0  0  0  0  0  0  0  0  0  0  0  0
  161.5610  208.8580  150.8620 C   0  0  2  0  0  3  0  0  0  0  0  0
  161.9770  210.3120  149.1860 C   0  0  0  0  0  0  0  0  0  0  0  0
  161.2130  212.5640  149.0290 N   0  0  0  0  0  2  0  0  0  0  0  0
  162.1180  211.6830  148.7450 C   0  0  0  0  0  0  0  0  0  0  0  0
  163.2210  212.0840  147.8960 C   0  0  0  0  0  1  0  0  0  0  0  0
  161.8440  203.9970  151.9340 C   0  0  0  0  0  0  0  0  0  0  0  0
  162.0540  202.8520  152.0110 N   0  0  0  0  0  0  0  0  0  0  0  0
  1  8  1  6  0  0  0
  1 19  1  0  0  0  0
  1  4  1  0  0  0  0
  4  6  1  6  0  0  0
  4  9  1  0  0  0  0
  6  9  1  0  0  0  0
  7 17  1  6  0  0  0
  7 14  1  0  0  0  0
  7 12  1  0  0  0  0
  7  3  1  0  0  0  0
  9 25  1  1  0  0  0
  9 18  1  0  0  0  0
 10 20  1  0  0  0  0
 11 21  1  0  0  0  0
 11 19  2  0  0  0  0
 12  3  1  0  0  0  0
 13 14  1  0  0  0  0
 14  5  1  0  0  0  0
 15 13  1  0  0  0  0
 15 17  1  0  0  0  0
 16  8  1  0  0  0  0
 16 11  1  0  0  0  0
 18 13  1  0  0  0  0
 18  2  1  0  0  0  0
 19 20  1  0  0  0  0
 20 15  1  0  0  0  0
 21 10  2  0  0  0  0
 23 22  2  0  0  0  0
 23 21  1  0  0  0  0
 24 23  1  0  0  0  0
 25 26  3  0  0  0  0
M  END
>  <MODEL>
9

>  <REMARK>
 VINA RESULT:      -4.8      3.305      5.722
  Name = 
  2 active torsions:
  status: ('A' for Active; 'I' for Inactive)
    1  A    between atoms: C_7  and  C_10
    2  A    between atoms: C_21  and  C_26
                            x       y       z     vdW  Elec       q    Type
                         _______ _______ _______ _____ _____    ______ ____

>  <TORSDO>
F 2

$$$$
