=
 OpenBabel11042422353D

 33 35  0  0  1  0  0  0  0  0999 V2000
  161.5430  207.6020  149.9150 N   0  0  0  0  0  0  0  0  0  0  0  0
  161.8190  209.4370  148.4280 C   0  0  0  0  0  3  0  0  0  0  0  0
  160.9350  203.9400  151.9870 C   0  0  1  0  0  3  0  0  0  0  0  0
  162.0400  209.8930  149.8010 N   0  0  0  0  0  0  0  0  0  0  0  0
  161.2460  205.1560  152.8670 C   0  0  0  0  0  2  0  0  0  0  0  0
  161.5880  207.9080  148.4950 C   0  0  1  0  0  3  0  0  0  0  0  0
  161.5180  206.3820  152.0500 C   0  0  0  0  0  0  0  0  0  0  0  0
  161.7750  207.5090  152.6540 N   0  0  0  0  0  0  0  0  0  0  0  0
  159.8940  204.2720  150.9050 C   0  0  0  0  0  2  0  0  0  0  0  0
  160.1810  205.5620  150.1110 C   0  0  0  0  0  2  0  0  0  0  0  0
  161.4640  206.2800  150.5360 C   0  0  1  0  0  3  0  0  0  0  0  0
  161.8590  208.7670  150.6310 C   0  0  0  0  0  0  0  0  0  0  0  0
  161.9960  208.7460  151.9560 C   0  0  0  0  0  0  0  0  0  0  0  0
  162.3370  209.9790  152.7300 C   0  0  0  0  0  2  0  0  0  0  0  0
  161.2930  210.2690  153.8010 C   0  0  0  0  0  2  0  0  0  0  0  0
  161.9150  210.2520  155.1870 C   0  0  0  0  0  2  0  0  0  0  0  0
  159.8030  209.6410  157.0110 O   0  0  0  0  0  0  0  0  0  0  0  0
  160.3940  207.3520  157.2580 C   0  0  0  0  0  1  0  0  0  0  0  0
  160.5930  208.7120  156.6930 C   0  0  0  0  0  0  0  0  0  0  0  0
  161.6900  208.9570  155.8110 N   0  0  0  0  0  2  0  0  0  0  0  0
  162.7610  207.1890  147.8460 C   0  0  0  0  0  2  0  0  0  0  0  0
  162.2780  206.1620  146.9400 N   0  0  0  0  0  2  0  0  0  0  0  0
  160.8600  206.4070  146.7540 C   0  0  0  0  0  2  0  0  0  0  0  0
  160.4870  206.1380  145.3120 C   0  0  0  0  0  1  0  0  0  0  0  0
  162.1060  203.4560  151.3950 O   0  0  0  0  0  0  0  0  0  0  0  0
  162.0200  202.0650  151.5090 C   0  0  0  0  0  2  0  0  0  0  0  0
  160.8120  201.5530  150.7440 C   0  0  0  0  0  2  0  0  0  0  0  0
  161.2030  201.1840  149.4120 N   0  0  0  0  0  0  0  0  0  0  0  0
  160.6310  201.7290  148.4020 C   0  0  0  0  0  3  0  0  0  0  0  0
  161.0230  201.3560  147.0100 C   0  0  0  0  0  2  0  0  0  0  0  0
  161.2630  202.5920  146.1570 C   0  0  0  0  0  2  0  0  0  0  0  0
  160.3750  202.6110  145.0800 O   0  0  0  0  0  0  0  0  0  0  0  0
  159.9770  201.2840  144.9310 C   0  0  0  0  0  1  0  0  0  0  0  0
  1 11  1  0  0  0  0
  1 12  1  0  0  0  0
  2  6  1  0  0  0  0
  2  4  2  0  0  0  0
  3 25  1  6  0  0  0
  3  5  1  0  0  0  0
  4 12  1  0  0  0  0
  6 21  1  6  0  0  0
  6  1  1  0  0  0  0
  7  8  2  0  0  0  0
  7  5  1  0  0  0  0
  9  3  1  0  0  0  0
 10  9  1  0  0  0  0
 11 10  1  1  0  0  0
 11  7  1  0  0  0  0
 12 13  2  0  0  0  0
 13  8  1  0  0  0  0
 13 14  1  0  0  0  0
 14 15  1  0  0  0  0
 15 16  1  0  0  0  0
 16 20  1  0  0  0  0
 19 17  2  0  0  0  0
 19 18  1  0  0  0  0
 20 19  1  0  0  0  0
 22 21  1  0  0  0  0
 23 22  1  0  0  0  0
 24 23  1  0  0  0  0
 25 26  1  0  0  0  0
 27 26  1  0  0  0  0
 28 27  1  0  0  0  0
 29 28  2  0  0  0  0
 30 29  1  0  0  0  0
 31 30  1  0  0  0  0
 32 31  1  0  0  0  0
 33 32  1  0  0  0  0
M  END
>  <MODEL>
1

>  <REMARK>
 VINA RESULT:      -6.3      0.000      0.000
  Name = 
  14 active torsions:
  status: ('A' for Active; 'I' for Inactive)
    1  A    between atoms: C_1  and  N_23
    2  A    between atoms: C_4  and  O_27
    3  A    between atoms: C_8  and  C_13
    4  A    between atoms: C_8  and  C_31
    5  A    between atoms: C_10  and  C_14
    6  A    between atoms: C_10  and  C_33
    7  A    between atoms: C_12  and  C_15
    8  A    between atoms: C_12  and  N_23
    9  A    between atoms: C_13  and  O_20
   10  A    between atoms: C_14  and  C_17
   11  A    between atoms: N_16  and  C_17
   12  A    between atoms: C_21  and  C_26
   13  A    between atoms: C_21  and  N_30
   14  A    between atoms: C_26  and  O_27
                            x       y       z     vdW  Elec       q    Type
                         _______ _______ _______ _____ _____    ______ ____

>  <TORSDO>
F 14

$$$$
=
 OpenBabel11042422353D

 33 35  0  0  1  0  0  0  0  0999 V2000
  161.5140  207.6670  150.0280 N   0  0  0  0  0  0  0  0  0  0  0  0
  161.7920  209.5450  148.5960 C   0  0  0  0  0  3  0  0  0  0  0  0
  160.9210  203.9430  151.9890 C   0  0  1  0  0  3  0  0  0  0  0  0
  161.9750  209.9680  149.9840 N   0  0  0  0  0  0  0  0  0  0  0  0
  161.1920  205.1400  152.9080 C   0  0  0  0  0  2  0  0  0  0  0  0
  161.5840  208.0120  148.6170 C   0  0  1  0  0  3  0  0  0  0  0  0
  161.4620  206.3910  152.1290 C   0  0  0  0  0  0  0  0  0  0  0  0
  161.6870  207.5060  152.7680 N   0  0  0  0  0  0  0  0  0  0  0  0
  159.8990  204.2860  150.8940 C   0  0  0  0  0  2  0  0  0  0  0  0
  160.1820  205.6020  150.1400 C   0  0  0  0  0  2  0  0  0  0  0  0
  161.4430  206.3280  150.6120 C   0  0  1  0  0  3  0  0  0  0  0  0
  161.7950  208.8180  150.7810 C   0  0  0  0  0  0  0  0  0  0  0  0
  161.9030  208.7640  152.1070 C   0  0  0  0  0  0  0  0  0  0  0  0
  162.2060  209.9810  152.9210 C   0  0  0  0  0  2  0  0  0  0  0  0
  161.2530  210.1120  154.1010 C   0  0  0  0  0  2  0  0  0  0  0  0
  160.4880  211.4240  154.0420 C   0  0  0  0  0  2  0  0  0  0  0  0
  158.7150  213.4400  153.0660 O   0  0  0  0  0  0  0  0  0  0  0  0
  159.5490  213.3940  150.8410 C   0  0  0  0  0  1  0  0  0  0  0  0
  159.5300  212.9280  152.2520 C   0  0  0  0  0  0  0  0  0  0  0  0
  160.4230  211.8930  152.6670 N   0  0  0  0  0  2  0  0  0  0  0  0
  162.7820  207.3290  147.9760 C   0  0  0  0  0  2  0  0  0  0  0  0
  162.3380  206.2660  147.0910 N   0  0  0  0  0  2  0  0  0  0  0  0
  160.9260  206.4950  146.8460 C   0  0  0  0  0  2  0  0  0  0  0  0
  160.5960  206.1260  145.4160 C   0  0  0  0  0  1  0  0  0  0  0  0
  162.1130  203.4930  151.4110 O   0  0  0  0  0  0  0  0  0  0  0  0
  162.1320  202.1150  151.6490 C   0  0  0  0  0  2  0  0  0  0  0  0
  161.0080  201.4390  150.8830 C   0  0  0  0  0  2  0  0  0  0  0  0
  161.3760  201.3020  149.5010 N   0  0  0  0  0  0  0  0  0  0  0  0
  160.4860  201.4160  148.5860 C   0  0  0  0  0  3  0  0  0  0  0  0
  160.8510  201.2750  147.1440 C   0  0  0  0  0  2  0  0  0  0  0  0
  161.1860  202.6240  146.5270 C   0  0  0  0  0  2  0  0  0  0  0  0
  160.7930  202.6500  145.1880 O   0  0  0  0  0  0  0  0  0  0  0  0
  160.0290  201.4950  145.0260 C   0  0  0  0  0  1  0  0  0  0  0  0
  1 11  1  0  0  0  0
  1 12  1  0  0  0  0
  2  6  1  0  0  0  0
  2  4  2  0  0  0  0
  3 25  1  6  0  0  0
  3  5  1  0  0  0  0
  4 12  1  0  0  0  0
  6 21  1  1  0  0  0
  6  1  1  0  0  0  0
  7  8  2  0  0  0  0
  7  5  1  0  0  0  0
  9  3  1  0  0  0  0
 10  9  1  0  0  0  0
 11 10  1  1  0  0  0
 11  7  1  0  0  0  0
 12 13  2  0  0  0  0
 13  8  1  0  0  0  0
 13 14  1  0  0  0  0
 14 15  1  0  0  0  0
 16 15  1  0  0  0  0
 18 19  1  0  0  0  0
 19 20  1  0  0  0  0
 19 17  2  0  0  0  0
 20 16  1  0  0  0  0
 22 21  1  0  0  0  0
 23 22  1  0  0  0  0
 24 23  1  0  0  0  0
 25 26  1  0  0  0  0
 27 26  1  0  0  0  0
 28 27  1  0  0  0  0
 29 28  2  0  0  0  0
 30 29  1  0  0  0  0
 31 30  1  0  0  0  0
 32 31  1  0  0  0  0
 33 32  1  0  0  0  0
M  END
>  <MODEL>
2

>  <REMARK>
 VINA RESULT:      -6.0      1.590      2.298
  Name = 
  14 active torsions:
  status: ('A' for Active; 'I' for Inactive)
    1  A    between atoms: C_1  and  N_23
    2  A    between atoms: C_4  and  O_27
    3  A    between atoms: C_8  and  C_13
    4  A    between atoms: C_8  and  C_31
    5  A    between atoms: C_10  and  C_14
    6  A    between atoms: C_10  and  C_33
    7  A    between atoms: C_12  and  C_15
    8  A    between atoms: C_12  and  N_23
    9  A    between atoms: C_13  and  O_20
   10  A    between atoms: C_14  and  C_17
   11  A    between atoms: N_16  and  C_17
   12  A    between atoms: C_21  and  C_26
   13  A    between atoms: C_21  and  N_30
   14  A    between atoms: C_26  and  O_27
                            x       y       z     vdW  Elec       q    Type
                         _______ _______ _______ _____ _____    ______ ____

>  <TORSDO>
F 14

$$$$
=
 OpenBabel11042422353D

 33 35  0  0  1  0  0  0  0  0999 V2000
  161.6560  205.4470  149.4620 N   0  0  0  0  0  0  0  0  0  0  0  0
  161.9730  205.6400  147.1130 C   0  0  0  0  0  3  0  0  0  0  0  0
  161.3670  205.7540  153.6920 C   0  0  1  0  0  3  0  0  0  0  0  0
  161.3460  204.3520  147.4100 N   0  0  0  0  0  0  0  0  0  0  0  0
  160.8550  204.4420  153.0860 C   0  0  0  0  0  2  0  0  0  0  0  0
  162.0880  206.4020  148.4550 C   0  0  1  0  0  3  0  0  0  0  0  0
  160.9270  204.4530  151.5900 C   0  0  0  0  0  0  0  0  0  0  0  0
  160.5500  203.3970  150.9230 N   0  0  0  0  0  0  0  0  0  0  0  0
  162.7170  206.1710  153.0870 C   0  0  0  0  0  2  0  0  0  0  0  0
  162.7710  206.1310  151.5460 C   0  0  0  0  0  2  0  0  0  0  0  0
  161.4600  205.6910  150.8910 C   0  0  1  0  0  3  0  0  0  0  0  0
  161.1890  204.2950  148.8100 C   0  0  0  0  0  0  0  0  0  0  0  0
  160.6320  203.2960  149.4920 C   0  0  0  0  0  0  0  0  0  0  0  0
  160.1270  202.0650  148.8100 C   0  0  0  0  0  2  0  0  0  0  0  0
  161.2390  201.0440  148.6090 C   0  0  0  0  0  2  0  0  0  0  0  0
  161.3880  200.6820  147.1410 C   0  0  0  0  0  2  0  0  0  0  0  0
  159.9470  200.3200  144.7010 O   0  0  0  0  0  0  0  0  0  0  0  0
  159.5520  202.6370  144.3450 C   0  0  0  0  0  1  0  0  0  0  0  0
  160.1140  201.4980  145.1170 C   0  0  0  0  0  0  0  0  0  0  0  0
  160.8520  201.7510  146.3130 N   0  0  0  0  0  2  0  0  0  0  0  0
  161.1500  207.6000  148.4400 C   0  0  0  0  0  2  0  0  0  0  0  0
  161.9130  208.8330  148.5330 N   0  0  0  0  0  2  0  0  0  0  0  0
  161.9750  209.1760  149.9410 C   0  0  0  0  0  2  0  0  0  0  0  0
  161.9940  210.6820  150.0930 C   0  0  0  0  0  1  0  0  0  0  0  0
  160.4250  206.7720  153.5150 O   0  0  0  0  0  0  0  0  0  0  0  0
  160.8800  207.8270  154.3120 C   0  0  0  0  0  2  0  0  0  0  0  0
  160.1990  207.7870  155.6690 C   0  0  0  0  0  2  0  0  0  0  0  0
  160.0580  209.1220  156.1810 N   0  0  0  0  0  0  0  0  0  0  0  0
  159.4900  210.0240  155.4700 C   0  0  0  0  0  3  0  0  0  0  0  0
  159.3370  211.4180  155.9860 C   0  0  0  0  0  2  0  0  0  0  0  0
  159.8210  212.4380  154.9660 C   0  0  0  0  0  2  0  0  0  0  0  0
  160.4170  211.7870  153.8840 O   0  0  0  0  0  0  0  0  0  0  0  0
  159.8580  212.3930  152.7600 C   0  0  0  0  0  1  0  0  0  0  0  0
  1 11  1  0  0  0  0
  2  4  2  0  0  0  0
  2  6  1  0  0  0  0
  3 25  1  6  0  0  0
  4 12  1  0  0  0  0
  5  3  1  0  0  0  0
  6 21  1  6  0  0  0
  6  1  1  0  0  0  0
  7  5  1  0  0  0  0
  8  7  2  0  0  0  0
  9  3  1  0  0  0  0
 10  9  1  0  0  0  0
 11 10  1  1  0  0  0
 11  7  1  0  0  0  0
 12  1  1  0  0  0  0
 12 13  2  0  0  0  0
 13  8  1  0  0  0  0
 14 13  1  0  0  0  0
 15 14  1  0  0  0  0
 16 15  1  0  0  0  0
 17 19  2  0  0  0  0
 18 19  1  0  0  0  0
 19 20  1  0  0  0  0
 20 16  1  0  0  0  0
 21 22  1  0  0  0  0
 22 23  1  0  0  0  0
 23 24  1  0  0  0  0
 25 26  1  0  0  0  0
 26 27  1  0  0  0  0
 27 28  1  0  0  0  0
 29 30  1  0  0  0  0
 29 28  2  0  0  0  0
 31 30  1  0  0  0  0
 32 31  1  0  0  0  0
 33 32  1  0  0  0  0
M  END
>  <MODEL>
3

>  <REMARK>
 VINA RESULT:      -5.9      2.051      8.580
  Name = 
  14 active torsions:
  status: ('A' for Active; 'I' for Inactive)
    1  A    between atoms: C_1  and  N_23
    2  A    between atoms: C_4  and  O_27
    3  A    between atoms: C_8  and  C_13
    4  A    between atoms: C_8  and  C_31
    5  A    between atoms: C_10  and  C_14
    6  A    between atoms: C_10  and  C_33
    7  A    between atoms: C_12  and  C_15
    8  A    between atoms: C_12  and  N_23
    9  A    between atoms: C_13  and  O_20
   10  A    between atoms: C_14  and  C_17
   11  A    between atoms: N_16  and  C_17
   12  A    between atoms: C_21  and  C_26
   13  A    between atoms: C_21  and  N_30
   14  A    between atoms: C_26  and  O_27
                            x       y       z     vdW  Elec       q    Type
                         _______ _______ _______ _____ _____    ______ ____

>  <TORSDO>
F 14

$$$$
=
 OpenBabel11042422353D

 33 35  0  0  1  0  0  0  0  0999 V2000
  161.3020  204.3240  149.7480 N   0  0  0  0  0  0  0  0  0  0  0  0
  161.0070  203.0740  151.7490 C   0  0  0  0  0  3  0  0  0  0  0  0
  161.8570  205.9260  145.8500 C   0  0  1  0  0  3  0  0  0  0  0  0
  160.9620  204.5020  152.0630 N   0  0  0  0  0  0  0  0  0  0  0  0
  161.7280  206.9560  146.9780 C   0  0  0  0  0  2  0  0  0  0  0  0
  161.1330  202.9560  150.2110 C   0  0  1  0  0  3  0  0  0  0  0  0
  161.4610  206.3050  148.3000 C   0  0  0  0  0  0  0  0  0  0  0  0
  161.3490  207.0470  149.3680 N   0  0  0  0  0  0  0  0  0  0  0  0
  162.8020  204.7760  146.2360 C   0  0  0  0  0  2  0  0  0  0  0  0
  162.5270  204.1560  147.6210 C   0  0  0  0  0  2  0  0  0  0  0  0
  161.3500  204.7920  148.3630 C   0  0  1  0  0  3  0  0  0  0  0  0
  161.1470  205.1860  150.8440 C   0  0  0  0  0  0  0  0  0  0  0  0
  161.1470  206.5090  150.6850 C   0  0  0  0  0  0  0  0  0  0  0  0
  160.9780  207.4390  151.8430 C   0  0  0  0  0  2  0  0  0  0  0  0
  161.9650  208.5960  151.7750 C   0  0  0  0  0  2  0  0  0  0  0  0
  161.2560  209.9290  151.9450 C   0  0  0  0  0  2  0  0  0  0  0  0
  161.8410  210.5990  154.6590 O   0  0  0  0  0  0  0  0  0  0  0  0
  159.6450  210.1690  155.4600 C   0  0  0  0  0  1  0  0  0  0  0  0
  160.6680  210.2290  154.3840 C   0  0  0  0  0  0  0  0  0  0  0  0
  160.3170  209.8500  153.0520 N   0  0  0  0  0  2  0  0  0  0  0  0
  159.8510  202.3700  149.6400 C   0  0  0  0  0  2  0  0  0  0  0  0
  160.1240  201.7070  148.3770 N   0  0  0  0  0  2  0  0  0  0  0  0
  161.2490  200.8210  148.6100 C   0  0  0  0  0  2  0  0  0  0  0  0
  161.6440  200.1550  147.3090 C   0  0  0  0  0  1  0  0  0  0  0  0
  160.6000  205.4210  145.5050 O   0  0  0  0  0  0  0  0  0  0  0  0
  160.7110  205.0620  144.1580 C   0  0  0  0  0  2  0  0  0  0  0  0
  161.7340  205.9470  143.4660 C   0  0  0  0  0  2  0  0  0  0  0  0
  161.5220  205.9140  142.0460 N   0  0  0  0  0  0  0  0  0  0  0  0
  162.2460  206.6350  141.2730 C   0  0  0  0  0  3  0  0  0  0  0  0
  162.0370  206.6150  139.7930 C   0  0  0  0  0  2  0  0  0  0  0  0
  161.4950  207.9460  139.2970 C   0  0  0  0  0  2  0  0  0  0  0  0
  160.9860  207.8040  138.0050 O   0  0  0  0  0  0  0  0  0  0  0  0
  162.0460  207.2810  137.2660 C   0  0  0  0  0  1  0  0  0  0  0  0
  1  6  1  0  0  0  0
  1 12  1  0  0  0  0
  2  4  2  0  0  0  0
  3 25  1  1  0  0  0
  3  9  1  0  0  0  0
  3  5  1  0  0  0  0
  5  7  1  0  0  0  0
  6 21  1  6  0  0  0
  6  2  1  0  0  0  0
  7 11  1  0  0  0  0
  7  8  2  0  0  0  0
  8 13  1  0  0  0  0
  9 10  1  0  0  0  0
 11 10  1  1  0  0  0
 11  1  1  0  0  0  0
 12  4  1  0  0  0  0
 13 12  2  0  0  0  0
 13 14  1  0  0  0  0
 15 14  1  0  0  0  0
 15 16  1  0  0  0  0
 16 20  1  0  0  0  0
 19 17  2  0  0  0  0
 19 18  1  0  0  0  0
 20 19  1  0  0  0  0
 22 23  1  0  0  0  0
 22 21  1  0  0  0  0
 24 23  1  0  0  0  0
 26 25  1  0  0  0  0
 27 26  1  0  0  0  0
 28 27  1  0  0  0  0
 29 28  2  0  0  0  0
 30 29  1  0  0  0  0
 31 30  1  0  0  0  0
 32 31  1  0  0  0  0
 33 32  1  0  0  0  0
M  END
>  <MODEL>
4

>  <REMARK>
 VINA RESULT:      -5.8      3.319      5.966
  Name = 
  14 active torsions:
  status: ('A' for Active; 'I' for Inactive)
    1  A    between atoms: C_1  and  N_23
    2  A    between atoms: C_4  and  O_27
    3  A    between atoms: C_8  and  C_13
    4  A    between atoms: C_8  and  C_31
    5  A    between atoms: C_10  and  C_14
    6  A    between atoms: C_10  and  C_33
    7  A    between atoms: C_12  and  C_15
    8  A    between atoms: C_12  and  N_23
    9  A    between atoms: C_13  and  O_20
   10  A    between atoms: C_14  and  C_17
   11  A    between atoms: N_16  and  C_17
   12  A    between atoms: C_21  and  C_26
   13  A    between atoms: C_21  and  N_30
   14  A    between atoms: C_26  and  O_27
                            x       y       z     vdW  Elec       q    Type
                         _______ _______ _______ _____ _____    ______ ____

>  <TORSDO>
F 14

$$$$
=
 OpenBabel11042422353D

 33 35  0  0  1  0  0  0  0  0999 V2000
  161.5650  207.5560  152.4330 N   0  0  0  0  0  0  0  0  0  0  0  0
  161.3020  206.8180  154.6780 C   0  0  0  0  0  3  0  0  0  0  0  0
  162.1840  208.1980  148.2760 C   0  0  1  0  0  3  0  0  0  0  0  0
  161.0140  208.2500  154.6060 N   0  0  0  0  0  0  0  0  0  0  0  0
  161.8060  209.4420  149.0900 C   0  0  0  0  0  2  0  0  0  0  0  0
  161.5710  206.3410  153.2300 C   0  0  1  0  0  3  0  0  0  0  0  0
  161.5360  209.1080  150.5250 C   0  0  0  0  0  0  0  0  0  0  0  0
  161.2250  210.0640  151.3560 N   0  0  0  0  0  0  0  0  0  0  0  0
  163.2590  207.3590  148.9860 C   0  0  0  0  0  2  0  0  0  0  0  0
  162.9710  207.0700  150.4730 C   0  0  0  0  0  2  0  0  0  0  0  0
  161.6540  207.6630  150.9770 C   0  0  1  0  0  3  0  0  0  0  0  0
  161.1900  208.6270  153.2580 C   0  0  0  0  0  0  0  0  0  0  0  0
  161.0000  209.8480  152.7590 C   0  0  0  0  0  0  0  0  0  0  0  0
  160.5960  210.9970  153.6270 C   0  0  0  0  0  2  0  0  0  0  0  0
  159.1170  211.3200  153.4680 C   0  0  0  0  0  2  0  0  0  0  0  0
  158.9150  212.7770  153.0880 C   0  0  0  0  0  2  0  0  0  0  0  0
  158.1290  213.2190  150.3780 O   0  0  0  0  0  0  0  0  0  0  0  0
  160.3110  213.7720  149.6140 C   0  0  0  0  0  1  0  0  0  0  0  0
  159.3460  213.3660  150.6690 C   0  0  0  0  0  0  0  0  0  0  0  0
  159.8120  213.1300  151.9990 N   0  0  0  0  0  2  0  0  0  0  0  0
  160.4440  205.4220  152.7820 C   0  0  0  0  0  2  0  0  0  0  0  0
  160.9030  204.0440  152.7600 N   0  0  0  0  0  2  0  0  0  0  0  0
  161.4850  203.8220  151.4490 C   0  0  0  0  0  2  0  0  0  0  0  0
  160.5230  204.3000  150.3830 C   0  0  0  0  0  1  0  0  0  0  0  0
  161.0510  207.4170  148.0260 O   0  0  0  0  0  0  0  0  0  0  0  0
  161.4980  206.3890  147.1920 C   0  0  0  0  0  2  0  0  0  0  0  0
  160.6750  206.3570  145.9160 C   0  0  0  0  0  2  0  0  0  0  0  0
  160.6660  205.0260  145.3770 N   0  0  0  0  0  0  0  0  0  0  0  0
  161.2090  204.0660  146.0300 C   0  0  0  0  0  3  0  0  0  0  0  0
  161.2100  202.6750  145.4840 C   0  0  0  0  0  2  0  0  0  0  0  0
  160.6940  201.6810  146.5120 C   0  0  0  0  0  2  0  0  0  0  0  0
  161.0120  202.1160  147.8010 O   0  0  0  0  0  0  0  0  0  0  0  0
  161.2420  200.9440  148.5190 C   0  0  0  0  0  1  0  0  0  0  0  0
  1  6  1  0  0  0  0
  1 12  1  0  0  0  0
  3 25  1  1  0  0  0
  3  9  1  0  0  0  0
  3  5  1  0  0  0  0
  4  2  2  0  0  0  0
  5  7  1  0  0  0  0
  6 21  1  6  0  0  0
  6  2  1  0  0  0  0
  7 11  1  0  0  0  0
  7  8  2  0  0  0  0
  8 13  1  0  0  0  0
  9 10  1  0  0  0  0
 11 10  1  1  0  0  0
 11  1  1  0  0  0  0
 12  4  1  0  0  0  0
 13 12  2  0  0  0  0
 13 14  1  0  0  0  0
 15 14  1  0  0  0  0
 16 15  1  0  0  0  0
 17 19  2  0  0  0  0
 18 19  1  0  0  0  0
 19 20  1  0  0  0  0
 20 16  1  0  0  0  0
 22 21  1  0  0  0  0
 23 22  1  0  0  0  0
 24 23  1  0  0  0  0
 26 25  1  0  0  0  0
 27 26  1  0  0  0  0
 28 27  1  0  0  0  0
 28 29  2  0  0  0  0
 30 29  1  0  0  0  0
 30 31  1  0  0  0  0
 31 32  1  0  0  0  0
 32 33  1  0  0  0  0
M  END
>  <MODEL>
5

>  <REMARK>
 VINA RESULT:      -5.5      2.647      5.031
  Name = 
  14 active torsions:
  status: ('A' for Active; 'I' for Inactive)
    1  A    between atoms: C_1  and  N_23
    2  A    between atoms: C_4  and  O_27
    3  A    between atoms: C_8  and  C_13
    4  A    between atoms: C_8  and  C_31
    5  A    between atoms: C_10  and  C_14
    6  A    between atoms: C_10  and  C_33
    7  A    between atoms: C_12  and  C_15
    8  A    between atoms: C_12  and  N_23
    9  A    between atoms: C_13  and  O_20
   10  A    between atoms: C_14  and  C_17
   11  A    between atoms: N_16  and  C_17
   12  A    between atoms: C_21  and  C_26
   13  A    between atoms: C_21  and  N_30
   14  A    between atoms: C_26  and  O_27
                            x       y       z     vdW  Elec       q    Type
                         _______ _______ _______ _____ _____    ______ ____

>  <TORSDO>
F 14

$$$$
=
 OpenBabel11042422353D

 33 35  0  0  1  0  0  0  0  0999 V2000
  161.5720  207.5630  152.3900 N   0  0  0  0  0  0  0  0  0  0  0  0
  161.2070  206.9470  154.6580 C   0  0  0  0  0  3  0  0  0  0  0  0
  162.3880  207.9810  148.2390 C   0  0  1  0  0  3  0  0  0  0  0  0
  160.9080  208.3690  154.4920 N   0  0  0  0  0  0  0  0  0  0  0  0
  161.9590  209.2630  148.9630 C   0  0  0  0  0  2  0  0  0  0  0  0
  161.5500  206.3940  153.2540 C   0  0  1  0  0  3  0  0  0  0  0  0
  161.6220  209.0060  150.4000 C   0  0  0  0  0  0  0  0  0  0  0  0
  161.2610  210.0030  151.1600 N   0  0  0  0  0  0  0  0  0  0  0  0
  163.4350  207.1960  149.0460 C   0  0  0  0  0  2  0  0  0  0  0  0
  163.0770  206.9860  150.5310 C   0  0  0  0  0  2  0  0  0  0  0  0
  161.7310  207.5900  150.9370 C   0  0  1  0  0  3  0  0  0  0  0  0
  161.1470  208.6730  153.1350 C   0  0  0  0  0  0  0  0  0  0  0  0
  160.9700  209.8620  152.5600 C   0  0  0  0  0  0  0  0  0  0  0  0
  160.5120  211.0520  153.3420 C   0  0  0  0  0  2  0  0  0  0  0  0
  159.2630  211.6720  152.7300 C   0  0  0  0  0  2  0  0  0  0  0  0
  158.5570  212.5730  153.7290 C   0  0  0  0  0  2  0  0  0  0  0  0
  157.9600  210.6960  155.7970 O   0  0  0  0  0  0  0  0  0  0  0  0
  155.6210  210.6540  155.3740 C   0  0  0  0  0  1  0  0  0  0  0  0
  157.0040  211.1230  155.0960 C   0  0  0  0  0  0  0  0  0  0  0  0
  157.2370  212.0390  154.0250 N   0  0  0  0  0  2  0  0  0  0  0  0
  160.4570  205.4370  152.8040 C   0  0  0  0  0  2  0  0  0  0  0  0
  160.9540  204.0720  152.8070 N   0  0  0  0  0  2  0  0  0  0  0  0
  161.4010  203.7920  151.4550 C   0  0  0  0  0  2  0  0  0  0  0  0
  160.4500  204.4320  150.4670 C   0  0  0  0  0  1  0  0  0  0  0  0
  161.2770  207.1730  147.9790 O   0  0  0  0  0  0  0  0  0  0  0  0
  161.7880  206.0630  147.3010 C   0  0  0  0  0  2  0  0  0  0  0  0
  161.4580  206.1580  145.8210 C   0  0  0  0  0  2  0  0  0  0  0  0
  161.0970  204.8620  145.3200 N   0  0  0  0  0  0  0  0  0  0  0  0
  161.2100  203.8290  146.0720 C   0  0  0  0  0  3  0  0  0  0  0  0
  160.8420  202.4730  145.5660 C   0  0  0  0  0  2  0  0  0  0  0  0
  160.8290  201.4510  146.6920 C   0  0  0  0  0  2  0  0  0  0  0  0
  161.1910  202.0600  147.8950 O   0  0  0  0  0  0  0  0  0  0  0  0
  160.5700  201.2910  148.8780 C   0  0  0  0  0  1  0  0  0  0  0  0
  1 12  1  0  0  0  0
  1  6  1  0  0  0  0
  3 25  1  1  0  0  0
  3  5  1  0  0  0  0
  3  9  1  0  0  0  0
  4  2  2  0  0  0  0
  5  7  1  0  0  0  0
  6 21  1  6  0  0  0
  6  2  1  0  0  0  0
  7 11  1  0  0  0  0
  7  8  2  0  0  0  0
  8 13  1  0  0  0  0
  9 10  1  0  0  0  0
 11 10  1  1  0  0  0
 11  1  1  0  0  0  0
 12  4  1  0  0  0  0
 13 12  2  0  0  0  0
 13 14  1  0  0  0  0
 15 14  1  0  0  0  0
 15 16  1  0  0  0  0
 16 20  1  0  0  0  0
 19 18  1  0  0  0  0
 19 17  2  0  0  0  0
 20 19  1  0  0  0  0
 21 22  1  0  0  0  0
 23 22  1  0  0  0  0
 24 23  1  0  0  0  0
 26 25  1  0  0  0  0
 27 26  1  0  0  0  0
 28 27  1  0  0  0  0
 28 29  2  0  0  0  0
 30 29  1  0  0  0  0
 30 31  1  0  0  0  0
 31 32  1  0  0  0  0
 32 33  1  0  0  0  0
M  END
>  <MODEL>
6

>  <REMARK>
 VINA RESULT:      -5.3      2.437      4.500
  Name = 
  14 active torsions:
  status: ('A' for Active; 'I' for Inactive)
    1  A    between atoms: C_1  and  N_23
    2  A    between atoms: C_4  and  O_27
    3  A    between atoms: C_8  and  C_13
    4  A    between atoms: C_8  and  C_31
    5  A    between atoms: C_10  and  C_14
    6  A    between atoms: C_10  and  C_33
    7  A    between atoms: C_12  and  C_15
    8  A    between atoms: C_12  and  N_23
    9  A    between atoms: C_13  and  O_20
   10  A    between atoms: C_14  and  C_17
   11  A    between atoms: N_16  and  C_17
   12  A    between atoms: C_21  and  C_26
   13  A    between atoms: C_21  and  N_30
   14  A    between atoms: C_26  and  O_27
                            x       y       z     vdW  Elec       q    Type
                         _______ _______ _______ _____ _____    ______ ____

>  <TORSDO>
F 14

$$$$
=
 OpenBabel11042422353D

 33 35  0  0  1  0  0  0  0  0999 V2000
  161.7600  209.7890  150.8600 N   0  0  0  0  0  0  0  0  0  0  0  0
  162.2680  210.4670  148.6380 C   0  0  0  0  0  3  0  0  0  0  0  0
  160.9440  209.2590  154.9980 C   0  0  1  0  0  3  0  0  0  0  0  0
  161.9720  209.0350  148.6480 N   0  0  0  0  0  0  0  0  0  0  0  0
  160.8610  207.9920  154.1390 C   0  0  0  0  0  2  0  0  0  0  0  0
  162.0340  210.9830  150.0780 C   0  0  1  0  0  3  0  0  0  0  0  0
  161.0900  208.2860  152.6880 C   0  0  0  0  0  0  0  0  0  0  0  0
  161.0760  207.3070  151.8260 N   0  0  0  0  0  0  0  0  0  0  0  0
  162.1950  210.0890  154.6690 C   0  0  0  0  0  2  0  0  0  0  0  0
  162.4250  210.3370  153.1650 C   0  0  0  0  0  2  0  0  0  0  0  0
  161.3530  209.7200  152.2630 C   0  0  1  0  0  3  0  0  0  0  0  0
  161.6840  208.6940  149.9860 C   0  0  0  0  0  0  0  0  0  0  0  0
  161.3370  207.4850  150.4240 C   0  0  0  0  0  0  0  0  0  0  0  0
  161.2470  206.3100  149.5030 C   0  0  0  0  0  2  0  0  0  0  0  0
  160.4640  205.1670  150.1330 C   0  0  0  0  0  2  0  0  0  0  0  0
  161.2240  203.8570  150.0190 C   0  0  0  0  0  2  0  0  0  0  0  0
  160.5950  201.2120  149.1430 O   0  0  0  0  0  0  0  0  0  0  0  0
  160.8390  201.6930  146.8280 C   0  0  0  0  0  1  0  0  0  0  0  0
  160.8670  202.0730  148.2650 C   0  0  0  0  0  0  0  0  0  0  0  0
  161.2220  203.4060  148.6360 N   0  0  0  0  0  2  0  0  0  0  0  0
  160.8230  211.9040  150.0960 C   0  0  0  0  0  2  0  0  0  0  0  0
  160.9020  212.8550  149.0010 N   0  0  0  0  0  2  0  0  0  0  0  0
  160.0000  213.9420  149.3310 C   0  0  0  0  0  2  0  0  0  0  0  0
  159.3170  213.6470  150.6490 C   0  0  0  0  0  1  0  0  0  0  0  0
  159.7940  210.0360  154.8310 O   0  0  0  0  0  0  0  0  0  0  0  0
  159.1720  210.0360  156.0840 C   0  0  0  0  0  2  0  0  0  0  0  0
  159.3530  211.3860  156.7560 C   0  0  0  0  0  2  0  0  0  0  0  0
  158.0680  211.9730  157.0170 N   0  0  0  0  0  0  0  0  0  0  0  0
  157.2330  212.1410  156.0590 C   0  0  0  0  0  3  0  0  0  0  0  0
  155.8940  212.7520  156.3130 C   0  0  0  0  0  2  0  0  0  0  0  0
  155.4860  213.6740  155.1730 C   0  0  0  0  0  2  0  0  0  0  0  0
  156.3450  213.5010  154.0870 O   0  0  0  0  0  0  0  0  0  0  0  0
  155.7210  214.1730  153.0370 C   0  0  0  0  0  1  0  0  0  0  0  0
  1 11  1  0  0  0  0
  2  4  2  0  0  0  0
  2  6  1  0  0  0  0
  3 25  1  6  0  0  0
  4 12  1  0  0  0  0
  5  3  1  0  0  0  0
  6 21  1  6  0  0  0
  6  1  1  0  0  0  0
  7  5  1  0  0  0  0
  8  7  2  0  0  0  0
  9  3  1  0  0  0  0
 10  9  1  0  0  0  0
 11  7  1  0  0  0  0
 11 10  1  1  0  0  0
 12 13  2  0  0  0  0
 12  1  1  0  0  0  0
 13  8  1  0  0  0  0
 14 15  1  0  0  0  0
 14 13  1  0  0  0  0
 16 15  1  0  0  0  0
 18 19  1  0  0  0  0
 19 20  1  0  0  0  0
 19 17  2  0  0  0  0
 20 16  1  0  0  0  0
 22 23  1  0  0  0  0
 22 21  1  0  0  0  0
 23 24  1  0  0  0  0
 25 26  1  0  0  0  0
 26 27  1  0  0  0  0
 27 28  1  0  0  0  0
 29 30  1  0  0  0  0
 29 28  2  0  0  0  0
 31 30  1  0  0  0  0
 32 31  1  0  0  0  0
 33 32  1  0  0  0  0
M  END
>  <MODEL>
7

>  <REMARK>
 VINA RESULT:      -5.3      3.254      8.908
  Name = 
  14 active torsions:
  status: ('A' for Active; 'I' for Inactive)
    1  A    between atoms: C_1  and  N_23
    2  A    between atoms: C_4  and  O_27
    3  A    between atoms: C_8  and  C_13
    4  A    between atoms: C_8  and  C_31
    5  A    between atoms: C_10  and  C_14
    6  A    between atoms: C_10  and  C_33
    7  A    between atoms: C_12  and  C_15
    8  A    between atoms: C_12  and  N_23
    9  A    between atoms: C_13  and  O_20
   10  A    between atoms: C_14  and  C_17
   11  A    between atoms: N_16  and  C_17
   12  A    between atoms: C_21  and  C_26
   13  A    between atoms: C_21  and  N_30
   14  A    between atoms: C_26  and  O_27
                            x       y       z     vdW  Elec       q    Type
                         _______ _______ _______ _____ _____    ______ ____

>  <TORSDO>
F 14

$$$$
=
 OpenBabel11042422353D

 33 35  0  0  1  0  0  0  0  0999 V2000
  159.2560  212.2150  154.5390 N   0  0  0  0  0  0  0  0  0  0  0  0
  157.9530  213.9960  155.4240 C   0  0  0  0  0  3  0  0  0  0  0  0
  161.5300  208.7470  153.6040 C   0  0  1  0  0  3  0  0  0  0  0  0
  158.2290  214.2580  154.0110 N   0  0  0  0  0  0  0  0  0  0  0  0
  161.3400  209.7440  152.4550 C   0  0  0  0  0  2  0  0  0  0  0  0
  158.5460  212.6040  155.7470 C   0  0  1  0  0  3  0  0  0  0  0  0
  160.4660  210.8940  152.8540 C   0  0  0  0  0  0  0  0  0  0  0  0
  160.2280  211.8450  151.9930 N   0  0  0  0  0  0  0  0  0  0  0  0
  161.9070  209.4550  154.9160 C   0  0  0  0  0  2  0  0  0  0  0  0
  161.0150  210.6600  155.2750 C   0  0  0  0  0  2  0  0  0  0  0  0
  159.9000  210.9310  154.2630 C   0  0  1  0  0  3  0  0  0  0  0  0
  159.0040  213.1750  153.5470 C   0  0  0  0  0  0  0  0  0  0  0  0
  159.4470  213.0110  152.3010 C   0  0  0  0  0  0  0  0  0  0  0  0
  159.1820  214.0240  151.2340 C   0  0  0  0  0  2  0  0  0  0  0  0
  158.6680  213.3670  149.9600 C   0  0  0  0  0  2  0  0  0  0  0  0
  159.4070  213.8910  148.7400 C   0  0  0  0  0  2  0  0  0  0  0  0
  160.8160  211.9410  147.2000 O   0  0  0  0  0  0  0  0  0  0  0  0
  162.9370  212.3980  148.1730 C   0  0  0  0  0  1  0  0  0  0  0  0
  161.4740  212.6210  148.0330 C   0  0  0  0  0  0  0  0  0  0  0  0
  160.8250  213.5900  148.8580 N   0  0  0  0  0  2  0  0  0  0  0  0
  157.4170  211.6230  156.0230 C   0  0  0  0  0  2  0  0  0  0  0  0
  156.1410  212.2140  155.6600 N   0  0  0  0  0  2  0  0  0  0  0  0
  155.5340  211.3250  154.6880 C   0  0  0  0  0  2  0  0  0  0  0  0
  155.2120  210.0010  155.3480 C   0  0  0  0  0  1  0  0  0  0  0  0
  160.3710  207.9850  153.7850 O   0  0  0  0  0  0  0  0  0  0  0  0
  160.8180  206.7600  154.2870 C   0  0  0  0  0  2  0  0  0  0  0  0
  161.9070  206.1950  153.3910 C   0  0  0  0  0  2  0  0  0  0  0  0
  161.3130  205.5520  152.2520 N   0  0  0  0  0  0  0  0  0  0  0  0
  161.4000  206.0920  151.0930 C   0  0  0  0  0  3  0  0  0  0  0  0
  160.7860  205.4380  149.8980 C   0  0  0  0  0  2  0  0  0  0  0  0
  160.8420  206.3500  148.6830 C   0  0  0  0  0  2  0  0  0  0  0  0
  162.0510  207.0490  148.6640 O   0  0  0  0  0  0  0  0  0  0  0  0
  161.6790  208.3890  148.5670 C   0  0  0  0  0  1  0  0  0  0  0  0
  1  6  1  0  0  0  0
  2  6  1  0  0  0  0
  3 25  1  1  0  0  0
  3  9  1  0  0  0  0
  4  2  2  0  0  0  0
  5  7  1  0  0  0  0
  5  3  1  0  0  0  0
  6 21  1  6  0  0  0
  7 11  1  0  0  0  0
  8 13  1  0  0  0  0
  8  7  2  0  0  0  0
  9 10  1  0  0  0  0
 11  1  1  0  0  0  0
 11 10  1  1  0  0  0
 12  4  1  0  0  0  0
 12  1  1  0  0  0  0
 13 12  2  0  0  0  0
 14 13  1  0  0  0  0
 15 14  1  0  0  0  0
 16 20  1  0  0  0  0
 16 15  1  0  0  0  0
 17 19  2  0  0  0  0
 19 18  1  0  0  0  0
 19 20  1  0  0  0  0
 22 21  1  0  0  0  0
 23 24  1  0  0  0  0
 23 22  1  0  0  0  0
 25 26  1  0  0  0  0
 27 26  1  0  0  0  0
 28 27  1  0  0  0  0
 29 28  2  0  0  0  0
 30 29  1  0  0  0  0
 31 30  1  0  0  0  0
 32 31  1  0  0  0  0
 33 32  1  0  0  0  0
M  END
>  <MODEL>
8

>  <REMARK>
 VINA RESULT:      -5.3      4.036      7.535
  Name = 
  14 active torsions:
  status: ('A' for Active; 'I' for Inactive)
    1  A    between atoms: C_1  and  N_23
    2  A    between atoms: C_4  and  O_27
    3  A    between atoms: C_8  and  C_13
    4  A    between atoms: C_8  and  C_31
    5  A    between atoms: C_10  and  C_14
    6  A    between atoms: C_10  and  C_33
    7  A    between atoms: C_12  and  C_15
    8  A    between atoms: C_12  and  N_23
    9  A    between atoms: C_13  and  O_20
   10  A    between atoms: C_14  and  C_17
   11  A    between atoms: N_16  and  C_17
   12  A    between atoms: C_21  and  C_26
   13  A    between atoms: C_21  and  N_30
   14  A    between atoms: C_26  and  O_27
                            x       y       z     vdW  Elec       q    Type
                         _______ _______ _______ _____ _____    ______ ____

>  <TORSDO>
F 14

$$$$
=
 OpenBabel11042422353D

 33 35  0  0  1  0  0  0  0  0999 V2000
  158.8370  212.5670  154.5290 N   0  0  0  0  0  0  0  0  0  0  0  0
  157.3450  214.0760  155.6020 C   0  0  0  0  0  3  0  0  0  0  0  0
  161.5710  209.5730  153.2500 C   0  0  1  0  0  3  0  0  0  0  0  0
  157.4140  214.4000  154.1780 N   0  0  0  0  0  0  0  0  0  0  0  0
  161.0830  210.5350  152.1600 C   0  0  0  0  0  2  0  0  0  0  0  0
  158.2070  212.8080  155.8170 C   0  0  1  0  0  3  0  0  0  0  0  0
  160.0700  211.5050  152.6850 C   0  0  0  0  0  0  0  0  0  0  0  0
  159.5740  212.4090  151.8840 N   0  0  0  0  0  0  0  0  0  0  0  0
  161.9590  210.3210  154.5360 C   0  0  0  0  0  2  0  0  0  0  0  0
  160.9130  211.3430  155.0260 C   0  0  0  0  0  2  0  0  0  0  0  0
  159.6640  211.4230  154.1460 C   0  0  1  0  0  3  0  0  0  0  0  0
  158.3130  213.4790  153.6000 C   0  0  0  0  0  0  0  0  0  0  0  0
  158.6390  213.4130  152.3100 C   0  0  0  0  0  0  0  0  0  0  0  0
  158.0840  214.3750  151.3090 C   0  0  0  0  0  2  0  0  0  0  0  0
  157.9120  213.7210  149.9450 C   0  0  0  0  0  2  0  0  0  0  0  0
  158.7440  214.4320  148.8910 C   0  0  0  0  0  2  0  0  0  0  0  0
  160.0910  212.6370  147.1240 O   0  0  0  0  0  0  0  0  0  0  0  0
  162.1960  212.8070  148.2160 C   0  0  0  0  0  1  0  0  0  0  0  0
  160.7550  213.1440  148.0670 C   0  0  0  0  0  0  0  0  0  0  0  0
  160.1360  214.0250  149.0050 N   0  0  0  0  0  2  0  0  0  0  0  0
  157.3050  211.6380  156.1800 C   0  0  0  0  0  2  0  0  0  0  0  0
  155.9700  212.1150  156.4940 N   0  0  0  0  0  2  0  0  0  0  0  0
  155.0940  210.9590  156.4400 C   0  0  0  0  0  2  0  0  0  0  0  0
  155.2600  210.2630  155.1060 C   0  0  0  0  0  1  0  0  0  0  0  0
  160.5910  208.6150  153.5280 O   0  0  0  0  0  0  0  0  0  0  0  0
  161.1060  207.8680  154.5910 C   0  0  0  0  0  2  0  0  0  0  0  0
  161.1820  206.4000  154.2090 C   0  0  0  0  0  2  0  0  0  0  0  0
  161.1930  206.2710  152.7790 N   0  0  0  0  0  0  0  0  0  0  0  0
  161.2440  205.1090  152.2400 C   0  0  0  0  0  3  0  0  0  0  0  0
  161.2580  204.9570  150.7540 C   0  0  0  0  0  2  0  0  0  0  0  0
  160.8150  203.5620  150.3400 C   0  0  0  0  0  2  0  0  0  0  0  0
  160.8930  203.4260  148.9530 O   0  0  0  0  0  0  0  0  0  0  0  0
  161.2290  204.6990  148.4950 C   0  0  0  0  0  1  0  0  0  0  0  0
  1  6  1  0  0  0  0
  2  6  1  0  0  0  0
  3 25  1  1  0  0  0
  3  9  1  0  0  0  0
  4  2  2  0  0  0  0
  5  7  1  0  0  0  0
  5  3  1  0  0  0  0
  6 21  1  6  0  0  0
  7 11  1  0  0  0  0
  8 13  1  0  0  0  0
  8  7  2  0  0  0  0
  9 10  1  0  0  0  0
 11  1  1  0  0  0  0
 11 10  1  1  0  0  0
 12  4  1  0  0  0  0
 12  1  1  0  0  0  0
 13 12  2  0  0  0  0
 14 13  1  0  0  0  0
 15 14  1  0  0  0  0
 16 20  1  0  0  0  0
 16 15  1  0  0  0  0
 17 19  2  0  0  0  0
 19 18  1  0  0  0  0
 19 20  1  0  0  0  0
 21 22  1  0  0  0  0
 23 22  1  0  0  0  0
 24 23  1  0  0  0  0
 25 26  1  0  0  0  0
 27 26  1  0  0  0  0
 28 27  1  0  0  0  0
 29 28  2  0  0  0  0
 30 29  1  0  0  0  0
 31 30  1  0  0  0  0
 32 31  1  0  0  0  0
 33 32  1  0  0  0  0
M  END
>  <MODEL>
9

>  <REMARK>
 VINA RESULT:      -5.2      4.349      7.828
  Name = 
  14 active torsions:
  status: ('A' for Active; 'I' for Inactive)
    1  A    between atoms: C_1  and  N_23
    2  A    between atoms: C_4  and  O_27
    3  A    between atoms: C_8  and  C_13
    4  A    between atoms: C_8  and  C_31
    5  A    between atoms: C_10  and  C_14
    6  A    between atoms: C_10  and  C_33
    7  A    between atoms: C_12  and  C_15
    8  A    between atoms: C_12  and  N_23
    9  A    between atoms: C_13  and  O_20
   10  A    between atoms: C_14  and  C_17
   11  A    between atoms: N_16  and  C_17
   12  A    between atoms: C_21  and  C_26
   13  A    between atoms: C_21  and  N_30
   14  A    between atoms: C_26  and  O_27
                            x       y       z     vdW  Elec       q    Type
                         _______ _______ _______ _____ _____    ______ ____

>  <TORSDO>
F 14

$$$$
