=
 OpenBabel11052411113D

 44 48  0  0  1  0  0  0  0  0999 V2000
  162.0950  210.5840  154.6300 C   0  0  0  0  0  1  0  0  0  0  0  0
  160.6180  210.2160  154.6620 C   0  0  1  0  0  3  0  0  0  0  0  0
  159.9030  210.9460  153.5590 C   0  0  0  0  0  0  0  0  0  0  0  0
  159.1880  210.3400  152.7750 O   0  0  0  0  0  0  0  0  0  0  0  0
  160.0900  212.4210  153.4020 C   0  0  0  0  0  2  0  0  0  0  0  0
  157.9580  213.8220  153.5770 C   0  0  0  0  0  0  0  0  0  0  0  0
  157.5900  213.5390  150.7930 C   0  0  0  0  0  0  0  0  0  0  0  0
  156.8890  214.4530  152.9220 C   0  0  0  0  0  3  0  0  0  0  0  0
  158.8640  213.0460  152.8110 C   0  0  0  0  0  0  0  0  0  0  0  0
  158.6710  212.9150  151.4310 C   0  0  0  0  0  3  0  0  0  0  0  0
  156.7060  214.3120  151.5450 C   0  0  0  0  0  3  0  0  0  0  0  0
  158.3630  213.7610  148.4530 C   0  0  0  0  0  1  0  0  0  0  0  0
  157.3770  213.4130  149.4180 O   0  0  0  0  0  0  0  0  0  0  0  0
  158.0810  214.0000  155.0420 C   0  0  0  0  0  0  0  0  0  0  0  0
  159.2260  214.1690  155.5460 O   0  0  0  0  0  0  0  0  0  0  0  0
  156.4670  213.1210  156.6690 C   0  0  0  0  0  3  0  0  0  0  0  0
  156.9050  214.0510  155.8700 N   0  0  0  0  0  0  0  0  0  0  0  0
  157.1020  211.7770  156.8240 C   0  0  0  0  0  2  0  0  0  0  0  0
  157.0510  211.0310  155.5030 C   0  0  0  0  0  2  0  0  0  0  0  0
  154.9260  209.9730  155.6620 O   0  0  0  0  0  1  0  0  0  0  0  0
  155.0950  211.6220  154.0780 O   0  0  0  0  0  0  0  0  0  0  0  0
  155.6380  210.8350  155.0850 C   0  0  0  0  0  0  0  0  0  0  0  0
  160.4200  208.6960  154.5630 C   0  0  2  0  0  3  0  0  0  0  0  0
  159.2570  207.2010  156.2070 O   0  0  0  0  0  0  0  0  0  0  0  0
  160.3020  208.0730  155.9190 C   0  0  0  0  0  0  0  0  0  0  0  0
  161.1600  208.3290  156.8030 O   0  0  0  0  0  1  0  0  0  0  0  0
  161.5740  208.0390  153.8110 C   0  0  0  0  0  2  0  0  0  0  0  0
  161.0460  207.1880  152.6710 C   0  0  0  0  0  2  0  0  0  0  0  0
  161.8870  205.2720  151.3300 C   0  0  2  0  0  3  0  0  0  0  0  0
  160.7270  204.9340  152.1540 C   0  0  0  0  0  2  0  0  0  0  0  0
  161.7150  205.8890  152.6770 N   0  0  0  0  0  0  0  0  0  0  0  0
  161.0100  205.4610  148.9680 C   0  0  1  0  0  3  0  0  0  0  0  0
  161.5430  206.1850  150.1390 C   0  0  1  0  0  0  0  0  0  0  0  0
  162.2410  207.4570  148.1920 C   0  0  0  0  0  2  0  0  0  0  0  0
  160.1910  206.2980  149.7660 O   0  0  0  0  0  0  0  0  0  0  0  0
  162.4630  207.2990  149.6820 C   0  0  0  0  0  2  0  0  0  0  0  0
  161.5100  206.2000  147.7180 C   0  0  2  0  0  0  0  0  0  0  0  0
  160.2950  206.6190  146.8970 C   0  0  0  0  0  1  0  0  0  0  0  0
  162.2920  203.8870  147.2990 C   0  0  0  0  0  2  0  0  0  0  0  0
  161.3560  203.2780  145.1740 O   0  0  0  0  0  0  0  0  0  0  0  0
  161.1690  203.1550  146.5580 C   0  0  0  0  0  2  0  0  0  0  0  0
  162.3790  205.3090  146.9070 N   0  0  0  0  0  0  0  0  0  0  0  0
  161.1150  204.6250  144.8680 C   0  0  0  0  0  2  0  0  0  0  0  0
  162.2350  205.4960  145.4480 C   0  0  0  0  0  2  0  0  0  0  0  0
  2  1  1  6  0  0  0
  3  2  1  0  0  0  0
  4  3  2  0  0  0  0
  5  3  1  0  0  0  0
  6 14  1  0  0  0  0
  7 10  2  0  0  0  0
  7 11  1  0  0  0  0
  8  6  1  0  0  0  0
  9  5  1  0  0  0  0
  9  6  2  0  0  0  0
 10  9  1  0  0  0  0
 11  8  2  0  0  0  0
 12 13  1  0  0  0  0
 13  7  1  0  0  0  0
 14 15  2  0  0  0  0
 14 17  1  0  0  0  0
 16 18  1  0  0  0  0
 17 16  2  0  0  0  0
 19 18  1  0  0  0  0
 21 22  2  0  0  0  0
 22 19  1  0  0  0  0
 22 20  1  0  0  0  0
 23 27  1  1  0  0  0
 23  2  1  0  0  0  0
 23 25  1  0  0  0  0
 25 24  2  0  0  0  0
 25 26  1  0  0  0  0
 28 31  1  0  0  0  0
 28 27  1  0  0  0  0
 29 30  1  1  0  0  0
 29 31  1  0  0  0  0
 30 31  1  0  0  0  0
 32 35  1  1  0  0  0
 32 33  1  0  0  0  0
 33 36  1  6  0  0  0
 33 29  1  0  0  0  0
 34 36  1  0  0  0  0
 35 33  1  0  0  0  0
 37 38  1  6  0  0  0
 37 34  1  0  0  0  0
 37 32  1  0  0  0  0
 40 41  1  0  0  0  0
 41 39  1  0  0  0  0
 42 39  1  0  0  0  0
 42 37  1  0  0  0  0
 43 40  1  0  0  0  0
 43 44  1  0  0  0  0
 44 42  1  0  0  0  0
M  END
>  <MODEL>
1

>  <REMARK>
 VINA RESULT:      -6.0      0.000      0.000
  Name = 
  16 active torsions:
  status: ('A' for Active; 'I' for Inactive)
    1  A    between atoms: C_1  and  C_21
    2  A    between atoms: C_4  and  C_37
    3  A    between atoms: C_4  and  C_43
    4  A    between atoms: C_6  and  C_27
    5  A    between atoms: C_7  and  C_9
    6  A    between atoms: C_8  and  O_33
    7  A    between atoms: N_17  and  C_34
    8  A    between atoms: C_19  and  C_43
    9  A    between atoms: C_21  and  N_23
   10  A    between atoms: C_24  and  C_28
   11  A    between atoms: C_24  and  C_43
   12  A    between atoms: C_25  and  C_38
   13  A    between atoms: C_27  and  C_36
   14  A    between atoms: C_28  and  C_38
   15  A    between atoms: N_31  and  C_37
   16  A    between atoms: C_36  and  C_40
                            x       y       z     vdW  Elec       q    Type
                         _______ _______ _______ _____ _____    ______ ____

>  <TORSDO>
F 16

$$$$
=
 OpenBabel11052411113D

 44 48  0  0  1  0  0  0  0  0999 V2000
  160.4120  212.1900  150.2050 C   0  0  0  0  0  1  0  0  0  0  0  0
  161.7770  211.7880  149.6640 C   0  0  1  0  0  3  0  0  0  0  0  0
  162.1180  210.4100  150.1590 C   0  0  0  0  0  0  0  0  0  0  0  0
  162.6500  210.2550  151.2480 O   0  0  0  0  0  0  0  0  0  0  0  0
  161.8310  209.2200  149.3000 C   0  0  0  0  0  2  0  0  0  0  0  0
  161.2890  206.7380  149.5940 C   0  0  0  0  0  0  0  0  0  0  0  0
  161.3970  207.0860  152.3930 C   0  0  0  0  0  0  0  0  0  0  0  0
  161.1170  205.6500  150.4630 C   0  0  0  0  0  3  0  0  0  0  0  0
  161.5330  208.0210  150.1460 C   0  0  0  0  0  0  0  0  0  0  0  0
  161.5850  208.1800  151.5360 C   0  0  0  0  0  3  0  0  0  0  0  0
  161.1690  205.8220  151.8480 C   0  0  0  0  0  3  0  0  0  0  0  0
  160.4860  206.6140  154.6440 C   0  0  0  0  0  1  0  0  0  0  0  0
  161.4380  207.2270  153.7820 O   0  0  0  0  0  0  0  0  0  0  0  0
  161.2040  206.4860  148.1370 C   0  0  0  0  0  0  0  0  0  0  0  0
  160.1080  206.6810  147.5420 O   0  0  0  0  0  0  0  0  0  0  0  0
  162.5450  204.9930  146.7220 C   0  0  0  0  0  3  0  0  0  0  0  0
  162.3750  206.0930  147.3980 N   0  0  0  0  0  0  0  0  0  0  0  0
  161.5400  203.8900  146.6450 C   0  0  0  0  0  2  0  0  0  0  0  0
  161.5500  203.0950  147.9380 C   0  0  0  0  0  2  0  0  0  0  0  0
  160.8260  201.3310  146.5150 O   0  0  0  0  0  0  0  0  0  0  0  0
  160.8460  200.8490  148.7560 O   0  0  0  0  0  1  0  0  0  0  0  0
  161.0460  201.7190  147.6910 C   0  0  0  0  0  0  0  0  0  0  0  0
  161.8160  211.8700  148.1300 C   0  0  2  0  0  3  0  0  0  0  0  0
  164.0370  212.0240  146.9760 O   0  0  0  0  0  0  0  0  0  0  0  0
  163.0010  212.6540  147.6580 C   0  0  0  0  0  0  0  0  0  0  0  0
  163.0560  213.8930  147.8660 O   0  0  0  0  0  1  0  0  0  0  0  0
  160.5440  212.5090  147.5820 C   0  0  0  0  0  2  0  0  0  0  0  0
  160.6450  212.6820  146.0780 C   0  0  0  0  0  2  0  0  0  0  0  0
  159.3160  212.4650  143.9890 C   0  0  2  0  0  3  0  0  0  0  0  0
  158.6790  213.3190  144.9910 C   0  0  0  0  0  2  0  0  0  0  0  0
  159.4440  212.1460  145.4410 N   0  0  0  0  0  0  0  0  0  0  0  0
  160.5700  213.0280  141.8690 C   0  0  1  0  0  3  0  0  0  0  0  0
  160.5580  213.1050  143.3430 C   0  0  1  0  0  0  0  0  0  0  0  0
  162.8970  212.9800  142.7000 C   0  0  0  0  0  2  0  0  0  0  0  0
  160.3710  214.2530  142.5520 O   0  0  0  0  0  0  0  0  0  0  0  0
  161.9570  212.8810  143.8830 C   0  0  0  0  0  2  0  0  0  0  0  0
  162.0360  212.8620  141.4400 C   0  0  2  0  0  0  0  0  0  0  0  0
  162.3860  214.0090  140.4970 C   0  0  0  0  0  1  0  0  0  0  0  0
  160.9560  210.8630  140.4520 C   0  0  0  0  0  2  0  0  0  0  0  0
  161.2960  211.0680  138.0840 O   0  0  0  0  0  0  0  0  0  0  0  0
  160.3620  211.2880  139.1050 C   0  0  0  0  0  2  0  0  0  0  0  0
  162.2240  211.5650  140.7420 N   0  0  0  0  0  0  0  0  0  0  0  0
  162.3220  212.0020  138.2880 C   0  0  0  0  0  2  0  0  0  0  0  0
  163.1030  211.6430  139.5570 C   0  0  0  0  0  2  0  0  0  0  0  0
  2  3  1  0  0  0  0
  2  1  1  6  0  0  0
  3  4  2  0  0  0  0
  5  9  1  0  0  0  0
  5  3  1  0  0  0  0
  6  9  2  0  0  0  0
  6  8  1  0  0  0  0
  7 13  1  0  0  0  0
  8 11  2  0  0  0  0
  9 10  1  0  0  0  0
 10  7  2  0  0  0  0
 11  7  1  0  0  0  0
 13 12  1  0  0  0  0
 14  6  1  0  0  0  0
 15 14  2  0  0  0  0
 16 17  2  0  0  0  0
 17 14  1  0  0  0  0
 18 16  1  0  0  0  0
 18 19  1  0  0  0  0
 20 22  2  0  0  0  0
 22 19  1  0  0  0  0
 22 21  1  0  0  0  0
 23 27  1  1  0  0  0
 23  2  1  0  0  0  0
 24 25  2  0  0  0  0
 25 26  1  0  0  0  0
 25 23  1  0  0  0  0
 28 27  1  0  0  0  0
 29 30  1  1  0  0  0
 29 31  1  0  0  0  0
 30 31  1  0  0  0  0
 31 28  1  0  0  0  0
 32 35  1  6  0  0  0
 32 33  1  0  0  0  0
 33 36  1  1  0  0  0
 33 29  1  0  0  0  0
 34 36  1  0  0  0  0
 35 33  1  0  0  0  0
 37 38  1  6  0  0  0
 37 32  1  0  0  0  0
 37 34  1  0  0  0  0
 39 42  1  0  0  0  0
 40 43  1  0  0  0  0
 40 41  1  0  0  0  0
 41 39  1  0  0  0  0
 42 37  1  0  0  0  0
 43 44  1  0  0  0  0
 44 42  1  0  0  0  0
M  END
>  <MODEL>
2

>  <REMARK>
 VINA RESULT:      -5.9      5.225      9.794
  Name = 
  16 active torsions:
  status: ('A' for Active; 'I' for Inactive)
    1  A    between atoms: C_1  and  C_21
    2  A    between atoms: C_4  and  C_37
    3  A    between atoms: C_4  and  C_43
    4  A    between atoms: C_6  and  C_27
    5  A    between atoms: C_7  and  C_9
    6  A    between atoms: C_8  and  O_33
    7  A    between atoms: N_17  and  C_34
    8  A    between atoms: C_19  and  C_43
    9  A    between atoms: C_21  and  N_23
   10  A    between atoms: C_24  and  C_28
   11  A    between atoms: C_24  and  C_43
   12  A    between atoms: C_25  and  C_38
   13  A    between atoms: C_27  and  C_36
   14  A    between atoms: C_28  and  C_38
   15  A    between atoms: N_31  and  C_37
   16  A    between atoms: C_36  and  C_40
                            x       y       z     vdW  Elec       q    Type
                         _______ _______ _______ _____ _____    ______ ____

>  <TORSDO>
F 16

$$$$
=
 OpenBabel11052411113D

 44 48  0  0  1  0  0  0  0  0999 V2000
  162.2790  209.7720  148.0820 C   0  0  0  0  0  1  0  0  0  0  0  0
  161.6470  210.5580  149.2220 C   0  0  1  0  0  3  0  0  0  0  0  0
  161.9720  209.8840  150.5260 C   0  0  0  0  0  0  0  0  0  0  0  0
  162.7200  210.4180  151.3320 O   0  0  0  0  0  0  0  0  0  0  0  0
  161.3990  208.5360  150.8280 C   0  0  0  0  0  2  0  0  0  0  0  0
  161.3390  207.2510  153.0380 C   0  0  0  0  0  0  0  0  0  0  0  0
  160.2880  209.5470  154.3000 C   0  0  0  0  0  0  0  0  0  0  0  0
  161.0880  207.2650  154.4190 C   0  0  0  0  0  3  0  0  0  0  0  0
  161.0680  208.4200  152.2840 C   0  0  0  0  0  0  0  0  0  0  0  0
  160.5480  209.5530  152.9220 C   0  0  0  0  0  3  0  0  0  0  0  0
  160.5660  208.3990  155.0430 C   0  0  0  0  0  3  0  0  0  0  0  0
  159.1210  210.5830  156.2200 C   0  0  0  0  0  1  0  0  0  0  0  0
  159.7610  210.6640  154.9520 O   0  0  0  0  0  0  0  0  0  0  0  0
  161.8760  206.0070  152.4390 C   0  0  0  0  0  0  0  0  0  0  0  0
  163.1000  205.9480  152.1410 O   0  0  0  0  0  0  0  0  0  0  0  0
  160.5530  204.3930  151.1460 C   0  0  0  0  0  3  0  0  0  0  0  0
  161.0260  204.8590  152.2660 N   0  0  0  0  0  0  0  0  0  0  0  0
  160.7730  205.0290  149.8110 C   0  0  0  0  0  2  0  0  0  0  0  0
  161.2270  203.9820  148.8110 C   0  0  0  0  0  2  0  0  0  0  0  0
  162.0800  203.9830  146.5900 O   0  0  0  0  0  0  0  0  0  0  0  0
  160.9650  205.8840  147.2230 O   0  0  0  0  0  1  0  0  0  0  0  0
  161.4590  204.6130  147.4850 C   0  0  0  0  0  0  0  0  0  0  0  0
  162.1030  212.0250  149.2080 C   0  0  2  0  0  3  0  0  0  0  0  0
  161.2340  214.2990  149.8100 O   0  0  0  0  0  1  0  0  0  0  0  0
  160.9930  212.9430  149.6170 C   0  0  0  0  0  0  0  0  0  0  0  0
  159.8300  212.4890  149.7740 O   0  0  0  0  0  0  0  0  0  0  0  0
  162.6040  212.4320  147.8260 C   0  0  0  0  0  2  0  0  0  0  0  0
  161.4390  212.6070  146.8710 C   0  0  0  0  0  2  0  0  0  0  0  0
  161.3670  214.3520  145.1030 C   0  0  2  0  0  3  0  0  0  0  0  0
  162.5480  214.4490  145.9600 C   0  0  0  0  0  2  0  0  0  0  0  0
  161.2710  214.0240  146.5550 N   0  0  0  0  0  0  0  0  0  0  0  0
  161.9390  213.4460  142.8150 C   0  0  1  0  0  3  0  0  0  0  0  0
  161.4000  213.1400  144.1540 C   0  0  1  0  0  0  0  0  0  0  0  0
  160.2680  211.6370  142.6200 C   0  0  0  0  0  2  0  0  0  0  0  0
  162.6570  212.6580  143.7470 O   0  0  0  0  0  0  0  0  0  0  0  0
  160.2380  212.1750  144.0350 C   0  0  0  0  0  2  0  0  0  0  0  0
  161.1760  212.5660  141.8130 C   0  0  2  0  0  0  0  0  0  0  0  0
  162.1940  211.7210  141.0540 C   0  0  0  0  0  1  0  0  0  0  0  0
  161.0760  213.5490  139.5410 C   0  0  0  0  0  2  0  0  0  0  0  0
  159.2750  212.4080  138.4380 O   0  0  0  0  0  0  0  0  0  0  0  0
  160.6690  212.4280  138.5790 C   0  0  0  0  0  2  0  0  0  0  0  0
  160.4190  213.4140  140.8570 N   0  0  0  0  0  0  0  0  0  0  0  0
  158.7660  211.9720  139.6690 C   0  0  0  0  0  2  0  0  0  0  0  0
  158.9910  213.0500  140.7340 C   0  0  0  0  0  2  0  0  0  0  0  0
  2  1  1  6  0  0  0
  2  3  1  0  0  0  0
  3  5  1  0  0  0  0
  3  4  2  0  0  0  0
  5  9  1  0  0  0  0
  6  8  1  0  0  0  0
  7 13  1  0  0  0  0
  7 11  1  0  0  0  0
  8 11  2  0  0  0  0
  9 10  1  0  0  0  0
  9  6  2  0  0  0  0
 10  7  2  0  0  0  0
 13 12  1  0  0  0  0
 14  6  1  0  0  0  0
 15 14  2  0  0  0  0
 16 17  2  0  0  0  0
 17 14  1  0  0  0  0
 18 16  1  0  0  0  0
 19 18  1  0  0  0  0
 20 22  2  0  0  0  0
 21 22  1  0  0  0  0
 22 19  1  0  0  0  0
 23 27  1  6  0  0  0
 23  2  1  0  0  0  0
 23 25  1  0  0  0  0
 25 26  2  0  0  0  0
 25 24  1  0  0  0  0
 28 27  1  0  0  0  0
 29 30  1  1  0  0  0
 29 31  1  0  0  0  0
 30 31  1  0  0  0  0
 31 28  1  0  0  0  0
 32 35  1  1  0  0  0
 32 33  1  0  0  0  0
 33 36  1  1  0  0  0
 33 29  1  0  0  0  0
 34 36  1  0  0  0  0
 35 33  1  0  0  0  0
 37 38  1  6  0  0  0
 37 34  1  0  0  0  0
 37 32  1  0  0  0  0
 39 42  1  0  0  0  0
 40 41  1  0  0  0  0
 40 43  1  0  0  0  0
 41 39  1  0  0  0  0
 42 37  1  0  0  0  0
 43 44  1  0  0  0  0
 44 42  1  0  0  0  0
M  END
>  <MODEL>
3

>  <REMARK>
 VINA RESULT:      -5.7      5.150      8.982
  Name = 
  16 active torsions:
  status: ('A' for Active; 'I' for Inactive)
    1  A    between atoms: C_1  and  C_21
    2  A    between atoms: C_4  and  C_37
    3  A    between atoms: C_4  and  C_43
    4  A    between atoms: C_6  and  C_27
    5  A    between atoms: C_7  and  C_9
    6  A    between atoms: C_8  and  O_33
    7  A    between atoms: N_17  and  C_34
    8  A    between atoms: C_19  and  C_43
    9  A    between atoms: C_21  and  N_23
   10  A    between atoms: C_24  and  C_28
   11  A    between atoms: C_24  and  C_43
   12  A    between atoms: C_25  and  C_38
   13  A    between atoms: C_27  and  C_36
   14  A    between atoms: C_28  and  C_38
   15  A    between atoms: N_31  and  C_37
   16  A    between atoms: C_36  and  C_40
                            x       y       z     vdW  Elec       q    Type
                         _______ _______ _______ _____ _____    ______ ____

>  <TORSDO>
F 16

$$$$
=
 OpenBabel11052411113D

 44 48  0  0  1  0  0  0  0  0999 V2000
  161.1520  206.5960  153.6930 C   0  0  0  0  0  1  0  0  0  0  0  0
  161.8820  207.6050  152.8170 C   0  0  1  0  0  3  0  0  0  0  0  0
  161.9910  207.0590  151.4200 C   0  0  0  0  0  0  0  0  0  0  0  0
  163.0850  206.9080  150.8960 O   0  0  0  0  0  0  0  0  0  0  0  0
  160.7510  206.7240  150.6550 C   0  0  0  0  0  2  0  0  0  0  0  0
  161.1780  205.2470  148.6120 C   0  0  0  0  0  0  0  0  0  0  0  0
  160.9960  202.9700  150.2690 C   0  0  0  0  0  0  0  0  0  0  0  0
  161.3860  203.9590  148.0950 C   0  0  0  0  0  3  0  0  0  0  0  0
  160.8860  205.3890  149.9920 C   0  0  0  0  0  0  0  0  0  0  0  0
  160.8010  204.2510  150.8040 C   0  0  0  0  0  3  0  0  0  0  0  0
  161.2940  202.8330  148.9140 C   0  0  0  0  0  3  0  0  0  0  0  0
  160.2640  200.6330  150.6210 C   0  0  0  0  0  1  0  0  0  0  0  0
  160.9060  201.8230  151.0620 O   0  0  0  0  0  0  0  0  0  0  0  0
  161.2730  206.3960  147.6820 C   0  0  0  0  0  0  0  0  0  0  0  0
  162.1560  207.2750  147.8800 O   0  0  0  0  0  0  0  0  0  0  0  0
  160.6890  206.0760  145.3190 C   0  0  0  0  0  3  0  0  0  0  0  0
  160.4150  206.4700  146.5290 N   0  0  0  0  0  0  0  0  0  0  0  0
  162.0080  205.5130  144.8970 C   0  0  0  0  0  2  0  0  0  0  0  0
  162.0590  204.0300  145.2130 C   0  0  0  0  0  2  0  0  0  0  0  0
  160.4780  202.2540  145.3150 O   0  0  0  0  0  1  0  0  0  0  0  0
  159.8570  204.0600  144.0460 O   0  0  0  0  0  0  0  0  0  0  0  0
  160.7640  203.3910  144.8580 C   0  0  0  0  0  0  0  0  0  0  0  0
  161.1850  208.9730  152.8430 C   0  0  2  0  0  3  0  0  0  0  0  0
  161.2210  210.5520  150.8940 O   0  0  0  0  0  0  0  0  0  0  0  0
  161.8880  209.9580  151.9600 C   0  0  0  0  0  0  0  0  0  0  0  0
  163.0870  210.2620  152.1910 O   0  0  0  0  0  1  0  0  0  0  0  0
  161.1220  209.5320  154.2610 C   0  0  0  0  0  2  0  0  0  0  0  0
  159.8630  210.3570  154.4500 C   0  0  0  0  0  2  0  0  0  0  0  0
  158.2240  210.7580  156.2740 C   0  0  2  0  0  3  0  0  0  0  0  0
  159.5470  210.3730  156.7630 C   0  0  0  0  0  2  0  0  0  0  0  0
  159.0490  209.7750  155.5150 N   0  0  0  0  0  0  0  0  0  0  0  0
  157.3390  212.2990  154.4780 C   0  0  1  0  0  3  0  0  0  0  0  0
  158.1830  212.1790  155.6830 C   0  0  1  0  0  0  0  0  0  0  0  0
  159.1920  213.9270  154.3330 C   0  0  0  0  0  2  0  0  0  0  0  0
  156.9580  212.8710  155.7160 O   0  0  0  0  0  0  0  0  0  0  0  0
  159.4300  213.0260  155.5260 C   0  0  0  0  0  2  0  0  0  0  0  0
  158.0050  213.3410  153.5660 C   0  0  2  0  0  0  0  0  0  0  0  0
  156.9950  214.4530  153.3000 C   0  0  0  0  0  1  0  0  0  0  0  0
  157.4120  212.8810  151.2050 C   0  0  0  0  0  2  0  0  0  0  0  0
  158.9260  214.2160  149.9020 O   0  0  0  0  0  0  0  0  0  0  0  0
  157.6250  214.1820  150.4230 C   0  0  0  0  0  2  0  0  0  0  0  0
  158.4110  212.7150  152.2810 N   0  0  0  0  0  0  0  0  0  0  0  0
  159.7800  214.3640  151.0040 C   0  0  0  0  0  2  0  0  0  0  0  0
  159.7740  213.0800  151.8400 C   0  0  0  0  0  2  0  0  0  0  0  0
  2 23  1  0  0  0  0
  2  1  1  1  0  0  0
  3  2  1  0  0  0  0
  4  3  2  0  0  0  0
  5  3  1  0  0  0  0
  6  9  1  0  0  0  0
  7 10  1  0  0  0  0
  7 13  1  0  0  0  0
  8  6  2  0  0  0  0
  8 11  1  0  0  0  0
  9  5  1  0  0  0  0
  9 10  2  0  0  0  0
 11  7  2  0  0  0  0
 12 13  1  0  0  0  0
 14 15  2  0  0  0  0
 14  6  1  0  0  0  0
 16 17  2  0  0  0  0
 17 14  1  0  0  0  0
 18 19  1  0  0  0  0
 18 16  1  0  0  0  0
 21 22  2  0  0  0  0
 22 19  1  0  0  0  0
 22 20  1  0  0  0  0
 23 27  1  1  0  0  0
 24 25  2  0  0  0  0
 25 26  1  0  0  0  0
 25 23  1  0  0  0  0
 27 28  1  0  0  0  0
 28 31  1  0  0  0  0
 29 30  1  1  0  0  0
 31 29  1  0  0  0  0
 31 30  1  0  0  0  0
 32 33  1  0  0  0  0
 32 35  1  1  0  0  0
 33 36  1  1  0  0  0
 33 35  1  0  0  0  0
 33 29  1  0  0  0  0
 34 36  1  0  0  0  0
 37 38  1  6  0  0  0
 37 34  1  0  0  0  0
 37 32  1  0  0  0  0
 39 42  1  0  0  0  0
 40 41  1  0  0  0  0
 40 43  1  0  0  0  0
 41 39  1  0  0  0  0
 42 37  1  0  0  0  0
 43 44  1  0  0  0  0
 44 42  1  0  0  0  0
M  END
>  <MODEL>
4

>  <REMARK>
 VINA RESULT:      -5.5      2.286      9.937
  Name = 
  16 active torsions:
  status: ('A' for Active; 'I' for Inactive)
    1  A    between atoms: C_1  and  C_21
    2  A    between atoms: C_4  and  C_37
    3  A    between atoms: C_4  and  C_43
    4  A    between atoms: C_6  and  C_27
    5  A    between atoms: C_7  and  C_9
    6  A    between atoms: C_8  and  O_33
    7  A    between atoms: N_17  and  C_34
    8  A    between atoms: C_19  and  C_43
    9  A    between atoms: C_21  and  N_23
   10  A    between atoms: C_24  and  C_28
   11  A    between atoms: C_24  and  C_43
   12  A    between atoms: C_25  and  C_38
   13  A    between atoms: C_27  and  C_36
   14  A    between atoms: C_28  and  C_38
   15  A    between atoms: N_31  and  C_37
   16  A    between atoms: C_36  and  C_40
                            x       y       z     vdW  Elec       q    Type
                         _______ _______ _______ _____ _____    ______ ____

>  <TORSDO>
F 16

$$$$
=
 OpenBabel11052411113D

 44 48  0  0  1  0  0  0  0  0999 V2000
  163.3110  208.9620  148.0590 C   0  0  0  0  0  1  0  0  0  0  0  0
  161.9340  208.9330  148.7080 C   0  0  1  0  0  3  0  0  0  0  0  0
  161.9040  207.8550  149.7550 C   0  0  0  0  0  0  0  0  0  0  0  0
  162.8560  207.6890  150.5030 O   0  0  0  0  0  0  0  0  0  0  0  0
  160.7120  206.9590  149.8640 C   0  0  0  0  0  2  0  0  0  0  0  0
  161.1110  204.4340  149.9550 C   0  0  0  0  0  0  0  0  0  0  0  0
  161.2070  204.3880  147.1350 C   0  0  0  0  0  0  0  0  0  0  0  0
  161.2690  203.2270  149.2580 C   0  0  0  0  0  3  0  0  0  0  0  0
  160.9860  205.6380  149.2160 C   0  0  0  0  0  0  0  0  0  0  0  0
  161.0340  205.6000  147.8170 C   0  0  0  0  0  3  0  0  0  0  0  0
  161.3190  203.2040  147.8630 C   0  0  0  0  0  3  0  0  0  0  0  0
  161.1020  205.4830  144.9180 C   0  0  0  0  0  1  0  0  0  0  0  0
  161.2660  204.3330  145.7400 O   0  0  0  0  0  0  0  0  0  0  0  0
  161.0850  204.3870  151.4350 C   0  0  0  0  0  0  0  0  0  0  0  0
  160.1320  203.7990  152.0140 O   0  0  0  0  0  0  0  0  0  0  0  0
  162.0940  205.8660  153.1160 C   0  0  0  0  0  3  0  0  0  0  0  0
  162.1710  204.9450  152.1990 N   0  0  0  0  0  0  0  0  0  0  0  0
  160.8310  206.5650  153.5020 C   0  0  0  0  0  2  0  0  0  0  0  0
  160.4520  206.1950  154.9230 C   0  0  0  0  0  2  0  0  0  0  0  0
  159.4270  208.0120  156.0670 O   0  0  0  0  0  0  0  0  0  0  0  0
  161.6990  207.8380  156.3200 O   0  0  0  0  0  1  0  0  0  0  0  0
  160.4920  207.4010  155.7900 C   0  0  0  0  0  0  0  0  0  0  0  0
  161.5630  210.3050  149.2910 C   0  0  2  0  0  3  0  0  0  0  0  0
  161.0520  211.6590  147.2420 O   0  0  0  0  0  0  0  0  0  0  0  0
  161.8810  211.4090  148.3300 C   0  0  0  0  0  0  0  0  0  0  0  0
  162.9000  212.1250  148.5140 O   0  0  0  0  0  1  0  0  0  0  0  0
  162.2950  210.5610  150.6050 C   0  0  0  0  0  2  0  0  0  0  0  0
  161.3330  211.0870  151.6540 C   0  0  0  0  0  2  0  0  0  0  0  0
  159.6750  210.3100  153.3340 C   0  0  2  0  0  3  0  0  0  0  0  0
  160.9560  209.6090  153.4210 C   0  0  0  0  0  2  0  0  0  0  0  0
  160.4530  210.0080  152.0970 N   0  0  0  0  0  0  0  0  0  0  0  0
  159.5500  211.9270  155.2710 C   0  0  1  0  0  3  0  0  0  0  0  0
  159.7460  211.7700  153.8170 C   0  0  1  0  0  0  0  0  0  0  0  0
  158.6990  213.9400  154.1190 C   0  0  0  0  0  2  0  0  0  0  0  0
  160.8120  212.1330  154.6600 O   0  0  0  0  0  0  0  0  0  0  0  0
  159.0570  212.9000  153.0780 C   0  0  0  0  0  2  0  0  0  0  0  0
  158.8110  213.2570  155.4830 C   0  0  2  0  0  0  0  0  0  0  0  0
  159.6610  214.1300  156.4010 C   0  0  0  0  0  1  0  0  0  0  0  0
  156.4010  213.8290  155.5240 C   0  0  0  0  0  2  0  0  0  0  0  0
  155.2740  211.8760  154.7000 O   0  0  0  0  0  0  0  0  0  0  0  0
  155.7500  213.1380  154.3210 C   0  0  0  0  0  2  0  0  0  0  0  0
  157.4860  213.0140  156.1090 N   0  0  0  0  0  0  0  0  0  0  0  0
  156.4100  211.0900  154.9430 C   0  0  0  0  0  2  0  0  0  0  0  0
  157.1220  211.5850  156.2060 C   0  0  0  0  0  2  0  0  0  0  0  0
  2  1  1  1  0  0  0
  2 23  1  0  0  0  0
  2  3  1  0  0  0  0
  3  5  1  0  0  0  0
  3  4  2  0  0  0  0
  6 14  1  0  0  0  0
  7 10  2  0  0  0  0
  7 11  1  0  0  0  0
  8  6  1  0  0  0  0
  9  5  1  0  0  0  0
  9  6  2  0  0  0  0
 10  9  1  0  0  0  0
 11  8  2  0  0  0  0
 12 13  1  0  0  0  0
 13  7  1  0  0  0  0
 14 15  2  0  0  0  0
 14 17  1  0  0  0  0
 16 18  1  0  0  0  0
 17 16  2  0  0  0  0
 18 19  1  0  0  0  0
 19 22  1  0  0  0  0
 22 20  2  0  0  0  0
 22 21  1  0  0  0  0
 23 27  1  1  0  0  0
 24 25  2  0  0  0  0
 25 26  1  0  0  0  0
 25 23  1  0  0  0  0
 27 28  1  0  0  0  0
 28 31  1  0  0  0  0
 29 30  1  1  0  0  0
 29 33  1  0  0  0  0
 31 29  1  0  0  0  0
 31 30  1  0  0  0  0
 32 35  1  1  0  0  0
 32 37  1  0  0  0  0
 33 36  1  6  0  0  0
 33 35  1  0  0  0  0
 33 32  1  0  0  0  0
 34 37  1  0  0  0  0
 36 34  1  0  0  0  0
 37 42  1  0  0  0  0
 37 38  1  1  0  0  0
 39 42  1  0  0  0  0
 40 43  1  0  0  0  0
 41 40  1  0  0  0  0
 41 39  1  0  0  0  0
 42 44  1  0  0  0  0
 43 44  1  0  0  0  0
M  END
>  <MODEL>
5

>  <REMARK>
 VINA RESULT:      -5.4      2.144      9.339
  Name = 
  16 active torsions:
  status: ('A' for Active; 'I' for Inactive)
    1  A    between atoms: C_1  and  C_21
    2  A    between atoms: C_4  and  C_37
    3  A    between atoms: C_4  and  C_43
    4  A    between atoms: C_6  and  C_27
    5  A    between atoms: C_7  and  C_9
    6  A    between atoms: C_8  and  O_33
    7  A    between atoms: N_17  and  C_34
    8  A    between atoms: C_19  and  C_43
    9  A    between atoms: C_21  and  N_23
   10  A    between atoms: C_24  and  C_28
   11  A    between atoms: C_24  and  C_43
   12  A    between atoms: C_25  and  C_38
   13  A    between atoms: C_27  and  C_36
   14  A    between atoms: C_28  and  C_38
   15  A    between atoms: N_31  and  C_37
   16  A    between atoms: C_36  and  C_40
                            x       y       z     vdW  Elec       q    Type
                         _______ _______ _______ _____ _____    ______ ____

>  <TORSDO>
F 16

$$$$
=
 OpenBabel11052411113D

 44 48  0  0  1  0  0  0  0  0999 V2000
  160.7800  206.9320  153.1980 C   0  0  0  0  0  1  0  0  0  0  0  0
  161.8070  207.8730  152.5830 C   0  0  1  0  0  3  0  0  0  0  0  0
  161.8610  207.6440  151.0980 C   0  0  0  0  0  0  0  0  0  0  0  0
  162.8740  207.9080  150.4660 O   0  0  0  0  0  0  0  0  0  0  0  0
  160.6590  207.1160  150.3840 C   0  0  0  0  0  2  0  0  0  0  0  0
  161.4130  205.4900  148.5590 C   0  0  0  0  0  0  0  0  0  0  0  0
  161.0410  203.3530  150.3650 C   0  0  0  0  0  0  0  0  0  0  0  0
  161.7230  204.1720  148.1910 C   0  0  0  0  0  3  0  0  0  0  0  0
  160.9200  205.7360  149.8660 C   0  0  0  0  0  0  0  0  0  0  0  0
  160.7410  204.6670  150.7520 C   0  0  0  0  0  3  0  0  0  0  0  0
  161.5370  203.1150  149.0830 C   0  0  0  0  0  3  0  0  0  0  0  0
  160.2820  201.0430  150.8180 C   0  0  0  0  0  1  0  0  0  0  0  0
  160.8620  202.2740  151.2330 O   0  0  0  0  0  0  0  0  0  0  0  0
  161.6170  206.5610  147.5560 C   0  0  0  0  0  0  0  0  0  0  0  0
  162.7280  207.1570  147.5110 O   0  0  0  0  0  0  0  0  0  0  0  0
  160.3010  206.2130  145.5130 C   0  0  0  0  0  3  0  0  0  0  0  0
  160.5850  206.8680  146.6010 N   0  0  0  0  0  0  0  0  0  0  0  0
  161.0640  205.0230  145.0250 C   0  0  0  0  0  2  0  0  0  0  0  0
  160.0990  203.9650  144.5230 C   0  0  0  0  0  2  0  0  0  0  0  0
  161.5020  202.5170  145.7860 O   0  0  0  0  0  1  0  0  0  0  0  0
  159.6600  201.5330  144.8410 O   0  0  0  0  0  0  0  0  0  0  0  0
  160.4690  202.6360  145.0780 C   0  0  0  0  0  0  0  0  0  0  0  0
  161.4950  209.3380  152.9240 C   0  0  2  0  0  3  0  0  0  0  0  0
  160.7810  208.8010  155.2670 O   0  0  0  0  0  1  0  0  0  0  0  0
  161.5450  209.5760  154.4010 C   0  0  0  0  0  0  0  0  0  0  0  0
  162.2940  210.4740  154.8660 O   0  0  0  0  0  0  0  0  0  0  0  0
  160.1200  209.7440  152.4000 C   0  0  0  0  0  2  0  0  0  0  0  0
  159.6090  210.9640  153.1430 C   0  0  0  0  0  2  0  0  0  0  0  0
  159.2590  213.3260  152.4550 C   0  0  2  0  0  3  0  0  0  0  0  0
  159.4490  212.4190  151.3240 C   0  0  0  0  0  2  0  0  0  0  0  0
  160.1960  212.1710  152.5660 N   0  0  0  0  0  0  0  0  0  0  0  0
  157.6320  214.1540  154.2020 C   0  0  1  0  0  3  0  0  0  0  0  0
  157.9020  213.1440  153.1600 C   0  0  1  0  0  0  0  0  0  0  0  0
  156.5300  212.0330  154.8270 C   0  0  0  0  0  2  0  0  0  0  0  0
  156.9250  214.1380  152.9750 O   0  0  0  0  0  0  0  0  0  0  0  0
  157.4040  211.7870  153.6150 C   0  0  0  0  0  2  0  0  0  0  0  0
  156.8350  213.4510  155.3120 C   0  0  2  0  0  0  0  0  0  0  0  0
  155.5200  214.2010  155.4970 C   0  0  0  0  0  1  0  0  0  0  0  0
  157.6750  212.1440  157.2420 C   0  0  0  0  0  2  0  0  0  0  0  0
  160.0560  212.0420  156.9480 O   0  0  0  0  0  0  0  0  0  0  0  0
  158.8700  211.3220  156.7470 C   0  0  0  0  0  2  0  0  0  0  0  0
  157.6030  213.4650  156.5830 N   0  0  0  0  0  0  0  0  0  0  0  0
  160.0140  213.1160  156.0470 C   0  0  0  0  0  2  0  0  0  0  0  0
  158.9290  214.1090  156.4770 C   0  0  0  0  0  2  0  0  0  0  0  0
  2 23  1  0  0  0  0
  2  1  1  6  0  0  0
  3  2  1  0  0  0  0
  4  3  2  0  0  0  0
  5  3  1  0  0  0  0
  6  9  1  0  0  0  0
  7 10  1  0  0  0  0
  7 13  1  0  0  0  0
  8  6  2  0  0  0  0
  8 11  1  0  0  0  0
  9  5  1  0  0  0  0
  9 10  2  0  0  0  0
 11  7  2  0  0  0  0
 12 13  1  0  0  0  0
 14  6  1  0  0  0  0
 15 14  2  0  0  0  0
 16 17  2  0  0  0  0
 17 14  1  0  0  0  0
 18 16  1  0  0  0  0
 19 18  1  0  0  0  0
 19 22  1  0  0  0  0
 21 22  2  0  0  0  0
 22 20  1  0  0  0  0
 23 27  1  1  0  0  0
 23 25  1  0  0  0  0
 25 26  2  0  0  0  0
 25 24  1  0  0  0  0
 27 28  1  0  0  0  0
 29 30  1  6  0  0  0
 29 31  1  0  0  0  0
 29 33  1  0  0  0  0
 30 31  1  0  0  0  0
 31 28  1  0  0  0  0
 32 35  1  6  0  0  0
 32 37  1  0  0  0  0
 33 36  1  1  0  0  0
 33 32  1  0  0  0  0
 34 37  1  0  0  0  0
 35 33  1  0  0  0  0
 36 34  1  0  0  0  0
 37 38  1  1  0  0  0
 37 42  1  0  0  0  0
 41 40  1  0  0  0  0
 41 39  1  0  0  0  0
 42 39  1  0  0  0  0
 43 44  1  0  0  0  0
 43 40  1  0  0  0  0
 44 42  1  0  0  0  0
M  END
>  <MODEL>
6

>  <REMARK>
 VINA RESULT:      -5.4      2.151     10.398
  Name = 
  16 active torsions:
  status: ('A' for Active; 'I' for Inactive)
    1  A    between atoms: C_1  and  C_21
    2  A    between atoms: C_4  and  C_37
    3  A    between atoms: C_4  and  C_43
    4  A    between atoms: C_6  and  C_27
    5  A    between atoms: C_7  and  C_9
    6  A    between atoms: C_8  and  O_33
    7  A    between atoms: N_17  and  C_34
    8  A    between atoms: C_19  and  C_43
    9  A    between atoms: C_21  and  N_23
   10  A    between atoms: C_24  and  C_28
   11  A    between atoms: C_24  and  C_43
   12  A    between atoms: C_25  and  C_38
   13  A    between atoms: C_27  and  C_36
   14  A    between atoms: C_28  and  C_38
   15  A    between atoms: N_31  and  C_37
   16  A    between atoms: C_36  and  C_40
                            x       y       z     vdW  Elec       q    Type
                         _______ _______ _______ _____ _____    ______ ____

>  <TORSDO>
F 16

$$$$
=
 OpenBabel11052411113D

 44 48  0  0  1  0  0  0  0  0999 V2000
  163.2740  207.3720  148.7220 C   0  0  0  0  0  1  0  0  0  0  0  0
  161.8200  207.7560  148.4860 C   0  0  1  0  0  3  0  0  0  0  0  0
  160.9600  206.5280  148.6000 C   0  0  0  0  0  0  0  0  0  0  0  0
  159.7410  206.6200  148.5850 O   0  0  0  0  0  0  0  0  0  0  0  0
  161.5990  205.1860  148.7600 C   0  0  0  0  0  2  0  0  0  0  0  0
  160.8040  203.2700  150.2560 C   0  0  0  0  0  0  0  0  0  0  0  0
  161.2940  204.8860  152.5180 C   0  0  0  0  0  0  0  0  0  0  0  0
  160.6110  202.7730  151.5540 C   0  0  0  0  0  3  0  0  0  0  0  0
  161.2650  204.6020  150.0970 C   0  0  0  0  0  0  0  0  0  0  0  0
  161.5050  205.3920  151.2280 C   0  0  0  0  0  3  0  0  0  0  0  0
  160.8510  203.5730  152.6730 C   0  0  0  0  0  3  0  0  0  0  0  0
  160.4620  206.2060  154.4390 C   0  0  0  0  0  1  0  0  0  0  0  0
  161.5200  205.6630  153.6570 O   0  0  0  0  0  0  0  0  0  0  0  0
  160.5130  202.3730  149.1150 C   0  0  0  0  0  0  0  0  0  0  0  0
  159.3140  202.0800  148.8540 O   0  0  0  0  0  0  0  0  0  0  0  0
  161.8400  202.2670  147.0520 C   0  0  0  0  0  3  0  0  0  0  0  0
  161.5800  201.8980  148.2730 N   0  0  0  0  0  0  0  0  0  0  0  0
  161.0120  203.2360  146.2710 C   0  0  0  0  0  2  0  0  0  0  0  0
  161.9090  204.2810  145.6340 C   0  0  0  0  0  2  0  0  0  0  0  0
  160.1000  205.7850  145.2750 O   0  0  0  0  0  1  0  0  0  0  0  0
  161.4610  205.4250  143.4660 O   0  0  0  0  0  0  0  0  0  0  0  0
  161.0990  205.1960  144.7870 C   0  0  0  0  0  0  0  0  0  0  0  0
  161.3700  208.8600  149.4550 C   0  0  2  0  0  3  0  0  0  0  0  0
  162.6940  210.9500  149.8700 O   0  0  0  0  0  1  0  0  0  0  0  0
  161.8810  210.2010  149.0260 C   0  0  0  0  0  0  0  0  0  0  0  0
  161.5840  210.6490  147.8880 O   0  0  0  0  0  0  0  0  0  0  0  0
  161.8500  208.5740  150.8750 C   0  0  0  0  0  2  0  0  0  0  0  0
  160.8350  209.0710  151.8860 C   0  0  0  0  0  2  0  0  0  0  0  0
  161.0670  210.2980  154.0350 C   0  0  2  0  0  3  0  0  0  0  0  0
  162.2850  210.3170  153.2260 C   0  0  0  0  0  2  0  0  0  0  0  0
  161.4440  209.1110  153.2140 N   0  0  0  0  0  0  0  0  0  0  0  0
  159.9870  212.5770  153.8910 C   0  0  1  0  0  3  0  0  0  0  0  0
  159.9370  211.1680  153.4560 C   0  0  1  0  0  0  0  0  0  0  0  0
  157.6330  211.9340  153.5070 C   0  0  0  0  0  2  0  0  0  0  0  0
  160.2900  212.1940  152.5610 O   0  0  0  0  0  0  0  0  0  0  0  0
  158.4980  210.6950  153.4040 C   0  0  0  0  0  2  0  0  0  0  0  0
  158.5340  213.0610  154.0140 C   0  0  2  0  0  0  0  0  0  0  0  0
  158.3610  214.2740  153.1050 C   0  0  0  0  0  1  0  0  0  0  0  0
  157.1670  214.4530  155.5390 C   0  0  0  0  0  2  0  0  0  0  0  0
  155.7290  212.9090  156.6850 O   0  0  0  0  0  0  0  0  0  0  0  0
  155.7770  213.8120  155.6150 C   0  0  0  0  0  2  0  0  0  0  0  0
  158.2360  213.4410  155.4180 N   0  0  0  0  0  0  0  0  0  0  0  0
  156.5560  211.8350  156.3240 C   0  0  0  0  0  2  0  0  0  0  0  0
  158.0190  212.2880  156.3180 C   0  0  0  0  0  2  0  0  0  0  0  0
  2  3  1  0  0  0  0
  2  1  1  1  0  0  0
  2 23  1  0  0  0  0
  3  5  1  0  0  0  0
  4  3  2  0  0  0  0
  5  9  1  0  0  0  0
  6  8  1  0  0  0  0
  7 11  1  0  0  0  0
  7 13  1  0  0  0  0
  8 11  2  0  0  0  0
  9  6  2  0  0  0  0
  9 10  1  0  0  0  0
 10  7  2  0  0  0  0
 13 12  1  0  0  0  0
 14  6  1  0  0  0  0
 15 14  2  0  0  0  0
 16 17  2  0  0  0  0
 17 14  1  0  0  0  0
 18 16  1  0  0  0  0
 19 18  1  0  0  0  0
 21 22  2  0  0  0  0
 22 20  1  0  0  0  0
 22 19  1  0  0  0  0
 23 27  1  1  0  0  0
 25 23  1  0  0  0  0
 25 24  1  0  0  0  0
 26 25  2  0  0  0  0
 27 28  1  0  0  0  0
 28 31  1  0  0  0  0
 29 30  1  6  0  0  0
 31 30  1  0  0  0  0
 31 29  1  0  0  0  0
 32 35  1  6  0  0  0
 32 37  1  0  0  0  0
 33 36  1  6  0  0  0
 33 32  1  0  0  0  0
 33 29  1  0  0  0  0
 34 37  1  0  0  0  0
 35 33  1  0  0  0  0
 36 34  1  0  0  0  0
 37 38  1  6  0  0  0
 37 42  1  0  0  0  0
 39 41  1  0  0  0  0
 41 40  1  0  0  0  0
 42 39  1  0  0  0  0
 42 44  1  0  0  0  0
 43 40  1  0  0  0  0
 44 43  1  0  0  0  0
M  END
>  <MODEL>
7

>  <REMARK>
 VINA RESULT:      -5.2      2.192     10.468
  Name = 
  16 active torsions:
  status: ('A' for Active; 'I' for Inactive)
    1  A    between atoms: C_1  and  C_21
    2  A    between atoms: C_4  and  C_37
    3  A    between atoms: C_4  and  C_43
    4  A    between atoms: C_6  and  C_27
    5  A    between atoms: C_7  and  C_9
    6  A    between atoms: C_8  and  O_33
    7  A    between atoms: N_17  and  C_34
    8  A    between atoms: C_19  and  C_43
    9  A    between atoms: C_21  and  N_23
   10  A    between atoms: C_24  and  C_28
   11  A    between atoms: C_24  and  C_43
   12  A    between atoms: C_25  and  C_38
   13  A    between atoms: C_27  and  C_36
   14  A    between atoms: C_28  and  C_38
   15  A    between atoms: N_31  and  C_37
   16  A    between atoms: C_36  and  C_40
                            x       y       z     vdW  Elec       q    Type
                         _______ _______ _______ _____ _____    ______ ____

>  <TORSDO>
F 16

$$$$
=
 OpenBabel11052411113D

 44 48  0  0  1  0  0  0  0  0999 V2000
  163.3080  206.8200  149.4380 C   0  0  0  0  0  1  0  0  0  0  0  0
  161.9140  207.3570  149.1410 C   0  0  1  0  0  3  0  0  0  0  0  0
  160.9970  206.2060  148.8310 C   0  0  0  0  0  0  0  0  0  0  0  0
  159.8620  206.1780  149.2810 O   0  0  0  0  0  0  0  0  0  0  0  0
  161.4880  205.0720  147.9890 C   0  0  0  0  0  2  0  0  0  0  0  0
  161.2090  202.5300  147.9590 C   0  0  0  0  0  0  0  0  0  0  0  0
  160.8660  202.5740  150.7600 C   0  0  0  0  0  0  0  0  0  0  0  0
  161.0440  201.3410  148.6850 C   0  0  0  0  0  3  0  0  0  0  0  0
  161.2150  203.7620  148.6600 C   0  0  0  0  0  0  0  0  0  0  0  0
  161.0450  203.7700  150.0500 C   0  0  0  0  0  3  0  0  0  0  0  0
  160.8720  201.3620  150.0700 C   0  0  0  0  0  3  0  0  0  0  0  0
  160.5070  203.7530  152.9060 C   0  0  0  0  0  1  0  0  0  0  0  0
  160.6870  202.5640  152.1450 O   0  0  0  0  0  0  0  0  0  0  0  0
  161.3680  202.4340  146.4890 C   0  0  0  0  0  0  0  0  0  0  0  0
  162.3810  202.9550  145.9460 O   0  0  0  0  0  0  0  0  0  0  0  0
  159.5320  202.1830  144.8780 C   0  0  0  0  0  3  0  0  0  0  0  0
  160.4160  201.6970  145.7020 N   0  0  0  0  0  0  0  0  0  0  0  0
  159.3120  203.6430  144.6480 C   0  0  0  0  0  2  0  0  0  0  0  0
  160.5640  204.2640  144.0570 C   0  0  0  0  0  2  0  0  0  0  0  0
  159.8840  206.2440  145.1880 O   0  0  0  0  0  1  0  0  0  0  0  0
  162.1340  206.0530  144.7950 O   0  0  0  0  0  0  0  0  0  0  0  0
  160.8330  205.5760  144.7020 C   0  0  0  0  0  0  0  0  0  0  0  0
  161.3860  208.2100  150.3030 C   0  0  2  0  0  3  0  0  0  0  0  0
  162.5900  210.1350  151.3700 O   0  0  0  0  0  1  0  0  0  0  0  0
  161.9480  209.5970  150.2590 C   0  0  0  0  0  0  0  0  0  0  0  0
  161.8530  210.2790  149.2050 O   0  0  0  0  0  0  0  0  0  0  0  0
  161.7250  207.5770  151.6490 C   0  0  0  0  0  2  0  0  0  0  0  0
  160.7960  208.0990  152.7290 C   0  0  0  0  0  2  0  0  0  0  0  0
  160.4960  207.4130  155.0990 C   0  0  2  0  0  3  0  0  0  0  0  0
  161.6800  206.8230  154.4730 C   0  0  0  0  0  2  0  0  0  0  0  0
  160.4700  207.0210  153.6600 N   0  0  0  0  0  0  0  0  0  0  0  0
  159.3500  209.6150  155.5640 C   0  0  1  0  0  3  0  0  0  0  0  0
  160.6370  208.9220  155.3680 C   0  0  1  0  0  0  0  0  0  0  0  0
  160.9660  211.1840  154.5490 C   0  0  0  0  0  2  0  0  0  0  0  0
  160.2550  209.4030  156.6330 O   0  0  0  0  0  0  0  0  0  0  0  0
  161.5810  209.8000  154.5700 C   0  0  0  0  0  2  0  0  0  0  0  0
  159.5050  211.0260  154.9750 C   0  0  2  0  0  0  0  0  0  0  0  0
  159.2030  212.0360  156.0770 C   0  0  0  0  0  1  0  0  0  0  0  0
  157.3690  212.0170  154.2060 C   0  0  0  0  0  2  0  0  0  0  0  0
  157.9950  213.7740  152.6950 O   0  0  0  0  0  0  0  0  0  0  0  0
  157.6080  213.5180  154.0170 C   0  0  0  0  0  2  0  0  0  0  0  0
  158.5590  211.2180  153.8470 N   0  0  0  0  0  0  0  0  0  0  0  0
  159.2790  213.2270  152.5540 C   0  0  0  0  0  2  0  0  0  0  0  0
  159.1980  211.6980  152.6030 C   0  0  0  0  0  2  0  0  0  0  0  0
  2  1  1  1  0  0  0
  2 23  1  0  0  0  0
  3  2  1  0  0  0  0
  3  4  2  0  0  0  0
  5  9  1  0  0  0  0
  5  3  1  0  0  0  0
  6  9  2  0  0  0  0
  6  8  1  0  0  0  0
  7 13  1  0  0  0  0
  8 11  2  0  0  0  0
  9 10  1  0  0  0  0
 10  7  2  0  0  0  0
 11  7  1  0  0  0  0
 13 12  1  0  0  0  0
 14  6  1  0  0  0  0
 15 14  2  0  0  0  0
 16 17  2  0  0  0  0
 17 14  1  0  0  0  0
 18 16  1  0  0  0  0
 19 18  1  0  0  0  0
 19 22  1  0  0  0  0
 22 21  2  0  0  0  0
 22 20  1  0  0  0  0
 23 27  1  1  0  0  0
 25 23  1  0  0  0  0
 25 24  1  0  0  0  0
 26 25  2  0  0  0  0
 27 28  1  0  0  0  0
 28 31  1  0  0  0  0
 29 30  1  1  0  0  0
 29 33  1  0  0  0  0
 31 30  1  0  0  0  0
 31 29  1  0  0  0  0
 32 35  1  1  0  0  0
 33 36  1  6  0  0  0
 33 32  1  0  0  0  0
 33 35  1  0  0  0  0
 34 36  1  0  0  0  0
 34 37  1  0  0  0  0
 37 32  1  0  0  0  0
 37 38  1  1  0  0  0
 40 41  1  0  0  0  0
 41 39  1  0  0  0  0
 42 39  1  0  0  0  0
 42 37  1  0  0  0  0
 43 44  1  0  0  0  0
 43 40  1  0  0  0  0
 44 42  1  0  0  0  0
M  END
>  <MODEL>
8

>  <REMARK>
 VINA RESULT:      -5.1      2.230     10.370
  Name = 
  16 active torsions:
  status: ('A' for Active; 'I' for Inactive)
    1  A    between atoms: C_1  and  C_21
    2  A    between atoms: C_4  and  C_37
    3  A    between atoms: C_4  and  C_43
    4  A    between atoms: C_6  and  C_27
    5  A    between atoms: C_7  and  C_9
    6  A    between atoms: C_8  and  O_33
    7  A    between atoms: N_17  and  C_34
    8  A    between atoms: C_19  and  C_43
    9  A    between atoms: C_21  and  N_23
   10  A    between atoms: C_24  and  C_28
   11  A    between atoms: C_24  and  C_43
   12  A    between atoms: C_25  and  C_38
   13  A    between atoms: C_27  and  C_36
   14  A    between atoms: C_28  and  C_38
   15  A    between atoms: N_31  and  C_37
   16  A    between atoms: C_36  and  C_40
                            x       y       z     vdW  Elec       q    Type
                         _______ _______ _______ _____ _____    ______ ____

>  <TORSDO>
F 16

$$$$
=
 OpenBabel11052411113D

 44 48  0  0  1  0  0  0  0  0999 V2000
  158.6080  211.3430  153.4810 C   0  0  0  0  0  1  0  0  0  0  0  0
  159.9880  211.9080  153.1770 C   0  0  1  0  0  3  0  0  0  0  0  0
  160.9550  210.7730  152.9810 C   0  0  0  0  0  0  0  0  0  0  0  0
  161.9720  210.7010  153.6550 O   0  0  0  0  0  0  0  0  0  0  0  0
  160.6860  209.7410  151.9340 C   0  0  0  0  0  2  0  0  0  0  0  0
  161.2180  207.2490  151.7150 C   0  0  0  0  0  0  0  0  0  0  0  0
  160.8620  206.9690  154.5010 C   0  0  0  0  0  0  0  0  0  0  0  0
  161.4290  206.0160  152.3500 C   0  0  0  0  0  3  0  0  0  0  0  0
  160.8330  208.3640  152.5030 C   0  0  0  0  0  0  0  0  0  0  0  0
  160.6620  208.2120  153.8840 C   0  0  0  0  0  3  0  0  0  0  0  0
  161.2510  205.8760  153.7270 C   0  0  0  0  0  3  0  0  0  0  0  0
  160.0810  207.7840  156.7030 C   0  0  0  0  0  1  0  0  0  0  0  0
  160.6880  206.7970  155.8770 O   0  0  0  0  0  0  0  0  0  0  0  0
  161.4070  207.3210  150.2480 C   0  0  0  0  0  0  0  0  0  0  0  0
  162.5210  207.6960  149.7900 O   0  0  0  0  0  0  0  0  0  0  0  0
  160.4880  206.4640  148.1390 C   0  0  0  0  0  3  0  0  0  0  0  0
  160.3570  206.9000  149.3590 N   0  0  0  0  0  0  0  0  0  0  0  0
  161.7910  206.3780  147.4120 C   0  0  0  0  0  2  0  0  0  0  0  0
  162.3530  204.9740  147.5290 C   0  0  0  0  0  2  0  0  0  0  0  0
  161.4640  203.9290  145.5850 O   0  0  0  0  0  1  0  0  0  0  0  0
  163.7260  204.3060  145.5600 O   0  0  0  0  0  0  0  0  0  0  0  0
  162.4840  204.3650  146.1790 C   0  0  0  0  0  0  0  0  0  0  0  0
  159.9520  212.8450  151.9600 C   0  0  2  0  0  3  0  0  0  0  0  0
  158.0940  214.4070  152.5910 O   0  0  0  0  0  1  0  0  0  0  0  0
  158.5820  213.4120  151.7510 C   0  0  0  0  0  0  0  0  0  0  0  0
  157.8700  212.9960  150.8000 O   0  0  0  0  0  0  0  0  0  0  0  0
  160.3890  212.1160  150.6930 C   0  0  0  0  0  2  0  0  0  0  0  0
  160.2850  213.0360  149.4910 C   0  0  0  0  0  2  0  0  0  0  0  0
  161.9230  213.7770  147.7750 C   0  0  2  0  0  3  0  0  0  0  0  0
  162.3690  212.6060  148.5300 C   0  0  0  0  0  2  0  0  0  0  0  0
  161.5870  213.6420  149.2220 N   0  0  0  0  0  0  0  0  0  0  0  0
  161.2150  212.8910  145.5180 C   0  0  1  0  0  3  0  0  0  0  0  0
  160.7720  213.4720  146.8000 C   0  0  1  0  0  0  0  0  0  0  0  0
  159.1670  214.2200  145.1390 C   0  0  0  0  0  2  0  0  0  0  0  0
  160.5180  212.1250  146.4840 O   0  0  0  0  0  0  0  0  0  0  0  0
  159.6350  214.4460  146.5610 C   0  0  0  0  0  2  0  0  0  0  0  0
  160.2640  213.4200  144.4340 C   0  0  2  0  0  0  0  0  0  0  0  0
  159.6260  212.2210  143.7380 C   0  0  0  0  0  1  0  0  0  0  0  0
  162.4390  213.8600  143.3340 C   0  0  0  0  0  2  0  0  0  0  0  0
  162.1560  213.1380  141.0620 O   0  0  0  0  0  0  0  0  0  0  0  0
  162.6630  212.7450  142.3080 C   0  0  0  0  0  2  0  0  0  0  0  0
  161.0140  214.2330  143.4430 N   0  0  0  0  0  0  0  0  0  0  0  0
  160.7610  213.1670  141.2020 C   0  0  0  0  0  2  0  0  0  0  0  0
  160.3570  214.3240  142.1210 C   0  0  0  0  0  2  0  0  0  0  0  0
  2  1  1  6  0  0  0
  3  2  1  0  0  0  0
  3  4  2  0  0  0  0
  5  9  1  0  0  0  0
  5  3  1  0  0  0  0
  6  8  2  0  0  0  0
  6  9  1  0  0  0  0
  7 13  1  0  0  0  0
  8 11  1  0  0  0  0
  9 10  2  0  0  0  0
 10  7  1  0  0  0  0
 11  7  2  0  0  0  0
 13 12  1  0  0  0  0
 14  6  1  0  0  0  0
 15 14  2  0  0  0  0
 16 17  2  0  0  0  0
 17 14  1  0  0  0  0
 18 19  1  0  0  0  0
 18 16  1  0  0  0  0
 20 22  1  0  0  0  0
 21 22  2  0  0  0  0
 22 19  1  0  0  0  0
 23 27  1  6  0  0  0
 23  2  1  0  0  0  0
 25 23  1  0  0  0  0
 25 24  1  0  0  0  0
 26 25  2  0  0  0  0
 28 27  1  0  0  0  0
 29 30  1  6  0  0  0
 29 31  1  0  0  0  0
 30 31  1  0  0  0  0
 31 28  1  0  0  0  0
 32 35  1  1  0  0  0
 32 33  1  0  0  0  0
 33 36  1  6  0  0  0
 33 29  1  0  0  0  0
 34 36  1  0  0  0  0
 35 33  1  0  0  0  0
 37 38  1  6  0  0  0
 37 34  1  0  0  0  0
 37 32  1  0  0  0  0
 39 42  1  0  0  0  0
 40 43  1  0  0  0  0
 40 41  1  0  0  0  0
 41 39  1  0  0  0  0
 42 37  1  0  0  0  0
 43 44  1  0  0  0  0
 44 42  1  0  0  0  0
M  END
>  <MODEL>
9

>  <REMARK>
 VINA RESULT:      -5.1      3.940      8.763
  Name = 
  16 active torsions:
  status: ('A' for Active; 'I' for Inactive)
    1  A    between atoms: C_1  and  C_21
    2  A    between atoms: C_4  and  C_37
    3  A    between atoms: C_4  and  C_43
    4  A    between atoms: C_6  and  C_27
    5  A    between atoms: C_7  and  C_9
    6  A    between atoms: C_8  and  O_33
    7  A    between atoms: N_17  and  C_34
    8  A    between atoms: C_19  and  C_43
    9  A    between atoms: C_21  and  N_23
   10  A    between atoms: C_24  and  C_28
   11  A    between atoms: C_24  and  C_43
   12  A    between atoms: C_25  and  C_38
   13  A    between atoms: C_27  and  C_36
   14  A    between atoms: C_28  and  C_38
   15  A    between atoms: N_31  and  C_37
   16  A    between atoms: C_36  and  C_40
                            x       y       z     vdW  Elec       q    Type
                         _______ _______ _______ _____ _____    ______ ____

>  <TORSDO>
F 16

$$$$
