=
 OpenBabel11042421243D

 33 37  0  0  1  0  0  0  0  0999 V2000
  160.0650  213.1690  150.7690 C   0  0  0  0  0  3  0  0  0  0  0  0
  162.3240  209.6270  150.5790 C   0  0  0  0  0  3  0  0  0  0  0  0
  162.3410  210.5230  149.5040 C   0  0  0  0  0  3  0  0  0  0  0  0
  159.9930  211.2940  153.3040 S   0  0  2  0  0  0  0  0  0  0  0  0
  161.5750  211.6970  149.5470 C   0  0  0  0  0  0  0  0  0  0  0  0
  161.5210  209.8840  151.6960 C   0  0  0  0  0  0  0  0  0  0  0  0
  160.9630  207.5650  152.6860 C   0  0  1  0  0  3  0  0  0  0  0  0
  160.8060  211.0690  151.7670 C   0  0  0  0  0  0  0  0  0  0  0  0
  161.2450  206.6380  153.8800 C   0  0  0  0  0  2  0  0  0  0  0  0
  160.8120  213.7700  148.5490 C   0  0  0  0  0  3  0  0  0  0  0  0
  161.5720  212.5920  148.4620 C   0  0  0  0  0  0  0  0  0  0  0  0
  160.8100  211.9860  150.7050 C   0  0  0  0  0  0  0  0  0  0  0  0
  160.2600  207.0440  155.3600 S   0  0  0  0  0  0  0  0  0  0  0  0
  161.0100  209.7260  155.3330 C   0  0  0  0  0  2  0  0  0  0  0  0
  160.4830  209.6700  153.9040 C   0  0  2  0  0  3  0  0  0  0  0  0
  161.4290  208.3530  155.8570 C   0  0  0  0  0  2  0  0  0  0  0  0
  160.0680  214.0570  149.6940 C   0  0  0  0  0  3  0  0  0  0  0  0
  158.5220  211.0970  152.9640 O   0  0  0  0  0  0  0  0  0  0  0  0
  161.4670  209.0070  152.9250 C   0  0  2  0  0  3  0  0  0  0  0  0
  162.4190  213.1950  146.2130 C   0  0  0  0  0  1  0  0  0  0  0  0
  162.3120  212.2960  147.3100 O   0  0  0  0  0  0  0  0  0  0  0  0
  161.4310  206.9390  151.3590 C   0  0  1  0  0  3  0  0  0  0  0  0
  162.0470  205.5520  151.5150 C   0  0  0  0  0  2  0  0  0  0  0  0
  161.0190  204.4550  151.2870 C   0  0  2  0  0  3  0  0  0  0  0  0
  160.8110  203.6560  152.5610 C   0  0  0  0  0  1  0  0  0  0  0  0
  160.4550  202.9370  149.5320 O   0  0  0  0  0  1  0  0  0  0  0  0
  161.5280  203.5380  150.1920 C   0  0  0  0  0  2  0  0  0  0  0  0
  160.2950  206.9080  150.3430 C   0  0  0  0  0  2  0  0  0  0  0  0
  160.8140  207.2480  148.9530 C   0  0  2  0  0  3  0  0  0  0  0  0
  161.6600  205.8360  147.8080 C   0  0  2  0  0  3  0  0  0  0  0  0
  160.3500  206.3040  148.0230 O   0  0  0  0  0  0  0  0  0  0  0  0
  162.2460  206.8100  148.7870 C   0  0  0  0  0  2  0  0  0  0  0  0
  162.1010  206.1640  146.3900 C   0  0  0  0  0  1  0  0  0  0  0  0
  2  6  1  0  0  0  0
  3  5  1  0  0  0  0
  3  2  2  0  0  0  0
  4 18  2  6  0  0  0
  4 15  1  0  0  0  0
  5 12  2  0  0  0  0
  6  8  2  0  0  0  0
  7 22  1  6  0  0  0
  7 19  1  0  0  0  0
  7  9  1  0  0  0  0
  8  4  1  0  0  0  0
  9 13  1  0  0  0  0
 10 17  1  0  0  0  0
 11 10  2  0  0  0  0
 11  5  1  0  0  0  0
 12  1  1  0  0  0  0
 12  8  1  0  0  0  0
 13 16  1  0  0  0  0
 14 16  1  0  0  0  0
 15 14  1  1  0  0  0
 17  1  2  0  0  0  0
 19  6  1  6  0  0  0
 19 15  1  0  0  0  0
 20 21  1  0  0  0  0
 21 11  1  0  0  0  0
 22 28  1  6  0  0  0
 22 23  1  0  0  0  0
 24 23  1  0  0  0  0
 24 25  1  1  0  0  0
 26 27  1  0  0  0  0
 27 24  1  0  0  0  0
 29 28  1  1  0  0  0
 30 33  1  6  0  0  0
 30 31  1  0  0  0  0
 30 32  1  0  0  0  0
 31 29  1  0  0  0  0
 32 29  1  0  0  0  0
M  END
>  <MODEL>
1

>  <REMARK>
 VINA RESULT:      -7.0      0.000      0.000
  Name = 
  7 active torsions:
  status: ('A' for Active; 'I' for Inactive)
    1  A    between atoms: C_4  and  C_7
    2  A    between atoms: C_4  and  C_10
    3  A    between atoms: C_8  and  C_23
    4  A    between atoms: C_10  and  C_24
    5  A    between atoms: O_16  and  C_22
    6  A    between atoms: C_18  and  C_24
    7  A    between atoms: C_23  and  C_24
                            x       y       z     vdW  Elec       q    Type
                         _______ _______ _______ _____ _____    ______ ____

>  <TORSDO>
F 7

$$$$
=
 OpenBabel11042421243D

 33 37  0  0  1  0  0  0  0  0999 V2000
  156.0780  213.5730  154.1020 C   0  0  0  0  0  3  0  0  0  0  0  0
  159.6870  212.4040  152.2870 C   0  0  0  0  0  3  0  0  0  0  0  0
  158.7050  213.0560  151.5310 C   0  0  0  0  0  3  0  0  0  0  0  0
  158.2250  212.1930  155.9550 S   0  0  2  0  0  0  0  0  0  0  0  0
  157.4900  213.4310  152.1200 C   0  0  0  0  0  0  0  0  0  0  0  0
  159.4510  212.0980  153.6320 C   0  0  0  0  0  0  0  0  0  0  0  0
  160.9010  210.0190  154.1260 C   0  0  1  0  0  3  0  0  0  0  0  0
  158.2740  212.5170  154.2330 C   0  0  0  0  0  0  0  0  0  0  0  0
  162.1510  209.5440  154.8840 C   0  0  0  0  0  2  0  0  0  0  0  0
  155.2950  214.4530  151.9900 C   0  0  0  0  0  3  0  0  0  0  0  0
  156.4920  214.0690  151.3610 C   0  0  0  0  0  0  0  0  0  0  0  0
  157.2760  213.1770  153.4980 C   0  0  0  0  0  0  0  0  0  0  0  0
  161.8520  209.2420  156.6570 S   0  0  0  0  0  0  0  0  0  0  0  0
  160.7090  211.7480  157.0680 C   0  0  0  0  0  2  0  0  0  0  0  0
  159.7960  211.3160  155.9270 C   0  0  2  0  0  3  0  0  0  0  0  0
  162.0470  211.0100  157.0570 C   0  0  0  0  0  2  0  0  0  0  0  0
  155.0930  214.2100  153.3490 C   0  0  0  0  0  3  0  0  0  0  0  0
  157.2120  211.0630  156.0790 O   0  0  0  0  0  0  0  0  0  0  0  0
  160.4590  211.4410  154.5450 C   0  0  2  0  0  3  0  0  0  0  0  0
  156.5410  213.2880  149.0110 C   0  0  0  0  0  1  0  0  0  0  0  0
  156.6950  214.3030  149.9950 O   0  0  0  0  0  0  0  0  0  0  0  0
  161.0490  209.8210  152.6060 C   0  0  1  0  0  3  0  0  0  0  0  0
  162.4920  209.8800  152.1140 C   0  0  0  0  0  2  0  0  0  0  0  0
  162.5690  210.3120  150.6580 C   0  0  2  0  0  3  0  0  0  0  0  0
  161.4020  211.2220  150.3160 C   0  0  0  0  0  1  0  0  0  0  0  0
  161.8180  209.3440  148.6090 O   0  0  0  0  0  1  0  0  0  0  0  0
  162.5190  209.0740  149.7850 C   0  0  0  0  0  2  0  0  0  0  0  0
  160.3860  208.5230  152.1610 C   0  0  0  0  0  2  0  0  0  0  0  0
  161.3870  207.3760  152.1900 C   0  0  2  0  0  3  0  0  0  0  0  0
  160.7650  205.4770  152.0310 C   0  0  2  0  0  3  0  0  0  0  0  0
  161.1340  206.4910  151.1280 O   0  0  0  0  0  0  0  0  0  0  0  0
  161.0070  206.3500  153.2250 C   0  0  0  0  0  2  0  0  0  0  0  0
  161.7760  204.3430  151.9770 C   0  0  0  0  0  1  0  0  0  0  0  0
  2  6  1  0  0  0  0
  3  5  1  0  0  0  0
  3  2  2  0  0  0  0
  4 18  2  6  0  0  0
  5 12  2  0  0  0  0
  6  8  2  0  0  0  0
  7 22  1  6  0  0  0
  7 19  1  0  0  0  0
  7  9  1  0  0  0  0
  8  4  1  0  0  0  0
  9 13  1  0  0  0  0
 10 17  1  0  0  0  0
 11 10  2  0  0  0  0
 11  5  1  0  0  0  0
 12  1  1  0  0  0  0
 12  8  1  0  0  0  0
 13 16  1  0  0  0  0
 15  4  1  0  0  0  0
 15 14  1  1  0  0  0
 16 14  1  0  0  0  0
 17  1  2  0  0  0  0
 19  6  1  6  0  0  0
 19 15  1  0  0  0  0
 20 21  1  0  0  0  0
 21 11  1  0  0  0  0
 22 23  1  1  0  0  0
 24 25  1  6  0  0  0
 24 23  1  0  0  0  0
 26 27  1  0  0  0  0
 27 24  1  0  0  0  0
 28 22  1  0  0  0  0
 29 28  1  6  0  0  0
 29 32  1  0  0  0  0
 30 33  1  1  0  0  0
 30 32  1  0  0  0  0
 31 30  1  0  0  0  0
 31 29  1  0  0  0  0
M  END
>  <MODEL>
2

>  <REMARK>
 VINA RESULT:      -4.5      2.854      4.721
  Name = 
  7 active torsions:
  status: ('A' for Active; 'I' for Inactive)
    1  A    between atoms: C_4  and  C_7
    2  A    between atoms: C_4  and  C_10
    3  A    between atoms: C_8  and  C_23
    4  A    between atoms: C_10  and  C_24
    5  A    between atoms: O_16  and  C_22
    6  A    between atoms: C_18  and  C_24
    7  A    between atoms: C_23  and  C_24
                            x       y       z     vdW  Elec       q    Type
                         _______ _______ _______ _____ _____    ______ ____

>  <TORSDO>
F 7

$$$$
=
 OpenBabel11042421243D

 33 37  0  0  1  0  0  0  0  0999 V2000
  160.0800  213.4520  151.0480 C   0  0  0  0  0  3  0  0  0  0  0  0
  161.9170  209.7920  150.0900 C   0  0  0  0  0  3  0  0  0  0  0  0
  161.8250  210.8000  149.1240 C   0  0  0  0  0  3  0  0  0  0  0  0
  160.2880  211.3140  153.3560 S   0  0  2  0  0  0  0  0  0  0  0  0
  161.1960  212.0160  149.4250 C   0  0  0  0  0  0  0  0  0  0  0  0
  161.3570  209.9820  151.3590 C   0  0  0  0  0  0  0  0  0  0  0  0
  160.7680  207.6150  152.2080 C   0  0  1  0  0  3  0  0  0  0  0  0
  160.7840  211.2020  151.6790 C   0  0  0  0  0  0  0  0  0  0  0  0
  161.1690  206.5400  153.2310 C   0  0  0  0  0  2  0  0  0  0  0  0
  160.4680  214.2410  148.7950 C   0  0  0  0  0  3  0  0  0  0  0  0
  161.0830  213.0260  148.4520 C   0  0  0  0  0  0  0  0  0  0  0  0
  160.6840  212.2310  150.7290 C   0  0  0  0  0  0  0  0  0  0  0  0
  160.5120  206.8510  154.9040 S   0  0  0  0  0  0  0  0  0  0  0  0
  161.4990  209.4540  154.9950 C   0  0  0  0  0  2  0  0  0  0  0  0
  160.7200  209.6000  153.6930 C   0  0  2  0  0  3  0  0  0  0  0  0
  161.8720  208.0020  155.2940 C   0  0  0  0  0  2  0  0  0  0  0  0
  159.9750  214.4530  150.0830 C   0  0  0  0  0  3  0  0  0  0  0  0
  158.7680  211.2690  153.2850 O   0  0  0  0  0  0  0  0  0  0  0  0
  161.4430  208.9780  152.4860 C   0  0  2  0  0  3  0  0  0  0  0  0
  162.3710  213.7570  146.4660 C   0  0  0  0  0  1  0  0  0  0  0  0
  161.5710  212.8060  147.1570 O   0  0  0  0  0  0  0  0  0  0  0  0
  160.9250  207.1090  150.7620 C   0  0  1  0  0  3  0  0  0  0  0  0
  162.3770  206.9350  150.3250 C   0  0  0  0  0  2  0  0  0  0  0  0
  162.5460  207.1890  148.8350 C   0  0  2  0  0  3  0  0  0  0  0  0
  161.1990  207.4630  148.1910 C   0  0  0  0  0  1  0  0  0  0  0  0
  162.7440  205.8310  146.8820 O   0  0  0  0  0  1  0  0  0  0  0  0
  163.1690  205.9600  148.2050 C   0  0  0  0  0  2  0  0  0  0  0  0
  160.1460  205.8170  150.5510 C   0  0  0  0  0  2  0  0  0  0  0  0
  161.0920  204.6720  150.2180 C   0  0  2  0  0  3  0  0  0  0  0  0
  160.3770  202.8380  149.8360 C   0  0  2  0  0  3  0  0  0  0  0  0
  160.6400  203.9930  149.0740 O   0  0  0  0  0  0  0  0  0  0  0  0
  160.8390  203.4840  151.1080 C   0  0  0  0  0  2  0  0  0  0  0  0
  161.3210  201.7200  149.4240 C   0  0  0  0  0  1  0  0  0  0  0  0
  2  6  1  0  0  0  0
  3  5  1  0  0  0  0
  3  2  2  0  0  0  0
  4 18  2  6  0  0  0
  4 15  1  0  0  0  0
  5 12  2  0  0  0  0
  6  8  2  0  0  0  0
  7 22  1  6  0  0  0
  7 19  1  0  0  0  0
  7  9  1  0  0  0  0
  8  4  1  0  0  0  0
  9 13  1  0  0  0  0
 10 17  1  0  0  0  0
 11 10  2  0  0  0  0
 11  5  1  0  0  0  0
 12  1  1  0  0  0  0
 12  8  1  0  0  0  0
 13 16  1  0  0  0  0
 14 16  1  0  0  0  0
 15 14  1  1  0  0  0
 17  1  2  0  0  0  0
 19  6  1  6  0  0  0
 19 15  1  0  0  0  0
 20 21  1  0  0  0  0
 21 11  1  0  0  0  0
 22 23  1  1  0  0  0
 24 25  1  6  0  0  0
 24 23  1  0  0  0  0
 26 27  1  0  0  0  0
 27 24  1  0  0  0  0
 28 22  1  0  0  0  0
 29 28  1  1  0  0  0
 29 32  1  0  0  0  0
 30 33  1  6  0  0  0
 30 32  1  0  0  0  0
 31 30  1  0  0  0  0
 31 29  1  0  0  0  0
M  END
>  <MODEL>
3

>  <REMARK>
 VINA RESULT:      -4.0      0.977      2.285
  Name = 
  7 active torsions:
  status: ('A' for Active; 'I' for Inactive)
    1  A    between atoms: C_4  and  C_7
    2  A    between atoms: C_4  and  C_10
    3  A    between atoms: C_8  and  C_23
    4  A    between atoms: C_10  and  C_24
    5  A    between atoms: O_16  and  C_22
    6  A    between atoms: C_18  and  C_24
    7  A    between atoms: C_23  and  C_24
                            x       y       z     vdW  Elec       q    Type
                         _______ _______ _______ _____ _____    ______ ____

>  <TORSDO>
F 7

$$$$
