=
 OpenBabel11052410323D

 65 69  0  0  1  0  0  0  0  0999 V2000
  161.4100  210.8910  147.9340 C   0  0  0  0  0  0  0  0  0  0  0  0
  157.9830  210.0210  152.9770 C   0  0  0  0  0  1  0  0  0  0  0  0
  161.7930  208.0920  152.4650 C   0  0  0  0  0  2  0  0  0  0  0  0
  162.6710  210.0000  149.9860 C   0  0  0  0  0  2  0  0  0  0  0  0
  159.7220  214.4250  148.7720 S   0  0  0  0  0  0  0  0  0  0  0  0
  162.1930  209.9020  148.6150 N   0  0  0  0  0  2  0  0  0  0  0  0
  160.1960  211.0460  152.2740 C   0  0  0  0  0  2  0  0  0  0  0  0
  159.4940  210.0150  153.1560 C   0  0  1  0  0  3  0  0  0  0  0  0
  160.8200  206.0550  153.6050 C   0  0  0  0  0  0  0  0  0  0  0  0
  161.0440  210.6520  146.5990 C   0  0  0  0  0  3  0  0  0  0  0  0
  159.8340  212.7610  146.5120 C   0  0  0  0  0  3  0  0  0  0  0  0
  159.8430  210.1980  154.5560 N   0  0  0  0  0  2  0  0  0  0  0  0
  160.3680  213.6130  150.3040 C   0  0  1  0  0  3  0  0  0  0  0  0
  160.4410  205.4780  154.6600 O   0  0  0  0  0  0  0  0  0  0  0  0
  160.9660  212.0910  148.5370 C   0  0  0  0  0  0  0  0  0  0  0  0
  161.1850  209.6590  154.7840 C   0  0  2  0  0  3  0  0  0  0  0  0
  161.1380  208.1380  154.9350 C   0  0  0  0  0  2  0  0  0  0  0  0
  160.2270  213.0090  147.8220 C   0  0  0  0  0  0  0  0  0  0  0  0
  160.6630  205.3640  152.2730 C   0  0  1  0  0  3  0  0  0  0  0  0
  159.2050  213.2120  151.2380 C   0  0  1  0  0  3  0  0  0  0  0  0
  161.2850  207.4130  153.6650 N   0  0  0  0  0  0  0  0  0  0  0  0
  162.1070  207.1640  151.3160 C   0  0  0  0  0  0  0  0  0  0  0  0
  160.2540  211.5750  145.8940 C   0  0  0  0  0  3  0  0  0  0  0  0
  159.7560  212.9820  153.5480 O   0  0  0  0  0  0  0  0  0  0  0  0
  161.1370  212.4350  149.9020 N   0  0  0  0  0  2  0  0  0  0  0  0
  162.9300  207.6010  150.2640 O   0  0  0  0  0  0  0  0  0  0  0  0
  163.6250  208.8510  150.2770 C   0  0  0  0  0  2  0  0  0  0  0  0
  159.7130  212.4610  152.4490 C   0  0  0  0  0  0  0  0  0  0  0  0
  161.5980  205.9390  151.2510 C   0  0  0  0  0  3  0  0  0  0  0  0
  161.7430  210.2880  156.0630 C   0  0  0  0  0  3  0  0  0  0  0  0
  163.1850  209.8440  156.2120 C   0  0  0  0  0  2  0  0  0  0  0  0
  162.1040  209.2130  157.0600 C   0  0  0  0  0  2  0  0  0  0  0  0
  158.4090  214.4520  151.6570 C   0  0  0  0  0  2  0  0  0  0  0  0
  156.9980  214.4050  151.0970 C   0  0  0  0  0  2  0  0  0  0  0  0
  156.0420  214.2920  152.1980 N   0  0  0  0  0  2  0  0  0  0  0  0
  156.2190  213.0150  152.7640 N   0  0  0  0  0  2  0  0  0  0  0  0
  155.8870  212.1890  155.0810 C   0  0  0  0  0  0  0  0  0  0  0  0
  155.1400  211.2530  154.6870 O   0  0  0  0  0  0  0  0  0  0  0  0
  156.3350  213.1910  154.1550 N   0  0  0  0  0  2  0  0  0  0  0  0
  156.3170  212.2560  156.5130 C   0  0  0  0  0  2  0  0  0  0  0  0
  157.5610  211.4130  156.7420 C   0  0  0  0  0  2  0  0  0  0  0  0
  158.7680  212.2040  157.2500 C   0  0  0  0  0  2  0  0  0  0  0  0
  160.2540  214.1950  156.8620 C   0  0  0  0  0  1  0  0  0  0  0  0
  158.8670  213.6060  156.6500 C   0  0  2  0  0  3  0  0  0  0  0  0
  157.9100  214.4500  157.2140 O   0  0  0  0  0  1  0  0  0  0  0  0
  160.9200  203.9910  152.3860 O   0  0  0  0  0  0  0  0  0  0  0  0
  160.8450  203.4860  151.0850 C   0  0  0  0  0  2  0  0  0  0  0  0
  161.0740  201.3100  152.1270 O   0  0  0  0  0  1  0  0  0  0  0  0
  161.4390  202.0700  151.0120 C   0  0  1  0  0  3  0  0  0  0  0  0
  161.0490  201.3540  149.7070 C   0  0  1  0  0  3  0  0  0  0  0  0
  158.8480  202.0440  148.9650 O   0  0  0  0  0  1  0  0  0  0  0  0
  158.9960  200.8540  150.8890 O   0  0  0  0  0  1  0  0  0  0  0  0
  159.5390  201.0170  149.6100 C   0  0  0  0  0  3  0  0  0  0  0  0
  161.4510  202.1320  148.6100 O   0  0  0  0  0  0  0  0  0  0  0  0
  162.1000  201.2380  147.7550 C   0  0  0  0  0  2  0  0  0  0  0  0
  161.0850  200.4870  146.9040 C   0  0  0  0  0  2  0  0  0  0  0  0
  160.9390  201.1200  145.5250 C   0  0  0  0  0  2  0  0  0  0  0  0
  160.9990  202.5690  145.6340 N   0  0  0  0  0  2  0  0  0  0  0  0
  159.7730  203.0880  145.0450 C   0  0  0  0  0  2  0  0  0  0  0  0
  160.0540  204.4270  144.3840 C   0  0  0  0  0  2  0  0  0  0  0  0
  160.7390  205.0580  146.9560 O   0  0  0  0  0  1  0  0  0  0  0  0
  160.7710  205.6290  145.5560 P   0  0  2  0  0  0  0  0  0  0  0  0
  159.8860  207.0740  145.4920 O   0  0  0  0  0  0  0  0  0  0  0  0
  163.0810  204.7640  145.3860 C   0  0  0  0  0  1  0  0  0  0  0  0
  162.3700  205.9410  145.0990 O   0  0  0  0  0  0  0  0  0  0  0  0
  1 15  1  0  0  0  0
  1  6  1  0  0  0  0
  3 21  1  0  0  0  0
  4 27  1  0  0  0  0
  6  4  1  0  0  0  0
  7 28  1  0  0  0  0
  7  8  1  0  0  0  0
  8  2  1  1  0  0  0
  8 12  1  0  0  0  0
  9 21  1  0  0  0  0
  9 14  2  0  0  0  0
 10  1  2  0  0  0  0
 11 18  1  0  0  0  0
 12 16  1  0  0  0  0
 13  5  1  6  0  0  0
 13 20  1  0  0  0  0
 15 25  1  0  0  0  0
 16 17  1  0  0  0  0
 16 30  1  1  0  0  0
 18 15  2  0  0  0  0
 18  5  1  0  0  0  0
 19 46  1  1  0  0  0
 19  9  1  0  0  0  0
 20 33  1  1  0  0  0
 20 28  1  0  0  0  0
 21 17  1  0  0  0  0
 22  3  1  0  0  0  0
 23 11  2  0  0  0  0
 23 10  1  0  0  0  0
 25 13  1  0  0  0  0
 26 27  1  0  0  0  0
 26 22  1  0  0  0  0
 28 24  2  0  0  0  0
 29 22  2  0  0  0  0
 29 19  1  0  0  0  0
 30 31  1  0  0  0  0
 30 32  1  0  0  0  0
 31 32  1  0  0  0  0
 34 33  1  0  0  0  0
 34 35  1  0  0  0  0
 35 36  1  0  0  0  0
 36 39  1  0  0  0  0
 37 40  1  0  0  0  0
 38 37  2  0  0  0  0
 39 37  1  0  0  0  0
 40 41  1  0  0  0  0
 41 42  1  0  0  0  0
 44 43  1  1  0  0  0
 44 45  1  0  0  0  0
 44 42  1  0  0  0  0
 47 46  1  0  0  0  0
 49 47  1  0  0  0  0
 49 48  1  1  0  0  0
 50 54  1  6  0  0  0
 50 49  1  0  0  0  0
 51 53  1  0  0  0  0
 53 50  1  0  0  0  0
 53 52  1  0  0  0  0
 55 54  1  0  0  0  0
 56 55  1  0  0  0  0
 57 58  1  0  0  0  0
 57 56  1  0  0  0  0
 59 58  1  0  0  0  0
 60 59  1  0  0  0  0
 60 62  1  0  0  0  0
 62 63  2  6  0  0  0
 62 61  1  0  0  0  0
 65 64  1  0  0  0  0
 65 62  1  0  0  0  0
M  END
>  <MODEL>
1

>  <REMARK>
 VINA RESULT:       3.8      0.000      0.000
  Name = 
  24 active torsions:
  status: ('A' for Active; 'I' for Inactive)
    1  A    between atoms: C_1  and  O_15
    2  A    between atoms: C_1  and  C_58
    3  A    between atoms: C_3  and  C_37
    4  A    between atoms: C_4  and  N_48
    5  A    between atoms: C_4  and  C_62
    6  A    between atoms: C_5  and  O_15
    7  A    between atoms: C_5  and  C_19
    8  A    between atoms: C_5  and  C_64
    9  A    between atoms: C_9  and  C_52
   10  A    between atoms: O_11  and  C_42
   11  A    between atoms: O_11  and  C_46
   12  A    between atoms: C_14  and  C_63
   13  A    between atoms: O_22  and  P_41
   14  A    between atoms: C_24  and  C_43
   15  A    between atoms: C_24  and  C_53
   16  A    between atoms: C_28  and  N_48
   17  A    between atoms: C_28  and  C_58
   18  A    between atoms: N_40  and  N_49
   19  A    between atoms: P_41  and  C_62
   20  A    between atoms: C_46  and  C_64
   21  A    between atoms: C_47  and  C_52
   22  A    between atoms: C_47  and  C_63
   23  A    between atoms: N_49  and  N_50
   24  A    between atoms: N_50  and  C_53
                            x       y       z     vdW  Elec       q    Type
                         _______ _______ _______ _____ _____    ______ ____

>  <TORSDO>
F 24

$$$$
=
 OpenBabel11052410323D

 65 69  0  0  1  0  0  0  0  0999 V2000
  161.1850  211.0180  147.5170 C   0  0  0  0  0  0  0  0  0  0  0  0
  158.3690  209.6300  152.8160 C   0  0  0  0  0  1  0  0  0  0  0  0
  162.0600  207.7550  151.6510 C   0  0  0  0  0  2  0  0  0  0  0  0
  162.6660  209.9110  149.2990 C   0  0  0  0  0  2  0  0  0  0  0  0
  159.6640  214.4490  148.9160 S   0  0  0  0  0  0  0  0  0  0  0  0
  162.0270  209.9600  147.9920 N   0  0  0  0  0  2  0  0  0  0  0  0
  160.4980  210.7170  151.9630 C   0  0  0  0  0  2  0  0  0  0  0  0
  159.8900  209.6010  152.8110 C   0  0  1  0  0  3  0  0  0  0  0  0
  161.1980  205.6120  152.6810 C   0  0  0  0  0  0  0  0  0  0  0  0
  160.6580  210.9220  146.2180 C   0  0  0  0  0  3  0  0  0  0  0  0
  159.4800  213.0320  146.4980 C   0  0  0  0  0  3  0  0  0  0  0  0
  160.4060  209.6340  154.1700 N   0  0  0  0  0  2  0  0  0  0  0  0
  160.4740  213.4770  150.2660 C   0  0  1  0  0  3  0  0  0  0  0  0
  160.9380  204.9270  153.7080 O   0  0  0  0  0  0  0  0  0  0  0  0
  160.8340  212.1490  148.2900 C   0  0  0  0  0  0  0  0  0  0  0  0
  161.7560  209.0700  154.1780 C   0  0  2  0  0  3  0  0  0  0  0  0
  161.7040  207.5410  154.1730 C   0  0  0  0  0  2  0  0  0  0  0  0
  160.0300  213.1400  147.7700 C   0  0  0  0  0  0  0  0  0  0  0  0
  160.8720  205.0650  151.3120 C   0  0  1  0  0  3  0  0  0  0  0  0
  159.4250  212.9840  151.2860 C   0  0  1  0  0  3  0  0  0  0  0  0
  161.6870  206.9540  152.8270 N   0  0  0  0  0  0  0  0  0  0  0  0
  162.2200  206.9530  150.3820 C   0  0  0  0  0  0  0  0  0  0  0  0
  159.8050  211.9180  145.7130 C   0  0  0  0  0  3  0  0  0  0  0  0
  160.2430  212.5090  153.4760 O   0  0  0  0  0  0  0  0  0  0  0  0
  161.1710  212.3460  149.6540 N   0  0  0  0  0  2  0  0  0  0  0  0
  162.9190  207.4960  149.2910 O   0  0  0  0  0  0  0  0  0  0  0  0
  163.6300  208.7350  149.3520 C   0  0  0  0  0  2  0  0  0  0  0  0
  160.0610  212.1070  152.3420 C   0  0  0  0  0  0  0  0  0  0  0  0
  161.6880  205.7430  150.2510 C   0  0  0  0  0  3  0  0  0  0  0  0
  162.4720  209.5590  155.4390 C   0  0  0  0  0  3  0  0  0  0  0  0
  161.4220  210.0810  156.4010 C   0  0  0  0  0  2  0  0  0  0  0  0
  162.2750  211.0460  155.6090 C   0  0  0  0  0  2  0  0  0  0  0  0
  158.7030  214.1750  151.9250 C   0  0  0  0  0  2  0  0  0  0  0  0
  157.3800  213.7450  152.5320 C   0  0  0  0  0  2  0  0  0  0  0  0
  157.2200  214.3750  153.8420 N   0  0  0  0  0  2  0  0  0  0  0  0
  158.5010  214.4520  154.4190 N   0  0  0  0  0  2  0  0  0  0  0  0
  158.6390  213.2050  156.5610 C   0  0  0  0  0  0  0  0  0  0  0  0
  158.6560  214.2720  157.2310 O   0  0  0  0  0  0  0  0  0  0  0  0
  158.7090  213.2540  155.1280 N   0  0  0  0  0  2  0  0  0  0  0  0
  158.5390  211.8820  157.2540 C   0  0  0  0  0  2  0  0  0  0  0  0
  157.2630  211.1600  156.8530 C   0  0  0  0  0  2  0  0  0  0  0  0
  156.5860  211.7310  155.6060 C   0  0  0  0  0  2  0  0  0  0  0  0
  155.0110  209.8240  156.0610 C   0  0  0  0  0  1  0  0  0  0  0  0
  155.1850  211.1670  155.3660 C   0  0  2  0  0  3  0  0  0  0  0  0
  154.9430  211.0210  154.0000 O   0  0  0  0  0  1  0  0  0  0  0  0
  161.1190  203.6880  151.2500 O   0  0  0  0  0  0  0  0  0  0  0  0
  160.0340  203.1430  150.5560 C   0  0  0  0  0  2  0  0  0  0  0  0
  159.3330  200.9740  149.7310 O   0  0  0  0  0  1  0  0  0  0  0  0
  160.4320  201.8280  149.8650 C   0  0  1  0  0  3  0  0  0  0  0  0
  161.1020  202.0800  148.5030 C   0  0  1  0  0  3  0  0  0  0  0  0
  161.5900  200.0830  147.2200 O   0  0  0  0  0  1  0  0  0  0  0  0
  160.4920  201.7720  146.1790 O   0  0  0  0  0  1  0  0  0  0  0  0
  160.6460  201.0960  147.3950 C   0  0  0  0  0  3  0  0  0  0  0  0
  160.8720  203.4070  148.1080 O   0  0  0  0  0  0  0  0  0  0  0  0
  161.6520  203.5790  146.9610 C   0  0  0  0  0  2  0  0  0  0  0  0
  161.3420  204.9190  146.3060 C   0  0  0  0  0  2  0  0  0  0  0  0
  160.9780  204.7470  144.8360 C   0  0  0  0  0  2  0  0  0  0  0  0
  160.9840  206.0400  144.1680 N   0  0  0  0  0  2  0  0  0  0  0  0
  161.1900  205.7830  142.7510 C   0  0  0  0  0  2  0  0  0  0  0  0
  162.4600  206.4770  142.2870 C   0  0  0  0  0  2  0  0  0  0  0  0
  161.4320  205.9870  139.8000 O   0  0  0  0  0  0  0  0  0  0  0  0
  162.3890  206.9140  140.5150 P   0  0  2  0  0  0  0  0  0  0  0  0
  163.9400  206.7890  139.8420 O   0  0  0  0  0  1  0  0  0  0  0  0
  160.7170  208.4610  139.5520 C   0  0  0  0  0  1  0  0  0  0  0  0
  161.8540  208.5130  140.3750 O   0  0  0  0  0  0  0  0  0  0  0  0
  1  6  1  0  0  0  0
  1 15  1  0  0  0  0
  3 21  1  0  0  0  0
  4 27  1  0  0  0  0
  6  4  1  0  0  0  0
  7 28  1  0  0  0  0
  7  8  1  0  0  0  0
  8  2  1  1  0  0  0
  8 12  1  0  0  0  0
  9 21  1  0  0  0  0
  9 14  2  0  0  0  0
 10  1  2  0  0  0  0
 11 18  1  0  0  0  0
 12 16  1  0  0  0  0
 13  5  1  6  0  0  0
 13 20  1  0  0  0  0
 15 25  1  0  0  0  0
 16 30  1  1  0  0  0
 17 16  1  0  0  0  0
 18 15  2  0  0  0  0
 18  5  1  0  0  0  0
 19 46  1  1  0  0  0
 19  9  1  0  0  0  0
 20 33  1  1  0  0  0
 20 28  1  0  0  0  0
 21 17  1  0  0  0  0
 22  3  1  0  0  0  0
 23 10  1  0  0  0  0
 23 11  2  0  0  0  0
 25 13  1  0  0  0  0
 26 27  1  0  0  0  0
 26 22  1  0  0  0  0
 28 24  2  0  0  0  0
 29 22  2  0  0  0  0
 29 19  1  0  0  0  0
 30 32  1  0  0  0  0
 30 31  1  0  0  0  0
 32 31  1  0  0  0  0
 33 34  1  0  0  0  0
 34 35  1  0  0  0  0
 35 36  1  0  0  0  0
 36 39  1  0  0  0  0
 37 38  2  0  0  0  0
 37 40  1  0  0  0  0
 39 37  1  0  0  0  0
 41 40  1  0  0  0  0
 42 41  1  0  0  0  0
 44 42  1  0  0  0  0
 44 43  1  1  0  0  0
 45 44  1  0  0  0  0
 47 46  1  0  0  0  0
 49 48  1  6  0  0  0
 49 47  1  0  0  0  0
 50 53  1  6  0  0  0
 50 49  1  0  0  0  0
 51 53  1  0  0  0  0
 52 53  1  0  0  0  0
 54 50  1  0  0  0  0
 55 54  1  0  0  0  0
 56 55  1  0  0  0  0
 57 56  1  0  0  0  0
 58 57  1  0  0  0  0
 59 58  1  0  0  0  0
 60 59  1  0  0  0  0
 62 61  2  6  0  0  0
 62 60  1  0  0  0  0
 63 62  1  0  0  0  0
 64 65  1  0  0  0  0
 65 62  1  0  0  0  0
M  END
>  <MODEL>
2

>  <REMARK>
 VINA RESULT:       4.2      2.049      2.940
  Name = 
  24 active torsions:
  status: ('A' for Active; 'I' for Inactive)
    1  A    between atoms: C_1  and  O_15
    2  A    between atoms: C_1  and  C_58
    3  A    between atoms: C_3  and  C_37
    4  A    between atoms: C_4  and  N_48
    5  A    between atoms: C_4  and  C_62
    6  A    between atoms: C_5  and  O_15
    7  A    between atoms: C_5  and  C_19
    8  A    between atoms: C_5  and  C_64
    9  A    between atoms: C_9  and  C_52
   10  A    between atoms: O_11  and  C_42
   11  A    between atoms: O_11  and  C_46
   12  A    between atoms: C_14  and  C_63
   13  A    between atoms: O_22  and  P_41
   14  A    between atoms: C_24  and  C_43
   15  A    between atoms: C_24  and  C_53
   16  A    between atoms: C_28  and  N_48
   17  A    between atoms: C_28  and  C_58
   18  A    between atoms: N_40  and  N_49
   19  A    between atoms: P_41  and  C_62
   20  A    between atoms: C_46  and  C_64
   21  A    between atoms: C_47  and  C_52
   22  A    between atoms: C_47  and  C_63
   23  A    between atoms: N_49  and  N_50
   24  A    between atoms: N_50  and  C_53
                            x       y       z     vdW  Elec       q    Type
                         _______ _______ _______ _____ _____    ______ ____

>  <TORSDO>
F 24

$$$$
=
 OpenBabel11052410323D

 65 69  0  0  1  0  0  0  0  0999 V2000
  161.2540  210.9530  147.8380 C   0  0  0  0  0  0  0  0  0  0  0  0
  158.3570  209.8160  153.1520 C   0  0  0  0  0  1  0  0  0  0  0  0
  162.0460  207.8620  152.1180 C   0  0  0  0  0  2  0  0  0  0  0  0
  162.7020  209.9110  149.6840 C   0  0  0  0  0  2  0  0  0  0  0  0
  159.7460  214.4530  149.0680 S   0  0  0  0  0  0  0  0  0  0  0  0
  162.0800  209.9090  148.3680 N   0  0  0  0  0  2  0  0  0  0  0  0
  160.5060  210.8480  152.2830 C   0  0  0  0  0  2  0  0  0  0  0  0
  159.8780  209.7740  153.1690 C   0  0  1  0  0  3  0  0  0  0  0  0
  161.1510  205.7720  153.2270 C   0  0  0  0  0  0  0  0  0  0  0  0
  160.7440  210.8060  146.5370 C   0  0  0  0  0  3  0  0  0  0  0  0
  159.5800  212.9360  146.7110 C   0  0  0  0  0  3  0  0  0  0  0  0
  160.3760  209.8610  154.5330 N   0  0  0  0  0  2  0  0  0  0  0  0
  160.5300  213.5330  150.4700 C   0  0  1  0  0  3  0  0  0  0  0  0
  160.8720  205.1340  154.2780 O   0  0  0  0  0  0  0  0  0  0  0  0
  160.9040  212.1180  148.5570 C   0  0  0  0  0  0  0  0  0  0  0  0
  161.7210  209.2860  154.5820 C   0  0  2  0  0  3  0  0  0  0  0  0
  161.6550  207.7590  154.6420 C   0  0  0  0  0  2  0  0  0  0  0  0
  160.1150  213.0930  147.9840 C   0  0  0  0  0  0  0  0  0  0  0  0
  160.8390  205.1710  151.8780 C   0  0  1  0  0  3  0  0  0  0  0  0
  159.4630  213.0920  151.4950 C   0  0  1  0  0  3  0  0  0  0  0  0
  161.6510  207.1150  153.3220 N   0  0  0  0  0  0  0  0  0  0  0  0
  162.2160  207.0050  150.8870 C   0  0  0  0  0  0  0  0  0  0  0  0
  159.9060  211.7860  145.9780 C   0  0  0  0  0  3  0  0  0  0  0  0
  160.2480  212.7050  153.7140 O   0  0  0  0  0  0  0  0  0  0  0  0
  161.2250  212.3710  149.9150 N   0  0  0  0  0  2  0  0  0  0  0  0
  162.9330  207.4950  149.7830 O   0  0  0  0  0  0  0  0  0  0  0  0
  163.6550  208.7300  149.8000 C   0  0  0  0  0  2  0  0  0  0  0  0
  160.0770  212.2570  152.5960 C   0  0  0  0  0  0  0  0  0  0  0  0
  161.6750  205.7950  150.8000 C   0  0  0  0  0  3  0  0  0  0  0  0
  162.4250  209.8230  155.8310 C   0  0  0  0  0  3  0  0  0  0  0  0
  161.8020  211.1600  156.1820 C   0  0  0  0  0  2  0  0  0  0  0  0
  163.1550  211.1050  155.5090 C   0  0  0  0  0  2  0  0  0  0  0  0
  158.7440  214.3160  152.0730 C   0  0  0  0  0  2  0  0  0  0  0  0
  157.3100  213.9780  152.4410 C   0  0  0  0  0  2  0  0  0  0  0  0
  157.0950  214.2550  153.8600 N   0  0  0  0  0  2  0  0  0  0  0  0
  158.3660  214.4320  154.4390 N   0  0  0  0  0  2  0  0  0  0  0  0
  158.4590  213.1690  156.5750 C   0  0  0  0  0  0  0  0  0  0  0  0
  158.2660  214.2150  157.2520 O   0  0  0  0  0  0  0  0  0  0  0  0
  158.6620  213.2580  155.1560 N   0  0  0  0  0  2  0  0  0  0  0  0
  158.4690  211.8310  157.2440 C   0  0  0  0  0  2  0  0  0  0  0  0
  157.1820  211.0750  156.9580 C   0  0  0  0  0  2  0  0  0  0  0  0
  155.9100  211.8700  157.2590 C   0  0  0  0  0  2  0  0  0  0  0  0
  155.2330  210.8170  155.0780 C   0  0  0  0  0  1  0  0  0  0  0  0
  154.9360  211.9220  156.0810 C   0  0  2  0  0  3  0  0  0  0  0  0
  155.0020  213.1610  155.4450 O   0  0  0  0  0  1  0  0  0  0  0  0
  161.0740  203.7900  151.8780 O   0  0  0  0  0  0  0  0  0  0  0  0
  159.9290  203.2130  151.3200 C   0  0  0  0  0  2  0  0  0  0  0  0
  159.0640  201.0980  150.5130 O   0  0  0  0  0  1  0  0  0  0  0  0
  160.2380  201.8160  150.7580 C   0  0  1  0  0  3  0  0  0  0  0  0
  161.1120  201.8890  149.4940 C   0  0  1  0  0  3  0  0  0  0  0  0
  161.6260  199.5280  149.6690 O   0  0  0  0  0  1  0  0  0  0  0  0
  162.2560  200.6160  147.7820 O   0  0  0  0  0  1  0  0  0  0  0  0
  161.2660  200.5300  148.7660 C   0  0  0  0  0  3  0  0  0  0  0  0
  160.5910  202.8580  148.6230 O   0  0  0  0  0  0  0  0  0  0  0  0
  161.6910  203.6380  148.2560 C   0  0  0  0  0  2  0  0  0  0  0  0
  161.2380  204.8430  147.4420 C   0  0  0  0  0  2  0  0  0  0  0  0
  162.4280  205.6440  146.9260 C   0  0  0  0  0  2  0  0  0  0  0  0
  163.0640  204.9360  145.8250 N   0  0  0  0  0  2  0  0  0  0  0  0
  162.4050  203.6430  145.7180 C   0  0  0  0  0  2  0  0  0  0  0  0
  161.1580  203.7770  144.8610 C   0  0  0  0  0  2  0  0  0  0  0  0
  159.5960  202.4010  146.6360 O   0  0  0  0  0  1  0  0  0  0  0  0
  159.9700  202.4250  145.1710 P   0  0  2  0  0  0  0  0  0  0  0  0
  160.6690  200.9480  144.7200 O   0  0  0  0  0  0  0  0  0  0  0  0
  158.8940  203.8000  143.4190 C   0  0  0  0  0  1  0  0  0  0  0  0
  158.5900  202.6940  144.2290 O   0  0  0  0  0  0  0  0  0  0  0  0
  1  6  1  0  0  0  0
  1 15  1  0  0  0  0
  3 21  1  0  0  0  0
  4 27  1  0  0  0  0
  6  4  1  0  0  0  0
  7 28  1  0  0  0  0
  7  8  1  0  0  0  0
  8  2  1  1  0  0  0
  8 12  1  0  0  0  0
  9 21  1  0  0  0  0
  9 14  2  0  0  0  0
 10  1  2  0  0  0  0
 11 18  1  0  0  0  0
 12 16  1  0  0  0  0
 13  5  1  6  0  0  0
 13 20  1  0  0  0  0
 15 25  1  0  0  0  0
 16 17  1  0  0  0  0
 16 30  1  1  0  0  0
 18 15  2  0  0  0  0
 18  5  1  0  0  0  0
 19 46  1  1  0  0  0
 19  9  1  0  0  0  0
 20 33  1  1  0  0  0
 20 28  1  0  0  0  0
 21 17  1  0  0  0  0
 22  3  1  0  0  0  0
 23 10  1  0  0  0  0
 23 11  2  0  0  0  0
 25 13  1  0  0  0  0
 26 27  1  0  0  0  0
 26 22  1  0  0  0  0
 28 24  2  0  0  0  0
 29 22  2  0  0  0  0
 29 19  1  0  0  0  0
 30 31  1  0  0  0  0
 32 30  1  0  0  0  0
 32 31  1  0  0  0  0
 33 34  1  0  0  0  0
 34 35  1  0  0  0  0
 35 36  1  0  0  0  0
 36 39  1  0  0  0  0
 37 40  1  0  0  0  0
 37 38  2  0  0  0  0
 39 37  1  0  0  0  0
 41 40  1  0  0  0  0
 41 42  1  0  0  0  0
 44 43  1  6  0  0  0
 44 42  1  0  0  0  0
 45 44  1  0  0  0  0
 47 46  1  0  0  0  0
 49 48  1  6  0  0  0
 49 47  1  0  0  0  0
 50 54  1  6  0  0  0
 50 49  1  0  0  0  0
 52 53  1  0  0  0  0
 53 50  1  0  0  0  0
 53 51  1  0  0  0  0
 55 54  1  0  0  0  0
 56 55  1  0  0  0  0
 57 56  1  0  0  0  0
 58 57  1  0  0  0  0
 59 58  1  0  0  0  0
 60 62  1  0  0  0  0
 60 59  1  0  0  0  0
 62 63  2  6  0  0  0
 62 61  1  0  0  0  0
 64 65  1  0  0  0  0
 65 62  1  0  0  0  0
M  END
>  <MODEL>
3

>  <REMARK>
 VINA RESULT:       6.4      1.484      2.436
  Name = 
  24 active torsions:
  status: ('A' for Active; 'I' for Inactive)
    1  A    between atoms: C_1  and  O_15
    2  A    between atoms: C_1  and  C_58
    3  A    between atoms: C_3  and  C_37
    4  A    between atoms: C_4  and  N_48
    5  A    between atoms: C_4  and  C_62
    6  A    between atoms: C_5  and  O_15
    7  A    between atoms: C_5  and  C_19
    8  A    between atoms: C_5  and  C_64
    9  A    between atoms: C_9  and  C_52
   10  A    between atoms: O_11  and  C_42
   11  A    between atoms: O_11  and  C_46
   12  A    between atoms: C_14  and  C_63
   13  A    between atoms: O_22  and  P_41
   14  A    between atoms: C_24  and  C_43
   15  A    between atoms: C_24  and  C_53
   16  A    between atoms: C_28  and  N_48
   17  A    between atoms: C_28  and  C_58
   18  A    between atoms: N_40  and  N_49
   19  A    between atoms: P_41  and  C_62
   20  A    between atoms: C_46  and  C_64
   21  A    between atoms: C_47  and  C_52
   22  A    between atoms: C_47  and  C_63
   23  A    between atoms: N_49  and  N_50
   24  A    between atoms: N_50  and  C_53
                            x       y       z     vdW  Elec       q    Type
                         _______ _______ _______ _____ _____    ______ ____

>  <TORSDO>
F 24

$$$$
