=
 OpenBabel11052410303D

 45 50  0  0  1  0  0  0  0  0999 V2000
  161.7500  207.5910  149.1630 C   0  0  2  0  0  3  0  0  0  0  0  0
  161.9600  208.3640  150.4790 C   0  0  1  0  0  3  0  0  0  0  0  0
  161.3840  209.0540  149.2530 C   0  0  1  0  0  3  0  0  0  0  0  0
  160.4590  206.7950  149.0440 C   0  0  1  0  0  3  0  0  0  0  0  0
  160.2610  206.3750  147.7460 C   0  0  0  0  0  2  0  0  0  0  0  0
  161.2830  204.0890  149.0700 C   0  0  0  0  0  0  0  0  0  0  0  0
  161.6760  203.8730  150.2450 O   0  0  0  0  0  0  0  0  0  0  0  0
  160.7970  205.3790  148.7170 N   0  0  0  0  0  0  0  0  0  0  0  0
  161.3770  202.9910  148.0450 C   0  0  1  0  0  3  0  0  0  0  0  0
  160.7700  201.6840  148.4650 C   0  0  0  0  0  0  0  0  0  0  0  0
  159.6510  201.6490  149.2920 O   0  0  0  0  0  1  0  0  0  0  0  0
  161.3000  200.6070  148.0920 O   0  0  0  0  0  0  0  0  0  0  0  0
  162.1730  204.0260  146.1540 C   0  0  0  0  0  1  0  0  0  0  0  0
  161.0620  203.3830  146.7270 O   0  0  0  0  0  0  0  0  0  0  0  0
  162.4720  209.8950  148.6220 C   0  0  0  0  0  2  0  0  0  0  0  0
  161.9920  211.3320  148.5230 C   0  0  0  0  0  2  0  0  0  0  0  0
  160.4700  212.6310  147.0340 C   0  0  0  0  0  3  0  0  0  0  0  0
  161.1740  211.5190  147.2840 C   0  0  0  0  0  3  0  0  0  0  0  0
  161.0530  213.4370  149.2950 C   0  0  0  0  0  3  0  0  0  0  0  0
  158.0720  214.4200  147.7100 O   0  0  0  0  0  0  0  0  0  0  0  0
  160.2050  213.4310  150.2760 N   0  0  0  0  0  0  0  0  0  0  0  0
  158.9320  213.7740  149.8200 N   0  0  0  0  0  0  0  0  0  0  0  0
  159.0270  214.0240  148.4310 C   0  0  0  0  0  0  0  0  0  0  0  0
  160.4210  213.8030  147.9730 C   0  0  2  0  0  3  0  0  0  0  0  0
  157.7900  213.9550  150.6670 C   0  0  0  0  0  0  0  0  0  0  0  0
  156.4470  213.9470  152.3790 N   0  0  0  0  0  0  0  0  0  0  0  0
  155.8950  213.7590  153.6890 C   0  0  0  0  0  0  0  0  0  0  0  0
  155.7620  214.4350  151.3550 N   0  0  0  0  0  0  0  0  0  0  0  0
  156.5650  214.4530  150.2700 C   0  0  0  0  0  3  0  0  0  0  0  0
  157.7020  213.6320  152.0020 C   0  0  0  0  0  3  0  0  0  0  0  0
  154.6820  214.0340  153.8980 O   0  0  0  0  0  0  0  0  0  0  0  0
  155.8710  213.0130  156.0320 C   0  0  0  0  0  2  0  0  0  0  0  0
  156.7330  213.1900  154.7970 C   0  0  0  0  0  3  0  0  0  0  0  0
  156.2500  211.8070  155.2000 C   0  0  0  0  0  2  0  0  0  0  0  0
  160.9560  208.0750  151.6330 C   0  0  1  0  0  3  0  0  0  0  0  0
  160.8740  205.7610  152.9000 C   0  0  0  0  0  2  0  0  0  0  0  0
  161.3160  207.2060  152.8570 C   0  0  0  0  0  0  0  0  0  0  0  0
  162.3370  206.1140  152.6340 C   0  0  0  0  0  2  0  0  0  0  0  0
  161.4400  207.8750  154.2180 C   0  0  0  0  0  2  0  0  0  0  0  0
  160.5750  207.1740  155.2420 C   0  0  0  0  0  2  0  0  0  0  0  0
  161.0780  207.4900  156.6340 C   0  0  0  0  0  2  0  0  0  0  0  0
  160.8720  209.2590  156.9820 S   0  0  0  0  0  0  0  0  0  0  0  0
  162.6580  209.5010  157.2250 C   0  0  0  0  0  1  0  0  0  0  0  0
  161.0140  210.1920  152.3030 C   0  0  0  0  0  1  0  0  0  0  0  0
  160.1350  209.1610  151.9600 O   0  0  0  0  0  0  0  0  0  0  0  0
  1  4  1  1  0  0  0
  1  3  1  0  0  0  0
  1  2  1  0  0  0  0
  2 35  1  1  0  0  0
  3 15  1  6  0  0  0
  3  2  1  0  0  0  0
  4  5  1  6  0  0  0
  5  8  1  0  0  0  0
  6  7  2  0  0  0  0
  8  4  1  0  0  0  0
  8  6  1  0  0  0  0
  9 14  1  6  0  0  0
  9 10  1  0  0  0  0
  9  6  1  0  0  0  0
 10 11  1  0  0  0  0
 12 10  2  0  0  0  0
 13 14  1  0  0  0  0
 16 15  1  0  0  0  0
 17 18  2  0  0  0  0
 18 16  1  0  0  0  0
 19 21  2  0  0  0  0
 20 23  2  0  0  0  0
 22 21  1  0  0  0  0
 22 25  1  0  0  0  0
 23 22  1  0  0  0  0
 24 17  1  6  0  0  0
 24 23  1  0  0  0  0
 24 19  1  0  0  0  0
 25 30  2  0  0  0  0
 26 27  1  0  0  0  0
 27 31  2  0  0  0  0
 27 33  1  0  0  0  0
 28 26  1  0  0  0  0
 29 25  1  0  0  0  0
 29 28  2  0  0  0  0
 30 26  1  0  0  0  0
 33 34  1  0  0  0  0
 33 32  1  0  0  0  0
 34 32  1  0  0  0  0
 35 45  1  1  0  0  0
 35 37  1  0  0  0  0
 37 36  1  0  0  0  0
 37 39  1  0  0  0  0
 38 37  1  0  0  0  0
 38 36  1  0  0  0  0
 39 40  1  0  0  0  0
 40 41  1  0  0  0  0
 41 42  1  0  0  0  0
 42 43  1  0  0  0  0
 45 44  1  0  0  0  0
M  END
>  <MODEL>
1

>  <REMARK>
 VINA RESULT:      -6.4      0.000      0.000
  Name = 
  17 active torsions:
  status: ('A' for Active; 'I' for Inactive)
    1  A    between atoms: C_1  and  C_22
    2  A    between atoms: C_1  and  C_29
    3  A    between atoms: C_3  and  C_45
    4  A    between atoms: C_6  and  N_34
    5  A    between atoms: C_7  and  C_13
    6  A    between atoms: C_8  and  C_39
    7  A    between atoms: C_14  and  C_35
    8  A    between atoms: C_15  and  C_19
    9  A    between atoms: C_20  and  C_29
   10  A    between atoms: C_21  and  C_39
   11  A    between atoms: C_24  and  C_36
   12  A    between atoms: C_24  and  C_43
   13  A    between atoms: S_25  and  C_43
   14  A    between atoms: C_31  and  C_35
   15  A    between atoms: C_31  and  C_36
   16  A    between atoms: C_35  and  O_37
   17  A    between atoms: C_39  and  O_42
                            x       y       z     vdW  Elec       q    Type
                         _______ _______ _______ _____ _____    ______ ____

>  <TORSDO>
F 17

$$$$
=
 OpenBabel11052410303D

 45 50  0  0  1  0  0  0  0  0999 V2000
  159.7030  210.4120  153.8110 C   0  0  2  0  0  3  0  0  0  0  0  0
  159.5640  210.3860  155.3440 C   0  0  1  0  0  3  0  0  0  0  0  0
  160.4450  209.3780  154.6250 C   0  0  1  0  0  3  0  0  0  0  0  0
  160.7300  211.3780  153.2400 C   0  0  1  0  0  3  0  0  0  0  0  0
  161.0750  211.0240  151.9530 C   0  0  0  0  0  2  0  0  0  0  0  0
  159.2270  213.1440  151.6190 C   0  0  0  0  0  0  0  0  0  0  0  0
  158.5540  213.8400  152.4230 O   0  0  0  0  0  0  0  0  0  0  0  0
  160.1020  212.1400  152.1210 N   0  0  0  0  0  0  0  0  0  0  0  0
  159.0590  213.3530  150.1380 C   0  0  1  0  0  3  0  0  0  0  0  0
  157.6410  213.5500  149.6870 C   0  0  0  0  0  0  0  0  0  0  0  0
  157.3110  213.5160  148.3350 O   0  0  0  0  0  0  0  0  0  0  0  0
  156.7460  213.7810  150.5390 O   0  0  0  0  0  1  0  0  0  0  0  0
  160.9780  213.5140  148.8830 C   0  0  0  0  0  1  0  0  0  0  0  0
  159.9850  214.2460  149.5580 O   0  0  0  0  0  0  0  0  0  0  0  0
  159.7110  208.0560  154.5670 C   0  0  0  0  0  2  0  0  0  0  0  0
  160.6260  206.9580  155.0790 C   0  0  0  0  0  2  0  0  0  0  0  0
  161.9130  206.1090  153.1190 C   0  0  0  0  0  3  0  0  0  0  0  0
  161.8500  206.8660  154.2230 C   0  0  0  0  0  3  0  0  0  0  0  0
  161.0410  203.8080  152.9030 C   0  0  0  0  0  3  0  0  0  0  0  0
  160.5180  206.2110  150.3890 O   0  0  0  0  0  0  0  0  0  0  0  0
  161.1840  203.1090  151.8200 N   0  0  0  0  0  0  0  0  0  0  0  0
  161.0370  203.9210  150.6950 N   0  0  0  0  0  0  0  0  0  0  0  0
  160.7670  205.2340  151.1450 C   0  0  0  0  0  0  0  0  0  0  0  0
  160.7690  205.2680  152.6290 C   0  0  2  0  0  3  0  0  0  0  0  0
  161.0390  203.4400  149.3440 C   0  0  0  0  0  0  0  0  0  0  0  0
  161.2020  203.3240  147.1770 N   0  0  0  0  0  0  0  0  0  0  0  0
  161.4070  203.6530  145.7970 C   0  0  0  0  0  0  0  0  0  0  0  0
  160.7880  202.1370  147.5970 N   0  0  0  0  0  0  0  0  0  0  0  0
  160.6720  202.1720  148.9410 C   0  0  0  0  0  3  0  0  0  0  0  0
  161.3660  204.1630  148.2190 C   0  0  0  0  0  3  0  0  0  0  0  0
  161.1540  202.7950  144.9080 O   0  0  0  0  0  0  0  0  0  0  0  0
  161.2900  205.3710  144.0410 C   0  0  0  0  0  2  0  0  0  0  0  0
  161.8680  205.0260  145.4000 C   0  0  0  0  0  3  0  0  0  0  0  0
  160.7000  205.9900  145.2890 C   0  0  0  0  0  2  0  0  0  0  0  0
  160.3100  211.4990  156.1370 C   0  0  1  0  0  3  0  0  0  0  0  0
  160.4480  213.8860  157.2540 C   0  0  0  0  0  2  0  0  0  0  0  0
  159.6270  212.8100  156.5820 C   0  0  0  0  0  0  0  0  0  0  0  0
  159.9890  214.0570  155.8070 C   0  0  0  0  0  2  0  0  0  0  0  0
  158.1650  212.7680  157.0020 C   0  0  0  0  0  2  0  0  0  0  0  0
  157.3230  213.6500  156.1070 C   0  0  0  0  0  2  0  0  0  0  0  0
  156.9850  212.9070  154.8320 C   0  0  0  0  0  2  0  0  0  0  0  0
  155.2220  212.4760  154.8130 S   0  0  0  0  0  0  0  0  0  0  0  0
  155.5500  210.7790  155.3770 C   0  0  0  0  0  1  0  0  0  0  0  0
  162.4730  211.1230  156.4750 C   0  0  0  0  0  1  0  0  0  0  0  0
  161.2200  211.0120  157.0840 O   0  0  0  0  0  0  0  0  0  0  0  0
  1  4  1  1  0  0  0
  1  3  1  0  0  0  0
  1  2  1  0  0  0  0
  2 35  1  1  0  0  0
  3 15  1  6  0  0  0
  3  2  1  0  0  0  0
  4  5  1  6  0  0  0
  5  8  1  0  0  0  0
  6  8  1  0  0  0  0
  6  7  2  0  0  0  0
  8  4  1  0  0  0  0
  9 14  1  1  0  0  0
  9  6  1  0  0  0  0
 10  9  1  0  0  0  0
 10 12  1  0  0  0  0
 11 10  2  0  0  0  0
 13 14  1  0  0  0  0
 15 16  1  0  0  0  0
 17 18  2  0  0  0  0
 18 16  1  0  0  0  0
 20 23  2  0  0  0  0
 21 19  2  0  0  0  0
 22 23  1  0  0  0  0
 22 21  1  0  0  0  0
 23 24  1  0  0  0  0
 24 19  1  0  0  0  0
 24 17  1  6  0  0  0
 25 22  1  0  0  0  0
 26 28  1  0  0  0  0
 26 30  1  0  0  0  0
 27 26  1  0  0  0  0
 28 29  2  0  0  0  0
 29 25  1  0  0  0  0
 30 25  2  0  0  0  0
 31 27  2  0  0  0  0
 32 34  1  0  0  0  0
 32 33  1  0  0  0  0
 33 27  1  0  0  0  0
 34 33  1  0  0  0  0
 35 37  1  0  0  0  0
 35 45  1  1  0  0  0
 37 39  1  0  0  0  0
 37 36  1  0  0  0  0
 38 37  1  0  0  0  0
 38 36  1  0  0  0  0
 40 39  1  0  0  0  0
 41 40  1  0  0  0  0
 42 41  1  0  0  0  0
 42 43  1  0  0  0  0
 44 45  1  0  0  0  0
M  END
>  <MODEL>
2

>  <REMARK>
 VINA RESULT:      -6.3      2.588      9.934
  Name = 
  17 active torsions:
  status: ('A' for Active; 'I' for Inactive)
    1  A    between atoms: C_1  and  C_22
    2  A    between atoms: C_1  and  C_29
    3  A    between atoms: C_3  and  C_45
    4  A    between atoms: C_6  and  N_34
    5  A    between atoms: C_7  and  C_13
    6  A    between atoms: C_8  and  C_39
    7  A    between atoms: C_14  and  C_35
    8  A    between atoms: C_15  and  C_19
    9  A    between atoms: C_20  and  C_29
   10  A    between atoms: C_21  and  C_39
   11  A    between atoms: C_24  and  C_36
   12  A    between atoms: C_24  and  C_43
   13  A    between atoms: S_25  and  C_43
   14  A    between atoms: C_31  and  C_35
   15  A    between atoms: C_31  and  C_36
   16  A    between atoms: C_35  and  O_37
   17  A    between atoms: C_39  and  O_42
                            x       y       z     vdW  Elec       q    Type
                         _______ _______ _______ _____ _____    ______ ____

>  <TORSDO>
F 17

$$$$
=
 OpenBabel11052410303D

 45 50  0  0  1  0  0  0  0  0999 V2000
  161.0120  209.6440  151.5500 C   0  0  2  0  0  3  0  0  0  0  0  0
  161.1970  208.6680  150.3720 C   0  0  1  0  0  3  0  0  0  0  0  0
  161.9230  210.0040  150.4000 C   0  0  1  0  0  3  0  0  0  0  0  0
  161.8830  209.4000  152.7740 C   0  0  1  0  0  3  0  0  0  0  0  0
  162.6250  210.5200  153.0780 C   0  0  0  0  0  2  0  0  0  0  0  0
  160.4660  210.5980  154.9090 C   0  0  0  0  0  0  0  0  0  0  0  0
  159.4590  209.8660  155.0900 O   0  0  0  0  0  0  0  0  0  0  0  0
  161.4000  210.2670  153.8870 N   0  0  0  0  0  0  0  0  0  0  0  0
  160.6420  211.8360  155.7460 C   0  0  1  0  0  3  0  0  0  0  0  0
  159.6420  212.9240  155.4800 C   0  0  0  0  0  0  0  0  0  0  0  0
  159.1310  213.6940  156.5200 O   0  0  0  0  0  1  0  0  0  0  0  0
  159.2380  213.1190  154.3060 O   0  0  0  0  0  0  0  0  0  0  0  0
  162.1590  211.0060  157.2600 C   0  0  0  0  0  1  0  0  0  0  0  0
  160.8910  211.5960  157.1140 O   0  0  0  0  0  0  0  0  0  0  0  0
  161.2130  210.9540  149.4610 C   0  0  0  0  0  2  0  0  0  0  0  0
  162.0230  212.2330  149.3450 C   0  0  0  0  0  2  0  0  0  0  0  0
  162.8820  212.5670  147.0280 C   0  0  0  0  0  3  0  0  0  0  0  0
  163.0540  212.0960  148.2700 C   0  0  0  0  0  3  0  0  0  0  0  0
  160.4380  212.3620  146.7300 C   0  0  0  0  0  3  0  0  0  0  0  0
  162.4210  214.1470  144.4390 O   0  0  0  0  0  0  0  0  0  0  0  0
  159.9000  212.0440  145.5940 N   0  0  0  0  0  0  0  0  0  0  0  0
  160.5900  212.6490  144.5430 N   0  0  0  0  0  0  0  0  0  0  0  0
  161.6370  213.4170  145.1030 C   0  0  0  0  0  0  0  0  0  0  0  0
  161.6340  213.2740  146.5800 C   0  0  2  0  0  3  0  0  0  0  0  0
  160.1920  212.5810  143.1680 C   0  0  0  0  0  0  0  0  0  0  0  0
  160.0780  212.0600  141.0580 N   0  0  0  0  0  0  0  0  0  0  0  0
  160.3280  211.4720  139.7750 C   0  0  0  0  0  0  0  0  0  0  0  0
  159.1670  212.9980  141.2730 N   0  0  0  0  0  0  0  0  0  0  0  0
  159.2100  213.3490  142.5750 C   0  0  0  0  0  3  0  0  0  0  0  0
  160.7390  211.7730  142.1970 C   0  0  0  0  0  3  0  0  0  0  0  0
  159.6830  211.8750  138.7690 O   0  0  0  0  0  0  0  0  0  0  0  0
  161.9010  210.4520  138.1820 C   0  0  0  0  0  2  0  0  0  0  0  0
  161.3870  210.4200  139.6090 C   0  0  0  0  0  3  0  0  0  0  0  0
  162.7380  211.0410  139.2970 C   0  0  0  0  0  2  0  0  0  0  0  0
  162.0740  207.4100  150.6310 C   0  0  1  0  0  3  0  0  0  0  0  0
  162.3580  205.1390  151.9460 C   0  0  0  0  0  2  0  0  0  0  0  0
  161.4900  206.0710  151.1340 C   0  0  0  0  0  0  0  0  0  0  0  0
  161.2560  205.9530  152.6220 C   0  0  0  0  0  2  0  0  0  0  0  0
  160.4200  205.3820  150.3010 C   0  0  0  0  0  2  0  0  0  0  0  0
  161.0410  204.6320  149.1430 C   0  0  0  0  0  2  0  0  0  0  0  0
  160.8620  203.1430  149.3470 C   0  0  0  0  0  2  0  0  0  0  0  0
  160.9650  202.2820  147.7530 S   0  0  0  0  0  0  0  0  0  0  0  0
  161.3340  200.6880  148.5470 C   0  0  0  0  0  1  0  0  0  0  0  0
  162.5620  207.5970  148.4720 C   0  0  0  0  0  1  0  0  0  0  0  0
  163.1110  207.2370  149.7060 O   0  0  0  0  0  0  0  0  0  0  0  0
  1  4  1  1  0  0  0
  2  3  1  0  0  0  0
  2 35  1  1  0  0  0
  2  1  1  0  0  0  0
  3 15  1  6  0  0  0
  3  1  1  0  0  0  0
  4  5  1  6  0  0  0
  4  8  1  0  0  0  0
  5  8  1  0  0  0  0
  6  7  2  0  0  0  0
  8  6  1  0  0  0  0
  9  6  1  1  0  0  0
  9 14  1  0  0  0  0
 10  9  1  0  0  0  0
 10 11  1  0  0  0  0
 12 10  2  0  0  0  0
 14 13  1  0  0  0  0
 16 15  1  0  0  0  0
 17 18  2  0  0  0  0
 18 16  1  0  0  0  0
 20 23  2  0  0  0  0
 21 19  2  0  0  0  0
 22 23  1  0  0  0  0
 22 21  1  0  0  0  0
 23 24  1  0  0  0  0
 24 19  1  0  0  0  0
 24 17  1  6  0  0  0
 25 22  1  0  0  0  0
 26 28  1  0  0  0  0
 26 30  1  0  0  0  0
 27 26  1  0  0  0  0
 28 29  2  0  0  0  0
 29 25  1  0  0  0  0
 30 25  2  0  0  0  0
 31 27  2  0  0  0  0
 32 34  1  0  0  0  0
 32 33  1  0  0  0  0
 33 27  1  0  0  0  0
 34 33  1  0  0  0  0
 35 45  1  6  0  0  0
 35 37  1  0  0  0  0
 36 38  1  0  0  0  0
 37 36  1  0  0  0  0
 37 38  1  0  0  0  0
 39 37  1  0  0  0  0
 40 41  1  0  0  0  0
 40 39  1  0  0  0  0
 42 43  1  0  0  0  0
 42 41  1  0  0  0  0
 44 45  1  0  0  0  0
M  END
>  <MODEL>
3

>  <REMARK>
 VINA RESULT:      -5.9      4.684      9.244
  Name = 
  17 active torsions:
  status: ('A' for Active; 'I' for Inactive)
    1  A    between atoms: C_1  and  C_22
    2  A    between atoms: C_1  and  C_29
    3  A    between atoms: C_3  and  C_45
    4  A    between atoms: C_6  and  N_34
    5  A    between atoms: C_7  and  C_13
    6  A    between atoms: C_8  and  C_39
    7  A    between atoms: C_14  and  C_35
    8  A    between atoms: C_15  and  C_19
    9  A    between atoms: C_20  and  C_29
   10  A    between atoms: C_21  and  C_39
   11  A    between atoms: C_24  and  C_36
   12  A    between atoms: C_24  and  C_43
   13  A    between atoms: S_25  and  C_43
   14  A    between atoms: C_31  and  C_35
   15  A    between atoms: C_31  and  C_36
   16  A    between atoms: C_35  and  O_37
   17  A    between atoms: C_39  and  O_42
                            x       y       z     vdW  Elec       q    Type
                         _______ _______ _______ _____ _____    ______ ____

>  <TORSDO>
F 17

$$$$
=
 OpenBabel11052410303D

 45 50  0  0  1  0  0  0  0  0999 V2000
  161.2990  208.6350  150.0280 C   0  0  2  0  0  3  0  0  0  0  0  0
  161.1590  207.6380  148.8620 C   0  0  1  0  0  3  0  0  0  0  0  0
  161.9870  208.9040  148.7110 C   0  0  1  0  0  3  0  0  0  0  0  0
  162.3750  208.3240  151.0590 C   0  0  1  0  0  3  0  0  0  0  0  0
  162.8380  209.4800  151.6480 C   0  0  0  0  0  2  0  0  0  0  0  0
  161.0270  208.4110  153.5460 C   0  0  0  0  0  0  0  0  0  0  0  0
  160.2820  207.3970  153.5540 O   0  0  0  0  0  0  0  0  0  0  0  0
  161.8530  208.6650  152.4150 N   0  0  0  0  0  0  0  0  0  0  0  0
  160.9980  209.3610  154.7120 C   0  0  1  0  0  3  0  0  0  0  0  0
  161.6940  208.8650  155.9460 C   0  0  0  0  0  0  0  0  0  0  0  0
  162.6420  209.6510  156.5960 O   0  0  0  0  0  1  0  0  0  0  0  0
  161.4420  207.7120  156.3780 O   0  0  0  0  0  0  0  0  0  0  0  0
  160.1120  211.3120  153.8810 C   0  0  0  0  0  1  0  0  0  0  0  0
  161.2750  210.7050  154.3880 O   0  0  0  0  0  0  0  0  0  0  0  0
  161.1860  209.9070  147.9100 C   0  0  0  0  0  2  0  0  0  0  0  0
  161.8910  211.2520  147.9540 C   0  0  0  0  0  2  0  0  0  0  0  0
  160.9880  213.0720  149.3990 C   0  0  0  0  0  3  0  0  0  0  0  0
  161.6540  211.9160  149.2730 C   0  0  0  0  0  3  0  0  0  0  0  0
  159.3120  213.0250  147.5850 C   0  0  0  0  0  3  0  0  0  0  0  0
  162.4960  214.4400  147.1050 O   0  0  0  0  0  0  0  0  0  0  0  0
  159.6030  212.6460  146.3790 N   0  0  0  0  0  0  0  0  0  0  0  0
  160.8730  213.1000  146.0200 N   0  0  0  0  0  0  0  0  0  0  0  0
  161.3910  213.8340  147.1120 C   0  0  0  0  0  0  0  0  0  0  0  0
  160.4170  213.8270  148.2320 C   0  0  2  0  0  3  0  0  0  0  0  0
  161.4530  212.9360  144.7200 C   0  0  0  0  0  0  0  0  0  0  0  0
  161.7530  212.4370  142.6230 N   0  0  0  0  0  0  0  0  0  0  0  0
  161.5540  211.9750  141.2810 C   0  0  0  0  0  0  0  0  0  0  0  0
  162.9070  212.9050  143.0770 N   0  0  0  0  0  0  0  0  0  0  0  0
  162.7600  213.2240  144.3800 C   0  0  0  0  0  3  0  0  0  0  0  0
  160.8270  212.4330  143.6020 C   0  0  0  0  0  3  0  0  0  0  0  0
  162.5230  211.9710  140.4740 O   0  0  0  0  0  0  0  0  0  0  0  0
  159.2210  212.5920  140.8050 C   0  0  0  0  0  2  0  0  0  0  0  0
  160.2170  211.4490  140.8450 C   0  0  0  0  0  3  0  0  0  0  0  0
  159.7940  212.0490  139.5150 C   0  0  0  0  0  2  0  0  0  0  0  0
  161.9600  206.3090  148.9710 C   0  0  1  0  0  3  0  0  0  0  0  0
  161.7890  204.7650  151.1050 C   0  0  0  0  0  2  0  0  0  0  0  0
  161.4030  205.0510  149.6720 C   0  0  0  0  0  0  0  0  0  0  0  0
  160.3910  205.2820  150.7710 C   0  0  0  0  0  2  0  0  0  0  0  0
  161.1070  203.8170  148.8330 C   0  0  0  0  0  2  0  0  0  0  0  0
  160.7580  202.6390  149.7150 C   0  0  0  0  0  2  0  0  0  0  0  0
  160.6730  201.3820  148.8750 C   0  0  0  0  0  2  0  0  0  0  0  0
  160.8890  201.7930  147.1200 S   0  0  0  0  0  0  0  0  0  0  0  0
  161.3020  200.0760  146.6870 C   0  0  0  0  0  1  0  0  0  0  0  0
  161.8780  206.2690  146.7520 C   0  0  0  0  0  1  0  0  0  0  0  0
  162.7210  206.0060  147.8350 O   0  0  0  0  0  0  0  0  0  0  0  0
  1  4  1  1  0  0  0
  2 35  1  1  0  0  0
  2  1  1  0  0  0  0
  3 15  1  6  0  0  0
  3  2  1  0  0  0  0
  3  1  1  0  0  0  0
  4  5  1  6  0  0  0
  4  8  1  0  0  0  0
  5  8  1  0  0  0  0
  6  7  2  0  0  0  0
  8  6  1  0  0  0  0
  9  6  1  6  0  0  0
  9 10  1  0  0  0  0
 10 12  2  0  0  0  0
 10 11  1  0  0  0  0
 13 14  1  0  0  0  0
 14  9  1  0  0  0  0
 15 16  1  0  0  0  0
 16 18  1  0  0  0  0
 18 17  2  0  0  0  0
 19 24  1  0  0  0  0
 20 23  2  0  0  0  0
 21 19  2  0  0  0  0
 22 21  1  0  0  0  0
 22 23  1  0  0  0  0
 23 24  1  0  0  0  0
 24 17  1  1  0  0  0
 25 22  1  0  0  0  0
 26 28  1  0  0  0  0
 26 30  1  0  0  0  0
 27 26  1  0  0  0  0
 28 29  2  0  0  0  0
 29 25  1  0  0  0  0
 30 25  2  0  0  0  0
 31 27  2  0  0  0  0
 32 33  1  0  0  0  0
 33 27  1  0  0  0  0
 34 32  1  0  0  0  0
 34 33  1  0  0  0  0
 35 45  1  6  0  0  0
 35 37  1  0  0  0  0
 37 38  1  0  0  0  0
 37 36  1  0  0  0  0
 38 36  1  0  0  0  0
 39 37  1  0  0  0  0
 39 40  1  0  0  0  0
 41 40  1  0  0  0  0
 42 41  1  0  0  0  0
 43 42  1  0  0  0  0
 44 45  1  0  0  0  0
M  END
>  <MODEL>
4

>  <REMARK>
 VINA RESULT:      -5.6      4.108      8.375
  Name = 
  17 active torsions:
  status: ('A' for Active; 'I' for Inactive)
    1  A    between atoms: C_1  and  C_22
    2  A    between atoms: C_1  and  C_29
    3  A    between atoms: C_3  and  C_45
    4  A    between atoms: C_6  and  N_34
    5  A    between atoms: C_7  and  C_13
    6  A    between atoms: C_8  and  C_39
    7  A    between atoms: C_14  and  C_35
    8  A    between atoms: C_15  and  C_19
    9  A    between atoms: C_20  and  C_29
   10  A    between atoms: C_21  and  C_39
   11  A    between atoms: C_24  and  C_36
   12  A    between atoms: C_24  and  C_43
   13  A    between atoms: S_25  and  C_43
   14  A    between atoms: C_31  and  C_35
   15  A    between atoms: C_31  and  C_36
   16  A    between atoms: C_35  and  O_37
   17  A    between atoms: C_39  and  O_42
                            x       y       z     vdW  Elec       q    Type
                         _______ _______ _______ _____ _____    ______ ____

>  <TORSDO>
F 17

$$$$
=
 OpenBabel11052410303D

 45 50  0  0  1  0  0  0  0  0999 V2000
  160.9610  206.5290  150.6620 C   0  0  2  0  0  3  0  0  0  0  0  0
  160.9020  205.8120  149.3000 C   0  0  1  0  0  3  0  0  0  0  0  0
  161.8490  206.9800  149.5260 C   0  0  1  0  0  3  0  0  0  0  0  0
  161.8500  205.8960  151.7230 C   0  0  1  0  0  3  0  0  0  0  0  0
  162.9090  206.7210  152.0310 C   0  0  0  0  0  2  0  0  0  0  0  0
  161.0680  207.1360  154.1430 C   0  0  0  0  0  0  0  0  0  0  0  0
  159.9180  206.6880  154.3880 O   0  0  0  0  0  0  0  0  0  0  0  0
  161.7550  206.7040  152.9730 N   0  0  0  0  0  0  0  0  0  0  0  0
  161.6780  208.1560  155.0660 C   0  0  1  0  0  3  0  0  0  0  0  0
  161.2320  209.5680  154.8270 C   0  0  0  0  0  0  0  0  0  0  0  0
  159.8780  209.8910  154.7750 O   0  0  0  0  0  1  0  0  0  0  0  0
  162.0920  210.4660  154.6380 O   0  0  0  0  0  0  0  0  0  0  0  0
  161.1800  208.8140  157.2120 C   0  0  0  0  0  1  0  0  0  0  0  0
  161.7130  207.7780  156.4250 O   0  0  0  0  0  0  0  0  0  0  0  0
  161.2580  208.2080  148.8690 C   0  0  0  0  0  2  0  0  0  0  0  0
  162.0480  209.4300  149.3040 C   0  0  0  0  0  2  0  0  0  0  0  0
  161.5220  211.8310  148.8840 C   0  0  0  0  0  3  0  0  0  0  0  0
  161.7310  210.5930  148.4170 C   0  0  0  0  0  3  0  0  0  0  0  0
  161.1690  210.9920  151.1800 C   0  0  0  0  0  3  0  0  0  0  0  0
  160.3480  214.2940  150.2880 O   0  0  0  0  0  0  0  0  0  0  0  0
  160.0620  211.1860  151.8290 N   0  0  0  0  0  0  0  0  0  0  0  0
  159.5620  212.4610  151.5660 N   0  0  0  0  0  0  0  0  0  0  0  0
  160.4620  213.1020  150.6830 C   0  0  0  0  0  0  0  0  0  0  0  0
  161.5760  212.1820  150.3430 C   0  0  2  0  0  3  0  0  0  0  0  0
  158.4070  213.0250  152.2020 C   0  0  0  0  0  0  0  0  0  0  0  0
  156.8660  213.5180  153.6560 N   0  0  0  0  0  0  0  0  0  0  0  0
  156.0770  213.5810  154.8520 C   0  0  0  0  0  0  0  0  0  0  0  0
  156.5390  214.1290  152.5260 N   0  0  0  0  0  0  0  0  0  0  0  0
  157.4750  213.8440  151.5960 C   0  0  0  0  0  3  0  0  0  0  0  0
  158.0090  212.8210  153.5030 C   0  0  0  0  0  3  0  0  0  0  0  0
  154.9890  214.2180  154.8470 O   0  0  0  0  0  0  0  0  0  0  0  0
  155.3090  212.6590  156.9980 C   0  0  0  0  0  2  0  0  0  0  0  0
  156.5090  212.8510  156.0900 C   0  0  0  0  0  3  0  0  0  0  0  0
  155.8380  211.4920  156.1930 C   0  0  0  0  0  2  0  0  0  0  0  0
  161.5620  204.4050  149.2160 C   0  0  1  0  0  3  0  0  0  0  0  0
  161.3570  202.5320  151.0640 C   0  0  0  0  0  2  0  0  0  0  0  0
  160.8840  203.1290  149.7590 C   0  0  0  0  0  0  0  0  0  0  0  0
  160.0320  203.2900  150.9960 C   0  0  0  0  0  2  0  0  0  0  0  0
  160.3180  202.1240  148.7670 C   0  0  0  0  0  2  0  0  0  0  0  0
  161.2530  200.9460  148.6020 C   0  0  0  0  0  2  0  0  0  0  0  0
  161.1990  200.4500  147.1730 C   0  0  0  0  0  2  0  0  0  0  0  0
  160.7270  201.8050  146.0620 S   0  0  0  0  0  0  0  0  0  0  0  0
  159.9530  200.6670  144.8730 C   0  0  0  0  0  1  0  0  0  0  0  0
  161.6670  204.9990  147.0790 C   0  0  0  0  0  1  0  0  0  0  0  0
  162.2770  204.1800  148.0330 O   0  0  0  0  0  0  0  0  0  0  0  0
  1  4  1  1  0  0  0
  2 35  1  1  0  0  0
  2  3  1  0  0  0  0
  2  1  1  0  0  0  0
  3 15  1  6  0  0  0
  3  1  1  0  0  0  0
  4  5  1  6  0  0  0
  4  8  1  0  0  0  0
  5  8  1  0  0  0  0
  6  7  2  0  0  0  0
  8  6  1  0  0  0  0
  9  6  1  6  0  0  0
  9 14  1  0  0  0  0
 10  9  1  0  0  0  0
 11 10  1  0  0  0  0
 12 10  2  0  0  0  0
 14 13  1  0  0  0  0
 15 16  1  0  0  0  0
 18 17  2  0  0  0  0
 18 16  1  0  0  0  0
 19 21  2  0  0  0  0
 20 23  2  0  0  0  0
 22 21  1  0  0  0  0
 22 25  1  0  0  0  0
 23 22  1  0  0  0  0
 24 17  1  6  0  0  0
 24 23  1  0  0  0  0
 24 19  1  0  0  0  0
 25 30  2  0  0  0  0
 26 27  1  0  0  0  0
 27 33  1  0  0  0  0
 28 26  1  0  0  0  0
 29 25  1  0  0  0  0
 29 28  2  0  0  0  0
 30 26  1  0  0  0  0
 31 27  2  0  0  0  0
 33 34  1  0  0  0  0
 33 32  1  0  0  0  0
 34 32  1  0  0  0  0
 35 45  1  6  0  0  0
 35 37  1  0  0  0  0
 37 38  1  0  0  0  0
 37 36  1  0  0  0  0
 38 36  1  0  0  0  0
 39 37  1  0  0  0  0
 40 39  1  0  0  0  0
 41 40  1  0  0  0  0
 42 41  1  0  0  0  0
 43 42  1  0  0  0  0
 44 45  1  0  0  0  0
M  END
>  <MODEL>
5

>  <REMARK>
 VINA RESULT:      -5.4      2.786      6.285
  Name = 
  17 active torsions:
  status: ('A' for Active; 'I' for Inactive)
    1  A    between atoms: C_1  and  C_22
    2  A    between atoms: C_1  and  C_29
    3  A    between atoms: C_3  and  C_45
    4  A    between atoms: C_6  and  N_34
    5  A    between atoms: C_7  and  C_13
    6  A    between atoms: C_8  and  C_39
    7  A    between atoms: C_14  and  C_35
    8  A    between atoms: C_15  and  C_19
    9  A    between atoms: C_20  and  C_29
   10  A    between atoms: C_21  and  C_39
   11  A    between atoms: C_24  and  C_36
   12  A    between atoms: C_24  and  C_43
   13  A    between atoms: S_25  and  C_43
   14  A    between atoms: C_31  and  C_35
   15  A    between atoms: C_31  and  C_36
   16  A    between atoms: C_35  and  O_37
   17  A    between atoms: C_39  and  O_42
                            x       y       z     vdW  Elec       q    Type
                         _______ _______ _______ _____ _____    ______ ____

>  <TORSDO>
F 17

$$$$
=
 OpenBabel11052410303D

 45 50  0  0  1  0  0  0  0  0999 V2000
  162.1810  207.3580  148.8660 C   0  0  2  0  0  3  0  0  0  0  0  0
  162.4510  208.1220  150.1760 C   0  0  1  0  0  3  0  0  0  0  0  0
  161.6130  208.7430  149.0690 C   0  0  1  0  0  3  0  0  0  0  0  0
  161.0210  206.3730  148.8840 C   0  0  1  0  0  3  0  0  0  0  0  0
  160.1670  206.6030  147.8280 C   0  0  0  0  0  2  0  0  0  0  0  0
  161.7320  204.3970  146.9880 C   0  0  0  0  0  0  0  0  0  0  0  0
  162.6870  203.7660  147.5100 O   0  0  0  0  0  0  0  0  0  0  0  0
  161.1340  205.4770  147.6960 N   0  0  0  0  0  0  0  0  0  0  0  0
  161.2690  204.0290  145.6040 C   0  0  1  0  0  3  0  0  0  0  0  0
  160.6950  202.6480  145.4800 C   0  0  0  0  0  0  0  0  0  0  0  0
  159.7160  202.3640  144.5300 O   0  0  0  0  0  0  0  0  0  0  0  0
  161.0790  201.7440  146.2640 O   0  0  0  0  0  1  0  0  0  0  0  0
  161.3980  205.8180  144.1680 C   0  0  0  0  0  1  0  0  0  0  0  0
  160.5280  205.0300  144.9420 O   0  0  0  0  0  0  0  0  0  0  0  0
  162.4640  209.7580  148.3380 C   0  0  0  0  0  2  0  0  0  0  0  0
  161.8130  211.1250  148.4550 C   0  0  0  0  0  2  0  0  0  0  0  0
  160.1820  212.4860  147.1480 C   0  0  0  0  0  3  0  0  0  0  0  0
  160.8970  211.3620  147.2960 C   0  0  0  0  0  3  0  0  0  0  0  0
  160.7910  213.1500  149.4480 C   0  0  0  0  0  3  0  0  0  0  0  0
  157.9340  214.4480  147.8610 O   0  0  0  0  0  0  0  0  0  0  0  0
  159.9280  213.1790  150.4150 N   0  0  0  0  0  0  0  0  0  0  0  0
  158.6980  213.6480  149.9550 N   0  0  0  0  0  0  0  0  0  0  0  0
  158.8380  213.9430  148.5790 C   0  0  0  0  0  0  0  0  0  0  0  0
  160.2160  213.6200  148.1320 C   0  0  2  0  0  3  0  0  0  0  0  0
  157.5610  213.8940  150.7920 C   0  0  0  0  0  0  0  0  0  0  0  0
  156.2180  213.9940  152.5020 N   0  0  0  0  0  0  0  0  0  0  0  0
  155.6620  213.8780  153.8180 C   0  0  0  0  0  0  0  0  0  0  0  0
  155.5450  214.4530  151.4560 N   0  0  0  0  0  0  0  0  0  0  0  0
  156.3480  214.4040  150.3720 C   0  0  0  0  0  3  0  0  0  0  0  0
  157.4650  213.6330  152.1400 C   0  0  0  0  0  3  0  0  0  0  0  0
  154.4560  214.1910  154.0140 O   0  0  0  0  0  0  0  0  0  0  0  0
  155.5890  213.1050  156.1520 C   0  0  0  0  0  2  0  0  0  0  0  0
  156.4860  213.3380  154.9500 C   0  0  0  0  0  3  0  0  0  0  0  0
  156.0570  211.9290  155.3230 C   0  0  0  0  0  2  0  0  0  0  0  0
  161.6730  207.6530  151.4390 C   0  0  1  0  0  3  0  0  0  0  0  0
  163.0930  205.6400  152.3860 C   0  0  0  0  0  2  0  0  0  0  0  0
  161.7530  206.2100  151.9830 C   0  0  0  0  0  0  0  0  0  0  0  0
  162.0800  206.0580  153.4500 C   0  0  0  0  0  2  0  0  0  0  0  0
  160.7480  205.1830  151.4820 C   0  0  0  0  0  2  0  0  0  0  0  0
  160.7350  203.9640  152.3780 C   0  0  0  0  0  2  0  0  0  0  0  0
  160.2560  202.7610  151.5930 C   0  0  0  0  0  2  0  0  0  0  0  0
  160.7450  202.9210  149.8530 S   0  0  0  0  0  0  0  0  0  0  0  0
  159.9940  201.3240  149.4130 C   0  0  0  0  0  1  0  0  0  0  0  0
  160.4020  209.2940  152.2280 C   0  0  0  0  0  1  0  0  0  0  0  0
  161.6010  208.6140  152.4550 O   0  0  0  0  0  0  0  0  0  0  0  0
  1  4  1  1  0  0  0
  1  3  1  0  0  0  0
  1  2  1  0  0  0  0
  2 35  1  1  0  0  0
  3 15  1  6  0  0  0
  3  2  1  0  0  0  0
  4  5  1  6  0  0  0
  6  7  2  0  0  0  0
  6  8  1  0  0  0  0
  8  5  1  0  0  0  0
  8  4  1  0  0  0  0
  9 14  1  1  0  0  0
  9  6  1  0  0  0  0
 10  9  1  0  0  0  0
 10 12  1  0  0  0  0
 11 10  2  0  0  0  0
 13 14  1  0  0  0  0
 15 16  1  0  0  0  0
 17 18  2  0  0  0  0
 18 16  1  0  0  0  0
 19 21  2  0  0  0  0
 20 23  2  0  0  0  0
 22 21  1  0  0  0  0
 22 25  1  0  0  0  0
 23 22  1  0  0  0  0
 24 17  1  6  0  0  0
 24 23  1  0  0  0  0
 24 19  1  0  0  0  0
 25 30  2  0  0  0  0
 26 27  1  0  0  0  0
 27 31  2  0  0  0  0
 27 33  1  0  0  0  0
 28 26  1  0  0  0  0
 29 25  1  0  0  0  0
 29 28  2  0  0  0  0
 30 26  1  0  0  0  0
 33 34  1  0  0  0  0
 33 32  1  0  0  0  0
 34 32  1  0  0  0  0
 35 37  1  0  0  0  0
 35 45  1  1  0  0  0
 36 38  1  0  0  0  0
 37 36  1  0  0  0  0
 37 38  1  0  0  0  0
 39 37  1  0  0  0  0
 39 40  1  0  0  0  0
 41 40  1  0  0  0  0
 42 41  1  0  0  0  0
 43 42  1  0  0  0  0
 44 45  1  0  0  0  0
M  END
>  <MODEL>
6

>  <REMARK>
 VINA RESULT:      -5.2      2.071      2.970
  Name = 
  17 active torsions:
  status: ('A' for Active; 'I' for Inactive)
    1  A    between atoms: C_1  and  C_22
    2  A    between atoms: C_1  and  C_29
    3  A    between atoms: C_3  and  C_45
    4  A    between atoms: C_6  and  N_34
    5  A    between atoms: C_7  and  C_13
    6  A    between atoms: C_8  and  C_39
    7  A    between atoms: C_14  and  C_35
    8  A    between atoms: C_15  and  C_19
    9  A    between atoms: C_20  and  C_29
   10  A    between atoms: C_21  and  C_39
   11  A    between atoms: C_24  and  C_36
   12  A    between atoms: C_24  and  C_43
   13  A    between atoms: S_25  and  C_43
   14  A    between atoms: C_31  and  C_35
   15  A    between atoms: C_31  and  C_36
   16  A    between atoms: C_35  and  O_37
   17  A    between atoms: C_39  and  O_42
                            x       y       z     vdW  Elec       q    Type
                         _______ _______ _______ _____ _____    ______ ____

>  <TORSDO>
F 17

$$$$
=
 OpenBabel11052410303D

 45 50  0  0  1  0  0  0  0  0999 V2000
  160.4630  209.6250  152.4360 C   0  0  2  0  0  3  0  0  0  0  0  0
  160.9640  208.7850  151.2460 C   0  0  1  0  0  3  0  0  0  0  0  0
  161.8770  209.7910  151.9290 C   0  0  1  0  0  3  0  0  0  0  0  0
  160.5360  208.9690  153.8070 C   0  0  1  0  0  3  0  0  0  0  0  0
  161.3940  209.6580  154.6360 C   0  0  0  0  0  2  0  0  0  0  0  0
  158.8160  210.5180  155.4330 C   0  0  0  0  0  0  0  0  0  0  0  0
  157.6540  210.2620  155.0240 O   0  0  0  0  0  0  0  0  0  0  0  0
  159.9330  209.8900  154.8130 N   0  0  0  0  0  0  0  0  0  0  0  0
  159.0070  211.5180  156.5410 C   0  0  1  0  0  3  0  0  0  0  0  0
  159.9090  212.6690  156.2020 C   0  0  0  0  0  0  0  0  0  0  0  0
  159.8100  213.3150  154.9720 O   0  0  0  0  0  0  0  0  0  0  0  0
  160.7850  213.0340  157.0260 O   0  0  0  0  0  1  0  0  0  0  0  0
  157.5160  213.2240  156.9290 C   0  0  0  0  0  1  0  0  0  0  0  0
  157.8260  211.8840  157.2200 O   0  0  0  0  0  0  0  0  0  0  0  0
  161.9670  211.0240  151.0560 C   0  0  0  0  0  2  0  0  0  0  0  0
  161.7950  210.6160  149.6040 C   0  0  0  0  0  2  0  0  0  0  0  0
  162.9930  212.0480  147.9490 C   0  0  0  0  0  3  0  0  0  0  0  0
  162.9970  211.0200  148.8090 C   0  0  0  0  0  3  0  0  0  0  0  0
  160.5710  212.0210  147.4640 C   0  0  0  0  0  3  0  0  0  0  0  0
  162.7090  214.3940  145.9930 O   0  0  0  0  0  0  0  0  0  0  0  0
  160.1020  212.1040  146.2570 N   0  0  0  0  0  0  0  0  0  0  0  0
  160.8620  212.9970  145.5010 N   0  0  0  0  0  0  0  0  0  0  0  0
  161.8790  213.5110  146.3390 C   0  0  0  0  0  0  0  0  0  0  0  0
  161.7810  212.8970  147.6860 C   0  0  2  0  0  3  0  0  0  0  0  0
  160.5510  213.3890  144.1580 C   0  0  0  0  0  0  0  0  0  0  0  0
  160.5450  213.5610  141.9890 N   0  0  0  0  0  0  0  0  0  0  0  0
  160.8450  213.3860  140.5980 C   0  0  0  0  0  0  0  0  0  0  0  0
  159.6750  214.4490  142.4480 N   0  0  0  0  0  0  0  0  0  0  0  0
  159.6520  214.3730  143.7950 C   0  0  0  0  0  3  0  0  0  0  0  0
  161.1140  212.8870  143.0070 C   0  0  0  0  0  3  0  0  0  0  0  0
  160.2890  214.1280  139.7430 O   0  0  0  0  0  0  0  0  0  0  0  0
  162.3070  212.6910  138.7470 C   0  0  0  0  0  2  0  0  0  0  0  0
  161.8520  212.3650  140.1570 C   0  0  0  0  0  3  0  0  0  0  0  0
  163.2130  212.9980  139.9190 C   0  0  0  0  0  2  0  0  0  0  0  0
  161.2740  207.2860  151.5240 C   0  0  1  0  0  3  0  0  0  0  0  0
  160.2060  206.3180  149.3130 C   0  0  0  0  0  2  0  0  0  0  0  0
  161.2230  206.2030  150.4250 C   0  0  0  0  0  0  0  0  0  0  0  0
  161.6800  206.6180  149.0460 C   0  0  0  0  0  2  0  0  0  0  0  0
  161.6160  204.7770  150.7830 C   0  0  0  0  0  2  0  0  0  0  0  0
  161.0190  203.7930  149.8020 C   0  0  0  0  0  2  0  0  0  0  0  0
  160.6470  202.5160  150.5250 C   0  0  0  0  0  2  0  0  0  0  0  0
  159.7530  201.4050  149.4030 S   0  0  0  0  0  0  0  0  0  0  0  0
  161.1940  201.2220  148.3080 C   0  0  0  0  0  1  0  0  0  0  0  0
  161.7530  206.2750  153.4430 C   0  0  0  0  0  1  0  0  0  0  0  0
  162.3090  207.0780  152.4440 O   0  0  0  0  0  0  0  0  0  0  0  0
  1  4  1  1  0  0  0
  2 35  1  1  0  0  0
  2  3  1  0  0  0  0
  2  1  1  0  0  0  0
  3 15  1  6  0  0  0
  3  1  1  0  0  0  0
  4  5  1  1  0  0  0
  4  8  1  0  0  0  0
  5  8  1  0  0  0  0
  7  6  2  0  0  0  0
  8  6  1  0  0  0  0
  9  6  1  6  0  0  0
  9 14  1  0  0  0  0
 10  9  1  0  0  0  0
 10 12  1  0  0  0  0
 11 10  2  0  0  0  0
 13 14  1  0  0  0  0
 16 15  1  0  0  0  0
 17 18  2  0  0  0  0
 18 16  1  0  0  0  0
 19 24  1  0  0  0  0
 20 23  2  0  0  0  0
 21 19  2  0  0  0  0
 22 21  1  0  0  0  0
 22 23  1  0  0  0  0
 23 24  1  0  0  0  0
 24 17  1  6  0  0  0
 25 22  1  0  0  0  0
 26 28  1  0  0  0  0
 26 30  1  0  0  0  0
 27 26  1  0  0  0  0
 28 29  2  0  0  0  0
 29 25  1  0  0  0  0
 30 25  2  0  0  0  0
 31 27  2  0  0  0  0
 32 34  1  0  0  0  0
 32 33  1  0  0  0  0
 33 27  1  0  0  0  0
 34 33  1  0  0  0  0
 35 45  1  6  0  0  0
 36 37  1  0  0  0  0
 37 39  1  0  0  0  0
 37 35  1  0  0  0  0
 38 36  1  0  0  0  0
 38 37  1  0  0  0  0
 40 41  1  0  0  0  0
 40 39  1  0  0  0  0
 42 41  1  0  0  0  0
 43 42  1  0  0  0  0
 45 44  1  0  0  0  0
M  END
>  <MODEL>
7

>  <REMARK>
 VINA RESULT:      -5.2      4.365      9.144
  Name = 
  17 active torsions:
  status: ('A' for Active; 'I' for Inactive)
    1  A    between atoms: C_1  and  C_22
    2  A    between atoms: C_1  and  C_29
    3  A    between atoms: C_3  and  C_45
    4  A    between atoms: C_6  and  N_34
    5  A    between atoms: C_7  and  C_13
    6  A    between atoms: C_8  and  C_39
    7  A    between atoms: C_14  and  C_35
    8  A    between atoms: C_15  and  C_19
    9  A    between atoms: C_20  and  C_29
   10  A    between atoms: C_21  and  C_39
   11  A    between atoms: C_24  and  C_36
   12  A    between atoms: C_24  and  C_43
   13  A    between atoms: S_25  and  C_43
   14  A    between atoms: C_31  and  C_35
   15  A    between atoms: C_31  and  C_36
   16  A    between atoms: C_35  and  O_37
   17  A    between atoms: C_39  and  O_42
                            x       y       z     vdW  Elec       q    Type
                         _______ _______ _______ _____ _____    ______ ____

>  <TORSDO>
F 17

$$$$
=
 OpenBabel11052410303D

 45 50  0  0  1  0  0  0  0  0999 V2000
  159.9500  210.5350  153.7140 C   0  0  2  0  0  3  0  0  0  0  0  0
  159.9740  210.2280  155.2230 C   0  0  1  0  0  3  0  0  0  0  0  0
  161.0680  209.7090  154.3040 C   0  0  1  0  0  3  0  0  0  0  0  0
  160.5360  211.8720  153.2860 C   0  0  1  0  0  3  0  0  0  0  0  0
  160.9390  211.8320  151.9690 C   0  0  0  0  0  2  0  0  0  0  0  0
  158.4380  213.1590  151.8910 C   0  0  0  0  0  0  0  0  0  0  0  0
  157.5890  213.4560  152.7700 O   0  0  0  0  0  0  0  0  0  0  0  0
  159.6350  212.4880  152.2690 N   0  0  0  0  0  0  0  0  0  0  0  0
  158.1520  213.4780  150.4480 C   0  0  1  0  0  3  0  0  0  0  0  0
  159.3650  213.7820  149.6180 C   0  0  0  0  0  0  0  0  0  0  0  0
  160.4550  214.4530  150.1660 O   0  0  0  0  0  1  0  0  0  0  0  0
  159.3820  213.4550  148.4040 O   0  0  0  0  0  0  0  0  0  0  0  0
  156.2600  213.3910  149.1460 C   0  0  0  0  0  1  0  0  0  0  0  0
  157.2200  212.6210  149.8270 O   0  0  0  0  0  0  0  0  0  0  0  0
  160.8150  208.2400  154.0410 C   0  0  0  0  0  2  0  0  0  0  0  0
  161.4320  207.8630  152.7060 C   0  0  0  0  0  2  0  0  0  0  0  0
  161.2120  208.5850  150.3290 C   0  0  0  0  0  3  0  0  0  0  0  0
  160.8090  208.6620  151.6050 C   0  0  0  0  0  3  0  0  0  0  0  0
  162.7060  208.0250  148.4440 C   0  0  0  0  0  3  0  0  0  0  0  0
  161.4460  205.5360  150.5850 O   0  0  0  0  0  0  0  0  0  0  0  0
  162.4550  207.0550  147.6200 N   0  0  0  0  0  0  0  0  0  0  0  0
  161.9070  205.9690  148.3030 N   0  0  0  0  0  0  0  0  0  0  0  0
  161.8350  206.3140  149.6720 C   0  0  0  0  0  0  0  0  0  0  0  0
  162.3340  207.6970  149.8710 C   0  0  2  0  0  3  0  0  0  0  0  0
  161.6080  204.7020  147.7010 C   0  0  0  0  0  0  0  0  0  0  0  0
  161.2530  202.5780  147.3910 N   0  0  0  0  0  0  0  0  0  0  0  0
  161.1000  201.1680  147.6000 C   0  0  0  0  0  0  0  0  0  0  0  0
  161.1710  203.1600  146.2030 N   0  0  0  0  0  0  0  0  0  0  0  0
  161.3890  204.4830  146.3550 C   0  0  0  0  0  3  0  0  0  0  0  0
  161.5260  203.4890  148.3460 C   0  0  0  0  0  3  0  0  0  0  0  0
  160.9110  200.4100  146.6100 O   0  0  0  0  0  0  0  0  0  0  0  0
  160.9280  201.6620  150.0030 C   0  0  0  0  0  2  0  0  0  0  0  0
  161.2180  200.5820  148.9770 C   0  0  0  0  0  3  0  0  0  0  0  0
  159.8840  200.6080  149.7040 C   0  0  0  0  0  2  0  0  0  0  0  0
  160.3780  211.3930  156.1730 C   0  0  1  0  0  3  0  0  0  0  0  0
  159.9210  213.8260  157.0870 C   0  0  0  0  0  2  0  0  0  0  0  0
  159.3880  212.4930  156.6140 C   0  0  0  0  0  0  0  0  0  0  0  0
  159.2710  213.6990  155.7110 C   0  0  0  0  0  2  0  0  0  0  0  0
  158.0640  212.0790  157.2370 C   0  0  0  0  0  2  0  0  0  0  0  0
  156.9380  212.9570  156.7390 C   0  0  0  0  0  2  0  0  0  0  0  0
  155.7210  212.1060  156.4420 C   0  0  0  0  0  2  0  0  0  0  0  0
  156.0640  210.9990  155.0460 S   0  0  0  0  0  0  0  0  0  0  0  0
  154.9010  209.7400  155.6550 C   0  0  0  0  0  1  0  0  0  0  0  0
  162.5380  211.1670  156.6360 C   0  0  0  0  0  1  0  0  0  0  0  0
  161.2640  211.0190  157.1900 O   0  0  0  0  0  0  0  0  0  0  0  0
  1  4  1  1  0  0  0
  1  3  1  0  0  0  0
  1  2  1  0  0  0  0
  2 35  1  1  0  0  0
  3 15  1  6  0  0  0
  3  2  1  0  0  0  0
  4  5  1  6  0  0  0
  5  8  1  0  0  0  0
  6  8  1  0  0  0  0
  6  7  2  0  0  0  0
  8  4  1  0  0  0  0
  9 10  1  6  0  0  0
  9  6  1  0  0  0  0
 10 11  1  0  0  0  0
 12 10  2  0  0  0  0
 13 14  1  0  0  0  0
 14  9  1  0  0  0  0
 16 15  1  0  0  0  0
 17 18  2  0  0  0  0
 18 16  1  0  0  0  0
 19 24  1  0  0  0  0
 21 22  1  0  0  0  0
 21 19  2  0  0  0  0
 22 23  1  0  0  0  0
 23 24  1  0  0  0  0
 23 20  2  0  0  0  0
 24 17  1  6  0  0  0
 25 22  1  0  0  0  0
 25 30  2  0  0  0  0
 26 27  1  0  0  0  0
 26 30  1  0  0  0  0
 27 33  1  0  0  0  0
 28 29  2  0  0  0  0
 28 26  1  0  0  0  0
 29 25  1  0  0  0  0
 31 27  2  0  0  0  0
 33 34  1  0  0  0  0
 33 32  1  0  0  0  0
 34 32  1  0  0  0  0
 35 37  1  0  0  0  0
 35 45  1  1  0  0  0
 37 36  1  0  0  0  0
 37 39  1  0  0  0  0
 38 37  1  0  0  0  0
 38 36  1  0  0  0  0
 40 39  1  0  0  0  0
 41 40  1  0  0  0  0
 42 43  1  0  0  0  0
 42 41  1  0  0  0  0
 44 45  1  0  0  0  0
M  END
>  <MODEL>
8

>  <REMARK>
 VINA RESULT:      -5.2      2.333      9.581
  Name = 
  17 active torsions:
  status: ('A' for Active; 'I' for Inactive)
    1  A    between atoms: C_1  and  C_22
    2  A    between atoms: C_1  and  C_29
    3  A    between atoms: C_3  and  C_45
    4  A    between atoms: C_6  and  N_34
    5  A    between atoms: C_7  and  C_13
    6  A    between atoms: C_8  and  C_39
    7  A    between atoms: C_14  and  C_35
    8  A    between atoms: C_15  and  C_19
    9  A    between atoms: C_20  and  C_29
   10  A    between atoms: C_21  and  C_39
   11  A    between atoms: C_24  and  C_36
   12  A    between atoms: C_24  and  C_43
   13  A    between atoms: S_25  and  C_43
   14  A    between atoms: C_31  and  C_35
   15  A    between atoms: C_31  and  C_36
   16  A    between atoms: C_35  and  O_37
   17  A    between atoms: C_39  and  O_42
                            x       y       z     vdW  Elec       q    Type
                         _______ _______ _______ _____ _____    ______ ____

>  <TORSDO>
F 17

$$$$
=
 OpenBabel11052410303D

 45 50  0  0  1  0  0  0  0  0999 V2000
  161.9920  207.3000  148.4680 C   0  0  2  0  0  3  0  0  0  0  0  0
  162.4100  207.5110  149.9360 C   0  0  1  0  0  3  0  0  0  0  0  0
  161.6000  208.5640  149.1960 C   0  0  1  0  0  3  0  0  0  0  0  0
  160.7270  206.4860  148.2360 C   0  0  1  0  0  3  0  0  0  0  0  0
  160.2940  206.6150  146.9340 C   0  0  0  0  0  2  0  0  0  0  0  0
  161.6240  204.1150  146.9800 C   0  0  0  0  0  0  0  0  0  0  0  0
  162.2440  203.4810  147.8730 O   0  0  0  0  0  0  0  0  0  0  0  0
  161.0390  205.3740  147.2910 N   0  0  0  0  0  0  0  0  0  0  0  0
  161.5510  203.5500  145.5870 C   0  0  1  0  0  3  0  0  0  0  0  0
  160.6400  202.3670  145.4340 C   0  0  0  0  0  0  0  0  0  0  0  0
  160.8340  201.2140  146.1910 O   0  0  0  0  0  1  0  0  0  0  0  0
  159.7110  202.4050  144.5890 O   0  0  0  0  0  0  0  0  0  0  0  0
  162.5790  205.3260  144.5530 C   0  0  0  0  0  1  0  0  0  0  0  0
  161.4320  204.5130  144.5640 O   0  0  0  0  0  0  0  0  0  0  0  0
  162.5270  209.6920  148.8010 C   0  0  0  0  0  2  0  0  0  0  0  0
  161.7670  211.0050  148.8680 C   0  0  0  0  0  2  0  0  0  0  0  0
  160.6080  212.5030  147.2450 C   0  0  0  0  0  3  0  0  0  0  0  0
  161.1580  211.3160  147.5370 C   0  0  0  0  0  3  0  0  0  0  0  0
  160.9770  213.1780  149.5920 C   0  0  0  0  0  3  0  0  0  0  0  0
  158.2870  214.4530  147.7190 O   0  0  0  0  0  0  0  0  0  0  0  0
  160.0200  213.2040  150.4670 N   0  0  0  0  0  0  0  0  0  0  0  0
  158.8400  213.6650  149.8830 N   0  0  0  0  0  0  0  0  0  0  0  0
  159.1170  213.9560  148.5270 C   0  0  0  0  0  0  0  0  0  0  0  0
  160.5350  213.6410  148.2230 C   0  0  2  0  0  3  0  0  0  0  0  0
  157.6220  213.9060  150.5990 C   0  0  0  0  0  0  0  0  0  0  0  0
  156.1420  214.0910  152.1830 N   0  0  0  0  0  0  0  0  0  0  0  0
  155.4920  214.0870  153.4610 C   0  0  0  0  0  0  0  0  0  0  0  0
  155.5200  214.3550  151.0430 N   0  0  0  0  0  0  0  0  0  0  0  0
  156.4100  214.2470  150.0330 C   0  0  0  0  0  3  0  0  0  0  0  0
  157.4390  213.8040  151.9590 C   0  0  0  0  0  3  0  0  0  0  0  0
  154.2520  214.3090  153.5300 O   0  0  0  0  0  0  0  0  0  0  0  0
  155.2930  213.3630  155.8030 C   0  0  0  0  0  2  0  0  0  0  0  0
  156.2630  213.7670  154.7090 C   0  0  0  0  0  3  0  0  0  0  0  0
  156.1090  212.3050  155.0930 C   0  0  0  0  0  2  0  0  0  0  0  0
  161.6420  206.6920  151.0120 C   0  0  1  0  0  3  0  0  0  0  0  0
  160.5780  206.3970  153.4090 C   0  0  0  0  0  2  0  0  0  0  0  0
  161.1970  207.2940  152.3630 C   0  0  0  0  0  0  0  0  0  0  0  0
  162.0100  206.9040  153.5760 C   0  0  0  0  0  2  0  0  0  0  0  0
  160.7200  208.7380  152.3980 C   0  0  0  0  0  2  0  0  0  0  0  0
  161.3750  209.4920  153.5350 C   0  0  0  0  0  2  0  0  0  0  0  0
  160.3770  209.6870  154.6560 C   0  0  0  0  0  2  0  0  0  0  0  0
  160.5750  211.3380  155.3830 S   0  0  0  0  0  0  0  0  0  0  0  0
  159.8300  212.1520  153.9380 C   0  0  0  0  0  1  0  0  0  0  0  0
  161.1220  204.5340  150.9310 C   0  0  0  0  0  1  0  0  0  0  0  0
  160.7080  205.7920  150.4850 O   0  0  0  0  0  0  0  0  0  0  0  0
  1  4  1  1  0  0  0
  1  3  1  0  0  0  0
  1  2  1  0  0  0  0
  2 35  1  1  0  0  0
  3 15  1  6  0  0  0
  3  2  1  0  0  0  0
  4  5  1  6  0  0  0
  5  8  1  0  0  0  0
  6  8  1  0  0  0  0
  6  7  2  0  0  0  0
  8  4  1  0  0  0  0
  9 14  1  6  0  0  0
  9  6  1  0  0  0  0
 10  9  1  0  0  0  0
 10 11  1  0  0  0  0
 12 10  2  0  0  0  0
 13 14  1  0  0  0  0
 15 16  1  0  0  0  0
 17 18  2  0  0  0  0
 18 16  1  0  0  0  0
 19 21  2  0  0  0  0
 20 23  2  0  0  0  0
 22 21  1  0  0  0  0
 22 25  1  0  0  0  0
 23 22  1  0  0  0  0
 24 17  1  6  0  0  0
 24 23  1  0  0  0  0
 24 19  1  0  0  0  0
 25 30  2  0  0  0  0
 26 27  1  0  0  0  0
 27 31  2  0  0  0  0
 27 33  1  0  0  0  0
 28 26  1  0  0  0  0
 29 25  1  0  0  0  0
 29 28  2  0  0  0  0
 30 26  1  0  0  0  0
 33 34  1  0  0  0  0
 33 32  1  0  0  0  0
 34 32  1  0  0  0  0
 35 45  1  6  0  0  0
 35 37  1  0  0  0  0
 36 38  1  0  0  0  0
 37 39  1  0  0  0  0
 37 36  1  0  0  0  0
 37 38  1  0  0  0  0
 39 40  1  0  0  0  0
 40 41  1  0  0  0  0
 41 42  1  0  0  0  0
 43 42  1  0  0  0  0
 45 44  1  0  0  0  0
M  END
>  <MODEL>
9

>  <REMARK>
 VINA RESULT:      -5.2      1.500      2.025
  Name = 
  17 active torsions:
  status: ('A' for Active; 'I' for Inactive)
    1  A    between atoms: C_1  and  C_22
    2  A    between atoms: C_1  and  C_29
    3  A    between atoms: C_3  and  C_45
    4  A    between atoms: C_6  and  N_34
    5  A    between atoms: C_7  and  C_13
    6  A    between atoms: C_8  and  C_39
    7  A    between atoms: C_14  and  C_35
    8  A    between atoms: C_15  and  C_19
    9  A    between atoms: C_20  and  C_29
   10  A    between atoms: C_21  and  C_39
   11  A    between atoms: C_24  and  C_36
   12  A    between atoms: C_24  and  C_43
   13  A    between atoms: S_25  and  C_43
   14  A    between atoms: C_31  and  C_35
   15  A    between atoms: C_31  and  C_36
   16  A    between atoms: C_35  and  O_37
   17  A    between atoms: C_39  and  O_42
                            x       y       z     vdW  Elec       q    Type
                         _______ _______ _______ _____ _____    ______ ____

>  <TORSDO>
F 17

$$$$
