=
 OpenBabel11042420293D

 31 34  0  0  0  0  0  0  0  0999 V2000
  160.9660  205.2260  150.9530 C   0  0  0  0  0  0  0  0  0  0  0  0
  160.9320  207.9340  153.5820 C   0  0  0  0  0  0  0  0  0  0  0  0
  161.5670  207.9790  151.2160 C   0  0  0  0  0  0  0  0  0  0  0  0
  161.4220  205.9140  149.8190 C   0  0  0  0  0  0  0  0  0  0  0  0
  162.0740  209.3940  151.4160 C   0  0  0  0  0  2  0  0  0  0  0  0
  163.0110  207.5970  147.9910 O   0  0  0  0  0  0  0  0  0  0  0  0
  161.5080  210.0830  152.6280 C   0  0  0  0  0  3  0  0  0  0  0  0
  160.6540  203.8670  150.8810 C   0  0  0  0  0  3  0  0  0  0  0  0
  161.0010  209.4080  153.6590 C   0  0  0  0  0  0  0  0  0  0  0  0
  160.7870  203.1740  149.6680 C   0  0  0  0  0  0  0  0  0  0  0  0
  161.5440  205.2190  148.6050 C   0  0  0  0  0  3  0  0  0  0  0  0
  160.8160  205.9110  152.1590 O   0  0  0  0  0  0  0  0  0  0  0  0
  161.2310  203.8580  148.5320 C   0  0  0  0  0  3  0  0  0  0  0  0
  162.1410  208.0750  148.7700 C   0  0  0  0  0  0  0  0  0  0  0  0
  161.7220  207.3260  149.9290 N   0  0  0  0  0  0  0  0  0  0  0  0
  160.7230  207.2400  154.6120 O   0  0  0  0  0  0  0  0  0  0  0  0
  161.1190  207.2740  152.2790 C   0  0  0  0  0  0  0  0  0  0  0  0
  160.0430  211.4820  154.7900 C   0  0  0  0  0  0  0  0  0  0  0  0
  160.5500  210.1440  154.8030 N   0  0  0  0  0  2  0  0  0  0  0  0
  160.2250  212.2310  153.7900 O   0  0  0  0  0  0  0  0  0  0  0  0
  159.4100  213.5340  156.0370 C   0  0  0  0  0  2  0  0  0  0  0  0
  158.6220  214.0490  157.2380 C   0  0  0  0  0  2  0  0  0  0  0  0
  157.2320  213.6030  157.1540 N   0  0  0  0  0  2  0  0  0  0  0  0
  157.2030  212.1450  157.2600 C   0  0  0  0  0  2  0  0  0  0  0  0
  157.9080  211.5180  156.0600 C   0  0  0  0  0  2  0  0  0  0  0  0
  159.3550  212.0080  156.0050 C   0  0  0  0  0  3  0  0  0  0  0  0
  160.4860  201.8130  149.5630 O   0  0  0  0  0  0  0  0  0  0  0  0
  161.1610  200.9450  148.6630 C   0  0  0  0  0  1  0  0  0  0  0  0
  161.4700  209.3700  148.4210 C   0  0  0  0  0  2  0  0  0  0  0  0
  162.4040  210.5630  148.5720 C   0  0  0  0  0  2  0  0  0  0  0  0
  161.7130  211.7930  148.2270 N   0  0  0  0  0  1  0  0  0  0  0  0
  1 12  1  0  0  0  0
  2  9  1  0  0  0  0
  2 16  2  0  0  0  0
  3  5  1  0  0  0  0
  3 17  2  0  0  0  0
  4 15  1  0  0  0  0
  4  1  2  0  0  0  0
  5  7  1  0  0  0  0
  6 14  2  0  0  0  0
  7  9  2  0  0  0  0
  8  1  1  0  0  0  0
  9 19  1  0  0  0  0
 10  8  2  0  0  0  0
 11  4  1  0  0  0  0
 12 17  1  0  0  0  0
 13 11  2  0  0  0  0
 13 10  1  0  0  0  0
 14 15  1  0  0  0  0
 15  3  1  0  0  0  0
 17  2  1  0  0  0  0
 18 19  1  0  0  0  0
 18 26  1  0  0  0  0
 20 18  2  0  0  0  0
 21 22  1  0  0  0  0
 23 22  1  0  0  0  0
 23 24  1  0  0  0  0
 25 24  1  0  0  0  0
 26 21  1  0  0  0  0
 26 25  1  0  0  0  0
 27 10  1  0  0  0  0
 28 27  1  0  0  0  0
 29 30  1  0  0  0  0
 29 14  1  0  0  0  0
 31 30  1  0  0  0  0
M  END
>  <MODEL>
1

>  <REMARK>
 VINA RESULT:      -7.8      0.000      0.000
  Name = 
  5 active torsions:
  status: ('A' for Active; 'I' for Inactive)
    1  A    between atoms: C_3  and  C_23
    2  A    between atoms: C_3  and  C_24
    3  A    between atoms: O_8  and  C_17
    4  A    between atoms: C_9  and  C_31
    5  A    between atoms: N_11  and  C_15
                            x       y       z     vdW  Elec       q    Type
                         _______ _______ _______ _____ _____    ______ ____

>  <TORSDO>
F 5

$$$$
=
 OpenBabel11042420293D

 31 34  0  0  0  0  0  0  0  0999 V2000
  159.7850  210.9600  152.5070 C   0  0  0  0  0  0  0  0  0  0  0  0
  161.4510  207.8600  151.1450 C   0  0  0  0  0  0  0  0  0  0  0  0
  160.7730  208.4710  153.4200 C   0  0  0  0  0  0  0  0  0  0  0  0
  159.6720  210.6660  153.8730 C   0  0  0  0  0  0  0  0  0  0  0  0
  161.4830  207.2300  153.9260 C   0  0  0  0  0  2  0  0  0  0  0  0
  160.2860  209.8750  156.6480 O   0  0  0  0  0  0  0  0  0  0  0  0
  161.7150  206.1820  152.8720 C   0  0  0  0  0  3  0  0  0  0  0  0
  159.3140  212.1740  152.0010 C   0  0  0  0  0  3  0  0  0  0  0  0
  161.7330  206.4730  151.5720 C   0  0  0  0  0  0  0  0  0  0  0  0
  158.7140  213.1120  152.8560 C   0  0  0  0  0  0  0  0  0  0  0  0
  159.0620  211.6030  154.7230 C   0  0  0  0  0  3  0  0  0  0  0  0
  160.3650  210.0270  151.6480 O   0  0  0  0  0  0  0  0  0  0  0  0
  158.5900  212.8180  154.2170 C   0  0  0  0  0  3  0  0  0  0  0  0
  160.0100  209.0350  155.7480 C   0  0  0  0  0  0  0  0  0  0  0  0
  160.1590  209.3920  154.3580 N   0  0  0  0  0  0  0  0  0  0  0  0
  161.7180  208.2460  149.9770 O   0  0  0  0  0  0  0  0  0  0  0  0
  160.8550  208.7990  152.1110 C   0  0  0  0  0  0  0  0  0  0  0  0
  161.1200  204.4160  150.1950 C   0  0  0  0  0  0  0  0  0  0  0  0
  162.0330  205.4250  150.6400 N   0  0  0  0  0  2  0  0  0  0  0  0
  160.0440  204.1990  150.8180 O   0  0  0  0  0  0  0  0  0  0  0  0
  160.5400  202.3830  148.8920 C   0  0  0  0  0  2  0  0  0  0  0  0
  160.8830  201.5890  147.6350 C   0  0  0  0  0  2  0  0  0  0  0  0
  160.7700  202.4460  146.4550 N   0  0  0  0  0  2  0  0  0  0  0  0
  161.7830  203.4970  146.5450 C   0  0  0  0  0  2  0  0  0  0  0  0
  161.4940  204.4030  147.7390 C   0  0  0  0  0  2  0  0  0  0  0  0
  161.4900  203.5720  149.0210 C   0  0  0  0  0  3  0  0  0  0  0  0
  158.2350  214.3370  152.3820 O   0  0  0  0  0  0  0  0  0  0  0  0
  157.1690  214.4340  151.4480 C   0  0  0  0  0  1  0  0  0  0  0  0
  159.4220  207.7090  156.1310 C   0  0  0  0  0  2  0  0  0  0  0  0
  160.1950  207.0410  157.2600 C   0  0  0  0  0  2  0  0  0  0  0  0
  161.5790  207.4820  157.2560 N   0  0  0  0  0  1  0  0  0  0  0  0
  1  4  1  0  0  0  0
  2  9  1  0  0  0  0
  2 17  1  0  0  0  0
  3  5  1  0  0  0  0
  3 15  1  0  0  0  0
  4 15  1  0  0  0  0
  4 11  2  0  0  0  0
  7  5  1  0  0  0  0
  8  1  2  0  0  0  0
  8 10  1  0  0  0  0
  9  7  2  0  0  0  0
 10 13  2  0  0  0  0
 12 17  1  0  0  0  0
 12  1  1  0  0  0  0
 13 11  1  0  0  0  0
 14 29  1  0  0  0  0
 14  6  2  0  0  0  0
 15 14  1  0  0  0  0
 16  2  2  0  0  0  0
 17  3  2  0  0  0  0
 18 19  1  0  0  0  0
 18 20  2  0  0  0  0
 19  9  1  0  0  0  0
 21 26  1  0  0  0  0
 22 21  1  0  0  0  0
 23 24  1  0  0  0  0
 23 22  1  0  0  0  0
 24 25  1  0  0  0  0
 25 26  1  0  0  0  0
 26 18  1  0  0  0  0
 27 10  1  0  0  0  0
 28 27  1  0  0  0  0
 29 30  1  0  0  0  0
 31 30  1  0  0  0  0
M  END
>  <MODEL>
2

>  <REMARK>
 VINA RESULT:      -7.7      2.561      9.336
  Name = 
  5 active torsions:
  status: ('A' for Active; 'I' for Inactive)
    1  A    between atoms: C_3  and  C_23
    2  A    between atoms: C_3  and  C_24
    3  A    between atoms: O_8  and  C_17
    4  A    between atoms: C_9  and  C_31
    5  A    between atoms: N_11  and  C_15
                            x       y       z     vdW  Elec       q    Type
                         _______ _______ _______ _____ _____    ______ ____

>  <TORSDO>
F 5

$$$$
=
 OpenBabel11042420293D

 31 34  0  0  0  0  0  0  0  0999 V2000
  161.9610  211.6300  148.7090 C   0  0  0  0  0  0  0  0  0  0  0  0
  162.1620  208.0780  149.9680 C   0  0  0  0  0  0  0  0  0  0  0  0
  161.1490  210.0870  150.9370 C   0  0  0  0  0  0  0  0  0  0  0  0
  161.2460  212.2710  149.7310 C   0  0  0  0  0  0  0  0  0  0  0  0
  160.8960  209.3020  152.2100 C   0  0  0  0  0  2  0  0  0  0  0  0
  160.3570  213.2420  152.3700 O   0  0  0  0  0  0  0  0  0  0  0  0
  160.9110  207.8090  152.0240 C   0  0  0  0  0  3  0  0  0  0  0  0
  162.3870  212.3430  147.5860 C   0  0  0  0  0  3  0  0  0  0  0  0
  161.5260  207.2260  150.9960 C   0  0  0  0  0  0  0  0  0  0  0  0
  162.0970  213.7100  147.4640 C   0  0  0  0  0  0  0  0  0  0  0  0
  160.9490  213.6370  149.5980 C   0  0  0  0  0  3  0  0  0  0  0  0
  162.2410  210.2670  148.8150 O   0  0  0  0  0  0  0  0  0  0  0  0
  161.3740  214.3500  148.4740 C   0  0  0  0  0  3  0  0  0  0  0  0
  160.0250  212.1130  151.9150 C   0  0  0  0  0  0  0  0  0  0  0  0
  160.8090  211.4970  150.8730 N   0  0  0  0  0  0  0  0  0  0  0  0
  162.9770  207.5940  149.1390 O   0  0  0  0  0  0  0  0  0  0  0  0
  161.8370  209.5140  149.9250 C   0  0  0  0  0  0  0  0  0  0  0  0
  161.0490  204.9940  149.8610 C   0  0  0  0  0  0  0  0  0  0  0  0
  161.5520  205.7950  150.9360 N   0  0  0  0  0  2  0  0  0  0  0  0
  160.2740  205.4880  148.9960 O   0  0  0  0  0  0  0  0  0  0  0  0
  160.8040  202.8070  151.0110 C   0  0  0  0  0  2  0  0  0  0  0  0
  161.0980  201.3150  150.8910 C   0  0  0  0  0  2  0  0  0  0  0  0
  160.5270  200.7900  149.6510 N   0  0  0  0  0  2  0  0  0  0  0  0
  161.2120  201.4180  148.5210 C   0  0  0  0  0  2  0  0  0  0  0  0
  160.9250  202.9170  148.5020 C   0  0  0  0  0  2  0  0  0  0  0  0
  161.3990  203.5440  149.8130 C   0  0  0  0  0  3  0  0  0  0  0  0
  162.5110  214.4520  146.3540 O   0  0  0  0  0  0  0  0  0  0  0  0
  162.0130  214.2170  145.0450 C   0  0  0  0  0  1  0  0  0  0  0  0
  158.7520  211.4720  152.3850 C   0  0  0  0  0  2  0  0  0  0  0  0
  158.3680  211.9170  153.7900 C   0  0  0  0  0  2  0  0  0  0  0  0
  159.0170  211.0770  154.7810 N   0  0  0  0  0  1  0  0  0  0  0  0
  1 12  1  0  0  0  0
  1  4  1  0  0  0  0
  2  9  1  0  0  0  0
  3  5  1  0  0  0  0
  4 15  1  0  0  0  0
  7  5  1  0  0  0  0
  8  1  2  0  0  0  0
  9  7  2  0  0  0  0
 10  8  1  0  0  0  0
 10 13  2  0  0  0  0
 11  4  2  0  0  0  0
 12 17  1  0  0  0  0
 13 11  1  0  0  0  0
 14  6  2  0  0  0  0
 14 29  1  0  0  0  0
 15  3  1  0  0  0  0
 15 14  1  0  0  0  0
 16  2  2  0  0  0  0
 17  2  1  0  0  0  0
 17  3  2  0  0  0  0
 18 19  1  0  0  0  0
 19  9  1  0  0  0  0
 20 18  2  0  0  0  0
 22 21  1  0  0  0  0
 23 22  1  0  0  0  0
 24 23  1  0  0  0  0
 25 24  1  0  0  0  0
 25 26  1  0  0  0  0
 26 18  1  0  0  0  0
 26 21  1  0  0  0  0
 27 10  1  0  0  0  0
 28 27  1  0  0  0  0
 29 30  1  0  0  0  0
 30 31  1  0  0  0  0
M  END
>  <MODEL>
3

>  <REMARK>
 VINA RESULT:      -6.9      2.799      8.801
  Name = 
  5 active torsions:
  status: ('A' for Active; 'I' for Inactive)
    1  A    between atoms: C_3  and  C_23
    2  A    between atoms: C_3  and  C_24
    3  A    between atoms: O_8  and  C_17
    4  A    between atoms: C_9  and  C_31
    5  A    between atoms: N_11  and  C_15
                            x       y       z     vdW  Elec       q    Type
                         _______ _______ _______ _____ _____    ______ ____

>  <TORSDO>
F 5

$$$$
=
 OpenBabel11042420293D

 31 34  0  0  0  0  0  0  0  0999 V2000
  161.1670  203.3910  148.5130 C   0  0  0  0  0  0  0  0  0  0  0  0
  161.1670  207.1250  147.9710 C   0  0  0  0  0  0  0  0  0  0  0  0
  161.0700  205.7840  150.0200 C   0  0  0  0  0  0  0  0  0  0  0  0
  161.1040  203.2900  149.9110 C   0  0  0  0  0  0  0  0  0  0  0  0
  160.8160  207.0600  150.8000 C   0  0  0  0  0  2  0  0  0  0  0  0
  160.2960  203.6180  152.7280 O   0  0  0  0  0  0  0  0  0  0  0  0
  161.2350  208.3130  150.0800 C   0  0  0  0  0  3  0  0  0  0  0  0
  161.2170  202.2420  147.7200 C   0  0  0  0  0  3  0  0  0  0  0  0
  161.3710  208.3610  148.7560 C   0  0  0  0  0  0  0  0  0  0  0  0
  161.2120  200.9710  148.3150 C   0  0  0  0  0  0  0  0  0  0  0  0
  161.1100  202.0160  150.5010 C   0  0  0  0  0  3  0  0  0  0  0  0
  161.1880  204.6500  147.9150 O   0  0  0  0  0  0  0  0  0  0  0  0
  161.1610  200.8660  149.7080 C   0  0  0  0  0  3  0  0  0  0  0  0
  161.0570  204.4350  152.1410 C   0  0  0  0  0  0  0  0  0  0  0  0
  161.0680  204.5020  150.7000 N   0  0  0  0  0  0  0  0  0  0  0  0
  161.0140  207.1680  146.7220 O   0  0  0  0  0  0  0  0  0  0  0  0
  161.1360  205.8290  148.6700 C   0  0  0  0  0  0  0  0  0  0  0  0
  161.9890  210.8330  148.8440 C   0  0  0  0  0  0  0  0  0  0  0  0
  161.7030  209.6160  148.1470 N   0  0  0  0  0  2  0  0  0  0  0  0
  161.6870  210.9650  150.0620 O   0  0  0  0  0  0  0  0  0  0  0  0
  162.0880  211.9910  146.6500 C   0  0  0  0  0  2  0  0  0  0  0  0
  162.6440  213.2160  145.9300 C   0  0  0  0  0  2  0  0  0  0  0  0
  162.2220  214.4360  146.6180 N   0  0  0  0  0  2  0  0  0  0  0  0
  162.8280  214.4530  147.9490 C   0  0  0  0  0  2  0  0  0  0  0  0
  162.2830  213.3000  148.7880 C   0  0  0  0  0  2  0  0  0  0  0  0
  162.5890  211.9740  148.0930 C   0  0  0  0  0  3  0  0  0  0  0  0
  161.2580  199.8020  147.5500 O   0  0  0  0  0  0  0  0  0  0  0  0
  161.2470  199.8140  146.1290 C   0  0  0  0  0  1  0  0  0  0  0  0
  162.0260  205.2510  152.9450 C   0  0  0  0  0  2  0  0  0  0  0  0
  161.3550  205.9510  154.1190 C   0  0  0  0  0  2  0  0  0  0  0  0
  161.5840  207.3840  154.0500 N   0  0  0  0  0  1  0  0  0  0  0  0
  1  4  1  0  0  0  0
  2 17  1  0  0  0  0
  2  9  1  0  0  0  0
  3 15  1  0  0  0  0
  3  5  1  0  0  0  0
  4 11  2  0  0  0  0
  4 15  1  0  0  0  0
  7  5  1  0  0  0  0
  8 10  1  0  0  0  0
  8  1  2  0  0  0  0
  9  7  2  0  0  0  0
 10 13  2  0  0  0  0
 12  1  1  0  0  0  0
 12 17  1  0  0  0  0
 13 11  1  0  0  0  0
 14  6  2  0  0  0  0
 14 29  1  0  0  0  0
 15 14  1  0  0  0  0
 16  2  2  0  0  0  0
 17  3  2  0  0  0  0
 18 20  2  0  0  0  0
 19  9  1  0  0  0  0
 19 18  1  0  0  0  0
 21 26  1  0  0  0  0
 22 23  1  0  0  0  0
 22 21  1  0  0  0  0
 23 24  1  0  0  0  0
 24 25  1  0  0  0  0
 26 25  1  0  0  0  0
 26 18  1  0  0  0  0
 27 10  1  0  0  0  0
 28 27  1  0  0  0  0
 29 30  1  0  0  0  0
 31 30  1  0  0  0  0
M  END
>  <MODEL>
4

>  <REMARK>
 VINA RESULT:      -6.6      4.085      6.309
  Name = 
  5 active torsions:
  status: ('A' for Active; 'I' for Inactive)
    1  A    between atoms: C_3  and  C_23
    2  A    between atoms: C_3  and  C_24
    3  A    between atoms: O_8  and  C_17
    4  A    between atoms: C_9  and  C_31
    5  A    between atoms: N_11  and  C_15
                            x       y       z     vdW  Elec       q    Type
                         _______ _______ _______ _____ _____    ______ ____

>  <TORSDO>
F 5

$$$$
=
 OpenBabel11042420293D

 31 34  0  0  0  0  0  0  0  0999 V2000
  161.6220  210.6490  148.7610 C   0  0  0  0  0  0  0  0  0  0  0  0
  161.9830  206.9140  148.3530 C   0  0  0  0  0  0  0  0  0  0  0  0
  161.7210  208.3100  150.3500 C   0  0  0  0  0  0  0  0  0  0  0  0
  161.5050  210.7890  150.1510 C   0  0  0  0  0  0  0  0  0  0  0  0
  161.9770  207.0790  151.1990 C   0  0  0  0  0  2  0  0  0  0  0  0
  161.9820  210.5990  153.0550 O   0  0  0  0  0  0  0  0  0  0  0  0
  161.7490  205.7780  150.4780 C   0  0  0  0  0  3  0  0  0  0  0  0
  161.5800  211.7700  147.9280 C   0  0  0  0  0  3  0  0  0  0  0  0
  161.7820  205.6860  149.1490 C   0  0  0  0  0  0  0  0  0  0  0  0
  161.4120  213.0510  148.4750 C   0  0  0  0  0  0  0  0  0  0  0  0
  161.3260  212.0730  150.6920 C   0  0  0  0  0  3  0  0  0  0  0  0
  161.7750  209.3770  148.2080 O   0  0  0  0  0  0  0  0  0  0  0  0
  161.2820  213.1940  149.8590 C   0  0  0  0  0  3  0  0  0  0  0  0
  161.3660  209.7080  152.4090 C   0  0  0  0  0  0  0  0  0  0  0  0
  161.5390  209.6040  150.9810 N   0  0  0  0  0  0  0  0  0  0  0  0
  162.2910  206.8530  147.1330 O   0  0  0  0  0  0  0  0  0  0  0  0
  161.8260  208.2260  149.0050 C   0  0  0  0  0  0  0  0  0  0  0  0
  160.8440  203.3160  149.0750 C   0  0  0  0  0  0  0  0  0  0  0  0
  161.6270  204.3930  148.5490 N   0  0  0  0  0  2  0  0  0  0  0  0
  160.4520  203.3290  150.2740 O   0  0  0  0  0  0  0  0  0  0  0  0
  160.7100  202.5110  146.7290 C   0  0  0  0  0  2  0  0  0  0  0  0
  160.4970  201.2710  145.8660 C   0  0  0  0  0  2  0  0  0  0  0  0
  161.4680  200.2370  146.2240 N   0  0  0  0  0  2  0  0  0  0  0  0
  161.2060  199.8090  147.5970 C   0  0  0  0  0  2  0  0  0  0  0  0
  161.4600  200.9640  148.5640 C   0  0  0  0  0  2  0  0  0  0  0  0
  160.5540  202.1400  148.2030 C   0  0  0  0  0  3  0  0  0  0  0  0
  161.3680  214.1930  147.6690 O   0  0  0  0  0  0  0  0  0  0  0  0
  162.1480  214.3300  146.4900 C   0  0  0  0  0  1  0  0  0  0  0  0
  160.3730  208.8350  153.1180 C   0  0  0  0  0  2  0  0  0  0  0  0
  160.8960  208.3400  154.4600 C   0  0  0  0  0  2  0  0  0  0  0  0
  160.5170  206.9530  154.6690 N   0  0  0  0  0  1  0  0  0  0  0  0
  1  4  1  0  0  0  0
  2 17  1  0  0  0  0
  2  9  1  0  0  0  0
  3 15  1  0  0  0  0
  3  5  1  0  0  0  0
  4 11  2  0  0  0  0
  4 15  1  0  0  0  0
  7  5  1  0  0  0  0
  8 10  1  0  0  0  0
  8  1  2  0  0  0  0
  9  7  2  0  0  0  0
 10 13  2  0  0  0  0
 12  1  1  0  0  0  0
 12 17  1  0  0  0  0
 13 11  1  0  0  0  0
 14  6  2  0  0  0  0
 14 29  1  0  0  0  0
 15 14  1  0  0  0  0
 16  2  2  0  0  0  0
 17  3  2  0  0  0  0
 18 20  2  0  0  0  0
 19 18  1  0  0  0  0
 19  9  1  0  0  0  0
 21 26  1  0  0  0  0
 22 23  1  0  0  0  0
 22 21  1  0  0  0  0
 23 24  1  0  0  0  0
 24 25  1  0  0  0  0
 26 25  1  0  0  0  0
 26 18  1  0  0  0  0
 27 10  1  0  0  0  0
 28 27  1  0  0  0  0
 29 30  1  0  0  0  0
 30 31  1  0  0  0  0
M  END
>  <MODEL>
5

>  <REMARK>
 VINA RESULT:      -6.2      3.140      9.477
  Name = 
  5 active torsions:
  status: ('A' for Active; 'I' for Inactive)
    1  A    between atoms: C_3  and  C_23
    2  A    between atoms: C_3  and  C_24
    3  A    between atoms: O_8  and  C_17
    4  A    between atoms: C_9  and  C_31
    5  A    between atoms: N_11  and  C_15
                            x       y       z     vdW  Elec       q    Type
                         _______ _______ _______ _____ _____    ______ ____

>  <TORSDO>
F 5

$$$$
=
 OpenBabel11042420293D

 31 34  0  0  0  0  0  0  0  0999 V2000
  161.2260  207.5360  152.9860 C   0  0  0  0  0  0  0  0  0  0  0  0
  161.1880  205.2170  150.0090 C   0  0  0  0  0  0  0  0  0  0  0  0
  161.3270  207.6590  150.1610 C   0  0  0  0  0  0  0  0  0  0  0  0
  161.3290  208.7980  152.3830 C   0  0  0  0  0  0  0  0  0  0  0  0
  161.1770  207.7250  148.6530 C   0  0  0  0  0  2  0  0  0  0  0  0
  160.8660  211.1470  150.6600 O   0  0  0  0  0  0  0  0  0  0  0  0
  161.5170  206.4400  147.9460 C   0  0  0  0  0  3  0  0  0  0  0  0
  161.1720  207.4170  154.3770 C   0  0  0  0  0  3  0  0  0  0  0  0
  161.4940  205.2600  148.5640 C   0  0  0  0  0  0  0  0  0  0  0  0
  161.2290  208.5610  155.1880 C   0  0  0  0  0  0  0  0  0  0  0  0
  161.3960  209.9390  153.1990 C   0  0  0  0  0  3  0  0  0  0  0  0
  161.1840  206.3940  152.1880 O   0  0  0  0  0  0  0  0  0  0  0  0
  161.3440  209.8190  154.5910 C   0  0  0  0  0  3  0  0  0  0  0  0
  161.5580  210.1590  150.2890 C   0  0  0  0  0  0  0  0  0  0  0  0
  161.3960  208.8810  150.9390 N   0  0  0  0  0  0  0  0  0  0  0  0
  160.8880  204.1330  150.5760 O   0  0  0  0  0  0  0  0  0  0  0  0
  161.2310  206.4650  150.7890 C   0  0  0  0  0  0  0  0  0  0  0  0
  160.9690  202.8870  147.7960 C   0  0  0  0  0  0  0  0  0  0  0  0
  161.7600  204.0800  147.7950 N   0  0  0  0  0  2  0  0  0  0  0  0
  160.1210  202.6750  148.7060 O   0  0  0  0  0  0  0  0  0  0  0  0
  161.4240  200.4830  147.3710 C   0  0  0  0  0  2  0  0  0  0  0  0
  161.5770  199.4360  146.2700 C   0  0  0  0  0  2  0  0  0  0  0  0
  160.3820  199.4170  145.4270 N   0  0  0  0  0  2  0  0  0  0  0  0
  160.2800  200.7020  144.7360 C   0  0  0  0  0  2  0  0  0  0  0  0
  160.0510  201.8240  145.7460 C   0  0  0  0  0  2  0  0  0  0  0  0
  161.2100  201.8580  146.7420 C   0  0  0  0  0  3  0  0  0  0  0  0
  161.1750  208.4760  156.5820 O   0  0  0  0  0  0  0  0  0  0  0  0
  160.4920  207.4310  157.2610 C   0  0  0  0  0  1  0  0  0  0  0  0
  162.6210  210.3510  149.2490 C   0  0  0  0  0  2  0  0  0  0  0  0
  162.2830  211.4750  148.2790 C   0  0  0  0  0  2  0  0  0  0  0  0
  163.4860  212.1980  147.9040 N   0  0  0  0  0  1  0  0  0  0  0  0
  1  8  1  0  0  0  0
  2 16  2  0  0  0  0
  2 17  1  0  0  0  0
  3 17  2  0  0  0  0
  3 15  1  0  0  0  0
  4  1  2  0  0  0  0
  4 11  1  0  0  0  0
  5  3  1  0  0  0  0
  7  9  2  0  0  0  0
  7  5  1  0  0  0  0
  8 10  2  0  0  0  0
  9  2  1  0  0  0  0
 10 27  1  0  0  0  0
 11 13  2  0  0  0  0
 12  1  1  0  0  0  0
 13 10  1  0  0  0  0
 14  6  2  0  0  0  0
 14 15  1  0  0  0  0
 15  4  1  0  0  0  0
 17 12  1  0  0  0  0
 18 20  2  0  0  0  0
 19 18  1  0  0  0  0
 19  9  1  0  0  0  0
 22 21  1  0  0  0  0
 23 22  1  0  0  0  0
 24 23  1  0  0  0  0
 24 25  1  0  0  0  0
 25 26  1  0  0  0  0
 26 21  1  0  0  0  0
 26 18  1  0  0  0  0
 27 28  1  0  0  0  0
 29 14  1  0  0  0  0
 30 29  1  0  0  0  0
 31 30  1  0  0  0  0
M  END
>  <MODEL>
6

>  <REMARK>
 VINA RESULT:      -6.1      2.999      9.126
  Name = 
  5 active torsions:
  status: ('A' for Active; 'I' for Inactive)
    1  A    between atoms: C_3  and  C_23
    2  A    between atoms: C_3  and  C_24
    3  A    between atoms: O_8  and  C_17
    4  A    between atoms: C_9  and  C_31
    5  A    between atoms: N_11  and  C_15
                            x       y       z     vdW  Elec       q    Type
                         _______ _______ _______ _____ _____    ______ ____

>  <TORSDO>
F 5

$$$$
=
 OpenBabel11042420293D

 31 34  0  0  0  0  0  0  0  0999 V2000
  161.2770  202.1300  148.5140 C   0  0  0  0  0  0  0  0  0  0  0  0
  161.2170  204.4610  151.4820 C   0  0  0  0  0  0  0  0  0  0  0  0
  161.5220  204.8900  149.0880 C   0  0  0  0  0  0  0  0  0  0  0  0
  161.4810  203.0130  147.4430 C   0  0  0  0  0  0  0  0  0  0  0  0
  161.8510  206.3320  149.4260 C   0  0  0  0  0  2  0  0  0  0  0  0
  162.5680  205.1290  145.7010 O   0  0  0  0  0  0  0  0  0  0  0  0
  161.3600  206.7740  150.7780 C   0  0  0  0  0  3  0  0  0  0  0  0
  161.1490  200.7580  148.2880 C   0  0  0  0  0  3  0  0  0  0  0  0
  161.0910  205.9080  151.7540 C   0  0  0  0  0  0  0  0  0  0  0  0
  161.2160  200.2460  146.9830 C   0  0  0  0  0  0  0  0  0  0  0  0
  161.5360  202.4960  146.1380 C   0  0  0  0  0  3  0  0  0  0  0  0
  161.1940  202.6330  149.8120 O   0  0  0  0  0  0  0  0  0  0  0  0
  161.4070  201.1230  145.9120 C   0  0  0  0  0  3  0  0  0  0  0  0
  161.7510  205.3690  146.6310 C   0  0  0  0  0  0  0  0  0  0  0  0
  161.5950  204.4300  147.7140 N   0  0  0  0  0  0  0  0  0  0  0  0
  161.2420  203.6240  152.4220 O   0  0  0  0  0  0  0  0  0  0  0  0
  161.3200  204.0010  150.0860 C   0  0  0  0  0  0  0  0  0  0  0  0
  160.9160  207.7560  153.5020 C   0  0  0  0  0  0  0  0  0  0  0  0
  160.6980  206.4210  153.0340 N   0  0  0  0  0  2  0  0  0  0  0  0
  161.7390  208.5170  152.9220 O   0  0  0  0  0  0  0  0  0  0  0  0
  160.8380  207.6060  155.9790 C   0  0  0  0  0  2  0  0  0  0  0  0
  160.1530  208.1630  157.2240 C   0  0  0  0  0  2  0  0  0  0  0  0
  160.2880  209.6190  157.2610 N   0  0  0  0  0  2  0  0  0  0  0  0
  159.5590  210.1830  156.1250 C   0  0  0  0  0  2  0  0  0  0  0  0
  160.2080  209.7430  154.8150 C   0  0  0  0  0  2  0  0  0  0  0  0
  160.2060  208.2180  154.7300 C   0  0  0  0  0  3  0  0  0  0  0  0
  161.0940  198.8780  146.7240 O   0  0  0  0  0  0  0  0  0  0  0  0
  161.2370  198.3280  145.4220 C   0  0  0  0  0  1  0  0  0  0  0  0
  160.8670  206.5780  146.5430 C   0  0  0  0  0  2  0  0  0  0  0  0
  160.0260  206.5870  145.2740 C   0  0  0  0  0  2  0  0  0  0  0  0
  159.6970  205.2290  144.8770 N   0  0  0  0  0  1  0  0  0  0  0  0
  1 12  1  0  0  0  0
  2  9  1  0  0  0  0
  2 16  2  0  0  0  0
  3  5  1  0  0  0  0
  3 17  2  0  0  0  0
  4 15  1  0  0  0  0
  4  1  2  0  0  0  0
  5  7  1  0  0  0  0
  6 14  2  0  0  0  0
  7  9  2  0  0  0  0
  8  1  1  0  0  0  0
  9 19  1  0  0  0  0
 10  8  2  0  0  0  0
 11  4  1  0  0  0  0
 12 17  1  0  0  0  0
 13 11  2  0  0  0  0
 13 10  1  0  0  0  0
 14 15  1  0  0  0  0
 15  3  1  0  0  0  0
 17  2  1  0  0  0  0
 18 26  1  0  0  0  0
 19 18  1  0  0  0  0
 20 18  2  0  0  0  0
 21 22  1  0  0  0  0
 22 23  1  0  0  0  0
 24 23  1  0  0  0  0
 25 24  1  0  0  0  0
 26 25  1  0  0  0  0
 26 21  1  0  0  0  0
 27 10  1  0  0  0  0
 28 27  1  0  0  0  0
 29 14  1  0  0  0  0
 30 29  1  0  0  0  0
 31 30  1  0  0  0  0
M  END
>  <MODEL>
7

>  <REMARK>
 VINA RESULT:      -6.1      2.812      4.308
  Name = 
  5 active torsions:
  status: ('A' for Active; 'I' for Inactive)
    1  A    between atoms: C_3  and  C_23
    2  A    between atoms: C_3  and  C_24
    3  A    between atoms: O_8  and  C_17
    4  A    between atoms: C_9  and  C_31
    5  A    between atoms: N_11  and  C_15
                            x       y       z     vdW  Elec       q    Type
                         _______ _______ _______ _____ _____    ______ ____

>  <TORSDO>
F 5

$$$$
=
 OpenBabel11042420293D

 31 34  0  0  0  0  0  0  0  0999 V2000
  161.3740  206.4540  151.1050 C   0  0  0  0  0  0  0  0  0  0  0  0
  161.5850  209.4420  148.8090 C   0  0  0  0  0  0  0  0  0  0  0  0
  161.3960  209.2800  151.2470 C   0  0  0  0  0  0  0  0  0  0  0  0
  161.2940  207.0530  152.3710 C   0  0  0  0  0  0  0  0  0  0  0  0
  161.2060  210.7840  151.2960 C   0  0  0  0  0  2  0  0  0  0  0  0
  160.4800  208.7530  154.6400 O   0  0  0  0  0  0  0  0  0  0  0  0
  161.6990  211.5060  150.0710 C   0  0  0  0  0  3  0  0  0  0  0  0
  161.3680  205.0630  150.9770 C   0  0  0  0  0  3  0  0  0  0  0  0
  161.8500  210.8940  148.8970 C   0  0  0  0  0  0  0  0  0  0  0  0
  161.2880  204.2480  152.1160 C   0  0  0  0  0  0  0  0  0  0  0  0
  161.2240  206.2320  153.5080 C   0  0  0  0  0  3  0  0  0  0  0  0
  161.4700  207.2580  149.9700 O   0  0  0  0  0  0  0  0  0  0  0  0
  161.2190  204.8400  153.3800 C   0  0  0  0  0  3  0  0  0  0  0  0
  161.2900  209.1440  153.7560 C   0  0  0  0  0  0  0  0  0  0  0  0
  161.3170  208.4970  152.4660 N   0  0  0  0  0  0  0  0  0  0  0  0
  161.4460  208.8750  147.6940 O   0  0  0  0  0  0  0  0  0  0  0  0
  161.4760  208.6560  150.0510 C   0  0  0  0  0  0  0  0  0  0  0  0
  161.3790  212.3700  146.8730 C   0  0  0  0  0  0  0  0  0  0  0  0
  162.2560  211.6740  147.7660 N   0  0  0  0  0  2  0  0  0  0  0  0
  160.1450  212.1100  146.8480 O   0  0  0  0  0  0  0  0  0  0  0  0
  163.3790  212.9650  145.5260 C   0  0  0  0  0  2  0  0  0  0  0  0
  163.9110  213.9430  144.4830 C   0  0  0  0  0  2  0  0  0  0  0  0
  163.0490  213.9360  143.3010 N   0  0  0  0  0  2  0  0  0  0  0  0
  161.7330  214.4460  143.6830 C   0  0  0  0  0  2  0  0  0  0  0  0
  161.0710  213.4980  144.6810 C   0  0  0  0  0  2  0  0  0  0  0  0
  161.9560  213.3610  145.9190 C   0  0  0  0  0  3  0  0  0  0  0  0
  161.2760  202.8530  152.0210 O   0  0  0  0  0  0  0  0  0  0  0  0
  160.8370  202.1670  150.8570 C   0  0  0  0  0  1  0  0  0  0  0  0
  162.2950  210.2060  154.0920 C   0  0  0  0  0  2  0  0  0  0  0  0
  162.0120  210.8620  155.4370 C   0  0  0  0  0  2  0  0  0  0  0  0
  163.0530  210.5240  156.3920 N   0  0  0  0  0  1  0  0  0  0  0  0
  1  4  1  0  0  0  0
  2  9  1  0  0  0  0
  2 17  1  0  0  0  0
  3  5  1  0  0  0  0
  3 15  1  0  0  0  0
  4 15  1  0  0  0  0
  4 11  2  0  0  0  0
  7  5  1  0  0  0  0
  8  1  2  0  0  0  0
  8 10  1  0  0  0  0
  9  7  2  0  0  0  0
 10 13  2  0  0  0  0
 12 17  1  0  0  0  0
 12  1  1  0  0  0  0
 13 11  1  0  0  0  0
 14 29  1  0  0  0  0
 14  6  2  0  0  0  0
 15 14  1  0  0  0  0
 16  2  2  0  0  0  0
 17  3  2  0  0  0  0
 18 19  1  0  0  0  0
 19  9  1  0  0  0  0
 20 18  2  0  0  0  0
 21 26  1  0  0  0  0
 22 21  1  0  0  0  0
 23 24  1  0  0  0  0
 23 22  1  0  0  0  0
 24 25  1  0  0  0  0
 25 26  1  0  0  0  0
 26 18  1  0  0  0  0
 27 10  1  0  0  0  0
 28 27  1  0  0  0  0
 29 30  1  0  0  0  0
 30 31  1  0  0  0  0
M  END
>  <MODEL>
8

>  <REMARK>
 VINA RESULT:      -6.1      2.917      7.239
  Name = 
  5 active torsions:
  status: ('A' for Active; 'I' for Inactive)
    1  A    between atoms: C_3  and  C_23
    2  A    between atoms: C_3  and  C_24
    3  A    between atoms: O_8  and  C_17
    4  A    between atoms: C_9  and  C_31
    5  A    between atoms: N_11  and  C_15
                            x       y       z     vdW  Elec       q    Type
                         _______ _______ _______ _____ _____    ______ ____

>  <TORSDO>
F 5

$$$$
=
 OpenBabel11042420293D

 31 34  0  0  0  0  0  0  0  0999 V2000
  161.1730  204.4100  150.4510 C   0  0  0  0  0  0  0  0  0  0  0  0
  161.5810  207.9560  151.6780 C   0  0  0  0  0  0  0  0  0  0  0  0
  161.8500  206.9690  149.4510 C   0  0  0  0  0  0  0  0  0  0  0  0
  161.4630  204.5300  149.0840 C   0  0  0  0  0  0  0  0  0  0  0  0
  162.4040  208.2960  148.9700 C   0  0  0  0  0  2  0  0  0  0  0  0
  162.7830  205.1770  146.5270 O   0  0  0  0  0  0  0  0  0  0  0  0
  162.0390  209.4670  149.8420 C   0  0  0  0  0  3  0  0  0  0  0  0
  160.8320  203.1710  150.9980 C   0  0  0  0  0  3  0  0  0  0  0  0
  161.6840  209.3200  151.1180 C   0  0  0  0  0  0  0  0  0  0  0  0
  160.7690  202.0310  150.1830 C   0  0  0  0  0  0  0  0  0  0  0  0
  161.3880  203.3880  148.2710 C   0  0  0  0  0  3  0  0  0  0  0  0
  161.2180  205.5420  151.2650 O   0  0  0  0  0  0  0  0  0  0  0  0
  161.0460  202.1480  148.8180 C   0  0  0  0  0  3  0  0  0  0  0  0
  162.0490  206.0000  147.1390 C   0  0  0  0  0  0  0  0  0  0  0  0
  161.7980  205.8330  148.5500 N   0  0  0  0  0  0  0  0  0  0  0  0
  161.5190  207.7680  152.9220 O   0  0  0  0  0  0  0  0  0  0  0  0
  161.5580  206.8040  150.7610 C   0  0  0  0  0  0  0  0  0  0  0  0
  160.2510  210.7330  152.6820 C   0  0  0  0  0  0  0  0  0  0  0  0
  161.4230  210.4950  151.8950 N   0  0  0  0  0  2  0  0  0  0  0  0
  159.2130  210.0350  152.5210 O   0  0  0  0  0  0  0  0  0  0  0  0
  158.9670  212.6880  153.5180 C   0  0  0  0  0  2  0  0  0  0  0  0
  158.9490  213.7840  154.5800 C   0  0  0  0  0  2  0  0  0  0  0  0
  159.0220  213.1900  155.9140 N   0  0  0  0  0  2  0  0  0  0  0  0
  160.3170  212.5260  156.0580 C   0  0  0  0  0  2  0  0  0  0  0  0
  160.4170  211.3560  155.0820 C   0  0  0  0  0  2  0  0  0  0  0  0
  160.2490  211.8680  153.6520 C   0  0  0  0  0  3  0  0  0  0  0  0
  160.4350  200.7760  150.7000 O   0  0  0  0  0  0  0  0  0  0  0  0
  159.1270  200.2290  150.6000 C   0  0  0  0  0  1  0  0  0  0  0  0
  161.3520  207.0840  146.3690 C   0  0  0  0  0  2  0  0  0  0  0  0
  160.2820  206.5320  145.4380 C   0  0  0  0  0  2  0  0  0  0  0  0
  160.8900  205.7580  144.3710 N   0  0  0  0  0  1  0  0  0  0  0  0
  1  8  1  0  0  0  0
  1 12  1  0  0  0  0
  2 16  2  0  0  0  0
  3 17  2  0  0  0  0
  4  1  2  0  0  0  0
  5  3  1  0  0  0  0
  5  7  1  0  0  0  0
  6 14  2  0  0  0  0
  7  9  2  0  0  0  0
  9  2  1  0  0  0  0
  9 19  1  0  0  0  0
 10 27  1  0  0  0  0
 10  8  2  0  0  0  0
 11 13  2  0  0  0  0
 11  4  1  0  0  0  0
 13 10  1  0  0  0  0
 14 15  1  0  0  0  0
 15  4  1  0  0  0  0
 15  3  1  0  0  0  0
 17 12  1  0  0  0  0
 17  2  1  0  0  0  0
 18 26  1  0  0  0  0
 19 18  1  0  0  0  0
 20 18  2  0  0  0  0
 21 26  1  0  0  0  0
 21 22  1  0  0  0  0
 22 23  1  0  0  0  0
 23 24  1  0  0  0  0
 25 24  1  0  0  0  0
 26 25  1  0  0  0  0
 28 27  1  0  0  0  0
 29 14  1  0  0  0  0
 30 29  1  0  0  0  0
 31 30  1  0  0  0  0
M  END
>  <MODEL>
9

>  <REMARK>
 VINA RESULT:      -5.6      2.050      2.775
  Name = 
  5 active torsions:
  status: ('A' for Active; 'I' for Inactive)
    1  A    between atoms: C_3  and  C_23
    2  A    between atoms: C_3  and  C_24
    3  A    between atoms: O_8  and  C_17
    4  A    between atoms: C_9  and  C_31
    5  A    between atoms: N_11  and  C_15
                            x       y       z     vdW  Elec       q    Type
                         _______ _______ _______ _____ _____    ______ ____

>  <TORSDO>
F 5

$$$$
