=
 OpenBabel11052411513D

 32 35  0  0  1  0  0  0  0  0999 V2000
  160.7790  206.5490  154.6170 C   0  0  0  0  0  3  0  0  0  0  0  0
  160.3550  208.4640  156.0060 O   0  0  0  0  0  1  0  0  0  0  0  0
  161.5930  211.2530  150.3250 N   0  0  0  0  0  2  0  0  0  0  0  0
  161.0280  210.9740  152.6770 C   0  0  0  0  0  3  0  0  0  0  0  0
  161.2120  208.2090  152.3940 C   0  0  0  0  0  0  0  0  0  0  0  0
  160.8880  208.7660  153.6550 C   0  0  0  0  0  0  0  0  0  0  0  0
  161.3010  206.8010  152.2550 C   0  0  0  0  0  0  0  0  0  0  0  0
  162.0320  210.8360  149.0260 C   0  0  0  0  0  0  0  0  0  0  0  0
  161.4420  209.0430  151.3390 N   0  0  0  0  0  0  0  0  0  0  0  0
  160.6710  207.9310  154.7610 C   0  0  0  0  0  0  0  0  0  0  0  0
  162.2880  209.6260  148.7870 O   0  0  0  0  0  0  0  0  0  0  0  0
  160.7960  210.1550  153.7800 C   0  0  0  0  0  3  0  0  0  0  0  0
  161.0910  205.9920  153.3770 C   0  0  0  0  0  3  0  0  0  0  0  0
  161.3600  210.3980  151.4510 C   0  0  0  0  0  0  0  0  0  0  0  0
  159.7950  212.7790  147.5780 O   0  0  0  0  0  0  0  0  0  0  0  0
  162.1530  211.8480  147.9310 C   0  0  2  0  0  3  0  0  0  0  0  0
  162.2950  213.1060  148.4580 O   0  0  0  0  0  0  0  0  0  0  0  0
  161.0060  212.6140  147.8760 C   0  0  0  0  0  0  0  0  0  0  0  0
  161.6060  206.1430  151.0160 N   0  0  0  0  0  2  0  0  0  0  0  0
  161.3960  203.5530  148.7320 C   0  0  1  0  0  3  0  0  0  0  0  0
  161.2760  204.7580  147.9320 N   0  0  0  0  0  2  0  0  0  0  0  0
  160.6620  206.9810  148.3240 O   0  0  0  0  0  0  0  0  0  0  0  0
  160.6590  205.4290  150.1700 C   0  0  2  0  0  3  0  0  0  0  0  0
  160.9950  203.9360  150.1640 C   0  0  0  0  0  2  0  0  0  0  0  0
  160.8580  205.8180  148.7620 C   0  0  0  0  0  0  0  0  0  0  0  0
  160.4510  202.4860  148.2130 C   0  0  0  0  0  2  0  0  0  0  0  0
  161.1610  201.6010  147.2050 C   0  0  0  0  0  2  0  0  0  0  0  0
  160.7400  201.9710  145.8270 C   0  0  0  0  0  0  0  0  0  0  0  0
  159.8960  201.2550  145.2210 O   0  0  0  0  0  0  0  0  0  0  0  0
  161.3040  203.0880  145.2120 O   0  0  0  0  0  0  0  0  0  0  0  0
  161.3610  205.3450  144.4110 C   0  0  0  0  0  1  0  0  0  0  0  0
  160.5040  204.1210  144.6550 C   0  0  0  0  0  2  0  0  0  0  0  0
  1 10  1  0  0  0  0
  3 14  1  0  0  0  0
  4 12  2  0  0  0  0
  5  6  1  0  0  0  0
  6 12  1  0  0  0  0
  6 10  2  0  0  0  0
  7  5  2  0  0  0  0
  7 13  1  0  0  0  0
  8  3  1  0  0  0  0
  9 14  2  0  0  0  0
  9  5  1  0  0  0  0
 10  2  1  0  0  0  0
 11  8  2  0  0  0  0
 13  1  2  0  0  0  0
 14  4  1  0  0  0  0
 15 18  2  0  0  0  0
 16 17  1  0  0  0  0
 16  8  1  1  0  0  0
 18 16  1  0  0  0  0
 18 17  1  0  0  0  0
 19  7  1  0  0  0  0
 20 26  1  6  0  0  0
 20 24  1  0  0  0  0
 21 20  1  0  0  0  0
 21 25  1  0  0  0  0
 22 25  2  0  0  0  0
 23 19  1  1  0  0  0
 24 23  1  0  0  0  0
 25 23  1  0  0  0  0
 27 26  1  0  0  0  0
 28 27  1  0  0  0  0
 29 28  2  0  0  0  0
 30 28  1  0  0  0  0
 31 32  1  0  0  0  0
 32 30  1  0  0  0  0
M  END
>  <MODEL>
1

>  <REMARK>
 VINA RESULT:      -8.5      0.000      0.000
  Name = 
  8 active torsions:
  status: ('A' for Active; 'I' for Inactive)
    1  A    between atoms: C_1  and  C_20
    2  A    between atoms: C_5  and  C_10
    3  A    between atoms: C_5  and  O_12
    4  A    between atoms: C_10  and  C_20
    5  A    between atoms: C_11  and  O_12
    6  A    between atoms: C_16  and  N_30
    7  A    between atoms: C_17  and  N_30
    8  A    between atoms: C_18  and  C_24
                            x       y       z     vdW  Elec       q    Type
                         _______ _______ _______ _____ _____    ______ ____

>  <TORSDO>
F 8

$$$$
=
 OpenBabel11052411513D

 32 35  0  0  1  0  0  0  0  0999 V2000
  160.8870  203.7870  151.7270 C   0  0  0  0  0  3  0  0  0  0  0  0
  160.5540  202.9160  149.5120 O   0  0  0  0  0  1  0  0  0  0  0  0
  161.8310  209.1120  148.2690 N   0  0  0  0  0  2  0  0  0  0  0  0
  161.3050  206.7590  147.9320 C   0  0  0  0  0  3  0  0  0  0  0  0
  161.4040  206.3430  150.6850 C   0  0  0  0  0  0  0  0  0  0  0  0
  161.1060  205.2610  149.8210 C   0  0  0  0  0  0  0  0  0  0  0  0
  161.4570  206.1240  152.0840 C   0  0  0  0  0  0  0  0  0  0  0  0
  162.0360  210.3130  149.0240 C   0  0  0  0  0  0  0  0  0  0  0  0
  161.6250  207.5780  150.1500 N   0  0  0  0  0  0  0  0  0  0  0  0
  160.8500  203.9860  150.3470 C   0  0  0  0  0  0  0  0  0  0  0  0
  161.9730  210.3040  150.2820 O   0  0  0  0  0  0  0  0  0  0  0  0
  161.0640  205.4850  148.4420 C   0  0  0  0  0  3  0  0  0  0  0  0
  161.1860  204.8460  152.5840 C   0  0  0  0  0  3  0  0  0  0  0  0
  161.5820  207.8090  148.8080 C   0  0  0  0  0  0  0  0  0  0  0  0
  160.3900  212.0300  146.7410 O   0  0  0  0  0  0  0  0  0  0  0  0
  162.3630  211.5850  148.3090 C   0  0  2  0  0  3  0  0  0  0  0  0
  161.7740  212.6500  148.9390 O   0  0  0  0  0  0  0  0  0  0  0  0
  161.2370  212.0630  147.6700 C   0  0  0  0  0  0  0  0  0  0  0  0
  161.7670  207.1520  153.0380 N   0  0  0  0  0  2  0  0  0  0  0  0
  161.6010  210.0560  154.9080 C   0  0  1  0  0  3  0  0  0  0  0  0
  161.2080  209.0050  155.8290 N   0  0  0  0  0  2  0  0  0  0  0  0
  160.3560  206.8350  155.6350 O   0  0  0  0  0  0  0  0  0  0  0  0
  160.8200  208.0880  153.6270 C   0  0  2  0  0  3  0  0  0  0  0  0
  161.3530  209.5160  153.4940 C   0  0  0  0  0  2  0  0  0  0  0  0
  160.7670  207.8900  155.0870 C   0  0  0  0  0  0  0  0  0  0  0  0
  160.7480  211.2910  155.1330 C   0  0  0  0  0  2  0  0  0  0  0  0
  159.3700  210.8940  155.6300 C   0  0  0  0  0  2  0  0  0  0  0  0
  158.3310  211.4350  154.7140 C   0  0  0  0  0  0  0  0  0  0  0  0
  157.2960  211.9730  155.1950 O   0  0  0  0  0  0  0  0  0  0  0  0
  158.5000  211.3150  153.3350 O   0  0  0  0  0  0  0  0  0  0  0  0
  159.8090  212.6860  151.8700 C   0  0  0  0  0  1  0  0  0  0  0  0
  158.4410  212.4410  152.4720 C   0  0  0  0  0  2  0  0  0  0  0  0
  1 13  1  0  0  0  0
  2 10  1  0  0  0  0
  3 14  1  0  0  0  0
  3  8  1  0  0  0  0
  4 12  2  0  0  0  0
  4 14  1  0  0  0  0
  5  7  1  0  0  0  0
  6 10  1  0  0  0  0
  6  5  2  0  0  0  0
  7 13  2  0  0  0  0
  7 19  1  0  0  0  0
  8 11  2  0  0  0  0
  9  5  1  0  0  0  0
 10  1  2  0  0  0  0
 12  6  1  0  0  0  0
 14  9  2  0  0  0  0
 15 18  2  0  0  0  0
 16 17  1  0  0  0  0
 16  8  1  1  0  0  0
 18 16  1  0  0  0  0
 18 17  1  0  0  0  0
 20 26  1  1  0  0  0
 20 21  1  0  0  0  0
 23 19  1  6  0  0  0
 23 25  1  0  0  0  0
 24 23  1  0  0  0  0
 24 20  1  0  0  0  0
 25 22  2  0  0  0  0
 25 21  1  0  0  0  0
 26 27  1  0  0  0  0
 28 29  2  0  0  0  0
 28 27  1  0  0  0  0
 30 28  1  0  0  0  0
 31 32  1  0  0  0  0
 32 30  1  0  0  0  0
M  END
>  <MODEL>
2

>  <REMARK>
 VINA RESULT:      -8.5      2.412      7.241
  Name = 
  8 active torsions:
  status: ('A' for Active; 'I' for Inactive)
    1  A    between atoms: C_1  and  C_20
    2  A    between atoms: C_5  and  C_10
    3  A    between atoms: C_5  and  O_12
    4  A    between atoms: C_10  and  C_20
    5  A    between atoms: C_11  and  O_12
    6  A    between atoms: C_16  and  N_30
    7  A    between atoms: C_17  and  N_30
    8  A    between atoms: C_18  and  C_24
                            x       y       z     vdW  Elec       q    Type
                         _______ _______ _______ _____ _____    ______ ____

>  <TORSDO>
F 8

$$$$
=
 OpenBabel11052411513D

 32 35  0  0  1  0  0  0  0  0999 V2000
  161.1920  205.5190  153.0990 C   0  0  0  0  0  3  0  0  0  0  0  0
  160.7600  206.9200  155.0030 O   0  0  0  0  0  1  0  0  0  0  0  0
  161.6290  211.3070  150.3580 N   0  0  0  0  0  2  0  0  0  0  0  0
  161.1850  210.3250  152.5400 C   0  0  0  0  0  3  0  0  0  0  0  0
  161.4590  207.7760  151.4500 C   0  0  0  0  0  0  0  0  0  0  0  0
  161.1730  207.9230  152.8290 C   0  0  0  0  0  0  0  0  0  0  0  0
  161.5940  206.4770  150.9000 C   0  0  0  0  0  0  0  0  0  0  0  0
  162.0230  211.3120  148.9800 C   0  0  0  0  0  0  0  0  0  0  0  0
  161.6090  208.8930  150.6800 N   0  0  0  0  0  0  0  0  0  0  0  0
  161.0390  206.7920  153.6470 C   0  0  0  0  0  0  0  0  0  0  0  0
  162.3140  210.2390  148.3870 O   0  0  0  0  0  0  0  0  0  0  0  0
  161.0350  209.2080  153.3610 C   0  0  0  0  0  3  0  0  0  0  0  0
  161.4670  205.3660  151.7400 C   0  0  0  0  0  3  0  0  0  0  0  0
  161.4810  210.1500  151.1890 C   0  0  0  0  0  0  0  0  0  0  0  0
  159.7880  212.7860  147.0560 O   0  0  0  0  0  0  0  0  0  0  0  0
  162.0560  212.6040  148.2290 C   0  0  2  0  0  3  0  0  0  0  0  0
  161.4680  213.5990  148.9660 O   0  0  0  0  0  0  0  0  0  0  0  0
  160.7820  212.9330  147.8130 C   0  0  0  0  0  0  0  0  0  0  0  0
  161.8650  206.2260  149.5120 N   0  0  0  0  0  2  0  0  0  0  0  0
  161.9650  203.9260  146.9310 C   0  0  1  0  0  3  0  0  0  0  0  0
  161.6620  205.1900  146.2840 N   0  0  0  0  0  2  0  0  0  0  0  0
  160.7560  207.2420  146.9480 O   0  0  0  0  0  0  0  0  0  0  0  0
  161.0080  205.4940  148.5900 C   0  0  2  0  0  3  0  0  0  0  0  0
  161.5460  204.0740  148.4000 C   0  0  0  0  0  2  0  0  0  0  0  0
  161.1200  206.0730  147.2390 C   0  0  0  0  0  0  0  0  0  0  0  0
  161.1640  202.8080  146.2900 C   0  0  0  0  0  2  0  0  0  0  0  0
  160.3860  202.0460  147.3480 C   0  0  0  0  0  2  0  0  0  0  0  0
  161.1450  200.8330  147.7540 C   0  0  0  0  0  0  0  0  0  0  0  0
  161.5080  200.0030  146.8760 O   0  0  0  0  0  0  0  0  0  0  0  0
  161.4210  200.6150  149.1040 O   0  0  0  0  0  0  0  0  0  0  0  0
  161.3150  201.9300  151.1030 C   0  0  0  0  0  1  0  0  0  0  0  0
  160.5470  201.0610  150.1290 C   0  0  0  0  0  2  0  0  0  0  0  0
  1 10  1  0  0  0  0
  3 14  1  0  0  0  0
  4 12  2  0  0  0  0
  5  6  1  0  0  0  0
  6 12  1  0  0  0  0
  6 10  2  0  0  0  0
  7  5  2  0  0  0  0
  7 13  1  0  0  0  0
  8  3  1  0  0  0  0
  9 14  2  0  0  0  0
  9  5  1  0  0  0  0
 10  2  1  0  0  0  0
 11  8  2  0  0  0  0
 13  1  2  0  0  0  0
 14  4  1  0  0  0  0
 15 18  2  0  0  0  0
 16 17  1  0  0  0  0
 16  8  1  1  0  0  0
 18 16  1  0  0  0  0
 18 17  1  0  0  0  0
 19  7  1  0  0  0  0
 20 26  1  6  0  0  0
 20 24  1  0  0  0  0
 21 20  1  0  0  0  0
 21 25  1  0  0  0  0
 22 25  2  0  0  0  0
 23 19  1  1  0  0  0
 24 23  1  0  0  0  0
 25 23  1  0  0  0  0
 26 27  1  0  0  0  0
 27 28  1  0  0  0  0
 28 30  1  0  0  0  0
 29 28  2  0  0  0  0
 30 32  1  0  0  0  0
 32 31  1  0  0  0  0
M  END
>  <MODEL>
3

>  <REMARK>
 VINA RESULT:      -8.1      1.448      2.350
  Name = 
  8 active torsions:
  status: ('A' for Active; 'I' for Inactive)
    1  A    between atoms: C_1  and  C_20
    2  A    between atoms: C_5  and  C_10
    3  A    between atoms: C_5  and  O_12
    4  A    between atoms: C_10  and  C_20
    5  A    between atoms: C_11  and  O_12
    6  A    between atoms: C_16  and  N_30
    7  A    between atoms: C_17  and  N_30
    8  A    between atoms: C_18  and  C_24
                            x       y       z     vdW  Elec       q    Type
                         _______ _______ _______ _____ _____    ______ ____

>  <TORSDO>
F 8

$$$$
=
 OpenBabel11052411513D

 32 35  0  0  1  0  0  0  0  0999 V2000
  161.0630  206.8590  154.5140 C   0  0  0  0  0  3  0  0  0  0  0  0
  159.9610  208.0100  156.3130 O   0  0  0  0  0  1  0  0  0  0  0  0
  160.0830  212.5770  151.7630 N   0  0  0  0  0  2  0  0  0  0  0  0
  159.6610  211.4460  153.8780 C   0  0  0  0  0  3  0  0  0  0  0  0
  160.8530  209.1350  152.8800 C   0  0  0  0  0  0  0  0  0  0  0  0
  160.3460  209.1490  154.2030 C   0  0  0  0  0  0  0  0  0  0  0  0
  161.4550  207.9540  152.3780 C   0  0  0  0  0  0  0  0  0  0  0  0
  160.6450  212.7390  150.4550 C   0  0  0  0  0  0  0  0  0  0  0  0
  160.7590  210.2640  152.1210 N   0  0  0  0  0  0  0  0  0  0  0  0
  160.4520  208.0090  155.0130 C   0  0  0  0  0  0  0  0  0  0  0  0
  161.3300  211.8230  149.9280 O   0  0  0  0  0  0  0  0  0  0  0  0
  159.7470  210.3150  154.6880 C   0  0  0  0  0  3  0  0  0  0  0  0
  161.5590  206.8350  153.2100 C   0  0  0  0  0  3  0  0  0  0  0  0
  160.1820  211.4080  152.5850 C   0  0  0  0  0  0  0  0  0  0  0  0
  162.3560  214.2610  148.0830 O   0  0  0  0  0  0  0  0  0  0  0  0
  160.3840  213.9990  149.6940 C   0  0  2  0  0  3  0  0  0  0  0  0
  159.7750  213.7170  148.4990 O   0  0  0  0  0  0  0  0  0  0  0  0
  161.2270  214.0670  148.6030 C   0  0  0  0  0  0  0  0  0  0  0  0
  161.9820  207.8360  151.0470 N   0  0  0  0  0  2  0  0  0  0  0  0
  161.8800  205.8190  148.2390 C   0  0  1  0  0  3  0  0  0  0  0  0
  162.3200  207.1120  147.7450 N   0  0  0  0  0  2  0  0  0  0  0  0
  162.1780  209.3280  148.4820 O   0  0  0  0  0  0  0  0  0  0  0  0
  161.2090  207.5850  149.8390 C   0  0  2  0  0  3  0  0  0  0  0  0
  161.1520  206.0800  149.5650 C   0  0  0  0  0  2  0  0  0  0  0  0
  161.9330  208.1070  148.6660 C   0  0  0  0  0  0  0  0  0  0  0  0
  160.9170  205.1850  147.2520 C   0  0  0  0  0  2  0  0  0  0  0  0
  161.6620  204.2440  146.3240 C   0  0  0  0  0  2  0  0  0  0  0  0
  161.2310  202.8430  146.5770 C   0  0  0  0  0  0  0  0  0  0  0  0
  160.6130  202.2090  145.6790 O   0  0  0  0  0  0  0  0  0  0  0  0
  161.4920  202.2570  147.8160 O   0  0  0  0  0  0  0  0  0  0  0  0
  160.4560  202.4030  149.9710 C   0  0  0  0  0  1  0  0  0  0  0  0
  160.4560  201.7160  148.6220 C   0  0  0  0  0  2  0  0  0  0  0  0
  1 10  1  0  0  0  0
  3 14  1  0  0  0  0
  4 12  2  0  0  0  0
  5  6  1  0  0  0  0
  6 12  1  0  0  0  0
  6 10  2  0  0  0  0
  7  5  2  0  0  0  0
  7 13  1  0  0  0  0
  8  3  1  0  0  0  0
  9 14  2  0  0  0  0
  9  5  1  0  0  0  0
 10  2  1  0  0  0  0
 11  8  2  0  0  0  0
 13  1  2  0  0  0  0
 14  4  1  0  0  0  0
 15 18  2  0  0  0  0
 16  8  1  1  0  0  0
 17 18  1  0  0  0  0
 17 16  1  0  0  0  0
 18 16  1  0  0  0  0
 19  7  1  0  0  0  0
 20 26  1  6  0  0  0
 20 24  1  0  0  0  0
 21 20  1  0  0  0  0
 21 25  1  0  0  0  0
 22 25  2  0  0  0  0
 23 19  1  1  0  0  0
 24 23  1  0  0  0  0
 25 23  1  0  0  0  0
 27 28  1  0  0  0  0
 27 26  1  0  0  0  0
 28 30  1  0  0  0  0
 29 28  2  0  0  0  0
 30 32  1  0  0  0  0
 32 31  1  0  0  0  0
M  END
>  <MODEL>
4

>  <REMARK>
 VINA RESULT:      -7.7      1.613      2.471
  Name = 
  8 active torsions:
  status: ('A' for Active; 'I' for Inactive)
    1  A    between atoms: C_1  and  C_20
    2  A    between atoms: C_5  and  C_10
    3  A    between atoms: C_5  and  O_12
    4  A    between atoms: C_10  and  C_20
    5  A    between atoms: C_11  and  O_12
    6  A    between atoms: C_16  and  N_30
    7  A    between atoms: C_17  and  N_30
    8  A    between atoms: C_18  and  C_24
                            x       y       z     vdW  Elec       q    Type
                         _______ _______ _______ _____ _____    ______ ____

>  <TORSDO>
F 8

$$$$
=
 OpenBabel11052411513D

 32 35  0  0  1  0  0  0  0  0999 V2000
  161.2140  206.8440  154.6490 C   0  0  0  0  0  3  0  0  0  0  0  0
  161.0010  208.0100  156.7400 O   0  0  0  0  0  1  0  0  0  0  0  0
  160.0190  212.7790  152.5140 N   0  0  0  0  0  2  0  0  0  0  0  0
  160.2620  211.5880  154.6230 C   0  0  0  0  0  3  0  0  0  0  0  0
  160.7070  209.2160  153.2320 C   0  0  0  0  0  0  0  0  0  0  0  0
  160.7260  209.2140  154.6490 C   0  0  0  0  0  0  0  0  0  0  0  0
  160.9300  208.0050  152.5310 C   0  0  0  0  0  0  0  0  0  0  0  0
  160.0780  212.9490  151.0920 C   0  0  0  0  0  0  0  0  0  0  0  0
  160.4840  210.3890  152.5730 N   0  0  0  0  0  0  0  0  0  0  0  0
  160.9780  208.0260  155.3500 C   0  0  0  0  0  0  0  0  0  0  0  0
  160.4020  211.9930  150.3390 O   0  0  0  0  0  0  0  0  0  0  0  0
  160.4970  210.4120  155.3320 C   0  0  0  0  0  3  0  0  0  0  0  0
  161.1910  206.8370  153.2540 C   0  0  0  0  0  3  0  0  0  0  0  0
  160.2640  211.5630  153.2280 C   0  0  0  0  0  0  0  0  0  0  0  0
  159.1890  213.8020  148.0330 O   0  0  0  0  0  0  0  0  0  0  0  0
  159.7160  214.2710  150.4930 C   0  0  2  0  0  3  0  0  0  0  0  0
  158.3560  214.4370  150.4900 O   0  0  0  0  0  0  0  0  0  0  0  0
  159.1300  214.0790  149.2590 C   0  0  0  0  0  0  0  0  0  0  0  0
  160.9140  207.9020  151.0980 N   0  0  0  0  0  2  0  0  0  0  0  0
  161.2990  206.7290  147.8680 C   0  0  1  0  0  3  0  0  0  0  0  0
  160.6560  205.6390  148.5790 N   0  0  0  0  0  2  0  0  0  0  0  0
  160.4570  204.9780  150.8140 O   0  0  0  0  0  0  0  0  0  0  0  0
  161.7030  206.9770  150.2970 C   0  0  2  0  0  3  0  0  0  0  0  0
  161.9920  207.5960  148.9270 C   0  0  0  0  0  2  0  0  0  0  0  0
  160.8930  205.7930  149.9600 C   0  0  0  0  0  0  0  0  0  0  0  0
  162.3380  206.1820  146.9060 C   0  0  0  0  0  2  0  0  0  0  0  0
  162.0490  204.7260  146.5930 C   0  0  0  0  0  2  0  0  0  0  0  0
  161.3920  204.6180  145.2640 C   0  0  0  0  0  0  0  0  0  0  0  0
  161.3570  205.6230  144.5030 O   0  0  0  0  0  0  0  0  0  0  0  0
  160.7970  203.4140  144.8860 O   0  0  0  0  0  0  0  0  0  0  0  0
  160.0830  201.1330  145.0530 C   0  0  0  0  0  1  0  0  0  0  0  0
  160.7690  202.2890  145.7510 C   0  0  0  0  0  2  0  0  0  0  0  0
  1 10  1  0  0  0  0
  3 14  1  0  0  0  0
  4 12  2  0  0  0  0
  5  6  1  0  0  0  0
  6 12  1  0  0  0  0
  6 10  2  0  0  0  0
  7  5  2  0  0  0  0
  7 13  1  0  0  0  0
  8  3  1  0  0  0  0
  9 14  2  0  0  0  0
  9  5  1  0  0  0  0
 10  2  1  0  0  0  0
 11  8  2  0  0  0  0
 13  1  2  0  0  0  0
 14  4  1  0  0  0  0
 15 18  2  0  0  0  0
 16  8  1  1  0  0  0
 17 16  1  0  0  0  0
 18 17  1  0  0  0  0
 18 16  1  0  0  0  0
 19  7  1  0  0  0  0
 20 26  1  6  0  0  0
 20 21  1  0  0  0  0
 20 24  1  0  0  0  0
 21 25  1  0  0  0  0
 23 19  1  1  0  0  0
 24 23  1  0  0  0  0
 25 23  1  0  0  0  0
 25 22  2  0  0  0  0
 27 26  1  0  0  0  0
 28 27  1  0  0  0  0
 29 28  2  0  0  0  0
 30 28  1  0  0  0  0
 30 32  1  0  0  0  0
 31 32  1  0  0  0  0
M  END
>  <MODEL>
5

>  <REMARK>
 VINA RESULT:      -7.3      1.938      2.732
  Name = 
  8 active torsions:
  status: ('A' for Active; 'I' for Inactive)
    1  A    between atoms: C_1  and  C_20
    2  A    between atoms: C_5  and  C_10
    3  A    between atoms: C_5  and  O_12
    4  A    between atoms: C_10  and  C_20
    5  A    between atoms: C_11  and  O_12
    6  A    between atoms: C_16  and  N_30
    7  A    between atoms: C_17  and  N_30
    8  A    between atoms: C_18  and  C_24
                            x       y       z     vdW  Elec       q    Type
                         _______ _______ _______ _____ _____    ______ ____

>  <TORSDO>
F 8

$$$$
=
 OpenBabel11052411513D

 32 35  0  0  1  0  0  0  0  0999 V2000
  159.3160  209.9910  155.8130 C   0  0  0  0  0  3  0  0  0  0  0  0
  157.8990  211.8490  156.3750 O   0  0  0  0  0  1  0  0  0  0  0  0
  159.8290  213.4650  150.4380 N   0  0  0  0  0  2  0  0  0  0  0  0
  158.7020  213.5510  152.5940 C   0  0  0  0  0  3  0  0  0  0  0  0
  159.8430  211.1070  153.2900 C   0  0  0  0  0  0  0  0  0  0  0  0
  158.9910  211.7710  154.2060 C   0  0  0  0  0  0  0  0  0  0  0  0
  160.4170  209.8620  153.6480 C   0  0  0  0  0  0  0  0  0  0  0  0
  160.7500  212.9630  149.4620 C   0  0  0  0  0  0  0  0  0  0  0  0
  160.1000  211.6880  152.0820 N   0  0  0  0  0  0  0  0  0  0  0  0
  158.7310  211.2080  155.4640 C   0  0  0  0  0  0  0  0  0  0  0  0
  161.4420  211.9360  149.6940 O   0  0  0  0  0  0  0  0  0  0  0  0
  158.4230  212.9950  153.8410 C   0  0  0  0  0  3  0  0  0  0  0  0
  160.1510  209.3280  154.9130 C   0  0  0  0  0  3  0  0  0  0  0  0
  159.5550  212.8820  151.7180 C   0  0  0  0  0  0  0  0  0  0  0  0
  162.9010  212.6080  146.9880 O   0  0  0  0  0  0  0  0  0  0  0  0
  160.8640  213.6480  148.1380 C   0  0  2  0  0  3  0  0  0  0  0  0
  160.2530  212.9040  147.1620 O   0  0  0  0  0  0  0  0  0  0  0  0
  161.7410  212.9540  147.3280 C   0  0  0  0  0  0  0  0  0  0  0  0
  161.2780  209.1060  152.7820 N   0  0  0  0  0  2  0  0  0  0  0  0
  162.2640  205.8950  151.9570 C   0  0  1  0  0  3  0  0  0  0  0  0
  162.5500  206.6820  150.7710 N   0  0  0  0  0  2  0  0  0  0  0  0
  161.8000  208.7120  149.8820 O   0  0  0  0  0  0  0  0  0  0  0  0
  160.8890  207.9530  151.9820 C   0  0  2  0  0  3  0  0  0  0  0  0
  161.1970  206.6640  152.7480 C   0  0  0  0  0  2  0  0  0  0  0  0
  161.7610  207.8500  150.7980 C   0  0  0  0  0  0  0  0  0  0  0  0
  161.7160  204.5370  151.5620 C   0  0  0  0  0  2  0  0  0  0  0  0
  160.6340  204.6930  150.5090 C   0  0  0  0  0  2  0  0  0  0  0  0
  160.8230  203.6770  149.4400 C   0  0  0  0  0  0  0  0  0  0  0  0
  160.3100  202.5320  149.5710 O   0  0  0  0  0  0  0  0  0  0  0  0
  161.5880  203.9940  148.3180 O   0  0  0  0  0  0  0  0  0  0  0  0
  161.5790  205.0070  146.1470 C   0  0  0  0  0  1  0  0  0  0  0  0
  161.4440  205.2320  147.6380 C   0  0  0  0  0  2  0  0  0  0  0  0
  3 14  1  0  0  0  0
  4 12  2  0  0  0  0
  5  7  2  0  0  0  0
  5  6  1  0  0  0  0
  6 10  2  0  0  0  0
  7 13  1  0  0  0  0
  8 11  2  0  0  0  0
  8  3  1  0  0  0  0
  9  5  1  0  0  0  0
 10  1  1  0  0  0  0
 10  2  1  0  0  0  0
 12  6  1  0  0  0  0
 13  1  2  0  0  0  0
 14  9  2  0  0  0  0
 14  4  1  0  0  0  0
 15 18  2  0  0  0  0
 16  8  1  1  0  0  0
 17 18  1  0  0  0  0
 17 16  1  0  0  0  0
 18 16  1  0  0  0  0
 19  7  1  0  0  0  0
 20 26  1  6  0  0  0
 20 24  1  0  0  0  0
 21 25  1  0  0  0  0
 21 20  1  0  0  0  0
 22 25  2  0  0  0  0
 23 24  1  0  0  0  0
 23 19  1  1  0  0  0
 25 23  1  0  0  0  0
 27 26  1  0  0  0  0
 28 29  2  0  0  0  0
 28 27  1  0  0  0  0
 30 28  1  0  0  0  0
 31 32  1  0  0  0  0
 32 30  1  0  0  0  0
M  END
>  <MODEL>
6

>  <REMARK>
 VINA RESULT:      -7.3      2.158      3.387
  Name = 
  8 active torsions:
  status: ('A' for Active; 'I' for Inactive)
    1  A    between atoms: C_1  and  C_20
    2  A    between atoms: C_5  and  C_10
    3  A    between atoms: C_5  and  O_12
    4  A    between atoms: C_10  and  C_20
    5  A    between atoms: C_11  and  O_12
    6  A    between atoms: C_16  and  N_30
    7  A    between atoms: C_17  and  N_30
    8  A    between atoms: C_18  and  C_24
                            x       y       z     vdW  Elec       q    Type
                         _______ _______ _______ _____ _____    ______ ____

>  <TORSDO>
F 8

$$$$
=
 OpenBabel11052411513D

 32 35  0  0  1  0  0  0  0  0999 V2000
  161.3850  209.5040  154.0690 C   0  0  0  0  0  3  0  0  0  0  0  0
  160.6660  207.4760  155.1400 O   0  0  0  0  0  1  0  0  0  0  0  0
  161.4040  205.5100  149.0440 N   0  0  0  0  0  2  0  0  0  0  0  0
  160.9260  205.4740  151.4300 C   0  0  0  0  0  3  0  0  0  0  0  0
  161.5770  208.1770  151.6010 C   0  0  0  0  0  0  0  0  0  0  0  0
  161.1640  207.4800  152.7630 C   0  0  0  0  0  0  0  0  0  0  0  0
  161.9100  209.5520  151.6950 C   0  0  0  0  0  0  0  0  0  0  0  0
  161.6990  206.1110  147.7770 C   0  0  0  0  0  0  0  0  0  0  0  0
  161.6350  207.5120  150.4120 N   0  0  0  0  0  0  0  0  0  0  0  0
  161.0720  208.1470  153.9920 C   0  0  0  0  0  0  0  0  0  0  0  0
  161.8820  207.3530  147.6770 O   0  0  0  0  0  0  0  0  0  0  0  0
  160.8450  206.1230  152.6620 C   0  0  0  0  0  3  0  0  0  0  0  0
  161.7980  210.1970  152.9310 C   0  0  0  0  0  3  0  0  0  0  0  0
  161.3220  206.1900  150.3010 C   0  0  0  0  0  0  0  0  0  0  0  0
  160.0830  206.1150  144.9020 O   0  0  0  0  0  0  0  0  0  0  0  0
  161.8250  205.2450  146.5630 C   0  0  2  0  0  3  0  0  0  0  0  0
  162.6370  205.8410  145.6340 O   0  0  0  0  0  0  0  0  0  0  0  0
  161.1450  205.8190  145.5090 C   0  0  0  0  0  0  0  0  0  0  0  0
  162.3550  210.3390  150.5800 N   0  0  0  0  0  2  0  0  0  0  0  0
  162.3710  212.6200  147.9800 C   0  0  1  0  0  3  0  0  0  0  0  0
  161.5850  213.2570  149.0210 N   0  0  0  0  0  2  0  0  0  0  0  0
  160.3780  212.5380  150.8920 O   0  0  0  0  0  0  0  0  0  0  0  0
  161.5100  210.8970  149.5340 C   0  0  2  0  0  3  0  0  0  0  0  0
  162.3340  211.1120  148.2620 C   0  0  0  0  0  2  0  0  0  0  0  0
  161.1010  212.2660  149.8990 C   0  0  0  0  0  0  0  0  0  0  0  0
  161.7550  212.8930  146.6210 C   0  0  0  0  0  2  0  0  0  0  0  0
  162.5970  213.8970  145.8540 C   0  0  0  0  0  2  0  0  0  0  0  0
  162.7530  213.4490  144.4450 C   0  0  0  0  0  0  0  0  0  0  0  0
  163.7250  213.8720  143.7610 O   0  0  0  0  0  0  0  0  0  0  0  0
  161.8070  212.5880  143.8880 O   0  0  0  0  0  0  0  0  0  0  0  0
  160.4460  211.8880  142.0450 C   0  0  0  0  0  1  0  0  0  0  0  0
  161.8470  212.2160  142.5190 C   0  0  0  0  0  2  0  0  0  0  0  0
  3 14  1  0  0  0  0
  4 12  2  0  0  0  0
  5  7  2  0  0  0  0
  5  6  1  0  0  0  0
  6 10  2  0  0  0  0
  7 13  1  0  0  0  0
  8  3  1  0  0  0  0
  9  5  1  0  0  0  0
 10  1  1  0  0  0  0
 10  2  1  0  0  0  0
 11  8  2  0  0  0  0
 12  6  1  0  0  0  0
 13  1  2  0  0  0  0
 14  9  2  0  0  0  0
 14  4  1  0  0  0  0
 15 18  2  0  0  0  0
 16  8  1  1  0  0  0
 17 16  1  0  0  0  0
 18 17  1  0  0  0  0
 18 16  1  0  0  0  0
 19  7  1  0  0  0  0
 20 26  1  6  0  0  0
 20 24  1  0  0  0  0
 20 21  1  0  0  0  0
 21 25  1  0  0  0  0
 23 25  1  0  0  0  0
 23 19  1  1  0  0  0
 24 23  1  0  0  0  0
 25 22  2  0  0  0  0
 27 26  1  0  0  0  0
 28 27  1  0  0  0  0
 29 28  2  0  0  0  0
 30 28  1  0  0  0  0
 31 32  1  0  0  0  0
 32 30  1  0  0  0  0
M  END
>  <MODEL>
7

>  <REMARK>
 VINA RESULT:      -7.0      2.498      6.909
  Name = 
  8 active torsions:
  status: ('A' for Active; 'I' for Inactive)
    1  A    between atoms: C_1  and  C_20
    2  A    between atoms: C_5  and  C_10
    3  A    between atoms: C_5  and  O_12
    4  A    between atoms: C_10  and  C_20
    5  A    between atoms: C_11  and  O_12
    6  A    between atoms: C_16  and  N_30
    7  A    between atoms: C_17  and  N_30
    8  A    between atoms: C_18  and  C_24
                            x       y       z     vdW  Elec       q    Type
                         _______ _______ _______ _____ _____    ______ ____

>  <TORSDO>
F 8

$$$$
=
 OpenBabel11052411513D

 32 35  0  0  1  0  0  0  0  0999 V2000
  161.3500  210.2640  152.9200 C   0  0  0  0  0  3  0  0  0  0  0  0
  160.9140  208.4250  154.4050 O   0  0  0  0  0  1  0  0  0  0  0  0
  161.5800  205.3790  148.7610 N   0  0  0  0  0  2  0  0  0  0  0  0
  161.2220  205.7670  151.1370 C   0  0  0  0  0  3  0  0  0  0  0  0
  161.5730  208.5030  150.7430 C   0  0  0  0  0  0  0  0  0  0  0  0
  161.2960  208.0100  152.0420 C   0  0  0  0  0  0  0  0  0  0  0  0
  161.7540  209.8950  150.5500 C   0  0  0  0  0  0  0  0  0  0  0  0
  161.7460  205.7450  147.3850 C   0  0  0  0  0  0  0  0  0  0  0  0
  161.6490  207.6240  149.7020 N   0  0  0  0  0  0  0  0  0  0  0  0
  161.1880  208.8940  153.1250 C   0  0  0  0  0  0  0  0  0  0  0  0
  161.7840  206.9550  147.0370 O   0  0  0  0  0  0  0  0  0  0  0  0
  161.1270  206.6340  152.2240 C   0  0  0  0  0  3  0  0  0  0  0  0
  161.6290  210.7560  151.6450 C   0  0  0  0  0  3  0  0  0  0  0  0
  161.4810  206.2820  149.8670 C   0  0  0  0  0  0  0  0  0  0  0  0
  161.2100  205.7320  144.1320 O   0  0  0  0  0  0  0  0  0  0  0  0
  161.9110  204.6730  146.3540 C   0  0  2  0  0  3  0  0  0  0  0  0
  163.1280  204.7920  145.7350 O   0  0  0  0  0  0  0  0  0  0  0  0
  161.8470  205.2290  145.0920 C   0  0  0  0  0  0  0  0  0  0  0  0
  162.0550  210.4880  149.2770 N   0  0  0  0  0  2  0  0  0  0  0  0
  160.9200  212.6890  146.8630 C   0  0  1  0  0  3  0  0  0  0  0  0
  162.3620  212.6720  146.6940 N   0  0  0  0  0  2  0  0  0  0  0  0
  164.2020  212.1210  148.0280 O   0  0  0  0  0  0  0  0  0  0  0  0
  161.9860  211.9060  148.9550 C   0  0  2  0  0  3  0  0  0  0  0  0
  160.6400  212.2230  148.2980 C   0  0  0  0  0  2  0  0  0  0  0  0
  162.9560  212.2230  147.8910 C   0  0  0  0  0  0  0  0  0  0  0  0
  160.3910  214.0990  146.6800 C   0  0  0  0  0  2  0  0  0  0  0  0
  160.1190  214.3720  145.2120 C   0  0  0  0  0  2  0  0  0  0  0  0
  158.9510  213.5690  144.7600 C   0  0  0  0  0  0  0  0  0  0  0  0
  159.0700  212.8020  143.7650 O   0  0  0  0  0  0  0  0  0  0  0  0
  157.7310  213.6960  145.4240 O   0  0  0  0  0  0  0  0  0  0  0  0
  157.1170  212.7350  147.5300 C   0  0  0  0  0  1  0  0  0  0  0  0
  157.0850  212.5840  146.0240 C   0  0  0  0  0  2  0  0  0  0  0  0
  1 10  1  0  0  0  0
  3 14  1  0  0  0  0
  4 12  2  0  0  0  0
  5  6  1  0  0  0  0
  6 12  1  0  0  0  0
  6 10  2  0  0  0  0
  7  5  2  0  0  0  0
  7 13  1  0  0  0  0
  8  3  1  0  0  0  0
  9 14  2  0  0  0  0
  9  5  1  0  0  0  0
 10  2  1  0  0  0  0
 11  8  2  0  0  0  0
 13  1  2  0  0  0  0
 14  4  1  0  0  0  0
 15 18  2  0  0  0  0
 16  8  1  1  0  0  0
 17 16  1  0  0  0  0
 18 17  1  0  0  0  0
 18 16  1  0  0  0  0
 19  7  1  0  0  0  0
 20 26  1  1  0  0  0
 20 24  1  0  0  0  0
 21 20  1  0  0  0  0
 21 25  1  0  0  0  0
 23 19  1  6  0  0  0
 24 23  1  0  0  0  0
 25 22  2  0  0  0  0
 25 23  1  0  0  0  0
 27 26  1  0  0  0  0
 28 27  1  0  0  0  0
 28 30  1  0  0  0  0
 29 28  2  0  0  0  0
 30 32  1  0  0  0  0
 32 31  1  0  0  0  0
M  END
>  <MODEL>
8

>  <REMARK>
 VINA RESULT:      -7.0      2.212      7.335
  Name = 
  8 active torsions:
  status: ('A' for Active; 'I' for Inactive)
    1  A    between atoms: C_1  and  C_20
    2  A    between atoms: C_5  and  C_10
    3  A    between atoms: C_5  and  O_12
    4  A    between atoms: C_10  and  C_20
    5  A    between atoms: C_11  and  O_12
    6  A    between atoms: C_16  and  N_30
    7  A    between atoms: C_17  and  N_30
    8  A    between atoms: C_18  and  C_24
                            x       y       z     vdW  Elec       q    Type
                         _______ _______ _______ _____ _____    ______ ____

>  <TORSDO>
F 8

$$$$
=
 OpenBabel11052411513D

 32 35  0  0  1  0  0  0  0  0999 V2000
  160.1000  209.2620  156.4900 C   0  0  0  0  0  3  0  0  0  0  0  0
  160.1900  206.9390  157.0970 O   0  0  0  0  0  1  0  0  0  0  0  0
  161.7790  206.6900  150.8530 N   0  0  0  0  0  2  0  0  0  0  0  0
  161.2930  205.9890  153.1330 C   0  0  0  0  0  3  0  0  0  0  0  0
  160.8490  208.6420  153.8550 C   0  0  0  0  0  0  0  0  0  0  0  0
  160.7070  207.6180  154.8230 C   0  0  0  0  0  0  0  0  0  0  0  0
  160.6250  209.9900  154.2300 C   0  0  0  0  0  0  0  0  0  0  0  0
  161.8520  207.6050  149.7530 C   0  0  0  0  0  0  0  0  0  0  0  0
  161.1880  208.3060  152.5770 N   0  0  0  0  0  0  0  0  0  0  0  0
  160.3350  207.9340  156.1370 C   0  0  0  0  0  0  0  0  0  0  0  0
  161.5460  208.8180  149.8980 O   0  0  0  0  0  0  0  0  0  0  0  0
  160.9370  206.2910  154.4460 C   0  0  0  0  0  3  0  0  0  0  0  0
  160.2430  210.2780  155.5440 C   0  0  0  0  0  3  0  0  0  0  0  0
  161.4100  207.0160  152.1980 C   0  0  0  0  0  0  0  0  0  0  0  0
  161.4370  204.7310  148.1900 O   0  0  0  0  0  0  0  0  0  0  0  0
  162.3320  207.1180  148.4220 C   0  0  2  0  0  3  0  0  0  0  0  0
  161.3630  207.3020  147.4700 O   0  0  0  0  0  0  0  0  0  0  0  0
  161.6560  205.9650  148.0780 C   0  0  0  0  0  0  0  0  0  0  0  0
  160.7610  211.0990  153.3270 N   0  0  0  0  0  2  0  0  0  0  0  0
  159.5780  213.7600  151.4610 C   0  0  1  0  0  3  0  0  0  0  0  0
  158.4690  213.3980  152.3250 N   0  0  0  0  0  2  0  0  0  0  0  0
  157.8190  211.4890  153.5120 O   0  0  0  0  0  0  0  0  0  0  0  0
  159.8610  211.4240  152.2290 C   0  0  2  0  0  3  0  0  0  0  0  0
  160.4790  212.5220  151.3610 C   0  0  0  0  0  2  0  0  0  0  0  0
  158.6430  212.0660  152.7570 C   0  0  0  0  0  0  0  0  0  0  0  0
  159.0640  214.1210  150.0790 C   0  0  0  0  0  2  0  0  0  0  0  0
  160.2020  214.1000  149.0740 C   0  0  0  0  0  2  0  0  0  0  0  0
  159.8140  213.2810  147.8950 C   0  0  0  0  0  0  0  0  0  0  0  0
  158.6100  213.2580  147.5210 O   0  0  0  0  0  0  0  0  0  0  0  0
  160.7830  212.5260  147.2340 O   0  0  0  0  0  0  0  0  0  0  0  0
  163.0890  212.5580  147.8840 C   0  0  0  0  0  1  0  0  0  0  0  0
  161.7790  211.8010  147.9400 C   0  0  0  0  0  2  0  0  0  0  0  0
  3 14  1  0  0  0  0
  4 12  2  0  0  0  0
  5  7  2  0  0  0  0
  5  6  1  0  0  0  0
  6 10  2  0  0  0  0
  7 13  1  0  0  0  0
  8 11  2  0  0  0  0
  8  3  1  0  0  0  0
  9  5  1  0  0  0  0
 10  1  1  0  0  0  0
 10  2  1  0  0  0  0
 12  6  1  0  0  0  0
 13  1  2  0  0  0  0
 14  9  2  0  0  0  0
 14  4  1  0  0  0  0
 16  8  1  1  0  0  0
 17 18  1  0  0  0  0
 17 16  1  0  0  0  0
 18 15  2  0  0  0  0
 18 16  1  0  0  0  0
 19  7  1  0  0  0  0
 20 26  1  6  0  0  0
 20 21  1  0  0  0  0
 21 25  1  0  0  0  0
 23 25  1  0  0  0  0
 23 19  1  1  0  0  0
 24 20  1  0  0  0  0
 24 23  1  0  0  0  0
 25 22  2  0  0  0  0
 27 26  1  0  0  0  0
 28 27  1  0  0  0  0
 29 28  2  0  0  0  0
 30 28  1  0  0  0  0
 30 32  1  0  0  0  0
 31 32  1  0  0  0  0
M  END
>  <MODEL>
9

>  <REMARK>
 VINA RESULT:      -6.8      2.446      7.107
  Name = 
  8 active torsions:
  status: ('A' for Active; 'I' for Inactive)
    1  A    between atoms: C_1  and  C_20
    2  A    between atoms: C_5  and  C_10
    3  A    between atoms: C_5  and  O_12
    4  A    between atoms: C_10  and  C_20
    5  A    between atoms: C_11  and  O_12
    6  A    between atoms: C_16  and  N_30
    7  A    between atoms: C_17  and  N_30
    8  A    between atoms: C_18  and  C_24
                            x       y       z     vdW  Elec       q    Type
                         _______ _______ _______ _____ _____    ______ ____

>  <TORSDO>
F 8

$$$$
