=
 OpenBabel11042420303D

 49 55  0  0  1  0  0  0  0  0999 V2000
  161.4820  207.5490  154.7460 N   0  0  0  0  0  0  0  0  0  0  0  0
  160.9390  206.6870  153.9440 C   0  0  0  0  0  3  0  0  0  0  0  0
  162.9550  208.9510  148.3170 C   0  0  0  0  0  1  0  0  0  0  0  0
  161.9080  209.6460  150.4940 C   0  0  0  0  0  0  0  0  0  0  0  0
  161.0770  208.6870  152.7450 C   0  0  0  0  0  0  0  0  0  0  0  0
  161.6560  208.8610  154.1150 C   0  0  1  0  0  3  0  0  0  0  0  0
  160.2480  206.6710  151.6010 N   0  0  0  0  0  0  0  0  0  0  0  0
  161.5400  209.2640  151.6790 C   0  0  0  0  0  0  0  0  0  0  0  0
  162.0830  208.6340  149.4580 N   0  0  0  0  0  0  0  0  0  0  0  0
  160.0320  207.3010  150.2900 C   0  0  0  0  0  2  0  0  0  0  0  0
  160.6560  207.3040  152.6670 C   0  0  0  0  0  0  0  0  0  0  0  0
  161.3150  207.3490  149.4020 C   0  0  2  0  0  3  0  0  0  0  0  0
  159.5230  211.9540  156.2030 C   0  0  0  0  0  0  0  0  0  0  0  0
  163.3890  210.6930  155.9540 S   0  0  0  0  0  1  0  0  0  0  0  0
  159.5470  210.1120  154.7010 C   0  0  0  0  0  3  0  0  0  0  0  0
  160.9120  211.8440  156.3790 C   0  0  0  0  0  0  0  0  0  0  0  0
  161.6150  210.8280  155.7210 C   0  0  0  0  0  0  0  0  0  0  0  0
  161.5770  212.7310  157.1610 F   0  0  0  0  0  0  0  0  0  0  0  0
  160.9250  209.9350  154.8780 C   0  0  0  0  0  0  0  0  0  0  0  0
  158.8870  211.1000  155.3570 N   0  0  0  0  0  0  0  0  0  0  0  0
  158.4730  214.1560  155.8050 C   0  0  0  0  0  2  0  0  0  0  0  0
  158.7460  213.0740  156.8370 C   0  0  0  0  0  3  0  0  0  0  0  0
  157.3700  213.2070  156.2020 C   0  0  0  0  0  2  0  0  0  0  0  0
  161.4400  204.2460  148.3080 C   0  0  0  0  0  0  0  0  0  0  0  0
  162.1780  206.1430  149.5010 N   0  0  0  0  0  0  0  0  0  0  0  0
  161.3370  202.1610  148.6760 N   0  0  0  0  0  0  0  0  0  0  0  0
  162.2280  205.4820  148.1780 C   0  0  0  0  0  2  0  0  0  0  0  0
  161.6510  203.0460  147.7350 N   0  0  0  0  0  0  0  0  0  0  0  0
  161.0570  204.0620  149.5660 C   0  0  0  0  0  0  0  0  0  0  0  0
  161.0360  202.7410  149.8340 N   0  0  0  0  0  0  0  0  0  0  0  0
  161.5580  205.1510  150.4200 C   0  0  0  0  0  2  0  0  0  0  0  0
  161.2910  200.7200  148.4270 C   0  0  0  0  0  2  0  0  0  0  0  0
  160.9780  200.3710  146.9680 C   0  0  0  0  0  2  0  0  0  0  0  0
  161.1550  198.6730  145.5460 C   0  0  0  0  0  1  0  0  0  0  0  0
  161.8700  199.4090  146.4880 O   0  0  0  0  0  0  0  0  0  0  0  0
  160.8230  211.7550  150.7010 O   0  0  0  0  0  0  0  0  0  0  0  0
  161.7100  211.0620  150.1280 C   0  0  0  0  0  0  0  0  0  0  0  0
  162.5100  211.6300  149.1350 O   0  0  0  0  0  0  0  0  0  0  0  0
  161.0450  213.3130  145.5670 C   0  0  0  0  0  0  0  0  0  0  0  0
  162.8200  213.0370  147.2030 C   0  0  0  0  0  3  0  0  0  0  0  0
  162.3400  213.6070  146.0200 C   0  0  0  0  0  3  0  0  0  0  0  0
  160.6920  211.9210  147.5100 C   0  0  0  0  0  3  0  0  0  0  0  0
  162.0060  212.1750  147.9490 C   0  0  0  0  0  0  0  0  0  0  0  0
  160.2180  212.4800  146.3250 C   0  0  0  0  0  3  0  0  0  0  0  0
  160.5430  213.8460  144.2850 C   0  0  0  0  0  0  0  0  0  0  0  0
  160.8170  214.2760  141.8110 C   0  0  0  0  0  1  0  0  0  0  0  0
  161.2840  213.6550  143.0470 N   0  0  0  0  0  0  0  0  0  0  0  0
  162.2580  212.5870  142.9170 C   0  0  0  0  0  1  0  0  0  0  0  0
  159.4190  214.4520  144.2770 O   0  0  0  0  0  0  0  0  0  0  0  0
  2  1  2  0  0  0  0
  3  9  1  0  0  0  0
  4  8  2  0  0  0  0
  5  6  1  0  0  0  0
  6  1  1  0  0  0  0
  6 19  1  1  0  0  0
  7 11  2  0  0  0  0
  8  5  2  0  0  0  0
  9  4  1  0  0  0  0
 10  7  1  0  0  0  0
 11  5  1  0  0  0  0
 11  2  1  0  0  0  0
 12  9  1  0  0  0  0
 12 25  1  1  0  0  0
 12 10  1  0  0  0  0
 13 16  1  0  0  0  0
 13 22  1  0  0  0  0
 15 19  2  0  0  0  0
 15 20  1  0  0  0  0
 16 18  1  0  0  0  0
 17 14  1  0  0  0  0
 17 16  2  0  0  0  0
 19 17  1  0  0  0  0
 20 13  2  0  0  0  0
 21 23  1  0  0  0  0
 21 22  1  0  0  0  0
 23 22  1  0  0  0  0
 24 29  1  0  0  0  0
 25 31  1  0  0  0  0
 26 30  1  0  0  0  0
 27 24  1  0  0  0  0
 27 25  1  0  0  0  0
 28 24  2  0  0  0  0
 28 26  1  0  0  0  0
 29 30  2  0  0  0  0
 29 31  1  0  0  0  0
 32 26  1  0  0  0  0
 33 32  1  0  0  0  0
 34 35  1  0  0  0  0
 35 33  1  0  0  0  0
 37  4  1  0  0  0  0
 37 36  2  0  0  0  0
 38 37  1  0  0  0  0
 39 41  2  0  0  0  0
 39 44  1  0  0  0  0
 40 43  2  0  0  0  0
 41 40  1  0  0  0  0
 42 43  1  0  0  0  0
 43 38  1  0  0  0  0
 44 42  2  0  0  0  0
 45 39  1  0  0  0  0
 46 47  1  0  0  0  0
 47 45  1  0  0  0  0
 48 47  1  0  0  0  0
 49 45  2  0  0  0  0
M  END
>  <MODEL>
1

>  <REMARK>
 VINA RESULT:      -5.4      0.000      0.000
  Name = 
  10 active torsions:
  status: ('A' for Active; 'I' for Inactive)
    1  A    between atoms: C_1  and  C_7
    2  A    between atoms: C_2  and  C_10
    3  A    between atoms: N_5  and  C_47
    4  A    between atoms: C_11  and  C_18
    5  A    between atoms: C_11  and  O_29
    6  A    between atoms: O_12  and  C_32
    7  A    between atoms: O_12  and  C_42
    8  A    between atoms: N_14  and  C_18
    9  A    between atoms: C_16  and  C_42
   10  A    between atoms: C_22  and  C_39
                            x       y       z     vdW  Elec       q    Type
                         _______ _______ _______ _____ _____    ______ ____

>  <TORSDO>
F 10

$$$$
=
 OpenBabel11042420303D

 49 55  0  0  1  0  0  0  0  0999 V2000
  160.3840  205.6090  151.7610 N   0  0  0  0  0  0  0  0  0  0  0  0
  160.9500  205.9460  152.8780 C   0  0  0  0  0  3  0  0  0  0  0  0
  160.3290  212.3010  152.5940 C   0  0  0  0  0  1  0  0  0  0  0  0
  161.0340  210.2970  151.2490 C   0  0  0  0  0  0  0  0  0  0  0  0
  161.2990  207.7320  151.4140 C   0  0  0  0  0  0  0  0  0  0  0  0
  160.5020  206.6570  150.7420 C   0  0  1  0  0  3  0  0  0  0  0  0
  162.0570  207.9430  153.7460 N   0  0  0  0  0  0  0  0  0  0  0  0
  161.1210  209.0020  151.2170 C   0  0  0  0  0  0  0  0  0  0  0  0
  160.9240  210.9570  152.5460 N   0  0  0  0  0  0  0  0  0  0  0  0
  162.5940  209.3060  153.6250 C   0  0  0  0  0  2  0  0  0  0  0  0
  161.5440  207.2590  152.7600 C   0  0  0  0  0  0  0  0  0  0  0  0
  161.5160  210.4200  153.8120 C   0  0  2  0  0  3  0  0  0  0  0  0
  162.4690  205.2670  147.1820 C   0  0  0  0  0  0  0  0  0  0  0  0
  160.6330  203.5580  150.3910 S   0  0  0  0  0  1  0  0  0  0  0  0
  161.7210  207.0460  148.5690 C   0  0  0  0  0  3  0  0  0  0  0  0
  161.9350  204.3280  148.0770 C   0  0  0  0  0  0  0  0  0  0  0  0
  161.3110  204.7670  149.2510 C   0  0  0  0  0  0  0  0  0  0  0  0
  161.9990  203.0010  147.7990 F   0  0  0  0  0  0  0  0  0  0  0  0
  161.2110  206.1470  149.5140 C   0  0  0  0  0  0  0  0  0  0  0  0
  162.3290  206.5950  147.4430 N   0  0  0  0  0  0  0  0  0  0  0  0
  162.0600  204.0690  145.0580 C   0  0  0  0  0  2  0  0  0  0  0  0
  163.0840  204.8370  145.8790 C   0  0  0  0  0  3  0  0  0  0  0  0
  162.3830  205.4990  144.7030 C   0  0  0  0  0  2  0  0  0  0  0  0
  158.6890  211.6300  154.9890 C   0  0  0  0  0  0  0  0  0  0  0  0
  160.5000  210.1230  154.8560 N   0  0  0  0  0  0  0  0  0  0  0  0
  157.5940  212.5610  156.5480 N   0  0  0  0  0  0  0  0  0  0  0  0
  159.1550  210.4110  154.3080 C   0  0  0  0  0  2  0  0  0  0  0  0
  157.4400  211.9560  155.3730 N   0  0  0  0  0  0  0  0  0  0  0  0
  159.5420  211.9950  155.9390 C   0  0  0  0  0  0  0  0  0  0  0  0
  158.8560  212.5430  156.9620 N   0  0  0  0  0  0  0  0  0  0  0  0
  160.6690  211.0520  156.0070 C   0  0  0  0  0  2  0  0  0  0  0  0
  156.4890  213.2050  157.2590 C   0  0  0  0  0  2  0  0  0  0  0  0
  155.5720  214.0170  156.3380 C   0  0  0  0  0  2  0  0  0  0  0  0
  155.6160  214.4220  154.1540 C   0  0  0  0  0  1  0  0  0  0  0  0
  155.4570  213.4020  155.0890 O   0  0  0  0  0  0  0  0  0  0  0  0
  162.5630  210.7610  149.4850 O   0  0  0  0  0  0  0  0  0  0  0  0
  161.4790  211.0540  150.0630 C   0  0  0  0  0  0  0  0  0  0  0  0
  160.6910  212.1030  149.5840 O   0  0  0  0  0  0  0  0  0  0  0  0
  160.6350  213.3810  145.5760 C   0  0  0  0  0  0  0  0  0  0  0  0
  161.2360  213.7400  147.9020 C   0  0  0  0  0  3  0  0  0  0  0  0
  161.2170  214.1760  146.5740 C   0  0  0  0  0  3  0  0  0  0  0  0
  160.0450  211.7350  147.2440 C   0  0  0  0  0  3  0  0  0  0  0  0
  160.6660  212.5070  148.2450 C   0  0  0  0  0  0  0  0  0  0  0  0
  160.0370  212.1660  145.9190 C   0  0  0  0  0  3  0  0  0  0  0  0
  160.6660  213.7890  144.1570 C   0  0  0  0  0  0  0  0  0  0  0  0
  161.9340  214.4530  142.0760 C   0  0  0  0  0  1  0  0  0  0  0  0
  161.9270  213.9540  143.4480 N   0  0  0  0  0  0  0  0  0  0  0  0
  163.1380  213.3070  143.9170 C   0  0  0  0  0  1  0  0  0  0  0  0
  159.5570  213.9610  143.5500 O   0  0  0  0  0  0  0  0  0  0  0  0
  1  2  2  0  0  0  0
  4  9  1  0  0  0  0
  5 11  1  0  0  0  0
  6 19  1  6  0  0  0
  6  5  1  0  0  0  0
  6  1  1  0  0  0  0
  8  4  2  0  0  0  0
  8  5  2  0  0  0  0
  9  3  1  0  0  0  0
  9 12  1  0  0  0  0
 10  7  1  0  0  0  0
 11  2  1  0  0  0  0
 11  7  2  0  0  0  0
 12 10  1  6  0  0  0
 12 25  1  0  0  0  0
 13 20  2  0  0  0  0
 13 16  1  0  0  0  0
 15 19  2  0  0  0  0
 16 17  2  0  0  0  0
 17 19  1  0  0  0  0
 17 14  1  0  0  0  0
 18 16  1  0  0  0  0
 20 15  1  0  0  0  0
 21 22  1  0  0  0  0
 22 13  1  0  0  0  0
 23 21  1  0  0  0  0
 23 22  1  0  0  0  0
 24 28  2  0  0  0  0
 24 29  1  0  0  0  0
 25 31  1  0  0  0  0
 26 30  1  0  0  0  0
 26 32  1  0  0  0  0
 27 25  1  0  0  0  0
 27 24  1  0  0  0  0
 28 26  1  0  0  0  0
 29 31  1  0  0  0  0
 29 30  2  0  0  0  0
 33 32  1  0  0  0  0
 34 35  1  0  0  0  0
 35 33  1  0  0  0  0
 36 37  2  0  0  0  0
 37  4  1  0  0  0  0
 38 37  1  0  0  0  0
 39 44  2  0  0  0  0
 39 41  1  0  0  0  0
 40 43  1  0  0  0  0
 41 40  2  0  0  0  0
 42 43  2  0  0  0  0
 43 38  1  0  0  0  0
 44 42  1  0  0  0  0
 45 39  1  0  0  0  0
 46 47  1  0  0  0  0
 47 48  1  0  0  0  0
 47 45  1  0  0  0  0
 49 45  2  0  0  0  0
M  END
>  <MODEL>
2

>  <REMARK>
 VINA RESULT:      -4.8      3.460      8.740
  Name = 
  10 active torsions:
  status: ('A' for Active; 'I' for Inactive)
    1  A    between atoms: C_1  and  C_7
    2  A    between atoms: C_2  and  C_10
    3  A    between atoms: N_5  and  C_47
    4  A    between atoms: C_11  and  C_18
    5  A    between atoms: C_11  and  O_29
    6  A    between atoms: O_12  and  C_32
    7  A    between atoms: O_12  and  C_42
    8  A    between atoms: N_14  and  C_18
    9  A    between atoms: C_16  and  C_42
   10  A    between atoms: C_22  and  C_39
                            x       y       z     vdW  Elec       q    Type
                         _______ _______ _______ _____ _____    ______ ____

>  <TORSDO>
F 10

$$$$
=
 OpenBabel11042420303D

 49 55  0  0  1  0  0  0  0  0999 V2000
  161.6280  206.1300  153.6490 N   0  0  0  0  0  0  0  0  0  0  0  0
  161.0670  205.5200  152.6520 C   0  0  0  0  0  3  0  0  0  0  0  0
  163.1100  209.1560  147.8070 C   0  0  0  0  0  1  0  0  0  0  0  0
  162.0810  209.2690  150.0990 C   0  0  0  0  0  0  0  0  0  0  0  0
  161.2380  207.7630  152.0230 C   0  0  0  0  0  0  0  0  0  0  0  0
  161.8240  207.5590  153.3860 C   0  0  1  0  0  3  0  0  0  0  0  0
  160.3710  206.1350  150.3930 N   0  0  0  0  0  0  0  0  0  0  0  0
  161.7090  208.5930  151.1440 C   0  0  0  0  0  0  0  0  0  0  0  0
  162.2360  208.5630  148.8310 N   0  0  0  0  0  0  0  0  0  0  0  0
  160.1630  207.0920  149.2960 C   0  0  0  0  0  2  0  0  0  0  0  0
  160.7920  206.4570  151.5850 C   0  0  0  0  0  0  0  0  0  0  0  0
  161.4440  207.3520  148.4430 C   0  0  2  0  0  3  0  0  0  0  0  0
  159.7100  209.9580  156.2580 C   0  0  0  0  0  0  0  0  0  0  0  0
  163.0930  210.3400  154.0210 S   0  0  0  0  0  1  0  0  0  0  0  0
  159.9160  207.9620  154.9840 C   0  0  0  0  0  3  0  0  0  0  0  0
  160.8830  210.4650  155.6770 C   0  0  0  0  0  0  0  0  0  0  0  0
  161.5920  209.6850  154.7560 C   0  0  0  0  0  0  0  0  0  0  0  0
  161.3180  211.7130  155.9840 F   0  0  0  0  0  0  0  0  0  0  0  0
  161.1140  208.4060  154.4110 C   0  0  0  0  0  0  0  0  0  0  0  0
  159.2520  208.7340  155.8810 N   0  0  0  0  0  0  0  0  0  0  0  0
  158.7970  212.2180  156.6740 C   0  0  0  0  0  2  0  0  0  0  0  0
  158.8840  210.7930  157.1970 C   0  0  0  0  0  3  0  0  0  0  0  0
  157.6200  211.2890  156.5120 C   0  0  0  0  0  2  0  0  0  0  0  0
  161.2750  204.4010  146.9930 C   0  0  0  0  0  0  0  0  0  0  0  0
  162.2860  206.1480  148.2150 N   0  0  0  0  0  0  0  0  0  0  0  0
  161.2130  202.2850  147.1290 N   0  0  0  0  0  0  0  0  0  0  0  0
  162.0410  205.6490  146.8430 C   0  0  0  0  0  2  0  0  0  0  0  0
  161.3370  203.2780  146.2520 N   0  0  0  0  0  0  0  0  0  0  0  0
  161.1650  204.0670  148.2740 C   0  0  0  0  0  0  0  0  0  0  0  0
  161.1760  202.7230  148.3830 N   0  0  0  0  0  0  0  0  0  0  0  0
  161.8570  205.0500  149.1230 C   0  0  0  0  0  2  0  0  0  0  0  0
  161.0880  200.8840  146.7280 C   0  0  0  0  0  2  0  0  0  0  0  0
  160.2400  200.6920  145.4660 C   0  0  0  0  0  2  0  0  0  0  0  0
  161.4430  198.8380  145.6950 C   0  0  0  0  0  1  0  0  0  0  0  0
  160.4280  199.4140  144.9350 O   0  0  0  0  0  0  0  0  0  0  0  0
  162.1350  211.4220  149.0860 O   0  0  0  0  0  0  0  0  0  0  0  0
  161.9070  210.7340  150.1200 C   0  0  0  0  0  0  0  0  0  0  0  0
  161.4930  211.3570  151.3000 O   0  0  0  0  0  0  0  0  0  0  0  0
  157.7010  213.1070  151.8210 C   0  0  0  0  0  0  0  0  0  0  0  0
  159.3540  211.4250  152.4080 C   0  0  0  0  0  3  0  0  0  0  0  0
  158.0900  211.9960  152.5840 C   0  0  0  0  0  3  0  0  0  0  0  0
  159.8240  213.0450  150.6680 C   0  0  0  0  0  3  0  0  0  0  0  0
  160.2390  211.9560  151.4610 C   0  0  0  0  0  0  0  0  0  0  0  0
  158.5680  213.6190  150.8520 C   0  0  0  0  0  3  0  0  0  0  0  0
  156.4000  213.7690  152.0390 C   0  0  0  0  0  0  0  0  0  0  0  0
  154.4950  214.4530  153.5490 C   0  0  0  0  0  1  0  0  0  0  0  0
  155.8270  213.8840  153.3730 N   0  0  0  0  0  0  0  0  0  0  0  0
  156.6630  213.7900  154.5550 C   0  0  0  0  0  1  0  0  0  0  0  0
  155.7980  214.2740  151.0330 O   0  0  0  0  0  0  0  0  0  0  0  0
  2  1  2  0  0  0  0
  3  9  1  0  0  0  0
  4 37  1  0  0  0  0
  4  8  2  0  0  0  0
  5  6  1  0  0  0  0
  6  1  1  0  0  0  0
  6 19  1  1  0  0  0
  7 11  2  0  0  0  0
  8  5  2  0  0  0  0
  9  4  1  0  0  0  0
 10  7  1  0  0  0  0
 11  5  1  0  0  0  0
 11  2  1  0  0  0  0
 12 25  1  1  0  0  0
 12  9  1  0  0  0  0
 12 10  1  0  0  0  0
 13 22  1  0  0  0  0
 14 17  1  0  0  0  0
 15 20  2  0  0  0  0
 16 18  1  0  0  0  0
 16 13  2  0  0  0  0
 17 16  1  0  0  0  0
 19 17  2  0  0  0  0
 19 15  1  0  0  0  0
 20 13  1  0  0  0  0
 21 22  1  0  0  0  0
 23 21  1  0  0  0  0
 23 22  1  0  0  0  0
 24 29  1  0  0  0  0
 25 31  1  0  0  0  0
 26 30  1  0  0  0  0
 27 24  1  0  0  0  0
 27 25  1  0  0  0  0
 28 24  2  0  0  0  0
 28 26  1  0  0  0  0
 29 30  2  0  0  0  0
 29 31  1  0  0  0  0
 32 26  1  0  0  0  0
 33 32  1  0  0  0  0
 35 33  1  0  0  0  0
 35 34  1  0  0  0  0
 36 37  2  0  0  0  0
 37 38  1  0  0  0  0
 38 43  1  0  0  0  0
 39 45  1  0  0  0  0
 39 41  1  0  0  0  0
 40 41  2  0  0  0  0
 42 44  1  0  0  0  0
 42 43  2  0  0  0  0
 43 40  1  0  0  0  0
 44 39  2  0  0  0  0
 45 47  1  0  0  0  0
 47 46  1  0  0  0  0
 47 48  1  0  0  0  0
 49 45  2  0  0  0  0
M  END
>  <MODEL>
3

>  <REMARK>
 VINA RESULT:      -4.1      2.878      4.339
  Name = 
  10 active torsions:
  status: ('A' for Active; 'I' for Inactive)
    1  A    between atoms: C_1  and  C_7
    2  A    between atoms: C_2  and  C_10
    3  A    between atoms: N_5  and  C_47
    4  A    between atoms: C_11  and  C_18
    5  A    between atoms: C_11  and  O_29
    6  A    between atoms: O_12  and  C_32
    7  A    between atoms: O_12  and  C_42
    8  A    between atoms: N_14  and  C_18
    9  A    between atoms: C_16  and  C_42
   10  A    between atoms: C_22  and  C_39
                            x       y       z     vdW  Elec       q    Type
                         _______ _______ _______ _____ _____    ______ ____

>  <TORSDO>
F 10

$$$$
