=
 OpenBabel11042422283D

 34 38  0  0  1  0  0  0  0  0999 V2000
  162.8000  207.2530  148.1360 N   0  0  0  0  0  0  0  0  0  0  0  0
  162.4000  208.9320  149.7490 N   0  0  0  0  0  2  0  0  0  0  0  0
  160.5440  205.8720  147.9180 S   0  0  0  0  0  0  0  0  0  0  0  0
  161.3050  208.0630  154.1500 C   0  0  0  0  0  0  0  0  0  0  0  0
  162.0280  207.7560  149.0340 C   0  0  0  0  0  0  0  0  0  0  0  0
  162.3050  206.0550  147.4880 C   0  0  0  0  0  2  0  0  0  0  0  0
  161.3200  208.5920  151.8960 C   0  0  0  0  0  0  0  0  0  0  0  0
  160.9550  207.2360  151.8210 C   0  0  0  0  0  0  0  0  0  0  0  0
  161.4930  209.5110  150.7290 C   0  0  0  0  0  2  0  0  0  0  0  0
  160.7330  207.0730  149.2880 C   0  0  2  0  0  3  0  0  0  0  0  0
  160.8970  206.6190  153.3920 S   0  0  0  0  0  0  0  0  0  0  0  0
  161.5100  209.0560  153.2060 C   0  0  0  0  0  3  0  0  0  0  0  0
  160.7300  206.4510  150.6260 N   0  0  0  0  0  0  0  0  0  0  0  0
  161.4500  208.2520  155.5570 N   0  0  0  0  0  2  0  0  0  0  0  0
  161.2600  209.5500  156.1800 C   0  0  0  0  0  2  0  0  0  0  0  0
  160.0830  211.5670  154.7570 C   0  0  1  0  0  3  0  0  0  0  0  0
  159.7630  209.8770  156.2350 C   0  0  2  0  0  3  0  0  0  0  0  0
  159.4110  213.6650  155.8580 C   0  0  0  0  0  1  0  0  0  0  0  0
  160.2270  212.4530  155.9060 N   0  0  0  0  0  0  0  0  0  0  0  0
  159.2660  211.3150  155.9860 C   0  0  1  0  0  0  0  0  0  0  0  0
  159.6050  210.7700  157.2590 O   0  0  0  0  0  0  0  0  0  0  0  0
  159.8800  212.6440  152.4680 N   0  0  0  0  0  1  0  0  0  0  0  0
  157.9880  212.0000  153.6490 O   0  0  0  0  0  0  0  0  0  0  0  0
  159.2440  212.0950  153.6180 C   0  0  0  0  0  0  0  0  0  0  0  0
  160.4780  205.0190  150.7770 C   0  0  0  0  0  2  0  0  0  0  0  0
  161.7400  204.3120  151.2470 C   0  0  0  0  0  2  0  0  0  0  0  0
  161.5350  202.8040  151.2220 C   0  0  0  0  0  2  0  0  0  0  0  0
  160.3640  202.4270  150.3250 C   0  0  0  0  0  2  0  0  0  0  0  0
  160.8240  201.6420  149.1440 C   0  0  0  0  0  0  0  0  0  0  0  0
  160.4920  202.0380  145.3090 C   0  0  0  0  0  1  0  0  0  0  0  0
  161.4950  200.5890  149.3140 O   0  0  0  0  0  0  0  0  0  0  0  0
  160.4970  202.1010  147.8280 N   0  0  0  0  0  2  0  0  0  0  0  0
  160.7940  201.3990  146.6160 C   0  0  0  0  0  0  0  0  0  0  0  0
  161.2940  200.2440  146.6400 O   0  0  0  0  0  0  0  0  0  0  0  0
  1  5  2  0  0  0  0
  2  9  1  0  0  0  0
  4 14  1  0  0  0  0
  5 10  1  0  0  0  0
  5  2  1  0  0  0  0
  6  3  1  0  0  0  0
  6  1  1  0  0  0  0
  7 12  1  0  0  0  0
  8  7  2  0  0  0  0
  8 11  1  0  0  0  0
  9  7  1  0  0  0  0
 10  3  1  6  0  0  0
 10 13  1  0  0  0  0
 11  4  1  0  0  0  0
 12  4  2  0  0  0  0
 13 25  1  0  0  0  0
 13  8  1  0  0  0  0
 14 15  1  0  0  0  0
 16 24  1  6  0  0  0
 16 19  1  0  0  0  0
 16 20  1  0  0  0  0
 17 15  1  6  0  0  0
 17 21  1  0  0  0  0
 18 19  1  0  0  0  0
 19 20  1  0  0  0  0
 20 17  1  0  0  0  0
 20 21  1  6  0  0  0
 22 24  1  0  0  0  0
 24 23  2  0  0  0  0
 25 26  1  0  0  0  0
 27 26  1  0  0  0  0
 28 27  1  0  0  0  0
 29 31  2  0  0  0  0
 29 28  1  0  0  0  0
 30 33  1  0  0  0  0
 32 29  1  0  0  0  0
 33 34  2  0  0  0  0
 33 32  1  0  0  0  0
M  END
>  <MODEL>
1

>  <REMARK>
 VINA RESULT:      -7.2      0.000      0.000
  Name = 
  9 active torsions:
  status: ('A' for Active; 'I' for Inactive)
    1  A    between atoms: C_1  and  C_9
    2  A    between atoms: C_1  and  N_13
    3  A    between atoms: C_2  and  C_10
    4  A    between atoms: C_5  and  C_12
    5  A    between atoms: C_5  and  C_30
    6  A    between atoms: C_7  and  N_13
    7  A    between atoms: C_8  and  C_34
    8  A    between atoms: C_10  and  C_12
    9  A    between atoms: C_30  and  N_32
                            x       y       z     vdW  Elec       q    Type
                         _______ _______ _______ _____ _____    ______ ____

>  <TORSDO>
F 9

$$$$
=
 OpenBabel11042422283D

 34 38  0  0  1  0  0  0  0  0999 V2000
  161.8660  202.9080  147.8090 N   0  0  0  0  0  0  0  0  0  0  0  0
  161.1920  205.0590  147.1020 N   0  0  0  0  0  2  0  0  0  0  0  0
  160.6250  202.4550  150.1120 S   0  0  0  0  0  0  0  0  0  0  0  0
  162.0160  208.9270  149.4850 C   0  0  0  0  0  0  0  0  0  0  0  0
  161.2510  204.0090  148.0650 C   0  0  0  0  0  0  0  0  0  0  0  0
  161.8540  201.9260  148.8750 C   0  0  0  0  0  2  0  0  0  0  0  0
  161.1050  207.0380  148.5030 C   0  0  0  0  0  0  0  0  0  0  0  0
  161.4470  206.5130  149.7620 C   0  0  0  0  0  0  0  0  0  0  0  0
  160.4530  206.2780  147.3920 C   0  0  0  0  0  2  0  0  0  0  0  0
  160.5970  204.1390  149.3920 C   0  0  2  0  0  3  0  0  0  0  0  0
  162.1640  207.7430  150.6700 S   0  0  0  0  0  0  0  0  0  0  0  0
  161.4200  208.3960  148.3520 C   0  0  0  0  0  3  0  0  0  0  0  0
  161.2940  205.1460  150.2150 N   0  0  0  0  0  0  0  0  0  0  0  0
  162.4580  210.2790  149.6000 N   0  0  0  0  0  2  0  0  0  0  0  0
  162.3600  211.2140  148.4940 C   0  0  0  0  0  2  0  0  0  0  0  0
  160.3540  212.3350  147.0090 C   0  0  1  0  0  3  0  0  0  0  0  0
  161.5530  212.4430  148.9320 C   0  0  2  0  0  3  0  0  0  0  0  0
  160.7160  214.4380  145.7810 C   0  0  0  0  0  1  0  0  0  0  0  0
  161.3110  213.2780  146.4410 N   0  0  0  0  0  0  0  0  0  0  0  0
  160.9470  213.3970  147.8830 C   0  0  1  0  0  0  0  0  0  0  0  0
  162.2380  213.5330  148.4720 O   0  0  0  0  0  0  0  0  0  0  0  0
  158.4350  212.5040  145.3580 N   0  0  0  0  0  1  0  0  0  0  0  0
  158.0840  212.8550  147.6260 O   0  0  0  0  0  0  0  0  0  0  0  0
  158.9010  212.6030  146.7000 C   0  0  0  0  0  0  0  0  0  0  0  0
  161.8320  204.7890  151.5270 C   0  0  0  0  0  2  0  0  0  0  0  0
  160.8700  205.2190  152.6220 C   0  0  0  0  0  2  0  0  0  0  0  0
  161.6010  206.0500  153.6660 C   0  0  0  0  0  2  0  0  0  0  0  0
  160.6170  206.7840  154.5670 C   0  0  0  0  0  2  0  0  0  0  0  0
  160.9460  208.2360  154.6510 C   0  0  0  0  0  0  0  0  0  0  0  0
  160.3540  211.3030  152.3680 C   0  0  0  0  0  1  0  0  0  0  0  0
  161.5480  208.6840  155.6640 O   0  0  0  0  0  0  0  0  0  0  0  0
  160.5670  209.1020  153.5770 N   0  0  0  0  0  2  0  0  0  0  0  0
  160.9000  210.4920  153.4880 C   0  0  0  0  0  0  0  0  0  0  0  0
  161.6590  211.0350  154.3330 O   0  0  0  0  0  0  0  0  0  0  0  0
  1  5  2  0  0  0  0
  1  6  1  0  0  0  0
  2  9  1  0  0  0  0
  2  5  1  0  0  0  0
  4 14  1  0  0  0  0
  4 11  1  0  0  0  0
  6  3  1  0  0  0  0
  7  8  2  0  0  0  0
  8 13  1  0  0  0  0
  8 11  1  0  0  0  0
  9  7  1  0  0  0  0
 10  5  1  6  0  0  0
 10  3  1  0  0  0  0
 10 13  1  0  0  0  0
 12  7  1  0  0  0  0
 12  4  2  0  0  0  0
 13 25  1  0  0  0  0
 15 14  1  0  0  0  0
 16 24  1  6  0  0  0
 16 20  1  0  0  0  0
 17 15  1  6  0  0  0
 18 19  1  0  0  0  0
 19 16  1  0  0  0  0
 19 20  1  0  0  0  0
 20 21  1  1  0  0  0
 20 17  1  0  0  0  0
 21 17  1  0  0  0  0
 22 24  1  0  0  0  0
 24 23  2  0  0  0  0
 25 26  1  0  0  0  0
 26 27  1  0  0  0  0
 27 28  1  0  0  0  0
 28 29  1  0  0  0  0
 29 31  2  0  0  0  0
 30 33  1  0  0  0  0
 32 29  1  0  0  0  0
 33 32  1  0  0  0  0
 33 34  2  0  0  0  0
M  END
>  <MODEL>
2

>  <REMARK>
 VINA RESULT:      -7.1      3.665      7.055
  Name = 
  9 active torsions:
  status: ('A' for Active; 'I' for Inactive)
    1  A    between atoms: C_1  and  C_9
    2  A    between atoms: C_1  and  N_13
    3  A    between atoms: C_2  and  C_10
    4  A    between atoms: C_5  and  C_12
    5  A    between atoms: C_5  and  C_30
    6  A    between atoms: C_7  and  N_13
    7  A    between atoms: C_8  and  C_34
    8  A    between atoms: C_10  and  C_12
    9  A    between atoms: C_30  and  N_32
                            x       y       z     vdW  Elec       q    Type
                         _______ _______ _______ _____ _____    ______ ____

>  <TORSDO>
F 9

$$$$
=
 OpenBabel11042422283D

 34 38  0  0  1  0  0  0  0  0999 V2000
  162.0920  209.9060  157.0510 N   0  0  0  0  0  0  0  0  0  0  0  0
  161.5560  207.7980  156.1310 N   0  0  0  0  0  2  0  0  0  0  0  0
  160.1910  211.5760  156.2500 S   0  0  0  0  0  0  0  0  0  0  0  0
  161.3010  206.9580  151.5980 C   0  0  0  0  0  0  0  0  0  0  0  0
  161.3590  209.2030  156.2600 C   0  0  0  0  0  0  0  0  0  0  0  0
  161.7910  211.3230  157.0850 C   0  0  0  0  0  2  0  0  0  0  0  0
  160.8870  207.3940  153.8340 C   0  0  0  0  0  0  0  0  0  0  0  0
  160.8260  208.7000  153.3190 C   0  0  0  0  0  0  0  0  0  0  0  0
  160.6880  207.0120  155.2660 C   0  0  0  0  0  2  0  0  0  0  0  0
  160.2970  209.9090  155.5000 C   0  0  2  0  0  3  0  0  0  0  0  0
  161.1240  208.6290  151.6590 S   0  0  0  0  0  0  0  0  0  0  0  0
  161.1480  206.4150  152.8640 C   0  0  0  0  0  3  0  0  0  0  0  0
  160.6170  209.9270  154.0590 N   0  0  0  0  0  0  0  0  0  0  0  0
  161.5950  206.1940  150.4280 N   0  0  0  0  0  2  0  0  0  0  0  0
  160.6860  206.1470  149.2960 C   0  0  0  0  0  2  0  0  0  0  0  0
  161.1190  205.2700  146.7420 C   0  0  1  0  0  3  0  0  0  0  0  0
  161.2280  207.0310  148.1660 C   0  0  2  0  0  3  0  0  0  0  0  0
  163.4000  204.8190  145.9300 C   0  0  0  0  0  1  0  0  0  0  0  0
  162.5130  205.0010  147.0780 N   0  0  0  0  0  0  0  0  0  0  0  0
  162.0440  206.4150  147.0130 C   0  0  1  0  0  0  0  0  0  0  0  0
  162.5900  206.9320  148.2240 O   0  0  0  0  0  0  0  0  0  0  0  0
  160.5200  203.8850  144.7020 N   0  0  0  0  0  1  0  0  0  0  0  0
  160.6140  206.2010  144.5790 O   0  0  0  0  0  0  0  0  0  0  0  0
  160.7610  205.1650  145.2800 C   0  0  0  0  0  0  0  0  0  0  0  0
  160.7130  211.1950  153.3370 C   0  0  0  0  0  2  0  0  0  0  0  0
  159.4090  211.4830  152.6100 C   0  0  0  0  0  2  0  0  0  0  0  0
  159.2290  212.9830  152.4320 C   0  0  0  0  0  2  0  0  0  0  0  0
  157.8150  213.4110  152.8050 C   0  0  0  0  0  2  0  0  0  0  0  0
  157.7090  213.7020  154.2630 C   0  0  0  0  0  0  0  0  0  0  0  0
  155.2910  212.6310  157.0870 C   0  0  0  0  0  1  0  0  0  0  0  0
  158.5580  214.4520  154.8170 O   0  0  0  0  0  0  0  0  0  0  0  0
  156.6410  213.1180  155.0170 N   0  0  0  0  0  2  0  0  0  0  0  0
  156.3690  213.3850  156.3970 C   0  0  0  0  0  0  0  0  0  0  0  0
  157.0190  214.2580  157.0310 O   0  0  0  0  0  0  0  0  0  0  0  0
  1  6  1  0  0  0  0
  2  5  1  0  0  0  0
  3  6  1  0  0  0  0
  4 11  1  0  0  0  0
  4 12  2  0  0  0  0
  5  1  2  0  0  0  0
  7  9  1  0  0  0  0
  8  7  2  0  0  0  0
  8 13  1  0  0  0  0
  9  2  1  0  0  0  0
 10  3  1  1  0  0  0
 10  5  1  0  0  0  0
 11  8  1  0  0  0  0
 12  7  1  0  0  0  0
 13 10  1  0  0  0  0
 14  4  1  0  0  0  0
 15 14  1  0  0  0  0
 16 24  1  6  0  0  0
 16 20  1  0  0  0  0
 16 19  1  0  0  0  0
 17 21  1  0  0  0  0
 17 15  1  1  0  0  0
 18 19  1  0  0  0  0
 20 19  1  0  0  0  0
 20 17  1  0  0  0  0
 20 21  1  6  0  0  0
 22 24  1  0  0  0  0
 23 24  2  0  0  0  0
 25 13  1  0  0  0  0
 26 25  1  0  0  0  0
 27 26  1  0  0  0  0
 27 28  1  0  0  0  0
 28 29  1  0  0  0  0
 29 31  2  0  0  0  0
 29 32  1  0  0  0  0
 32 33  1  0  0  0  0
 33 34  2  0  0  0  0
 33 30  1  0  0  0  0
M  END
>  <MODEL>
3

>  <REMARK>
 VINA RESULT:      -7.1      2.978     10.208
  Name = 
  9 active torsions:
  status: ('A' for Active; 'I' for Inactive)
    1  A    between atoms: C_1  and  C_9
    2  A    between atoms: C_1  and  N_13
    3  A    between atoms: C_2  and  C_10
    4  A    between atoms: C_5  and  C_12
    5  A    between atoms: C_5  and  C_30
    6  A    between atoms: C_7  and  N_13
    7  A    between atoms: C_8  and  C_34
    8  A    between atoms: C_10  and  C_12
    9  A    between atoms: C_30  and  N_32
                            x       y       z     vdW  Elec       q    Type
                         _______ _______ _______ _____ _____    ______ ____

>  <TORSDO>
F 9

$$$$
=
 OpenBabel11042422283D

 34 38  0  0  1  0  0  0  0  0999 V2000
  162.0260  209.8110  157.0070 N   0  0  0  0  0  0  0  0  0  0  0  0
  161.4310  207.7140  156.0960 N   0  0  0  0  0  2  0  0  0  0  0  0
  160.2330  211.5510  156.1100 S   0  0  0  0  0  0  0  0  0  0  0  0
  161.3110  206.8140  151.5700 C   0  0  0  0  0  0  0  0  0  0  0  0
  161.2930  209.1290  156.1980 C   0  0  0  0  0  0  0  0  0  0  0  0
  161.7870  211.2400  157.0090 C   0  0  0  0  0  2  0  0  0  0  0  0
  160.8320  207.3040  153.7810 C   0  0  0  0  0  0  0  0  0  0  0  0
  160.8490  208.6030  153.2460 C   0  0  0  0  0  0  0  0  0  0  0  0
  160.5630  206.9540  155.2100 C   0  0  0  0  0  2  0  0  0  0  0  0
  160.2920  209.8690  155.3870 C   0  0  2  0  0  3  0  0  0  0  0  0
  161.2060  208.4920  151.6000 S   0  0  0  0  0  0  0  0  0  0  0  0
  161.0860  206.2990  152.8360 C   0  0  0  0  0  3  0  0  0  0  0  0
  160.6680  209.8500  153.9600 N   0  0  0  0  0  0  0  0  0  0  0  0
  161.6150  206.0200  150.4220 N   0  0  0  0  0  2  0  0  0  0  0  0
  160.6750  205.8690  149.3260 C   0  0  0  0  0  2  0  0  0  0  0  0
  161.2040  204.9270  146.8130 C   0  0  1  0  0  3  0  0  0  0  0  0
  161.1110  206.7550  148.1520 C   0  0  2  0  0  3  0  0  0  0  0  0
  163.5210  204.7030  146.0090 C   0  0  0  0  0  1  0  0  0  0  0  0
  162.6200  204.8360  147.1520 N   0  0  0  0  0  0  0  0  0  0  0  0
  161.9920  206.1830  147.0230 C   0  0  1  0  0  0  0  0  0  0  0  0
  162.4760  206.8150  148.2050 O   0  0  0  0  0  0  0  0  0  0  0  0
  160.6950  205.8360  144.4990 N   0  0  0  0  0  1  0  0  0  0  0  0
  160.7740  203.5480  144.8850 O   0  0  0  0  0  0  0  0  0  0  0  0
  160.8590  204.7120  145.3590 C   0  0  0  0  0  0  0  0  0  0  0  0
  160.8470  211.1000  153.2240 C   0  0  0  0  0  2  0  0  0  0  0  0
  159.5240  211.5480  152.6230 C   0  0  0  0  0  2  0  0  0  0  0  0
  159.6360  212.9790  152.1180 C   0  0  0  0  0  2  0  0  0  0  0  0
  158.8860  213.1540  150.8040 C   0  0  0  0  0  2  0  0  0  0  0  0
  159.7830  213.6890  149.7400 C   0  0  0  0  0  0  0  0  0  0  0  0
  159.8430  213.5020  145.8770 C   0  0  0  0  0  1  0  0  0  0  0  0
  160.7820  214.3890  150.0560 O   0  0  0  0  0  0  0  0  0  0  0  0
  159.4910  213.4000  148.3690 N   0  0  0  0  0  2  0  0  0  0  0  0
  160.3150  213.7720  147.2590 C   0  0  0  0  0  0  0  0  0  0  0  0
  161.4400  214.3100  147.4360 O   0  0  0  0  0  0  0  0  0  0  0  0
  1  6  1  0  0  0  0
  2  5  1  0  0  0  0
  3  6  1  0  0  0  0
  4 11  1  0  0  0  0
  4 12  2  0  0  0  0
  5  1  2  0  0  0  0
  7  9  1  0  0  0  0
  8  7  2  0  0  0  0
  8 13  1  0  0  0  0
  9  2  1  0  0  0  0
 10  3  1  1  0  0  0
 10  5  1  0  0  0  0
 11  8  1  0  0  0  0
 12  7  1  0  0  0  0
 13 10  1  0  0  0  0
 14  4  1  0  0  0  0
 15 14  1  0  0  0  0
 16 24  1  6  0  0  0
 16 20  1  0  0  0  0
 16 19  1  0  0  0  0
 17 21  1  0  0  0  0
 17 15  1  1  0  0  0
 18 19  1  0  0  0  0
 20 19  1  0  0  0  0
 20 17  1  0  0  0  0
 20 21  1  6  0  0  0
 22 24  1  0  0  0  0
 23 24  2  0  0  0  0
 25 13  1  0  0  0  0
 26 25  1  0  0  0  0
 27 26  1  0  0  0  0
 28 27  1  0  0  0  0
 29 31  2  0  0  0  0
 29 28  1  0  0  0  0
 30 33  1  0  0  0  0
 32 29  1  0  0  0  0
 33 34  2  0  0  0  0
 33 32  1  0  0  0  0
M  END
>  <MODEL>
4

>  <REMARK>
 VINA RESULT:      -7.0      3.308      9.441
  Name = 
  9 active torsions:
  status: ('A' for Active; 'I' for Inactive)
    1  A    between atoms: C_1  and  C_9
    2  A    between atoms: C_1  and  N_13
    3  A    between atoms: C_2  and  C_10
    4  A    between atoms: C_5  and  C_12
    5  A    between atoms: C_5  and  C_30
    6  A    between atoms: C_7  and  N_13
    7  A    between atoms: C_8  and  C_34
    8  A    between atoms: C_10  and  C_12
    9  A    between atoms: C_30  and  N_32
                            x       y       z     vdW  Elec       q    Type
                         _______ _______ _______ _____ _____    ______ ____

>  <TORSDO>
F 9

$$$$
=
 OpenBabel11042422283D

 34 38  0  0  1  0  0  0  0  0999 V2000
  159.6460  202.2780  150.4930 N   0  0  0  0  0  0  0  0  0  0  0  0
  160.5010  203.7610  152.1200 N   0  0  0  0  0  2  0  0  0  0  0  0
  161.3920  202.2760  148.4930 S   0  0  0  0  0  0  0  0  0  0  0  0
  161.2120  208.2630  151.3790 C   0  0  0  0  0  0  0  0  0  0  0  0
  160.5180  203.1640  150.8260 C   0  0  0  0  0  0  0  0  0  0  0  0
  159.7730  201.7540  149.1470 C   0  0  0  0  0  2  0  0  0  0  0  0
  161.3930  205.9740  151.6770 C   0  0  0  0  0  0  0  0  0  0  0  0
  161.3390  206.0290  150.2730 C   0  0  0  0  0  0  0  0  0  0  0  0
  161.5220  204.7280  152.4940 C   0  0  0  0  0  2  0  0  0  0  0  0
  161.5450  203.5300  149.8180 C   0  0  2  0  0  3  0  0  0  0  0  0
  161.1830  207.6470  149.8140 S   0  0  0  0  0  0  0  0  0  0  0  0
  161.3280  207.2310  152.2960 C   0  0  0  0  0  3  0  0  0  0  0  0
  161.3400  204.9150  149.3500 N   0  0  0  0  0  0  0  0  0  0  0  0
  161.1040  209.6420  151.7310 N   0  0  0  0  0  2  0  0  0  0  0  0
  160.2880  210.0860  152.8480 C   0  0  0  0  0  2  0  0  0  0  0  0
  160.4740  209.2420  155.4430 C   0  0  1  0  0  3  0  0  0  0  0  0
  161.1820  210.7500  153.9040 C   0  0  2  0  0  3  0  0  0  0  0  0
  159.3680  210.4860  157.2580 C   0  0  0  0  0  1  0  0  0  0  0  0
  159.4550  210.2140  155.8250 N   0  0  0  0  0  0  0  0  0  0  0  0
  160.7970  210.7030  155.3960 C   0  0  1  0  0  0  0  0  0  0  0  0
  160.4250  211.7310  154.4810 O   0  0  0  0  0  0  0  0  0  0  0  0
  160.5630  207.4210  157.2080 N   0  0  0  0  0  1  0  0  0  0  0  0
  162.3290  208.9050  156.9420 O   0  0  0  0  0  0  0  0  0  0  0  0
  161.1770  208.5430  156.5810 C   0  0  0  0  0  0  0  0  0  0  0  0
  161.1510  205.1960  147.9270 C   0  0  0  0  0  2  0  0  0  0  0  0
  162.3810  205.8870  147.3620 C   0  0  0  0  0  2  0  0  0  0  0  0
  163.0060  205.0340  146.2680 C   0  0  0  0  0  2  0  0  0  0  0  0
  162.3100  205.2630  144.9330 C   0  0  0  0  0  2  0  0  0  0  0  0
  161.0620  204.4540  144.8330 C   0  0  0  0  0  0  0  0  0  0  0  0
  160.2040  200.7030  145.2410 C   0  0  0  0  0  1  0  0  0  0  0  0
  159.9670  205.0200  144.5680 O   0  0  0  0  0  0  0  0  0  0  0  0
  161.1270  203.0400  145.0440 N   0  0  0  0  0  2  0  0  0  0  0  0
  160.0270  202.1360  144.8880 C   0  0  0  0  0  0  0  0  0  0  0  0
  158.9170  202.5320  144.4440 O   0  0  0  0  0  0  0  0  0  0  0  0
  1  5  2  0  0  0  0
  2  9  1  0  0  0  0
  3  6  1  0  0  0  0
  4 14  1  0  0  0  0
  4 12  2  0  0  0  0
  5  2  1  0  0  0  0
  6  1  1  0  0  0  0
  7 12  1  0  0  0  0
  7  9  1  0  0  0  0
  8  7  2  0  0  0  0
 10  3  1  6  0  0  0
 10  5  1  0  0  0  0
 11  8  1  0  0  0  0
 11  4  1  0  0  0  0
 13 10  1  0  0  0  0
 13  8  1  0  0  0  0
 14 15  1  0  0  0  0
 16 19  1  0  0  0  0
 16 24  1  1  0  0  0
 17 15  1  6  0  0  0
 17 21  1  0  0  0  0
 17 20  1  0  0  0  0
 19 18  1  0  0  0  0
 20 21  1  1  0  0  0
 20 16  1  0  0  0  0
 20 19  1  0  0  0  0
 24 23  2  0  0  0  0
 24 22  1  0  0  0  0
 25 13  1  0  0  0  0
 26 25  1  0  0  0  0
 27 26  1  0  0  0  0
 28 27  1  0  0  0  0
 29 28  1  0  0  0  0
 29 32  1  0  0  0  0
 31 29  2  0  0  0  0
 33 32  1  0  0  0  0
 33 30  1  0  0  0  0
 34 33  2  0  0  0  0
M  END
>  <MODEL>
5

>  <REMARK>
 VINA RESULT:      -6.7      2.335      4.249
  Name = 
  9 active torsions:
  status: ('A' for Active; 'I' for Inactive)
    1  A    between atoms: C_1  and  C_9
    2  A    between atoms: C_1  and  N_13
    3  A    between atoms: C_2  and  C_10
    4  A    between atoms: C_5  and  C_12
    5  A    between atoms: C_5  and  C_30
    6  A    between atoms: C_7  and  N_13
    7  A    between atoms: C_8  and  C_34
    8  A    between atoms: C_10  and  C_12
    9  A    between atoms: C_30  and  N_32
                            x       y       z     vdW  Elec       q    Type
                         _______ _______ _______ _____ _____    ______ ____

>  <TORSDO>
F 9

$$$$
=
 OpenBabel11042422283D

 34 38  0  0  1  0  0  0  0  0999 V2000
  159.7560  202.1100  150.4630 N   0  0  0  0  0  0  0  0  0  0  0  0
  160.6050  203.4650  152.2020 N   0  0  0  0  0  2  0  0  0  0  0  0
  161.3810  202.4480  148.3910 S   0  0  0  0  0  0  0  0  0  0  0  0
  160.9780  208.0590  151.9360 C   0  0  0  0  0  0  0  0  0  0  0  0
  160.5860  203.0140  150.8500 C   0  0  0  0  0  0  0  0  0  0  0  0
  159.8390  201.7460  149.0630 C   0  0  0  0  0  2  0  0  0  0  0  0
  161.3250  205.7700  151.9660 C   0  0  0  0  0  0  0  0  0  0  0  0
  161.1860  205.9730  150.5820 C   0  0  0  0  0  0  0  0  0  0  0  0
  161.5810  204.4550  152.6310 C   0  0  0  0  0  2  0  0  0  0  0  0
  161.5280  203.5600  149.8390 C   0  0  2  0  0  3  0  0  0  0  0  0
  160.9000  207.6160  150.3160 S   0  0  0  0  0  0  0  0  0  0  0  0
  161.2140  206.9440  152.7250 C   0  0  0  0  0  3  0  0  0  0  0  0
  161.2070  204.9680  149.5400 N   0  0  0  0  0  0  0  0  0  0  0  0
  160.8020  209.3800  152.4460 N   0  0  0  0  0  2  0  0  0  0  0  0
  160.5240  209.6290  153.8500 C   0  0  0  0  0  2  0  0  0  0  0  0
  158.6840  211.3060  154.9830 C   0  0  1  0  0  3  0  0  0  0  0  0
  160.7930  211.1040  154.1730 C   0  0  2  0  0  3  0  0  0  0  0  0
  157.5210  213.0030  153.6310 C   0  0  0  0  0  1  0  0  0  0  0  0
  158.2920  211.7620  153.6540 N   0  0  0  0  0  0  0  0  0  0  0  0
  159.6400  212.1280  154.1760 C   0  0  1  0  0  0  0  0  0  0  0  0
  160.4550  211.8080  153.0500 O   0  0  0  0  0  0  0  0  0  0  0  0
  156.7760  211.8280  156.5730 N   0  0  0  0  0  1  0  0  0  0  0  0
  158.8200  212.9120  156.7730 O   0  0  0  0  0  0  0  0  0  0  0  0
  158.1110  212.0830  156.1430 C   0  0  0  0  0  0  0  0  0  0  0  0
  160.9180  205.3880  148.1690 C   0  0  0  0  0  2  0  0  0  0  0  0
  162.0880  206.1820  147.6080 C   0  0  0  0  0  2  0  0  0  0  0  0
  162.9740  205.2800  146.7610 C   0  0  0  0  0  2  0  0  0  0  0  0
  162.6520  205.4340  145.2800 C   0  0  0  0  0  2  0  0  0  0  0  0
  161.3520  204.7870  144.9430 C   0  0  0  0  0  0  0  0  0  0  0  0
  159.9870  201.1700  145.0890 C   0  0  0  0  0  1  0  0  0  0  0  0
  160.3970  205.4870  144.5110 O   0  0  0  0  0  0  0  0  0  0  0  0
  161.2060  203.3750  145.1210 N   0  0  0  0  0  2  0  0  0  0  0  0
  160.0490  202.6160  144.7530 C   0  0  0  0  0  0  0  0  0  0  0  0
  159.0900  203.1510  144.1360 O   0  0  0  0  0  0  0  0  0  0  0  0
  1  5  2  0  0  0  0
  2  9  1  0  0  0  0
  3  6  1  0  0  0  0
  4 14  1  0  0  0  0
  4 12  2  0  0  0  0
  5  2  1  0  0  0  0
  6  1  1  0  0  0  0
  7  9  1  0  0  0  0
  7 12  1  0  0  0  0
  8  7  2  0  0  0  0
 10  3  1  6  0  0  0
 10  5  1  0  0  0  0
 11  8  1  0  0  0  0
 11  4  1  0  0  0  0
 13 10  1  0  0  0  0
 13  8  1  0  0  0  0
 14 15  1  0  0  0  0
 16 24  1  1  0  0  0
 17 15  1  6  0  0  0
 17 20  1  0  0  0  0
 18 19  1  0  0  0  0
 19 20  1  0  0  0  0
 19 16  1  0  0  0  0
 20 21  1  1  0  0  0
 20 16  1  0  0  0  0
 21 17  1  0  0  0  0
 24 22  1  0  0  0  0
 24 23  2  0  0  0  0
 25 13  1  0  0  0  0
 26 25  1  0  0  0  0
 27 26  1  0  0  0  0
 28 27  1  0  0  0  0
 29 32  1  0  0  0  0
 29 28  1  0  0  0  0
 31 29  2  0  0  0  0
 33 30  1  0  0  0  0
 33 32  1  0  0  0  0
 34 33  2  0  0  0  0
M  END
>  <MODEL>
6

>  <REMARK>
 VINA RESULT:      -6.7      2.373      3.996
  Name = 
  9 active torsions:
  status: ('A' for Active; 'I' for Inactive)
    1  A    between atoms: C_1  and  C_9
    2  A    between atoms: C_1  and  N_13
    3  A    between atoms: C_2  and  C_10
    4  A    between atoms: C_5  and  C_12
    5  A    between atoms: C_5  and  C_30
    6  A    between atoms: C_7  and  N_13
    7  A    between atoms: C_8  and  C_34
    8  A    between atoms: C_10  and  C_12
    9  A    between atoms: C_30  and  N_32
                            x       y       z     vdW  Elec       q    Type
                         _______ _______ _______ _____ _____    ______ ____

>  <TORSDO>
F 9

$$$$
=
 OpenBabel11042422283D

 34 38  0  0  1  0  0  0  0  0999 V2000
  160.0330  201.3990  147.5370 N   0  0  0  0  0  0  0  0  0  0  0  0
  160.8380  201.3730  149.7580 N   0  0  0  0  0  2  0  0  0  0  0  0
  161.5700  203.1040  146.2040 S   0  0  0  0  0  0  0  0  0  0  0  0
  160.8940  205.0730  152.5190 C   0  0  0  0  0  0  0  0  0  0  0  0
  160.8110  201.8980  148.4330 C   0  0  0  0  0  0  0  0  0  0  0  0
  160.0990  202.0290  146.2330 C   0  0  0  0  0  2  0  0  0  0  0  0
  161.3940  203.3330  151.0760 C   0  0  0  0  0  0  0  0  0  0  0  0
  161.2020  204.3680  150.1450 C   0  0  0  0  0  0  0  0  0  0  0  0
  161.7570  201.9210  150.7440 C   0  0  0  0  0  2  0  0  0  0  0  0
  161.6840  203.0300  148.0310 C   0  0  2  0  0  3  0  0  0  0  0  0
  160.7990  205.7720  150.9930 S   0  0  0  0  0  0  0  0  0  0  0  0
  161.2260  203.7330  152.4100 C   0  0  0  0  0  3  0  0  0  0  0  0
  161.2600  204.2740  148.7020 N   0  0  0  0  0  0  0  0  0  0  0  0
  160.6440  205.7400  153.7560 N   0  0  0  0  0  2  0  0  0  0  0  0
  161.1170  207.0900  154.0080 C   0  0  0  0  0  2  0  0  0  0  0  0
  160.5760  209.7290  154.4800 C   0  0  1  0  0  3  0  0  0  0  0  0
  160.4930  207.6180  155.3060 C   0  0  2  0  0  3  0  0  0  0  0  0
  162.0060  211.0640  155.9750 C   0  0  0  0  0  1  0  0  0  0  0  0
  161.8640  209.8660  155.1500 N   0  0  0  0  0  0  0  0  0  0  0  0
  160.7970  209.0480  155.7950 C   0  0  1  0  0  0  0  0  0  0  0  0
  161.5360  207.8810  156.1500 O   0  0  0  0  0  0  0  0  0  0  0  0
  159.8300  212.0490  153.7750 N   0  0  0  0  0  1  0  0  0  0  0  0
  158.6560  210.8640  155.3890 O   0  0  0  0  0  0  0  0  0  0  0  0
  159.6400  210.9060  154.6030 C   0  0  0  0  0  0  0  0  0  0  0  0
  160.9050  205.4560  147.9170 C   0  0  0  0  0  2  0  0  0  0  0  0
  162.1280  206.3370  147.7150 C   0  0  0  0  0  2  0  0  0  0  0  0
  161.7600  207.7990  147.9180 C   0  0  0  0  0  2  0  0  0  0  0  0
  162.3340  208.3300  149.2250 C   0  0  0  0  0  2  0  0  0  0  0  0
  162.0050  209.7720  149.4100 C   0  0  0  0  0  0  0  0  0  0  0  0
  161.2670  212.7280  147.0250 C   0  0  0  0  0  1  0  0  0  0  0  0
  161.9080  210.2490  150.5730 O   0  0  0  0  0  0  0  0  0  0  0  0
  161.8000  210.5960  148.2580 N   0  0  0  0  0  2  0  0  0  0  0  0
  161.5690  212.0080  148.2900 C   0  0  0  0  0  0  0  0  0  0  0  0
  161.6340  212.6540  149.3690 O   0  0  0  0  0  0  0  0  0  0  0  0
  1  5  2  0  0  0  0
  2  9  1  0  0  0  0
  3  6  1  0  0  0  0
  4 14  1  0  0  0  0
  5  2  1  0  0  0  0
  6  1  1  0  0  0  0
  7 12  1  0  0  0  0
  8 11  1  0  0  0  0
  8  7  2  0  0  0  0
  9  7  1  0  0  0  0
 10  3  1  6  0  0  0
 10  5  1  0  0  0  0
 10 13  1  0  0  0  0
 11  4  1  0  0  0  0
 12  4  2  0  0  0  0
 13  8  1  0  0  0  0
 14 15  1  0  0  0  0
 16 24  1  1  0  0  0
 16 19  1  0  0  0  0
 16 20  1  0  0  0  0
 17 15  1  6  0  0  0
 17 20  1  0  0  0  0
 17 21  1  0  0  0  0
 19 20  1  0  0  0  0
 19 18  1  0  0  0  0
 20 21  1  1  0  0  0
 22 24  1  0  0  0  0
 24 23  2  0  0  0  0
 25 13  1  0  0  0  0
 26 25  1  0  0  0  0
 26 27  1  0  0  0  0
 27 28  1  0  0  0  0
 28 29  1  0  0  0  0
 29 31  2  0  0  0  0
 30 33  1  0  0  0  0
 32 33  1  0  0  0  0
 32 29  1  0  0  0  0
 33 34  2  0  0  0  0
M  END
>  <MODEL>
7

>  <REMARK>
 VINA RESULT:      -6.4      3.064      5.847
  Name = 
  9 active torsions:
  status: ('A' for Active; 'I' for Inactive)
    1  A    between atoms: C_1  and  C_9
    2  A    between atoms: C_1  and  N_13
    3  A    between atoms: C_2  and  C_10
    4  A    between atoms: C_5  and  C_12
    5  A    between atoms: C_5  and  C_30
    6  A    between atoms: C_7  and  N_13
    7  A    between atoms: C_8  and  C_34
    8  A    between atoms: C_10  and  C_12
    9  A    between atoms: C_30  and  N_32
                            x       y       z     vdW  Elec       q    Type
                         _______ _______ _______ _____ _____    ______ ____

>  <TORSDO>
F 9

$$$$
=
 OpenBabel11042422283D

 34 38  0  0  1  0  0  0  0  0999 V2000
  159.3350  208.8880  156.2380 N   0  0  0  0  0  0  0  0  0  0  0  0
  158.2770  210.9520  155.7900 N   0  0  0  0  0  2  0  0  0  0  0  0
  161.9450  209.3260  156.0330 S   0  0  0  0  0  0  0  0  0  0  0  0
  158.6230  213.2030  151.7730 C   0  0  0  0  0  0  0  0  0  0  0  0
  159.4260  210.1100  155.8450 C   0  0  0  0  0  0  0  0  0  0  0  0
  160.5770  208.1410  156.2430 C   0  0  0  0  0  2  0  0  0  0  0  0
  158.8170  212.4400  153.9510 C   0  0  0  0  0  0  0  0  0  0  0  0
  159.9190  211.7890  153.3700 C   0  0  0  0  0  0  0  0  0  0  0  0
  158.4070  212.3440  155.3860 C   0  0  0  0  0  2  0  0  0  0  0  0
  160.7710  210.6110  155.4630 C   0  0  2  0  0  3  0  0  0  0  0  0
  159.9690  212.1950  151.7310 S   0  0  0  0  0  0  0  0  0  0  0  0
  158.0940  213.2390  153.0530 C   0  0  0  0  0  3  0  0  0  0  0  0
  160.8340  210.8680  154.0110 N   0  0  0  0  0  0  0  0  0  0  0  0
  158.0750  213.9040  150.6570 N   0  0  0  0  0  2  0  0  0  0  0  0
  158.9120  214.4110  149.5840 C   0  0  0  0  0  2  0  0  0  0  0  0
  161.2140  213.4250  148.4840 C   0  0  1  0  0  3  0  0  0  0  0  0
  158.9470  213.3930  148.4370 C   0  0  2  0  0  3  0  0  0  0  0  0
  161.9980  214.2070  146.2840 C   0  0  0  0  0  1  0  0  0  0  0  0
  161.1510  214.4520  147.4500 N   0  0  0  0  0  0  0  0  0  0  0  0
  160.1310  213.3640  147.4510 C   0  0  1  0  0  0  0  0  0  0  0  0
  158.9360  214.1210  147.2800 O   0  0  0  0  0  0  0  0  0  0  0  0
  161.8600  210.9780  148.3060 N   0  0  0  0  0  1  0  0  0  0  0  0
  163.4480  212.6480  148.0290 O   0  0  0  0  0  0  0  0  0  0  0  0
  162.2510  212.3480  148.2810 C   0  0  0  0  0  0  0  0  0  0  0  0
  161.8430  210.2080  153.1840 C   0  0  0  0  0  2  0  0  0  0  0  0
  161.3410  208.8450  152.7350 C   0  0  0  0  0  2  0  0  0  0  0  0
  161.8130  208.5530  151.3180 C   0  0  0  0  0  2  0  0  0  0  0  0
  161.8750  207.0530  151.0610 C   0  0  0  0  0  2  0  0  0  0  0  0
  161.5370  206.7370  149.6440 C   0  0  0  0  0  0  0  0  0  0  0  0
  161.3360  203.4910  147.5490 C   0  0  0  0  0  1  0  0  0  0  0  0
  161.2160  207.6650  148.8540 O   0  0  0  0  0  0  0  0  0  0  0  0
  161.5790  205.3760  149.2020 N   0  0  0  0  0  2  0  0  0  0  0  0
  161.3680  204.9440  147.8540 C   0  0  0  0  0  0  0  0  0  0  0  0
  161.2240  205.7770  146.9190 O   0  0  0  0  0  0  0  0  0  0  0  0
  1  6  1  0  0  0  0
  2  5  1  0  0  0  0
  3  6  1  0  0  0  0
  4 12  2  0  0  0  0
  5  1  2  0  0  0  0
  7  9  1  0  0  0  0
  8  7  2  0  0  0  0
  8 13  1  0  0  0  0
  9  2  1  0  0  0  0
 10  5  1  6  0  0  0
 10  3  1  0  0  0  0
 11  4  1  0  0  0  0
 11  8  1  0  0  0  0
 12  7  1  0  0  0  0
 13 10  1  0  0  0  0
 14  4  1  0  0  0  0
 15 14  1  0  0  0  0
 16 24  1  6  0  0  0
 17 15  1  1  0  0  0
 18 19  1  0  0  0  0
 19 20  1  0  0  0  0
 19 16  1  0  0  0  0
 20 21  1  6  0  0  0
 20 17  1  0  0  0  0
 20 16  1  0  0  0  0
 21 17  1  0  0  0  0
 23 24  2  0  0  0  0
 24 22  1  0  0  0  0
 25 13  1  0  0  0  0
 26 25  1  0  0  0  0
 27 26  1  0  0  0  0
 28 27  1  0  0  0  0
 29 28  1  0  0  0  0
 30 33  1  0  0  0  0
 31 29  2  0  0  0  0
 32 29  1  0  0  0  0
 33 32  1  0  0  0  0
 34 33  2  0  0  0  0
M  END
>  <MODEL>
8

>  <REMARK>
 VINA RESULT:      -6.3      3.784      6.941
  Name = 
  9 active torsions:
  status: ('A' for Active; 'I' for Inactive)
    1  A    between atoms: C_1  and  C_9
    2  A    between atoms: C_1  and  N_13
    3  A    between atoms: C_2  and  C_10
    4  A    between atoms: C_5  and  C_12
    5  A    between atoms: C_5  and  C_30
    6  A    between atoms: C_7  and  N_13
    7  A    between atoms: C_8  and  C_34
    8  A    between atoms: C_10  and  C_12
    9  A    between atoms: C_30  and  N_32
                            x       y       z     vdW  Elec       q    Type
                         _______ _______ _______ _____ _____    ______ ____

>  <TORSDO>
F 9

$$$$
=
 OpenBabel11042422283D

 34 38  0  0  1  0  0  0  0  0999 V2000
  160.5950  204.6390  148.0110 N   0  0  0  0  0  0  0  0  0  0  0  0
  161.1290  204.0610  150.2380 N   0  0  0  0  0  2  0  0  0  0  0  0
  162.2790  206.5690  147.3150 S   0  0  0  0  0  0  0  0  0  0  0  0
  160.8490  206.9920  153.7940 C   0  0  0  0  0  0  0  0  0  0  0  0
  161.2600  204.8880  149.0840 C   0  0  0  0  0  0  0  0  0  0  0  0
  160.8160  205.5590  146.9130 C   0  0  0  0  0  2  0  0  0  0  0  0
  161.5200  205.6330  152.0440 C   0  0  0  0  0  0  0  0  0  0  0  0
  161.4400  206.8660  151.3740 C   0  0  0  0  0  0  0  0  0  0  0  0
  161.9220  204.3320  151.4270 C   0  0  0  0  0  2  0  0  0  0  0  0
  162.1740  206.0590  149.0700 C   0  0  2  0  0  3  0  0  0  0  0  0
  160.9370  208.0380  152.4810 S   0  0  0  0  0  0  0  0  0  0  0  0
  161.1940  205.7080  153.4060 C   0  0  0  0  0  3  0  0  0  0  0  0
  161.6710  207.1180  149.9660 N   0  0  0  0  0  0  0  0  0  0  0  0
  160.4520  207.3510  155.1180 N   0  0  0  0  0  2  0  0  0  0  0  0
  160.7900  208.6400  155.6960 C   0  0  0  0  0  2  0  0  0  0  0  0
  159.5130  210.7940  154.5950 C   0  0  1  0  0  3  0  0  0  0  0  0
  159.5290  209.2830  156.2860 C   0  0  2  0  0  3  0  0  0  0  0  0
  159.7320  213.0360  155.5890 C   0  0  0  0  0  1  0  0  0  0  0  0
  160.2670  211.6810  155.4730 N   0  0  0  0  0  0  0  0  0  0  0  0
  159.2370  210.7810  156.0660 C   0  0  1  0  0  0  0  0  0  0  0  0
  159.9620  210.2360  157.1660 O   0  0  0  0  0  0  0  0  0  0  0  0
  158.6540  211.9920  152.5290 N   0  0  0  0  0  1  0  0  0  0  0  0
  157.2140  211.4310  154.2610 O   0  0  0  0  0  0  0  0  0  0  0  0
  158.3920  211.4350  153.8140 C   0  0  0  0  0  0  0  0  0  0  0  0
  161.4110  208.4620  149.4530 C   0  0  0  0  0  2  0  0  0  0  0  0
  162.3590  209.4610  150.0970 C   0  0  0  0  0  2  0  0  0  0  0  0
  161.8450  210.8780  149.8930 C   0  0  0  0  0  2  0  0  0  0  0  0
  162.3800  211.4710  148.5960 C   0  0  0  0  0  2  0  0  0  0  0  0
  161.4600  212.5160  148.0630 C   0  0  0  0  0  0  0  0  0  0  0  0
  158.6460  212.5760  145.4100 C   0  0  0  0  0  1  0  0  0  0  0  0
  161.5160  213.6910  148.5180 O   0  0  0  0  0  0  0  0  0  0  0  0
  160.5210  212.1660  147.0420 N   0  0  0  0  0  2  0  0  0  0  0  0
  159.6470  213.0880  146.3800 C   0  0  0  0  0  0  0  0  0  0  0  0
  159.7240  214.3260  146.5960 O   0  0  0  0  0  0  0  0  0  0  0  0
  1  5  2  0  0  0  0
  2  9  1  0  0  0  0
  4 14  1  0  0  0  0
  5  2  1  0  0  0  0
  6  3  1  0  0  0  0
  6  1  1  0  0  0  0
  7 12  1  0  0  0  0
  8  7  2  0  0  0  0
  8 11  1  0  0  0  0
  9  7  1  0  0  0  0
 10  3  1  6  0  0  0
 10  5  1  0  0  0  0
 10 13  1  0  0  0  0
 11  4  1  0  0  0  0
 12  4  2  0  0  0  0
 13  8  1  0  0  0  0
 14 15  1  0  0  0  0
 16 24  1  6  0  0  0
 16 19  1  0  0  0  0
 16 20  1  0  0  0  0
 17 15  1  6  0  0  0
 17 21  1  0  0  0  0
 19 18  1  0  0  0  0
 19 20  1  0  0  0  0
 20 17  1  0  0  0  0
 20 21  1  1  0  0  0
 22 24  1  0  0  0  0
 24 23  2  0  0  0  0
 25 13  1  0  0  0  0
 25 26  1  0  0  0  0
 27 26  1  0  0  0  0
 28 27  1  0  0  0  0
 29 31  2  0  0  0  0
 29 28  1  0  0  0  0
 30 33  1  0  0  0  0
 32 29  1  0  0  0  0
 33 34  2  0  0  0  0
 33 32  1  0  0  0  0
M  END
>  <MODEL>
9

>  <REMARK>
 VINA RESULT:      -6.2      3.637      5.859
  Name = 
  9 active torsions:
  status: ('A' for Active; 'I' for Inactive)
    1  A    between atoms: C_1  and  C_9
    2  A    between atoms: C_1  and  N_13
    3  A    between atoms: C_2  and  C_10
    4  A    between atoms: C_5  and  C_12
    5  A    between atoms: C_5  and  C_30
    6  A    between atoms: C_7  and  N_13
    7  A    between atoms: C_8  and  C_34
    8  A    between atoms: C_10  and  C_12
    9  A    between atoms: C_30  and  N_32
                            x       y       z     vdW  Elec       q    Type
                         _______ _______ _______ _____ _____    ______ ____

>  <TORSDO>
F 9

$$$$
