=
 OpenBabel11042421143D

 32 36  0  0  1  0  0  0  0  0999 V2000
  160.8990  209.3810  152.4110 C   0  0  0  0  0  3  0  0  0  0  0  0
  161.1320  207.2950  153.1380 C   0  0  0  0  0  0  0  0  0  0  0  0
  161.2750  205.8050  153.1190 C   0  0  0  0  0  2  0  0  0  0  0  0
  161.0370  208.0460  154.2030 O   0  0  0  0  0  0  0  0  0  0  0  0
  161.7750  205.3340  151.7460 C   0  0  0  0  0  2  0  0  0  0  0  0
  161.1880  207.5400  150.6200 C   0  0  0  0  0  2  0  0  0  0  0  0
  160.8990  209.2940  153.8020 C   0  0  0  0  0  0  0  0  0  0  0  0
  160.9980  206.0140  150.6060 C   0  0  1  0  0  3  0  0  0  0  0  0
  161.0330  208.0680  152.0110 C   0  0  0  0  0  0  0  0  0  0  0  0
  163.0380  210.2750  155.8350 C   0  0  0  0  0  1  0  0  0  0  0  0
  159.9030  212.2020  155.8000 C   0  0  0  0  0  3  0  0  0  0  0  0
  161.8240  212.6660  157.2610 O   0  0  0  0  0  1  0  0  0  0  0  0
  161.6830  210.8550  155.6010 C   0  0  0  0  0  0  0  0  0  0  0  0
  159.6950  211.2250  154.8310 C   0  0  0  0  0  0  0  0  0  0  0  0
  161.1730  211.9420  156.2700 C   0  0  0  0  0  0  0  0  0  0  0  0
  160.7710  210.4090  154.7080 N   0  0  0  0  0  0  0  0  0  0  0  0
  157.1840  212.8280  153.0070 C   0  0  0  0  0  0  0  0  0  0  0  0
  158.4350  211.0930  154.0270 C   0  0  1  0  0  3  0  0  0  0  0  0
  157.1960  211.3910  154.8870 C   0  0  0  0  0  2  0  0  0  0  0  0
  156.5020  212.4590  154.1380 C   0  0  0  0  0  0  0  0  0  0  0  0
  154.7870  214.0730  153.6520 C   0  0  0  0  0  3  0  0  0  0  0  0
  155.4880  214.4530  152.4920 C   0  0  0  0  0  3  0  0  0  0  0  0
  158.4360  212.0630  152.8340 C   0  0  0  0  0  2  0  0  0  0  0  0
  156.7000  213.8270  152.1630 C   0  0  0  0  0  3  0  0  0  0  0  0
  155.2960  213.0670  154.4870 C   0  0  0  0  0  3  0  0  0  0  0  0
  161.3990  205.4490  149.2790 C   0  0  0  0  0  0  0  0  0  0  0  0
  161.9640  206.1870  148.4280 O   0  0  0  0  0  0  0  0  0  0  0  0
  161.1440  204.0810  148.9580 N   0  0  0  0  0  2  0  0  0  0  0  0
  160.4920  203.1700  149.8870 C   0  0  0  0  0  2  0  0  0  0  0  0
  161.0640  201.7530  147.9250 C   0  0  0  0  0  1  0  0  0  0  0  0
  159.2880  201.1830  149.3930 O   0  0  0  0  0  1  0  0  0  0  0  0
  160.5600  201.7510  149.3550 C   0  0  2  0  0  3  0  0  0  0  0  0
  1  7  2  0  0  0  0
  2  4  1  0  0  0  0
  3  2  1  0  0  0  0
  5  3  1  0  0  0  0
  6  9  1  0  0  0  0
  7  4  1  0  0  0  0
  7 16  1  0  0  0  0
  8 26  1  6  0  0  0
  8  6  1  0  0  0  0
  8  5  1  0  0  0  0
  9  1  1  0  0  0  0
  9  2  2  0  0  0  0
 11 15  1  0  0  0  0
 13 10  1  0  0  0  0
 13 15  2  0  0  0  0
 14 11  2  0  0  0  0
 15 12  1  0  0  0  0
 16 14  1  0  0  0  0
 16 13  1  0  0  0  0
 17 20  1  0  0  0  0
 18 14  1  1  0  0  0
 18 19  1  0  0  0  0
 20 25  2  0  0  0  0
 20 19  1  0  0  0  0
 21 25  1  0  0  0  0
 22 21  2  0  0  0  0
 23 17  1  0  0  0  0
 23 18  1  0  0  0  0
 24 22  1  0  0  0  0
 24 17  2  0  0  0  0
 27 26  2  0  0  0  0
 28 26  1  0  0  0  0
 28 29  1  0  0  0  0
 32 30  1  6  0  0  0
 32 31  1  0  0  0  0
 32 29  1  0  0  0  0
M  END
>  <MODEL>
1

>  <REMARK>
 VINA RESULT:      -7.5      0.000      0.000
  Name = 
  5 active torsions:
  status: ('A' for Active; 'I' for Inactive)
    1  A    between atoms: C_3  and  C_25
    2  A    between atoms: C_6  and  C_19
    3  A    between atoms: C_14  and  N_18
    4  A    between atoms: C_14  and  C_30
    5  A    between atoms: C_16  and  N_31
                            x       y       z     vdW  Elec       q    Type
                         _______ _______ _______ _____ _____    ______ ____

>  <TORSDO>
F 5

$$$$
=
 OpenBabel11042421143D

 32 36  0  0  1  0  0  0  0  0999 V2000
  161.1460  206.1060  152.9510 C   0  0  0  0  0  3  0  0  0  0  0  0
  161.1460  208.0630  151.8980 C   0  0  0  0  0  0  0  0  0  0  0  0
  161.1460  209.5440  151.6780 C   0  0  0  0  0  2  0  0  0  0  0  0
  161.0820  207.1460  150.9690 O   0  0  0  0  0  0  0  0  0  0  0  0
  161.6520  210.2690  152.9330 C   0  0  0  0  0  2  0  0  0  0  0  0
  161.3260  208.2270  154.4170 C   0  0  0  0  0  2  0  0  0  0  0  0
  161.0820  205.9700  151.5660 C   0  0  0  0  0  0  0  0  0  0  0  0
  160.9900  209.7130  154.2040 C   0  0  1  0  0  3  0  0  0  0  0  0
  161.1670  207.4730  153.1350 C   0  0  0  0  0  0  0  0  0  0  0  0
  160.4290  203.1810  152.7750 C   0  0  0  0  0  1  0  0  0  0  0  0
  161.1130  203.2050  149.1590 C   0  0  0  0  0  3  0  0  0  0  0  0
  160.5610  201.2040  150.4750 O   0  0  0  0  0  1  0  0  0  0  0  0
  160.7460  203.4950  151.3510 C   0  0  0  0  0  0  0  0  0  0  0  0
  161.2480  204.5400  149.5250 C   0  0  0  0  0  0  0  0  0  0  0  0
  160.7940  202.5660  150.3390 C   0  0  0  0  0  0  0  0  0  0  0  0
  161.0260  204.7190  150.8510 N   0  0  0  0  0  0  0  0  0  0  0  0
  160.9000  205.8770  146.3170 C   0  0  0  0  0  0  0  0  0  0  0  0
  161.5980  205.6430  148.5690 C   0  0  1  0  0  3  0  0  0  0  0  0
  162.7500  205.2240  147.6400 C   0  0  0  0  0  2  0  0  0  0  0  0
  162.1980  205.4370  146.2860 C   0  0  0  0  0  0  0  0  0  0  0  0
  162.1750  205.4790  143.8810 C   0  0  0  0  0  3  0  0  0  0  0  0
  160.8420  205.9290  143.9130 C   0  0  0  0  0  3  0  0  0  0  0  0
  160.3910  206.0210  147.6960 C   0  0  0  0  0  2  0  0  0  0  0  0
  160.1930  206.1310  145.1410 C   0  0  0  0  0  3  0  0  0  0  0  0
  162.8640  205.2280  145.0770 C   0  0  0  0  0  3  0  0  0  0  0  0
  161.3870  210.5160  155.4050 C   0  0  0  0  0  0  0  0  0  0  0  0
  162.6060  210.6690  155.6830 O   0  0  0  0  0  0  0  0  0  0  0  0
  160.3990  211.1090  156.2480 N   0  0  0  0  0  2  0  0  0  0  0  0
  158.9720  210.9720  155.9940 C   0  0  0  0  0  2  0  0  0  0  0  0
  158.1180  212.0210  153.9070 C   0  0  0  0  0  1  0  0  0  0  0  0
  159.3850  213.2570  155.4890 O   0  0  0  0  0  1  0  0  0  0  0  0
  158.4320  212.2470  155.3730 C   0  0  2  0  0  3  0  0  0  0  0  0
  1  9  1  0  0  0  0
  2  9  2  0  0  0  0
  3  2  1  0  0  0  0
  3  5  1  0  0  0  0
  4  7  1  0  0  0  0
  4  2  1  0  0  0  0
  5  8  1  0  0  0  0
  7  1  2  0  0  0  0
  8  6  1  0  0  0  0
  8 26  1  1  0  0  0
  9  6  1  0  0  0  0
 11 14  2  0  0  0  0
 11 15  1  0  0  0  0
 13 10  1  0  0  0  0
 14 16  1  0  0  0  0
 15 12  1  0  0  0  0
 15 13  2  0  0  0  0
 16 13  1  0  0  0  0
 16  7  1  0  0  0  0
 17 23  1  0  0  0  0
 18 14  1  1  0  0  0
 19 18  1  0  0  0  0
 20 17  1  0  0  0  0
 20 19  1  0  0  0  0
 21 22  2  0  0  0  0
 21 25  1  0  0  0  0
 22 24  1  0  0  0  0
 23 18  1  0  0  0  0
 24 17  2  0  0  0  0
 25 20  2  0  0  0  0
 26 27  2  0  0  0  0
 26 28  1  0  0  0  0
 29 28  1  0  0  0  0
 32 30  1  6  0  0  0
 32 31  1  0  0  0  0
 32 29  1  0  0  0  0
M  END
>  <MODEL>
2

>  <REMARK>
 VINA RESULT:      -7.5      2.394      9.479
  Name = 
  5 active torsions:
  status: ('A' for Active; 'I' for Inactive)
    1  A    between atoms: C_3  and  C_25
    2  A    between atoms: C_6  and  C_19
    3  A    between atoms: C_14  and  N_18
    4  A    between atoms: C_14  and  C_30
    5  A    between atoms: C_16  and  N_31
                            x       y       z     vdW  Elec       q    Type
                         _______ _______ _______ _____ _____    ______ ____

>  <TORSDO>
F 5

$$$$
=
 OpenBabel11042421143D

 32 36  0  0  1  0  0  0  0  0999 V2000
  161.1680  207.5590  152.0620 C   0  0  0  0  0  3  0  0  0  0  0  0
  160.8960  205.5100  152.8780 C   0  0  0  0  0  0  0  0  0  0  0  0
  160.7400  204.0220  152.9240 C   0  0  0  0  0  2  0  0  0  0  0  0
  160.8360  206.3230  153.8990 O   0  0  0  0  0  0  0  0  0  0  0  0
  161.2850  203.3880  151.6360 C   0  0  0  0  0  2  0  0  0  0  0  0
  161.2790  205.6020  150.3780 C   0  0  0  0  0  2  0  0  0  0  0  0
  160.9960  207.5500  153.4450 C   0  0  0  0  0  0  0  0  0  0  0  0
  160.7910  204.1430  150.3900 C   0  0  1  0  0  3  0  0  0  0  0  0
  161.0790  206.2240  151.7230 C   0  0  0  0  0  0  0  0  0  0  0  0
  162.1240  207.7290  156.3380 C   0  0  0  0  0  1  0  0  0  0  0  0
  160.6590  210.8400  155.0260 C   0  0  0  0  0  3  0  0  0  0  0  0
  161.6490  210.5830  157.2610 O   0  0  0  0  0  1  0  0  0  0  0  0
  161.4760  208.8210  155.5530 C   0  0  0  0  0  0  0  0  0  0  0  0
  160.5010  209.9390  153.9780 C   0  0  0  0  0  0  0  0  0  0  0  0
  161.2820  210.1020  156.0110 C   0  0  0  0  0  0  0  0  0  0  0  0
  160.9940  208.7160  154.2940 N   0  0  0  0  0  0  0  0  0  0  0  0
  160.0340  212.3120  151.4580 C   0  0  0  0  0  0  0  0  0  0  0  0
  159.8600  210.2800  152.6650 C   0  0  1  0  0  3  0  0  0  0  0  0
  158.5750  211.1000  152.8730 C   0  0  0  0  0  2  0  0  0  0  0  0
  158.8020  212.3120  152.0600 C   0  0  0  0  0  0  0  0  0  0  0  0
  158.3030  214.4510  151.0790 C   0  0  0  0  0  3  0  0  0  0  0  0
  159.5680  214.4510  150.4630 C   0  0  0  0  0  3  0  0  0  0  0  0
  160.8140  211.0990  151.7810 C   0  0  0  0  0  2  0  0  0  0  0  0
  160.4460  213.3730  150.6520 C   0  0  0  0  0  3  0  0  0  0  0  0
  157.9120  213.3740  151.8880 C   0  0  0  0  0  3  0  0  0  0  0  0
  161.2150  203.4390  149.1390 C   0  0  0  0  0  0  0  0  0  0  0  0
  161.5890  202.2370  149.1900 O   0  0  0  0  0  0  0  0  0  0  0  0
  161.2080  204.1150  147.8810 N   0  0  0  0  0  2  0  0  0  0  0  0
  160.7940  205.5030  147.7420 C   0  0  0  0  0  2  0  0  0  0  0  0
  162.6130  205.2780  146.0620 C   0  0  0  0  0  1  0  0  0  0  0  0
  162.6250  207.0140  147.6800 O   0  0  0  0  0  1  0  0  0  0  0  0
  161.7820  206.2550  146.8710 C   0  0  2  0  0  3  0  0  0  0  0  0
  1  7  2  0  0  0  0
  2  3  1  0  0  0  0
  2  4  1  0  0  0  0
  5  3  1  0  0  0  0
  6  8  1  0  0  0  0
  6  9  1  0  0  0  0
  7  4  1  0  0  0  0
  7 16  1  0  0  0  0
  8 26  1  6  0  0  0
  8  5  1  0  0  0  0
  9  1  1  0  0  0  0
  9  2  2  0  0  0  0
 11 15  1  0  0  0  0
 13 15  2  0  0  0  0
 13 10  1  0  0  0  0
 14 16  1  0  0  0  0
 14 11  2  0  0  0  0
 15 12  1  0  0  0  0
 16 13  1  0  0  0  0
 17 23  1  0  0  0  0
 17 20  1  0  0  0  0
 18 19  1  0  0  0  0
 18 14  1  1  0  0  0
 20 19  1  0  0  0  0
 21 25  1  0  0  0  0
 22 24  1  0  0  0  0
 22 21  2  0  0  0  0
 23 18  1  0  0  0  0
 24 17  2  0  0  0  0
 25 20  2  0  0  0  0
 26 27  2  0  0  0  0
 28 26  1  0  0  0  0
 29 28  1  0  0  0  0
 32 30  1  1  0  0  0
 32 31  1  0  0  0  0
 32 29  1  0  0  0  0
M  END
>  <MODEL>
3

>  <REMARK>
 VINA RESULT:      -7.0      1.823      3.037
  Name = 
  5 active torsions:
  status: ('A' for Active; 'I' for Inactive)
    1  A    between atoms: C_3  and  C_25
    2  A    between atoms: C_6  and  C_19
    3  A    between atoms: C_14  and  N_18
    4  A    between atoms: C_14  and  C_30
    5  A    between atoms: C_16  and  N_31
                            x       y       z     vdW  Elec       q    Type
                         _______ _______ _______ _____ _____    ______ ____

>  <TORSDO>
F 5

$$$$
=
 OpenBabel11042421143D

 32 36  0  0  1  0  0  0  0  0999 V2000
  160.5580  206.7670  151.6610 C   0  0  0  0  0  3  0  0  0  0  0  0
  161.6130  208.1770  150.3060 C   0  0  0  0  0  0  0  0  0  0  0  0
  162.2160  208.7490  149.0600 C   0  0  0  0  0  2  0  0  0  0  0  0
  161.6600  208.7100  151.4990 O   0  0  0  0  0  0  0  0  0  0  0  0
  161.6050  208.0830  147.8190 C   0  0  0  0  0  2  0  0  0  0  0  0
  160.6550  206.1360  149.1570 C   0  0  0  0  0  2  0  0  0  0  0  0
  161.0380  207.8940  152.3270 C   0  0  0  0  0  0  0  0  0  0  0  0
  161.5490  206.5540  147.9760 C   0  0  1  0  0  3  0  0  0  0  0  0
  160.9630  206.9720  150.3580 C   0  0  0  0  0  0  0  0  0  0  0  0
  161.1960  205.8070  154.6270 C   0  0  0  0  0  1  0  0  0  0  0  0
  160.5550  209.2720  155.6890 C   0  0  0  0  0  3  0  0  0  0  0  0
  160.7480  207.3470  157.2050 O   0  0  0  0  0  1  0  0  0  0  0  0
  160.9480  207.2740  154.7540 C   0  0  0  0  0  0  0  0  0  0  0  0
  160.6480  209.3680  154.3040 C   0  0  0  0  0  0  0  0  0  0  0  0
  160.7510  207.9310  155.9450 C   0  0  0  0  0  0  0  0  0  0  0  0
  160.8850  208.1600  153.7360 N   0  0  0  0  0  0  0  0  0  0  0  0
  159.4350  212.6440  154.2520 C   0  0  0  0  0  0  0  0  0  0  0  0
  160.4980  210.6500  153.5380 C   0  0  1  0  0  3  0  0  0  0  0  0
  159.1110  210.7430  152.8810 C   0  0  0  0  0  2  0  0  0  0  0  0
  158.5740  212.0230  153.3840 C   0  0  0  0  0  0  0  0  0  0  0  0
  156.9930  213.8180  153.6420 C   0  0  0  0  0  3  0  0  0  0  0  0
  157.8760  214.4530  154.5340 C   0  0  0  0  0  3  0  0  0  0  0  0
  160.6750  211.8680  154.4590 C   0  0  0  0  0  2  0  0  0  0  0  0
  159.1110  213.8630  154.8470 C   0  0  0  0  0  3  0  0  0  0  0  0
  157.3400  212.5890  153.0600 C   0  0  0  0  0  3  0  0  0  0  0  0
  161.0790  205.9060  146.7110 C   0  0  0  0  0  0  0  0  0  0  0  0
  160.5240  206.6010  145.8180 O   0  0  0  0  0  0  0  0  0  0  0  0
  161.2470  204.5040  146.5000 N   0  0  0  0  0  2  0  0  0  0  0  0
  161.8740  203.6360  147.4860 C   0  0  0  0  0  2  0  0  0  0  0  0
  160.8580  202.6160  149.5140 C   0  0  0  0  0  1  0  0  0  0  0  0
  161.2190  201.3530  147.5370 O   0  0  0  0  0  1  0  0  0  0  0  0
  160.8690  202.6210  147.9980 C   0  0  2  0  0  3  0  0  0  0  0  0
  1  7  2  0  0  0  0
  2  9  2  0  0  0  0
  2  4  1  0  0  0  0
  3  2  1  0  0  0  0
  4  7  1  0  0  0  0
  5  8  1  0  0  0  0
  5  3  1  0  0  0  0
  6  9  1  0  0  0  0
  7 16  1  0  0  0  0
  8 26  1  6  0  0  0
  8  6  1  0  0  0  0
  9  1  1  0  0  0  0
 10 13  1  0  0  0  0
 11 15  1  0  0  0  0
 13 15  2  0  0  0  0
 14 11  2  0  0  0  0
 15 12  1  0  0  0  0
 16 14  1  0  0  0  0
 16 13  1  0  0  0  0
 17 23  1  0  0  0  0
 17 24  1  0  0  0  0
 18 14  1  1  0  0  0
 18 23  1  0  0  0  0
 19 20  1  0  0  0  0
 19 18  1  0  0  0  0
 20 17  2  0  0  0  0
 21 22  1  0  0  0  0
 22 24  2  0  0  0  0
 25 20  1  0  0  0  0
 25 21  2  0  0  0  0
 27 26  2  0  0  0  0
 28 26  1  0  0  0  0
 28 29  1  0  0  0  0
 29 32  1  0  0  0  0
 31 32  1  0  0  0  0
 32 30  1  1  0  0  0
M  END
>  <MODEL>
4

>  <REMARK>
 VINA RESULT:      -6.9      1.952      3.102
  Name = 
  5 active torsions:
  status: ('A' for Active; 'I' for Inactive)
    1  A    between atoms: C_3  and  C_25
    2  A    between atoms: C_6  and  C_19
    3  A    between atoms: C_14  and  N_18
    4  A    between atoms: C_14  and  C_30
    5  A    between atoms: C_16  and  N_31
                            x       y       z     vdW  Elec       q    Type
                         _______ _______ _______ _____ _____    ______ ____

>  <TORSDO>
F 5

$$$$
=
 OpenBabel11042421143D

 32 36  0  0  1  0  0  0  0  0999 V2000
  160.8440  207.8140  154.2010 C   0  0  0  0  0  3  0  0  0  0  0  0
  161.2460  208.0610  152.0300 C   0  0  0  0  0  0  0  0  0  0  0  0
  161.5130  207.7130  150.5990 C   0  0  0  0  0  2  0  0  0  0  0  0
  161.2160  209.2650  152.5370 O   0  0  0  0  0  0  0  0  0  0  0  0
  161.0550  206.2770  150.3050 C   0  0  0  0  0  2  0  0  0  0  0  0
  160.9300  205.6620  152.7720 C   0  0  0  0  0  2  0  0  0  0  0  0
  160.9770  209.1510  153.8280 C   0  0  0  0  0  0  0  0  0  0  0  0
  161.5260  205.3060  151.4000 C   0  0  1  0  0  3  0  0  0  0  0  0
  161.0430  207.1340  153.0180 C   0  0  0  0  0  0  0  0  0  0  0  0
  163.1050  210.0930  155.8900 C   0  0  0  0  0  1  0  0  0  0  0  0
  160.0330  212.1150  155.7680 C   0  0  0  0  0  3  0  0  0  0  0  0
  161.9400  212.5390  157.2600 O   0  0  0  0  0  1  0  0  0  0  0  0
  161.7740  210.7110  155.6220 C   0  0  0  0  0  0  0  0  0  0  0  0
  159.8140  211.1320  154.8070 C   0  0  0  0  0  0  0  0  0  0  0  0
  161.2850  211.8220  156.2660 C   0  0  0  0  0  0  0  0  0  0  0  0
  160.8660  210.2810  154.7170 N   0  0  0  0  0  0  0  0  0  0  0  0
  157.3710  212.7910  152.9420 C   0  0  0  0  0  0  0  0  0  0  0  0
  158.5670  211.0280  153.9800 C   0  0  1  0  0  3  0  0  0  0  0  0
  157.3190  211.3500  154.8190 C   0  0  0  0  0  2  0  0  0  0  0  0
  156.6600  212.4330  154.0600 C   0  0  0  0  0  0  0  0  0  0  0  0
  154.9880  214.0850  153.5480 C   0  0  0  0  0  3  0  0  0  0  0  0
  155.7180  214.4530  152.4020 C   0  0  0  0  0  3  0  0  0  0  0  0
  158.6100  212.0010  152.7910 C   0  0  0  0  0  2  0  0  0  0  0  0
  156.9230  213.8030  152.0930 C   0  0  0  0  0  3  0  0  0  0  0  0
  155.4610  213.0660  154.3890 C   0  0  0  0  0  3  0  0  0  0  0  0
  161.1930  203.8920  151.0370 C   0  0  0  0  0  0  0  0  0  0  0  0
  160.9960  203.0400  151.9440 O   0  0  0  0  0  0  0  0  0  0  0  0
  161.0980  203.4910  149.6700 N   0  0  0  0  0  2  0  0  0  0  0  0
  161.3160  204.4160  148.5670 C   0  0  0  0  0  2  0  0  0  0  0  0
  162.5820  204.7060  146.4460 C   0  0  0  0  0  1  0  0  0  0  0  0
  161.0550  202.9140  146.7460 O   0  0  0  0  0  1  0  0  0  0  0  0
  161.9930  203.6990  147.4140 C   0  0  2  0  0  3  0  0  0  0  0  0
  2  4  1  0  0  0  0
  2  9  2  0  0  0  0
  3  2  1  0  0  0  0
  4  7  1  0  0  0  0
  5  3  1  0  0  0  0
  5  8  1  0  0  0  0
  6  9  1  0  0  0  0
  7  1  2  0  0  0  0
  7 16  1  0  0  0  0
  8 26  1  6  0  0  0
  8  6  1  0  0  0  0
  9  1  1  0  0  0  0
 11 15  1  0  0  0  0
 13 10  1  0  0  0  0
 13 15  2  0  0  0  0
 14 11  2  0  0  0  0
 15 12  1  0  0  0  0
 16 14  1  0  0  0  0
 16 13  1  0  0  0  0
 17 20  1  0  0  0  0
 18 14  1  1  0  0  0
 18 19  1  0  0  0  0
 20 25  2  0  0  0  0
 20 19  1  0  0  0  0
 21 25  1  0  0  0  0
 22 21  2  0  0  0  0
 23 17  1  0  0  0  0
 23 18  1  0  0  0  0
 24 22  1  0  0  0  0
 24 17  2  0  0  0  0
 26 27  2  0  0  0  0
 28 26  1  0  0  0  0
 29 28  1  0  0  0  0
 31 32  1  0  0  0  0
 32 30  1  6  0  0  0
 32 29  1  0  0  0  0
M  END
>  <MODEL>
5

>  <REMARK>
 VINA RESULT:      -6.8      1.285      1.828
  Name = 
  5 active torsions:
  status: ('A' for Active; 'I' for Inactive)
    1  A    between atoms: C_3  and  C_25
    2  A    between atoms: C_6  and  C_19
    3  A    between atoms: C_14  and  N_18
    4  A    between atoms: C_14  and  C_30
    5  A    between atoms: C_16  and  N_31
                            x       y       z     vdW  Elec       q    Type
                         _______ _______ _______ _____ _____    ______ ____

>  <TORSDO>
F 5

$$$$
=
 OpenBabel11042421143D

 32 36  0  0  1  0  0  0  0  0999 V2000
  161.0670  206.0940  149.7540 C   0  0  0  0  0  3  0  0  0  0  0  0
  162.1050  206.1320  147.7890 C   0  0  0  0  0  0  0  0  0  0  0  0
  162.6270  205.6730  146.4640 C   0  0  0  0  0  2  0  0  0  0  0  0
  162.3240  207.2950  148.3430 O   0  0  0  0  0  0  0  0  0  0  0  0
  161.8320  204.4560  145.9700 C   0  0  0  0  0  2  0  0  0  0  0  0
  160.8460  203.9890  148.2700 C   0  0  0  0  0  2  0  0  0  0  0  0
  161.7170  207.3040  149.5130 C   0  0  0  0  0  0  0  0  0  0  0  0
  161.6490  203.4170  147.0890 C   0  0  1  0  0  3  0  0  0  0  0  0
  161.3530  205.3510  148.6270 C   0  0  0  0  0  0  0  0  0  0  0  0
  161.1910  207.2420  152.5770 C   0  0  0  0  0  1  0  0  0  0  0  0
  161.9270  210.5640  151.1750 C   0  0  0  0  0  3  0  0  0  0  0  0
  161.4590  210.1080  153.5440 O   0  0  0  0  0  1  0  0  0  0  0  0
  161.5100  208.4360  151.7400 C   0  0  0  0  0  0  0  0  0  0  0  0
  161.9870  209.7230  150.0680 C   0  0  0  0  0  0  0  0  0  0  0  0
  161.6230  209.7190  152.2210 C   0  0  0  0  0  0  0  0  0  0  0  0
  161.7350  208.4350  150.4070 N   0  0  0  0  0  0  0  0  0  0  0  0
  162.2730  212.4130  147.8580 C   0  0  0  0  0  0  0  0  0  0  0  0
  162.2910  210.1890  148.6740 C   0  0  1  0  0  3  0  0  0  0  0  0
  160.9970  210.4200  147.8750 C   0  0  0  0  0  2  0  0  0  0  0  0
  161.1220  211.8170  147.4100 C   0  0  0  0  0  0  0  0  0  0  0  0
  160.4950  213.8410  146.2720 C   0  0  0  0  0  3  0  0  0  0  0  0
  161.6750  214.4530  146.7330 C   0  0  0  0  0  3  0  0  0  0  0  0
  163.0860  211.5040  148.6910 C   0  0  0  0  0  2  0  0  0  0  0  0
  162.5750  213.7360  147.5360 C   0  0  0  0  0  3  0  0  0  0  0  0
  160.2110  212.5100  146.6120 C   0  0  0  0  0  3  0  0  0  0  0  0
  160.9930  202.1780  146.5630 C   0  0  0  0  0  0  0  0  0  0  0  0
  160.4200  202.1990  145.4410 O   0  0  0  0  0  0  0  0  0  0  0  0
  161.0020  200.9680  147.3200 N   0  0  0  0  0  2  0  0  0  0  0  0
  161.6390  200.8670  148.6250 C   0  0  0  0  0  2  0  0  0  0  0  0
  159.2490  201.3010  149.1610 C   0  0  0  0  0  1  0  0  0  0  0  0
  160.9700  201.7010  150.7470 O   0  0  0  0  0  1  0  0  0  0  0  0
  160.5850  200.8450  149.7160 C   0  0  2  0  0  3  0  0  0  0  0  0
  2  4  1  0  0  0  0
  2  9  2  0  0  0  0
  3  2  1  0  0  0  0
  4  7  1  0  0  0  0
  5  3  1  0  0  0  0
  5  8  1  0  0  0  0
  6  9  1  0  0  0  0
  7  1  2  0  0  0  0
  7 16  1  0  0  0  0
  8 26  1  6  0  0  0
  8  6  1  0  0  0  0
  9  1  1  0  0  0  0
 11 15  1  0  0  0  0
 13 15  2  0  0  0  0
 13 10  1  0  0  0  0
 14 16  1  0  0  0  0
 14 11  2  0  0  0  0
 15 12  1  0  0  0  0
 16 13  1  0  0  0  0
 17 23  1  0  0  0  0
 18 23  1  0  0  0  0
 18 14  1  1  0  0  0
 19 18  1  0  0  0  0
 20 17  2  0  0  0  0
 20 19  1  0  0  0  0
 21 25  2  0  0  0  0
 21 22  1  0  0  0  0
 22 24  2  0  0  0  0
 24 17  1  0  0  0  0
 25 20  1  0  0  0  0
 26 28  1  0  0  0  0
 27 26  2  0  0  0  0
 28 29  1  0  0  0  0
 29 32  1  0  0  0  0
 32 30  1  6  0  0  0
 32 31  1  0  0  0  0
M  END
>  <MODEL>
6

>  <REMARK>
 VINA RESULT:      -6.7      4.038      5.752
  Name = 
  5 active torsions:
  status: ('A' for Active; 'I' for Inactive)
    1  A    between atoms: C_3  and  C_25
    2  A    between atoms: C_6  and  C_19
    3  A    between atoms: C_14  and  N_18
    4  A    between atoms: C_14  and  C_30
    5  A    between atoms: C_16  and  N_31
                            x       y       z     vdW  Elec       q    Type
                         _______ _______ _______ _____ _____    ______ ____

>  <TORSDO>
F 5

$$$$
=
 OpenBabel11042421143D

 32 36  0  0  1  0  0  0  0  0999 V2000
  160.8060  210.6680  151.9260 C   0  0  0  0  0  3  0  0  0  0  0  0
  161.8470  210.0370  150.0670 C   0  0  0  0  0  0  0  0  0  0  0  0
  162.4200  210.0950  148.6850 C   0  0  0  0  0  2  0  0  0  0  0  0
  161.8280  208.9910  150.8500 O   0  0  0  0  0  0  0  0  0  0  0  0
  162.6390  211.5530  148.2590 C   0  0  0  0  0  2  0  0  0  0  0  0
  161.1280  212.4640  150.0950 C   0  0  0  0  0  2  0  0  0  0  0  0
  161.2160  209.3370  151.9660 C   0  0  0  0  0  0  0  0  0  0  0  0
  161.4100  212.4200  148.5840 C   0  0  1  0  0  3  0  0  0  0  0  0
  161.2120  211.0880  150.6760 C   0  0  0  0  0  0  0  0  0  0  0  0
  160.0550  210.0660  154.7570 C   0  0  0  0  0  1  0  0  0  0  0  0
  160.9790  206.5310  154.3140 C   0  0  0  0  0  3  0  0  0  0  0  0
  160.0330  207.4920  156.3680 O   0  0  0  0  0  1  0  0  0  0  0  0
  160.5140  208.7230  154.2930 C   0  0  0  0  0  0  0  0  0  0  0  0
  161.2950  207.1060  153.0870 C   0  0  0  0  0  0  0  0  0  0  0  0
  160.4850  207.5820  155.0580 C   0  0  0  0  0  0  0  0  0  0  0  0
  161.0150  208.4330  153.0720 N   0  0  0  0  0  0  0  0  0  0  0  0
  160.8590  204.6120  150.6810 C   0  0  0  0  0  0  0  0  0  0  0  0
  161.8770  206.3500  151.9280 C   0  0  1  0  0  3  0  0  0  0  0  0
  162.4560  205.0000  152.3840 C   0  0  0  0  0  2  0  0  0  0  0  0
  161.7640  204.0180  151.5240 C   0  0  0  0  0  0  0  0  0  0  0  0
  161.2010  201.8560  150.6340 C   0  0  0  0  0  3  0  0  0  0  0  0
  160.2720  202.4640  149.7710 C   0  0  0  0  0  3  0  0  0  0  0  0
  160.8110  206.0780  150.8550 C   0  0  0  0  0  2  0  0  0  0  0  0
  160.0950  203.8560  149.7920 C   0  0  0  0  0  3  0  0  0  0  0  0
  161.9560  202.6360  151.5230 C   0  0  0  0  0  3  0  0  0  0  0  0
  161.5790  213.8060  148.0430 C   0  0  0  0  0  0  0  0  0  0  0  0
  162.6390  214.4460  148.2760 O   0  0  0  0  0  0  0  0  0  0  0  0
  160.5500  214.4190  147.2670 N   0  0  0  0  0  2  0  0  0  0  0  0
  159.2970  213.7450  146.9600 C   0  0  0  0  0  2  0  0  0  0  0  0
  159.9740  213.9600  144.5760 C   0  0  0  0  0  1  0  0  0  0  0  0
  158.1420  212.5990  145.2290 O   0  0  0  0  0  1  0  0  0  0  0  0
  159.4070  213.0270  145.6280 C   0  0  2  0  0  3  0  0  0  0  0  0
  1  7  2  0  0  0  0
  2  9  2  0  0  0  0
  2  4  1  0  0  0  0
  3  2  1  0  0  0  0
  4  7  1  0  0  0  0
  5  8  1  0  0  0  0
  5  3  1  0  0  0  0
  6  9  1  0  0  0  0
  7 16  1  0  0  0  0
  8 26  1  1  0  0  0
  8  6  1  0  0  0  0
  9  1  1  0  0  0  0
 11 15  1  0  0  0  0
 13 10  1  0  0  0  0
 13 15  2  0  0  0  0
 14 11  2  0  0  0  0
 15 12  1  0  0  0  0
 16 14  1  0  0  0  0
 16 13  1  0  0  0  0
 17 23  1  0  0  0  0
 17 20  1  0  0  0  0
 18 19  1  0  0  0  0
 18 14  1  1  0  0  0
 20 19  1  0  0  0  0
 21 25  1  0  0  0  0
 22 24  1  0  0  0  0
 22 21  2  0  0  0  0
 23 18  1  0  0  0  0
 24 17  2  0  0  0  0
 25 20  2  0  0  0  0
 26 27  2  0  0  0  0
 28 26  1  0  0  0  0
 29 28  1  0  0  0  0
 31 32  1  0  0  0  0
 32 30  1  6  0  0  0
 32 29  1  0  0  0  0
M  END
>  <MODEL>
7

>  <REMARK>
 VINA RESULT:      -6.3      4.080      8.234
  Name = 
  5 active torsions:
  status: ('A' for Active; 'I' for Inactive)
    1  A    between atoms: C_3  and  C_25
    2  A    between atoms: C_6  and  C_19
    3  A    between atoms: C_14  and  N_18
    4  A    between atoms: C_14  and  C_30
    5  A    between atoms: C_16  and  N_31
                            x       y       z     vdW  Elec       q    Type
                         _______ _______ _______ _____ _____    ______ ____

>  <TORSDO>
F 5

$$$$
=
 OpenBabel11042421143D

 32 36  0  0  1  0  0  0  0  0999 V2000
  161.0830  206.6200  149.4660 C   0  0  0  0  0  3  0  0  0  0  0  0
  161.2310  205.4650  151.3590 C   0  0  0  0  0  0  0  0  0  0  0  0
  161.2060  204.3080  152.3080 C   0  0  0  0  0  2  0  0  0  0  0  0
  161.4320  206.7180  151.6760 O   0  0  0  0  0  0  0  0  0  0  0  0
  161.3680  202.9870  151.5420 C   0  0  0  0  0  2  0  0  0  0  0  0
  160.8080  204.0550  149.3010 C   0  0  0  0  0  2  0  0  0  0  0  0
  161.3520  207.4290  150.5690 C   0  0  0  0  0  0  0  0  0  0  0  0
  160.4560  202.9450  150.3050 C   0  0  1  0  0  3  0  0  0  0  0  0
  160.9920  205.3570  150.0140 C   0  0  0  0  0  0  0  0  0  0  0  0
  162.3380  209.1050  148.1430 C   0  0  0  0  0  1  0  0  0  0  0  0
  161.5650  211.0380  151.1780 C   0  0  0  0  0  3  0  0  0  0  0  0
  162.3680  211.9990  149.0630 O   0  0  0  0  0  1  0  0  0  0  0  0
  161.9550  209.6120  149.4930 C   0  0  0  0  0  0  0  0  0  0  0  0
  161.2930  209.7250  151.5500 C   0  0  0  0  0  0  0  0  0  0  0  0
  161.9830  210.9340  149.8670 C   0  0  0  0  0  0  0  0  0  0  0  0
  161.5280  208.8600  150.5320 N   0  0  0  0  0  0  0  0  0  0  0  0
  160.1730  210.7410  154.6990 C   0  0  0  0  0  0  0  0  0  0  0  0
  160.8040  209.3210  152.9100 C   0  0  1  0  0  3  0  0  0  0  0  0
  161.9430  209.3630  153.9420 C   0  0  0  0  0  2  0  0  0  0  0  0
  161.4190  210.2510  155.0000 C   0  0  0  0  0  0  0  0  0  0  0  0
  161.4120  211.4630  157.0780 C   0  0  0  0  0  3  0  0  0  0  0  0
  160.1350  211.9660  156.7680 C   0  0  0  0  0  3  0  0  0  0  0  0
  159.6820  210.2540  153.3930 C   0  0  0  0  0  2  0  0  0  0  0  0
  159.5060  211.6050  155.5660 C   0  0  0  0  0  3  0  0  0  0  0  0
  162.0650  210.5970  156.1880 C   0  0  0  0  0  3  0  0  0  0  0  0
  160.5210  201.6030  149.6430 C   0  0  0  0  0  0  0  0  0  0  0  0
  160.1400  200.5760  150.2670 O   0  0  0  0  0  0  0  0  0  0  0  0
  161.0140  201.4670  148.3100 N   0  0  0  0  0  2  0  0  0  0  0  0
  161.4750  202.6050  147.5290 C   0  0  0  0  0  2  0  0  0  0  0  0
  160.5620  201.2020  145.6890 C   0  0  0  0  0  1  0  0  0  0  0  0
  161.5810  203.3020  145.2600 O   0  0  0  0  0  1  0  0  0  0  0  0
  160.7840  202.6200  146.1780 C   0  0  2  0  0  3  0  0  0  0  0  0
  1  9  1  0  0  0  0
  1  7  2  0  0  0  0
  2  4  1  0  0  0  0
  2  3  1  0  0  0  0
  5  3  1  0  0  0  0
  6  9  1  0  0  0  0
  6  8  1  0  0  0  0
  7  4  1  0  0  0  0
  8 26  1  6  0  0  0
  8  5  1  0  0  0  0
  9  2  2  0  0  0  0
 10 13  1  0  0  0  0
 11 14  2  0  0  0  0
 12 15  1  0  0  0  0
 13 15  2  0  0  0  0
 13 16  1  0  0  0  0
 15 11  1  0  0  0  0
 16  7  1  0  0  0  0
 16 14  1  0  0  0  0
 17 20  2  0  0  0  0
 17 24  1  0  0  0  0
 18 14  1  6  0  0  0
 18 23  1  0  0  0  0
 18 19  1  0  0  0  0
 19 20  1  0  0  0  0
 20 25  1  0  0  0  0
 22 21  1  0  0  0  0
 23 17  1  0  0  0  0
 24 22  2  0  0  0  0
 25 21  2  0  0  0  0
 26 27  2  0  0  0  0
 28 26  1  0  0  0  0
 29 28  1  0  0  0  0
 31 32  1  0  0  0  0
 32 30  1  6  0  0  0
 32 29  1  0  0  0  0
M  END
>  <MODEL>
8

>  <REMARK>
 VINA RESULT:      -6.3      2.968      4.837
  Name = 
  5 active torsions:
  status: ('A' for Active; 'I' for Inactive)
    1  A    between atoms: C_3  and  C_25
    2  A    between atoms: C_6  and  C_19
    3  A    between atoms: C_14  and  N_18
    4  A    between atoms: C_14  and  C_30
    5  A    between atoms: C_16  and  N_31
                            x       y       z     vdW  Elec       q    Type
                         _______ _______ _______ _____ _____    ______ ____

>  <TORSDO>
F 5

$$$$
=
 OpenBabel11042421143D

 32 36  0  0  1  0  0  0  0  0999 V2000
  161.1670  207.7740  151.0830 C   0  0  0  0  0  3  0  0  0  0  0  0
  161.0040  205.8540  152.1900 C   0  0  0  0  0  0  0  0  0  0  0  0
  160.8940  204.3850  152.4520 C   0  0  0  0  0  2  0  0  0  0  0  0
  160.9820  206.8010  153.0910 O   0  0  0  0  0  0  0  0  0  0  0  0
  161.3780  203.5880  151.2320 C   0  0  0  0  0  2  0  0  0  0  0  0
  161.2330  205.6020  149.6820 C   0  0  0  0  0  2  0  0  0  0  0  0
  161.0800  207.9550  152.4620 C   0  0  0  0  0  0  0  0  0  0  0  0
  160.7880  204.1510  149.9280 C   0  0  1  0  0  3  0  0  0  0  0  0
  161.0970  206.4040  150.9380 C   0  0  0  0  0  0  0  0  0  0  0  0
  161.6240  208.4300  155.4870 C   0  0  0  0  0  1  0  0  0  0  0  0
  160.9670  211.4660  153.5120 C   0  0  0  0  0  3  0  0  0  0  0  0
  161.4380  211.4290  155.9240 O   0  0  0  0  0  1  0  0  0  0  0  0
  161.3280  209.4630  154.4500 C   0  0  0  0  0  0  0  0  0  0  0  0
  160.8780  210.4420  152.5750 C   0  0  0  0  0  0  0  0  0  0  0  0
  161.2540  210.8130  154.6930 C   0  0  0  0  0  0  0  0  0  0  0  0
  161.0950  209.2290  153.1400 N   0  0  0  0  0  0  0  0  0  0  0  0
  161.9270  211.7470  149.5090 C   0  0  0  0  0  0  0  0  0  0  0  0
  160.5740  210.6570  151.1210 C   0  0  1  0  0  3  0  0  0  0  0  0
  160.0220  212.0710  150.8750 C   0  0  0  0  0  2  0  0  0  0  0  0
  160.9280  212.6250  149.8480 C   0  0  0  0  0  0  0  0  0  0  0  0
  161.8000  214.2430  148.2980 C   0  0  0  0  0  3  0  0  0  0  0  0
  162.8250  213.3440  147.9510 C   0  0  0  0  0  3  0  0  0  0  0  0
  161.8350  210.4780  150.2600 C   0  0  0  0  0  2  0  0  0  0  0  0
  162.8940  212.0820  148.5610 C   0  0  0  0  0  3  0  0  0  0  0  0
  160.8410  213.8850  149.2570 C   0  0  0  0  0  3  0  0  0  0  0  0
  161.1560  203.2870  148.7620 C   0  0  0  0  0  0  0  0  0  0  0  0
  161.2450  202.0390  148.9080 O   0  0  0  0  0  0  0  0  0  0  0  0
  161.4150  203.8600  147.4800 N   0  0  0  0  0  2  0  0  0  0  0  0
  161.3370  205.2920  147.2340 C   0  0  0  0  0  2  0  0  0  0  0  0
  161.3360  205.4290  144.7510 C   0  0  0  0  0  1  0  0  0  0  0  0
  163.2950  204.8550  145.9620 O   0  0  0  0  0  1  0  0  0  0  0  0
  162.1540  205.6530  146.0080 C   0  0  2  0  0  3  0  0  0  0  0  0
  1  7  2  0  0  0  0
  2  3  1  0  0  0  0
  2  4  1  0  0  0  0
  5  3  1  0  0  0  0
  6  8  1  0  0  0  0
  6  9  1  0  0  0  0
  7  4  1  0  0  0  0
  7 16  1  0  0  0  0
  8 26  1  6  0  0  0
  8  5  1  0  0  0  0
  9  1  1  0  0  0  0
  9  2  2  0  0  0  0
 11 15  1  0  0  0  0
 13 15  2  0  0  0  0
 13 10  1  0  0  0  0
 14 16  1  0  0  0  0
 14 11  2  0  0  0  0
 15 12  1  0  0  0  0
 16 13  1  0  0  0  0
 17 20  1  0  0  0  0
 17 23  1  0  0  0  0
 18 14  1  1  0  0  0
 19 18  1  0  0  0  0
 20 19  1  0  0  0  0
 21 25  1  0  0  0  0
 22 21  2  0  0  0  0
 22 24  1  0  0  0  0
 23 18  1  0  0  0  0
 24 17  2  0  0  0  0
 25 20  2  0  0  0  0
 26 27  2  0  0  0  0
 28 26  1  0  0  0  0
 29 28  1  0  0  0  0
 31 32  1  0  0  0  0
 32 30  1  6  0  0  0
 32 29  1  0  0  0  0
M  END
>  <MODEL>
9

>  <REMARK>
 VINA RESULT:      -6.0      2.816      4.320
  Name = 
  5 active torsions:
  status: ('A' for Active; 'I' for Inactive)
    1  A    between atoms: C_3  and  C_25
    2  A    between atoms: C_6  and  C_19
    3  A    between atoms: C_14  and  N_18
    4  A    between atoms: C_14  and  C_30
    5  A    between atoms: C_16  and  N_31
                            x       y       z     vdW  Elec       q    Type
                         _______ _______ _______ _____ _____    ______ ____

>  <TORSDO>
F 5

$$$$
