=
 OpenBabel11052411303D

 59 65  0  0  1  0  0  0  0  0999 V2000
  159.9870  212.5670  151.3140 C   0  0  2  0  0  3  0  0  0  0  0  0
  162.4960  203.9460  152.2090 N   0  0  0  0  0  0  0  0  0  0  0  0
  160.8920  211.6830  155.9750 C   0  0  0  0  0  2  0  0  0  0  0  0
  162.2990  207.8250  148.5140 C   0  0  0  0  0  2  0  0  0  0  0  0
  161.8070  212.3120  149.5950 C   0  0  0  0  0  2  0  0  0  0  0  0
  161.0950  210.4470  155.1270 C   0  0  2  0  0  3  0  0  0  0  0  0
  162.6280  210.9700  147.0440 O   0  0  0  0  0  1  0  0  0  0  0  0
  161.9060  207.7850  149.9560 C   0  0  0  0  0  3  0  0  0  0  0  0
  159.9720  212.5440  155.5770 C   0  0  1  0  0  3  0  0  0  0  0  0
  162.1710  204.6960  150.9650 C   0  0  2  0  0  3  0  0  0  0  0  0
  160.7410  212.6430  152.5540 N   0  0  0  0  0  2  0  0  0  0  0  0
  162.1900  210.2960  148.1820 C   0  0  2  0  0  3  0  0  0  0  0  0
  159.1070  212.5620  154.4430 C   0  0  1  0  0  0  0  0  0  0  0  0
  160.7750  213.2630  150.2040 C   0  0  1  0  0  3  0  0  0  0  0  0
  160.8360  207.1310  150.4240 C   0  0  0  0  0  0  0  0  0  0  0  0
  160.0240  206.2630  149.5430 C   0  0  0  0  0  0  0  0  0  0  0  0
  162.0660  202.5590  152.1390 C   0  0  0  0  0  1  0  0  0  0  0  0
  158.5130  213.4860  151.8700 S   0  0  0  0  0  0  0  0  0  0  0  0
  160.5410  207.1330  151.9050 C   0  0  1  0  0  3  0  0  0  0  0  0
  159.6900  213.3680  153.2530 C   0  0  2  0  0  3  0  0  0  0  0  0
  161.2850  204.7770  152.1180 C   0  0  2  0  0  3  0  0  0  0  0  0
  159.0040  206.7600  148.9970 O   0  0  0  0  0  0  0  0  0  0  0  0
  158.7560  211.0930  154.1270 C   0  0  0  0  0  2  0  0  0  0  0  0
  158.0710  213.3150  155.0750 N   0  0  0  0  0  2  0  0  0  0  0  0
  161.5960  208.9610  147.7890 C   0  0  0  0  0  2  0  0  0  0  0  0
  159.0350  213.5570  156.1560 C   0  0  0  0  0  0  0  0  0  0  0  0
  162.4000  210.4210  154.6380 O   0  0  0  0  0  1  0  0  0  0  0  0
  161.4630  206.1790  152.6660 C   0  0  0  0  0  2  0  0  0  0  0  0
  161.1490  211.1270  148.9000 C   0  0  0  0  0  2  0  0  0  0  0  0
  160.3170  204.8700  149.3030 N   0  0  0  0  0  2  0  0  0  0  0  0
  159.0310  214.2530  157.2100 O   0  0  0  0  0  0  0  0  0  0  0  0
  160.0820  210.3090  153.9550 C   0  0  2  0  0  3  0  0  0  0  0  0
  160.6310  208.5170  152.4630 C   0  0  0  0  0  3  0  0  0  0  0  0
  161.3740  204.0110  149.8640 C   0  0  1  0  0  3  0  0  0  0  0  0
  159.9050  208.9030  153.4990 C   0  0  0  0  0  3  0  0  0  0  0  0
  159.9200  213.8100  149.1630 N   0  0  0  0  0  2  0  0  0  0  0  0
  160.4570  214.2420  147.9170 C   0  0  0  0  0  0  0  0  0  0  0  0
  161.6930  214.4530  147.7890 O   0  0  0  0  0  0  0  0  0  0  0  0
  159.5640  214.3980  146.7440 C   0  0  0  0  0  2  0  0  0  0  0  0
  160.3400  214.4520  145.5150 N   0  0  0  0  0  2  0  0  0  0  0  0
  158.7770  213.1920  144.3210 O   0  0  0  0  0  0  0  0  0  0  0  0
  159.8760  213.8190  144.3220 C   0  0  0  0  0  0  0  0  0  0  0  0
  160.9740  212.1630  140.3520 C   0  0  0  0  0  2  0  0  0  0  0  0
  162.0420  212.6360  141.3530 C   0  0  0  0  0  2  0  0  0  0  0  0
  162.7520  212.7790  143.7250 C   0  0  0  0  0  1  0  0  0  0  0  0
  160.6450  213.9420  143.0390 C   0  0  1  0  0  3  0  0  0  0  0  0
  159.5960  211.9310  140.9780 C   0  0  0  0  0  2  0  0  0  0  0  0
  161.5540  212.7270  142.7980 C   0  0  1  0  0  3  0  0  0  0  0  0
  158.8640  213.2310  141.3000 C   0  0  0  0  0  2  0  0  0  0  0  0
  159.7590  214.3490  141.8520 C   0  0  0  0  0  2  0  0  0  0  0  0
  162.1750  203.9900  147.5390 C   0  0  0  0  0  3  0  0  0  0  0  0
  162.3040  203.5560  148.7890 C   0  0  0  0  0  3  0  0  0  0  0  0
  163.0620  203.4940  146.4450 C   0  0  0  0  0  2  0  0  0  0  0  0
  162.6350  204.0540  145.1000 C   0  0  0  0  0  2  0  0  0  0  0  0
  161.1260  204.0120  145.0070 C   0  0  0  0  0  2  0  0  0  0  0  0
  159.7360  200.4130  144.5630 C   0  0  0  0  0  1  0  0  0  0  0  0
  160.6770  202.7500  144.4500 N   0  0  0  0  0  2  0  0  0  0  0  0
  160.0900  201.7570  146.4850 O   0  0  0  0  0  0  0  0  0  0  0  0
  160.1790  201.6680  145.2330 C   0  0  0  0  0  0  0  0  0  0  0  0
  1 18  1  1  0  0  0
  1 11  1  0  0  0  0
  4  8  1  0  0  0  0
  5 14  1  0  0  0  0
  6 27  1  6  0  0  0
  6  3  1  0  0  0  0
  8 15  2  0  0  0  0
  9  3  1  1  0  0  0
  9 26  1  0  0  0  0
 10 21  1  0  0  0  0
 10  2  1  1  0  0  0
 11 20  1  0  0  0  0
 12  7  1  6  0  0  0
 12 29  1  0  0  0  0
 13 23  1  6  0  0  0
 13 24  1  0  0  0  0
 13  9  1  0  0  0  0
 14 36  1  6  0  0  0
 14  1  1  0  0  0  0
 15 19  1  0  0  0  0
 16 15  1  0  0  0  0
 17  2  1  0  0  0  0
 19 33  1  1  0  0  0
 19 28  1  0  0  0  0
 20 18  1  6  0  0  0
 20 13  1  0  0  0  0
 21  2  1  0  0  0  0
 21 28  1  1  0  0  0
 22 16  2  0  0  0  0
 24 26  1  0  0  0  0
 25 12  1  0  0  0  0
 25  4  1  0  0  0  0
 26 31  2  0  0  0  0
 29  5  1  0  0  0  0
 30 16  1  0  0  0  0
 30 34  1  0  0  0  0
 32 35  1  1  0  0  0
 32 23  1  0  0  0  0
 32  6  1  0  0  0  0
 33 35  2  0  0  0  0
 34 52  1  6  0  0  0
 34 10  1  0  0  0  0
 37 36  1  0  0  0  0
 38 37  2  0  0  0  0
 39 37  1  0  0  0  0
 40 39  1  0  0  0  0
 41 42  2  0  0  0  0
 42 40  1  0  0  0  0
 43 47  1  0  0  0  0
 43 44  1  0  0  0  0
 44 48  1  0  0  0  0
 46 42  1  1  0  0  0
 47 49  1  0  0  0  0
 48 46  1  0  0  0  0
 48 45  1  1  0  0  0
 49 50  1  0  0  0  0
 50 46  1  0  0  0  0
 51 52  2  0  0  0  0
 53 51  1  0  0  0  0
 54 53  1  0  0  0  0
 55 54  1  0  0  0  0
 56 59  1  0  0  0  0
 57 55  1  0  0  0  0
 57 59  1  0  0  0  0
 59 58  2  0  0  0  0
M  END
>  <MODEL>
1

>  <REMARK>
 VINA RESULT:       1.8      0.000      0.000
  Name = 
  9 active torsions:
  status: ('A' for Active; 'I' for Inactive)
    1  A    between atoms: C_1  and  C_13
    2  A    between atoms: C_1  and  C_16
    3  A    between atoms: C_8  and  C_43
    4  A    between atoms: N_11  and  C_27
    5  A    between atoms: C_14  and  C_23
    6  A    between atoms: C_16  and  C_54
    7  A    between atoms: N_18  and  C_23
    8  A    between atoms: N_26  and  C_54
    9  A    between atoms: C_55  and  C_57
                            x       y       z     vdW  Elec       q    Type
                         _______ _______ _______ _____ _____    ______ ____

>  <TORSDO>
F 9

$$$$
=
 OpenBabel11052411303D

 59 65  0  0  1  0  0  0  0  0999 V2000
  160.5880  211.7660  151.3990 C   0  0  2  0  0  3  0  0  0  0  0  0
  161.9030  202.9020  152.4560 N   0  0  0  0  0  0  0  0  0  0  0  0
  161.3650  210.8520  156.0780 C   0  0  0  0  0  2  0  0  0  0  0  0
  162.2350  206.7030  148.6910 C   0  0  0  0  0  2  0  0  0  0  0  0
  162.3560  211.2350  149.6890 C   0  0  0  0  0  2  0  0  0  0  0  0
  161.3980  209.5850  155.2530 C   0  0  2  0  0  3  0  0  0  0  0  0
  162.9880  209.7470  147.1660 O   0  0  0  0  0  1  0  0  0  0  0  0
  161.8400  206.7430  150.1330 C   0  0  0  0  0  3  0  0  0  0  0  0
  160.5700  211.8230  155.6620 C   0  0  1  0  0  3  0  0  0  0  0  0
  161.6840  203.6660  151.1980 C   0  0  2  0  0  3  0  0  0  0  0  0
  161.3450  211.7620  152.6390 N   0  0  0  0  0  2  0  0  0  0  0  0
  162.4620  209.1600  148.3140 C   0  0  2  0  0  3  0  0  0  0  0  0
  159.7150  211.9370  154.5250 C   0  0  1  0  0  0  0  0  0  0  0  0
  161.4630  212.3270  150.2790 C   0  0  1  0  0  3  0  0  0  0  0  0
  160.6920  206.2490  150.6100 C   0  0  0  0  0  0  0  0  0  0  0  0
  159.7690  205.4830  149.7430 C   0  0  0  0  0  0  0  0  0  0  0  0
  161.2890  201.5840  152.4100 C   0  0  0  0  0  1  0  0  0  0  0  0
  159.2520  212.8860  151.9350 S   0  0  0  0  0  0  0  0  0  0  0  0
  160.3990  206.3180  152.0890 C   0  0  1  0  0  3  0  0  0  0  0  0
  160.4020  212.6350  153.3230 C   0  0  2  0  0  3  0  0  0  0  0  0
  160.8170  203.8870  152.3470 C   0  0  2  0  0  3  0  0  0  0  0  0
  158.8260  206.1040  149.1850 O   0  0  0  0  0  0  0  0  0  0  0  0
  159.1690  210.5240  154.2350 C   0  0  0  0  0  2  0  0  0  0  0  0
  158.7920  212.8350  155.1410 N   0  0  0  0  0  2  0  0  0  0  0  0
  161.6930  207.9100  147.9430 C   0  0  0  0  0  2  0  0  0  0  0  0
  159.7790  212.9640  156.2200 C   0  0  0  0  0  0  0  0  0  0  0  0
  162.6870  209.3720  154.7670 O   0  0  0  0  0  1  0  0  0  0  0  0
  161.1830  205.2620  152.8700 C   0  0  0  0  0  2  0  0  0  0  0  0
  161.5440  210.1380  149.0150 C   0  0  0  0  0  2  0  0  0  0  0  0
  159.8700  204.0600  149.5290 N   0  0  0  0  0  2  0  0  0  0  0  0
  159.8690  213.6730  157.2610 O   0  0  0  0  0  0  0  0  0  0  0  0
  160.3750  209.5640  154.0800 C   0  0  2  0  0  3  0  0  0  0  0  0
  160.6770  207.6870  152.6230 C   0  0  0  0  0  3  0  0  0  0  0  0
  160.8000  203.0750  150.1080 C   0  0  1  0  0  3  0  0  0  0  0  0
  160.0090  208.1870  153.6490 C   0  0  0  0  0  3  0  0  0  0  0  0
  160.6910  212.9670  149.2260 N   0  0  0  0  0  2  0  0  0  0  0  0
  161.3110  213.8120  148.2630 C   0  0  0  0  0  0  0  0  0  0  0  0
  162.4650  214.2770  148.4650 O   0  0  0  0  0  0  0  0  0  0  0  0
  160.6180  214.1100  146.9880 C   0  0  0  0  0  2  0  0  0  0  0  0
  161.1530  213.2910  145.9120 N   0  0  0  0  0  2  0  0  0  0  0  0
  159.7110  214.2100  144.3210 O   0  0  0  0  0  0  0  0  0  0  0  0
  160.6450  213.3980  144.5810 C   0  0  0  0  0  0  0  0  0  0  0  0
  162.6120  213.2920  140.6030 C   0  0  0  0  0  2  0  0  0  0  0  0
  161.3890  212.4140  140.9220 C   0  0  0  0  0  2  0  0  0  0  0  0
  159.2010  212.2360  142.0760 C   0  0  0  0  0  1  0  0  0  0  0  0
  161.2530  212.6040  143.4610 C   0  0  1  0  0  3  0  0  0  0  0  0
  162.8180  214.4510  141.5810 C   0  0  0  0  0  2  0  0  0  0  0  0
  160.5660  212.8930  142.1170 C   0  0  1  0  0  3  0  0  0  0  0  0
  163.3690  213.9970  142.9310 C   0  0  0  0  0  2  0  0  0  0  0  0
  162.7870  212.6750  143.4470 C   0  0  0  0  0  2  0  0  0  0  0  0
  161.2140  201.4920  148.2720 C   0  0  0  0  0  3  0  0  0  0  0  0
  161.6610  202.4780  149.0430 C   0  0  0  0  0  3  0  0  0  0  0  0
  162.0870  200.8480  147.2460 C   0  0  0  0  0  2  0  0  0  0  0  0
  161.5080  201.0170  145.8530 C   0  0  0  0  0  2  0  0  0  0  0  0
  160.2510  201.8510  145.9410 C   0  0  0  0  0  2  0  0  0  0  0  0
  161.2930  205.1650  144.2050 C   0  0  0  0  0  1  0  0  0  0  0  0
  160.3260  202.9960  145.0530 N   0  0  0  0  0  2  0  0  0  0  0  0
  162.1720  204.0040  146.0770 O   0  0  0  0  0  0  0  0  0  0  0  0
  161.2970  204.0330  145.1730 C   0  0  0  0  0  0  0  0  0  0  0  0
  1 18  1  1  0  0  0
  1 11  1  0  0  0  0
  4  8  1  0  0  0  0
  5 14  1  0  0  0  0
  6 27  1  6  0  0  0
  6  3  1  0  0  0  0
  8 15  2  0  0  0  0
  9  3  1  1  0  0  0
  9 26  1  0  0  0  0
 10 21  1  0  0  0  0
 10  2  1  1  0  0  0
 11 20  1  0  0  0  0
 12  7  1  6  0  0  0
 12 29  1  0  0  0  0
 13 23  1  6  0  0  0
 13 24  1  0  0  0  0
 13  9  1  0  0  0  0
 14 36  1  6  0  0  0
 14  1  1  0  0  0  0
 15 19  1  0  0  0  0
 16 15  1  0  0  0  0
 17  2  1  0  0  0  0
 19 33  1  1  0  0  0
 19 28  1  0  0  0  0
 20 18  1  6  0  0  0
 20 13  1  0  0  0  0
 21  2  1  0  0  0  0
 21 28  1  1  0  0  0
 22 16  2  0  0  0  0
 24 26  1  0  0  0  0
 25 12  1  0  0  0  0
 25  4  1  0  0  0  0
 26 31  2  0  0  0  0
 29  5  1  0  0  0  0
 30 16  1  0  0  0  0
 30 34  1  0  0  0  0
 32 35  1  1  0  0  0
 32 23  1  0  0  0  0
 32  6  1  0  0  0  0
 33 35  2  0  0  0  0
 34 52  1  6  0  0  0
 34 10  1  0  0  0  0
 37 38  2  0  0  0  0
 37 36  1  0  0  0  0
 39 37  1  0  0  0  0
 40 39  1  0  0  0  0
 41 42  2  0  0  0  0
 42 40  1  0  0  0  0
 43 44  1  0  0  0  0
 43 47  1  0  0  0  0
 44 48  1  0  0  0  0
 46 42  1  1  0  0  0
 47 49  1  0  0  0  0
 48 45  1  1  0  0  0
 48 46  1  0  0  0  0
 49 50  1  0  0  0  0
 50 46  1  0  0  0  0
 51 52  2  0  0  0  0
 53 51  1  0  0  0  0
 54 55  1  0  0  0  0
 54 53  1  0  0  0  0
 56 59  1  0  0  0  0
 57 59  1  0  0  0  0
 57 55  1  0  0  0  0
 59 58  2  0  0  0  0
M  END
>  <MODEL>
2

>  <REMARK>
 VINA RESULT:       4.0      1.203      1.851
  Name = 
  9 active torsions:
  status: ('A' for Active; 'I' for Inactive)
    1  A    between atoms: C_1  and  C_13
    2  A    between atoms: C_1  and  C_16
    3  A    between atoms: C_8  and  C_43
    4  A    between atoms: N_11  and  C_27
    5  A    between atoms: C_14  and  C_23
    6  A    between atoms: C_16  and  C_54
    7  A    between atoms: N_18  and  C_23
    8  A    between atoms: N_26  and  C_54
    9  A    between atoms: C_55  and  C_57
                            x       y       z     vdW  Elec       q    Type
                         _______ _______ _______ _____ _____    ______ ____

>  <TORSDO>
F 9

$$$$
