=
 OpenBabel11052410443D

 35 39  0  0  1  0  0  0  0  0999 V2000
  161.2960  208.4690  151.8040 C   0  0  0  0  0  0  0  0  0  0  0  0
  161.7880  208.4580  150.4920 C   0  0  0  0  0  3  0  0  0  0  0  0
  160.9730  207.2400  152.4200 C   0  0  0  0  0  0  0  0  0  0  0  0
  161.6340  206.0790  150.4250 N   0  0  0  0  0  0  0  0  0  0  0  0
  161.1540  206.0500  151.6960 C   0  0  0  0  0  3  0  0  0  0  0  0
  161.9620  207.2490  149.8140 C   0  0  0  0  0  0  0  0  0  0  0  0
  161.6790  206.2910  147.5860 C   0  0  2  0  0  3  0  0  0  0  0  0
  161.4300  207.6730  147.5390 O   0  0  0  0  0  0  0  0  0  0  0  0
  162.4560  207.2490  148.4050 C   0  0  1  0  0  3  0  0  0  0  0  0
  162.4310  205.9180  146.4610 O   0  0  0  0  0  0  0  0  0  0  0  0
  162.1700  204.5580  146.1970 C   0  0  0  0  0  0  0  0  0  0  0  0
  162.1500  203.8190  147.3710 F   0  0  0  0  0  0  0  0  0  0  0  0
  160.9650  204.4100  145.5260 F   0  0  0  0  0  0  0  0  0  0  0  0
  163.1790  204.0660  145.3910 F   0  0  0  0  0  0  0  0  0  0  0  0
  161.1290  209.7740  152.4870 C   0  0  0  0  0  0  0  0  0  0  0  0
  162.1190  210.3670  152.9940 O   0  0  0  0  0  0  0  0  0  0  0  0
  159.8310  210.3710  152.5640 N   0  0  0  0  0  2  0  0  0  0  0  0
  157.4440  213.4910  152.6890 N   0  0  0  0  0  0  0  0  0  0  0  0
  159.7520  212.8000  152.3590 C   0  0  0  0  0  2  0  0  0  0  0  0
  158.4400  213.1700  151.6730 C   0  0  0  0  0  2  0  0  0  0  0  0
  158.1650  211.5220  153.9470 C   0  0  1  0  0  3  0  0  0  0  0  0
  159.5650  211.6000  153.2990 C   0  0  1  0  0  3  0  0  0  0  0  0
  158.2450  211.1230  155.3950 C   0  0  0  0  0  3  0  0  0  0  0  0
  155.0970  212.9950  157.0770 Cl  0  0  0  0  0  0  0  0  0  0  0  0
  156.3280  213.0990  154.7360 N   0  0  0  0  0  0  0  0  0  0  0  0
  156.3150  212.5340  155.9080 C   0  0  0  0  0  0  0  0  0  0  0  0
  157.3610  211.5650  156.2920 C   0  0  0  0  0  3  0  0  0  0  0  0
  157.3100  212.7570  153.7520 C   0  0  0  0  0  0  0  0  0  0  0  0
  160.4840  207.2080  153.7320 O   0  0  0  0  0  0  0  0  0  0  0  0
  161.3130  207.3330  154.8820 C   0  0  0  0  0  2  0  0  0  0  0  0
  160.2940  207.3430  156.3900 S   0  0  0  0  0  0  0  0  0  0  0  0
  161.3350  208.6000  157.1870 C   0  0  0  0  0  2  0  0  0  0  0  0
  162.9200  210.4020  156.6090 C   0  0  0  0  0  2  0  0  0  0  0  0
  161.6260  209.7230  156.2100 C   0  0  0  0  0  3  0  0  0  0  0  0
  161.5920  211.0440  156.9490 C   0  0  0  0  0  2  0  0  0  0  0  0
  1  3  1  0  0  0  0
  1 15  1  0  0  0  0
  2  1  2  0  0  0  0
  3 29  1  0  0  0  0
  4  5  1  0  0  0  0
  5  3  2  0  0  0  0
  6  4  2  0  0  0  0
  6  2  1  0  0  0  0
  7 10  1  6  0  0  0
  7  9  1  0  0  0  0
  8  7  1  0  0  0  0
  8  9  1  0  0  0  0
  9  6  1  1  0  0  0
 11 10  1  0  0  0  0
 11 12  1  0  0  0  0
 13 11  1  0  0  0  0
 14 11  1  0  0  0  0
 15 17  1  0  0  0  0
 15 16  2  0  0  0  0
 18 28  2  0  0  0  0
 19 22  1  0  0  0  0
 20 19  1  0  0  0  0
 20 18  1  0  0  0  0
 21 23  1  1  0  0  0
 22 17  1  6  0  0  0
 22 21  1  0  0  0  0
 23 27  2  0  0  0  0
 25 26  2  0  0  0  0
 26 27  1  0  0  0  0
 26 24  1  0  0  0  0
 28 21  1  0  0  0  0
 28 25  1  0  0  0  0
 29 30  1  0  0  0  0
 30 31  1  0  0  0  0
 31 32  1  0  0  0  0
 33 35  1  0  0  0  0
 34 33  1  0  0  0  0
 34 35  1  0  0  0  0
 34 32  1  0  0  0  0
M  END
>  <MODEL>
1

>  <REMARK>
 VINA RESULT:      -7.3      0.000      0.000
  Name = 
  10 active torsions:
  status: ('A' for Active; 'I' for Inactive)
    1  A    between atoms: C_1  and  O_34
    2  A    between atoms: C_5  and  C_15
    3  A    between atoms: C_9  and  N_31
    4  A    between atoms: O_10  and  C_11
    5  A    between atoms: O_10  and  C_30
    6  A    between atoms: C_14  and  O_34
    7  A    between atoms: S_16  and  C_17
    8  A    between atoms: S_16  and  C_30
    9  A    between atoms: C_17  and  C_22
   10  A    between atoms: C_25  and  C_35
                            x       y       z     vdW  Elec       q    Type
                         _______ _______ _______ _____ _____    ______ ____

>  <TORSDO>
F 10

$$$$
=
 OpenBabel11052410443D

 35 39  0  0  1  0  0  0  0  0999 V2000
  160.8690  210.9790  152.6860 C   0  0  0  0  0  0  0  0  0  0  0  0
  160.2390  211.9440  151.8880 C   0  0  0  0  0  3  0  0  0  0  0  0
  160.6950  211.0340  154.0870 C   0  0  0  0  0  0  0  0  0  0  0  0
  159.3040  212.9730  153.8270 N   0  0  0  0  0  0  0  0  0  0  0  0
  159.8990  212.0540  154.6320 C   0  0  0  0  0  3  0  0  0  0  0  0
  159.4470  212.9340  152.4740 C   0  0  0  0  0  0  0  0  0  0  0  0
  157.7360  213.3800  150.7900 C   0  0  2  0  0  3  0  0  0  0  0  0
  157.4450  214.1030  151.9590 O   0  0  0  0  0  0  0  0  0  0  0  0
  158.8060  213.9780  151.6200 C   0  0  1  0  0  3  0  0  0  0  0  0
  157.5000  214.1940  149.6710 O   0  0  0  0  0  0  0  0  0  0  0  0
  156.4860  213.5900  148.9010 C   0  0  0  0  0  0  0  0  0  0  0  0
  156.4080  214.1690  147.6420 F   0  0  0  0  0  0  0  0  0  0  0  0
  156.7080  212.2260  148.7800 F   0  0  0  0  0  0  0  0  0  0  0  0
  155.2770  213.7780  149.5410 F   0  0  0  0  0  0  0  0  0  0  0  0
  161.6980  209.9440  152.0230 C   0  0  0  0  0  0  0  0  0  0  0  0
  162.8200  210.2370  151.5290 O   0  0  0  0  0  0  0  0  0  0  0  0
  161.2230  208.5960  151.9520 N   0  0  0  0  0  2  0  0  0  0  0  0
  160.9090  204.8620  150.7670 N   0  0  0  0  0  0  0  0  0  0  0  0
  162.1830  206.3660  152.1910 C   0  0  0  0  0  2  0  0  0  0  0  0
  161.0410  205.3570  152.1330 C   0  0  0  0  0  2  0  0  0  0  0  0
  161.1390  207.1620  149.9660 C   0  0  1  0  0  3  0  0  0  0  0  0
  161.9300  207.5430  151.2360 C   0  0  1  0  0  3  0  0  0  0  0  0
  161.6920  207.8390  148.7430 C   0  0  0  0  0  3  0  0  0  0  0  0
  160.9570  205.2090  145.7780 Cl  0  0  0  0  0  0  0  0  0  0  0  0
  160.8420  205.1570  148.4220 N   0  0  0  0  0  0  0  0  0  0  0  0
  161.1200  205.8890  147.3830 C   0  0  0  0  0  0  0  0  0  0  0  0
  161.6450  207.2600  147.5410 C   0  0  0  0  0  3  0  0  0  0  0  0
  160.9680  205.6710  149.7530 C   0  0  0  0  0  0  0  0  0  0  0  0
  161.3040  210.0840  154.9170 O   0  0  0  0  0  0  0  0  0  0  0  0
  162.4090  210.3760  155.7650 C   0  0  0  0  0  2  0  0  0  0  0  0
  162.3400  209.3410  157.2610 S   0  0  0  0  0  0  0  0  0  0  0  0
  160.6170  208.8590  156.9500 C   0  0  0  0  0  2  0  0  0  0  0  0
  160.4610  206.9820  155.3550 C   0  0  0  0  0  2  0  0  0  0  0  0
  160.5190  207.3510  156.8230 C   0  0  0  0  0  3  0  0  0  0  0  0
  159.1940  206.9930  156.1840 C   0  0  0  0  0  2  0  0  0  0  0  0
  1  3  1  0  0  0  0
  2  6  1  0  0  0  0
  2  1  2  0  0  0  0
  3  5  2  0  0  0  0
  3 29  1  0  0  0  0
  4  5  1  0  0  0  0
  6  4  2  0  0  0  0
  7 10  1  6  0  0  0
  7  9  1  0  0  0  0
  7  8  1  0  0  0  0
  9  8  1  0  0  0  0
  9  6  1  1  0  0  0
 11 14  1  0  0  0  0
 11 10  1  0  0  0  0
 12 11  1  0  0  0  0
 13 11  1  0  0  0  0
 15  1  1  0  0  0  0
 16 15  2  0  0  0  0
 17 15  1  0  0  0  0
 18 20  1  0  0  0  0
 20 19  1  0  0  0  0
 21 23  1  6  0  0  0
 21 22  1  0  0  0  0
 22 17  1  1  0  0  0
 22 19  1  0  0  0  0
 24 26  1  0  0  0  0
 25 28  1  0  0  0  0
 26 27  1  0  0  0  0
 26 25  2  0  0  0  0
 27 23  2  0  0  0  0
 28 21  1  0  0  0  0
 28 18  2  0  0  0  0
 29 30  1  0  0  0  0
 30 31  1  0  0  0  0
 32 31  1  0  0  0  0
 33 35  1  0  0  0  0
 33 34  1  0  0  0  0
 34 32  1  0  0  0  0
 35 34  1  0  0  0  0
M  END
>  <MODEL>
2

>  <REMARK>
 VINA RESULT:      -7.1      4.568      7.852
  Name = 
  10 active torsions:
  status: ('A' for Active; 'I' for Inactive)
    1  A    between atoms: C_1  and  O_34
    2  A    between atoms: C_5  and  C_15
    3  A    between atoms: C_9  and  N_31
    4  A    between atoms: O_10  and  C_11
    5  A    between atoms: O_10  and  C_30
    6  A    between atoms: C_14  and  O_34
    7  A    between atoms: S_16  and  C_17
    8  A    between atoms: S_16  and  C_30
    9  A    between atoms: C_17  and  C_22
   10  A    between atoms: C_25  and  C_35
                            x       y       z     vdW  Elec       q    Type
                         _______ _______ _______ _____ _____    ______ ____

>  <TORSDO>
F 10

$$$$
=
 OpenBabel11052410443D

 35 39  0  0  1  0  0  0  0  0999 V2000
  161.3530  208.9150  151.5590 C   0  0  0  0  0  0  0  0  0  0  0  0
  161.0320  207.6180  151.9840 C   0  0  0  0  0  3  0  0  0  0  0  0
  161.9310  209.0890  150.2830 C   0  0  0  0  0  0  0  0  0  0  0  0
  161.8430  206.7160  149.9310 N   0  0  0  0  0  0  0  0  0  0  0  0
  162.1660  207.9580  149.4840 C   0  0  0  0  0  3  0  0  0  0  0  0
  161.2740  206.5240  151.1510 C   0  0  0  0  0  0  0  0  0  0  0  0
  161.2070  204.1580  150.5470 C   0  0  2  0  0  3  0  0  0  0  0  0
  162.1240  204.3500  151.5940 O   0  0  0  0  0  0  0  0  0  0  0  0
  160.9600  205.1430  151.6260 C   0  0  1  0  0  3  0  0  0  0  0  0
  160.4600  202.9960  150.7930 O   0  0  0  0  0  0  0  0  0  0  0  0
  160.6390  202.1250  149.7000 C   0  0  0  0  0  0  0  0  0  0  0  0
  161.4590  201.0590  150.0440 F   0  0  0  0  0  0  0  0  0  0  0  0
  159.4180  201.6520  149.2440 F   0  0  0  0  0  0  0  0  0  0  0  0
  161.2440  202.8250  148.6750 F   0  0  0  0  0  0  0  0  0  0  0  0
  161.0760  210.0490  152.4730 C   0  0  0  0  0  0  0  0  0  0  0  0
  161.7790  210.2320  153.5030 O   0  0  0  0  0  0  0  0  0  0  0  0
  160.0050  210.9510  152.1770 N   0  0  0  0  0  2  0  0  0  0  0  0
  157.1680  213.5920  152.8270 N   0  0  0  0  0  0  0  0  0  0  0  0
  159.5220  213.3390  152.2730 C   0  0  0  0  0  2  0  0  0  0  0  0
  158.1170  213.5560  151.7200 C   0  0  0  0  0  2  0  0  0  0  0  0
  158.2950  211.6470  153.7910 C   0  0  1  0  0  3  0  0  0  0  0  0
  159.6070  212.0300  153.0710 C   0  0  1  0  0  3  0  0  0  0  0  0
  158.5560  211.1120  155.1720 C   0  0  0  0  0  3  0  0  0  0  0  0
  155.2960  212.2320  157.2610 Cl  0  0  0  0  0  0  0  0  0  0  0  0
  156.2990  212.7970  154.8780 N   0  0  0  0  0  0  0  0  0  0  0  0
  156.4720  212.1130  155.9710 C   0  0  0  0  0  0  0  0  0  0  0  0
  157.6880  211.2980  156.1690 C   0  0  0  0  0  3  0  0  0  0  0  0
  157.2410  212.7340  153.8000 C   0  0  0  0  0  0  0  0  0  0  0  0
  162.2610  210.3700  149.8190 O   0  0  0  0  0  0  0  0  0  0  0  0
  161.9190  210.8470  148.5220 C   0  0  0  0  0  2  0  0  0  0  0  0
  162.8030  212.3990  148.1740 S   0  0  0  0  0  0  0  0  0  0  0  0
  161.3040  213.2120  147.5510 C   0  0  0  0  0  2  0  0  0  0  0  0
  159.8370  212.7440  145.6220 C   0  0  0  0  0  2  0  0  0  0  0  0
  160.3860  212.1850  146.9190 C   0  0  0  0  0  3  0  0  0  0  0  0
  158.9780  212.7420  146.8690 C   0  0  0  0  0  2  0  0  0  0  0  0
  1  2  1  0  0  0  0
  1 15  1  0  0  0  0
  3  1  2  0  0  0  0
  4  6  1  0  0  0  0
  5  4  2  0  0  0  0
  5  3  1  0  0  0  0
  6  2  2  0  0  0  0
  7 10  1  1  0  0  0
  7  8  1  0  0  0  0
  7  9  1  0  0  0  0
  8  9  1  0  0  0  0
  9  6  1  6  0  0  0
 11 12  1  0  0  0  0
 11 10  1  0  0  0  0
 13 11  1  0  0  0  0
 14 11  1  0  0  0  0
 15 16  2  0  0  0  0
 17 15  1  0  0  0  0
 18 28  2  0  0  0  0
 19 22  1  0  0  0  0
 20 19  1  0  0  0  0
 20 18  1  0  0  0  0
 21 28  1  0  0  0  0
 21 23  1  1  0  0  0
 22 17  1  6  0  0  0
 22 21  1  0  0  0  0
 23 27  2  0  0  0  0
 25 26  2  0  0  0  0
 26 27  1  0  0  0  0
 26 24  1  0  0  0  0
 28 25  1  0  0  0  0
 29  3  1  0  0  0  0
 30 29  1  0  0  0  0
 31 30  1  0  0  0  0
 32 31  1  0  0  0  0
 33 35  1  0  0  0  0
 33 34  1  0  0  0  0
 34 32  1  0  0  0  0
 35 34  1  0  0  0  0
M  END
>  <MODEL>
3

>  <REMARK>
 VINA RESULT:      -7.1      3.125      4.871
  Name = 
  10 active torsions:
  status: ('A' for Active; 'I' for Inactive)
    1  A    between atoms: C_1  and  O_34
    2  A    between atoms: C_5  and  C_15
    3  A    between atoms: C_9  and  N_31
    4  A    between atoms: O_10  and  C_11
    5  A    between atoms: O_10  and  C_30
    6  A    between atoms: C_14  and  O_34
    7  A    between atoms: S_16  and  C_17
    8  A    between atoms: S_16  and  C_30
    9  A    between atoms: C_17  and  C_22
   10  A    between atoms: C_25  and  C_35
                            x       y       z     vdW  Elec       q    Type
                         _______ _______ _______ _____ _____    ______ ____

>  <TORSDO>
F 10

$$$$
=
 OpenBabel11052410443D

 35 39  0  0  1  0  0  0  0  0999 V2000
  160.7700  211.1310  152.1710 C   0  0  0  0  0  0  0  0  0  0  0  0
  160.3500  211.9960  151.1510 C   0  0  0  0  0  3  0  0  0  0  0  0
  160.3440  211.3810  153.4940 C   0  0  0  0  0  0  0  0  0  0  0  0
  159.1300  213.3050  152.7280 N   0  0  0  0  0  0  0  0  0  0  0  0
  159.5160  212.4880  153.7430 C   0  0  0  0  0  3  0  0  0  0  0  0
  159.5180  213.0790  151.4440 C   0  0  0  0  0  0  0  0  0  0  0  0
  157.9840  213.4370  149.5770 C   0  0  2  0  0  3  0  0  0  0  0  0
  157.7690  214.4190  150.5580 O   0  0  0  0  0  0  0  0  0  0  0  0
  159.1030  214.0150  150.3570 C   0  0  1  0  0  3  0  0  0  0  0  0
  157.9410  214.0330  148.3080 O   0  0  0  0  0  0  0  0  0  0  0  0
  157.9610  213.0040  147.3450 C   0  0  0  0  0  0  0  0  0  0  0  0
  159.2270  212.4460  147.2410 F   0  0  0  0  0  0  0  0  0  0  0  0
  157.0360  212.0190  147.6580 F   0  0  0  0  0  0  0  0  0  0  0  0
  157.6220  213.5430  146.1190 F   0  0  0  0  0  0  0  0  0  0  0  0
  161.6500  209.9920  151.8160 C   0  0  0  0  0  0  0  0  0  0  0  0
  162.9040  210.1140  151.8470 O   0  0  0  0  0  0  0  0  0  0  0  0
  161.0690  208.7390  151.4430 N   0  0  0  0  0  2  0  0  0  0  0  0
  160.9630  204.8380  150.9760 N   0  0  0  0  0  0  0  0  0  0  0  0
  162.0820  206.6410  152.1640 C   0  0  0  0  0  2  0  0  0  0  0  0
  160.9810  205.5870  152.2270 C   0  0  0  0  0  2  0  0  0  0  0  0
  161.1730  206.9530  149.7660 C   0  0  1  0  0  3  0  0  0  0  0  0
  161.8590  207.6030  150.9880 C   0  0  1  0  0  3  0  0  0  0  0  0
  161.7900  207.4120  148.4740 C   0  0  0  0  0  3  0  0  0  0  0  0
  161.3550  204.2400  146.0260 Cl  0  0  0  0  0  0  0  0  0  0  0  0
  161.0530  204.6820  148.6180 N   0  0  0  0  0  0  0  0  0  0  0  0
  161.3810  205.2160  147.4780 C   0  0  0  0  0  0  0  0  0  0  0  0
  161.8480  206.6150  147.4040 C   0  0  0  0  0  3  0  0  0  0  0  0
  161.0680  205.4430  149.8310 C   0  0  0  0  0  0  0  0  0  0  0  0
  160.7370  210.5360  154.5400 O   0  0  0  0  0  0  0  0  0  0  0  0
  161.9000  210.7540  155.3310 C   0  0  0  0  0  2  0  0  0  0  0  0
  161.4600  210.7790  157.0970 S   0  0  0  0  0  0  0  0  0  0  0  0
  160.2940  209.3990  156.9130 C   0  0  0  0  0  2  0  0  0  0  0  0
  160.4150  207.2570  155.6930 C   0  0  0  0  0  2  0  0  0  0  0  0
  161.0570  208.0950  156.7790 C   0  0  0  0  0  3  0  0  0  0  0  0
  160.1430  206.9460  157.1490 C   0  0  0  0  0  2  0  0  0  0  0  0
  1  3  1  0  0  0  0
  2  6  1  0  0  0  0
  2  1  2  0  0  0  0
  3  5  2  0  0  0  0
  3 29  1  0  0  0  0
  4  5  1  0  0  0  0
  6  4  2  0  0  0  0
  7 10  1  6  0  0  0
  7  9  1  0  0  0  0
  7  8  1  0  0  0  0
  9  8  1  0  0  0  0
  9  6  1  1  0  0  0
 11 13  1  0  0  0  0
 11 10  1  0  0  0  0
 12 11  1  0  0  0  0
 14 11  1  0  0  0  0
 15 16  2  0  0  0  0
 15  1  1  0  0  0  0
 17 15  1  0  0  0  0
 18 20  1  0  0  0  0
 19 20  1  0  0  0  0
 21 23  1  6  0  0  0
 21 28  1  0  0  0  0
 21 22  1  0  0  0  0
 22 17  1  1  0  0  0
 22 19  1  0  0  0  0
 24 26  1  0  0  0  0
 25 28  1  0  0  0  0
 26 25  2  0  0  0  0
 27 26  1  0  0  0  0
 27 23  2  0  0  0  0
 28 18  2  0  0  0  0
 29 30  1  0  0  0  0
 30 31  1  0  0  0  0
 32 31  1  0  0  0  0
 33 34  1  0  0  0  0
 33 35  1  0  0  0  0
 34 32  1  0  0  0  0
 34 35  1  0  0  0  0
M  END
>  <MODEL>
4

>  <REMARK>
 VINA RESULT:      -7.0      4.366      7.585
  Name = 
  10 active torsions:
  status: ('A' for Active; 'I' for Inactive)
    1  A    between atoms: C_1  and  O_34
    2  A    between atoms: C_5  and  C_15
    3  A    between atoms: C_9  and  N_31
    4  A    between atoms: O_10  and  C_11
    5  A    between atoms: O_10  and  C_30
    6  A    between atoms: C_14  and  O_34
    7  A    between atoms: S_16  and  C_17
    8  A    between atoms: S_16  and  C_30
    9  A    between atoms: C_17  and  C_22
   10  A    between atoms: C_25  and  C_35
                            x       y       z     vdW  Elec       q    Type
                         _______ _______ _______ _____ _____    ______ ____

>  <TORSDO>
F 10

$$$$
=
 OpenBabel11052410443D

 35 39  0  0  1  0  0  0  0  0999 V2000
  160.8920  210.8400  152.2370 C   0  0  0  0  0  0  0  0  0  0  0  0
  160.3910  210.7970  153.5460 C   0  0  0  0  0  3  0  0  0  0  0  0
  160.5200  211.9150  151.4000 C   0  0  0  0  0  0  0  0  0  0  0  0
  159.1960  212.8290  153.1820 N   0  0  0  0  0  0  0  0  0  0  0  0
  159.6610  212.9040  151.9080 C   0  0  0  0  0  3  0  0  0  0  0  0
  159.5480  211.8090  154.0100 C   0  0  0  0  0  0  0  0  0  0  0  0
  157.6670  211.0780  155.3860 C   0  0  2  0  0  3  0  0  0  0  0  0
  158.8300  210.3930  155.7770 O   0  0  0  0  0  0  0  0  0  0  0  0
  158.9920  211.7390  155.3950 C   0  0  1  0  0  3  0  0  0  0  0  0
  156.9470  211.4570  156.5300 O   0  0  0  0  0  0  0  0  0  0  0  0
  155.5840  211.5270  156.1810 C   0  0  0  0  0  0  0  0  0  0  0  0
  154.7790  211.1480  157.2470 F   0  0  0  0  0  0  0  0  0  0  0  0
  155.2470  212.8070  155.7680 F   0  0  0  0  0  0  0  0  0  0  0  0
  155.3530  210.6570  155.1330 F   0  0  0  0  0  0  0  0  0  0  0  0
  161.7860  209.7470  151.7850 C   0  0  0  0  0  0  0  0  0  0  0  0
  163.0220  209.9460  151.6390 O   0  0  0  0  0  0  0  0  0  0  0  0
  161.2410  208.4510  151.5210 N   0  0  0  0  0  2  0  0  0  0  0  0
  161.1670  204.5810  150.8380 N   0  0  0  0  0  0  0  0  0  0  0  0
  162.2960  206.3290  152.0960 C   0  0  0  0  0  2  0  0  0  0  0  0
  161.2090  205.2590  152.1280 C   0  0  0  0  0  2  0  0  0  0  0  0
  161.3210  206.7630  149.7440 C   0  0  1  0  0  3  0  0  0  0  0  0
  162.0310  207.3530  150.9820 C   0  0  1  0  0  3  0  0  0  0  0  0
  161.8980  207.3020  148.4640 C   0  0  0  0  0  3  0  0  0  0  0  0
  161.4340  204.2660  145.8540 Cl  0  0  0  0  0  0  0  0  0  0  0  0
  161.1970  204.5590  148.4730 N   0  0  0  0  0  0  0  0  0  0  0  0
  161.4870  205.1600  147.3570 C   0  0  0  0  0  0  0  0  0  0  0  0
  161.9360  206.5670  147.3500 C   0  0  0  0  0  3  0  0  0  0  0  0
  161.2340  205.2510  149.7270 C   0  0  0  0  0  0  0  0  0  0  0  0
  161.0040  211.9970  150.0880 O   0  0  0  0  0  0  0  0  0  0  0  0
  160.8370  213.1420  149.2600 C   0  0  0  0  0  2  0  0  0  0  0  0
  162.0260  213.0970  147.8830 S   0  0  0  0  0  0  0  0  0  0  0  0
  160.7480  213.4940  146.6550 C   0  0  0  0  0  2  0  0  0  0  0  0
  159.7150  212.3020  144.7570 C   0  0  0  0  0  2  0  0  0  0  0  0
  160.0240  212.2290  146.2390 C   0  0  0  0  0  3  0  0  0  0  0  0
  158.6290  212.5880  145.7720 C   0  0  0  0  0  2  0  0  0  0  0  0
  1  2  1  0  0  0  0
  2  6  2  0  0  0  0
  3  5  1  0  0  0  0
  3  1  2  0  0  0  0
  4  6  1  0  0  0  0
  5  4  2  0  0  0  0
  7  9  1  0  0  0  0
  7  8  1  0  0  0  0
  7 10  1  1  0  0  0
  9  6  1  6  0  0  0
  9  8  1  0  0  0  0
 11 10  1  0  0  0  0
 11 12  1  0  0  0  0
 13 11  1  0  0  0  0
 14 11  1  0  0  0  0
 15  1  1  0  0  0  0
 16 15  2  0  0  0  0
 17 15  1  0  0  0  0
 18 20  1  0  0  0  0
 19 20  1  0  0  0  0
 21 23  1  6  0  0  0
 21 22  1  0  0  0  0
 22 17  1  1  0  0  0
 22 19  1  0  0  0  0
 24 26  1  0  0  0  0
 25 28  1  0  0  0  0
 26 25  2  0  0  0  0
 27 26  1  0  0  0  0
 27 23  2  0  0  0  0
 28 21  1  0  0  0  0
 28 18  2  0  0  0  0
 29  3  1  0  0  0  0
 30 29  1  0  0  0  0
 31 30  1  0  0  0  0
 32 31  1  0  0  0  0
 33 35  1  0  0  0  0
 33 34  1  0  0  0  0
 34 32  1  0  0  0  0
 35 34  1  0  0  0  0
M  END
>  <MODEL>
5

>  <REMARK>
 VINA RESULT:      -6.6      5.794      9.711
  Name = 
  10 active torsions:
  status: ('A' for Active; 'I' for Inactive)
    1  A    between atoms: C_1  and  O_34
    2  A    between atoms: C_5  and  C_15
    3  A    between atoms: C_9  and  N_31
    4  A    between atoms: O_10  and  C_11
    5  A    between atoms: O_10  and  C_30
    6  A    between atoms: C_14  and  O_34
    7  A    between atoms: S_16  and  C_17
    8  A    between atoms: S_16  and  C_30
    9  A    between atoms: C_17  and  C_22
   10  A    between atoms: C_25  and  C_35
                            x       y       z     vdW  Elec       q    Type
                         _______ _______ _______ _____ _____    ______ ____

>  <TORSDO>
F 10

$$$$
=
 OpenBabel11052410443D

 35 39  0  0  1  0  0  0  0  0999 V2000
  161.6390  211.9200  148.7890 C   0  0  0  0  0  0  0  0  0  0  0  0
  162.1250  212.2160  147.5080 C   0  0  0  0  0  3  0  0  0  0  0  0
  160.7780  212.8440  149.4210 C   0  0  0  0  0  0  0  0  0  0  0  0
  160.9290  214.2800  147.5030 N   0  0  0  0  0  0  0  0  0  0  0  0
  160.4380  214.0270  148.7440 C   0  0  0  0  0  3  0  0  0  0  0  0
  161.7520  213.4010  146.8690 C   0  0  0  0  0  0  0  0  0  0  0  0
  161.5760  212.9660  144.4730 C   0  0  2  0  0  3  0  0  0  0  0  0
  161.3000  214.3200  144.7260 O   0  0  0  0  0  0  0  0  0  0  0  0
  162.3000  213.7240  145.5180 C   0  0  1  0  0  3  0  0  0  0  0  0
  162.3790  212.8650  143.3270 O   0  0  0  0  0  0  0  0  0  0  0  0
  161.6080  212.2700  142.3080 C   0  0  0  0  0  0  0  0  0  0  0  0
  162.3910  211.4490  141.5070 F   0  0  0  0  0  0  0  0  0  0  0  0
  160.5600  211.5390  142.8480 F   0  0  0  0  0  0  0  0  0  0  0  0
  161.0780  213.2700  141.5160 F   0  0  0  0  0  0  0  0  0  0  0  0
  162.0580  210.6510  149.4290 C   0  0  0  0  0  0  0  0  0  0  0  0
  162.5790  210.6490  150.5770 O   0  0  0  0  0  0  0  0  0  0  0  0
  161.8610  209.4120  148.7400 N   0  0  0  0  0  2  0  0  0  0  0  0
  160.7160  206.2350  150.7500 N   0  0  0  0  0  0  0  0  0  0  0  0
  162.2270  208.1400  150.7880 C   0  0  0  0  0  2  0  0  0  0  0  0
  160.8780  207.5960  151.2490 C   0  0  0  0  0  2  0  0  0  0  0  0
  161.5520  206.9850  148.5770 C   0  0  1  0  0  3  0  0  0  0  0  0
  162.3310  208.1340  149.2550 C   0  0  1  0  0  3  0  0  0  0  0  0
  162.3310  206.3810  147.4420 C   0  0  0  0  0  3  0  0  0  0  0  0
  161.1620  202.5240  147.4280 Cl  0  0  0  0  0  0  0  0  0  0  0  0
  160.8710  204.5800  149.0680 N   0  0  0  0  0  0  0  0  0  0  0  0
  161.3850  204.1820  147.9410 C   0  0  0  0  0  0  0  0  0  0  0  0
  162.2200  205.0880  147.1280 C   0  0  0  0  0  3  0  0  0  0  0  0
  161.0360  205.9260  149.5290 C   0  0  0  0  0  0  0  0  0  0  0  0
  160.2660  212.5820  150.6980 O   0  0  0  0  0  0  0  0  0  0  0  0
  159.0550  213.1450  151.1900 C   0  0  0  0  0  2  0  0  0  0  0  0
  158.9850  212.9920  153.0020 S   0  0  0  0  0  0  0  0  0  0  0  0
  159.6320  211.2960  152.9680 C   0  0  0  0  0  2  0  0  0  0  0  0
  161.6710  210.3270  153.9660 C   0  0  0  0  0  2  0  0  0  0  0  0
  160.3420  210.9890  154.2710 C   0  0  0  0  0  3  0  0  0  0  0  0
  160.4920  209.4890  154.4130 C   0  0  0  0  0  2  0  0  0  0  0  0
  1  3  1  0  0  0  0
  1 15  1  0  0  0  0
  2  1  2  0  0  0  0
  3 29  1  0  0  0  0
  4  5  1  0  0  0  0
  5  3  2  0  0  0  0
  6  4  2  0  0  0  0
  6  2  1  0  0  0  0
  7 10  1  6  0  0  0
  7  8  1  0  0  0  0
  7  9  1  0  0  0  0
  8  9  1  0  0  0  0
  9  6  1  1  0  0  0
 11 13  1  0  0  0  0
 11 10  1  0  0  0  0
 12 11  1  0  0  0  0
 14 11  1  0  0  0  0
 15 16  2  0  0  0  0
 17 15  1  0  0  0  0
 18 20  1  0  0  0  0
 19 20  1  0  0  0  0
 21 23  1  6  0  0  0
 21 22  1  0  0  0  0
 21 28  1  0  0  0  0
 22 17  1  6  0  0  0
 22 19  1  0  0  0  0
 24 26  1  0  0  0  0
 25 28  1  0  0  0  0
 26 25  2  0  0  0  0
 27 23  2  0  0  0  0
 27 26  1  0  0  0  0
 28 18  2  0  0  0  0
 29 30  1  0  0  0  0
 30 31  1  0  0  0  0
 32 31  1  0  0  0  0
 32 34  1  0  0  0  0
 33 34  1  0  0  0  0
 33 35  1  0  0  0  0
 34 35  1  0  0  0  0
M  END
>  <MODEL>
6

>  <REMARK>
 VINA RESULT:      -6.4      5.256      7.814
  Name = 
  10 active torsions:
  status: ('A' for Active; 'I' for Inactive)
    1  A    between atoms: C_1  and  O_34
    2  A    between atoms: C_5  and  C_15
    3  A    between atoms: C_9  and  N_31
    4  A    between atoms: O_10  and  C_11
    5  A    between atoms: O_10  and  C_30
    6  A    between atoms: C_14  and  O_34
    7  A    between atoms: S_16  and  C_17
    8  A    between atoms: S_16  and  C_30
    9  A    between atoms: C_17  and  C_22
   10  A    between atoms: C_25  and  C_35
                            x       y       z     vdW  Elec       q    Type
                         _______ _______ _______ _____ _____    ______ ____

>  <TORSDO>
F 10

$$$$
=
 OpenBabel11052410443D

 35 39  0  0  1  0  0  0  0  0999 V2000
  161.4300  211.0690  150.3430 C   0  0  0  0  0  0  0  0  0  0  0  0
  161.8230  211.7220  149.1660 C   0  0  0  0  0  3  0  0  0  0  0  0
  160.5380  211.7260  151.2190 C   0  0  0  0  0  0  0  0  0  0  0  0
  160.4820  213.6110  149.7330 N   0  0  0  0  0  0  0  0  0  0  0  0
  160.0780  213.0100  150.8830 C   0  0  0  0  0  3  0  0  0  0  0  0
  161.3310  212.9950  148.8670 C   0  0  0  0  0  0  0  0  0  0  0  0
  161.2020  213.0480  146.4290 C   0  0  2  0  0  3  0  0  0  0  0  0
  160.6690  214.2370  146.9540 O   0  0  0  0  0  0  0  0  0  0  0  0
  161.7810  213.6960  147.6280 C   0  0  1  0  0  3  0  0  0  0  0  0
  161.9900  213.3490  145.3070 O   0  0  0  0  0  0  0  0  0  0  0  0
  161.3060  212.8930  144.1620 C   0  0  0  0  0  0  0  0  0  0  0  0
  160.2840  212.0200  144.5090 F   0  0  0  0  0  0  0  0  0  0  0  0
  160.7900  213.9590  143.4400 F   0  0  0  0  0  0  0  0  0  0  0  0
  162.2010  212.2160  143.3570 F   0  0  0  0  0  0  0  0  0  0  0  0
  161.9740  209.7190  150.6190 C   0  0  0  0  0  0  0  0  0  0  0  0
  162.7160  209.5160  151.6170 O   0  0  0  0  0  0  0  0  0  0  0  0
  161.6440  208.6320  149.7490 N   0  0  0  0  0  2  0  0  0  0  0  0
  160.8560  205.0200  151.0820 N   0  0  0  0  0  0  0  0  0  0  0  0
  162.3030  206.9500  151.3870 C   0  0  0  0  0  2  0  0  0  0  0  0
  161.0400  206.2390  151.8620 C   0  0  0  0  0  2  0  0  0  0  0  0
  161.3880  206.2920  149.0620 C   0  0  1  0  0  3  0  0  0  0  0  0
  162.2130  207.2990  149.8940 C   0  0  1  0  0  3  0  0  0  0  0  0
  162.0340  206.0080  147.7350 C   0  0  0  0  0  3  0  0  0  0  0  0
  160.9850  202.1940  146.9580 Cl  0  0  0  0  0  0  0  0  0  0  0  0
  160.8450  203.8030  149.0550 N   0  0  0  0  0  0  0  0  0  0  0  0
  161.2230  203.7020  147.8150 C   0  0  0  0  0  0  0  0  0  0  0  0
  161.9210  204.8160  147.1430 C   0  0  0  0  0  3  0  0  0  0  0  0
  161.0270  205.0160  149.7950 C   0  0  0  0  0  0  0  0  0  0  0  0
  160.1160  211.1050  152.4020 O   0  0  0  0  0  0  0  0  0  0  0  0
  160.3560  211.6420  153.6990 C   0  0  0  0  0  2  0  0  0  0  0  0
  159.0400  211.1220  154.8430 S   0  0  0  0  0  0  0  0  0  0  0  0
  160.1480  209.9970  155.7400 C   0  0  0  0  0  2  0  0  0  0  0  0
  160.3060  207.6360  156.4430 C   0  0  0  0  0  2  0  0  0  0  0  0
  159.8710  208.5640  155.3270 C   0  0  0  0  0  3  0  0  0  0  0  0
  161.1840  207.8160  155.2230 C   0  0  0  0  0  2  0  0  0  0  0  0
  1 15  1  0  0  0  0
  1  3  1  0  0  0  0
  2  1  2  0  0  0  0
  3 29  1  0  0  0  0
  4  5  1  0  0  0  0
  5  3  2  0  0  0  0
  6  2  1  0  0  0  0
  6  4  2  0  0  0  0
  7 10  1  6  0  0  0
  7  8  1  0  0  0  0
  7  9  1  0  0  0  0
  8  9  1  0  0  0  0
  9  6  1  1  0  0  0
 11 12  1  0  0  0  0
 11 10  1  0  0  0  0
 13 11  1  0  0  0  0
 14 11  1  0  0  0  0
 15 16  2  0  0  0  0
 17 15  1  0  0  0  0
 18 20  1  0  0  0  0
 19 20  1  0  0  0  0
 21 23  1  6  0  0  0
 21 28  1  0  0  0  0
 21 22  1  0  0  0  0
 22 17  1  1  0  0  0
 22 19  1  0  0  0  0
 24 26  1  0  0  0  0
 25 28  1  0  0  0  0
 26 25  2  0  0  0  0
 27 23  2  0  0  0  0
 27 26  1  0  0  0  0
 28 18  2  0  0  0  0
 29 30  1  0  0  0  0
 30 31  1  0  0  0  0
 31 32  1  0  0  0  0
 34 32  1  0  0  0  0
 34 33  1  0  0  0  0
 35 34  1  0  0  0  0
 35 33  1  0  0  0  0
M  END
>  <MODEL>
7

>  <REMARK>
 VINA RESULT:      -6.3      4.771      7.547
  Name = 
  10 active torsions:
  status: ('A' for Active; 'I' for Inactive)
    1  A    between atoms: C_1  and  O_34
    2  A    between atoms: C_5  and  C_15
    3  A    between atoms: C_9  and  N_31
    4  A    between atoms: O_10  and  C_11
    5  A    between atoms: O_10  and  C_30
    6  A    between atoms: C_14  and  O_34
    7  A    between atoms: S_16  and  C_17
    8  A    between atoms: S_16  and  C_30
    9  A    between atoms: C_17  and  C_22
   10  A    between atoms: C_25  and  C_35
                            x       y       z     vdW  Elec       q    Type
                         _______ _______ _______ _____ _____    ______ ____

>  <TORSDO>
F 10

$$$$
=
 OpenBabel11052410443D

 35 39  0  0  1  0  0  0  0  0999 V2000
  161.2700  208.6920  151.3260 C   0  0  0  0  0  0  0  0  0  0  0  0
  161.6910  209.9020  150.7580 C   0  0  0  0  0  3  0  0  0  0  0  0
  161.2530  207.5320  150.5210 C   0  0  0  0  0  0  0  0  0  0  0  0
  162.0590  208.8220  148.6640 N   0  0  0  0  0  0  0  0  0  0  0  0
  161.6580  207.6310  149.1790 C   0  0  0  0  0  3  0  0  0  0  0  0
  162.0950  209.9510  149.4210 C   0  0  0  0  0  0  0  0  0  0  0  0
  161.4820  211.7290  147.8630 C   0  0  2  0  0  3  0  0  0  0  0  0
  161.5870  212.2560  149.1610 O   0  0  0  0  0  0  0  0  0  0  0  0
  162.5110  211.2510  148.8150 C   0  0  1  0  0  3  0  0  0  0  0  0
  162.0660  212.6220  146.9520 O   0  0  0  0  0  0  0  0  0  0  0  0
  161.0900  212.9640  145.9940 C   0  0  0  0  0  0  0  0  0  0  0  0
  159.9060  212.2770  146.2240 F   0  0  0  0  0  0  0  0  0  0  0  0
  160.8510  214.3310  146.0030 F   0  0  0  0  0  0  0  0  0  0  0  0
  161.5600  212.6140  144.7430 F   0  0  0  0  0  0  0  0  0  0  0  0
  160.8530  208.6840  152.7480 C   0  0  0  0  0  0  0  0  0  0  0  0
  160.8770  207.6180  153.4200 O   0  0  0  0  0  0  0  0  0  0  0  0
  160.4270  209.9020  153.3670 N   0  0  0  0  0  2  0  0  0  0  0  0
  160.6480  211.9550  156.7110 N   0  0  0  0  0  0  0  0  0  0  0  0
  161.0720  209.7780  155.7150 C   0  0  0  0  0  2  0  0  0  0  0  0
  161.6800  211.1210  156.1060 C   0  0  0  0  0  2  0  0  0  0  0  0
  159.1220  211.2770  154.9230 C   0  0  1  0  0  3  0  0  0  0  0  0
  159.9100  209.9630  154.7270 C   0  0  1  0  0  3  0  0  0  0  0  0
  157.6410  211.0630  154.7780 C   0  0  0  0  0  3  0  0  0  0  0  0
  156.0320  213.8000  157.2600 Cl  0  0  0  0  0  0  0  0  0  0  0  0
  158.4620  212.8520  156.8130 N   0  0  0  0  0  0  0  0  0  0  0  0
  157.2100  212.7780  156.4660 C   0  0  0  0  0  0  0  0  0  0  0  0
  156.7590  211.7890  155.4670 C   0  0  0  0  0  3  0  0  0  0  0  0
  159.4580  212.0290  156.1940 C   0  0  0  0  0  0  0  0  0  0  0  0
  160.8440  206.3020  151.0520 O   0  0  0  0  0  0  0  0  0  0  0  0
  161.7510  205.2870  151.4710 C   0  0  0  0  0  2  0  0  0  0  0  0
  160.9180  203.6690  151.4780 S   0  0  0  0  0  0  0  0  0  0  0  0
  161.1510  203.4480  149.6900 C   0  0  0  0  0  2  0  0  0  0  0  0
  161.1970  201.0520  149.1010 C   0  0  0  0  0  2  0  0  0  0  0  0
  160.3160  202.2800  149.2020 C   0  0  0  0  0  3  0  0  0  0  0  0
  160.8350  201.8290  147.8530 C   0  0  0  0  0  2  0  0  0  0  0  0
  1 15  1  0  0  0  0
  2  1  1  0  0  0  0
  3 29  1  0  0  0  0
  3  1  2  0  0  0  0
  4  5  2  0  0  0  0
  4  6  1  0  0  0  0
  5  3  1  0  0  0  0
  6  2  2  0  0  0  0
  7 10  1  6  0  0  0
  7  9  1  0  0  0  0
  7  8  1  0  0  0  0
  9  8  1  0  0  0  0
  9  6  1  1  0  0  0
 11 13  1  0  0  0  0
 11 12  1  0  0  0  0
 11 10  1  0  0  0  0
 14 11  1  0  0  0  0
 15 17  1  0  0  0  0
 15 16  2  0  0  0  0
 19 20  1  0  0  0  0
 20 18  1  0  0  0  0
 21 23  1  1  0  0  0
 21 28  1  0  0  0  0
 22 17  1  6  0  0  0
 22 21  1  0  0  0  0
 22 19  1  0  0  0  0
 23 27  2  0  0  0  0
 26 25  2  0  0  0  0
 26 24  1  0  0  0  0
 27 26  1  0  0  0  0
 28 18  2  0  0  0  0
 28 25  1  0  0  0  0
 29 30  1  0  0  0  0
 30 31  1  0  0  0  0
 32 31  1  0  0  0  0
 33 34  1  0  0  0  0
 34 32  1  0  0  0  0
 35 33  1  0  0  0  0
 35 34  1  0  0  0  0
M  END
>  <MODEL>
8

>  <REMARK>
 VINA RESULT:      -6.3      3.841      5.776
  Name = 
  10 active torsions:
  status: ('A' for Active; 'I' for Inactive)
    1  A    between atoms: C_1  and  O_34
    2  A    between atoms: C_5  and  C_15
    3  A    between atoms: C_9  and  N_31
    4  A    between atoms: O_10  and  C_11
    5  A    between atoms: O_10  and  C_30
    6  A    between atoms: C_14  and  O_34
    7  A    between atoms: S_16  and  C_17
    8  A    between atoms: S_16  and  C_30
    9  A    between atoms: C_17  and  C_22
   10  A    between atoms: C_25  and  C_35
                            x       y       z     vdW  Elec       q    Type
                         _______ _______ _______ _____ _____    ______ ____

>  <TORSDO>
F 10

$$$$
=
 OpenBabel11052410443D

 35 39  0  0  1  0  0  0  0  0999 V2000
  161.5070  207.8860  150.7160 C   0  0  0  0  0  0  0  0  0  0  0  0
  161.5290  206.5970  150.1630 C   0  0  0  0  0  3  0  0  0  0  0  0
  161.9160  208.9760  149.9170 C   0  0  0  0  0  0  0  0  0  0  0  0
  162.3390  207.4700  148.0970 N   0  0  0  0  0  0  0  0  0  0  0  0
  162.3310  208.7330  148.5980 C   0  0  0  0  0  3  0  0  0  0  0  0
  161.9400  206.4050  148.8420 C   0  0  0  0  0  0  0  0  0  0  0  0
  160.8750  204.2070  148.7980 C   0  0  2  0  0  3  0  0  0  0  0  0
  160.8310  204.7780  147.5150 O   0  0  0  0  0  0  0  0  0  0  0  0
  161.9920  205.0250  148.2720 C   0  0  1  0  0  3  0  0  0  0  0  0
  161.1990  202.8470  148.6880 O   0  0  0  0  0  0  0  0  0  0  0  0
  160.4890  202.1500  149.6860 C   0  0  0  0  0  0  0  0  0  0  0  0
  161.2070  201.0480  150.1290 F   0  0  0  0  0  0  0  0  0  0  0  0
  160.1980  202.9840  150.7560 F   0  0  0  0  0  0  0  0  0  0  0  0
  159.2980  201.7030  149.1480 F   0  0  0  0  0  0  0  0  0  0  0  0
  161.0620  208.0460  152.1210 C   0  0  0  0  0  0  0  0  0  0  0  0
  160.8310  207.0380  152.8420 O   0  0  0  0  0  0  0  0  0  0  0  0
  160.9010  209.3590  152.6660 N   0  0  0  0  0  2  0  0  0  0  0  0
  161.5120  211.4530  155.9350 N   0  0  0  0  0  0  0  0  0  0  0  0
  161.4300  209.1930  155.0410 C   0  0  0  0  0  2  0  0  0  0  0  0
  162.3310  210.3700  155.4030 C   0  0  0  0  0  2  0  0  0  0  0  0
  159.9200  211.0760  154.1170 C   0  0  1  0  0  3  0  0  0  0  0  0
  160.3750  209.6040  154.0020 C   0  0  1  0  0  3  0  0  0  0  0  0
  158.4360  211.2140  153.9220 C   0  0  0  0  0  3  0  0  0  0  0  0
  157.4600  214.3690  156.2330 Cl  0  0  0  0  0  0  0  0  0  0  0  0
  159.6030  212.8490  155.9170 N   0  0  0  0  0  0  0  0  0  0  0  0
  158.3810  213.0600  155.5260 C   0  0  0  0  0  0  0  0  0  0  0  0
  157.7340  212.1620  154.5490 C   0  0  0  0  0  3  0  0  0  0  0  0
  160.3900  211.7850  155.3700 C   0  0  0  0  0  0  0  0  0  0  0  0
  161.9030  210.2790  150.4310 O   0  0  0  0  0  0  0  0  0  0  0  0
  162.0300  211.4440  149.6220 C   0  0  0  0  0  2  0  0  0  0  0  0
  160.7160  212.6350  150.0290 S   0  0  0  0  0  0  0  0  0  0  0  0
  160.8980  213.5040  148.4450 C   0  0  0  0  0  2  0  0  0  0  0  0
  162.3300  213.3410  146.4420 C   0  0  0  0  0  2  0  0  0  0  0  0
  161.4560  212.5580  147.4000 C   0  0  0  0  0  3  0  0  0  0  0  0
  160.9240  212.9540  146.0390 C   0  0  0  0  0  2  0  0  0  0  0  0
  1 15  1  0  0  0  0
  2  1  1  0  0  0  0
  3 29  1  0  0  0  0
  3  1  2  0  0  0  0
  4  5  2  0  0  0  0
  4  6  1  0  0  0  0
  5  3  1  0  0  0  0
  6  2  2  0  0  0  0
  7 10  1  6  0  0  0
  8  9  1  0  0  0  0
  8  7  1  0  0  0  0
  9  7  1  0  0  0  0
  9  6  1  1  0  0  0
 10 11  1  0  0  0  0
 11 12  1  0  0  0  0
 11 13  1  0  0  0  0
 14 11  1  0  0  0  0
 15 17  1  0  0  0  0
 15 16  2  0  0  0  0
 19 20  1  0  0  0  0
 20 18  1  0  0  0  0
 21 23  1  1  0  0  0
 21 28  1  0  0  0  0
 22 17  1  6  0  0  0
 22 21  1  0  0  0  0
 22 19  1  0  0  0  0
 23 27  2  0  0  0  0
 26 25  2  0  0  0  0
 26 24  1  0  0  0  0
 27 26  1  0  0  0  0
 28 25  1  0  0  0  0
 28 18  2  0  0  0  0
 30 31  1  0  0  0  0
 30 29  1  0  0  0  0
 32 31  1  0  0  0  0
 33 34  1  0  0  0  0
 34 32  1  0  0  0  0
 35 33  1  0  0  0  0
 35 34  1  0  0  0  0
M  END
>  <MODEL>
9

>  <REMARK>
 VINA RESULT:      -6.1      3.262      5.072
  Name = 
  10 active torsions:
  status: ('A' for Active; 'I' for Inactive)
    1  A    between atoms: C_1  and  O_34
    2  A    between atoms: C_5  and  C_15
    3  A    between atoms: C_9  and  N_31
    4  A    between atoms: O_10  and  C_11
    5  A    between atoms: O_10  and  C_30
    6  A    between atoms: C_14  and  O_34
    7  A    between atoms: S_16  and  C_17
    8  A    between atoms: S_16  and  C_30
    9  A    between atoms: C_17  and  C_22
   10  A    between atoms: C_25  and  C_35
                            x       y       z     vdW  Elec       q    Type
                         _______ _______ _______ _____ _____    ______ ____

>  <TORSDO>
F 10

$$$$
