=
 OpenBabel11052412123D

 41 47  0  0  1  0  0  0  0  0999 V2000
  160.8880  204.3780  152.2600 C   0  0  0  0  0  2  0  0  0  0  0  0
  161.5310  205.4760  153.0980 C   0  0  0  0  0  2  0  0  0  0  0  0
  161.7640  206.8820  150.9460 C   0  0  2  0  0  3  0  0  0  0  0  0
  161.4790  204.3750  150.8500 C   0  0  2  0  0  3  0  0  0  0  0  0
  161.2220  207.9050  153.1010 N   0  0  0  0  0  0  0  0  0  0  0  0
  161.1600  205.7080  150.1730 C   0  0  0  0  0  2  0  0  0  0  0  0
  161.3970  206.8110  152.4150 C   0  0  0  0  0  0  0  0  0  0  0  0
  161.9230  210.2030  154.9410 N   0  0  0  0  0  0  0  0  0  0  0  0
  161.4450  210.2180  157.1190 O   0  0  0  0  0  0  0  0  0  0  0  0
  160.9940  209.1020  156.6160 C   0  0  0  0  0  0  0  0  0  0  0  0
  160.3030  206.9310  155.1210 N   0  0  0  0  0  0  0  0  0  0  0  0
  160.0170  206.9410  156.4610 C   0  0  0  0  0  3  0  0  0  0  0  0
  161.2640  209.0850  155.2870 C   0  0  0  0  0  0  0  0  0  0  0  0
  160.9040  207.9890  154.4970 C   0  0  0  0  0  0  0  0  0  0  0  0
  160.3570  208.0470  157.2600 C   0  0  0  0  0  3  0  0  0  0  0  0
  162.0040  210.8790  156.1170 C   0  0  0  0  0  3  0  0  0  0  0  0
  161.0210  201.6950  146.9490 C   0  0  0  0  0  2  0  0  0  0  0  0
  161.4320  203.9310  147.5870 C   0  0  0  0  0  3  0  0  0  0  0  0
  160.9390  203.2350  150.0360 C   0  0  0  0  0  0  0  0  0  0  0  0
  160.5820  201.9310  148.3050 N   0  0  0  0  0  0  0  0  0  0  0  0
  161.5240  203.0700  146.5610 C   0  0  0  0  0  3  0  0  0  0  0  0
  160.8350  203.1680  148.6640 C   0  0  0  0  0  0  0  0  0  0  0  0
  160.7930  201.9030  150.4430 C   0  0  0  0  0  3  0  0  0  0  0  0
  160.6070  201.1220  149.3480 N   0  0  0  0  0  0  0  0  0  0  0  0
  162.0200  210.7990  149.1830 C   0  0  0  0  0  0  0  0  0  0  0  0
  162.3130  210.5750  150.6400 C   0  0  0  0  0  2  0  0  0  0  0  0
  162.1490  208.3660  148.9170 C   0  0  0  0  0  2  0  0  0  0  0  0
  161.9230  209.7440  148.3660 C   0  0  0  0  0  3  0  0  0  0  0  0
  161.4550  209.4270  151.1890 C   0  0  0  0  0  2  0  0  0  0  0  0
  161.3960  208.1980  150.2480 C   0  0  2  0  0  3  0  0  0  0  0  0
  161.7310  212.1710  148.6740 C   0  0  0  0  0  2  0  0  0  0  0  0
  162.8080  212.5970  147.6960 C   0  0  0  0  0  2  0  0  0  0  0  0
  162.2340  213.4800  146.6940 N   0  0  0  0  0  2  0  0  0  0  0  0
  163.7970  213.1820  144.2750 F   0  0  0  0  0  0  0  0  0  0  0  0
  161.6860  213.0500  145.4420 C   0  0  0  0  0  0  0  0  0  0  0  0
  161.8700  212.4810  143.0810 C   0  0  0  0  0  0  0  0  0  0  0  0
  162.4670  212.9110  144.2740 C   0  0  0  0  0  0  0  0  0  0  0  0
  160.3200  212.7510  145.3890 C   0  0  0  0  0  3  0  0  0  0  0  0
  162.6120  212.3470  141.9550 F   0  0  0  0  0  0  0  0  0  0  0  0
  159.7300  212.3220  144.1990 C   0  0  0  0  0  3  0  0  0  0  0  0
  160.5050  212.1870  143.0460 C   0  0  0  0  0  3  0  0  0  0  0  0
  1  2  1  0  0  0  0
  3  6  1  6  0  0  0
  3  7  1  0  0  0  0
  4 19  1  6  0  0  0
  4  1  1  0  0  0  0
  5 14  1  0  0  0  0
  6  4  1  0  0  0  0
  7  2  1  0  0  0  0
  7  5  2  0  0  0  0
  8 13  1  0  0  0  0
  8 16  2  0  0  0  0
 10  9  1  0  0  0  0
 10 15  1  0  0  0  0
 11 12  1  0  0  0  0
 12 15  2  0  0  0  0
 13 10  2  0  0  0  0
 14 11  2  0  0  0  0
 14 13  1  0  0  0  0
 16  9  1  0  0  0  0
 17 20  1  0  0  0  0
 18 22  1  0  0  0  0
 19 23  1  0  0  0  0
 20 22  1  0  0  0  0
 20 24  1  0  0  0  0
 21 17  1  0  0  0  0
 21 18  2  0  0  0  0
 22 19  2  0  0  0  0
 24 23  2  0  0  0  0
 25 26  1  0  0  0  0
 26 29  1  0  0  0  0
 28 27  1  0  0  0  0
 28 25  2  0  0  0  0
 30 27  1  6  0  0  0
 30  3  1  0  0  0  0
 30 29  1  0  0  0  0
 31 25  1  0  0  0  0
 32 31  1  0  0  0  0
 33 32  1  0  0  0  0
 35 33  1  0  0  0  0
 36 37  1  0  0  0  0
 37 34  1  0  0  0  0
 37 35  2  0  0  0  0
 38 35  1  0  0  0  0
 39 36  1  0  0  0  0
 40 38  2  0  0  0  0
 41 36  2  0  0  0  0
 41 40  1  0  0  0  0
M  END
>  <MODEL>
1

>  <REMARK>
 VINA RESULT:     -11.2      0.000      0.000
  Name = 
  7 active torsions:
  status: ('A' for Active; 'I' for Inactive)
    1  A    between atoms: C_5  and  C_6
    2  A    between atoms: C_5  and  C_12
    3  A    between atoms: C_12  and  N_14
    4  A    between atoms: N_14  and  C_16
    5  A    between atoms: C_15  and  C_31
    6  A    between atoms: C_26  and  C_37
    7  A    between atoms: C_30  and  N_36
                            x       y       z     vdW  Elec       q    Type
                         _______ _______ _______ _____ _____    ______ ____

>  <TORSDO>
F 7

$$$$
=
 OpenBabel11052412123D

 41 47  0  0  1  0  0  0  0  0999 V2000
  160.5650  204.5350  152.4710 C   0  0  0  0  0  2  0  0  0  0  0  0
  161.2390  205.4560  153.4810 C   0  0  0  0  0  2  0  0  0  0  0  0
  162.4650  206.5940  151.5150 C   0  0  2  0  0  3  0  0  0  0  0  0
  161.4990  204.2720  151.2900 C   0  0  2  0  0  3  0  0  0  0  0  0
  161.6650  207.8670  153.4450 N   0  0  0  0  0  0  0  0  0  0  0  0
  161.7860  205.5940  150.5780 C   0  0  0  0  0  2  0  0  0  0  0  0
  161.6980  206.7260  152.8160 C   0  0  0  0  0  0  0  0  0  0  0  0
  159.9910  210.3050  154.0850 N   0  0  0  0  0  0  0  0  0  0  0  0
  159.0590  210.6610  156.0800 O   0  0  0  0  0  0  0  0  0  0  0  0
  159.6900  209.5200  156.1290 C   0  0  0  0  0  0  0  0  0  0  0  0
  161.1840  207.2740  155.7450 N   0  0  0  0  0  0  0  0  0  0  0  0
  160.6150  207.5000  156.9720 C   0  0  0  0  0  3  0  0  0  0  0  0
  160.2490  209.2820  154.9170 C   0  0  0  0  0  0  0  0  0  0  0  0
  161.0070  208.1290  154.6930 C   0  0  0  0  0  0  0  0  0  0  0  0
  159.8360  208.6480  157.2020 C   0  0  0  0  0  3  0  0  0  0  0  0
  159.2390  211.1340  154.8560 C   0  0  0  0  0  3  0  0  0  0  0  0
  160.9600  202.1220  147.0840 C   0  0  0  0  0  2  0  0  0  0  0  0
  161.5170  204.2260  147.9970 C   0  0  0  0  0  3  0  0  0  0  0  0
  160.9010  203.2830  150.3320 C   0  0  0  0  0  0  0  0  0  0  0  0
  160.5000  202.2270  148.4490 N   0  0  0  0  0  0  0  0  0  0  0  0
  161.5760  203.4900  146.8760 C   0  0  0  0  0  3  0  0  0  0  0  0
  160.8330  203.3890  148.9610 C   0  0  0  0  0  0  0  0  0  0  0  0
  160.6440  201.9270  150.5710 C   0  0  0  0  0  3  0  0  0  0  0  0
  160.4330  201.3000  149.3860 N   0  0  0  0  0  0  0  0  0  0  0  0
  161.8730  210.1180  149.1170 C   0  0  0  0  0  0  0  0  0  0  0  0
  161.7180  208.7390  148.5370 C   0  0  0  0  0  2  0  0  0  0  0  0
  161.8350  209.0500  151.3230 C   0  0  0  0  0  2  0  0  0  0  0  0
  161.9470  210.2630  150.4460 C   0  0  0  0  0  3  0  0  0  0  0  0
  162.6740  207.7570  149.2270 C   0  0  0  0  0  2  0  0  0  0  0  0
  162.7090  207.9120  150.7680 C   0  0  2  0  0  3  0  0  0  0  0  0
  162.0520  211.2980  148.2220 C   0  0  0  0  0  2  0  0  0  0  0  0
  161.5690  212.5540  148.9210 C   0  0  0  0  0  2  0  0  0  0  0  0
  161.1250  213.5210  147.9310 N   0  0  0  0  0  2  0  0  0  0  0  0
  158.3280  212.7880  148.0880 F   0  0  0  0  0  0  0  0  0  0  0  0
  160.3190  213.2090  146.7880 C   0  0  0  0  0  0  0  0  0  0  0  0
  158.2230  212.5660  145.7290 C   0  0  0  0  0  0  0  0  0  0  0  0
  158.9560  212.8550  146.8870 C   0  0  0  0  0  0  0  0  0  0  0  0
  160.9180  213.2700  145.5240 C   0  0  0  0  0  3  0  0  0  0  0  0
  156.9150  212.2230  145.8160 F   0  0  0  0  0  0  0  0  0  0  0  0
  160.1830  212.9830  144.3730 C   0  0  0  0  0  3  0  0  0  0  0  0
  158.8360  212.6310  144.4750 C   0  0  0  0  0  3  0  0  0  0  0  0
  1  2  1  0  0  0  0
  3  6  1  6  0  0  0
  3  7  1  0  0  0  0
  4 19  1  6  0  0  0
  4  1  1  0  0  0  0
  5 14  1  0  0  0  0
  6  4  1  0  0  0  0
  7  5  2  0  0  0  0
  7  2  1  0  0  0  0
  8 16  2  0  0  0  0
  8 13  1  0  0  0  0
  9 10  1  0  0  0  0
 10 15  1  0  0  0  0
 11 12  1  0  0  0  0
 12 15  2  0  0  0  0
 13 10  2  0  0  0  0
 14 13  1  0  0  0  0
 14 11  2  0  0  0  0
 16  9  1  0  0  0  0
 17 20  1  0  0  0  0
 18 22  1  0  0  0  0
 19 23  1  0  0  0  0
 20 22  1  0  0  0  0
 20 24  1  0  0  0  0
 21 17  1  0  0  0  0
 21 18  2  0  0  0  0
 22 19  2  0  0  0  0
 24 23  2  0  0  0  0
 25 28  2  0  0  0  0
 26 25  1  0  0  0  0
 26 29  1  0  0  0  0
 28 27  1  0  0  0  0
 30 29  1  6  0  0  0
 30 27  1  0  0  0  0
 30  3  1  0  0  0  0
 31 32  1  0  0  0  0
 31 25  1  0  0  0  0
 33 32  1  0  0  0  0
 35 37  1  0  0  0  0
 35 33  1  0  0  0  0
 36 39  1  0  0  0  0
 36 37  2  0  0  0  0
 37 34  1  0  0  0  0
 38 35  2  0  0  0  0
 40 41  2  0  0  0  0
 40 38  1  0  0  0  0
 41 36  1  0  0  0  0
M  END
>  <MODEL>
2

>  <REMARK>
 VINA RESULT:     -10.0      1.870      2.258
  Name = 
  7 active torsions:
  status: ('A' for Active; 'I' for Inactive)
    1  A    between atoms: C_5  and  C_6
    2  A    between atoms: C_5  and  C_12
    3  A    between atoms: C_12  and  N_14
    4  A    between atoms: N_14  and  C_16
    5  A    between atoms: C_15  and  C_31
    6  A    between atoms: C_26  and  C_37
    7  A    between atoms: C_30  and  N_36
                            x       y       z     vdW  Elec       q    Type
                         _______ _______ _______ _____ _____    ______ ____

>  <TORSDO>
F 7

$$$$
=
 OpenBabel11052412123D

 41 47  0  0  1  0  0  0  0  0999 V2000
  158.1020  213.5890  152.9550 C   0  0  0  0  0  2  0  0  0  0  0  0
  159.2920  213.7910  152.0250 C   0  0  0  0  0  2  0  0  0  0  0  0
  160.4820  211.8520  153.2470 C   0  0  2  0  0  3  0  0  0  0  0  0
  158.5780  213.1100  154.3260 C   0  0  2  0  0  3  0  0  0  0  0  0
  160.7100  212.1880  150.8340 N   0  0  0  0  0  0  0  0  0  0  0  0
  159.2670  211.7550  154.1700 C   0  0  0  0  0  2  0  0  0  0  0  0
  160.1190  212.5350  151.9420 C   0  0  0  0  0  0  0  0  0  0  0  0
  162.6890  212.2050  148.5450 N   0  0  0  0  0  0  0  0  0  0  0  0
  162.2840  213.1870  146.5830 O   0  0  0  0  0  0  0  0  0  0  0  0
  161.2300  213.3420  147.3360 C   0  0  0  0  0  0  0  0  0  0  0  0
  159.3330  213.4490  149.2890 N   0  0  0  0  0  0  0  0  0  0  0  0
  159.0910  214.0570  148.0840 C   0  0  0  0  0  3  0  0  0  0  0  0
  161.4550  212.7360  148.5280 C   0  0  0  0  0  0  0  0  0  0  0  0
  160.4900  212.7650  149.5390 C   0  0  0  0  0  0  0  0  0  0  0  0
  160.0480  214.0170  147.0550 C   0  0  0  0  0  3  0  0  0  0  0  0
  163.1610  212.5060  147.3060 C   0  0  0  0  0  3  0  0  0  0  0  0
  154.9980  210.9140  156.5560 C   0  0  0  0  0  2  0  0  0  0  0  0
  156.1150  210.9290  154.4760 C   0  0  0  0  0  3  0  0  0  0  0  0
  157.4340  213.0060  155.2930 C   0  0  0  0  0  0  0  0  0  0  0  0
  155.7230  212.1490  156.3710 N   0  0  0  0  0  0  0  0  0  0  0  0
  155.2900  210.2060  155.2480 C   0  0  0  0  0  3  0  0  0  0  0  0
  156.3620  212.1430  155.2250 C   0  0  0  0  0  0  0  0  0  0  0  0
  157.4030  213.4650  156.6160 C   0  0  0  0  0  3  0  0  0  0  0  0
  156.3550  212.8930  157.2600 N   0  0  0  0  0  0  0  0  0  0  0  0
  161.1120  207.5960  153.3180 C   0  0  0  0  0  0  0  0  0  0  0  0
  160.8730  208.3740  154.5810 C   0  0  0  0  0  2  0  0  0  0  0  0
  160.3490  209.5840  152.1050 C   0  0  0  0  0  2  0  0  0  0  0  0
  160.8800  208.1810  152.1360 C   0  0  0  0  0  3  0  0  0  0  0  0
  161.4450  209.7920  154.4540 C   0  0  0  0  0  2  0  0  0  0  0  0
  161.1240  210.4660  153.0970 C   0  0  2  0  0  3  0  0  0  0  0  0
  161.7060  206.2280  153.3740 C   0  0  0  0  0  2  0  0  0  0  0  0
  161.9290  205.7040  151.9690 C   0  0  0  0  0  2  0  0  0  0  0  0
  160.8560  204.7900  151.6150 N   0  0  0  0  0  2  0  0  0  0  0  0
  161.1770  205.4520  148.8150 F   0  0  0  0  0  0  0  0  0  0  0  0
  160.9260  203.8120  150.5700 C   0  0  0  0  0  0  0  0  0  0  0  0
  161.1490  203.1520  148.2370 C   0  0  0  0  0  0  0  0  0  0  0  0
  161.0830  204.1580  149.2100 C   0  0  0  0  0  0  0  0  0  0  0  0
  160.8400  202.4610  150.9260 C   0  0  0  0  0  3  0  0  0  0  0  0
  161.2980  203.4750  146.9290 F   0  0  0  0  0  0  0  0  0  0  0  0
  160.9080  201.4620  149.9520 C   0  0  0  0  0  3  0  0  0  0  0  0
  161.0620  201.8080  148.6080 C   0  0  0  0  0  3  0  0  0  0  0  0
  1  4  1  0  0  0  0
  2  1  1  0  0  0  0
  3  6  1  1  0  0  0
  4 19  1  1  0  0  0
  5  7  2  0  0  0  0
  6  4  1  0  0  0  0
  7  2  1  0  0  0  0
  7  3  1  0  0  0  0
  9 16  1  0  0  0  0
  9 10  1  0  0  0  0
 10 13  2  0  0  0  0
 11 14  2  0  0  0  0
 12 11  1  0  0  0  0
 13  8  1  0  0  0  0
 13 14  1  0  0  0  0
 14  5  1  0  0  0  0
 15 10  1  0  0  0  0
 15 12  2  0  0  0  0
 16  8  2  0  0  0  0
 18 22  1  0  0  0  0
 18 21  2  0  0  0  0
 19 23  1  0  0  0  0
 20 17  1  0  0  0  0
 20 24  1  0  0  0  0
 21 17  1  0  0  0  0
 22 19  2  0  0  0  0
 22 20  1  0  0  0  0
 23 24  2  0  0  0  0
 25 31  1  0  0  0  0
 25 26  1  0  0  0  0
 27 28  1  0  0  0  0
 28 25  2  0  0  0  0
 29 26  1  0  0  0  0
 30 27  1  1  0  0  0
 30  3  1  0  0  0  0
 30 29  1  0  0  0  0
 32 31  1  0  0  0  0
 33 32  1  0  0  0  0
 34 37  1  0  0  0  0
 35 38  1  0  0  0  0
 35 33  1  0  0  0  0
 36 41  2  0  0  0  0
 36 37  1  0  0  0  0
 37 35  2  0  0  0  0
 39 36  1  0  0  0  0
 40 38  2  0  0  0  0
 41 40  1  0  0  0  0
M  END
>  <MODEL>
3

>  <REMARK>
 VINA RESULT:      -9.8      4.388      9.715
  Name = 
  7 active torsions:
  status: ('A' for Active; 'I' for Inactive)
    1  A    between atoms: C_5  and  C_6
    2  A    between atoms: C_5  and  C_12
    3  A    between atoms: C_12  and  N_14
    4  A    between atoms: N_14  and  C_16
    5  A    between atoms: C_15  and  C_31
    6  A    between atoms: C_26  and  C_37
    7  A    between atoms: C_30  and  N_36
                            x       y       z     vdW  Elec       q    Type
                         _______ _______ _______ _____ _____    ______ ____

>  <TORSDO>
F 7

$$$$
=
 OpenBabel11052412123D

 41 47  0  0  1  0  0  0  0  0999 V2000
  161.7220  207.0760  147.5470 C   0  0  0  0  0  2  0  0  0  0  0  0
  161.2370  208.4490  147.9960 C   0  0  0  0  0  2  0  0  0  0  0  0
  160.9950  207.5020  150.3850 C   0  0  2  0  0  3  0  0  0  0  0  0
  161.0440  205.9810  148.3710 C   0  0  2  0  0  3  0  0  0  0  0  0
  161.7650  209.7880  149.9760 N   0  0  0  0  0  0  0  0  0  0  0  0
  161.4390  206.1450  149.8380 C   0  0  0  0  0  2  0  0  0  0  0  0
  161.4470  208.6280  149.4750 C   0  0  0  0  0  0  0  0  0  0  0  0
  160.5290  212.5440  150.1670 N   0  0  0  0  0  0  0  0  0  0  0  0
  161.1960  214.2740  148.9280 O   0  0  0  0  0  0  0  0  0  0  0  0
  161.9400  213.2480  148.6200 C   0  0  0  0  0  0  0  0  0  0  0  0
  163.1590  210.8330  148.2930 N   0  0  0  0  0  0  0  0  0  0  0  0
  163.5630  211.8970  147.5280 C   0  0  0  0  0  3  0  0  0  0  0  0
  161.5560  212.1910  149.3770 C   0  0  0  0  0  0  0  0  0  0  0  0
  162.1780  210.9460  149.2380 C   0  0  0  0  0  0  0  0  0  0  0  0
  162.9560  213.1580  147.6750 C   0  0  0  0  0  3  0  0  0  0  0  0
  160.3480  213.8550  149.8550 C   0  0  0  0  0  3  0  0  0  0  0  0
  160.8540  201.2320  148.2440 C   0  0  0  0  0  2  0  0  0  0  0  0
  160.6130  203.0260  149.7590 C   0  0  0  0  0  3  0  0  0  0  0  0
  161.4240  204.6150  147.8780 C   0  0  0  0  0  0  0  0  0  0  0  0
  161.4880  202.4240  147.7330 N   0  0  0  0  0  0  0  0  0  0  0  0
  160.3470  201.7220  149.5850 C   0  0  0  0  0  3  0  0  0  0  0  0
  161.3310  203.4260  148.5660 C   0  0  0  0  0  0  0  0  0  0  0  0
  161.5820  204.2130  146.5450 C   0  0  0  0  0  3  0  0  0  0  0  0
  161.5850  202.8560  146.4890 N   0  0  0  0  0  0  0  0  0  0  0  0
  160.9720  207.5120  154.6880 C   0  0  0  0  0  0  0  0  0  0  0  0
  160.0960  208.4430  153.8980 C   0  0  0  0  0  2  0  0  0  0  0  0
  161.3390  206.2920  152.5940 C   0  0  0  0  0  2  0  0  0  0  0  0
  161.5800  206.4970  154.0620 C   0  0  0  0  0  3  0  0  0  0  0  0
  160.7790  208.8320  152.5800 C   0  0  0  0  0  2  0  0  0  0  0  0
  161.4350  207.6340  151.8490 C   0  0  2  0  0  3  0  0  0  0  0  0
  161.2500  207.7780  156.1290 C   0  0  0  0  0  2  0  0  0  0  0  0
  161.9640  209.1070  156.2800 C   0  0  0  0  0  2  0  0  0  0  0  0
  161.1060  210.0410  156.9910 N   0  0  0  0  0  2  0  0  0  0  0  0
  161.5810  211.4360  154.4980 F   0  0  0  0  0  0  0  0  0  0  0  0
  160.1480  210.9070  156.3690 C   0  0  0  0  0  0  0  0  0  0  0  0
  159.4190  212.4070  154.5950 C   0  0  0  0  0  0  0  0  0  0  0  0
  160.4010  211.5780  155.1520 C   0  0  0  0  0  0  0  0  0  0  0  0
  158.9120  211.0820  157.0010 C   0  0  0  0  0  3  0  0  0  0  0  0
  159.6540  213.0550  153.4280 F   0  0  0  0  0  0  0  0  0  0  0  0
  157.9360  211.9090  156.4410 C   0  0  0  0  0  3  0  0  0  0  0  0
  158.1900  212.5710  155.2380 C   0  0  0  0  0  3  0  0  0  0  0  0
  1  2  1  0  0  0  0
  1  4  1  0  0  0  0
  2  7  1  0  0  0  0
  3  6  1  6  0  0  0
  3 30  1  0  0  0  0
  4 19  1  6  0  0  0
  4  6  1  0  0  0  0
  7  5  2  0  0  0  0
  7  3  1  0  0  0  0
  9 16  1  0  0  0  0
 10  9  1  0  0  0  0
 10 13  2  0  0  0  0
 11 14  2  0  0  0  0
 12 15  2  0  0  0  0
 12 11  1  0  0  0  0
 13  8  1  0  0  0  0
 14 13  1  0  0  0  0
 14  5  1  0  0  0  0
 15 10  1  0  0  0  0
 16  8  2  0  0  0  0
 17 21  1  0  0  0  0
 19 22  2  0  0  0  0
 20 17  1  0  0  0  0
 20 22  1  0  0  0  0
 21 18  2  0  0  0  0
 22 18  1  0  0  0  0
 23 19  1  0  0  0  0
 24 23  2  0  0  0  0
 24 20  1  0  0  0  0
 25 31  1  0  0  0  0
 26 25  1  0  0  0  0
 27 28  1  0  0  0  0
 28 25  2  0  0  0  0
 29 26  1  0  0  0  0
 30 29  1  1  0  0  0
 30 27  1  0  0  0  0
 31 32  1  0  0  0  0
 32 33  1  0  0  0  0
 34 37  1  0  0  0  0
 35 33  1  0  0  0  0
 35 38  1  0  0  0  0
 36 37  1  0  0  0  0
 36 41  2  0  0  0  0
 37 35  2  0  0  0  0
 39 36  1  0  0  0  0
 40 38  2  0  0  0  0
 41 40  1  0  0  0  0
M  END
>  <MODEL>
4

>  <REMARK>
 VINA RESULT:      -9.3      3.547      7.497
  Name = 
  7 active torsions:
  status: ('A' for Active; 'I' for Inactive)
    1  A    between atoms: C_5  and  C_6
    2  A    between atoms: C_5  and  C_12
    3  A    between atoms: C_12  and  N_14
    4  A    between atoms: N_14  and  C_16
    5  A    between atoms: C_15  and  C_31
    6  A    between atoms: C_26  and  C_37
    7  A    between atoms: C_30  and  N_36
                            x       y       z     vdW  Elec       q    Type
                         _______ _______ _______ _____ _____    ______ ____

>  <TORSDO>
F 7

$$$$
=
 OpenBabel11052412123D

 41 47  0  0  1  0  0  0  0  0999 V2000
  161.1950  207.0300  151.2890 C   0  0  0  0  0  2  0  0  0  0  0  0
  161.7910  208.1480  152.1360 C   0  0  0  0  0  2  0  0  0  0  0  0
  162.1050  209.5200  149.9720 C   0  0  2  0  0  3  0  0  0  0  0  0
  161.8460  207.0100  149.9060 C   0  0  2  0  0  3  0  0  0  0  0  0
  161.4610  210.5740  152.0840 N   0  0  0  0  0  0  0  0  0  0  0  0
  161.5460  208.3280  149.1940 C   0  0  0  0  0  2  0  0  0  0  0  0
  161.6750  209.4700  151.4250 C   0  0  0  0  0  0  0  0  0  0  0  0
  158.7220  211.3480  153.1110 N   0  0  0  0  0  0  0  0  0  0  0  0
  158.2390  211.5500  155.2790 O   0  0  0  0  0  0  0  0  0  0  0  0
  159.4880  211.1870  155.1770 C   0  0  0  0  0  0  0  0  0  0  0  0
  162.0200  210.5010  154.4400 N   0  0  0  0  0  0  0  0  0  0  0  0
  161.7210  210.6330  155.7720 C   0  0  0  0  0  3  0  0  0  0  0  0
  159.7920  211.0440  153.8640 C   0  0  0  0  0  0  0  0  0  0  0  0
  161.0810  210.6780  153.4630 C   0  0  0  0  0  0  0  0  0  0  0  0
  160.4230  210.9820  156.1850 C   0  0  0  0  0  3  0  0  0  0  0  0
  157.7770  211.6480  154.0410 C   0  0  0  0  0  3  0  0  0  0  0  0
  161.8200  204.0600  146.1780 C   0  0  0  0  0  2  0  0  0  0  0  0
  162.3160  206.3020  146.7250 C   0  0  0  0  0  3  0  0  0  0  0  0
  161.3530  205.8510  149.0890 C   0  0  0  0  0  0  0  0  0  0  0  0
  161.1800  204.4400  147.4150 N   0  0  0  0  0  0  0  0  0  0  0  0
  162.5040  205.3560  145.7920 C   0  0  0  0  0  3  0  0  0  0  0  0
  161.4780  205.6790  147.7280 C   0  0  0  0  0  0  0  0  0  0  0  0
  161.0200  204.5720  149.5540 C   0  0  0  0  0  3  0  0  0  0  0  0
  160.9540  203.7210  148.4990 N   0  0  0  0  0  0  0  0  0  0  0  0
  162.0260  212.6900  147.0630 C   0  0  0  0  0  0  0  0  0  0  0  0
  163.2720  212.3720  147.8420 C   0  0  0  0  0  2  0  0  0  0  0  0
  161.1430  210.5450  147.8540 C   0  0  0  0  0  2  0  0  0  0  0  0
  161.0040  211.8270  147.0840 C   0  0  0  0  0  3  0  0  0  0  0  0
  162.9120  211.8540  149.2400 C   0  0  0  0  0  2  0  0  0  0  0  0
  161.7570  210.8210  149.2360 C   0  0  2  0  0  3  0  0  0  0  0  0
  161.8870  214.0010  146.3640 C   0  0  0  0  0  2  0  0  0  0  0  0
  160.5670  214.0510  145.6190 C   0  0  0  0  0  2  0  0  0  0  0  0
  160.8050  214.4140  144.2320 N   0  0  0  0  0  2  0  0  0  0  0  0
  162.9390  212.6310  143.4220 F   0  0  0  0  0  0  0  0  0  0  0  0
  160.7100  213.5120  143.1230 C   0  0  0  0  0  0  0  0  0  0  0  0
  161.6030  211.7890  141.6520 C   0  0  0  0  0  0  0  0  0  0  0  0
  161.7630  212.6500  142.7450 C   0  0  0  0  0  0  0  0  0  0  0  0
  159.5150  213.4880  142.3950 C   0  0  0  0  0  3  0  0  0  0  0  0
  162.6100  210.9600  141.2830 F   0  0  0  0  0  0  0  0  0  0  0  0
  159.3600  212.6270  141.3070 C   0  0  0  0  0  3  0  0  0  0  0  0
  160.4030  211.7780  140.9360 C   0  0  0  0  0  3  0  0  0  0  0  0
  1  2  1  0  0  0  0
  3  6  1  6  0  0  0
  3  7  1  0  0  0  0
  4 19  1  6  0  0  0
  4  1  1  0  0  0  0
  5 14  1  0  0  0  0
  6  4  1  0  0  0  0
  7  5  2  0  0  0  0
  7  2  1  0  0  0  0
  8 13  1  0  0  0  0
  8 16  2  0  0  0  0
 10  9  1  0  0  0  0
 10 15  1  0  0  0  0
 11 12  1  0  0  0  0
 12 15  2  0  0  0  0
 13 10  2  0  0  0  0
 14 13  1  0  0  0  0
 14 11  2  0  0  0  0
 16  9  1  0  0  0  0
 17 20  1  0  0  0  0
 18 22  1  0  0  0  0
 19 23  1  0  0  0  0
 20 22  1  0  0  0  0
 20 24  1  0  0  0  0
 21 17  1  0  0  0  0
 21 18  2  0  0  0  0
 22 19  2  0  0  0  0
 24 23  2  0  0  0  0
 25 28  2  0  0  0  0
 25 26  1  0  0  0  0
 26 29  1  0  0  0  0
 28 27  1  0  0  0  0
 30 27  1  6  0  0  0
 30 29  1  0  0  0  0
 30  3  1  0  0  0  0
 31 25  1  0  0  0  0
 32 31  1  0  0  0  0
 33 32  1  0  0  0  0
 35 33  1  0  0  0  0
 36 37  2  0  0  0  0
 37 35  1  0  0  0  0
 37 34  1  0  0  0  0
 38 35  2  0  0  0  0
 39 36  1  0  0  0  0
 40 38  1  0  0  0  0
 41 40  2  0  0  0  0
 41 36  1  0  0  0  0
M  END
>  <MODEL>
5

>  <REMARK>
 VINA RESULT:      -9.2      1.999      2.960
  Name = 
  7 active torsions:
  status: ('A' for Active; 'I' for Inactive)
    1  A    between atoms: C_5  and  C_6
    2  A    between atoms: C_5  and  C_12
    3  A    between atoms: C_12  and  N_14
    4  A    between atoms: N_14  and  C_16
    5  A    between atoms: C_15  and  C_31
    6  A    between atoms: C_26  and  C_37
    7  A    between atoms: C_30  and  N_36
                            x       y       z     vdW  Elec       q    Type
                         _______ _______ _______ _____ _____    ______ ____

>  <TORSDO>
F 7

$$$$
=
 OpenBabel11052412123D

 41 47  0  0  1  0  0  0  0  0999 V2000
  161.1030  207.6360  150.8910 C   0  0  0  0  0  2  0  0  0  0  0  0
  161.3650  208.7780  151.8650 C   0  0  0  0  0  2  0  0  0  0  0  0
  162.1730  210.2000  149.8680 C   0  0  2  0  0  3  0  0  0  0  0  0
  162.1110  207.6780  149.7430 C   0  0  2  0  0  3  0  0  0  0  0  0
  160.8990  211.1770  151.7140 N   0  0  0  0  0  0  0  0  0  0  0  0
  161.9320  208.9850  148.9700 C   0  0  0  0  0  2  0  0  0  0  0  0
  161.3620  210.1000  151.1450 C   0  0  0  0  0  0  0  0  0  0  0  0
  162.0020  210.7380  154.4970 N   0  0  0  0  0  0  0  0  0  0  0  0
  160.7400  210.7830  156.3360 O   0  0  0  0  0  0  0  0  0  0  0  0
  159.9690  211.0280  155.3130 C   0  0  0  0  0  0  0  0  0  0  0  0
  158.7940  211.4240  152.8860 N   0  0  0  0  0  0  0  0  0  0  0  0
  158.0200  211.4450  154.0180 C   0  0  0  0  0  3  0  0  0  0  0  0
  160.7260  211.0190  154.1880 C   0  0  0  0  0  0  0  0  0  0  0  0
  160.1470  211.2360  152.9330 C   0  0  0  0  0  0  0  0  0  0  0  0
  158.5960  211.2470  155.2860 C   0  0  0  0  0  3  0  0  0  0  0  0
  161.9600  210.6080  155.8500 C   0  0  0  0  0  3  0  0  0  0  0  0
  160.7300  203.2820  148.5740 C   0  0  0  0  0  2  0  0  0  0  0  0
  161.4920  204.5190  150.4340 C   0  0  0  0  0  3  0  0  0  0  0  0
  161.9430  206.5020  148.8260 C   0  0  0  0  0  0  0  0  0  0  0  0
  161.4120  204.4820  148.1480 N   0  0  0  0  0  0  0  0  0  0  0  0
  160.8710  203.3840  150.0790 C   0  0  0  0  0  3  0  0  0  0  0  0
  161.8120  205.1790  149.1850 C   0  0  0  0  0  0  0  0  0  0  0  0
  161.5120  206.5260  147.4940 C   0  0  0  0  0  3  0  0  0  0  0  0
  161.1620  205.2700  147.1180 N   0  0  0  0  0  0  0  0  0  0  0  0
  162.0670  213.0450  146.6420 C   0  0  0  0  0  0  0  0  0  0  0  0
  163.3650  212.4740  147.1410 C   0  0  0  0  0  2  0  0  0  0  0  0
  160.9500  211.2740  147.9140 C   0  0  0  0  0  2  0  0  0  0  0  0
  160.9150  212.4840  147.0270 C   0  0  0  0  0  3  0  0  0  0  0  0
  163.2770  212.1780  148.6440 C   0  0  0  0  0  2  0  0  0  0  0  0
  161.9550  211.4850  149.0590 C   0  0  2  0  0  3  0  0  0  0  0  0
  162.0570  214.2890  145.8180 C   0  0  0  0  0  2  0  0  0  0  0  0
  161.4120  214.0130  144.4740 C   0  0  0  0  0  2  0  0  0  0  0  0
  162.1860  213.0090  143.7610 N   0  0  0  0  0  2  0  0  0  0  0  0
  163.6670  214.1730  141.5620 F   0  0  0  0  0  0  0  0  0  0  0  0
  161.9880  212.6470  142.3890 C   0  0  0  0  0  0  0  0  0  0  0  0
  162.4820  212.8240  140.0110 C   0  0  0  0  0  0  0  0  0  0  0  0
  162.7220  213.2270  141.3320 C   0  0  0  0  0  0  0  0  0  0  0  0
  161.0290  211.6700  142.0990 C   0  0  0  0  0  3  0  0  0  0  0  0
  163.1810  213.3780  138.9910 F   0  0  0  0  0  0  0  0  0  0  0  0
  160.7940  211.2710  140.7810 C   0  0  0  0  0  3  0  0  0  0  0  0
  161.5210  211.8480  139.7380 C   0  0  0  0  0  3  0  0  0  0  0  0
  1  2  1  0  0  0  0
  3  6  1  6  0  0  0
  3  7  1  0  0  0  0
  4 19  1  6  0  0  0
  4  1  1  0  0  0  0
  5 14  1  0  0  0  0
  6  4  1  0  0  0  0
  7  5  2  0  0  0  0
  7  2  1  0  0  0  0
  8 16  2  0  0  0  0
 10  9  1  0  0  0  0
 11 14  2  0  0  0  0
 11 12  1  0  0  0  0
 12 15  2  0  0  0  0
 13  8  1  0  0  0  0
 13 10  2  0  0  0  0
 14 13  1  0  0  0  0
 15 10  1  0  0  0  0
 16  9  1  0  0  0  0
 17 21  1  0  0  0  0
 19 22  2  0  0  0  0
 20 17  1  0  0  0  0
 20 22  1  0  0  0  0
 21 18  2  0  0  0  0
 22 18  1  0  0  0  0
 23 19  1  0  0  0  0
 24 23  2  0  0  0  0
 24 20  1  0  0  0  0
 25 28  2  0  0  0  0
 25 26  1  0  0  0  0
 26 29  1  0  0  0  0
 28 27  1  0  0  0  0
 29 30  1  0  0  0  0
 30 27  1  6  0  0  0
 30  3  1  0  0  0  0
 31 25  1  0  0  0  0
 32 31  1  0  0  0  0
 33 32  1  0  0  0  0
 35 33  1  0  0  0  0
 36 37  1  0  0  0  0
 37 34  1  0  0  0  0
 37 35  2  0  0  0  0
 38 35  1  0  0  0  0
 39 36  1  0  0  0  0
 40 38  2  0  0  0  0
 41 36  2  0  0  0  0
 41 40  1  0  0  0  0
M  END
>  <MODEL>
6

>  <REMARK>
 VINA RESULT:      -9.0      2.114      3.479
  Name = 
  7 active torsions:
  status: ('A' for Active; 'I' for Inactive)
    1  A    between atoms: C_5  and  C_6
    2  A    between atoms: C_5  and  C_12
    3  A    between atoms: C_12  and  N_14
    4  A    between atoms: N_14  and  C_16
    5  A    between atoms: C_15  and  C_31
    6  A    between atoms: C_26  and  C_37
    7  A    between atoms: C_30  and  N_36
                            x       y       z     vdW  Elec       q    Type
                         _______ _______ _______ _____ _____    ______ ____

>  <TORSDO>
F 7

$$$$
=
 OpenBabel11052412123D

 41 47  0  0  1  0  0  0  0  0999 V2000
  159.2120  213.0270  151.2500 C   0  0  0  0  0  2  0  0  0  0  0  0
  160.5590  213.1370  150.5460 C   0  0  0  0  0  2  0  0  0  0  0  0
  161.2770  210.9600  151.7330 C   0  0  2  0  0  3  0  0  0  0  0  0
  159.3860  212.3780  152.6230 C   0  0  2  0  0  3  0  0  0  0  0  0
  161.9500  211.4570  149.4340 N   0  0  0  0  0  0  0  0  0  0  0  0
  159.9200  210.9570  152.4390 C   0  0  0  0  0  2  0  0  0  0  0  0
  161.2270  211.7910  150.4650 C   0  0  0  0  0  0  0  0  0  0  0  0
  159.6010  212.1980  147.6760 N   0  0  0  0  0  0  0  0  0  0  0  0
  159.8190  213.2390  145.7150 O   0  0  0  0  0  0  0  0  0  0  0  0
  161.0110  213.0860  146.2240 C   0  0  0  0  0  0  0  0  0  0  0  0
  163.2460  212.4790  147.6600 N   0  0  0  0  0  0  0  0  0  0  0  0
  163.3760  213.1130  146.4510 C   0  0  0  0  0  3  0  0  0  0  0  0
  160.8930  212.4690  147.4250 C   0  0  0  0  0  0  0  0  0  0  0  0
  162.0250  212.1610  148.1870 C   0  0  0  0  0  0  0  0  0  0  0  0
  162.2420  213.4430  145.6870 C   0  0  0  0  0  3  0  0  0  0  0  0
  158.9720  212.7060  146.5830 C   0  0  0  0  0  3  0  0  0  0  0  0
  156.6710  212.0810  156.5140 C   0  0  0  0  0  2  0  0  0  0  0  0
  158.7250  211.2910  155.6610 C   0  0  0  0  0  3  0  0  0  0  0  0
  158.0910  212.3540  153.3820 C   0  0  0  0  0  0  0  0  0  0  0  0
  156.7010  212.1840  155.0740 N   0  0  0  0  0  0  0  0  0  0  0  0
  158.0210  211.4530  156.7920 C   0  0  0  0  0  3  0  0  0  0  0  0
  157.8540  211.7670  154.6050 C   0  0  0  0  0  0  0  0  0  0  0  0
  156.9970  213.2110  153.2100 C   0  0  0  0  0  3  0  0  0  0  0  0
  156.1770  213.1050  154.2870 N   0  0  0  0  0  0  0  0  0  0  0  0
  161.3320  206.6800  151.2920 C   0  0  0  0  0  0  0  0  0  0  0  0
  160.8310  207.3320  152.5510 C   0  0  0  0  0  2  0  0  0  0  0  0
  161.2060  208.8950  150.2510 C   0  0  0  0  0  2  0  0  0  0  0  0
  161.5290  207.4300  150.2010 C   0  0  0  0  0  3  0  0  0  0  0  0
  161.5850  208.6430  152.8120 C   0  0  0  0  0  2  0  0  0  0  0  0
  161.7600  209.5160  151.5450 C   0  0  2  0  0  3  0  0  0  0  0  0
  161.7110  205.2370  151.2890 C   0  0  0  0  0  2  0  0  0  0  0  0
  160.6180  204.4180  150.6320 C   0  0  0  0  0  2  0  0  0  0  0  0
  161.2150  203.3350  149.8680 N   0  0  0  0  0  2  0  0  0  0  0  0
  160.4560  200.9460  148.4170 F   0  0  0  0  0  0  0  0  0  0  0  0
  161.2060  203.2420  148.4370 C   0  0  0  0  0  0  0  0  0  0  0  0
  160.8400  202.0440  146.3500 C   0  0  0  0  0  0  0  0  0  0  0  0
  160.8310  202.0670  147.7500 C   0  0  0  0  0  0  0  0  0  0  0  0
  161.5780  204.3730  147.7020 C   0  0  0  0  0  3  0  0  0  0  0  0
  160.4840  200.9190  145.6830 F   0  0  0  0  0  0  0  0  0  0  0  0
  161.5840  204.3460  146.3060 C   0  0  0  0  0  3  0  0  0  0  0  0
  161.2150  203.1810  145.6300 C   0  0  0  0  0  3  0  0  0  0  0  0
  1  4  1  0  0  0  0
  2  1  1  0  0  0  0
  3  6  1  6  0  0  0
  4 19  1  6  0  0  0
  5  7  2  0  0  0  0
  6  4  1  0  0  0  0
  7  2  1  0  0  0  0
  7  3  1  0  0  0  0
  9 10  1  0  0  0  0
  9 16  1  0  0  0  0
 10 13  2  0  0  0  0
 11 14  2  0  0  0  0
 12 11  1  0  0  0  0
 13  8  1  0  0  0  0
 13 14  1  0  0  0  0
 14  5  1  0  0  0  0
 15 10  1  0  0  0  0
 15 12  2  0  0  0  0
 16  8  2  0  0  0  0
 17 21  1  0  0  0  0
 18 21  2  0  0  0  0
 19 22  2  0  0  0  0
 20 17  1  0  0  0  0
 22 20  1  0  0  0  0
 22 18  1  0  0  0  0
 23 19  1  0  0  0  0
 23 24  2  0  0  0  0
 24 20  1  0  0  0  0
 25 26  1  0  0  0  0
 26 29  1  0  0  0  0
 28 27  1  0  0  0  0
 28 25  2  0  0  0  0
 30 27  1  6  0  0  0
 30  3  1  0  0  0  0
 30 29  1  0  0  0  0
 31 25  1  0  0  0  0
 32 31  1  0  0  0  0
 33 32  1  0  0  0  0
 35 33  1  0  0  0  0
 36 37  2  0  0  0  0
 37 34  1  0  0  0  0
 37 35  1  0  0  0  0
 38 35  2  0  0  0  0
 39 36  1  0  0  0  0
 40 38  1  0  0  0  0
 41 40  2  0  0  0  0
 41 36  1  0  0  0  0
M  END
>  <MODEL>
7

>  <REMARK>
 VINA RESULT:      -8.9      4.338      9.605
  Name = 
  7 active torsions:
  status: ('A' for Active; 'I' for Inactive)
    1  A    between atoms: C_5  and  C_6
    2  A    between atoms: C_5  and  C_12
    3  A    between atoms: C_12  and  N_14
    4  A    between atoms: N_14  and  C_16
    5  A    between atoms: C_15  and  C_31
    6  A    between atoms: C_26  and  C_37
    7  A    between atoms: C_30  and  N_36
                            x       y       z     vdW  Elec       q    Type
                         _______ _______ _______ _____ _____    ______ ____

>  <TORSDO>
F 7

$$$$
=
 OpenBabel11052412123D

 41 47  0  0  1  0  0  0  0  0999 V2000
  160.9270  205.9130  152.9240 C   0  0  0  0  0  2  0  0  0  0  0  0
  160.4540  205.7060  151.4900 C   0  0  0  0  0  2  0  0  0  0  0  0
  161.1010  208.1560  150.9990 C   0  0  2  0  0  3  0  0  0  0  0  0
  160.6800  207.3580  153.3580 C   0  0  2  0  0  3  0  0  0  0  0  0
  161.4280  206.3820  149.3470 N   0  0  0  0  0  0  0  0  0  0  0  0
  161.5010  208.2920  152.4690 C   0  0  0  0  0  2  0  0  0  0  0  0
  161.1040  206.7030  150.5680 C   0  0  0  0  0  0  0  0  0  0  0  0
  161.7920  205.6900  146.4240 N   0  0  0  0  0  0  0  0  0  0  0  0
  161.7400  203.6000  145.6450 O   0  0  0  0  0  0  0  0  0  0  0  0
  161.5730  203.5510  146.9380 C   0  0  0  0  0  0  0  0  0  0  0  0
  161.2030  203.9830  149.6030 N   0  0  0  0  0  0  0  0  0  0  0  0
  161.1650  202.7000  149.1190 C   0  0  0  0  0  3  0  0  0  0  0  0
  161.6180  204.8150  147.4280 C   0  0  0  0  0  0  0  0  0  0  0  0
  161.4460  205.0580  148.7950 C   0  0  0  0  0  0  0  0  0  0  0  0
  161.3550  202.4440  147.7490 C   0  0  0  0  0  3  0  0  0  0  0  0
  161.8710  204.8810  145.3340 C   0  0  0  0  0  3  0  0  0  0  0  0
  161.5770  209.9200  157.2610 C   0  0  0  0  0  2  0  0  0  0  0  0
  161.7860  210.0420  154.9130 C   0  0  0  0  0  3  0  0  0  0  0  0
  161.0390  207.5620  154.8010 C   0  0  0  0  0  0  0  0  0  0  0  0
  161.5270  208.6030  156.6720 N   0  0  0  0  0  0  0  0  0  0  0  0
  161.7840  210.7820  156.0320 C   0  0  0  0  0  3  0  0  0  0  0  0
  161.6190  208.6760  155.3650 C   0  0  0  0  0  0  0  0  0  0  0  0
  160.5350  206.8600  155.9030 C   0  0  0  0  0  3  0  0  0  0  0  0
  160.8260  207.5460  157.0370 N   0  0  0  0  0  0  0  0  0  0  0  0
  162.3600  211.3620  148.4190 C   0  0  0  0  0  0  0  0  0  0  0  0
  161.3850  210.3170  147.9530 C   0  0  0  0  0  2  0  0  0  0  0  0
  161.9640  210.5280  150.6890 C   0  0  0  0  0  2  0  0  0  0  0  0
  162.6500  211.4490  149.7230 C   0  0  0  0  0  3  0  0  0  0  0  0
  161.6800  208.9700  148.6260 C   0  0  0  0  0  2  0  0  0  0  0  0
  161.9670  209.0900  150.1430 C   0  0  2  0  0  3  0  0  0  0  0  0
  163.0790  212.2180  147.4320 C   0  0  0  0  0  2  0  0  0  0  0  0
  162.4700  213.6060  147.4120 C   0  0  0  0  0  2  0  0  0  0  0  0
  161.3040  213.6130  146.5440 N   0  0  0  0  0  2  0  0  0  0  0  0
  159.3120  212.1630  145.0220 F   0  0  0  0  0  0  0  0  0  0  0  0
  159.9550  213.4140  146.9860 C   0  0  0  0  0  0  0  0  0  0  0  0
  157.6980  212.5410  146.7190 C   0  0  0  0  0  0  0  0  0  0  0  0
  159.0000  212.7030  146.2270 C   0  0  0  0  0  0  0  0  0  0  0  0
  159.5830  213.9460  148.2260 C   0  0  0  0  0  3  0  0  0  0  0  0
  156.7750  211.8610  145.9960 F   0  0  0  0  0  0  0  0  0  0  0  0
  158.2850  213.7810  148.7120 C   0  0  0  0  0  3  0  0  0  0  0  0
  157.3430  213.0780  147.9590 C   0  0  0  0  0  3  0  0  0  0  0  0
  1  4  1  0  0  0  0
  2  1  1  0  0  0  0
  3  6  1  1  0  0  0
  4 19  1  1  0  0  0
  5  7  2  0  0  0  0
  6  4  1  0  0  0  0
  7  3  1  0  0  0  0
  7  2  1  0  0  0  0
  8 13  1  0  0  0  0
  9 10  1  0  0  0  0
 10 13  2  0  0  0  0
 10 15  1  0  0  0  0
 12 11  1  0  0  0  0
 13 14  1  0  0  0  0
 14  5  1  0  0  0  0
 14 11  2  0  0  0  0
 15 12  2  0  0  0  0
 16  9  1  0  0  0  0
 16  8  2  0  0  0  0
 18 22  1  0  0  0  0
 18 21  2  0  0  0  0
 19 22  2  0  0  0  0
 19 23  1  0  0  0  0
 20 24  1  0  0  0  0
 20 17  1  0  0  0  0
 21 17  1  0  0  0  0
 22 20  1  0  0  0  0
 23 24  2  0  0  0  0
 25 28  2  0  0  0  0
 26 25  1  0  0  0  0
 26 29  1  0  0  0  0
 28 27  1  0  0  0  0
 30 29  1  6  0  0  0
 30 27  1  0  0  0  0
 30  3  1  0  0  0  0
 31 25  1  0  0  0  0
 32 31  1  0  0  0  0
 33 35  1  0  0  0  0
 33 32  1  0  0  0  0
 34 37  1  0  0  0  0
 35 38  1  0  0  0  0
 36 41  2  0  0  0  0
 37 36  1  0  0  0  0
 37 35  2  0  0  0  0
 38 40  2  0  0  0  0
 39 36  1  0  0  0  0
 41 40  1  0  0  0  0
M  END
>  <MODEL>
8

>  <REMARK>
 VINA RESULT:      -8.7      3.045      6.969
  Name = 
  7 active torsions:
  status: ('A' for Active; 'I' for Inactive)
    1  A    between atoms: C_5  and  C_6
    2  A    between atoms: C_5  and  C_12
    3  A    between atoms: C_12  and  N_14
    4  A    between atoms: N_14  and  C_16
    5  A    between atoms: C_15  and  C_31
    6  A    between atoms: C_26  and  C_37
    7  A    between atoms: C_30  and  N_36
                            x       y       z     vdW  Elec       q    Type
                         _______ _______ _______ _____ _____    ______ ____

>  <TORSDO>
F 7

$$$$
=
 OpenBabel11052412123D

 41 47  0  0  1  0  0  0  0  0999 V2000
  161.0210  205.9780  152.6450 C   0  0  0  0  0  2  0  0  0  0  0  0
  160.5200  205.8180  151.2140 C   0  0  0  0  0  2  0  0  0  0  0  0
  161.1380  208.2890  150.7970 C   0  0  2  0  0  3  0  0  0  0  0  0
  160.7730  207.4050  153.1340 C   0  0  2  0  0  3  0  0  0  0  0  0
  161.4450  206.5760  149.0780 N   0  0  0  0  0  0  0  0  0  0  0  0
  161.5680  208.3770  152.2620 C   0  0  0  0  0  2  0  0  0  0  0  0
  161.1440  206.8510  150.3150 C   0  0  0  0  0  0  0  0  0  0  0  0
  161.8030  205.9870  146.1310 N   0  0  0  0  0  0  0  0  0  0  0  0
  161.7480  203.9270  145.2780 O   0  0  0  0  0  0  0  0  0  0  0  0
  161.5840  203.8320  146.5690 C   0  0  0  0  0  0  0  0  0  0  0  0
  161.2190  204.1700  149.2480 N   0  0  0  0  0  0  0  0  0  0  0  0
  161.1800  202.9050  148.7200 C   0  0  0  0  0  3  0  0  0  0  0  0
  161.6300  205.0770  147.1040 C   0  0  0  0  0  0  0  0  0  0  0  0
  161.4610  205.2730  148.4790 C   0  0  0  0  0  0  0  0  0  0  0  0
  161.3670  202.6970  147.3410 C   0  0  0  0  0  3  0  0  0  0  0  0
  161.8790  205.2180  145.0130 C   0  0  0  0  0  3  0  0  0  0  0  0
  161.4290  209.7950  157.1910 C   0  0  0  0  0  2  0  0  0  0  0  0
  161.5110  210.1150  154.8530 C   0  0  0  0  0  3  0  0  0  0  0  0
  161.1590  207.5610  154.5760 C   0  0  0  0  0  0  0  0  0  0  0  0
  161.5610  208.5320  156.5050 N   0  0  0  0  0  0  0  0  0  0  0  0
  161.4430  210.7640  156.0260 C   0  0  0  0  0  3  0  0  0  0  0  0
  161.5810  208.7120  155.2050 C   0  0  0  0  0  0  0  0  0  0  0  0
  160.8220  206.7110  155.6360 C   0  0  0  0  0  3  0  0  0  0  0  0
  161.0520  207.3530  156.8100 N   0  0  0  0  0  0  0  0  0  0  0  0
  162.3330  211.6260  148.3570 C   0  0  0  0  0  0  0  0  0  0  0  0
  161.3160  210.6290  147.8780 C   0  0  0  0  0  2  0  0  0  0  0  0
  162.0330  210.6600  150.5900 C   0  0  0  0  0  2  0  0  0  0  0  0
  162.6890  211.6280  149.6480 C   0  0  0  0  0  3  0  0  0  0  0  0
  161.6170  209.2380  148.4520 C   0  0  0  0  0  2  0  0  0  0  0  0
  161.9800  209.2590  149.9570 C   0  0  2  0  0  3  0  0  0  0  0  0
  163.0200  212.5300  147.3890 C   0  0  0  0  0  2  0  0  0  0  0  0
  162.3560  213.8930  147.3950 C   0  0  0  0  0  2  0  0  0  0  0  0
  162.1130  214.3210  146.0280 N   0  0  0  0  0  2  0  0  0  0  0  0
  163.6510  213.4650  143.7290 F   0  0  0  0  0  0  0  0  0  0  0  0
  161.5910  213.4830  144.9890 C   0  0  0  0  0  0  0  0  0  0  0  0
  161.7890  212.2530  142.8970 C   0  0  0  0  0  0  0  0  0  0  0  0
  162.3590  213.0770  143.8760 C   0  0  0  0  0  0  0  0  0  0  0  0
  160.2650  213.0490  145.0980 C   0  0  0  0  0  3  0  0  0  0  0  0
  162.5200  211.8600  141.8250 F   0  0  0  0  0  0  0  0  0  0  0  0
  159.7020  212.2260  144.1200 C   0  0  0  0  0  3  0  0  0  0  0  0
  160.4640  211.8280  143.0200 C   0  0  0  0  0  3  0  0  0  0  0  0
  1  4  1  0  0  0  0
  2  1  1  0  0  0  0
  3  6  1  1  0  0  0
  4 19  1  1  0  0  0
  5  7  2  0  0  0  0
  6  4  1  0  0  0  0
  7  3  1  0  0  0  0
  7  2  1  0  0  0  0
  8 13  1  0  0  0  0
  9 10  1  0  0  0  0
 10 13  2  0  0  0  0
 10 15  1  0  0  0  0
 12 11  1  0  0  0  0
 13 14  1  0  0  0  0
 14  5  1  0  0  0  0
 14 11  2  0  0  0  0
 15 12  2  0  0  0  0
 16  9  1  0  0  0  0
 16  8  2  0  0  0  0
 18 22  1  0  0  0  0
 18 21  2  0  0  0  0
 19 22  2  0  0  0  0
 19 23  1  0  0  0  0
 20 24  1  0  0  0  0
 20 17  1  0  0  0  0
 21 17  1  0  0  0  0
 22 20  1  0  0  0  0
 23 24  2  0  0  0  0
 25 28  2  0  0  0  0
 26 25  1  0  0  0  0
 26 29  1  0  0  0  0
 28 27  1  0  0  0  0
 30 29  1  6  0  0  0
 30 27  1  0  0  0  0
 30  3  1  0  0  0  0
 31 32  1  0  0  0  0
 31 25  1  0  0  0  0
 33 32  1  0  0  0  0
 34 37  1  0  0  0  0
 35 38  1  0  0  0  0
 35 33  1  0  0  0  0
 36 41  2  0  0  0  0
 36 37  1  0  0  0  0
 37 35  2  0  0  0  0
 39 36  1  0  0  0  0
 40 38  2  0  0  0  0
 41 40  1  0  0  0  0
M  END
>  <MODEL>
9

>  <REMARK>
 VINA RESULT:      -8.7      2.569      6.655
  Name = 
  7 active torsions:
  status: ('A' for Active; 'I' for Inactive)
    1  A    between atoms: C_5  and  C_6
    2  A    between atoms: C_5  and  C_12
    3  A    between atoms: C_12  and  N_14
    4  A    between atoms: N_14  and  C_16
    5  A    between atoms: C_15  and  C_31
    6  A    between atoms: C_26  and  C_37
    7  A    between atoms: C_30  and  N_36
                            x       y       z     vdW  Elec       q    Type
                         _______ _______ _______ _____ _____    ______ ____

>  <TORSDO>
F 7

$$$$
