=
 OpenBabel11042420513D

 52 60  0  0  1  0  0  0  0  0999 V2000
  160.3600  211.7210  151.2240 C   0  0  0  0  0  2  0  0  0  0  0  0
  160.5810  209.4910  154.3030 C   0  0  0  0  0  0  0  0  0  0  0  0
  160.8690  210.0400  153.0460 C   0  0  0  0  0  0  0  0  0  0  0  0
  161.9710  209.5540  152.2690 N   0  0  0  0  0  2  0  0  0  0  0  0
  161.3680  208.4250  154.8260 N   0  0  0  0  0  1  0  0  0  0  0  0
  159.5370  209.9740  155.0290 N   0  0  0  0  0  0  0  0  0  0  0  0
  161.8090  211.4860  150.7880 C   0  0  1  0  0  3  0  0  0  0  0  0
  158.7470  210.9810  154.5670 C   0  0  0  0  0  0  0  0  0  0  0  0
  162.1930  210.0000  150.8930 C   0  0  2  0  0  3  0  0  0  0  0  0
  159.0090  211.5660  153.3260 C   0  0  0  0  0  3  0  0  0  0  0  0
  160.0860  211.1070  152.5670 C   0  0  0  0  0  0  0  0  0  0  0  0
  161.0780  207.8310  150.5360 N   0  0  0  0  0  2  0  0  0  0  0  0
  161.3990  209.1140  149.9190 C   0  0  2  0  0  3  0  0  0  0  0  0
  161.9790  207.1750  149.5990 C   0  0  1  0  0  3  0  0  0  0  0  0
  161.5340  207.4160  148.1690 C   0  0  1  0  0  3  0  0  0  0  0  0
  162.3190  208.4730  148.9090 C   0  0  1  0  0  3  0  0  0  0  0  0
  163.1570  204.7260  146.3010 O   0  0  0  0  0  0  0  0  0  0  0  0
  161.2790  204.5460  147.6830 N   0  0  0  0  0  2  0  0  0  0  0  0
  162.3210  205.2990  147.0500 C   0  0  0  0  0  0  0  0  0  0  0  0
  162.4200  206.7080  147.2600 N   0  0  0  0  0  2  0  0  0  0  0  0
  161.2230  203.0890  147.6830 C   0  0  1  0  0  0  0  0  0  0  0  0
  159.9610  201.2760  144.7610 C   0  0  0  0  0  1  0  0  0  0  0  0
  160.0580  202.5540  146.8820 C   0  0  1  0  0  3  0  0  0  0  0  0
  161.4800  202.3870  146.3660 C   0  0  2  0  0  3  0  0  0  0  0  0
  160.4700  201.2700  146.1870 C   0  0  2  0  0  3  0  0  0  0  0  0
  161.3560  202.2450  151.4450 C   0  0  0  0  0  3  0  0  0  0  0  0
  160.9110  203.1520  152.3120 C   0  0  0  0  0  2  0  0  0  0  0  0
  160.4450  204.3180  151.6270 N   0  0  0  0  0  0  0  0  0  0  0  0
  161.1520  202.8880  150.1600 C   0  0  0  0  0  0  0  0  0  0  0  0
  160.5830  204.1670  150.3750 N   0  0  0  0  0  0  0  0  0  0  0  0
  161.4630  202.3710  148.9740 C   0  0  0  0  0  2  0  0  0  0  0  0
  163.8890  211.8610  147.4980 O   0  0  0  0  0  0  0  0  0  0  0  0
  162.0290  212.0170  149.4530 N   0  0  0  0  0  0  0  0  0  0  0  0
  162.8590  212.1240  148.1700 C   0  0  0  0  0  0  0  0  0  0  0  0
  161.5950  212.6860  148.3080 C   0  0  1  0  0  3  0  0  0  0  0  0
  160.5430  211.8450  147.6120 C   0  0  0  0  0  2  0  0  0  0  0  0
  159.6110  212.7200  146.7870 C   0  0  0  0  0  2  0  0  0  0  0  0
  160.3570  213.4090  142.4960 C   0  0  0  0  0  2  0  0  0  0  0  0
  162.1900  213.0050  144.2170 C   0  0  0  0  0  2  0  0  0  0  0  0
  161.2560  213.5280  145.3130 C   0  0  0  0  0  2  0  0  0  0  0  0
  159.0200  213.4530  144.6480 C   0  0  0  0  0  2  0  0  0  0  0  0
  160.0400  212.7260  145.3970 N   0  0  0  0  0  0  0  0  0  0  0  0
  161.4680  212.4770  142.9710 C   0  0  2  0  0  3  0  0  0  0  0  0
  159.0360  213.0460  143.1740 C   0  0  0  0  0  2  0  0  0  0  0  0
  162.4350  212.2700  141.9040 N   0  0  0  0  0  2  0  0  0  0  0  0
  161.6810  212.0980  140.6660 C   0  0  1  0  0  3  0  0  0  0  0  0
  162.4390  212.7150  139.5010 C   0  0  0  0  0  1  0  0  0  0  0  0
  160.2480  210.4340  139.3970 C   0  0  0  0  0  1  0  0  0  0  0  0
  162.5240  209.9740  139.9410 O   0  0  0  0  0  1  0  0  0  0  0  0
  161.3770  210.6230  140.4000 C   0  0  1  0  0  3  0  0  0  0  0  0
  157.6570  211.4610  155.3670 C   0  0  0  0  0  0  0  0  0  0  0  0
  156.7780  211.8450  156.0150 N   0  0  0  0  0  0  0  0  0  0  0  0
  1 11  1  0  0  0  0
  2  5  1  0  0  0  0
  2  6  1  0  0  0  0
  3  2  2  0  0  0  0
  4  3  1  0  0  0  0
  7 33  1  6  0  0  0
  7  9  1  0  0  0  0
  7  1  1  0  0  0  0
  8  6  2  0  0  0  0
  8 51  1  0  0  0  0
  9  4  1  1  0  0  0
 10  8  1  0  0  0  0
 11  3  1  0  0  0  0
 11 10  2  0  0  0  0
 13 12  1  1  0  0  0
 13  9  1  0  0  0  0
 14 12  1  1  0  0  0
 15 20  1  6  0  0  0
 15 16  1  0  0  0  0
 15 14  1  0  0  0  0
 16 14  1  0  0  0  0
 16 13  1  0  0  0  0
 17 19  2  0  0  0  0
 19 20  1  0  0  0  0
 19 18  1  0  0  0  0
 21 18  1  0  0  0  0
 21 31  1  0  0  0  0
 22 25  1  0  0  0  0
 23 21  1  0  0  0  0
 24 23  1  0  0  0  0
 24 21  1  0  0  0  0
 25 24  1  0  0  0  0
 25 23  1  0  0  0  0
 26 27  1  0  0  0  0
 28 27  1  0  0  0  0
 29 30  1  0  0  0  0
 29 26  2  0  0  0  0
 30 28  2  0  0  0  0
 31 29  1  0  0  0  0
 32 34  2  0  0  0  0
 34 35  1  0  0  0  0
 34 33  1  0  0  0  0
 35 33  1  0  0  0  0
 36 35  1  0  0  0  0
 37 36  1  0  0  0  0
 38 43  1  0  0  0  0
 38 44  1  0  0  0  0
 39 40  1  0  0  0  0
 40 42  1  0  0  0  0
 41 42  1  0  0  0  0
 42 37  1  0  0  0  0
 43 39  1  0  0  0  0
 44 41  1  0  0  0  0
 45 43  1  0  0  0  0
 46 45  1  0  0  0  0
 47 46  1  0  0  0  0
 48 50  1  0  0  0  0
 49 50  1  0  0  0  0
 50 46  1  0  0  0  0
 51 52  3  0  0  0  0
M  END
>  <MODEL>
1

>  <REMARK>
 VINA RESULT:      -7.3      0.000      0.000
  Name = 
  12 active torsions:
  status: ('A' for Active; 'I' for Inactive)
    1  A    between atoms: C_2  and  N_19
    2  A    between atoms: C_2  and  C_52
    3  A    between atoms: N_6  and  C_29
    4  A    between atoms: N_9  and  C_13
    5  A    between atoms: N_9  and  C_43
    6  A    between atoms: C_10  and  C_30
    7  A    between atoms: C_12  and  C_32
    8  A    between atoms: C_13  and  C_41
    9  A    between atoms: C_26  and  C_33
   10  A    between atoms: C_26  and  N_37
   11  A    between atoms: C_33  and  CA_44
   12  A    between atoms: C_42  and  N_47
                            x       y       z     vdW  Elec       q    Type
                         _______ _______ _______ _____ _____    ______ ____

>  <TORSDO>
F 12

$$$$
=
 OpenBabel11042420513D

 52 60  0  0  1  0  0  0  0  0999 V2000
  159.5760  211.2530  152.1480 C   0  0  0  0  0  2  0  0  0  0  0  0
  158.7170  211.8140  155.8150 C   0  0  0  0  0  0  0  0  0  0  0  0
  159.3770  211.3500  154.6690 C   0  0  0  0  0  0  0  0  0  0  0  0
  160.5480  210.5310  154.7790 N   0  0  0  0  0  2  0  0  0  0  0  0
  159.1870  211.4640  157.1140 N   0  0  0  0  0  1  0  0  0  0  0  0
  157.6120  212.5990  155.6900 N   0  0  0  0  0  0  0  0  0  0  0  0
  161.0360  210.8730  152.4130 C   0  0  1  0  0  3  0  0  0  0  0  0
  157.1160  212.9480  154.4720 C   0  0  0  0  0  0  0  0  0  0  0  0
  161.1580  209.9070  153.6040 C   0  0  2  0  0  3  0  0  0  0  0  0
  157.7530  212.5190  153.3050 C   0  0  0  0  0  3  0  0  0  0  0  0
  158.8990  211.7310  153.4010 C   0  0  0  0  0  0  0  0  0  0  0  0
  160.0540  207.9290  154.5770 N   0  0  0  0  0  2  0  0  0  0  0  0
  160.4970  208.5450  153.3310 C   0  0  2  0  0  3  0  0  0  0  0  0
  161.0700  206.8990  154.4070 C   0  0  1  0  0  3  0  0  0  0  0  0
  160.8520  206.1390  153.1130 C   0  0  1  0  0  3  0  0  0  0  0  0
  161.5430  207.4820  153.0990 C   0  0  1  0  0  3  0  0  0  0  0  0
  162.7780  203.3150  151.8180 O   0  0  0  0  0  0  0  0  0  0  0  0
  161.0920  204.4970  150.7080 N   0  0  0  0  0  2  0  0  0  0  0  0
  161.9400  204.2570  151.8370 C   0  0  0  0  0  0  0  0  0  0  0  0
  161.8470  205.0850  152.9960 N   0  0  0  0  0  2  0  0  0  0  0  0
  160.9830  203.5880  149.5730 C   0  0  1  0  0  0  0  0  0  0  0  0
  158.9280  200.5640  149.8020 C   0  0  0  0  0  1  0  0  0  0  0  0
  160.8260  202.1450  149.9980 C   0  0  1  0  0  3  0  0  0  0  0  0
  159.6540  202.8890  149.3710 C   0  0  2  0  0  3  0  0  0  0  0  0
  159.9000  201.4320  149.0300 C   0  0  2  0  0  3  0  0  0  0  0  0
  162.5890  204.9960  146.3600 C   0  0  0  0  0  3  0  0  0  0  0  0
  161.9950  206.0240  145.7560 C   0  0  0  0  0  3  0  0  0  0  0  0
  160.8200  206.4170  146.4680 N   0  0  0  0  0  0  0  0  0  0  0  0
  161.7310  204.7460  147.5040 C   0  0  0  0  0  0  0  0  0  0  0  0
  160.6630  205.6760  147.4860 N   0  0  0  0  0  0  0  0  0  0  0  0
  161.9070  203.7900  148.4130 C   0  0  0  0  0  3  0  0  0  0  0  0
  161.5840  208.0620  149.7490 O   0  0  0  0  0  0  0  0  0  0  0  0
  161.6460  210.3380  151.2070 N   0  0  0  0  0  0  0  0  0  0  0  0
  161.8210  209.2240  150.1710 C   0  0  0  0  0  0  0  0  0  0  0  0
  162.3930  210.4840  150.0370 C   0  0  1  0  0  3  0  0  0  0  0  0
  161.6140  211.3380  149.0550 C   0  0  0  0  0  2  0  0  0  0  0  0
  162.5490  212.2390  148.2630 C   0  0  0  0  0  2  0  0  0  0  0  0
  160.1020  213.5540  144.8400 C   0  0  0  0  0  2  0  0  0  0  0  0
  162.6210  213.8900  145.0060 C   0  0  0  0  0  2  0  0  0  0  0  0
  162.5130  213.8330  146.5340 C   0  0  0  0  0  2  0  0  0  0  0  0
  160.5350  212.7990  147.2190 C   0  0  0  0  0  2  0  0  0  0  0  0
  161.9540  212.5590  146.9750 N   0  0  0  0  0  0  0  0  0  0  0  0
  161.4700  213.1980  144.2650 C   0  0  2  0  0  3  0  0  0  0  0  0
  159.7200  212.5700  145.9460 C   0  0  0  0  0  2  0  0  0  0  0  0
  161.5240  213.5480  142.8550 N   0  0  0  0  0  2  0  0  0  0  0  0
  161.8840  212.3380  142.1230 C   0  0  1  0  0  3  0  0  0  0  0  0
  160.6760  211.4230  141.9970 C   0  0  0  0  0  1  0  0  0  0  0  0
  162.8670  211.4260  139.9680 C   0  0  0  0  0  1  0  0  0  0  0  0
  161.5370  213.4060  140.0040 O   0  0  0  0  0  1  0  0  0  0  0  0
  162.4630  212.6700  140.7460 C   0  0  1  0  0  3  0  0  0  0  0  0
  155.9500  213.7800  154.3860 C   0  0  0  0  0  0  0  0  0  0  0  0
  155.0110  214.4530  154.3180 N   0  0  0  0  0  0  0  0  0  0  0  0
  1  7  1  0  0  0  0
  1 11  1  0  0  0  0
  2  5  1  0  0  0  0
  3  4  1  0  0  0  0
  3  2  2  0  0  0  0
  6  2  1  0  0  0  0
  7 33  1  6  0  0  0
  7  9  1  0  0  0  0
  8  6  2  0  0  0  0
  9  4  1  1  0  0  0
 10 11  2  0  0  0  0
 10  8  1  0  0  0  0
 11  3  1  0  0  0  0
 13  9  1  0  0  0  0
 13 12  1  1  0  0  0
 14 12  1  6  0  0  0
 15 20  1  1  0  0  0
 15 14  1  0  0  0  0
 16 15  1  0  0  0  0
 16 13  1  0  0  0  0
 16 14  1  0  0  0  0
 17 19  2  0  0  0  0
 18 19  1  0  0  0  0
 19 20  1  0  0  0  0
 21 23  1  0  0  0  0
 21 18  1  0  0  0  0
 24 21  1  0  0  0  0
 24 23  1  0  0  0  0
 25 24  1  0  0  0  0
 25 22  1  0  0  0  0
 25 23  1  0  0  0  0
 26 29  1  0  0  0  0
 27 26  2  0  0  0  0
 27 28  1  0  0  0  0
 28 30  2  0  0  0  0
 29 31  2  0  0  0  0
 30 29  1  0  0  0  0
 31 21  1  0  0  0  0
 32 34  2  0  0  0  0
 34 33  1  0  0  0  0
 35 34  1  0  0  0  0
 35 33  1  0  0  0  0
 36 35  1  0  0  0  0
 37 36  1  0  0  0  0
 38 44  1  0  0  0  0
 39 40  1  0  0  0  0
 40 42  1  0  0  0  0
 42 41  1  0  0  0  0
 42 37  1  0  0  0  0
 43 38  1  0  0  0  0
 43 39  1  0  0  0  0
 44 41  1  0  0  0  0
 45 43  1  0  0  0  0
 46 45  1  0  0  0  0
 47 46  1  0  0  0  0
 48 50  1  0  0  0  0
 49 50  1  0  0  0  0
 50 46  1  0  0  0  0
 51  8  1  0  0  0  0
 52 51  3  0  0  0  0
M  END
>  <MODEL>
2

>  <REMARK>
 VINA RESULT:      -7.1      1.981      3.557
  Name = 
  12 active torsions:
  status: ('A' for Active; 'I' for Inactive)
    1  A    between atoms: C_2  and  N_19
    2  A    between atoms: C_2  and  C_52
    3  A    between atoms: N_6  and  C_29
    4  A    between atoms: N_9  and  C_13
    5  A    between atoms: N_9  and  C_43
    6  A    between atoms: C_10  and  C_30
    7  A    between atoms: C_12  and  C_32
    8  A    between atoms: C_13  and  C_41
    9  A    between atoms: C_26  and  C_33
   10  A    between atoms: C_26  and  N_37
   11  A    between atoms: C_33  and  CA_44
   12  A    between atoms: C_42  and  N_47
                            x       y       z     vdW  Elec       q    Type
                         _______ _______ _______ _____ _____    ______ ____

>  <TORSDO>
F 12

$$$$
