=
 OpenBabel11042421203D

 39 43  0  0  1  0  0  0  0  0999 V2000
  161.7300  207.9730  152.0880 C   0  0  0  0  0  3  0  0  0  0  0  0
  160.7890  203.7450  152.5920 O   0  0  0  0  0  0  0  0  0  0  0  0
  160.9890  204.2300  151.4460 C   0  0  0  0  0  0  0  0  0  0  0  0
  161.1460  203.8770  148.9630 C   0  0  0  0  0  0  0  0  0  0  0  0
  161.8320  207.4660  149.7690 C   0  0  0  0  0  0  0  0  0  0  0  0
  162.0390  207.2690  147.4030 C   0  0  0  0  0  3  0  0  0  0  0  0
  161.3100  205.6740  151.2680 C   0  0  0  0  0  0  0  0  0  0  0  0
  160.7620  201.6770  148.0050 C   0  0  0  0  0  3  0  0  0  0  0  0
  160.5300  201.1570  149.2810 C   0  0  0  0  0  3  0  0  0  0  0  0
  161.0680  203.0300  147.8470 C   0  0  0  0  0  3  0  0  0  0  0  0
  160.9110  203.3500  150.2540 C   0  0  0  0  0  0  0  0  0  0  0  0
  161.4200  206.6160  152.3480 C   0  0  0  0  0  0  0  0  0  0  0  0
  161.9270  208.3760  150.7650 C   0  0  0  0  0  0  0  0  0  0  0  0
  161.7270  205.8930  147.5290 C   0  0  0  0  0  3  0  0  0  0  0  0
  161.4700  205.3130  148.8040 C   0  0  0  0  0  0  0  0  0  0  0  0
  160.6040  201.9900  150.3990 C   0  0  0  0  0  3  0  0  0  0  0  0
  162.3630  209.3820  148.7430 O   0  0  0  0  0  0  0  0  0  0  0  0
  162.0820  208.0320  148.5720 C   0  0  0  0  0  0  0  0  0  0  0  0
  162.2850  209.7100  150.1490 C   0  0  1  0  0  3  0  0  0  0  0  0
  161.5320  206.1330  149.9520 C   0  0  0  0  0  0  0  0  0  0  0  0
  161.1820  210.7470  150.3870 C   0  0  1  0  0  3  0  0  0  0  0  0
  160.9050  210.9240  151.8730 C   0  0  0  0  0  1  0  0  0  0  0  0
  161.5290  212.0940  149.7560 C   0  0  0  0  0  2  0  0  0  0  0  0
  160.7210  212.3370  148.5700 N   0  0  0  0  0  2  0  0  0  0  0  0
  161.5440  212.2170  147.5020 O   0  0  0  0  0  0  0  0  0  0  0  0
  159.7340  212.2210  145.2630 C   0  0  0  0  0  1  0  0  0  0  0  0
  160.0890  214.3330  146.9440 O   0  0  0  0  0  1  0  0  0  0  0  0
  162.0870  213.8380  145.3350 O   0  0  0  0  0  0  0  0  0  0  0  0
  160.8550  213.1990  146.3030 P   0  0  1  0  0  0  0  0  0  0  0  0
  161.1850  206.2270  153.7690 C   0  0  0  0  0  2  0  0  0  0  0  0
  160.4720  207.2910  154.4590 N   0  0  0  0  0  2  0  0  0  0  0  0
  161.2960  207.7380  155.5000 N   0  0  0  0  0  2  0  0  0  0  0  0
  160.7550  208.0050  156.7940 C   0  0  0  0  0  3  0  0  0  0  0  0
  160.2500  209.1960  157.1080 C   0  0  0  0  0  3  0  0  0  0  0  0
  160.2160  210.3430  156.1510 C   0  0  0  0  0  2  0  0  0  0  0  0
  158.7940  210.6050  155.6860 C   0  0  0  0  0  2  0  0  0  0  0  0
  158.7650  211.7950  154.7960 C   0  0  0  0  0  0  0  0  0  0  0  0
  159.6710  212.6650  154.8780 O   0  0  0  0  0  1  0  0  0  0  0  0
  157.7230  211.9640  153.8950 O   0  0  0  0  0  0  0  0  0  0  0  0
  1 12  1  0  0  0  0
  3  2  2  0  0  0  0
  4 11  1  0  0  0  0
  5 20  1  0  0  0  0
  5 13  1  0  0  0  0
  6 14  2  0  0  0  0
  6 18  1  0  0  0  0
  7  3  1  0  0  0  0
  7 12  2  0  0  0  0
  8  9  2  0  0  0  0
  9 16  1  0  0  0  0
 10  8  1  0  0  0  0
 10  4  2  0  0  0  0
 11 16  2  0  0  0  0
 11  3  1  0  0  0  0
 12 30  1  0  0  0  0
 13  1  2  0  0  0  0
 14 15  1  0  0  0  0
 15  4  1  0  0  0  0
 15 20  2  0  0  0  0
 17 19  1  0  0  0  0
 18 17  1  0  0  0  0
 18  5  2  0  0  0  0
 19 21  1  6  0  0  0
 19 13  1  0  0  0  0
 20  7  1  0  0  0  0
 21 22  1  1  0  0  0
 23 21  1  0  0  0  0
 24 23  1  0  0  0  0
 25 24  1  0  0  0  0
 28 29  2  0  0  0  0
 29 26  1  6  0  0  0
 29 27  1  0  0  0  0
 29 25  1  0  0  0  0
 30 31  1  0  0  0  0
 31 32  1  0  0  0  0
 32 33  1  0  0  0  0
 33 34  2  0  0  0  0
 35 34  1  0  0  0  0
 36 35  1  0  0  0  0
 37 38  1  0  0  0  0
 37 36  1  0  0  0  0
 39 37  2  0  0  0  0
M  END
>  <MODEL>
1

>  <REMARK>
 VINA RESULT:      -8.4      0.000      0.000
  Name = 
  12 active torsions:
  status: ('A' for Active; 'I' for Inactive)
    1  A    between atoms: C_1  and  N_32
    2  A    between atoms: N_2  and  C_28
    3  A    between atoms: N_2  and  O_35
    4  A    between atoms: C_4  and  C_25
    5  A    between atoms: C_4  and  N_30
    6  A    between atoms: C_8  and  C_34
    7  A    between atoms: C_17  and  C_28
    8  A    between atoms: C_17  and  C_38
    9  A    between atoms: P_20  and  O_35
   10  A    between atoms: C_22  and  C_31
   11  A    between atoms: C_22  and  C_34
   12  A    between atoms: N_30  and  N_32
                            x       y       z     vdW  Elec       q    Type
                         _______ _______ _______ _____ _____    ______ ____

>  <TORSDO>
F 12

$$$$
=
 OpenBabel11042421203D

 39 43  0  0  1  0  0  0  0  0999 V2000
  162.0840  208.4920  150.8940 C   0  0  0  0  0  3  0  0  0  0  0  0
  160.6160  212.4030  152.1470 O   0  0  0  0  0  0  0  0  0  0  0  0
  160.4710  211.3910  152.8850 C   0  0  0  0  0  0  0  0  0  0  0  0
  159.6390  210.4110  155.0450 C   0  0  0  0  0  0  0  0  0  0  0  0
  161.2330  207.7300  152.9780 C   0  0  0  0  0  0  0  0  0  0  0  0
  160.5200  206.6750  154.9930 C   0  0  0  0  0  3  0  0  0  0  0  0
  160.9700  210.0530  152.4620 C   0  0  0  0  0  0  0  0  0  0  0  0
  158.5250  211.8150  156.6860 C   0  0  0  0  0  3  0  0  0  0  0  0
  158.6830  212.9240  155.8510 C   0  0  0  0  0  3  0  0  0  0  0  0
  159.0010  210.5650  156.2850 C   0  0  0  0  0  3  0  0  0  0  0  0
  159.7980  211.5340  154.2000 C   0  0  0  0  0  0  0  0  0  0  0  0
  161.6410  209.7980  151.2180 C   0  0  0  0  0  0  0  0  0  0  0  0
  161.8550  207.4600  151.8080 C   0  0  0  0  0  0  0  0  0  0  0  0
  160.0230  207.9280  155.4270 C   0  0  0  0  0  3  0  0  0  0  0  0
  160.1470  209.0890  154.6120 C   0  0  0  0  0  0  0  0  0  0  0  0
  159.3160  212.7840  154.6140 C   0  0  0  0  0  3  0  0  0  0  0  0
  161.7020  205.5440  153.0720 O   0  0  0  0  0  0  0  0  0  0  0  0
  161.1300  206.6220  153.7380 C   0  0  0  0  0  0  0  0  0  0  0  0
  162.2070  205.9900  151.7920 C   0  0  1  0  0  3  0  0  0  0  0  0
  160.7760  208.9760  153.3530 C   0  0  0  0  0  0  0  0  0  0  0  0
  161.4840  205.2570  150.6570 C   0  0  1  0  0  3  0  0  0  0  0  0
  160.8130  203.9880  151.1620 C   0  0  0  0  0  1  0  0  0  0  0  0
  160.4560  206.1540  149.9710 C   0  0  0  0  0  2  0  0  0  0  0  0
  160.4810  205.9660  148.5280 N   0  0  0  0  0  2  0  0  0  0  0  0
  161.7770  206.0400  148.1440 O   0  0  0  0  0  0  0  0  0  0  0  0
  160.8840  205.5410  145.4520 C   0  0  0  0  0  1  0  0  0  0  0  0
  163.3510  204.8750  146.3910 O   0  0  0  0  0  0  0  0  0  0  0  0
  161.3780  203.4360  147.3190 O   0  0  0  0  0  1  0  0  0  0  0  0
  161.9100  204.9680  146.8360 P   0  0  1  0  0  0  0  0  0  0  0  0
  161.8740  210.8700  150.2050 C   0  0  0  0  0  2  0  0  0  0  0  0
  162.0010  210.2780  148.8820 N   0  0  0  0  0  2  0  0  0  0  0  0
  162.0560  211.3300  147.9590 N   0  0  0  0  0  2  0  0  0  0  0  0
  161.1760  212.4490  148.0760 C   0  0  0  0  0  3  0  0  0  0  0  0
  161.2500  213.4850  147.2440 C   0  0  0  0  0  3  0  0  0  0  0  0
  162.2510  213.5720  146.1390 C   0  0  0  0  0  2  0  0  0  0  0  0
  161.6150  213.1850  144.8160 C   0  0  0  0  0  2  0  0  0  0  0  0
  162.6660  213.0530  143.7710 C   0  0  0  0  0  0  0  0  0  0  0  0
  163.7520  213.6770  143.8870 O   0  0  0  0  0  1  0  0  0  0  0  0
  162.4370  212.2650  142.6510 O   0  0  0  0  0  0  0  0  0  0  0  0
  1 12  2  0  0  0  0
  1 13  1  0  0  0  0
  2  3  2  0  0  0  0
  3 11  1  0  0  0  0
  4 10  1  0  0  0  0
  5 20  1  0  0  0  0
  5 18  1  0  0  0  0
  6 14  1  0  0  0  0
  7  3  1  0  0  0  0
  7 20  2  0  0  0  0
  9  8  1  0  0  0  0
 10  8  2  0  0  0  0
 11 16  1  0  0  0  0
 11  4  2  0  0  0  0
 12  7  1  0  0  0  0
 13  5  2  0  0  0  0
 15  4  1  0  0  0  0
 15 14  2  0  0  0  0
 16  9  2  0  0  0  0
 17 18  1  0  0  0  0
 18  6  2  0  0  0  0
 19 21  1  6  0  0  0
 19 13  1  0  0  0  0
 19 17  1  0  0  0  0
 20 15  1  0  0  0  0
 21 22  1  1  0  0  0
 23 21  1  0  0  0  0
 24 23  1  0  0  0  0
 25 24  1  0  0  0  0
 27 29  2  0  0  0  0
 29 26  1  6  0  0  0
 29 28  1  0  0  0  0
 29 25  1  0  0  0  0
 30 12  1  0  0  0  0
 31 30  1  0  0  0  0
 32 33  1  0  0  0  0
 32 31  1  0  0  0  0
 34 33  2  0  0  0  0
 35 34  1  0  0  0  0
 36 35  1  0  0  0  0
 37 38  1  0  0  0  0
 37 36  1  0  0  0  0
 39 37  2  0  0  0  0
M  END
>  <MODEL>
2

>  <REMARK>
 VINA RESULT:      -8.0      2.959      8.493
  Name = 
  12 active torsions:
  status: ('A' for Active; 'I' for Inactive)
    1  A    between atoms: C_1  and  N_32
    2  A    between atoms: N_2  and  C_28
    3  A    between atoms: N_2  and  O_35
    4  A    between atoms: C_4  and  C_25
    5  A    between atoms: C_4  and  N_30
    6  A    between atoms: C_8  and  C_34
    7  A    between atoms: C_17  and  C_28
    8  A    between atoms: C_17  and  C_38
    9  A    between atoms: P_20  and  O_35
   10  A    between atoms: C_22  and  C_31
   11  A    between atoms: C_22  and  C_34
   12  A    between atoms: N_30  and  N_32
                            x       y       z     vdW  Elec       q    Type
                         _______ _______ _______ _____ _____    ______ ____

>  <TORSDO>
F 12

$$$$
=
 OpenBabel11042421203D

 39 43  0  0  1  0  0  0  0  0999 V2000
  162.1590  208.3720  150.5130 C   0  0  0  0  0  3  0  0  0  0  0  0
  160.8290  212.1680  152.1970 O   0  0  0  0  0  0  0  0  0  0  0  0
  160.7150  211.0960  152.8500 C   0  0  0  0  0  0  0  0  0  0  0  0
  160.0030  209.9350  154.9630 C   0  0  0  0  0  0  0  0  0  0  0  0
  161.4280  207.4350  152.5710 C   0  0  0  0  0  0  0  0  0  0  0  0
  160.8240  206.2110  154.5250 C   0  0  0  0  0  3  0  0  0  0  0  0
  161.1660  209.7970  152.2800 C   0  0  0  0  0  0  0  0  0  0  0  0
  159.0140  211.1970  156.7880 C   0  0  0  0  0  3  0  0  0  0  0  0
  159.1360  212.3740  156.0470 C   0  0  0  0  0  3  0  0  0  0  0  0
  159.4450  209.9840  156.2490 C   0  0  0  0  0  3  0  0  0  0  0  0
  160.1260  211.1280  154.2120 C   0  0  0  0  0  0  0  0  0  0  0  0
  161.7560  209.6480  150.9780 C   0  0  0  0  0  0  0  0  0  0  0  0
  161.9720  207.2650  151.3450 C   0  0  0  0  0  0  0  0  0  0  0  0
  160.3740  207.4250  155.0990 C   0  0  0  0  0  3  0  0  0  0  0  0
  160.4640  208.6530  154.3830 C   0  0  0  0  0  0  0  0  0  0  0  0
  159.6890  212.3400  154.7650 C   0  0  0  0  0  3  0  0  0  0  0  0
  161.8690  205.2460  152.4410 O   0  0  0  0  0  0  0  0  0  0  0  0
  161.3550  206.2640  153.2340 C   0  0  0  0  0  0  0  0  0  0  0  0
  162.3010  205.7990  151.1760 C   0  0  1  0  0  3  0  0  0  0  0  0
  161.0130  208.6460  153.0830 C   0  0  0  0  0  0  0  0  0  0  0  0
  161.4980  205.1760  150.0290 C   0  0  1  0  0  3  0  0  0  0  0  0
  160.7110  203.9640  150.5030 C   0  0  0  0  0  1  0  0  0  0  0  0
  160.5560  206.1910  149.3840 C   0  0  0  0  0  2  0  0  0  0  0  0
  160.5800  206.0750  147.9330 N   0  0  0  0  0  2  0  0  0  0  0  0
  161.8810  206.0920  147.5580 O   0  0  0  0  0  0  0  0  0  0  0  0
  161.0740  205.4420  144.8720 C   0  0  0  0  0  1  0  0  0  0  0  0
  163.4530  204.7060  145.9720 O   0  0  0  0  0  0  0  0  0  0  0  0
  161.3570  203.4610  146.9100 O   0  0  0  0  0  1  0  0  0  0  0  0
  162.0020  204.9170  146.3410 P   0  0  1  0  0  0  0  0  0  0  0  0
  161.9410  210.8040  150.0520 C   0  0  0  0  0  2  0  0  0  0  0  0
  161.9570  210.3340  148.6750 N   0  0  0  0  0  2  0  0  0  0  0  0
  161.6040  211.4170  147.8610 N   0  0  0  0  0  2  0  0  0  0  0  0
  162.2430  212.6850  148.0170 C   0  0  0  0  0  3  0  0  0  0  0  0
  162.3270  213.5530  147.0110 C   0  0  0  0  0  3  0  0  0  0  0  0
  161.7780  213.2770  145.6500 C   0  0  0  0  0  2  0  0  0  0  0  0
  160.3620  213.8120  145.5300 C   0  0  0  0  0  2  0  0  0  0  0  0
  159.4290  212.7020  145.1980 C   0  0  0  0  0  0  0  0  0  0  0  0
  158.3870  212.5290  145.8810 O   0  0  0  0  0  1  0  0  0  0  0  0
  159.7230  211.8360  144.1530 O   0  0  0  0  0  0  0  0  0  0  0  0
  1 12  2  0  0  0  0
  1 13  1  0  0  0  0
  2  3  2  0  0  0  0
  3 11  1  0  0  0  0
  4 10  1  0  0  0  0
  5 20  1  0  0  0  0
  5 18  1  0  0  0  0
  6 14  1  0  0  0  0
  7  3  1  0  0  0  0
  7 20  2  0  0  0  0
  9  8  1  0  0  0  0
 10  8  2  0  0  0  0
 11 16  1  0  0  0  0
 11  4  2  0  0  0  0
 12  7  1  0  0  0  0
 13  5  2  0  0  0  0
 15  4  1  0  0  0  0
 15 14  2  0  0  0  0
 16  9  2  0  0  0  0
 17 18  1  0  0  0  0
 18  6  2  0  0  0  0
 19 21  1  6  0  0  0
 19 13  1  0  0  0  0
 19 17  1  0  0  0  0
 20 15  1  0  0  0  0
 21 22  1  1  0  0  0
 23 21  1  0  0  0  0
 24 23  1  0  0  0  0
 25 24  1  0  0  0  0
 27 29  2  0  0  0  0
 29 26  1  6  0  0  0
 29 28  1  0  0  0  0
 29 25  1  0  0  0  0
 30 12  1  0  0  0  0
 31 30  1  0  0  0  0
 32 33  1  0  0  0  0
 32 31  1  0  0  0  0
 34 33  2  0  0  0  0
 35 34  1  0  0  0  0
 36 35  1  0  0  0  0
 37 36  1  0  0  0  0
 37 38  1  0  0  0  0
 39 37  2  0  0  0  0
M  END
>  <MODEL>
3

>  <REMARK>
 VINA RESULT:      -7.8      2.824      8.121
  Name = 
  12 active torsions:
  status: ('A' for Active; 'I' for Inactive)
    1  A    between atoms: C_1  and  N_32
    2  A    between atoms: N_2  and  C_28
    3  A    between atoms: N_2  and  O_35
    4  A    between atoms: C_4  and  C_25
    5  A    between atoms: C_4  and  N_30
    6  A    between atoms: C_8  and  C_34
    7  A    between atoms: C_17  and  C_28
    8  A    between atoms: C_17  and  C_38
    9  A    between atoms: P_20  and  O_35
   10  A    between atoms: C_22  and  C_31
   11  A    between atoms: C_22  and  C_34
   12  A    between atoms: N_30  and  N_32
                            x       y       z     vdW  Elec       q    Type
                         _______ _______ _______ _____ _____    ______ ____

>  <TORSDO>
F 12

$$$$
=
 OpenBabel11042421203D

 39 43  0  0  1  0  0  0  0  0999 V2000
  161.8470  207.3970  151.2380 C   0  0  0  0  0  3  0  0  0  0  0  0
  160.8220  211.6350  151.1640 O   0  0  0  0  0  0  0  0  0  0  0  0
  160.6020  210.9350  152.1890 C   0  0  0  0  0  0  0  0  0  0  0  0
  159.7510  210.7930  154.5490 C   0  0  0  0  0  0  0  0  0  0  0  0
  160.9960  207.4370  153.4570 C   0  0  0  0  0  0  0  0  0  0  0  0
  160.2500  207.1660  155.7040 C   0  0  0  0  0  3  0  0  0  0  0  0
  160.9490  209.4870  152.2190 C   0  0  0  0  0  0  0  0  0  0  0  0
  158.8400  212.7580  155.6500 C   0  0  0  0  0  3  0  0  0  0  0  0
  159.0800  213.5170  154.5030 C   0  0  0  0  0  3  0  0  0  0  0  0
  159.1740  211.4020  155.6740 C   0  0  0  0  0  3  0  0  0  0  0  0
  159.9920  211.5620  153.3870 C   0  0  0  0  0  0  0  0  0  0  0  0
  161.5490  208.7770  151.1230 C   0  0  0  0  0  0  0  0  0  0  0  0
  161.5480  206.7430  152.4350 C   0  0  0  0  0  0  0  0  0  0  0  0
  159.8970  208.5370  155.7110 C   0  0  0  0  0  3  0  0  0  0  0  0
  160.1080  209.3560  154.5650 C   0  0  0  0  0  0  0  0  0  0  0  0
  159.6530  212.9220  153.3770 C   0  0  0  0  0  3  0  0  0  0  0  0
  161.2470  205.3610  154.2490 O   0  0  0  0  0  0  0  0  0  0  0  0
  160.8080  206.6490  154.5330 C   0  0  0  0  0  0  0  0  0  0  0  0
  161.7490  205.3160  152.8940 C   0  0  1  0  0  3  0  0  0  0  0  0
  160.6790  208.7790  153.4100 C   0  0  0  0  0  0  0  0  0  0  0  0
  160.9180  204.3390  152.0570 C   0  0  1  0  0  3  0  0  0  0  0  0
  160.4900  204.9690  150.7400 C   0  0  0  0  0  1  0  0  0  0  0  0
  161.6730  203.0380  151.7920 C   0  0  0  0  0  2  0  0  0  0  0  0
  160.7990  202.0410  151.1920 N   0  0  0  0  0  2  0  0  0  0  0  0
  161.5660  201.2950  150.3610 O   0  0  0  0  0  0  0  0  0  0  0  0
  161.4300  200.1510  147.7230 C   0  0  0  0  0  1  0  0  0  0  0  0
  159.3470  201.3980  148.9560 O   0  0  0  0  0  1  0  0  0  0  0  0
  161.2870  202.9660  148.1820 O   0  0  0  0  0  0  0  0  0  0  0  0
  160.8520  201.4660  148.8320 P   0  0  1  0  0  0  0  0  0  0  0  0
  161.8530  209.4370  149.8190 C   0  0  0  0  0  2  0  0  0  0  0  0
  162.4730  208.4790  148.9160 N   0  0  0  0  0  2  0  0  0  0  0  0
  161.5770  208.2610  147.8610 N   0  0  0  0  0  2  0  0  0  0  0  0
  160.8010  207.0640  147.8000 C   0  0  0  0  0  3  0  0  0  0  0  0
  161.2790  205.9500  147.2490 C   0  0  0  0  0  3  0  0  0  0  0  0
  162.6430  205.8600  146.6470 C   0  0  0  0  0  2  0  0  0  0  0  0
  162.7220  204.6860  145.6870 C   0  0  0  0  0  2  0  0  0  0  0  0
  161.5320  204.6810  144.7960 C   0  0  0  0  0  0  0  0  0  0  0  0
  160.7190  203.7220  144.8360 O   0  0  0  0  0  1  0  0  0  0  0  0
  161.3330  205.7200  143.8970 O   0  0  0  0  0  0  0  0  0  0  0  0
  1 13  1  0  0  0  0
  2  3  2  0  0  0  0
  3  7  1  0  0  0  0
  3 11  1  0  0  0  0
  4 15  1  0  0  0  0
  4 10  1  0  0  0  0
  5 18  1  0  0  0  0
  6 14  1  0  0  0  0
  7 20  2  0  0  0  0
  8 10  2  0  0  0  0
  9  8  1  0  0  0  0
 11  4  2  0  0  0  0
 12  1  2  0  0  0  0
 12  7  1  0  0  0  0
 13 19  1  0  0  0  0
 13  5  2  0  0  0  0
 15 14  2  0  0  0  0
 16 11  1  0  0  0  0
 16  9  2  0  0  0  0
 17 18  1  0  0  0  0
 18  6  2  0  0  0  0
 19 21  1  6  0  0  0
 19 17  1  0  0  0  0
 20  5  1  0  0  0  0
 20 15  1  0  0  0  0
 21 22  1  6  0  0  0
 23 21  1  0  0  0  0
 24 23  1  0  0  0  0
 25 24  1  0  0  0  0
 28 29  2  0  0  0  0
 29 26  1  6  0  0  0
 29 27  1  0  0  0  0
 29 25  1  0  0  0  0
 30 12  1  0  0  0  0
 31 30  1  0  0  0  0
 32 31  1  0  0  0  0
 33 32  1  0  0  0  0
 34 33  2  0  0  0  0
 35 34  1  0  0  0  0
 36 35  1  0  0  0  0
 37 38  1  0  0  0  0
 37 36  1  0  0  0  0
 39 37  2  0  0  0  0
M  END
>  <MODEL>
4

>  <REMARK>
 VINA RESULT:      -7.7      3.483      9.272
  Name = 
  12 active torsions:
  status: ('A' for Active; 'I' for Inactive)
    1  A    between atoms: C_1  and  N_32
    2  A    between atoms: N_2  and  C_28
    3  A    between atoms: N_2  and  O_35
    4  A    between atoms: C_4  and  C_25
    5  A    between atoms: C_4  and  N_30
    6  A    between atoms: C_8  and  C_34
    7  A    between atoms: C_17  and  C_28
    8  A    between atoms: C_17  and  C_38
    9  A    between atoms: P_20  and  O_35
   10  A    between atoms: C_22  and  C_31
   11  A    between atoms: C_22  and  C_34
   12  A    between atoms: N_30  and  N_32
                            x       y       z     vdW  Elec       q    Type
                         _______ _______ _______ _____ _____    ______ ____

>  <TORSDO>
F 12

$$$$
=
 OpenBabel11042421203D

 39 43  0  0  1  0  0  0  0  0999 V2000
  162.1140  207.9330  149.2180 C   0  0  0  0  0  3  0  0  0  0  0  0
  161.4520  210.5860  152.6150 O   0  0  0  0  0  0  0  0  0  0  0  0
  161.3050  209.3390  152.7300 C   0  0  0  0  0  0  0  0  0  0  0  0
  160.7520  207.3680  154.1900 C   0  0  0  0  0  0  0  0  0  0  0  0
  161.5590  206.1870  150.7320 C   0  0  0  0  0  0  0  0  0  0  0  0
  161.0850  204.2290  152.0050 C   0  0  0  0  0  3  0  0  0  0  0  0
  161.5290  208.4280  151.5740 C   0  0  0  0  0  0  0  0  0  0  0  0
  160.1590  207.6920  156.5240 C   0  0  0  0  0  3  0  0  0  0  0  0
  160.3140  209.0720  156.3760 C   0  0  0  0  0  3  0  0  0  0  0  0
  160.3770  206.8440  155.4360 C   0  0  0  0  0  3  0  0  0  0  0  0
  160.9080  208.7660  154.0410 C   0  0  0  0  0  0  0  0  0  0  0  0
  161.9220  208.8690  150.2640 C   0  0  0  0  0  0  0  0  0  0  0  0
  161.9150  206.5770  149.4860 C   0  0  0  0  0  0  0  0  0  0  0  0
  160.8530  205.0620  153.1270 C   0  0  0  0  0  3  0  0  0  0  0  0
  160.9850  206.4770  153.0310 C   0  0  0  0  0  0  0  0  0  0  0  0
  160.6870  209.6060  155.1410 C   0  0  0  0  0  3  0  0  0  0  0  0
  161.7310  204.2850  149.5670 O   0  0  0  0  0  0  0  0  0  0  0  0
  161.4430  204.8470  150.8050 C   0  0  0  0  0  0  0  0  0  0  0  0
  162.0520  205.3390  148.6290 C   0  0  1  0  0  3  0  0  0  0  0  0
  161.3540  207.0450  151.7920 C   0  0  0  0  0  0  0  0  0  0  0  0
  161.0400  205.3440  147.4780 C   0  0  1  0  0  3  0  0  0  0  0  0
  160.3560  206.6970  147.3530 C   0  0  0  0  0  1  0  0  0  0  0  0
  161.6940  204.9640  146.1510 C   0  0  0  0  0  2  0  0  0  0  0  0
  161.0670  203.7800  145.5810 N   0  0  0  0  0  2  0  0  0  0  0  0
  161.8120  202.7170  145.9650 O   0  0  0  0  0  0  0  0  0  0  0  0
  161.5100  199.9280  146.6120 C   0  0  0  0  0  1  0  0  0  0  0  0
  160.0400  201.9250  147.7380 O   0  0  0  0  0  1  0  0  0  0  0  0
  159.4930  201.4100  145.2360 O   0  0  0  0  0  0  0  0  0  0  0  0
  160.6870  201.5350  146.4280 P   0  0  1  0  0  0  0  0  0  0  0  0
  162.1120  210.3120  149.9340 C   0  0  0  0  0  2  0  0  0  0  0  0
  161.9820  210.5100  148.4980 N   0  0  0  0  0  2  0  0  0  0  0  0
  161.7290  211.8720  148.2870 N   0  0  0  0  0  2  0  0  0  0  0  0
  162.7830  212.7580  147.9080 C   0  0  0  0  0  3  0  0  0  0  0  0
  162.6120  213.6860  146.9690 C   0  0  0  0  0  3  0  0  0  0  0  0
  161.3250  213.8700  146.2330 C   0  0  0  0  0  2  0  0  0  0  0  0
  161.3070  213.0210  144.9740 C   0  0  0  0  0  2  0  0  0  0  0  0
  159.9220  212.5540  144.7000 C   0  0  0  0  0  0  0  0  0  0  0  0
  159.5100  212.4700  143.5140 O   0  0  0  0  0  0  0  0  0  0  0  0
  159.0730  212.2410  145.7520 O   0  0  0  0  0  1  0  0  0  0  0  0
  1 13  2  0  0  0  0
  1 12  1  0  0  0  0
  2  3  2  0  0  0  0
  3 11  1  0  0  0  0
  4 10  1  0  0  0  0
  5 18  2  0  0  0  0
  5 20  1  0  0  0  0
  6 14  2  0  0  0  0
  7 20  1  0  0  0  0
  7  3  1  0  0  0  0
  9  8  1  0  0  0  0
 10  8  2  0  0  0  0
 11  4  2  0  0  0  0
 11 16  1  0  0  0  0
 12  7  2  0  0  0  0
 13  5  1  0  0  0  0
 15 14  1  0  0  0  0
 15  4  1  0  0  0  0
 16  9  2  0  0  0  0
 17 18  1  0  0  0  0
 18  6  1  0  0  0  0
 19 21  1  6  0  0  0
 19 13  1  0  0  0  0
 19 17  1  0  0  0  0
 20 15  2  0  0  0  0
 21 22  1  6  0  0  0
 23 21  1  0  0  0  0
 24 25  1  0  0  0  0
 24 23  1  0  0  0  0
 25 29  1  0  0  0  0
 28 29  2  0  0  0  0
 29 26  1  1  0  0  0
 29 27  1  0  0  0  0
 30 12  1  0  0  0  0
 31 30  1  0  0  0  0
 32 31  1  0  0  0  0
 33 32  1  0  0  0  0
 34 33  2  0  0  0  0
 35 34  1  0  0  0  0
 36 35  1  0  0  0  0
 37 36  1  0  0  0  0
 37 39  1  0  0  0  0
 38 37  2  0  0  0  0
M  END
>  <MODEL>
5

>  <REMARK>
 VINA RESULT:      -7.5      3.444      8.111
  Name = 
  12 active torsions:
  status: ('A' for Active; 'I' for Inactive)
    1  A    between atoms: C_1  and  N_32
    2  A    between atoms: N_2  and  C_28
    3  A    between atoms: N_2  and  O_35
    4  A    between atoms: C_4  and  C_25
    5  A    between atoms: C_4  and  N_30
    6  A    between atoms: C_8  and  C_34
    7  A    between atoms: C_17  and  C_28
    8  A    between atoms: C_17  and  C_38
    9  A    between atoms: P_20  and  O_35
   10  A    between atoms: C_22  and  C_31
   11  A    between atoms: C_22  and  C_34
   12  A    between atoms: N_30  and  N_32
                            x       y       z     vdW  Elec       q    Type
                         _______ _______ _______ _____ _____    ______ ____

>  <TORSDO>
F 12

$$$$
=
 OpenBabel11042421203D

 39 43  0  0  1  0  0  0  0  0999 V2000
  161.9460  208.4420  150.0570 C   0  0  0  0  0  3  0  0  0  0  0  0
  160.8480  211.8960  152.4820 O   0  0  0  0  0  0  0  0  0  0  0  0
  160.8330  210.7330  152.9690 C   0  0  0  0  0  0  0  0  0  0  0  0
  160.4340  209.2420  154.9520 C   0  0  0  0  0  0  0  0  0  0  0  0
  161.5180  207.1790  152.0240 C   0  0  0  0  0  0  0  0  0  0  0  0
  161.2040  205.6530  153.8270 C   0  0  0  0  0  3  0  0  0  0  0  0
  161.2060  209.5510  152.1460 C   0  0  0  0  0  0  0  0  0  0  0  0
  159.7060  210.1800  157.0720 C   0  0  0  0  0  3  0  0  0  0  0  0
  159.7160  211.4600  156.5150 C   0  0  0  0  0  3  0  0  0  0  0  0
  160.0630  209.0760  156.2960 C   0  0  0  0  0  3  0  0  0  0  0  0
  160.4430  210.5390  154.3880 C   0  0  0  0  0  0  0  0  0  0  0  0
  161.6070  209.6200  150.7670 C   0  0  0  0  0  0  0  0  0  0  0  0
  161.8840  207.2160  150.7230 C   0  0  0  0  0  0  0  0  0  0  0  0
  160.8330  206.7510  154.6410 C   0  0  0  0  0  3  0  0  0  0  0  0
  160.8140  208.0770  154.1210 C   0  0  0  0  0  0  0  0  0  0  0  0
  160.0830  211.6380  155.1790 C   0  0  0  0  0  3  0  0  0  0  0  0
  161.9480  205.0490  151.4930 O   0  0  0  0  0  0  0  0  0  0  0  0
  161.5460  205.9190  152.5000 C   0  0  0  0  0  0  0  0  0  0  0  0
  162.1930  205.8030  150.2830 C   0  0  1  0  0  3  0  0  0  0  0  0
  161.1740  208.2860  152.7720 C   0  0  0  0  0  0  0  0  0  0  0  0
  161.2400  205.3430  149.1750 C   0  0  1  0  0  3  0  0  0  0  0  0
  160.0790  206.3130  149.0110 C   0  0  0  0  0  1  0  0  0  0  0  0
  161.9660  205.1660  147.8430 C   0  0  0  0  0  2  0  0  0  0  0  0
  161.8480  203.7970  147.3630 N   0  0  0  0  0  2  0  0  0  0  0  0
  161.7860  203.0010  148.4560 O   0  0  0  0  0  0  0  0  0  0  0  0
  160.4920  201.7630  146.2010 C   0  0  0  0  0  1  0  0  0  0  0  0
  161.5760  200.3870  148.2850 O   0  0  0  0  0  0  0  0  0  0  0  0
  159.3830  201.6960  148.8320 O   0  0  0  0  0  1  0  0  0  0  0  0
  160.8440  201.6730  147.9800 P   0  0  1  0  0  0  0  0  0  0  0  0
  161.6530  210.9100  150.0170 C   0  0  0  0  0  2  0  0  0  0  0  0
  162.0510  210.6630  148.6390 N   0  0  0  0  0  2  0  0  0  0  0  0
  161.6340  211.7650  147.8820 N   0  0  0  0  0  2  0  0  0  0  0  0
  162.4060  212.9660  147.8560 C   0  0  0  0  0  3  0  0  0  0  0  0
  162.5280  213.6950  146.7490 C   0  0  0  0  0  3  0  0  0  0  0  0
  161.8850  213.3200  145.4530 C   0  0  0  0  0  2  0  0  0  0  0  0
  162.9090  213.3290  144.3320 C   0  0  0  0  0  2  0  0  0  0  0  0
  162.2720  212.8870  143.0630 C   0  0  0  0  0  0  0  0  0  0  0  0
  161.2250  212.1900  143.0940 O   0  0  0  0  0  1  0  0  0  0  0  0
  162.8480  213.2170  141.8440 O   0  0  0  0  0  0  0  0  0  0  0  0
  1 13  2  0  0  0  0
  1 12  1  0  0  0  0
  2  3  2  0  0  0  0
  3 11  1  0  0  0  0
  4 10  1  0  0  0  0
  5 18  2  0  0  0  0
  5 20  1  0  0  0  0
  6 14  2  0  0  0  0
  7 20  1  0  0  0  0
  7  3  1  0  0  0  0
  9  8  1  0  0  0  0
 10  8  2  0  0  0  0
 11  4  2  0  0  0  0
 11 16  1  0  0  0  0
 12  7  2  0  0  0  0
 13  5  1  0  0  0  0
 15 14  1  0  0  0  0
 15  4  1  0  0  0  0
 16  9  2  0  0  0  0
 17 18  1  0  0  0  0
 18  6  1  0  0  0  0
 19 21  1  6  0  0  0
 19 13  1  0  0  0  0
 19 17  1  0  0  0  0
 20 15  2  0  0  0  0
 21 22  1  6  0  0  0
 23 21  1  0  0  0  0
 24 23  1  0  0  0  0
 24 25  1  0  0  0  0
 29 26  1  6  0  0  0
 29 27  2  0  0  0  0
 29 25  1  0  0  0  0
 29 28  1  0  0  0  0
 30 12  1  0  0  0  0
 31 30  1  0  0  0  0
 32 31  1  0  0  0  0
 33 32  1  0  0  0  0
 34 33  2  0  0  0  0
 35 34  1  0  0  0  0
 36 35  1  0  0  0  0
 37 38  1  0  0  0  0
 37 36  1  0  0  0  0
 39 37  2  0  0  0  0
M  END
>  <MODEL>
6

>  <REMARK>
 VINA RESULT:      -7.4      3.242      8.859
  Name = 
  12 active torsions:
  status: ('A' for Active; 'I' for Inactive)
    1  A    between atoms: C_1  and  N_32
    2  A    between atoms: N_2  and  C_28
    3  A    between atoms: N_2  and  O_35
    4  A    between atoms: C_4  and  C_25
    5  A    between atoms: C_4  and  N_30
    6  A    between atoms: C_8  and  C_34
    7  A    between atoms: C_17  and  C_28
    8  A    between atoms: C_17  and  C_38
    9  A    between atoms: P_20  and  O_35
   10  A    between atoms: C_22  and  C_31
   11  A    between atoms: C_22  and  C_34
   12  A    between atoms: N_30  and  N_32
                            x       y       z     vdW  Elec       q    Type
                         _______ _______ _______ _____ _____    ______ ____

>  <TORSDO>
F 12

$$$$
=
 OpenBabel11042421203D

 39 43  0  0  1  0  0  0  0  0999 V2000
  161.8210  208.4630  151.4850 C   0  0  0  0  0  3  0  0  0  0  0  0
  160.3920  212.5070  152.2750 O   0  0  0  0  0  0  0  0  0  0  0  0
  160.2290  211.5870  153.1210 C   0  0  0  0  0  0  0  0  0  0  0  0
  159.3700  210.8670  155.3710 C   0  0  0  0  0  0  0  0  0  0  0  0
  160.9470  207.9510  153.6340 C   0  0  0  0  0  0  0  0  0  0  0  0
  160.2060  207.1390  155.7490 C   0  0  0  0  0  3  0  0  0  0  0  0
  160.7150  210.2040  152.8560 C   0  0  0  0  0  0  0  0  0  0  0  0
  158.2610  212.4600  156.8330 C   0  0  0  0  0  3  0  0  0  0  0  0
  158.4380  213.4650  155.8800 C   0  0  0  0  0  3  0  0  0  0  0  0
  158.7240  211.1670  156.5800 C   0  0  0  0  0  3  0  0  0  0  0  0
  159.5480  211.8850  154.4050 C   0  0  0  0  0  0  0  0  0  0  0  0
  161.3920  209.8030  151.6550 C   0  0  0  0  0  0  0  0  0  0  0  0
  161.5740  207.5440  152.5070 C   0  0  0  0  0  0  0  0  0  0  0  0
  159.7220  208.4390  156.0350 C   0  0  0  0  0  3  0  0  0  0  0  0
  159.8650  209.4990  155.0940 C   0  0  0  0  0  0  0  0  0  0  0  0
  159.0790  213.1790  154.6720 C   0  0  0  0  0  3  0  0  0  0  0  0
  161.3880  205.7850  153.9780 O   0  0  0  0  0  0  0  0  0  0  0  0
  160.8240  206.9380  154.5130 C   0  0  0  0  0  0  0  0  0  0  0  0
  161.9080  206.0780  152.6610 C   0  0  1  0  0  3  0  0  0  0  0  0
  160.5020  209.2370  153.8620 C   0  0  0  0  0  0  0  0  0  0  0  0
  161.1840  205.2290  151.6100 C   0  0  1  0  0  3  0  0  0  0  0  0
  161.3110  205.8430  150.2240 C   0  0  0  0  0  1  0  0  0  0  0  0
  161.6990  203.7910  151.5940 C   0  0  0  0  0  2  0  0  0  0  0  0
  160.7100  202.8890  151.0230 N   0  0  0  0  0  2  0  0  0  0  0  0
  161.3810  201.8030  150.5730 O   0  0  0  0  0  0  0  0  0  0  0  0
  161.2080  203.0490  147.9830 C   0  0  0  0  0  1  0  0  0  0  0  0
  161.5140  200.3710  148.3720 O   0  0  0  0  0  0  0  0  0  0  0  0
  159.1650  201.3290  148.9970 O   0  0  0  0  0  1  0  0  0  0  0  0
  160.8380  201.5780  148.9820 P   0  0  1  0  0  0  0  0  0  0  0  0
  161.6450  210.7500  150.5290 C   0  0  0  0  0  2  0  0  0  0  0  0
  161.9590  210.0050  149.3200 N   0  0  0  0  0  2  0  0  0  0  0  0
  161.9710  210.9200  148.2590 N   0  0  0  0  0  2  0  0  0  0  0  0
  161.7990  212.3170  148.4990 C   0  0  0  0  0  3  0  0  0  0  0  0
  161.2490  213.1190  147.5910 C   0  0  0  0  0  3  0  0  0  0  0  0
  160.7810  212.6380  146.2560 C   0  0  0  0  0  2  0  0  0  0  0  0
  160.4610  213.8140  145.3500 C   0  0  0  0  0  2  0  0  0  0  0  0
  160.5170  213.3850  143.9270 C   0  0  0  0  0  0  0  0  0  0  0  0
  160.2240  212.2020  143.6150 O   0  0  0  0  0  1  0  0  0  0  0  0
  160.9220  214.2800  142.9470 O   0  0  0  0  0  0  0  0  0  0  0  0
  1 12  2  0  0  0  0
  1 13  1  0  0  0  0
  2  3  2  0  0  0  0
  3 11  1  0  0  0  0
  4 10  1  0  0  0  0
  5 20  1  0  0  0  0
  5 18  1  0  0  0  0
  6 14  1  0  0  0  0
  7  3  1  0  0  0  0
  7 20  2  0  0  0  0
  9  8  1  0  0  0  0
 10  8  2  0  0  0  0
 11 16  1  0  0  0  0
 11  4  2  0  0  0  0
 12  7  1  0  0  0  0
 13 19  1  0  0  0  0
 13  5  2  0  0  0  0
 15  4  1  0  0  0  0
 15 14  2  0  0  0  0
 16  9  2  0  0  0  0
 17 18  1  0  0  0  0
 18  6  2  0  0  0  0
 19 21  1  6  0  0  0
 19 17  1  0  0  0  0
 20 15  1  0  0  0  0
 21 22  1  6  0  0  0
 23 21  1  0  0  0  0
 24 23  1  0  0  0  0
 25 24  1  0  0  0  0
 27 29  2  0  0  0  0
 29 26  1  6  0  0  0
 29 28  1  0  0  0  0
 29 25  1  0  0  0  0
 30 12  1  0  0  0  0
 31 30  1  0  0  0  0
 32 33  1  0  0  0  0
 32 31  1  0  0  0  0
 34 33  2  0  0  0  0
 35 34  1  0  0  0  0
 36 35  1  0  0  0  0
 37 36  1  0  0  0  0
 38 37  1  0  0  0  0
 39 37  2  0  0  0  0
M  END
>  <MODEL>
7

>  <REMARK>
 VINA RESULT:      -7.2      3.114      9.203
  Name = 
  12 active torsions:
  status: ('A' for Active; 'I' for Inactive)
    1  A    between atoms: C_1  and  N_32
    2  A    between atoms: N_2  and  C_28
    3  A    between atoms: N_2  and  O_35
    4  A    between atoms: C_4  and  C_25
    5  A    between atoms: C_4  and  N_30
    6  A    between atoms: C_8  and  C_34
    7  A    between atoms: C_17  and  C_28
    8  A    between atoms: C_17  and  C_38
    9  A    between atoms: P_20  and  O_35
   10  A    between atoms: C_22  and  C_31
   11  A    between atoms: C_22  and  C_34
   12  A    between atoms: N_30  and  N_32
                            x       y       z     vdW  Elec       q    Type
                         _______ _______ _______ _____ _____    ______ ____

>  <TORSDO>
F 12

$$$$
=
 OpenBabel11042421203D

 39 43  0  0  1  0  0  0  0  0999 V2000
  161.9660  210.1080  148.6890 C   0  0  0  0  0  3  0  0  0  0  0  0
  162.0230  206.7070  151.4170 O   0  0  0  0  0  0  0  0  0  0  0  0
  161.5950  207.8310  151.7950 C   0  0  0  0  0  0  0  0  0  0  0  0
  160.6050  209.2490  153.6180 C   0  0  0  0  0  0  0  0  0  0  0  0
  161.0410  211.3050  150.5210 C   0  0  0  0  0  0  0  0  0  0  0  0
  160.0760  212.7550  152.1470 C   0  0  0  0  0  3  0  0  0  0  0  0
  161.5740  208.9960  150.8670 C   0  0  0  0  0  0  0  0  0  0  0  0
  160.1620  208.3020  155.8110 C   0  0  0  0  0  3  0  0  0  0  0  0
  160.6500  207.0660  155.3820 C   0  0  0  0  0  3  0  0  0  0  0  0
  160.1390  209.3880  154.9340 C   0  0  0  0  0  3  0  0  0  0  0  0
  161.1000  207.9970  153.1830 C   0  0  0  0  0  0  0  0  0  0  0  0
  162.0210  208.9500  149.5030 C   0  0  0  0  0  0  0  0  0  0  0  0
  161.4680  211.2910  149.2380 C   0  0  0  0  0  0  0  0  0  0  0  0
  160.0870  211.6750  153.0620 C   0  0  0  0  0  3  0  0  0  0  0  0
  160.5850  210.3960  152.6810 C   0  0  0  0  0  0  0  0  0  0  0  0
  161.1160  206.9150  154.0740 C   0  0  0  0  0  3  0  0  0  0  0  0
  160.6730  213.3820  149.7770 O   0  0  0  0  0  0  0  0  0  0  0  0
  160.5700  212.5200  150.8630 C   0  0  0  0  0  0  0  0  0  0  0  0
  161.2530  212.6710  148.6590 C   0  0  1  0  0  3  0  0  0  0  0  0
  161.0690  210.2160  151.3670 C   0  0  0  0  0  0  0  0  0  0  0  0
  162.5820  213.3200  148.2570 C   0  0  1  0  0  3  0  0  0  0  0  0
  163.5990  212.2720  147.8310 C   0  0  0  0  0  1  0  0  0  0  0  0
  162.3930  214.3480  147.1430 C   0  0  0  0  0  2  0  0  0  0  0  0
  161.4410  213.8720  146.1500 N   0  0  0  0  0  2  0  0  0  0  0  0
  162.0840  213.8700  144.9580 O   0  0  0  0  0  0  0  0  0  0  0  0
  161.9180  212.2050  142.6160 C   0  0  0  0  0  1  0  0  0  0  0  0
  160.0810  212.2010  144.6250 O   0  0  0  0  0  1  0  0  0  0  0  0
  160.0810  214.3340  143.1170 O   0  0  0  0  0  0  0  0  0  0  0  0
  161.0030  213.1360  143.8770 P   0  0  1  0  0  0  0  0  0  0  0  0
  162.5880  207.7110  148.8930 C   0  0  0  0  0  2  0  0  0  0  0  0
  161.5930  207.0860  148.0340 N   0  0  0  0  0  2  0  0  0  0  0  0
  162.2850  206.3830  147.0390 N   0  0  0  0  0  2  0  0  0  0  0  0
  161.5830  205.5610  146.1060 C   0  0  0  0  0  3  0  0  0  0  0  0
  161.4180  204.2560  146.3110 C   0  0  0  0  0  3  0  0  0  0  0  0
  161.9560  203.5470  147.5110 C   0  0  0  0  0  2  0  0  0  0  0  0
  160.8540  203.3190  148.5300 C   0  0  0  0  0  2  0  0  0  0  0  0
  160.5180  201.8710  148.5960 C   0  0  0  0  0  0  0  0  0  0  0  0
  159.6310  201.4660  149.3900 O   0  0  0  0  0  1  0  0  0  0  0  0
  161.2060  200.9620  147.8030 O   0  0  0  0  0  0  0  0  0  0  0  0
  1 13  2  0  0  0  0
  1 12  1  0  0  0  0
  2  3  2  0  0  0  0
  3 11  1  0  0  0  0
  4 10  1  0  0  0  0
  5 18  2  0  0  0  0
  5 20  1  0  0  0  0
  6 14  2  0  0  0  0
  7 20  1  0  0  0  0
  7  3  1  0  0  0  0
  9  8  1  0  0  0  0
 10  8  2  0  0  0  0
 11  4  2  0  0  0  0
 11 16  1  0  0  0  0
 12  7  2  0  0  0  0
 13  5  1  0  0  0  0
 15 14  1  0  0  0  0
 15  4  1  0  0  0  0
 16  9  2  0  0  0  0
 17 18  1  0  0  0  0
 18  6  1  0  0  0  0
 19 21  1  1  0  0  0
 19 13  1  0  0  0  0
 19 17  1  0  0  0  0
 20 15  2  0  0  0  0
 21 22  1  6  0  0  0
 23 21  1  0  0  0  0
 24 23  1  0  0  0  0
 25 24  1  0  0  0  0
 28 29  2  0  0  0  0
 29 26  1  6  0  0  0
 29 27  1  0  0  0  0
 29 25  1  0  0  0  0
 30 12  1  0  0  0  0
 31 30  1  0  0  0  0
 32 31  1  0  0  0  0
 33 34  2  0  0  0  0
 33 32  1  0  0  0  0
 34 35  1  0  0  0  0
 35 36  1  0  0  0  0
 36 37  1  0  0  0  0
 37 38  1  0  0  0  0
 39 37  2  0  0  0  0
M  END
>  <MODEL>
8

>  <REMARK>
 VINA RESULT:      -6.9      2.690      7.048
  Name = 
  12 active torsions:
  status: ('A' for Active; 'I' for Inactive)
    1  A    between atoms: C_1  and  N_32
    2  A    between atoms: N_2  and  C_28
    3  A    between atoms: N_2  and  O_35
    4  A    between atoms: C_4  and  C_25
    5  A    between atoms: C_4  and  N_30
    6  A    between atoms: C_8  and  C_34
    7  A    between atoms: C_17  and  C_28
    8  A    between atoms: C_17  and  C_38
    9  A    between atoms: P_20  and  O_35
   10  A    between atoms: C_22  and  C_31
   11  A    between atoms: C_22  and  C_34
   12  A    between atoms: N_30  and  N_32
                            x       y       z     vdW  Elec       q    Type
                         _______ _______ _______ _____ _____    ______ ____

>  <TORSDO>
F 12

$$$$
=
 OpenBabel11042421203D

 39 43  0  0  1  0  0  0  0  0999 V2000
  162.1850  208.1010  149.2890 C   0  0  0  0  0  3  0  0  0  0  0  0
  161.4100  210.6920  152.7100 O   0  0  0  0  0  0  0  0  0  0  0  0
  161.2790  209.4420  152.8030 C   0  0  0  0  0  0  0  0  0  0  0  0
  160.7250  207.4420  154.2200 C   0  0  0  0  0  0  0  0  0  0  0  0
  161.6240  206.3250  150.7640 C   0  0  0  0  0  0  0  0  0  0  0  0
  161.1510  204.3410  151.9980 C   0  0  0  0  0  3  0  0  0  0  0  0
  161.5420  208.5530  151.6380 C   0  0  0  0  0  0  0  0  0  0  0  0
  160.0770  207.7210  156.5460 C   0  0  0  0  0  3  0  0  0  0  0  0
  160.2140  209.1060  156.4220 C   0  0  0  0  0  3  0  0  0  0  0  0
  160.3310  206.8930  155.4500 C   0  0  0  0  0  3  0  0  0  0  0  0
  160.8630  208.8440  154.0960 C   0  0  0  0  0  0  0  0  0  0  0  0
  161.9560  209.0190  150.3440 C   0  0  0  0  0  0  0  0  0  0  0  0
  162.0000  206.7380  149.5330 C   0  0  0  0  0  0  0  0  0  0  0  0
  160.8840  205.1530  153.1260 C   0  0  0  0  0  3  0  0  0  0  0  0
  160.9960  206.5710  153.0540 C   0  0  0  0  0  0  0  0  0  0  0  0
  160.6050  209.6640  155.2030 C   0  0  0  0  0  3  0  0  0  0  0  0
  161.8490  204.4430  149.5750 O   0  0  0  0  0  0  0  0  0  0  0  0
  161.5260  204.9820  150.8150 C   0  0  0  0  0  0  0  0  0  0  0  0
  162.1740  205.5160  148.6600 C   0  0  1  0  0  3  0  0  0  0  0  0
  161.3830  207.1630  151.8320 C   0  0  0  0  0  0  0  0  0  0  0  0
  161.1880  205.5230  147.4880 C   0  0  1  0  0  3  0  0  0  0  0  0
  160.7030  206.9330  147.1850 C   0  0  0  0  0  1  0  0  0  0  0  0
  161.7970  204.9000  146.2340 C   0  0  0  0  0  2  0  0  0  0  0  0
  160.8660  203.9730  145.6060 N   0  0  0  0  0  2  0  0  0  0  0  0
  161.5370  202.8140  145.4100 O   0  0  0  0  0  0  0  0  0  0  0  0
  160.4120  201.8220  147.8680 C   0  0  0  0  0  1  0  0  0  0  0  0
  159.1610  201.6910  145.4540 O   0  0  0  0  0  0  0  0  0  0  0  0
  161.2070  200.0930  145.7380 O   0  0  0  0  0  1  0  0  0  0  0  0
  160.5390  201.6120  146.0690 P   0  0  1  0  0  0  0  0  0  0  0  0
  162.1320  210.4690  150.0390 C   0  0  0  0  0  2  0  0  0  0  0  0
  162.3290  210.6520  148.6090 N   0  0  0  0  0  2  0  0  0  0  0  0
  161.3430  211.5410  148.1630 N   0  0  0  0  0  2  0  0  0  0  0  0
  161.5810  212.9490  148.1590 C   0  0  0  0  0  3  0  0  0  0  0  0
  160.9540  213.7660  149.0030 C   0  0  0  0  0  3  0  0  0  0  0  0
  159.9540  213.2890  150.0050 C   0  0  0  0  0  2  0  0  0  0  0  0
  159.1320  214.4530  150.5290 C   0  0  0  0  0  2  0  0  0  0  0  0
  157.6840  214.1150  150.4710 C   0  0  0  0  0  0  0  0  0  0  0  0
  157.1650  213.7550  149.3820 O   0  0  0  0  0  0  0  0  0  0  0  0
  156.8980  214.2260  151.6090 O   0  0  0  0  0  1  0  0  0  0  0  0
  1 13  2  0  0  0  0
  1 12  1  0  0  0  0
  2  3  2  0  0  0  0
  3 11  1  0  0  0  0
  4 10  1  0  0  0  0
  5 18  2  0  0  0  0
  5 20  1  0  0  0  0
  6 14  2  0  0  0  0
  7 20  1  0  0  0  0
  7  3  1  0  0  0  0
  9  8  1  0  0  0  0
 10  8  2  0  0  0  0
 11  4  2  0  0  0  0
 11 16  1  0  0  0  0
 12  7  2  0  0  0  0
 13  5  1  0  0  0  0
 15 14  1  0  0  0  0
 15  4  1  0  0  0  0
 16  9  2  0  0  0  0
 17 18  1  0  0  0  0
 18  6  1  0  0  0  0
 19 21  1  6  0  0  0
 19 13  1  0  0  0  0
 19 17  1  0  0  0  0
 20 15  2  0  0  0  0
 21 22  1  6  0  0  0
 23 21  1  0  0  0  0
 24 23  1  0  0  0  0
 25 24  1  0  0  0  0
 25 29  1  0  0  0  0
 27 29  2  0  0  0  0
 28 29  1  0  0  0  0
 29 26  1  1  0  0  0
 30 12  1  0  0  0  0
 31 30  1  0  0  0  0
 32 31  1  0  0  0  0
 33 32  1  0  0  0  0
 33 34  2  0  0  0  0
 34 35  1  0  0  0  0
 35 36  1  0  0  0  0
 37 36  1  0  0  0  0
 37 39  1  0  0  0  0
 38 37  2  0  0  0  0
M  END
>  <MODEL>
9

>  <REMARK>
 VINA RESULT:      -6.9      3.620      7.397
  Name = 
  12 active torsions:
  status: ('A' for Active; 'I' for Inactive)
    1  A    between atoms: C_1  and  N_32
    2  A    between atoms: N_2  and  C_28
    3  A    between atoms: N_2  and  O_35
    4  A    between atoms: C_4  and  C_25
    5  A    between atoms: C_4  and  N_30
    6  A    between atoms: C_8  and  C_34
    7  A    between atoms: C_17  and  C_28
    8  A    between atoms: C_17  and  C_38
    9  A    between atoms: P_20  and  O_35
   10  A    between atoms: C_22  and  C_31
   11  A    between atoms: C_22  and  C_34
   12  A    between atoms: N_30  and  N_32
                            x       y       z     vdW  Elec       q    Type
                         _______ _______ _______ _____ _____    ______ ____

>  <TORSDO>
F 12

$$$$
