=
 OpenBabel11052412043D

 40 46  0  0  1  0  0  0  0  0999 V2000
  161.6250  206.2500  153.0160 C   0  0  0  0  0  0  0  0  0  0  0  0
  160.2800  212.4770  151.2170 C   0  0  0  0  0  2  0  0  0  0  0  0
  161.5990  205.7920  154.3610 C   0  0  0  0  0  3  0  0  0  0  0  0
  160.4720  210.3530  152.5760 C   0  0  0  0  0  0  0  0  0  0  0  0
  160.3580  208.9080  155.9120 N   0  0  0  0  0  0  0  0  0  0  0  0
  160.8680  209.6370  151.4160 C   0  0  0  0  0  3  0  0  0  0  0  0
  159.5540  211.0940  155.5170 C   0  0  0  0  0  2  0  0  0  0  0  0
  162.2000  205.3300  151.9960 C   0  0  0  0  0  1  0  0  0  0  0  0
  159.3480  212.4680  153.4020 C   0  0  0  0  0  0  0  0  0  0  0  0
  160.7660  207.9150  155.0890 C   0  0  0  0  0  0  0  0  0  0  0  0
  158.7060  213.6070  152.7000 C   0  0  1  0  0  3  0  0  0  0  0  0
  161.1920  207.5760  152.7150 C   0  0  0  0  0  0  0  0  0  0  0  0
  160.7800  208.3310  153.8010 C   0  0  0  0  0  0  0  0  0  0  0  0
  161.1780  208.2480  151.4550 C   0  0  0  0  0  0  0  0  0  0  0  0
  160.1190  209.9650  155.0830 C   0  0  0  0  0  0  0  0  0  0  0  0
  159.5090  213.7730  151.4220 C   0  0  0  0  0  2  0  0  0  0  0  0
  160.4470  211.8580  152.5980 C   0  0  2  0  0  3  0  0  0  0  0  0
  161.1640  206.6230  155.4180 C   0  0  0  0  0  3  0  0  0  0  0  0
  159.0570  212.2050  154.6810 C   0  0  0  0  0  3  0  0  0  0  0  0
  160.4050  209.6280  153.7640 C   0  0  0  0  0  0  0  0  0  0  0  0
  161.3600  206.4260  148.0230 C   0  0  0  0  0  0  0  0  0  0  0  0
  162.4160  207.2650  148.1000 N   0  0  0  0  0  0  0  0  0  0  0  0
  160.4230  206.4770  149.4210 S   0  0  0  0  0  0  0  0  0  0  0  0
  161.4470  207.5830  150.1730 C   0  0  0  0  0  0  0  0  0  0  0  0
  162.4650  207.9240  149.2900 C   0  0  0  0  0  3  0  0  0  0  0  0
  161.0460  205.6300  146.8020 C   0  0  2  0  0  3  0  0  0  0  0  0
  160.7060  204.2940  144.4840 N   0  0  0  0  0  2  0  0  0  0  0  0
  161.7430  203.9430  146.9510 S   0  0  0  0  0  0  0  0  0  0  0  0
  160.9360  205.7450  144.4090 C   0  0  0  0  0  2  0  0  0  0  0  0
  161.8300  203.6470  145.1490 C   0  0  0  0  0  2  0  0  0  0  0  0
  161.5730  206.2920  145.6150 N   0  0  0  0  0  2  0  0  0  0  0  0
  157.3310  213.2640  152.3650 N   0  0  0  0  0  2  0  0  0  0  0  0
  156.3450  213.6200  153.7450 S   0  0  0  0  0  0  0  0  0  0  0  0
  155.1270  214.3900  153.3140 O   0  0  0  0  0  0  0  0  0  0  0  0
  157.1350  214.4500  154.7140 O   0  0  0  0  0  0  0  0  0  0  0  0
  155.8360  212.1120  154.5460 C   0  0  0  0  0  2  0  0  0  0  0  0
  156.0550  212.2170  155.9440 O   0  0  0  0  0  0  0  0  0  0  0  0
  154.4180  211.3000  157.2610 O   0  0  0  0  0  1  0  0  0  0  0  0
  154.9930  212.3360  156.8370 C   0  0  0  0  0  0  0  0  0  0  0  0
  154.5550  213.5870  157.2600 O   0  0  0  0  0  0  0  0  0  0  0  0
  1  3  1  0  0  0  0
  2 16  1  0  0  0  0
  3 18  2  0  0  0  0
  4 17  1  0  0  0  0
  4 20  2  0  0  0  0
  6 14  2  0  0  0  0
  6  4  1  0  0  0  0
  8  1  1  0  0  0  0
  9 19  2  0  0  0  0
 10 18  1  0  0  0  0
 10  5  1  0  0  0  0
 11 32  1  6  0  0  0
 11  9  1  0  0  0  0
 12  1  2  0  0  0  0
 12 13  1  0  0  0  0
 13 10  2  0  0  0  0
 14 12  1  0  0  0  0
 15  7  1  0  0  0  0
 15  5  2  0  0  0  0
 16 11  1  0  0  0  0
 17  2  1  6  0  0  0
 17  9  1  0  0  0  0
 19  7  1  0  0  0  0
 20 13  1  0  0  0  0
 20 15  1  0  0  0  0
 21 22  2  0  0  0  0
 21 23  1  0  0  0  0
 22 25  1  0  0  0  0
 23 24  1  0  0  0  0
 24 14  1  0  0  0  0
 25 24  2  0  0  0  0
 26 28  1  0  0  0  0
 26 21  1  1  0  0  0
 27 30  1  0  0  0  0
 29 27  1  0  0  0  0
 29 31  1  0  0  0  0
 30 28  1  0  0  0  0
 31 26  1  0  0  0  0
 32 33  1  0  0  0  0
 33 36  1  0  0  0  0
 33 35  2  0  0  0  0
 34 33  2  0  0  0  0
 36 37  1  0  0  0  0
 37 39  1  0  0  0  0
 39 40  2  0  0  0  0
 39 38  1  0  0  0  0
M  END
>  <MODEL>
1

>  <REMARK>
 VINA RESULT:      -7.1      0.000      0.000
  Name = 
  7 active torsions:
  status: ('A' for Active; 'I' for Inactive)
    1  A    between atoms: C_3  and  C_5
    2  A    between atoms: S_6  and  C_7
    3  A    between atoms: S_6  and  N_17
    4  A    between atoms: C_7  and  O_14
    5  A    between atoms: O_14  and  C_22
    6  A    between atoms: N_17  and  C_26
    7  A    between atoms: C_29  and  C_35
                            x       y       z     vdW  Elec       q    Type
                         _______ _______ _______ _____ _____    ______ ____

>  <TORSDO>
F 7

$$$$
=
 OpenBabel11052412043D

 40 46  0  0  1  0  0  0  0  0999 V2000
  160.4640  207.8010  154.3350 C   0  0  0  0  0  0  0  0  0  0  0  0
  162.1000  211.0370  148.7960 C   0  0  0  0  0  2  0  0  0  0  0  0
  159.9580  208.4360  155.5020 C   0  0  0  0  0  3  0  0  0  0  0  0
  161.1350  210.4920  151.0700 C   0  0  0  0  0  0  0  0  0  0  0  0
  159.7150  211.8580  154.1290 N   0  0  0  0  0  0  0  0  0  0  0  0
  161.4710  209.1250  150.8950 C   0  0  0  0  0  3  0  0  0  0  0  0
  159.9400  213.2020  152.1990 C   0  0  0  0  0  2  0  0  0  0  0  0
  160.8490  206.3680  154.4540 C   0  0  0  0  0  1  0  0  0  0  0  0
  160.7710  212.6910  149.8640 C   0  0  0  0  0  0  0  0  0  0  0  0
  159.8780  210.5330  154.3510 C   0  0  0  0  0  0  0  0  0  0  0  0
  160.8010  213.0690  148.4290 C   0  0  1  0  0  3  0  0  0  0  0  0
  160.6620  208.5660  153.1470 C   0  0  0  0  0  0  0  0  0  0  0  0
  160.3440  209.9110  153.2430 C   0  0  0  0  0  0  0  0  0  0  0  0
  161.1970  208.1460  151.8920 C   0  0  0  0  0  0  0  0  0  0  0  0
  160.1020  212.0380  152.8320 C   0  0  0  0  0  0  0  0  0  0  0  0
  161.8710  212.1800  147.8200 C   0  0  0  0  0  2  0  0  0  0  0  0
  161.6950  211.5600  150.1680 C   0  0  2  0  0  3  0  0  0  0  0  0
  159.6550  209.8160  155.5220 C   0  0  0  0  0  3  0  0  0  0  0  0
  160.1190  213.4470  150.7540 C   0  0  0  0  0  3  0  0  0  0  0  0
  160.5240  210.8360  152.2740 C   0  0  0  0  0  0  0  0  0  0  0  0
  161.5750  204.5050  150.5760 C   0  0  0  0  0  0  0  0  0  0  0  0
  162.7330  204.8460  151.1820 N   0  0  0  0  0  0  0  0  0  0  0  0
  160.4430  205.7490  150.6540 S   0  0  0  0  0  0  0  0  0  0  0  0
  161.4680  206.7430  151.5490 C   0  0  0  0  0  0  0  0  0  0  0  0
  162.6880  206.0970  151.7150 C   0  0  0  0  0  3  0  0  0  0  0  0
  161.3850  203.2100  149.8620 C   0  0  2  0  0  3  0  0  0  0  0  0
  160.7710  200.9250  148.5670 N   0  0  0  0  0  2  0  0  0  0  0  0
  161.5770  203.4490  148.0560 S   0  0  0  0  0  0  0  0  0  0  0  0
  160.0320  201.2290  149.8020 C   0  0  0  0  0  2  0  0  0  0  0  0
  160.5750  201.9920  147.5950 C   0  0  0  0  0  2  0  0  0  0  0  0
  160.0700  202.6540  150.1610 N   0  0  0  0  0  2  0  0  0  0  0  0
  159.5150  212.7660  147.8150 N   0  0  0  0  0  2  0  0  0  0  0  0
  159.4910  213.4990  146.2450 S   0  0  0  0  0  0  0  0  0  0  0  0
  160.6500  214.4470  146.1100 O   0  0  0  0  0  0  0  0  0  0  0  0
  158.2090  214.2610  146.0770 O   0  0  0  0  0  0  0  0  0  0  0  0
  159.6000  212.2510  144.9800 C   0  0  0  0  0  2  0  0  0  0  0  0
  160.8080  212.4120  144.2530 O   0  0  0  0  0  0  0  0  0  0  0  0
  161.9550  212.1000  142.2920 O   0  0  0  0  0  1  0  0  0  0  0  0
  160.8470  212.2530  142.8690 C   0  0  0  0  0  0  0  0  0  0  0  0
  159.6770  212.2670  142.1170 O   0  0  0  0  0  0  0  0  0  0  0  0
  1  8  1  0  0  0  0
  1  3  1  0  0  0  0
  3 18  2  0  0  0  0
  4 20  2  0  0  0  0
  5 10  1  0  0  0  0
  6  4  1  0  0  0  0
  6 14  2  0  0  0  0
  7 15  1  0  0  0  0
  9 17  1  0  0  0  0
  9 19  2  0  0  0  0
 10 18  1  0  0  0  0
 11 32  1  6  0  0  0
 11  9  1  0  0  0  0
 12 13  1  0  0  0  0
 12  1  2  0  0  0  0
 13 10  2  0  0  0  0
 14 12  1  0  0  0  0
 15  5  2  0  0  0  0
 16 11  1  0  0  0  0
 16  2  1  0  0  0  0
 17  2  1  6  0  0  0
 17  4  1  0  0  0  0
 19  7  1  0  0  0  0
 20 15  1  0  0  0  0
 20 13  1  0  0  0  0
 21 23  1  0  0  0  0
 21 22  2  0  0  0  0
 22 25  1  0  0  0  0
 23 24  1  0  0  0  0
 24 25  2  0  0  0  0
 24 14  1  0  0  0  0
 26 31  1  0  0  0  0
 26 21  1  1  0  0  0
 27 29  1  0  0  0  0
 28 26  1  0  0  0  0
 29 31  1  0  0  0  0
 30 28  1  0  0  0  0
 30 27  1  0  0  0  0
 33 32  1  0  0  0  0
 34 33  2  0  0  0  0
 35 33  2  0  0  0  0
 36 33  1  0  0  0  0
 37 36  1  0  0  0  0
 38 39  1  0  0  0  0
 39 37  1  0  0  0  0
 40 39  2  0  0  0  0
M  END
>  <MODEL>
2

>  <REMARK>
 VINA RESULT:      -6.8      4.863      6.433
  Name = 
  7 active torsions:
  status: ('A' for Active; 'I' for Inactive)
    1  A    between atoms: C_3  and  C_5
    2  A    between atoms: S_6  and  C_7
    3  A    between atoms: S_6  and  N_17
    4  A    between atoms: C_7  and  O_14
    5  A    between atoms: O_14  and  C_22
    6  A    between atoms: N_17  and  C_26
    7  A    between atoms: C_29  and  C_35
                            x       y       z     vdW  Elec       q    Type
                         _______ _______ _______ _____ _____    ______ ____

>  <TORSDO>
F 7

$$$$
=
 OpenBabel11052412043D

 40 46  0  0  1  0  0  0  0  0999 V2000
  161.4690  205.8520  152.0870 C   0  0  0  0  0  0  0  0  0  0  0  0
  162.0800  211.2570  148.3150 C   0  0  0  0  0  2  0  0  0  0  0  0
  161.1620  205.8860  153.4750 C   0  0  0  0  0  3  0  0  0  0  0  0
  161.5290  209.7200  150.2460 C   0  0  0  0  0  0  0  0  0  0  0  0
  160.6360  209.5310  153.7680 N   0  0  0  0  0  0  0  0  0  0  0  0
  161.8500  208.5900  149.4500 C   0  0  0  0  0  3  0  0  0  0  0  0
  160.5060  211.5800  152.5990 C   0  0  0  0  0  2  0  0  0  0  0  0
  161.8900  204.5420  151.5170 C   0  0  0  0  0  1  0  0  0  0  0  0
  160.9300  212.1800  150.1780 C   0  0  0  0  0  0  0  0  0  0  0  0
  160.8540  208.2580  153.3690 C   0  0  0  0  0  0  0  0  0  0  0  0
  160.7070  213.1310  149.0600 C   0  0  1  0  0  3  0  0  0  0  0  0
  161.4490  207.0620  151.3320 C   0  0  0  0  0  0  0  0  0  0  0  0
  161.1320  208.2060  152.0450 C   0  0  0  0  0  0  0  0  0  0  0  0
  161.7660  207.2610  149.9550 C   0  0  0  0  0  0  0  0  0  0  0  0
  160.7910  210.2770  152.6350 C   0  0  0  0  0  0  0  0  0  0  0  0
  161.6690  212.6820  147.9750 C   0  0  0  0  0  2  0  0  0  0  0  0
  161.9090  211.1130  149.8220 C   0  0  2  0  0  3  0  0  0  0  0  0
  160.8470  207.0950  154.1340 C   0  0  0  0  0  3  0  0  0  0  0  0
  160.4300  212.4290  151.3930 C   0  0  0  0  0  3  0  0  0  0  0  0
  161.1280  209.4660  151.5570 C   0  0  0  0  0  0  0  0  0  0  0  0
  161.8640  204.2180  147.5330 C   0  0  0  0  0  0  0  0  0  0  0  0
  162.7260  205.1460  147.0640 N   0  0  0  0  0  0  0  0  0  0  0  0
  161.1280  204.7210  148.9620 S   0  0  0  0  0  0  0  0  0  0  0  0
  161.9940  206.1650  149.0030 C   0  0  0  0  0  0  0  0  0  0  0  0
  162.7960  206.2400  147.8690 C   0  0  0  0  0  3  0  0  0  0  0  0
  161.5610  202.9520  146.8060 C   0  0  2  0  0  3  0  0  0  0  0  0
  160.7800  200.6490  145.6390 N   0  0  0  0  0  2  0  0  0  0  0  0
  160.6900  203.3160  145.2370 S   0  0  0  0  0  0  0  0  0  0  0  0
  160.7920  200.7000  147.1090 C   0  0  0  0  0  2  0  0  0  0  0  0
  159.8900  201.6770  145.1140 C   0  0  0  0  0  2  0  0  0  0  0  0
  160.7530  202.0690  147.6400 N   0  0  0  0  0  2  0  0  0  0  0  0
  159.3390  213.0060  148.5750 N   0  0  0  0  0  2  0  0  0  0  0  0
  159.2950  213.6050  146.9490 S   0  0  0  0  0  0  0  0  0  0  0  0
  160.5120  214.4480  146.6860 O   0  0  0  0  0  0  0  0  0  0  0  0
  158.0650  214.4460  146.7680 O   0  0  0  0  0  0  0  0  0  0  0  0
  159.2550  212.2520  145.7930 C   0  0  0  0  0  2  0  0  0  0  0  0
  159.0980  212.7540  144.4750 O   0  0  0  0  0  0  0  0  0  0  0  0
  159.9110  212.8400  142.3330 O   0  0  0  0  0  0  0  0  0  0  0  0
  160.1520  212.7390  143.5640 C   0  0  0  0  0  0  0  0  0  0  0  0
  161.4670  212.6080  143.9980 O   0  0  0  0  0  1  0  0  0  0  0  0
  1  3  1  0  0  0  0
  3 18  2  0  0  0  0
  4 20  2  0  0  0  0
  6 14  2  0  0  0  0
  6  4  1  0  0  0  0
  7 15  1  0  0  0  0
  8  1  1  0  0  0  0
  9 19  2  0  0  0  0
 10  5  1  0  0  0  0
 10 18  1  0  0  0  0
 11 32  1  6  0  0  0
 11  9  1  0  0  0  0
 12 13  1  0  0  0  0
 12  1  2  0  0  0  0
 13 10  2  0  0  0  0
 14 12  1  0  0  0  0
 15  5  2  0  0  0  0
 16  2  1  0  0  0  0
 16 11  1  0  0  0  0
 17  2  1  6  0  0  0
 17  9  1  0  0  0  0
 17  4  1  0  0  0  0
 19  7  1  0  0  0  0
 20 13  1  0  0  0  0
 20 15  1  0  0  0  0
 21 23  1  0  0  0  0
 22 21  2  0  0  0  0
 22 25  1  0  0  0  0
 23 24  1  0  0  0  0
 24 14  1  0  0  0  0
 25 24  2  0  0  0  0
 26 21  1  1  0  0  0
 26 31  1  0  0  0  0
 27 29  1  0  0  0  0
 28 26  1  0  0  0  0
 29 31  1  0  0  0  0
 30 28  1  0  0  0  0
 30 27  1  0  0  0  0
 33 32  1  0  0  0  0
 34 33  2  0  0  0  0
 35 33  2  0  0  0  0
 36 33  1  0  0  0  0
 37 36  1  0  0  0  0
 38 39  2  0  0  0  0
 39 40  1  0  0  0  0
 39 37  1  0  0  0  0
M  END
>  <MODEL>
3

>  <REMARK>
 VINA RESULT:      -6.8      4.406      5.867
  Name = 
  7 active torsions:
  status: ('A' for Active; 'I' for Inactive)
    1  A    between atoms: C_3  and  C_5
    2  A    between atoms: S_6  and  C_7
    3  A    between atoms: S_6  and  N_17
    4  A    between atoms: C_7  and  O_14
    5  A    between atoms: O_14  and  C_22
    6  A    between atoms: N_17  and  C_26
    7  A    between atoms: C_29  and  C_35
                            x       y       z     vdW  Elec       q    Type
                         _______ _______ _______ _____ _____    ______ ____

>  <TORSDO>
F 7

$$$$
=
 OpenBabel11052412043D

 40 46  0  0  1  0  0  0  0  0999 V2000
  160.2690  213.4730  150.8630 C   0  0  0  0  0  0  0  0  0  0  0  0
  161.7900  207.3960  153.0030 C   0  0  0  0  0  2  0  0  0  0  0  0
  160.6160  213.9690  149.5770 C   0  0  0  0  0  3  0  0  0  0  0  0
  161.4170  209.3950  151.4990 C   0  0  0  0  0  0  0  0  0  0  0  0
  162.0800  210.8530  148.2330 N   0  0  0  0  0  0  0  0  0  0  0  0
  160.7970  210.0940  152.5660 C   0  0  0  0  0  3  0  0  0  0  0  0
  162.4830  208.5600  148.6330 C   0  0  0  0  0  2  0  0  0  0  0  0
  159.7320  214.4530  151.8470 C   0  0  0  0  0  1  0  0  0  0  0  0
  162.1060  207.1030  150.6670 C   0  0  0  0  0  0  0  0  0  0  0  0
  161.4740  211.8210  148.9580 C   0  0  0  0  0  0  0  0  0  0  0  0
  161.9310  205.7360  151.2210 C   0  0  1  0  0  3  0  0  0  0  0  0
  160.5240  212.1060  151.1830 C   0  0  0  0  0  0  0  0  0  0  0  0
  161.1210  211.3590  150.1810 C   0  0  0  0  0  0  0  0  0  0  0  0
  160.3010  211.4200  152.4150 C   0  0  0  0  0  0  0  0  0  0  0  0
  162.0930  209.7650  149.0560 C   0  0  0  0  0  0  0  0  0  0  0  0
  162.0160  205.9180  152.7260 C   0  0  0  0  0  2  0  0  0  0  0  0
  162.2070  208.1360  151.7390 C   0  0  2  0  0  3  0  0  0  0  0  0
  161.2230  213.1430  148.6040 C   0  0  0  0  0  3  0  0  0  0  0  0
  162.3370  207.2840  149.3630 C   0  0  0  0  0  3  0  0  0  0  0  0
  161.5230  210.0740  150.2870 C   0  0  0  0  0  0  0  0  0  0  0  0
  157.9130  212.6960  155.2080 C   0  0  0  0  0  0  0  0  0  0  0  0
  159.1500  212.5930  155.7390 N   0  0  0  0  0  0  0  0  0  0  0  0
  157.8990  212.2700  153.5790 S   0  0  0  0  0  0  0  0  0  0  0  0
  159.5610  211.9950  153.5460 C   0  0  0  0  0  0  0  0  0  0  0  0
  160.0730  212.1900  154.8240 C   0  0  0  0  0  3  0  0  0  0  0  0
  156.7120  213.0620  156.0130 C   0  0  2  0  0  3  0  0  0  0  0  0
  154.3900  213.6400  157.2570 N   0  0  0  0  0  2  0  0  0  0  0  0
  156.2180  211.6620  157.0840 S   0  0  0  0  0  0  0  0  0  0  0  0
  154.5890  214.1730  155.9010 C   0  0  0  0  0  2  0  0  0  0  0  0
  154.4730  212.1850  157.2350 C   0  0  0  0  0  2  0  0  0  0  0  0
  155.6100  213.4430  155.1370 N   0  0  0  0  0  2  0  0  0  0  0  0
  160.6120  205.2300  150.8690 N   0  0  0  0  0  2  0  0  0  0  0  0
  160.8040  203.6110  150.2820 S   0  0  0  0  0  0  0  0  0  0  0  0
  159.4600  202.9430  150.1870 O   0  0  0  0  0  0  0  0  0  0  0  0
  161.6700  202.8410  151.2370 O   0  0  0  0  0  0  0  0  0  0  0  0
  161.5720  203.6230  148.6760 C   0  0  0  0  0  2  0  0  0  0  0  0
  160.8740  204.5140  147.8200 O   0  0  0  0  0  0  0  0  0  0  0  0
  162.7480  204.9840  146.5860 O   0  0  0  0  0  1  0  0  0  0  0  0
  161.5320  205.2150  146.8120 C   0  0  0  0  0  0  0  0  0  0  0  0
  160.8620  206.1720  146.0570 O   0  0  0  0  0  0  0  0  0  0  0  0
  1 12  1  0  0  0  0
  1  8  1  0  0  0  0
  3  1  2  0  0  0  0
  4 17  1  0  0  0  0
  4  6  1  0  0  0  0
  5 10  1  0  0  0  0
  5 15  2  0  0  0  0
  7 15  1  0  0  0  0
  7 19  1  0  0  0  0
  9 11  1  0  0  0  0
  9 17  1  0  0  0  0
 10 13  1  0  0  0  0
 11 32  1  1  0  0  0
 11 16  1  0  0  0  0
 12 14  1  0  0  0  0
 13 20  1  0  0  0  0
 13 12  2  0  0  0  0
 14  6  2  0  0  0  0
 14 24  1  0  0  0  0
 15 20  1  0  0  0  0
 16  2  1  0  0  0  0
 17  2  1  1  0  0  0
 18 10  2  0  0  0  0
 18  3  1  0  0  0  0
 19  9  2  0  0  0  0
 20  4  2  0  0  0  0
 21 22  2  0  0  0  0
 23 21  1  0  0  0  0
 24 23  1  0  0  0  0
 24 25  2  0  0  0  0
 25 22  1  0  0  0  0
 26 21  1  6  0  0  0
 26 28  1  0  0  0  0
 28 30  1  0  0  0  0
 29 27  1  0  0  0  0
 30 27  1  0  0  0  0
 31 29  1  0  0  0  0
 31 26  1  0  0  0  0
 33 32  1  0  0  0  0
 33 35  2  0  0  0  0
 34 33  2  0  0  0  0
 36 33  1  0  0  0  0
 37 36  1  0  0  0  0
 38 39  1  0  0  0  0
 39 37  1  0  0  0  0
 40 39  2  0  0  0  0
M  END
>  <MODEL>
4

>  <REMARK>
 VINA RESULT:      -6.5      4.908     10.086
  Name = 
  7 active torsions:
  status: ('A' for Active; 'I' for Inactive)
    1  A    between atoms: C_3  and  C_5
    2  A    between atoms: S_6  and  C_7
    3  A    between atoms: S_6  and  N_17
    4  A    between atoms: C_7  and  O_14
    5  A    between atoms: O_14  and  C_22
    6  A    between atoms: N_17  and  C_26
    7  A    between atoms: C_29  and  C_35
                            x       y       z     vdW  Elec       q    Type
                         _______ _______ _______ _____ _____    ______ ____

>  <TORSDO>
F 7

$$$$
=
 OpenBabel11052412043D

 40 46  0  0  1  0  0  0  0  0999 V2000
  160.7360  212.1720  151.1310 C   0  0  0  0  0  0  0  0  0  0  0  0
  161.6700  205.8090  152.7000 C   0  0  0  0  0  2  0  0  0  0  0  0
  161.1400  212.7510  149.8960 C   0  0  0  0  0  3  0  0  0  0  0  0
  161.4980  207.9640  151.3870 C   0  0  0  0  0  0  0  0  0  0  0  0
  162.3230  209.6500  148.2710 N   0  0  0  0  0  0  0  0  0  0  0  0
  160.9340  208.6160  152.5140 C   0  0  0  0  0  3  0  0  0  0  0  0
  162.5100  207.3030  148.4570 C   0  0  0  0  0  2  0  0  0  0  0  0
  160.2820  213.1030  152.2010 C   0  0  0  0  0  1  0  0  0  0  0  0
  161.9810  205.7050  150.3470 C   0  0  0  0  0  0  0  0  0  0  0  0
  161.8020  210.5990  149.0820 C   0  0  0  0  0  0  0  0  0  0  0  0
  161.6750  204.3150  150.7710 C   0  0  1  0  0  3  0  0  0  0  0  0
  160.8610  210.7640  151.3230 C   0  0  0  0  0  0  0  0  0  0  0  0
  161.3970  210.0610  150.2560 C   0  0  0  0  0  0  0  0  0  0  0  0
  160.5640  209.9900  152.4850 C   0  0  0  0  0  0  0  0  0  0  0  0
  162.2290  208.4940  148.9900 C   0  0  0  0  0  0  0  0  0  0  0  0
  161.7620  204.3480  152.2870 C   0  0  0  0  0  2  0  0  0  0  0  0
  162.1650  206.6210  151.5100 C   0  0  2  0  0  3  0  0  0  0  0  0
  161.6780  211.9650  148.8520 C   0  0  0  0  0  3  0  0  0  0  0  0
  162.2400  205.9840  149.0650 C   0  0  0  0  0  3  0  0  0  0  0  0
  161.6770  208.7390  150.2430 C   0  0  0  0  0  0  0  0  0  0  0  0
  158.2960  211.4490  155.2890 C   0  0  0  0  0  0  0  0  0  0  0  0
  159.2100  210.6460  155.8750 N   0  0  0  0  0  0  0  0  0  0  0  0
  158.5120  211.5230  153.6210 S   0  0  0  0  0  0  0  0  0  0  0  0
  159.8680  210.5250  153.6650 C   0  0  0  0  0  0  0  0  0  0  0  0
  160.0830  210.1160  154.9760 C   0  0  0  0  0  3  0  0  0  0  0  0
  157.1920  212.1070  156.0450 C   0  0  2  0  0  3  0  0  0  0  0  0
  155.2430  213.5210  157.2610 N   0  0  0  0  0  2  0  0  0  0  0  0
  155.5820  211.7600  155.2440 S   0  0  0  0  0  0  0  0  0  0  0  0
  156.5790  214.1300  157.1800 C   0  0  0  0  0  2  0  0  0  0  0  0
  154.7450  213.2380  155.9210 C   0  0  0  0  0  2  0  0  0  0  0  0
  157.4180  213.5460  156.1240 N   0  0  0  0  0  2  0  0  0  0  0  0
  160.3190  203.9680  150.3720 N   0  0  0  0  0  2  0  0  0  0  0  0
  160.3850  202.4570  149.5260 S   0  0  0  0  0  0  0  0  0  0  0  0
  158.9900  201.9530  149.2770 O   0  0  0  0  0  0  0  0  0  0  0  0
  161.1280  201.4560  150.3630 O   0  0  0  0  0  0  0  0  0  0  0  0
  161.2260  202.6570  147.9700 C   0  0  0  0  0  2  0  0  0  0  0  0
  160.8270  201.6290  147.0760 O   0  0  0  0  0  0  0  0  0  0  0  0
  160.9350  202.9900  145.2330 O   0  0  0  0  0  1  0  0  0  0  0  0
  160.5610  201.8980  145.7350 C   0  0  0  0  0  0  0  0  0  0  0  0
  159.8800  200.9760  144.9460 O   0  0  0  0  0  0  0  0  0  0  0  0
  1 12  1  0  0  0  0
  1  8  1  0  0  0  0
  3  1  2  0  0  0  0
  4 17  1  0  0  0  0
  4  6  1  0  0  0  0
  5 15  2  0  0  0  0
  5 10  1  0  0  0  0
  7 15  1  0  0  0  0
  7 19  1  0  0  0  0
  9 11  1  0  0  0  0
  9 17  1  0  0  0  0
 10 13  1  0  0  0  0
 11 32  1  1  0  0  0
 11 16  1  0  0  0  0
 12 14  1  0  0  0  0
 13 12  2  0  0  0  0
 14  6  2  0  0  0  0
 14 24  1  0  0  0  0
 15 20  1  0  0  0  0
 16  2  1  0  0  0  0
 17  2  1  1  0  0  0
 18 10  2  0  0  0  0
 18  3  1  0  0  0  0
 19  9  2  0  0  0  0
 20 13  1  0  0  0  0
 20  4  2  0  0  0  0
 21 22  2  0  0  0  0
 23 24  1  0  0  0  0
 23 21  1  0  0  0  0
 24 25  2  0  0  0  0
 25 22  1  0  0  0  0
 26 21  1  6  0  0  0
 26 31  1  0  0  0  0
 28 30  1  0  0  0  0
 28 26  1  0  0  0  0
 29 27  1  0  0  0  0
 30 27  1  0  0  0  0
 31 29  1  0  0  0  0
 33 35  2  0  0  0  0
 33 32  1  0  0  0  0
 34 33  2  0  0  0  0
 36 33  1  0  0  0  0
 37 36  1  0  0  0  0
 38 39  1  0  0  0  0
 39 37  1  0  0  0  0
 40 39  2  0  0  0  0
M  END
>  <MODEL>
5

>  <REMARK>
 VINA RESULT:      -5.9      5.468     10.470
  Name = 
  7 active torsions:
  status: ('A' for Active; 'I' for Inactive)
    1  A    between atoms: C_3  and  C_5
    2  A    between atoms: S_6  and  C_7
    3  A    between atoms: S_6  and  N_17
    4  A    between atoms: C_7  and  O_14
    5  A    between atoms: O_14  and  C_22
    6  A    between atoms: N_17  and  C_26
    7  A    between atoms: C_29  and  C_35
                            x       y       z     vdW  Elec       q    Type
                         _______ _______ _______ _____ _____    ______ ____

>  <TORSDO>
F 7

$$$$
=
 OpenBabel11052412043D

 40 47  0  0  1  0  0  0  0  0999 V2000
  161.4090  204.8480  151.5360 C   0  0  0  0  0  0  0  0  0  0  0  0
  162.1660  210.7450  148.6260 C   0  0  0  0  0  2  0  0  0  0  0  0
  161.1900  204.6750  152.9300 C   0  0  0  0  0  3  0  0  0  0  0  0
  161.6270  208.9520  150.3260 C   0  0  0  0  0  0  0  0  0  0  0  0
  160.9410  208.2510  153.8290 N   0  0  0  0  0  0  0  0  0  0  0  0
  161.8190  207.9490  149.3410 C   0  0  0  0  0  3  0  0  0  0  0  0
  160.8840  210.4650  153.0090 C   0  0  0  0  0  2  0  0  0  0  0  0
  161.7010  203.6250  150.7380 C   0  0  0  0  0  2  0  0  0  0  0  0
  161.1990  211.4220  150.6880 C   0  0  0  0  0  0  0  0  0  0  0  0
  161.0440  207.0470  153.2210 C   0  0  0  0  0  0  0  0  0  0  0  0
  160.9760  212.5530  149.7530 C   0  0  1  0  0  3  0  0  0  0  0  0
  161.4280  206.1630  150.9840 C   0  0  0  0  0  0  0  0  0  0  0  0
  161.2360  207.1940  151.8890 C   0  0  0  0  0  0  0  0  0  0  0  0
  161.6730  206.5630  149.6360 C   0  0  0  0  0  0  0  0  0  0  0  0
  161.0780  209.1590  152.8200 C   0  0  0  0  0  0  0  0  0  0  0  0
  161.8360  212.2280  148.5440 C   0  0  0  0  0  2  0  0  0  0  0  0
  162.0780  210.3700  150.1000 C   0  0  2  0  0  3  0  0  0  0  0  0
  161.0020  205.7790  153.7920 C   0  0  0  0  0  3  0  0  0  0  0  0
  160.7940  211.5010  151.9600 C   0  0  0  0  0  3  0  0  0  0  0  0
  161.2910  208.5140  151.6060 C   0  0  0  0  0  0  0  0  0  0  0  0
  161.5340  203.7970  146.9040 C   0  0  0  0  0  0  0  0  0  0  0  0
  161.9100  204.9480  146.3050 N   0  0  0  0  0  0  0  0  0  0  0  0
  161.3080  204.0030  148.5600 S   0  0  2  0  0  3  0  0  0  0  0  0
  161.7650  205.6230  148.5100 C   0  0  0  0  0  0  0  0  0  0  0  0
  162.0290  205.9750  147.1900 C   0  0  0  0  0  3  0  0  0  0  0  0
  161.2760  202.5370  146.1490 C   0  0  2  0  0  3  0  0  0  0  0  0
  160.6220  200.1990  144.9740 N   0  0  0  0  0  2  0  0  0  0  0  0
  160.0330  202.8290  144.8360 S   0  0  0  0  0  0  0  0  0  0  0  0
  160.9510  200.1740  146.4070 C   0  0  0  0  0  2  0  0  0  0  0  0
  159.4900  201.0870  144.7410 C   0  0  0  0  0  2  0  0  0  0  0  0
  160.8200  201.4880  147.0530 N   0  0  0  0  0  2  0  0  0  0  0  0
  159.5760  212.5890  149.3530 N   0  0  0  0  0  2  0  0  0  0  0  0
  158.7190  213.5550  150.5090 S   0  0  0  0  0  0  0  0  0  0  0  0
  157.7430  214.4510  149.7970 O   0  0  0  0  0  0  0  0  0  0  0  0
  159.7010  214.4010  151.2680 O   0  0  0  0  0  0  0  0  0  0  0  0
  157.8370  212.5130  151.6520 C   0  0  0  0  0  2  0  0  0  0  0  0
  157.8540  213.1010  152.9440 O   0  0  0  0  0  0  0  0  0  0  0  0
  156.4370  213.0280  154.7450 O   0  0  0  0  0  1  0  0  0  0  0  0
  156.6740  213.4650  153.5890 C   0  0  0  0  0  0  0  0  0  0  0  0
  155.7510  214.3020  152.9680 O   0  0  0  0  0  0  0  0  0  0  0  0
  1  3  1  0  0  0  0
  3 18  2  0  0  0  0
  4 20  2  0  0  0  0
  6 14  2  0  0  0  0
  6  4  1  0  0  0  0
  8  1  1  0  0  0  0
  9 19  2  0  0  0  0
 10 18  1  0  0  0  0
 10  5  1  0  0  0  0
 11 32  1  6  0  0  0
 11  9  1  0  0  0  0
 12  1  2  0  0  0  0
 12 13  1  0  0  0  0
 13 10  2  0  0  0  0
 14 12  1  0  0  0  0
 15  7  1  0  0  0  0
 15  5  2  0  0  0  0
 16  2  1  0  0  0  0
 16 11  1  0  0  0  0
 17  2  1  6  0  0  0
 17  4  1  0  0  0  0
 17  9  1  0  0  0  0
 19  7  1  0  0  0  0
 20 13  1  0  0  0  0
 20 15  1  0  0  0  0
 21 23  1  0  0  0  0
 22 21  2  0  0  0  0
 22 25  1  0  0  0  0
 23  8  1  1  0  0  0
 24 23  1  0  0  0  0
 24 14  1  0  0  0  0
 25 24  2  0  0  0  0
 26 21  1  1  0  0  0
 26 31  1  0  0  0  0
 27 29  1  0  0  0  0
 28 26  1  0  0  0  0
 29 31  1  0  0  0  0
 30 28  1  0  0  0  0
 30 27  1  0  0  0  0
 32 33  1  0  0  0  0
 33 35  2  0  0  0  0
 33 36  1  0  0  0  0
 34 33  2  0  0  0  0
 36 37  1  0  0  0  0
 37 39  1  0  0  0  0
 39 38  1  0  0  0  0
 40 39  2  0  0  0  0
M  END
>  <MODEL>
6

>  <REMARK>
 VINA RESULT:      -5.4      2.312      3.351
  Name = 
  7 active torsions:
  status: ('A' for Active; 'I' for Inactive)
    1  A    between atoms: C_3  and  C_5
    2  A    between atoms: S_6  and  C_7
    3  A    between atoms: S_6  and  N_17
    4  A    between atoms: C_7  and  O_14
    5  A    between atoms: O_14  and  C_22
    6  A    between atoms: N_17  and  C_26
    7  A    between atoms: C_29  and  C_35
                            x       y       z     vdW  Elec       q    Type
                         _______ _______ _______ _____ _____    ______ ____

>  <TORSDO>
F 7

$$$$
=
 OpenBabel11052412043D

 40 47  0  0  1  0  0  0  0  0999 V2000
  161.1790  204.5700  151.3590 C   0  0  0  0  0  0  0  0  0  0  0  0
  162.1910  210.5270  148.6540 C   0  0  0  0  0  2  0  0  0  0  0  0
  160.9870  204.3550  152.7510 C   0  0  0  0  0  3  0  0  0  0  0  0
  161.5960  208.7000  150.2990 C   0  0  0  0  0  0  0  0  0  0  0  0
  160.9620  207.9010  153.7910 N   0  0  0  0  0  0  0  0  0  0  0  0
  161.7060  207.7270  149.2720 C   0  0  0  0  0  3  0  0  0  0  0  0
  161.0080  210.1460  153.0580 C   0  0  0  0  0  2  0  0  0  0  0  0
  161.3810  203.3650  150.5070 C   0  0  0  0  0  3  0  0  0  0  0  0
  161.3170  211.1740  150.7660 C   0  0  0  0  0  0  0  0  0  0  0  0
  160.9820  206.7180  153.1350 C   0  0  0  0  0  0  0  0  0  0  0  0
  161.1340  212.3520  149.8810 C   0  0  1  0  0  3  0  0  0  0  0  0
  161.2570  205.9030  150.8570 C   0  0  0  0  0  0  0  0  0  0  0  0
  161.1480  206.9060  151.8050 C   0  0  0  0  0  0  0  0  0  0  0  0
  161.4900  206.3410  149.5180 C   0  0  0  0  0  0  0  0  0  0  0  0
  161.1240  208.8390  152.8130 C   0  0  0  0  0  0  0  0  0  0  0  0
  161.9430  212.0270  148.6370 C   0  0  0  0  0  2  0  0  0  0  0  0
  162.1200  210.0990  150.1140 C   0  0  2  0  0  3  0  0  0  0  0  0
  160.8830  205.4330  153.6590 C   0  0  0  0  0  3  0  0  0  0  0  0
  160.9500  211.2250  152.0510 C   0  0  0  0  0  3  0  0  0  0  0  0
  161.2690  208.2310  151.5700 C   0  0  0  0  0  0  0  0  0  0  0  0
  161.2910  203.6020  146.7640 C   0  0  0  0  0  0  0  0  0  0  0  0
  161.2100  204.8050  146.1540 N   0  0  0  0  0  0  0  0  0  0  0  0
  161.4710  203.7600  148.4300 S   0  0  1  0  0  0  0  0  0  0  0  0
  161.5000  205.4430  148.3550 C   0  0  0  0  0  0  0  0  0  0  0  0
  161.3120  205.8370  147.0350 C   0  0  0  0  0  3  0  0  0  0  0  0
  161.1490  202.3110  146.0300 C   0  0  2  0  0  3  0  0  0  0  0  0
  160.7330  199.8920  144.9130 N   0  0  0  0  0  2  0  0  0  0  0  0
  159.7550  202.4060  144.8470 S   0  0  0  0  0  0  0  0  0  0  0  0
  161.2000  199.9280  146.3070 C   0  0  0  0  0  2  0  0  0  0  0  0
  159.4660  200.6020  144.7950 C   0  0  0  0  0  2  0  0  0  0  0  0
  160.9410  201.2140  146.9690 N   0  0  0  0  0  2  0  0  0  0  0  0
  159.7280  212.4810  149.5220 N   0  0  0  0  0  2  0  0  0  0  0  0
  158.9740  213.5110  150.6940 S   0  0  0  0  0  0  0  0  0  0  0  0
  159.9940  214.4510  151.2750 O   0  0  0  0  0  0  0  0  0  0  0  0
  158.4000  212.6660  151.7950 O   0  0  0  0  0  0  0  0  0  0  0  0
  157.6670  214.4530  149.9370 C   0  0  0  0  0  2  0  0  0  0  0  0
  156.7920  213.5810  149.2390 O   0  0  0  0  0  0  0  0  0  0  0  0
  156.3350  214.4330  147.1600 O   0  0  0  0  0  0  0  0  0  0  0  0
  156.8140  213.4950  147.8480 C   0  0  0  0  0  0  0  0  0  0  0  0
  157.3520  212.3810  147.2120 O   0  0  0  0  0  1  0  0  0  0  0  0
  1  3  2  0  0  0  0
  3 18  1  0  0  0  0
  4 20  1  0  0  0  0
  6 14  1  0  0  0  0
  6  4  2  0  0  0  0
  8  1  1  0  0  0  0
  9 19  2  0  0  0  0
 10 18  2  0  0  0  0
 10  5  1  0  0  0  0
 11 32  1  6  0  0  0
 11  9  1  0  0  0  0
 12  1  1  0  0  0  0
 12 13  1  0  0  0  0
 13 10  1  0  0  0  0
 14 12  2  0  0  0  0
 15  7  1  0  0  0  0
 15  5  2  0  0  0  0
 16  2  1  0  0  0  0
 16 11  1  0  0  0  0
 17  2  1  6  0  0  0
 17  4  1  0  0  0  0
 17  9  1  0  0  0  0
 19  7  1  0  0  0  0
 20 13  2  0  0  0  0
 20 15  1  0  0  0  0
 21 23  1  0  0  0  0
 22 21  2  0  0  0  0
 22 25  1  0  0  0  0
 23  8  2  1  0  0  0
 24 23  1  0  0  0  0
 24 14  1  0  0  0  0
 25 24  2  0  0  0  0
 26 21  1  1  0  0  0
 26 31  1  0  0  0  0
 27 29  1  0  0  0  0
 28 26  1  0  0  0  0
 29 31  1  0  0  0  0
 30 28  1  0  0  0  0
 30 27  1  0  0  0  0
 32 33  1  0  0  0  0
 33 34  2  0  0  0  0
 33 35  2  0  0  0  0
 36 33  1  0  0  0  0
 37 36  1  0  0  0  0
 38 39  2  0  0  0  0
 39 37  1  0  0  0  0
 40 39  1  0  0  0  0
M  END
>  <MODEL>
7

>  <REMARK>
 VINA RESULT:      -5.2      3.076      4.498
  Name = 
  7 active torsions:
  status: ('A' for Active; 'I' for Inactive)
    1  A    between atoms: C_3  and  C_5
    2  A    between atoms: S_6  and  C_7
    3  A    between atoms: S_6  and  N_17
    4  A    between atoms: C_7  and  O_14
    5  A    between atoms: O_14  and  C_22
    6  A    between atoms: N_17  and  C_26
    7  A    between atoms: C_29  and  C_35
                            x       y       z     vdW  Elec       q    Type
                         _______ _______ _______ _____ _____    ______ ____

>  <TORSDO>
F 7

$$$$
=
 OpenBabel11052412043D

 40 46  0  0  1  0  0  0  0  0999 V2000
  161.2330  211.2870  150.5410 C   0  0  0  0  0  0  0  0  0  0  0  0
  161.2360  204.9590  152.4840 C   0  0  0  0  0  2  0  0  0  0  0  0
  161.8220  211.7430  149.3300 C   0  0  0  0  0  3  0  0  0  0  0  0
  161.4530  207.0410  151.0640 C   0  0  0  0  0  0  0  0  0  0  0  0
  162.7750  208.4400  147.9770 N   0  0  0  0  0  0  0  0  0  0  0  0
  160.8650  207.8160  152.0960 C   0  0  0  0  0  3  0  0  0  0  0  0
  162.6590  206.1010  148.2880 C   0  0  0  0  0  2  0  0  0  0  0  0
  160.7930  212.3230  151.5150 C   0  0  0  0  0  1  0  0  0  0  0  0
  161.7590  204.6850  150.1830 C   0  0  0  0  0  0  0  0  0  0  0  0
  162.2960  209.4860  148.6860 C   0  0  0  0  0  0  0  0  0  0  0  0
  161.2490  203.3660  150.6350 C   0  0  1  0  0  3  0  0  0  0  0  0
  161.1680  209.8870  150.8080 C   0  0  0  0  0  0  0  0  0  0  0  0
  161.7160  209.0670  149.8360 C   0  0  0  0  0  0  0  0  0  0  0  0
  160.6680  209.2200  151.9680 C   0  0  0  0  0  0  0  0  0  0  0  0
  162.4720  207.3450  148.7340 C   0  0  0  0  0  0  0  0  0  0  0  0
  161.1910  203.4760  152.1490 C   0  0  0  0  0  2  0  0  0  0  0  0
  161.9390  205.6380  151.3160 C   0  0  2  0  0  3  0  0  0  0  0  0
  162.3600  210.8430  148.3840 C   0  0  0  0  0  3  0  0  0  0  0  0
  162.1740  204.8590  148.9230 C   0  0  0  0  0  3  0  0  0  0  0  0
  161.8350  207.7230  149.9110 C   0  0  0  0  0  0  0  0  0  0  0  0
  158.2900  210.9740  154.4970 C   0  0  0  0  0  0  0  0  0  0  0  0
  159.2540  210.3470  155.2060 N   0  0  0  0  0  0  0  0  0  0  0  0
  158.5090  210.7780  152.8400 S   0  0  0  0  0  0  0  0  0  0  0  0
  159.9310  209.8980  153.0430 C   0  0  0  0  0  0  0  0  0  0  0  0
  160.1660  209.7330  154.4040 C   0  0  0  0  0  3  0  0  0  0  0  0
  157.1380  211.6730  155.1380 C   0  0  2  0  0  3  0  0  0  0  0  0
  155.2360  213.0330  156.4820 N   0  0  0  0  0  2  0  0  0  0  0  0
  156.8810  213.3110  154.3600 S   0  0  0  0  0  0  0  0  0  0  0  0
  156.1060  212.1330  157.2540 C   0  0  0  0  0  2  0  0  0  0  0  0
  156.0400  214.0440  155.8080 C   0  0  0  0  0  2  0  0  0  0  0  0
  157.3700  211.8240  156.5700 N   0  0  0  0  0  2  0  0  0  0  0  0
  159.9050  203.1560  150.1150 N   0  0  0  0  0  2  0  0  0  0  0  0
  159.9490  201.7660  149.0800 S   0  0  0  0  0  0  0  0  0  0  0  0
  158.6550  201.0090  149.1930 O   0  0  0  0  0  0  0  0  0  0  0  0
  161.0800  200.8730  149.5030 O   0  0  0  0  0  0  0  0  0  0  0  0
  160.1960  202.2630  147.3890 C   0  0  0  0  0  2  0  0  0  0  0  0
  161.1360  201.3980  146.7700 O   0  0  0  0  0  0  0  0  0  0  0  0
  160.0560  200.8820  144.8140 O   0  0  0  0  0  0  0  0  0  0  0  0
  160.7470  200.4880  145.7900 C   0  0  0  0  0  0  0  0  0  0  0  0
  161.1080  199.1470  145.8790 O   0  0  0  0  0  1  0  0  0  0  0  0
  1 12  1  0  0  0  0
  1  8  1  0  0  0  0
  3  1  2  0  0  0  0
  4 17  1  0  0  0  0
  4  6  1  0  0  0  0
  5 10  1  0  0  0  0
  5 15  2  0  0  0  0
  7 15  1  0  0  0  0
  7 19  1  0  0  0  0
  9 11  1  0  0  0  0
  9 17  1  0  0  0  0
 10 13  1  0  0  0  0
 11 32  1  6  0  0  0
 11 16  1  0  0  0  0
 12 14  1  0  0  0  0
 13 20  1  0  0  0  0
 13 12  2  0  0  0  0
 14  6  2  0  0  0  0
 14 24  1  0  0  0  0
 15 20  1  0  0  0  0
 16  2  1  0  0  0  0
 17  2  1  1  0  0  0
 18 10  2  0  0  0  0
 18  3  1  0  0  0  0
 19  9  2  0  0  0  0
 20  4  2  0  0  0  0
 21 22  2  0  0  0  0
 23 24  1  0  0  0  0
 23 21  1  0  0  0  0
 24 25  2  0  0  0  0
 25 22  1  0  0  0  0
 26 21  1  6  0  0  0
 26 31  1  0  0  0  0
 27 29  1  0  0  0  0
 28 26  1  0  0  0  0
 28 30  1  0  0  0  0
 30 27  1  0  0  0  0
 31 29  1  0  0  0  0
 33 34  2  0  0  0  0
 33 35  2  0  0  0  0
 33 32  1  0  0  0  0
 36 33  1  0  0  0  0
 37 36  1  0  0  0  0
 38 39  2  0  0  0  0
 39 40  1  0  0  0  0
 39 37  1  0  0  0  0
M  END
>  <MODEL>
8

>  <REMARK>
 VINA RESULT:      -5.2      5.806     10.654
  Name = 
  7 active torsions:
  status: ('A' for Active; 'I' for Inactive)
    1  A    between atoms: C_3  and  C_5
    2  A    between atoms: S_6  and  C_7
    3  A    between atoms: S_6  and  N_17
    4  A    between atoms: C_7  and  O_14
    5  A    between atoms: O_14  and  C_22
    6  A    between atoms: N_17  and  C_26
    7  A    between atoms: C_29  and  C_35
                            x       y       z     vdW  Elec       q    Type
                         _______ _______ _______ _____ _____    ______ ____

>  <TORSDO>
F 7

$$$$
=
 OpenBabel11052412043D

 40 46  0  0  1  0  0  0  0  0999 V2000
  161.0860  207.2530  154.3970 C   0  0  0  0  0  0  0  0  0  0  0  0
  160.3740  212.3920  150.2860 C   0  0  0  0  0  2  0  0  0  0  0  0
  160.9650  207.3470  155.8110 C   0  0  0  0  0  3  0  0  0  0  0  0
  160.3220  210.9410  152.3570 C   0  0  0  0  0  0  0  0  0  0  0  0
  159.9450  210.8950  155.9750 N   0  0  0  0  0  0  0  0  0  0  0  0
  160.6990  209.8120  151.5860 C   0  0  0  0  0  3  0  0  0  0  0  0
  159.3560  212.8120  154.7260 C   0  0  0  0  0  2  0  0  0  0  0  0
  161.6180  205.9760  153.8450 C   0  0  0  0  0  1  0  0  0  0  0  0
  159.3580  213.2820  152.2400 C   0  0  0  0  0  0  0  0  0  0  0  0
  160.2960  209.6380  155.6200 C   0  0  0  0  0  0  0  0  0  0  0  0
  158.8490  214.1060  151.1150 C   0  0  1  0  0  3  0  0  0  0  0  0
  160.7850  208.3880  153.5870 C   0  0  0  0  0  0  0  0  0  0  0  0
  160.3990  209.5270  154.2750 C   0  0  0  0  0  0  0  0  0  0  0  0
  160.8830  208.5260  152.1700 C   0  0  0  0  0  0  0  0  0  0  0  0
  159.8350  211.5680  154.7930 C   0  0  0  0  0  0  0  0  0  0  0  0
  159.7140  213.7150  149.9300 C   0  0  0  0  0  2  0  0  0  0  0  0
  160.4300  212.3380  151.8070 C   0  0  2  0  0  3  0  0  0  0  0  0
  160.5640  208.5470  156.4400 C   0  0  0  0  0  3  0  0  0  0  0  0
  158.9930  213.5480  153.4980 C   0  0  0  0  0  3  0  0  0  0  0  0
  160.1420  210.7330  153.7230 C   0  0  0  0  0  0  0  0  0  0  0  0
  161.0630  205.4170  149.8380 C   0  0  0  0  0  0  0  0  0  0  0  0
  161.9390  206.3330  149.3720 N   0  0  0  0  0  0  0  0  0  0  0  0
  160.2790  205.9580  151.2270 S   0  0  0  0  0  0  0  0  0  0  0  0
  161.1430  207.4040  151.2570 C   0  0  0  0  0  0  0  0  0  0  0  0
  161.9820  207.4490  150.1480 C   0  0  0  0  0  3  0  0  0  0  0  0
  160.7850  204.1310  149.1370 C   0  0  2  0  0  3  0  0  0  0  0  0
  160.5520  201.7890  147.8200 N   0  0  0  0  0  2  0  0  0  0  0  0
  160.8010  202.7430  150.3320 S   0  0  0  0  0  0  0  0  0  0  0  0
  161.2800  202.8780  147.1520 C   0  0  0  0  0  2  0  0  0  0  0  0
  161.1970  201.4650  149.0860 C   0  0  0  0  0  2  0  0  0  0  0  0
  161.7680  203.9040  148.0840 N   0  0  0  0  0  2  0  0  0  0  0  0
  157.4630  213.7540  150.8380 N   0  0  0  0  0  2  0  0  0  0  0  0
  157.2670  213.6820  149.1170 S   0  0  0  0  0  0  0  0  0  0  0  0
  156.0070  214.3990  148.7200 O   0  0  0  0  0  0  0  0  0  0  0  0
  157.1720  212.2450  148.6920 O   0  0  0  0  0  0  0  0  0  0  0  0
  158.6580  214.4410  148.3060 C   0  0  0  0  0  2  0  0  0  0  0  0
  158.5230  214.3040  146.9000 O   0  0  0  0  0  0  0  0  0  0  0  0
  160.7170  213.6920  146.6330 O   0  0  0  0  0  1  0  0  0  0  0  0
  159.5990  213.9210  146.1020 C   0  0  0  0  0  0  0  0  0  0  0  0
  159.4540  213.7950  144.7240 O   0  0  0  0  0  0  0  0  0  0  0  0
  1  3  1  0  0  0  0
  3 18  2  0  0  0  0
  4 20  2  0  0  0  0
  6 14  2  0  0  0  0
  6  4  1  0  0  0  0
  7 15  1  0  0  0  0
  8  1  1  0  0  0  0
  9 19  2  0  0  0  0
 10  5  1  0  0  0  0
 10 18  1  0  0  0  0
 11 32  1  6  0  0  0
 11  9  1  0  0  0  0
 12 13  1  0  0  0  0
 12  1  2  0  0  0  0
 13 10  2  0  0  0  0
 14 12  1  0  0  0  0
 15  5  2  0  0  0  0
 16  2  1  0  0  0  0
 16 11  1  0  0  0  0
 17  2  1  6  0  0  0
 17  9  1  0  0  0  0
 17  4  1  0  0  0  0
 19  7  1  0  0  0  0
 20 13  1  0  0  0  0
 20 15  1  0  0  0  0
 21 23  1  0  0  0  0
 22 21  2  0  0  0  0
 22 25  1  0  0  0  0
 23 24  1  0  0  0  0
 24 14  1  0  0  0  0
 25 24  2  0  0  0  0
 26 21  1  1  0  0  0
 26 28  1  0  0  0  0
 27 30  1  0  0  0  0
 29 27  1  0  0  0  0
 29 31  1  0  0  0  0
 30 28  1  0  0  0  0
 31 26  1  0  0  0  0
 33 32  1  0  0  0  0
 34 33  2  0  0  0  0
 35 33  2  0  0  0  0
 36 33  1  0  0  0  0
 37 36  1  0  0  0  0
 39 38  1  0  0  0  0
 39 37  1  0  0  0  0
 40 39  2  0  0  0  0
M  END
>  <MODEL>
9

>  <REMARK>
 VINA RESULT:      -4.6      3.330      4.639
  Name = 
  7 active torsions:
  status: ('A' for Active; 'I' for Inactive)
    1  A    between atoms: C_3  and  C_5
    2  A    between atoms: S_6  and  C_7
    3  A    between atoms: S_6  and  N_17
    4  A    between atoms: C_7  and  O_14
    5  A    between atoms: O_14  and  C_22
    6  A    between atoms: N_17  and  C_26
    7  A    between atoms: C_29  and  C_35
                            x       y       z     vdW  Elec       q    Type
                         _______ _______ _______ _____ _____    ______ ____

>  <TORSDO>
F 7

$$$$
