=
 OpenBabel11052409423D

 49 54  0  0  1  0  0  0  0  0999 V2000
  160.5200  208.7180  154.8670 C   0  0  0  0  0  3  0  0  0  0  0  0
  160.6910  206.1740  150.6380 C   0  0  0  0  0  0  0  0  0  0  0  0
  159.7630  207.0250  150.6040 O   0  0  0  0  0  0  0  0  0  0  0  0
  161.8380  208.1570  148.5740 N   0  0  0  0  0  0  0  0  0  0  0  0
  161.5450  205.9760  149.5070 N   0  0  0  0  0  2  0  0  0  0  0  0
  162.0050  205.9550  152.7130 C   0  0  0  0  0  2  0  0  0  0  0  0
  161.6730  206.8790  148.3990 C   0  0  0  0  0  0  0  0  0  0  0  0
  161.2370  211.0580  154.7150 C   0  0  0  0  0  3  0  0  0  0  0  0
  161.8120  210.1660  152.4560 C   0  0  0  0  0  0  0  0  0  0  0  0
  162.1300  210.7240  151.1680 N   0  0  0  0  0  0  0  0  0  0  0  0
  162.1550  210.1470  150.0000 C   0  0  0  0  0  0  0  0  0  0  0  0
  160.8980  205.3530  151.8610 C   0  0  0  0  0  2  0  0  0  0  0  0
  161.4730  208.8690  152.5880 C   0  0  0  0  0  3  0  0  0  0  0  0
  160.0750  210.1430  154.8790 C   0  0  2  0  0  3  0  0  0  0  0  0
  161.8910  208.7500  149.8440 N   0  0  0  0  0  2  0  0  0  0  0  0
  161.4330  206.6740  153.8930 C   0  0  0  0  0  0  0  0  0  0  0  0
  161.1340  208.1290  153.8310 C   0  0  0  0  0  0  0  0  0  0  0  0
  161.9810  211.0730  153.6100 C   0  0  0  0  0  3  0  0  0  0  0  0
  161.1990  205.9630  154.9950 C   0  0  0  0  0  2  0  0  0  0  0  0
  161.8500  205.2870  144.4870 C   0  0  0  0  0  3  0  0  0  0  0  0
  160.7780  206.0830  144.8850 C   0  0  0  0  0  3  0  0  0  0  0  0
  162.8620  205.0310  145.4110 C   0  0  0  0  0  3  0  0  0  0  0  0
  162.7870  205.5530  146.6620 N   0  0  0  0  0  0  0  0  0  0  0  0
  160.7370  206.5880  146.1450 N   0  0  0  0  0  0  0  0  0  0  0  0
  161.7330  206.3290  147.0360 C   0  0  0  0  0  0  0  0  0  0  0  0
  162.5170  210.9690  148.8060 C   0  0  0  0  0  2  0  0  0  0  0  0
  160.3230  213.2830  144.9200 C   0  0  0  0  0  0  0  0  0  0  0  0
  161.5160  213.4350  144.3940 C   0  0  0  0  0  0  0  0  0  0  0  0
  159.2850  213.8770  144.0360 C   0  0  0  0  0  2  0  0  0  0  0  0
  161.3440  212.1340  146.8560 N   0  0  0  0  0  0  0  0  0  0  0  0
  161.2820  211.5000  148.1450 C   0  0  0  0  0  0  0  0  0  0  0  0
  161.4670  214.1070  143.1910 O   0  0  0  0  0  0  0  0  0  0  0  0
  160.1200  214.4530  142.8800 C   0  0  1  0  0  3  0  0  0  0  0  0
  160.1750  211.3620  148.7320 O   0  0  0  0  0  0  0  0  0  0  0  0
  160.0860  212.5720  146.2200 C   0  0  0  0  0  2  0  0  0  0  0  0
  162.7300  212.9380  145.0370 C   0  0  0  0  0  3  0  0  0  0  0  0
  162.6260  212.3190  146.2160 C   0  0  0  0  0  3  0  0  0  0  0  0
  159.2980  212.6680  141.5810 O   0  0  0  0  0  0  0  0  0  0  0  0
  159.7140  213.8160  141.5930 C   0  0  0  0  0  3  0  0  0  0  0  0
  159.3660  210.4520  156.1860 C   0  0  0  0  0  2  0  0  0  0  0  0
  158.6100  211.7720  156.0970 C   0  0  2  0  0  3  0  0  0  0  0  0
  158.4630  214.0240  157.1250 C   0  0  0  0  0  2  0  0  0  0  0  0
  159.3940  212.8720  156.7940 C   0  0  0  0  0  3  0  0  0  0  0  0
  159.3950  214.1260  155.9390 C   0  0  0  0  0  2  0  0  0  0  0  0
  157.2510  211.6120  156.7740 C   0  0  0  0  0  2  0  0  0  0  0  0
  155.0720  210.6180  155.9950 C   0  0  0  0  0  1  0  0  0  0  0  0
  155.3750  213.0590  156.0810 C   0  0  0  0  0  1  0  0  0  0  0  0
  156.5630  211.7510  154.3680 C   0  0  0  0  0  1  0  0  0  0  0  0
  156.0730  211.7450  155.8050 C   0  0  0  0  0  0  0  0  0  0  0  0
  1 14  1  0  0  0  0
  2 12  1  0  0  0  0
  3  2  2  0  0  0  0
  4 15  1  0  0  0  0
  5  2  1  0  0  0  0
  6 16  1  0  0  0  0
  7  4  2  0  0  0  0
  7  5  1  0  0  0  0
  8 14  1  0  0  0  0
  9 13  2  0  0  0  0
  9 18  1  0  0  0  0
 10  9  1  0  0  0  0
 11 10  2  0  0  0  0
 12  6  1  0  0  0  0
 13 17  1  0  0  0  0
 14 40  1  1  0  0  0
 15 11  1  0  0  0  0
 16 19  2  0  0  0  0
 17 16  1  0  0  0  0
 17  1  2  0  0  0  0
 18  8  2  0  0  0  0
 20 21  1  0  0  0  0
 20 22  2  0  0  0  0
 21 24  2  0  0  0  0
 22 23  1  0  0  0  0
 23 25  2  0  0  0  0
 24 25  1  0  0  0  0
 25  7  1  0  0  0  0
 26 11  1  0  0  0  0
 27 35  1  0  0  0  0
 28 27  2  0  0  0  0
 28 36  1  0  0  0  0
 29 27  1  0  0  0  0
 30 31  1  0  0  0  0
 31 34  2  0  0  0  0
 31 26  1  0  0  0  0
 32 28  1  0  0  0  0
 33 39  1  6  0  0  0
 33 32  1  0  0  0  0
 33 29  1  0  0  0  0
 35 30  1  0  0  0  0
 36 37  2  0  0  0  0
 37 30  1  0  0  0  0
 38 39  2  0  0  0  0
 41 40  1  1  0  0  0
 41 45  1  0  0  0  0
 41 43  1  0  0  0  0
 43 42  1  0  0  0  0
 44 43  1  0  0  0  0
 44 42  1  0  0  0  0
 48 49  1  0  0  0  0
 49 46  1  0  0  0  0
 49 47  1  0  0  0  0
 49 45  1  0  0  0  0
M  END
>  <MODEL>
1

>  <REMARK>
 VINA RESULT:      -3.7      0.000      0.000
  Name = 
  9 active torsions:
  status: ('A' for Active; 'I' for Inactive)
    1  A    between atoms: C_12  and  C_16
    2  A    between atoms: C_15  and  C_49
    3  A    between atoms: C_16  and  C_26
    4  A    between atoms: C_16  and  C_35
    5  A    between atoms: C_20  and  C_22
    6  A    between atoms: C_20  and  C_31
    7  A    between atoms: C_25  and  C_30
    8  A    between atoms: C_26  and  C_39
    9  A    between atoms: C_35  and  C_42
                            x       y       z     vdW  Elec       q    Type
                         _______ _______ _______ _____ _____    ______ ____

>  <TORSDO>
F 9

$$$$
=
 OpenBabel11052409423D

 49 54  0  0  1  0  0  0  0  0999 V2000
  161.6590  204.8950  148.5420 C   0  0  0  0  0  3  0  0  0  0  0  0
  161.8680  206.8920  153.0540 C   0  0  0  0  0  0  0  0  0  0  0  0
  162.9800  206.9980  152.4730 O   0  0  0  0  0  0  0  0  0  0  0  0
  161.9430  209.9350  152.5650 N   0  0  0  0  0  0  0  0  0  0  0  0
  161.3240  207.9850  153.8010 N   0  0  0  0  0  2  0  0  0  0  0  0
  160.0490  205.6950  151.8970 C   0  0  0  0  0  2  0  0  0  0  0  0
  161.7640  209.3470  153.7110 C   0  0  0  0  0  0  0  0  0  0  0  0
  161.7290  206.4930  146.6830 C   0  0  0  0  0  3  0  0  0  0  0  0
  161.5350  207.9850  148.6740 C   0  0  0  0  0  0  0  0  0  0  0  0
  161.7460  209.3820  148.9510 N   0  0  0  0  0  0  0  0  0  0  0  0
  161.8610  209.9890  150.0980 C   0  0  0  0  0  0  0  0  0  0  0  0
  161.1130  205.6110  152.9800 C   0  0  0  0  0  2  0  0  0  0  0  0
  161.4290  207.0860  149.6710 C   0  0  0  0  0  3  0  0  0  0  0  0
  162.4840  205.4480  147.4280 C   0  0  2  0  0  3  0  0  0  0  0  0
  161.7340  209.2880  151.3380 N   0  0  0  0  0  2  0  0  0  0  0  0
  160.4750  204.9410  150.6770 C   0  0  0  0  0  0  0  0  0  0  0  0
  161.1950  205.6230  149.5680 C   0  0  0  0  0  0  0  0  0  0  0  0
  161.3420  207.6330  147.2520 C   0  0  0  0  0  3  0  0  0  0  0  0
  160.1900  203.6420  150.6240 C   0  0  0  0  0  2  0  0  0  0  0  0
  162.1800  211.6100  157.2580 C   0  0  0  0  0  3  0  0  0  0  0  0
  160.9200  211.2560  156.7820 C   0  0  0  0  0  3  0  0  0  0  0  0
  163.2990  211.1970  156.5370 C   0  0  0  0  0  3  0  0  0  0  0  0
  163.1450  210.4690  155.4010 N   0  0  0  0  0  0  0  0  0  0  0  0
  160.8040  210.5270  155.6410 N   0  0  0  0  0  0  0  0  0  0  0  0
  161.9060  210.1320  154.9480 C   0  0  0  0  0  0  0  0  0  0  0  0
  162.0870  211.4670  150.1040 C   0  0  0  0  0  2  0  0  0  0  0  0
  161.0640  213.5880  145.6640 C   0  0  0  0  0  0  0  0  0  0  0  0
  162.3190  213.3970  145.3330 C   0  0  0  0  0  0  0  0  0  0  0  0
  160.3290  214.2520  144.5540 C   0  0  0  0  0  2  0  0  0  0  0  0
  161.5050  212.5500  147.8630 N   0  0  0  0  0  0  0  0  0  0  0  0
  161.1170  212.1460  149.1870 C   0  0  0  0  0  0  0  0  0  0  0  0
  162.5980  213.8750  144.0700 O   0  0  0  0  0  0  0  0  0  0  0  0
  161.4290  214.4530  143.4980 C   0  0  1  0  0  3  0  0  0  0  0  0
  159.9390  212.3410  149.5910 O   0  0  0  0  0  0  0  0  0  0  0  0
  160.4870  213.1490  146.9780 C   0  0  0  0  0  2  0  0  0  0  0  0
  163.2800  212.7520  146.2250 C   0  0  0  0  0  3  0  0  0  0  0  0
  162.8700  212.3550  147.4320 C   0  0  0  0  0  3  0  0  0  0  0  0
  160.0340  214.0120  141.6510 O   0  0  0  0  0  0  0  0  0  0  0  0
  161.0650  213.7320  142.2420 C   0  0  0  0  0  3  0  0  0  0  0  0
  162.8820  204.3330  146.4760 C   0  0  0  0  0  2  0  0  0  0  0  0
  161.7510  203.3240  146.3180 C   0  0  2  0  0  3  0  0  0  0  0  0
  159.9960  203.1810  144.5720 C   0  0  0  0  0  2  0  0  0  0  0  0
  160.5220  204.0030  145.7340 C   0  0  0  0  0  3  0  0  0  0  0  0
  160.8000  204.4330  144.3050 C   0  0  0  0  0  2  0  0  0  0  0  0
  161.4070  202.7460  147.6890 C   0  0  0  0  0  2  0  0  0  0  0  0
  161.3840  200.5850  146.3950 C   0  0  0  0  0  1  0  0  0  0  0  0
  161.3310  200.5720  148.8560 C   0  0  0  0  0  1  0  0  0  0  0  0
  159.3470  201.3210  147.6060 C   0  0  0  0  0  1  0  0  0  0  0  0
  160.8650  201.3160  147.6220 C   0  0  0  0  0  0  0  0  0  0  0  0
  1 17  2  0  0  0  0
  2  5  1  0  0  0  0
  3  2  2  0  0  0  0
  4  7  2  0  0  0  0
  6 12  1  0  0  0  0
  7  5  1  0  0  0  0
  7 25  1  0  0  0  0
  8 18  2  0  0  0  0
  8 14  1  0  0  0  0
  9 10  1  0  0  0  0
  9 13  2  0  0  0  0
 10 11  2  0  0  0  0
 11 26  1  0  0  0  0
 11 15  1  0  0  0  0
 12  2  1  0  0  0  0
 14 40  1  6  0  0  0
 14  1  1  0  0  0  0
 15  4  1  0  0  0  0
 16  6  1  0  0  0  0
 17 13  1  0  0  0  0
 17 16  1  0  0  0  0
 18  9  1  0  0  0  0
 19 16  2  0  0  0  0
 21 20  1  0  0  0  0
 22 20  2  0  0  0  0
 23 22  1  0  0  0  0
 24 21  2  0  0  0  0
 25 23  2  0  0  0  0
 25 24  1  0  0  0  0
 27 35  1  0  0  0  0
 28 27  2  0  0  0  0
 28 36  1  0  0  0  0
 29 27  1  0  0  0  0
 30 31  1  0  0  0  0
 31 34  2  0  0  0  0
 31 26  1  0  0  0  0
 32 28  1  0  0  0  0
 33 39  1  6  0  0  0
 33 32  1  0  0  0  0
 33 29  1  0  0  0  0
 35 30  1  0  0  0  0
 36 37  2  0  0  0  0
 37 30  1  0  0  0  0
 38 39  2  0  0  0  0
 41 40  1  1  0  0  0
 41 45  1  0  0  0  0
 42 43  1  0  0  0  0
 43 41  1  0  0  0  0
 44 42  1  0  0  0  0
 44 43  1  0  0  0  0
 46 49  1  0  0  0  0
 48 49  1  0  0  0  0
 49 45  1  0  0  0  0
 49 47  1  0  0  0  0
M  END
>  <MODEL>
2

>  <REMARK>
 VINA RESULT:      -2.9      2.456      8.298
  Name = 
  9 active torsions:
  status: ('A' for Active; 'I' for Inactive)
    1  A    between atoms: C_12  and  C_16
    2  A    between atoms: C_15  and  C_49
    3  A    between atoms: C_16  and  C_26
    4  A    between atoms: C_16  and  C_35
    5  A    between atoms: C_20  and  C_22
    6  A    between atoms: C_20  and  C_31
    7  A    between atoms: C_25  and  C_30
    8  A    between atoms: C_26  and  C_39
    9  A    between atoms: C_35  and  C_42
                            x       y       z     vdW  Elec       q    Type
                         _______ _______ _______ _____ _____    ______ ____

>  <TORSDO>
F 9

$$$$
=
 OpenBabel11052409423D

 49 54  0  0  1  0  0  0  0  0999 V2000
  160.6220  208.2430  154.5040 C   0  0  0  0  0  3  0  0  0  0  0  0
  160.6990  205.6920  150.2760 C   0  0  0  0  0  0  0  0  0  0  0  0
  159.8000  206.5730  150.2430 O   0  0  0  0  0  0  0  0  0  0  0  0
  161.9090  207.6320  148.2090 N   0  0  0  0  0  0  0  0  0  0  0  0
  161.5430  205.4630  149.1440 N   0  0  0  0  0  2  0  0  0  0  0  0
  162.0080  205.4290  152.3490 C   0  0  0  0  0  2  0  0  0  0  0  0
  161.7000  206.3610  148.0350 C   0  0  0  0  0  0  0  0  0  0  0  0
  161.4190  210.5570  154.3480 C   0  0  0  0  0  3  0  0  0  0  0  0
  161.9580  209.6440  152.0890 C   0  0  0  0  0  0  0  0  0  0  0  0
  162.2930  210.1900  150.8000 N   0  0  0  0  0  0  0  0  0  0  0  0
  162.2970  209.6110  149.6320 C   0  0  0  0  0  0  0  0  0  0  0  0
  160.8790  204.8640  151.4990 C   0  0  0  0  0  2  0  0  0  0  0  0
  161.5760  208.3590  152.2220 C   0  0  0  0  0  3  0  0  0  0  0  0
  160.2260  209.6820  154.5150 C   0  0  2  0  0  3  0  0  0  0  0  0
  161.9850  208.2240  149.4770 N   0  0  0  0  0  2  0  0  0  0  0  0
  161.4630  206.1690  153.5290 C   0  0  0  0  0  0  0  0  0  0  0  0
  161.2130  207.6330  153.4670 C   0  0  0  0  0  0  0  0  0  0  0  0
  162.1600  210.5460  153.2420 C   0  0  0  0  0  3  0  0  0  0  0  0
  161.2070  205.4670  154.6320 C   0  0  0  0  0  2  0  0  0  0  0  0
  161.8150  204.7840  144.1140 C   0  0  0  0  0  3  0  0  0  0  0  0
  162.5580  204.2020  145.1380 C   0  0  0  0  0  3  0  0  0  0  0  0
  161.0310  205.8970  144.4160 C   0  0  0  0  0  3  0  0  0  0  0  0
  161.0070  206.3870  145.6820 N   0  0  0  0  0  0  0  0  0  0  0  0
  162.5090  204.7200  146.3930 N   0  0  0  0  0  0  0  0  0  0  0  0
  161.7390  205.8080  146.6720 C   0  0  0  0  0  0  0  0  0  0  0  0
  162.6840  210.4200  148.4360 C   0  0  0  0  0  2  0  0  0  0  0  0
  158.9910  213.2990  146.6100 C   0  0  0  0  0  0  0  0  0  0  0  0
  158.6990  212.3240  145.7830 C   0  0  0  0  0  0  0  0  0  0  0  0
  158.0770  214.4530  146.3980 C   0  0  0  0  0  2  0  0  0  0  0  0
  160.8200  211.9290  147.5520 N   0  0  0  0  0  0  0  0  0  0  0  0
  161.9430  211.7220  148.4240 C   0  0  0  0  0  0  0  0  0  0  0  0
  157.6480  212.6500  144.9520 O   0  0  0  0  0  0  0  0  0  0  0  0
  157.1950  213.9700  145.2330 C   0  0  1  0  0  3  0  0  0  0  0  0
  162.3110  212.6330  149.2140 O   0  0  0  0  0  0  0  0  0  0  0  0
  160.0830  213.2050  147.6360 C   0  0  0  0  0  2  0  0  0  0  0  0
  159.4250  211.0560  145.7720 C   0  0  0  0  0  3  0  0  0  0  0  0
  160.4380  210.8880  146.6260 C   0  0  0  0  0  3  0  0  0  0  0  0
  154.8800  213.8040  144.8280 O   0  0  0  0  0  0  0  0  0  0  0  0
  155.7640  213.9390  145.6580 C   0  0  0  0  0  3  0  0  0  0  0  0
  159.5300  210.0170  155.8230 C   0  0  0  0  0  2  0  0  0  0  0  0
  159.1720  211.4960  155.8860 C   0  0  2  0  0  3  0  0  0  0  0  0
  159.5280  213.5720  157.1950 C   0  0  0  0  0  2  0  0  0  0  0  0
  159.5020  212.0560  157.2610 C   0  0  0  0  0  3  0  0  0  0  0  0
  160.8260  212.7970  157.2110 C   0  0  0  0  0  2  0  0  0  0  0  0
  157.6760  211.6560  155.6200 C   0  0  0  0  0  2  0  0  0  0  0  0
  158.1010  211.9290  153.1530 C   0  0  0  0  0  1  0  0  0  0  0  0
  155.8810  212.4090  154.1030 C   0  0  0  0  0  1  0  0  0  0  0  0
  157.7550  213.9330  154.5750 C   0  0  0  0  0  1  0  0  0  0  0  0
  157.3700  212.4790  154.3670 C   0  0  0  0  0  0  0  0  0  0  0  0
  1 14  1  0  0  0  0
  2 12  1  0  0  0  0
  3  2  2  0  0  0  0
  4 15  1  0  0  0  0
  5  2  1  0  0  0  0
  6 16  1  0  0  0  0
  7  4  2  0  0  0  0
  7  5  1  0  0  0  0
  8 14  1  0  0  0  0
  9 13  2  0  0  0  0
  9 18  1  0  0  0  0
 10  9  1  0  0  0  0
 11 10  2  0  0  0  0
 12  6  1  0  0  0  0
 13 17  1  0  0  0  0
 14 40  1  1  0  0  0
 15 11  1  0  0  0  0
 16 19  2  0  0  0  0
 17 16  1  0  0  0  0
 17  1  2  0  0  0  0
 18  8  2  0  0  0  0
 20 22  2  0  0  0  0
 20 21  1  0  0  0  0
 21 24  2  0  0  0  0
 22 23  1  0  0  0  0
 23 25  2  0  0  0  0
 24 25  1  0  0  0  0
 25  7  1  0  0  0  0
 26 11  1  0  0  0  0
 27 35  1  0  0  0  0
 28 27  2  0  0  0  0
 29 27  1  0  0  0  0
 30 35  1  0  0  0  0
 30 31  1  0  0  0  0
 31 26  1  0  0  0  0
 31 34  2  0  0  0  0
 32 33  1  0  0  0  0
 32 28  1  0  0  0  0
 33 39  1  1  0  0  0
 33 29  1  0  0  0  0
 36 28  1  0  0  0  0
 36 37  2  0  0  0  0
 37 30  1  0  0  0  0
 38 39  2  0  0  0  0
 40 41  1  0  0  0  0
 41 45  1  1  0  0  0
 41 43  1  0  0  0  0
 42 44  1  0  0  0  0
 42 43  1  0  0  0  0
 44 43  1  0  0  0  0
 46 49  1  0  0  0  0
 47 49  1  0  0  0  0
 49 48  1  0  0  0  0
 49 45  1  0  0  0  0
M  END
>  <MODEL>
3

>  <REMARK>
 VINA RESULT:      -2.5      1.746      2.163
  Name = 
  9 active torsions:
  status: ('A' for Active; 'I' for Inactive)
    1  A    between atoms: C_12  and  C_16
    2  A    between atoms: C_15  and  C_49
    3  A    between atoms: C_16  and  C_26
    4  A    between atoms: C_16  and  C_35
    5  A    between atoms: C_20  and  C_22
    6  A    between atoms: C_20  and  C_31
    7  A    between atoms: C_25  and  C_30
    8  A    between atoms: C_26  and  C_39
    9  A    between atoms: C_35  and  C_42
                            x       y       z     vdW  Elec       q    Type
                         _______ _______ _______ _____ _____    ______ ____

>  <TORSDO>
F 9

$$$$
=
 OpenBabel11052409423D

 49 54  0  0  1  0  0  0  0  0999 V2000
  159.7730  212.3760  153.5200 C   0  0  0  0  0  3  0  0  0  0  0  0
  160.4780  213.8020  148.8450 C   0  0  0  0  0  0  0  0  0  0  0  0
  161.5800  213.7010  149.4460 O   0  0  0  0  0  0  0  0  0  0  0  0
  161.6470  211.3230  147.4350 N   0  0  0  0  0  0  0  0  0  0  0  0
  160.3240  213.3120  147.5090 N   0  0  0  0  0  2  0  0  0  0  0  0
  158.4060  213.3960  150.1180 C   0  0  0  0  0  2  0  0  0  0  0  0
  161.2220  212.4050  146.8530 C   0  0  0  0  0  0  0  0  0  0  0  0
  160.4860  210.0880  154.0390 C   0  0  0  0  0  3  0  0  0  0  0  0
  160.7460  210.1890  151.5580 C   0  0  0  0  0  0  0  0  0  0  0  0
  161.4260  209.4160  150.5530 N   0  0  0  0  0  0  0  0  0  0  0  0
  161.6990  209.7260  149.3160 C   0  0  0  0  0  0  0  0  0  0  0  0
  159.3230  214.4520  149.5210 C   0  0  0  0  0  2  0  0  0  0  0  0
  160.2850  211.4260  151.2920 C   0  0  0  0  0  3  0  0  0  0  0  0
  160.7890  211.5340  154.2190 C   0  0  2  0  0  3  0  0  0  0  0  0
  161.2770  210.9640  148.7380 N   0  0  0  0  0  2  0  0  0  0  0  0
  158.5900  213.3110  151.6000 C   0  0  0  0  0  0  0  0  0  0  0  0
  159.5520  212.3480  152.1980 C   0  0  0  0  0  0  0  0  0  0  0  0
  160.5040  209.5010  152.8440 C   0  0  0  0  0  3  0  0  0  0  0  0
  157.8650  214.1310  152.3590 C   0  0  0  0  0  2  0  0  0  0  0  0
  162.2350  213.1150  142.8100 C   0  0  0  0  0  3  0  0  0  0  0  0
  163.1250  213.4310  143.8340 C   0  0  0  0  0  3  0  0  0  0  0  0
  161.0040  212.5580  143.1530 C   0  0  0  0  0  3  0  0  0  0  0  0
  160.6980  212.3360  144.4580 N   0  0  0  0  0  0  0  0  0  0  0  0
  162.7850  213.1950  145.1280 N   0  0  0  0  0  0  0  0  0  0  0  0
  161.5790  212.6500  145.4470 C   0  0  0  0  0  0  0  0  0  0  0  0
  162.4330  208.7300  148.4770 C   0  0  0  0  0  2  0  0  0  0  0  0
  161.3660  203.8520  147.9060 C   0  0  0  0  0  0  0  0  0  0  0  0
  161.0620  204.1100  146.6560 C   0  0  0  0  0  0  0  0  0  0  0  0
  161.1720  202.4070  148.2010 C   0  0  0  0  0  2  0  0  0  0  0  0
  161.9090  206.2390  148.2470 N   0  0  0  0  0  0  0  0  0  0  0  0
  162.3010  207.3570  149.0610 C   0  0  0  0  0  0  0  0  0  0  0  0
  160.6410  202.9820  145.9850 O   0  0  0  0  0  0  0  0  0  0  0  0
  160.6480  201.8600  146.8630 C   0  0  1  0  0  3  0  0  0  0  0  0
  162.5630  207.1930  150.2830 O   0  0  0  0  0  0  0  0  0  0  0  0
  161.8670  204.8970  148.8600 C   0  0  0  0  0  2  0  0  0  0  0  0
  161.1680  205.4480  146.0790 C   0  0  0  0  0  3  0  0  0  0  0  0
  161.5740  206.4530  146.8580 C   0  0  0  0  0  3  0  0  0  0  0  0
  161.3680  199.6340  146.5870 O   0  0  0  0  0  0  0  0  0  0  0  0
  161.5760  200.8120  146.3440 C   0  0  0  0  0  3  0  0  0  0  0  0
  160.8070  211.8690  155.7000 C   0  0  0  0  0  2  0  0  0  0  0  0
  159.4410  211.6240  156.3300 C   0  0  2  0  0  3  0  0  0  0  0  0
  160.7890  209.6580  157.0140 C   0  0  0  0  0  2  0  0  0  0  0  0
  159.5020  210.4230  157.2610 C   0  0  0  0  0  3  0  0  0  0  0  0
  159.4850  209.1410  156.4490 C   0  0  0  0  0  2  0  0  0  0  0  0
  158.4250  211.3550  155.2220 C   0  0  0  0  0  2  0  0  0  0  0  0
  157.1530  213.4700  155.7240 C   0  0  0  0  0  1  0  0  0  0  0  0
  156.1670  211.7250  154.2950 C   0  0  0  0  0  1  0  0  0  0  0  0
  156.4090  211.3190  156.7110 C   0  0  0  0  0  1  0  0  0  0  0  0
  157.0510  211.9710  155.5000 C   0  0  0  0  0  0  0  0  0  0  0  0
  1 14  1  0  0  0  0
  2  3  2  0  0  0  0
  2 12  1  0  0  0  0
  4 15  1  0  0  0  0
  5  2  1  0  0  0  0
  6 16  1  0  0  0  0
  7  4  2  0  0  0  0
  7  5  1  0  0  0  0
  8 14  1  0  0  0  0
  9 18  1  0  0  0  0
 10  9  1  0  0  0  0
 11 10  2  0  0  0  0
 12  6  1  0  0  0  0
 13  9  2  0  0  0  0
 13 17  1  0  0  0  0
 14 40  1  1  0  0  0
 15 11  1  0  0  0  0
 16 17  1  0  0  0  0
 16 19  2  0  0  0  0
 17  1  2  0  0  0  0
 18  8  2  0  0  0  0
 20 22  2  0  0  0  0
 20 21  1  0  0  0  0
 21 24  2  0  0  0  0
 22 23  1  0  0  0  0
 23 25  2  0  0  0  0
 24 25  1  0  0  0  0
 25  7  1  0  0  0  0
 26 31  1  0  0  0  0
 26 11  1  0  0  0  0
 27 29  1  0  0  0  0
 27 35  1  0  0  0  0
 28 27  2  0  0  0  0
 30 35  1  0  0  0  0
 30 31  1  0  0  0  0
 31 34  2  0  0  0  0
 32 28  1  0  0  0  0
 32 33  1  0  0  0  0
 33 39  1  6  0  0  0
 33 29  1  0  0  0  0
 36 28  1  0  0  0  0
 36 37  2  0  0  0  0
 37 30  1  0  0  0  0
 39 38  2  0  0  0  0
 40 41  1  0  0  0  0
 41 45  1  6  0  0  0
 41 43  1  0  0  0  0
 42 43  1  0  0  0  0
 44 42  1  0  0  0  0
 44 43  1  0  0  0  0
 45 49  1  0  0  0  0
 47 49  1  0  0  0  0
 49 46  1  0  0  0  0
 49 48  1  0  0  0  0
M  END
>  <MODEL>
4

>  <REMARK>
 VINA RESULT:      -1.9      2.652      6.874
  Name = 
  9 active torsions:
  status: ('A' for Active; 'I' for Inactive)
    1  A    between atoms: C_12  and  C_16
    2  A    between atoms: C_15  and  C_49
    3  A    between atoms: C_16  and  C_26
    4  A    between atoms: C_16  and  C_35
    5  A    between atoms: C_20  and  C_22
    6  A    between atoms: C_20  and  C_31
    7  A    between atoms: C_25  and  C_30
    8  A    between atoms: C_26  and  C_39
    9  A    between atoms: C_35  and  C_42
                            x       y       z     vdW  Elec       q    Type
                         _______ _______ _______ _____ _____    ______ ____

>  <TORSDO>
F 9

$$$$
