=
 OpenBabel11042422293D

 34 36  0  0  1  0  0  0  0  0999 V2000
  161.6320  209.3700  151.1620 Cl  0  0  0  0  0  0  0  0  0  0  0  0
  159.6350  210.3400  156.2450 Cl  0  0  0  0  0  0  0  0  0  0  0  0
  160.2050  209.2800  154.9640 C   0  0  0  0  0  0  0  0  0  0  0  0
  161.2470  207.4530  153.1040 C   0  0  0  0  0  0  0  0  0  0  0  0
  160.8510  207.0210  154.3690 C   0  0  0  0  0  3  0  0  0  0  0  0
  160.3390  207.9290  155.2930 C   0  0  0  0  0  3  0  0  0  0  0  0
  160.5910  209.7350  153.6750 C   0  0  0  0  0  0  0  0  0  0  0  0
  161.1300  208.8120  152.7590 C   0  0  0  0  0  0  0  0  0  0  0  0
  160.4770  211.0720  153.2610 O   0  0  0  0  0  0  0  0  0  0  0  0
  159.2930  211.6650  152.7550 C   0  0  0  0  0  2  0  0  0  0  0  0
  159.6430  212.9340  152.0100 C   0  0  0  0  0  2  0  0  0  0  0  0
  158.5360  213.3340  151.2120 O   0  0  0  0  0  0  0  0  0  0  0  0
  159.9210  213.9890  147.4470 S   0  0  0  0  0  0  0  0  0  0  0  0
  157.3490  213.1740  147.7340 C   0  0  0  0  0  3  0  0  0  0  0  0
  158.6080  212.8030  147.0120 C   0  0  1  0  0  3  0  0  0  0  0  0
  156.0570  213.7610  149.7090 C   0  0  0  0  0  1  0  0  0  0  0  0
  158.6110  213.4920  149.8220 C   0  0  0  0  0  0  0  0  0  0  0  0
  159.7950  213.6240  149.2060 C   0  0  0  0  0  3  0  0  0  0  0  0
  157.3540  213.4740  149.0370 C   0  0  0  0  0  0  0  0  0  0  0  0
  159.4340  212.1320  144.8240 N   0  0  0  0  0  1  0  0  0  0  0  0
  158.3560  212.8180  145.5160 C   0  0  0  0  0  2  0  0  0  0  0  0
  161.8160  206.4550  152.1510 C   0  0  0  0  0  2  0  0  0  0  0  0
  161.3110  205.0620  152.4870 C   0  0  0  0  0  2  0  0  0  0  0  0
  161.7880  204.0640  151.4470 C   0  0  0  0  0  2  0  0  0  0  0  0
  160.2830  203.0170  149.6510 C   0  0  1  0  0  3  0  0  0  0  0  0
  161.1730  202.0920  150.2330 O   0  0  0  0  0  0  0  0  0  0  0  0
  160.6710  203.0820  151.0960 C   0  0  1  0  0  3  0  0  0  0  0  0
  160.6700  205.3240  148.6600 N   0  0  0  0  0  2  0  0  0  0  0  0
  161.9810  203.4900  148.0410 O   0  0  0  0  0  0  0  0  0  0  0  0
  161.0280  203.9400  148.7310 C   0  0  0  0  0  0  0  0  0  0  0  0
  161.3640  206.2680  147.7970 C   0  0  2  0  0  3  0  0  0  0  0  0
  161.3050  207.5490  148.3500 O   0  0  0  0  0  1  0  0  0  0  0  0
  160.7360  206.2720  146.4410 C   0  0  0  0  0  3  0  0  0  0  0  0
  161.3240  205.8020  145.4790 O   0  0  0  0  0  0  0  0  0  0  0  0
  1  8  1  0  0  0  0
  3  6  1  0  0  0  0
  3  2  1  0  0  0  0
  4  5  1  0  0  0  0
  5  6  2  0  0  0  0
  7  3  2  0  0  0  0
  8  4  2  0  0  0  0
  8  7  1  0  0  0  0
  9  7  1  0  0  0  0
 10  9  1  0  0  0  0
 11 10  1  0  0  0  0
 12 11  1  0  0  0  0
 13 18  1  0  0  0  0
 14 19  2  0  0  0  0
 15 21  1  6  0  0  0
 15 13  1  0  0  0  0
 15 14  1  0  0  0  0
 17 12  1  0  0  0  0
 18 17  2  0  0  0  0
 19 16  1  0  0  0  0
 19 17  1  0  0  0  0
 20 21  1  0  0  0  0
 22 23  1  0  0  0  0
 22  4  1  0  0  0  0
 24 23  1  0  0  0  0
 25 30  1  6  0  0  0
 25 26  1  0  0  0  0
 25 27  1  0  0  0  0
 26 27  1  0  0  0  0
 27 24  1  6  0  0  0
 28 30  1  0  0  0  0
 29 30  2  0  0  0  0
 31 32  1  1  0  0  0
 31 28  1  0  0  0  0
 33 31  1  0  0  0  0
 34 33  2  0  0  0  0
M  END
>  <MODEL>
1

>  <REMARK>
 VINA RESULT:      -7.1      0.000      0.000
  Name = 
  13 active torsions:
  status: ('A' for Active; 'I' for Inactive)
    1  A    between atoms: C_3  and  C_19
    2  A    between atoms: C_5  and  C_11
    3  A    between atoms: C_5  and  C_22
    4  A    between atoms: C_7  and  N_9
    5  A    between atoms: C_7  and  C_17
    6  A    between atoms: C_8  and  O_12
    7  A    between atoms: C_8  and  C_28
    8  A    between atoms: C_11  and  C_20
    9  A    between atoms: O_12  and  C_32
   10  A    between atoms: C_14  and  C_26
   11  A    between atoms: C_20  and  C_23
   12  A    between atoms: O_21  and  C_25
   13  A    between atoms: O_21  and  C_28
                            x       y       z     vdW  Elec       q    Type
                         _______ _______ _______ _____ _____    ______ ____

>  <TORSDO>
F 13

$$$$
=
 OpenBabel11042422293D

 34 36  0  0  1  0  0  0  0  0999 V2000
  161.7810  209.1510  150.8940 Cl  0  0  0  0  0  0  0  0  0  0  0  0
  159.9560  209.4860  156.1210 Cl  0  0  0  0  0  0  0  0  0  0  0  0
  160.4840  208.5920  154.7030 C   0  0  0  0  0  0  0  0  0  0  0  0
  161.4640  207.0100  152.6000 C   0  0  0  0  0  0  0  0  0  0  0  0
  161.1110  206.4250  153.8150 C   0  0  0  0  0  3  0  0  0  0  0  0
  160.6300  207.2110  154.8590 C   0  0  0  0  0  3  0  0  0  0  0  0
  160.8250  209.2020  153.4660 C   0  0  0  0  0  0  0  0  0  0  0  0
  161.3340  208.4000  152.4270 C   0  0  0  0  0  0  0  0  0  0  0  0
  160.6970  210.5790  153.2220 O   0  0  0  0  0  0  0  0  0  0  0  0
  159.5090  211.2160  152.7820 C   0  0  0  0  0  2  0  0  0  0  0  0
  159.8400  212.5990  152.2660 C   0  0  0  0  0  2  0  0  0  0  0  0
  158.8550  212.9990  151.3210 O   0  0  0  0  0  0  0  0  0  0  0  0
  160.8200  214.2340  147.9840 S   0  0  0  0  0  0  0  0  0  0  0  0
  158.3070  213.2540  147.6930 C   0  0  0  0  0  3  0  0  0  0  0  0
  159.6970  213.0510  147.1720 C   0  0  1  0  0  3  0  0  0  0  0  0
  156.6500  213.4960  149.4560 C   0  0  0  0  0  1  0  0  0  0  0  0
  159.1580  213.3490  150.0000 C   0  0  0  0  0  0  0  0  0  0  0  0
  160.4180  213.6260  149.6310 C   0  0  0  0  0  3  0  0  0  0  0  0
  158.0630  213.3730  149.0020 C   0  0  0  0  0  0  0  0  0  0  0  0
  158.5400  212.6340  145.0730 N   0  0  0  0  0  1  0  0  0  0  0  0
  159.7090  213.2570  145.6690 C   0  0  0  0  0  2  0  0  0  0  0  0
  162.0010  206.1390  151.5130 C   0  0  0  0  0  2  0  0  0  0  0  0
  160.8590  205.4910  150.7480 C   0  0  0  0  0  2  0  0  0  0  0  0
  161.2820  205.1970  149.3200 C   0  0  0  0  0  2  0  0  0  0  0  0
  161.6960  206.3340  147.0570 C   0  0  1  0  0  3  0  0  0  0  0  0
  160.3550  206.4240  147.4820 O   0  0  0  0  0  0  0  0  0  0  0  0
  161.3240  206.4860  148.5000 C   0  0  1  0  0  3  0  0  0  0  0  0
  160.9320  204.0210  146.3380 N   0  0  0  0  0  2  0  0  0  0  0  0
  163.1980  204.5840  146.4370 O   0  0  0  0  0  0  0  0  0  0  0  0
  162.0000  204.9350  146.6030 C   0  0  0  0  0  0  0  0  0  0  0  0
  161.1640  202.6580  145.8830 C   0  0  2  0  0  3  0  0  0  0  0  0
  160.3080  202.3600  144.8200 O   0  0  0  0  0  1  0  0  0  0  0  0
  160.9300  201.7000  147.0060 C   0  0  0  0  0  3  0  0  0  0  0  0
  160.9590  202.0800  148.1660 O   0  0  0  0  0  0  0  0  0  0  0  0
  1  8  1  0  0  0  0
  3  6  1  0  0  0  0
  3  2  1  0  0  0  0
  4  5  1  0  0  0  0
  5  6  2  0  0  0  0
  7  3  2  0  0  0  0
  8  4  2  0  0  0  0
  8  7  1  0  0  0  0
  9  7  1  0  0  0  0
 10  9  1  0  0  0  0
 11 10  1  0  0  0  0
 12 11  1  0  0  0  0
 13 18  1  0  0  0  0
 14 19  2  0  0  0  0
 15 21  1  6  0  0  0
 15 14  1  0  0  0  0
 15 13  1  0  0  0  0
 17 12  1  0  0  0  0
 18 17  2  0  0  0  0
 19 16  1  0  0  0  0
 19 17  1  0  0  0  0
 20 21  1  0  0  0  0
 22  4  1  0  0  0  0
 23 22  1  0  0  0  0
 24 23  1  0  0  0  0
 25 30  1  1  0  0  0
 25 26  1  0  0  0  0
 25 27  1  0  0  0  0
 26 27  1  0  0  0  0
 27 24  1  1  0  0  0
 28 30  1  0  0  0  0
 29 30  2  0  0  0  0
 31 32  1  6  0  0  0
 31 28  1  0  0  0  0
 31 33  1  0  0  0  0
 33 34  2  0  0  0  0
M  END
>  <MODEL>
2

>  <REMARK>
 VINA RESULT:      -7.0      1.467      2.472
  Name = 
  13 active torsions:
  status: ('A' for Active; 'I' for Inactive)
    1  A    between atoms: C_3  and  C_19
    2  A    between atoms: C_5  and  C_11
    3  A    between atoms: C_5  and  C_22
    4  A    between atoms: C_7  and  N_9
    5  A    between atoms: C_7  and  C_17
    6  A    between atoms: C_8  and  O_12
    7  A    between atoms: C_8  and  C_28
    8  A    between atoms: C_11  and  C_20
    9  A    between atoms: O_12  and  C_32
   10  A    between atoms: C_14  and  C_26
   11  A    between atoms: C_20  and  C_23
   12  A    between atoms: O_21  and  C_25
   13  A    between atoms: O_21  and  C_28
                            x       y       z     vdW  Elec       q    Type
                         _______ _______ _______ _____ _____    ______ ____

>  <TORSDO>
F 13

$$$$
=
 OpenBabel11042422293D

 34 36  0  0  1  0  0  0  0  0999 V2000
  161.9790  209.9630  151.0360 Cl  0  0  0  0  0  0  0  0  0  0  0  0
  161.1500  204.6260  152.2970 Cl  0  0  0  0  0  0  0  0  0  0  0  0
  161.2850  206.3280  152.7120 C   0  0  0  0  0  0  0  0  0  0  0  0
  161.2910  209.0140  153.5300 C   0  0  0  0  0  0  0  0  0  0  0  0
  160.9840  208.0030  154.4390 C   0  0  0  0  0  3  0  0  0  0  0  0
  160.9760  206.6710  154.0310 C   0  0  0  0  0  3  0  0  0  0  0  0
  161.6130  207.3450  151.7760 C   0  0  0  0  0  0  0  0  0  0  0  0
  161.5930  208.6900  152.1950 C   0  0  0  0  0  0  0  0  0  0  0  0
  161.9470  207.0860  150.4370 O   0  0  0  0  0  0  0  0  0  0  0  0
  161.1500  207.4460  149.3200 C   0  0  0  0  0  2  0  0  0  0  0  0
  160.6200  206.1950  148.6560 C   0  0  0  0  0  2  0  0  0  0  0  0
  161.6790  205.2610  148.4910 O   0  0  0  0  0  0  0  0  0  0  0  0
  161.0060  201.3220  147.7470 S   0  0  0  0  0  0  0  0  0  0  0  0
  161.3070  202.9850  145.6260 C   0  0  0  0  0  3  0  0  0  0  0  0
  160.3500  201.9740  146.1780 C   0  0  1  0  0  3  0  0  0  0  0  0
  162.7160  204.9620  145.7670 C   0  0  0  0  0  1  0  0  0  0  0  0
  161.5210  204.0290  147.8430 C   0  0  0  0  0  0  0  0  0  0  0  0
  161.0680  202.9550  148.5060 C   0  0  0  0  0  3  0  0  0  0  0  0
  161.8310  203.9440  146.3960 C   0  0  0  0  0  0  0  0  0  0  0  0
  160.9100  199.6770  145.6010 N   0  0  0  0  0  1  0  0  0  0  0  0
  160.1670  200.8500  145.1740 C   0  0  0  0  0  2  0  0  0  0  0  0
  161.2630  210.4310  153.9980 C   0  0  0  0  0  2  0  0  0  0  0  0
  161.2040  210.4810  155.5160 C   0  0  0  0  0  2  0  0  0  0  0  0
  160.4550  211.7200  155.9730 C   0  0  0  0  0  2  0  0  0  0  0  0
  157.9070  212.0180  155.9190 C   0  0  1  0  0  3  0  0  0  0  0  0
  158.3200  210.7260  155.5340 O   0  0  0  0  0  0  0  0  0  0  0  0
  159.0880  211.3390  156.5400 C   0  0  1  0  0  3  0  0  0  0  0  0
  158.3070  212.5640  153.4700 N   0  0  0  0  0  2  0  0  0  0  0  0
  158.3720  214.2190  155.1190 O   0  0  0  0  0  0  0  0  0  0  0  0
  158.2160  213.0030  154.8290 C   0  0  0  0  0  0  0  0  0  0  0  0
  158.5910  213.4740  152.3710 C   0  0  2  0  0  3  0  0  0  0  0  0
  157.4520  213.6280  151.5760 O   0  0  0  0  0  1  0  0  0  0  0  0
  159.7160  212.9390  151.5460 C   0  0  0  0  0  3  0  0  0  0  0  0
  160.1050  213.5400  150.5570 O   0  0  0  0  0  0  0  0  0  0  0  0
  1  8  1  0  0  0  0
  2  3  1  0  0  0  0
  3  6  1  0  0  0  0
  4 22  1  0  0  0  0
  4  5  1  0  0  0  0
  6  5  2  0  0  0  0
  7  8  1  0  0  0  0
  7  3  2  0  0  0  0
  8  4  2  0  0  0  0
  9  7  1  0  0  0  0
 10  9  1  0  0  0  0
 11 10  1  0  0  0  0
 12 11  1  0  0  0  0
 13 18  1  0  0  0  0
 14 15  1  0  0  0  0
 14 19  2  0  0  0  0
 15 21  1  6  0  0  0
 15 13  1  0  0  0  0
 16 19  1  0  0  0  0
 17 12  1  0  0  0  0
 17 18  2  0  0  0  0
 19 17  1  0  0  0  0
 21 20  1  0  0  0  0
 22 23  1  0  0  0  0
 23 24  1  0  0  0  0
 25 30  1  6  0  0  0
 25 27  1  0  0  0  0
 26 25  1  0  0  0  0
 26 27  1  0  0  0  0
 27 24  1  6  0  0  0
 28 30  1  0  0  0  0
 30 29  2  0  0  0  0
 31 32  1  6  0  0  0
 31 28  1  0  0  0  0
 33 31  1  0  0  0  0
 34 33  2  0  0  0  0
M  END
>  <MODEL>
3

>  <REMARK>
 VINA RESULT:      -6.8      3.862      8.797
  Name = 
  13 active torsions:
  status: ('A' for Active; 'I' for Inactive)
    1  A    between atoms: C_3  and  C_19
    2  A    between atoms: C_5  and  C_11
    3  A    between atoms: C_5  and  C_22
    4  A    between atoms: C_7  and  N_9
    5  A    between atoms: C_7  and  C_17
    6  A    between atoms: C_8  and  O_12
    7  A    between atoms: C_8  and  C_28
    8  A    between atoms: C_11  and  C_20
    9  A    between atoms: O_12  and  C_32
   10  A    between atoms: C_14  and  C_26
   11  A    between atoms: C_20  and  C_23
   12  A    between atoms: O_21  and  C_25
   13  A    between atoms: O_21  and  C_28
                            x       y       z     vdW  Elec       q    Type
                         _______ _______ _______ _____ _____    ______ ____

>  <TORSDO>
F 13

$$$$
=
 OpenBabel11042422293D

 34 36  0  0  1  0  0  0  0  0999 V2000
  162.3100  208.0590  148.5620 Cl  0  0  0  0  0  0  0  0  0  0  0  0
  161.6010  210.8170  153.3220 Cl  0  0  0  0  0  0  0  0  0  0  0  0
  161.4700  209.3870  152.3080 C   0  0  0  0  0  0  0  0  0  0  0  0
  161.3370  206.9630  150.8970 C   0  0  0  0  0  0  0  0  0  0  0  0
  160.9450  207.0220  152.2330 C   0  0  0  0  0  3  0  0  0  0  0  0
  161.0160  208.2230  152.9340 C   0  0  0  0  0  3  0  0  0  0  0  0
  161.8600  209.3490  150.9430 C   0  0  0  0  0  0  0  0  0  0  0  0
  161.8070  208.1230  150.2530 C   0  0  0  0  0  0  0  0  0  0  0  0
  162.3150  210.4740  150.2370 O   0  0  0  0  0  0  0  0  0  0  0  0
  161.4770  211.4270  149.6050 C   0  0  0  0  0  2  0  0  0  0  0  0
  162.1140  211.8800  148.3110 C   0  0  0  0  0  2  0  0  0  0  0  0
  161.1180  212.4400  147.4640 O   0  0  0  0  0  0  0  0  0  0  0  0
  162.8600  214.0310  144.1540 S   0  0  0  0  0  0  0  0  0  0  0  0
  160.5960  212.5730  143.8250 C   0  0  0  0  0  3  0  0  0  0  0  0
  162.0080  212.6480  143.3290 C   0  0  1  0  0  3  0  0  0  0  0  0
  158.8920  212.4860  145.5580 C   0  0  0  0  0  1  0  0  0  0  0  0
  161.3700  212.8400  146.1450 C   0  0  0  0  0  0  0  0  0  0  0  0
  162.5570  213.3590  145.7970 C   0  0  0  0  0  3  0  0  0  0  0  0
  160.3100  212.6430  145.1290 C   0  0  0  0  0  0  0  0  0  0  0  0
  162.9960  213.8450  141.4560 N   0  0  0  0  0  1  0  0  0  0  0  0
  162.0060  212.8480  141.8250 C   0  0  0  0  0  2  0  0  0  0  0  0
  161.2720  205.6520  150.1860 C   0  0  0  0  0  2  0  0  0  0  0  0
  161.1890  204.5150  151.1910 C   0  0  0  0  0  2  0  0  0  0  0  0
  161.5190  203.1940  150.5200 C   0  0  0  0  0  2  0  0  0  0  0  0
  159.9740  201.7130  149.1040 C   0  0  1  0  0  3  0  0  0  0  0  0
  160.6560  200.9970  150.1080 O   0  0  0  0  0  0  0  0  0  0  0  0
  160.2750  202.3090  150.4440 C   0  0  1  0  0  3  0  0  0  0  0  0
  160.9770  203.4230  147.5160 N   0  0  0  0  0  2  0  0  0  0  0  0
  161.6780  201.1940  147.5140 O   0  0  0  0  0  0  0  0  0  0  0  0
  160.9210  202.0780  147.9970 C   0  0  0  0  0  0  0  0  0  0  0  0
  161.8830  203.8380  146.4550 C   0  0  2  0  0  3  0  0  0  0  0  0
  162.4390  205.0820  146.7650 O   0  0  0  0  0  1  0  0  0  0  0  0
  161.1430  203.9230  145.1590 C   0  0  0  0  0  3  0  0  0  0  0  0
  161.3900  204.8090  144.3570 O   0  0  0  0  0  0  0  0  0  0  0  0
  1  8  1  0  0  0  0
  3  6  1  0  0  0  0
  3  2  1  0  0  0  0
  4  5  1  0  0  0  0
  5  6  2  0  0  0  0
  7  3  2  0  0  0  0
  8  4  2  0  0  0  0
  8  7  1  0  0  0  0
  9  7  1  0  0  0  0
 10  9  1  0  0  0  0
 11 10  1  0  0  0  0
 12 11  1  0  0  0  0
 13 18  1  0  0  0  0
 14 19  2  0  0  0  0
 15 21  1  6  0  0  0
 15 14  1  0  0  0  0
 15 13  1  0  0  0  0
 17 12  1  0  0  0  0
 18 17  2  0  0  0  0
 19 16  1  0  0  0  0
 19 17  1  0  0  0  0
 20 21  1  0  0  0  0
 22  4  1  0  0  0  0
 22 23  1  0  0  0  0
 24 23  1  0  0  0  0
 25 30  1  6  0  0  0
 25 26  1  0  0  0  0
 25 27  1  0  0  0  0
 26 27  1  0  0  0  0
 27 24  1  6  0  0  0
 28 30  1  0  0  0  0
 29 30  2  0  0  0  0
 31 32  1  1  0  0  0
 31 28  1  0  0  0  0
 33 31  1  0  0  0  0
 34 33  2  0  0  0  0
M  END
>  <MODEL>
4

>  <REMARK>
 VINA RESULT:      -6.8      2.767      3.452
  Name = 
  13 active torsions:
  status: ('A' for Active; 'I' for Inactive)
    1  A    between atoms: C_3  and  C_19
    2  A    between atoms: C_5  and  C_11
    3  A    between atoms: C_5  and  C_22
    4  A    between atoms: C_7  and  N_9
    5  A    between atoms: C_7  and  C_17
    6  A    between atoms: C_8  and  O_12
    7  A    between atoms: C_8  and  C_28
    8  A    between atoms: C_11  and  C_20
    9  A    between atoms: O_12  and  C_32
   10  A    between atoms: C_14  and  C_26
   11  A    between atoms: C_20  and  C_23
   12  A    between atoms: O_21  and  C_25
   13  A    between atoms: O_21  and  C_28
                            x       y       z     vdW  Elec       q    Type
                         _______ _______ _______ _____ _____    ______ ____

>  <TORSDO>
F 13

$$$$
=
 OpenBabel11042422293D

 34 36  0  0  1  0  0  0  0  0999 V2000
  161.1840  205.4670  153.0900 Cl  0  0  0  0  0  0  0  0  0  0  0  0
  161.8660  209.2250  149.0670 Cl  0  0  0  0  0  0  0  0  0  0  0  0
  161.5270  207.6020  149.6500 C   0  0  0  0  0  0  0  0  0  0  0  0
  160.7950  204.9970  150.4020 C   0  0  0  0  0  0  0  0  0  0  0  0
  160.7850  205.3720  149.0590 C   0  0  0  0  0  3  0  0  0  0  0  0
  161.1420  206.6650  148.6880 C   0  0  0  0  0  3  0  0  0  0  0  0
  161.5580  207.2340  151.0220 C   0  0  0  0  0  0  0  0  0  0  0  0
  161.1700  205.9300  151.3870 C   0  0  0  0  0  0  0  0  0  0  0  0
  161.9430  208.1090  152.0500 O   0  0  0  0  0  0  0  0  0  0  0  0
  161.1090  209.1010  152.6250 C   0  0  0  0  0  2  0  0  0  0  0  0
  161.9480  210.2920  153.0310 C   0  0  0  0  0  2  0  0  0  0  0  0
  161.5240  210.7560  154.3070 O   0  0  0  0  0  0  0  0  0  0  0  0
  158.3320  213.2710  154.2230 S   0  0  0  0  0  0  0  0  0  0  0  0
  158.0430  210.8890  155.4880 C   0  0  0  0  0  3  0  0  0  0  0  0
  157.4020  211.7160  154.4170 C   0  0  1  0  0  3  0  0  0  0  0  0
  159.9290  209.8030  156.5730 C   0  0  0  0  0  1  0  0  0  0  0  0
  160.2670  211.3310  154.5330 C   0  0  0  0  0  0  0  0  0  0  0  0
  159.8690  212.4120  153.8450 C   0  0  0  0  0  3  0  0  0  0  0  0
  159.3660  210.6990  155.5250 C   0  0  0  0  0  0  0  0  0  0  0  0
  155.4700  213.1480  154.0440 N   0  0  0  0  0  1  0  0  0  0  0  0
  155.9610  212.0060  154.7950 C   0  0  0  0  0  2  0  0  0  0  0  0
  160.3800  203.6100  150.7630 C   0  0  0  0  0  2  0  0  0  0  0  0
  161.1450  202.5990  149.9260 C   0  0  0  0  0  2  0  0  0  0  0  0
  160.2030  201.8780  148.9800 C   0  0  0  0  0  2  0  0  0  0  0  0
  161.1600  200.5700  146.9900 C   0  0  1  0  0  3  0  0  0  0  0  0
  162.1330  200.8900  147.9590 O   0  0  0  0  0  0  0  0  0  0  0  0
  160.8490  200.5960  148.4550 C   0  0  1  0  0  3  0  0  0  0  0  0
  161.5060  203.0180  146.4060 N   0  0  0  0  0  2  0  0  0  0  0  0
  159.8320  201.7430  145.3890 O   0  0  0  0  0  0  0  0  0  0  0  0
  160.7800  201.8000  146.2180 C   0  0  0  0  0  0  0  0  0  0  0  0
  161.1920  204.2370  145.6770 C   0  0  2  0  0  3  0  0  0  0  0  0
  160.6250  203.9180  144.4400 O   0  0  0  0  0  1  0  0  0  0  0  0
  162.4340  205.0420  145.4720 C   0  0  0  0  0  3  0  0  0  0  0  0
  163.4670  204.7540  146.0540 O   0  0  0  0  0  0  0  0  0  0  0  0
  2  3  1  0  0  0  0
  3  7  1  0  0  0  0
  4 22  1  0  0  0  0
  4  8  1  0  0  0  0
  5  4  2  0  0  0  0
  6  5  1  0  0  0  0
  6  3  2  0  0  0  0
  7  8  2  0  0  0  0
  7  9  1  0  0  0  0
  8  1  1  0  0  0  0
  9 10  1  0  0  0  0
 10 11  1  0  0  0  0
 11 12  1  0  0  0  0
 12 17  1  0  0  0  0
 13 15  1  0  0  0  0
 14 19  2  0  0  0  0
 15 21  1  1  0  0  0
 15 14  1  0  0  0  0
 17 19  1  0  0  0  0
 18 13  1  0  0  0  0
 18 17  2  0  0  0  0
 19 16  1  0  0  0  0
 20 21  1  0  0  0  0
 23 22  1  0  0  0  0
 24 23  1  0  0  0  0
 25 30  1  6  0  0  0
 25 26  1  0  0  0  0
 25 27  1  0  0  0  0
 26 27  1  0  0  0  0
 27 24  1  6  0  0  0
 29 30  2  0  0  0  0
 30 28  1  0  0  0  0
 31 32  1  6  0  0  0
 31 28  1  0  0  0  0
 33 31  1  0  0  0  0
 33 34  2  0  0  0  0
M  END
>  <MODEL>
5

>  <REMARK>
 VINA RESULT:      -6.8      3.968      5.408
  Name = 
  13 active torsions:
  status: ('A' for Active; 'I' for Inactive)
    1  A    between atoms: C_3  and  C_19
    2  A    between atoms: C_5  and  C_11
    3  A    between atoms: C_5  and  C_22
    4  A    between atoms: C_7  and  N_9
    5  A    between atoms: C_7  and  C_17
    6  A    between atoms: C_8  and  O_12
    7  A    between atoms: C_8  and  C_28
    8  A    between atoms: C_11  and  C_20
    9  A    between atoms: O_12  and  C_32
   10  A    between atoms: C_14  and  C_26
   11  A    between atoms: C_20  and  C_23
   12  A    between atoms: O_21  and  C_25
   13  A    between atoms: O_21  and  C_28
                            x       y       z     vdW  Elec       q    Type
                         _______ _______ _______ _____ _____    ______ ____

>  <TORSDO>
F 13

$$$$
=
 OpenBabel11042422293D

 34 36  0  0  1  0  0  0  0  0999 V2000
  161.8030  209.9220  152.1430 Cl  0  0  0  0  0  0  0  0  0  0  0  0
  159.8380  207.1630  156.5350 Cl  0  0  0  0  0  0  0  0  0  0  0  0
  160.0340  208.6090  155.5560 C   0  0  0  0  0  0  0  0  0  0  0  0
  160.0920  210.9680  154.0330 C   0  0  0  0  0  0  0  0  0  0  0  0
  159.3270  210.9000  155.1960 C   0  0  0  0  0  3  0  0  0  0  0  0
  159.2940  209.7280  155.9480 C   0  0  0  0  0  3  0  0  0  0  0  0
  160.8300  208.6650  154.3810 C   0  0  0  0  0  0  0  0  0  0  0  0
  160.8340  209.8470  153.6160 C   0  0  0  0  0  0  0  0  0  0  0  0
  161.6110  207.5920  153.9240 O   0  0  0  0  0  0  0  0  0  0  0  0
  161.1070  206.4560  153.2410 C   0  0  0  0  0  2  0  0  0  0  0  0
  161.3210  206.6260  151.7540 C   0  0  0  0  0  2  0  0  0  0  0  0
  160.9260  205.4380  151.0800 O   0  0  0  0  0  0  0  0  0  0  0  0
  160.8360  206.2160  147.0920 S   0  0  0  0  0  0  0  0  0  0  0  0
  161.5720  203.7290  147.8880 C   0  0  0  0  0  3  0  0  0  0  0  0
  162.0580  204.8650  147.0410 C   0  0  1  0  0  3  0  0  0  0  0  0
  160.6930  202.7510  149.9330 C   0  0  0  0  0  1  0  0  0  0  0  0
  160.9710  205.2950  149.6880 C   0  0  0  0  0  0  0  0  0  0  0  0
  160.9420  206.3680  148.8830 C   0  0  0  0  0  3  0  0  0  0  0  0
  161.0880  203.9320  149.1170 C   0  0  0  0  0  0  0  0  0  0  0  0
  161.1950  203.4610  145.2510 N   0  0  0  0  0  1  0  0  0  0  0  0
  162.2560  204.3850  145.6150 C   0  0  0  0  0  2  0  0  0  0  0  0
  160.0800  212.2310  153.2390 C   0  0  0  0  0  2  0  0  0  0  0  0
  158.7610  212.3720  152.4970 C   0  0  0  0  0  2  0  0  0  0  0  0
  159.0120  212.7020  151.0370 C   0  0  0  0  0  2  0  0  0  0  0  0
  158.2790  214.3210  149.1850 C   0  0  1  0  0  3  0  0  0  0  0  0
  157.1970  213.6570  149.7980 O   0  0  0  0  0  0  0  0  0  0  0  0
  158.2730  213.9810  150.6440 C   0  0  1  0  0  3  0  0  0  0  0  0
  160.4580  213.3510  148.3100 N   0  0  0  0  0  2  0  0  0  0  0  0
  158.3850  212.5810  147.5530 O   0  0  0  0  0  0  0  0  0  0  0  0
  159.0270  213.3720  148.2940 C   0  0  0  0  0  0  0  0  0  0  0  0
  161.2360  212.4450  147.4790 C   0  0  2  0  0  3  0  0  0  0  0  0
  161.9810  211.5820  148.2860 O   0  0  0  0  0  1  0  0  0  0  0  0
  162.1520  213.2270  146.5940 C   0  0  0  0  0  3  0  0  0  0  0  0
  162.3400  212.8890  145.4360 O   0  0  0  0  0  0  0  0  0  0  0  0
  1  8  1  0  0  0  0
  3  6  1  0  0  0  0
  3  2  1  0  0  0  0
  4  5  1  0  0  0  0
  5  6  2  0  0  0  0
  7  3  2  0  0  0  0
  8  4  2  0  0  0  0
  8  7  1  0  0  0  0
  9  7  1  0  0  0  0
 10  9  1  0  0  0  0
 11 10  1  0  0  0  0
 12 11  1  0  0  0  0
 13 18  1  0  0  0  0
 14 19  2  0  0  0  0
 15 21  1  6  0  0  0
 15 13  1  0  0  0  0
 15 14  1  0  0  0  0
 17 12  1  0  0  0  0
 18 17  2  0  0  0  0
 19 17  1  0  0  0  0
 19 16  1  0  0  0  0
 20 21  1  0  0  0  0
 22  4  1  0  0  0  0
 23 22  1  0  0  0  0
 24 23  1  0  0  0  0
 25 30  1  6  0  0  0
 25 26  1  0  0  0  0
 25 27  1  0  0  0  0
 26 27  1  0  0  0  0
 27 24  1  6  0  0  0
 29 30  2  0  0  0  0
 30 28  1  0  0  0  0
 31 32  1  1  0  0  0
 31 28  1  0  0  0  0
 33 31  1  0  0  0  0
 34 33  2  0  0  0  0
M  END
>  <MODEL>
6

>  <REMARK>
 VINA RESULT:      -6.6      2.730      7.647
  Name = 
  13 active torsions:
  status: ('A' for Active; 'I' for Inactive)
    1  A    between atoms: C_3  and  C_19
    2  A    between atoms: C_5  and  C_11
    3  A    between atoms: C_5  and  C_22
    4  A    between atoms: C_7  and  N_9
    5  A    between atoms: C_7  and  C_17
    6  A    between atoms: C_8  and  O_12
    7  A    between atoms: C_8  and  C_28
    8  A    between atoms: C_11  and  C_20
    9  A    between atoms: O_12  and  C_32
   10  A    between atoms: C_14  and  C_26
   11  A    between atoms: C_20  and  C_23
   12  A    between atoms: O_21  and  C_25
   13  A    between atoms: O_21  and  C_28
                            x       y       z     vdW  Elec       q    Type
                         _______ _______ _______ _____ _____    ______ ____

>  <TORSDO>
F 13

$$$$
=
 OpenBabel11042422293D

 34 36  0  0  1  0  0  0  0  0999 V2000
  161.2370  209.2810  150.9290 Cl  0  0  0  0  0  0  0  0  0  0  0  0
  160.5000  207.5170  156.1360 Cl  0  0  0  0  0  0  0  0  0  0  0  0
  160.8140  207.2570  154.4260 C   0  0  0  0  0  0  0  0  0  0  0  0
  161.5010  206.6690  151.7680 C   0  0  0  0  0  0  0  0  0  0  0  0
  161.4670  205.6580  152.7260 C   0  0  0  0  0  3  0  0  0  0  0  0
  161.1320  205.9510  154.0460 C   0  0  0  0  0  3  0  0  0  0  0  0
  160.8300  208.2980  153.4600 C   0  0  0  0  0  0  0  0  0  0  0  0
  161.1940  207.9930  152.1340 C   0  0  0  0  0  0  0  0  0  0  0  0
  160.5110  209.6330  153.7550 O   0  0  0  0  0  0  0  0  0  0  0  0
  161.4170  210.5800  154.2980 C   0  0  0  0  0  2  0  0  0  0  0  0
  160.8510  211.1380  155.5850 C   0  0  0  0  0  2  0  0  0  0  0  0
  160.2230  212.3860  155.3240 O   0  0  0  0  0  0  0  0  0  0  0  0
  156.1870  212.2650  155.7880 S   0  0  0  0  0  0  0  0  0  0  0  0
  157.1810  213.5590  153.6210 C   0  0  0  0  0  3  0  0  0  0  0  0
  156.2620  213.7830  154.7830 C   0  0  1  0  0  3  0  0  0  0  0  0
  159.2740  212.8680  152.5940 C   0  0  0  0  0  1  0  0  0  0  0  0
  158.8460  212.5200  155.1040 C   0  0  0  0  0  0  0  0  0  0  0  0
  157.9640  212.2600  156.0810 C   0  0  0  0  0  3  0  0  0  0  0  0
  158.3810  212.9920  153.7790 C   0  0  0  0  0  0  0  0  0  0  0  0
  154.8010  213.9110  152.8420 N   0  0  0  0  0  1  0  0  0  0  0  0
  154.8810  214.1490  154.2730 C   0  0  0  0  0  2  0  0  0  0  0  0
  161.8900  206.3200  150.3700 C   0  0  0  0  0  2  0  0  0  0  0  0
  160.7780  205.5340  149.6960 C   0  0  0  0  0  2  0  0  0  0  0  0
  161.2330  205.0380  148.3360 C   0  0  0  0  0  2  0  0  0  0  0  0
  161.7670  205.8540  145.9620 C   0  0  1  0  0  3  0  0  0  0  0  0
  160.4470  206.1450  146.3620 O   0  0  0  0  0  0  0  0  0  0  0  0
  161.4210  206.2110  147.3740 C   0  0  1  0  0  3  0  0  0  0  0  0
  160.7630  203.5310  145.7510 N   0  0  0  0  0  2  0  0  0  0  0  0
  163.0290  203.9260  145.3380 O   0  0  0  0  0  0  0  0  0  0  0  0
  161.9050  204.3880  145.6720 C   0  0  0  0  0  0  0  0  0  0  0  0
  160.8330  202.1050  145.4690 C   0  0  2  0  0  3  0  0  0  0  0  0
  159.6630  201.6880  144.8310 O   0  0  0  0  0  1  0  0  0  0  0  0
  161.0140  201.3430  146.7430 C   0  0  0  0  0  3  0  0  0  0  0  0
  160.4850  201.7210  147.7760 O   0  0  0  0  0  0  0  0  0  0  0  0
  1  8  1  0  0  0  0
  3  2  1  0  0  0  0
  4  8  2  0  0  0  0
  4  5  1  0  0  0  0
  5  6  2  0  0  0  0
  6  3  1  0  0  0  0
  7  9  1  0  0  0  0
  7  3  2  0  0  0  0
  8  7  1  0  0  0  0
  9 10  1  0  0  0  0
 10 11  1  0  0  0  0
 12 11  1  0  0  0  0
 13 18  1  0  0  0  0
 14 19  2  0  0  0  0
 14 15  1  0  0  0  0
 15 21  1  6  0  0  0
 15 13  1  0  0  0  0
 16 19  1  0  0  0  0
 17 12  1  0  0  0  0
 17 18  2  0  0  0  0
 19 17  1  0  0  0  0
 20 21  1  0  0  0  0
 22  4  1  0  0  0  0
 23 22  1  0  0  0  0
 24 23  1  0  0  0  0
 25 30  1  1  0  0  0
 25 26  1  0  0  0  0
 25 27  1  0  0  0  0
 26 27  1  0  0  0  0
 27 24  1  1  0  0  0
 29 30  2  0  0  0  0
 30 28  1  0  0  0  0
 31 32  1  1  0  0  0
 31 28  1  0  0  0  0
 31 33  1  0  0  0  0
 33 34  2  0  0  0  0
M  END
>  <MODEL>
7

>  <REMARK>
 VINA RESULT:      -6.6      3.533      4.922
  Name = 
  13 active torsions:
  status: ('A' for Active; 'I' for Inactive)
    1  A    between atoms: C_3  and  C_19
    2  A    between atoms: C_5  and  C_11
    3  A    between atoms: C_5  and  C_22
    4  A    between atoms: C_7  and  N_9
    5  A    between atoms: C_7  and  C_17
    6  A    between atoms: C_8  and  O_12
    7  A    between atoms: C_8  and  C_28
    8  A    between atoms: C_11  and  C_20
    9  A    between atoms: O_12  and  C_32
   10  A    between atoms: C_14  and  C_26
   11  A    between atoms: C_20  and  C_23
   12  A    between atoms: O_21  and  C_25
   13  A    between atoms: O_21  and  C_28
                            x       y       z     vdW  Elec       q    Type
                         _______ _______ _______ _____ _____    ______ ____

>  <TORSDO>
F 13

$$$$
=
 OpenBabel11042422293D

 34 36  0  0  1  0  0  0  0  0999 V2000
  160.8370  205.6450  150.6730 Cl  0  0  0  0  0  0  0  0  0  0  0  0
  161.2740  210.6960  152.9240 Cl  0  0  0  0  0  0  0  0  0  0  0  0
  161.5510  209.5250  151.6420 C   0  0  0  0  0  0  0  0  0  0  0  0
  161.9300  207.8450  149.4240 C   0  0  0  0  0  0  0  0  0  0  0  0
  162.3210  209.1820  149.3700 C   0  0  0  0  0  3  0  0  0  0  0  0
  162.1270  210.0160  150.4680 C   0  0  0  0  0  3  0  0  0  0  0  0
  161.1590  208.1620  151.7200 C   0  0  0  0  0  0  0  0  0  0  0  0
  161.3380  207.3350  150.5950 C   0  0  0  0  0  0  0  0  0  0  0  0
  160.5850  207.5860  152.8650 O   0  0  0  0  0  0  0  0  0  0  0  0
  161.3050  207.1930  154.0220 C   0  0  0  0  0  2  0  0  0  0  0  0
  160.3720  207.1700  155.2120 C   0  0  0  0  0  2  0  0  0  0  0  0
  160.7850  208.1510  156.1560 O   0  0  0  0  0  0  0  0  0  0  0  0
  158.5700  211.4930  155.4890 S   0  0  0  0  0  0  0  0  0  0  0  0
  160.8070  211.7300  157.0050 C   0  0  0  0  0  3  0  0  0  0  0  0
  159.3400  212.0290  157.0510 C   0  0  1  0  0  3  0  0  0  0  0  0
  162.7310  210.2870  156.6420 C   0  0  0  0  0  1  0  0  0  0  0  0
  160.3460  209.4810  156.1200 C   0  0  0  0  0  0  0  0  0  0  0  0
  159.1100  209.7880  155.7000 C   0  0  0  0  0  3  0  0  0  0  0  0
  161.2650  210.5440  156.5910 C   0  0  0  0  0  0  0  0  0  0  0  0
  160.3470  214.2390  156.9180 N   0  0  0  0  0  1  0  0  0  0  0  0
  159.1330  213.5170  157.2590 C   0  0  0  0  0  2  0  0  0  0  0  0
  162.1290  206.9900  148.2180 C   0  0  0  0  0  2  0  0  0  0  0  0
  160.8680  206.9780  147.3690 C   0  0  0  0  0  2  0  0  0  0  0  0
  160.7030  205.6300  146.6900 C   0  0  0  0  0  2  0  0  0  0  0  0
  162.0970  203.9700  145.3190 C   0  0  1  0  0  3  0  0  0  0  0  0
  161.3030  204.8160  144.5180 O   0  0  0  0  0  0  0  0  0  0  0  0
  161.8310  205.3970  145.6860 C   0  0  1  0  0  3  0  0  0  0  0  0
  161.2910  202.7940  147.4210 N   0  0  0  0  0  2  0  0  0  0  0  0
  160.4500  202.2410  145.3110 O   0  0  0  0  0  0  0  0  0  0  0  0
  161.2350  202.9460  145.9990 C   0  0  0  0  0  0  0  0  0  0  0  0
  160.4710  201.8280  148.1360 C   0  0  2  0  0  3  0  0  0  0  0  0
  160.1460  202.3250  149.4010 O   0  0  0  0  0  1  0  0  0  0  0  0
  161.2100  200.5360  148.2750 C   0  0  0  0  0  3  0  0  0  0  0  0
  161.6760  199.9760  147.2950 O   0  0  0  0  0  0  0  0  0  0  0  0
  3  7  1  0  0  0  0
  3  2  1  0  0  0  0
  4  8  1  0  0  0  0
  5  4  2  0  0  0  0
  5  6  1  0  0  0  0
  6  3  2  0  0  0  0
  7  9  1  0  0  0  0
  8  1  1  0  0  0  0
  8  7  2  0  0  0  0
  9 10  1  0  0  0  0
 10 11  1  0  0  0  0
 11 12  1  0  0  0  0
 13 18  1  0  0  0  0
 13 15  1  0  0  0  0
 14 15  1  0  0  0  0
 15 21  1  6  0  0  0
 17 12  1  0  0  0  0
 17 19  1  0  0  0  0
 18 17  2  0  0  0  0
 19 16  1  0  0  0  0
 19 14  2  0  0  0  0
 20 21  1  0  0  0  0
 22  4  1  0  0  0  0
 23 22  1  0  0  0  0
 24 23  1  0  0  0  0
 25 27  1  0  0  0  0
 25 30  1  1  0  0  0
 26 25  1  0  0  0  0
 26 27  1  0  0  0  0
 27 24  1  1  0  0  0
 28 31  1  0  0  0  0
 29 30  2  0  0  0  0
 30 28  1  0  0  0  0
 31 33  1  0  0  0  0
 31 32  1  1  0  0  0
 34 33  2  0  0  0  0
M  END
>  <MODEL>
8

>  <REMARK>
 VINA RESULT:      -6.5      4.232      6.555
  Name = 
  13 active torsions:
  status: ('A' for Active; 'I' for Inactive)
    1  A    between atoms: C_3  and  C_19
    2  A    between atoms: C_5  and  C_11
    3  A    between atoms: C_5  and  C_22
    4  A    between atoms: C_7  and  N_9
    5  A    between atoms: C_7  and  C_17
    6  A    between atoms: C_8  and  O_12
    7  A    between atoms: C_8  and  C_28
    8  A    between atoms: C_11  and  C_20
    9  A    between atoms: O_12  and  C_32
   10  A    between atoms: C_14  and  C_26
   11  A    between atoms: C_20  and  C_23
   12  A    between atoms: O_21  and  C_25
   13  A    between atoms: O_21  and  C_28
                            x       y       z     vdW  Elec       q    Type
                         _______ _______ _______ _____ _____    ______ ____

>  <TORSDO>
F 13

$$$$
=
 OpenBabel11042422293D

 34 36  0  0  1  0  0  0  0  0999 V2000
  160.5780  210.5610  151.9810 Cl  0  0  0  0  0  0  0  0  0  0  0  0
  161.2300  205.1620  153.0720 Cl  0  0  0  0  0  0  0  0  0  0  0  0
  161.0220  206.8400  153.5500 C   0  0  0  0  0  0  0  0  0  0  0  0
  160.5190  209.4360  154.4960 C   0  0  0  0  0  0  0  0  0  0  0  0
  160.6010  208.3660  155.3860 C   0  0  0  0  0  3  0  0  0  0  0  0
  160.8450  207.0780  154.9160 C   0  0  0  0  0  3  0  0  0  0  0  0
  160.9550  207.9210  152.6310 C   0  0  0  0  0  0  0  0  0  0  0  0
  160.6840  209.2140  153.1160 C   0  0  0  0  0  0  0  0  0  0  0  0
  161.1340  207.7700  151.2460 O   0  0  0  0  0  0  0  0  0  0  0  0
  162.2310  208.2860  150.5100 C   0  0  0  0  0  2  0  0  0  0  0  0
  161.9710  208.1130  149.0300 C   0  0  0  0  0  2  0  0  0  0  0  0
  162.5950  206.9190  148.5760 O   0  0  0  0  0  0  0  0  0  0  0  0
  160.9940  205.2360  145.2410 S   0  0  0  0  0  0  0  0  0  0  0  0
  161.2530  203.6850  147.4510 C   0  0  0  0  0  3  0  0  0  0  0  0
  161.6220  203.7040  145.9990 C   0  0  1  0  0  3  0  0  0  0  0  0
  161.1200  204.6420  149.6820 C   0  0  0  0  0  1  0  0  0  0  0  0
  161.9810  206.0220  147.6930 C   0  0  0  0  0  0  0  0  0  0  0  0
  161.9140  206.2860  146.3790 C   0  0  0  0  0  3  0  0  0  0  0  0
  161.4390  204.7540  148.2320 C   0  0  0  0  0  0  0  0  0  0  0  0
  160.5250  201.5530  146.3000 N   0  0  0  0  0  1  0  0  0  0  0  0
  161.0270  202.4900  145.3100 C   0  0  0  0  0  2  0  0  0  0  0  0
  160.2300  210.7970  155.0360 C   0  0  0  0  0  2  0  0  0  0  0  0
  159.1380  210.7220  156.0910 C   0  0  0  0  0  2  0  0  0  0  0  0
  157.8410  211.2930  155.5470 C   0  0  0  0  0  2  0  0  0  0  0  0
  156.9530  213.6120  156.1940 C   0  0  1  0  0  3  0  0  0  0  0  0
  155.9370  212.6410  156.0940 O   0  0  0  0  0  0  0  0  0  0  0  0
  157.1710  212.1850  156.5920 C   0  0  1  0  0  3  0  0  0  0  0  0
  156.5370  213.9770  153.7150 N   0  0  0  0  0  2  0  0  0  0  0  0
  158.6390  214.3450  154.6690 O   0  0  0  0  0  0  0  0  0  0  0  0
  157.4390  213.9920  154.8250 C   0  0  0  0  0  0  0  0  0  0  0  0
  156.9470  214.3470  152.3690 C   0  0  2  0  0  3  0  0  0  0  0  0
  155.8250  214.4530  151.5430 O   0  0  0  0  0  1  0  0  0  0  0  0
  157.8830  213.3190  151.8210 C   0  0  0  0  0  3  0  0  0  0  0  0
  158.0110  213.1700  150.6170 O   0  0  0  0  0  0  0  0  0  0  0  0
  1  8  1  0  0  0  0
  2  3  1  0  0  0  0
  3  6  1  0  0  0  0
  4 22  1  0  0  0  0
  4  5  1  0  0  0  0
  6  5  2  0  0  0  0
  7  8  1  0  0  0  0
  7  3  2  0  0  0  0
  8  4  2  0  0  0  0
  9  7  1  0  0  0  0
 10  9  1  0  0  0  0
 11 10  1  0  0  0  0
 12 11  1  0  0  0  0
 13 15  1  0  0  0  0
 13 18  1  0  0  0  0
 14 19  2  0  0  0  0
 15 21  1  6  0  0  0
 15 14  1  0  0  0  0
 17 19  1  0  0  0  0
 17 12  1  0  0  0  0
 18 17  2  0  0  0  0
 19 16  1  0  0  0  0
 21 20  1  0  0  0  0
 22 23  1  0  0  0  0
 24 23  1  0  0  0  0
 25 30  1  6  0  0  0
 25 27  1  0  0  0  0
 26 25  1  0  0  0  0
 26 27  1  0  0  0  0
 27 24  1  6  0  0  0
 28 30  1  0  0  0  0
 29 30  2  0  0  0  0
 31 32  1  6  0  0  0
 31 28  1  0  0  0  0
 33 31  1  0  0  0  0
 34 33  2  0  0  0  0
M  END
>  <MODEL>
9

>  <REMARK>
 VINA RESULT:      -6.5      3.566      8.578
  Name = 
  13 active torsions:
  status: ('A' for Active; 'I' for Inactive)
    1  A    between atoms: C_3  and  C_19
    2  A    between atoms: C_5  and  C_11
    3  A    between atoms: C_5  and  C_22
    4  A    between atoms: C_7  and  N_9
    5  A    between atoms: C_7  and  C_17
    6  A    between atoms: C_8  and  O_12
    7  A    between atoms: C_8  and  C_28
    8  A    between atoms: C_11  and  C_20
    9  A    between atoms: O_12  and  C_32
   10  A    between atoms: C_14  and  C_26
   11  A    between atoms: C_20  and  C_23
   12  A    between atoms: O_21  and  C_25
   13  A    between atoms: O_21  and  C_28
                            x       y       z     vdW  Elec       q    Type
                         _______ _______ _______ _____ _____    ______ ____

>  <TORSDO>
F 13

$$$$
