=
 OpenBabel11052411193D

 68 74  0  0  1  0  0  0  0  0999 V2000
  161.9370  210.0760  150.4940 C   0  0  0  0  0  3  0  0  0  0  0  0
  160.0040  208.7040  155.2230 N   0  0  0  0  0  0  0  0  0  0  0  0
  161.9250  206.8320  152.1780 F   0  0  0  0  0  0  0  0  0  0  0  0
  161.0430  210.9140  155.1110 C   0  0  0  0  0  0  0  0  0  0  0  0
  162.2020  208.7340  150.7710 C   0  0  0  0  0  0  0  0  0  0  0  0
  160.4440  208.2330  154.0910 C   0  0  0  0  0  3  0  0  0  0  0  0
  161.0150  210.3500  152.7160 C   0  0  0  0  0  0  0  0  0  0  0  0
  161.3230  210.8800  151.4580 C   0  0  0  0  0  0  0  0  0  0  0  0
  160.7520  211.2650  153.7730 N   0  0  0  0  0  2  0  0  0  0  0  0
  160.0310  210.0620  155.7870 C   0  0  1  0  0  3  0  0  0  0  0  0
  162.6140  210.7810  155.5790 S   0  0  0  0  0  0  0  0  0  0  0  0
  161.7350  208.1670  151.9670 C   0  0  0  0  0  0  0  0  0  0  0  0
  161.0800  208.9490  152.9390 C   0  0  0  0  0  0  0  0  0  0  0  0
  162.9980  208.0020  149.8860 O   0  0  0  0  0  0  0  0  0  0  0  0
  162.7960  208.0180  148.4810 C   0  0  0  0  0  2  0  0  0  0  0  0
  161.3470  207.7590  148.1480 C   0  0  0  0  0  2  0  0  0  0  0  0
  161.2680  206.6860  147.0720 C   0  0  0  0  0  2  0  0  0  0  0  0
  160.3640  205.5510  147.5490 C   0  0  0  0  0  2  0  0  0  0  0  0
  160.8200  205.0210  148.8320 N   0  0  0  0  0  0  0  0  0  0  0  0
  161.0730  203.0670  150.2730 C   0  0  1  0  0  3  0  0  0  0  0  0
  160.6830  203.6370  149.1540 C   0  0  0  0  0  0  0  0  0  0  0  0
  160.3170  201.4010  148.7740 N   0  0  0  0  0  0  0  0  0  0  0  0
  160.2000  202.6890  148.2860 O   0  0  0  0  0  0  0  0  0  0  0  0
  160.9290  201.5840  150.1060 C   0  0  2  0  0  3  0  0  0  0  0  0
  160.0110  201.0180  151.1700 C   0  0  0  0  0  1  0  0  0  0  0  0
  161.8450  203.7470  151.3430 C   0  0  0  0  0  2  0  0  0  0  0  0
  161.0310  203.8420  152.6060 C   0  0  0  0  0  1  0  0  0  0  0  0
  161.2770  200.7260  147.8930 C   0  0  0  0  0  2  0  0  0  0  0  0
  160.9450  200.9030  146.3980 C   0  0  0  0  0  0  0  0  0  0  0  0
  159.4810  201.2540  146.2600 C   0  0  0  0  0  1  0  0  0  0  0  0
  161.1830  199.6120  145.6310 C   0  0  0  0  0  1  0  0  0  0  0  0
  161.7270  201.9110  145.8320 O   0  0  0  0  0  1  0  0  0  0  0  0
  158.6280  210.7180  155.7870 C   0  0  0  0  0  2  0  0  0  0  0  0
  158.3060  213.2070  155.3880 C   0  0  2  0  0  0  0  0  0  0  0  0
  158.5580  211.8780  154.7760 C   0  0  2  0  0  3  0  0  0  0  0  0
  156.7940  212.4390  154.7190 S   0  0  0  0  0  0  0  0  0  0  0  0
  158.6390  214.3550  154.6650 O   0  0  0  0  0  1  0  0  0  0  0  0
  158.3150  213.3320  156.8410 N   0  0  0  0  0  1  0  0  0  0  0  0
  160.8850  212.5540  151.0080 S   0  0  0  0  0  0  0  0  0  0  0  0
  160.7130  211.4360  147.1160 C   0  0  0  0  0  3  0  0  0  0  0  0
  161.0890  212.5880  146.4390 C   0  0  0  0  0  0  0  0  0  0  0  0
  160.8070  211.3780  148.5060 C   0  0  0  0  0  3  0  0  0  0  0  0
  161.2750  212.4760  149.2470 C   0  0  0  0  0  0  0  0  0  0  0  0
  161.6650  213.6300  148.5630 C   0  0  0  0  0  3  0  0  0  0  0  0
  161.5650  213.6930  147.1670 C   0  0  0  0  0  3  0  0  0  0  0  0
  160.3740  214.2200  144.7090 N   0  0  1  0  0  0  0  0  0  0  0  0
  159.0240  213.7090  144.3920 C   0  0  2  0  0  0  0  0  0  0  0  0
  160.6010  212.8170  145.0550 C   0  0  2  0  0  3  0  0  0  0  0  0
  159.2850  212.4060  144.8500 O   0  0  0  0  0  0  0  0  0  0  0  0
  159.8460  214.3480  143.3380 C   0  0  2  0  0  3  0  0  0  0  0  0
  158.0700  214.4520  145.0940 O   0  0  0  0  0  1  0  0  0  0  0  0
  160.5050  213.3630  142.4110 C   0  0  0  0  0  3  0  0  0  0  0  0
  160.0290  213.1630  141.1780 C   0  0  0  0  0  3  0  0  0  0  0  0
  159.6740  211.6640  139.2510 C   0  0  0  0  0  0  0  0  0  0  0  0
  160.5320  212.1430  140.3050 N   0  0  0  0  0  0  0  0  0  0  0  0
  159.2580  212.4850  138.3900 O   0  0  0  0  0  0  0  0  0  0  0  0
  161.9910  212.1570  140.1010 C   0  0  1  0  0  3  0  0  0  0  0  0
  162.6280  211.0540  140.7230 O   0  0  0  0  0  1  0  0  0  0  0  0
  162.3240  212.3450  138.7290 O   0  0  0  0  0  0  0  0  0  0  0  0
  162.1060  213.6870  138.3690 C   0  0  0  0  0  1  0  0  0  0  0  0
  159.4500  210.1860  139.0900 C   0  0  1  0  0  3  0  0  0  0  0  0
  158.0930  209.9080  138.5010 C   0  0  0  0  0  0  0  0  0  0  0  0
  157.9750  209.1290  137.5650 O   0  0  0  0  0  0  0  0  0  0  0  0
  156.9050  210.6790  139.0070 C   0  0  2  0  0  3  0  0  0  0  0  0
  155.7100  209.7670  139.1630 C   0  0  0  0  0  1  0  0  0  0  0  0
  156.5820  211.7090  138.1540 F   0  0  0  0  0  0  0  0  0  0  0  0
  160.1850  208.5350  137.3730 C   0  0  0  0  0  2  0  0  0  0  0  0
  160.5150  209.4500  138.3140 C   0  0  0  0  0  3  0  0  0  0  0  0
  1  5  2  0  0  0  0
  1  8  1  0  0  0  0
  2 10  1  0  0  0  0
  4 11  2  0  0  0  0
  4 10  1  0  0  0  0
  5 12  1  0  0  0  0
  6  2  2  0  0  0  0
  7 13  1  0  0  0  0
  7  9  1  0  0  0  0
  8  7  2  0  0  0  0
  9  4  1  0  0  0  0
 10 33  1  6  0  0  0
 12  3  1  0  0  0  0
 12 13  2  0  0  0  0
 13  6  1  0  0  0  0
 14  5  1  0  0  0  0
 15 14  1  0  0  0  0
 16 15  1  0  0  0  0
 17 18  1  0  0  0  0
 17 16  1  0  0  0  0
 18 19  1  0  0  0  0
 19 21  2  0  0  0  0
 20 26  1  6  0  0  0
 21 20  1  0  0  0  0
 22 24  1  0  0  0  0
 23 22  1  0  0  0  0
 23 21  1  0  0  0  0
 24 20  1  0  0  0  0
 24 25  1  1  0  0  0
 26 27  1  0  0  0  0
 28 22  1  0  0  0  0
 29 28  1  0  0  0  0
 30 29  1  0  0  0  0
 31 29  1  0  0  0  0
 32 29  1  0  0  0  0
 34 37  1  6  0  0  0
 34 38  1  0  0  0  0
 35 34  1  0  0  0  0
 35 33  1  1  0  0  0
 36 35  1  0  0  0  0
 36 34  1  0  0  0  0
 39  8  1  0  0  0  0
 40 42  1  0  0  0  0
 41 40  2  0  0  0  0
 41 45  1  0  0  0  0
 42 43  2  0  0  0  0
 43 39  1  0  0  0  0
 44 43  1  0  0  0  0
 45 44  2  0  0  0  0
 46 48  1  0  0  0  0
 47 46  1  0  0  0  0
 47 49  1  0  0  0  0
 47 51  1  0  0  0  0
 48 41  1  0  0  0  0
 49 48  1  0  0  0  0
 50 47  1  0  0  0  0
 50 46  1  0  0  0  0
 52 50  1  0  0  0  0
 53 52  2  0  0  0  0
 54 55  1  0  0  0  0
 55 53  1  0  0  0  0
 56 54  2  0  0  0  0
 57 55  1  0  0  0  0
 57 58  1  0  0  0  0
 59 57  1  0  0  0  0
 60 59  1  0  0  0  0
 61 54  1  0  0  0  0
 62 64  1  0  0  0  0
 62 61  1  0  0  0  0
 63 62  2  0  0  0  0
 64 65  1  0  0  0  0
 66 64  1  0  0  0  0
 67 68  2  0  0  0  0
 68 61  1  0  0  0  0
M  END
>  <MODEL>
1

>  <REMARK>
 VINA RESULT:      -4.5      0.000      0.000
  Name = 
  23 active torsions:
  status: ('A' for Active; 'I' for Inactive)
    1  A    between atoms: C_1  and  C_18
    2  A    between atoms: O_6  and  C_53
    3  A    between atoms: C_7  and  C_9
    4  A    between atoms: C_7  and  C_60
    5  A    between atoms: C_8  and  C_38
    6  A    between atoms: C_9  and  C_44
    7  A    between atoms: C_11  and  C_59
    8  A    between atoms: C_12  and  C_28
    9  A    between atoms: C_15  and  C_17
   10  A    between atoms: C_17  and  C_18
   11  A    between atoms: C_17  and  C_51
   12  A    between atoms: C_21  and  C_45
   13  A    between atoms: C_22  and  S_68
   14  A    between atoms: O_23  and  C_40
   15  A    between atoms: O_23  and  C_60
   16  A    between atoms: C_24  and  C_29
   17  A    between atoms: C_26  and  N_43
   18  A    between atoms: C_29  and  C_56
   19  A    between atoms: C_36  and  N_41
   20  A    between atoms: N_37  and  C_59
   21  A    between atoms: N_41  and  C_44
   22  A    between atoms: N_43  and  C_53
   23  A    between atoms: C_52  and  S_68
                            x       y       z     vdW  Elec       q    Type
                         _______ _______ _______ _____ _____    ______ ____

>  <TORSDO>
F 23

$$$$
=
 OpenBabel11052411193D

 68 74  0  0  1  0  0  0  0  0999 V2000
  161.9680  210.2430  150.8030 C   0  0  0  0  0  3  0  0  0  0  0  0
  159.8660  208.9450  155.4800 N   0  0  0  0  0  0  0  0  0  0  0  0
  161.9540  207.0430  152.5680 F   0  0  0  0  0  0  0  0  0  0  0  0
  160.8600  211.1750  155.3540 C   0  0  0  0  0  0  0  0  0  0  0  0
  162.2500  208.9140  151.1250 C   0  0  0  0  0  0  0  0  0  0  0  0
  160.3640  208.4560  154.3790 C   0  0  0  0  0  3  0  0  0  0  0  0
  160.9470  210.5510  152.9760 C   0  0  0  0  0  0  0  0  0  0  0  0
  161.2970  211.0560  151.7190 C   0  0  0  0  0  0  0  0  0  0  0  0
  160.6190  211.4860  153.9970 N   0  0  0  0  0  2  0  0  0  0  0  0
  159.8390  210.3170  156.0100 C   0  0  1  0  0  3  0  0  0  0  0  0
  162.4120  211.0890  155.8920 S   0  0  0  0  0  0  0  0  0  0  0  0
  161.7440  208.3670  152.3140 C   0  0  0  0  0  0  0  0  0  0  0  0
  161.0320  209.1580  153.2370 C   0  0  0  0  0  0  0  0  0  0  0  0
  163.0980  208.1790  150.2930 O   0  0  0  0  0  0  0  0  0  0  0  0
  162.7960  207.9130  148.9320 C   0  0  0  0  0  2  0  0  0  0  0  0
  161.3440  207.5300  148.7740 C   0  0  0  0  0  2  0  0  0  0  0  0
  161.1740  206.7410  147.4850 C   0  0  0  0  0  2  0  0  0  0  0  0
  160.1770  205.6060  147.7090 C   0  0  0  0  0  2  0  0  0  0  0  0
  160.3190  205.0390  149.0490 N   0  0  0  0  0  2  0  0  0  0  0  0
  161.1010  203.0550  150.2350 C   0  0  0  0  0  0  0  0  0  0  0  0
  160.4500  203.6330  149.2490 C   0  0  0  0  0  0  0  0  0  0  0  0
  160.3750  201.4010  148.7100 N   0  0  0  0  0  0  0  0  0  0  0  0
  159.9820  202.6830  148.3740 O   0  0  0  0  0  0  0  0  0  0  0  0
  161.1610  201.5850  149.9470 C   0  0  2  0  0  3  0  0  0  0  0  0
  160.5270  200.7980  151.0750 C   0  0  0  0  0  1  0  0  0  0  0  0
  161.9240  203.7750  151.2400 C   0  0  0  0  0  2  0  0  0  0  0  0
  161.0450  204.4850  152.2350 C   0  0  0  0  0  1  0  0  0  0  0  0
  161.2690  200.9610  147.6330 C   0  0  0  0  0  2  0  0  0  0  0  0
  160.7720  201.3780  146.2340 C   0  0  0  0  0  0  0  0  0  0  0  0
  161.0620  200.2600  145.2590 C   0  0  0  0  0  1  0  0  0  0  0  0
  161.5020  202.6180  145.7440 C   0  0  0  0  0  1  0  0  0  0  0  0
  159.4010  201.6420  146.2530 O   0  0  0  0  0  1  0  0  0  0  0  0
  158.4230  210.9400  155.9340 C   0  0  0  0  0  2  0  0  0  0  0  0
  157.6490  212.6360  154.2060 C   0  0  2  0  0  0  0  0  0  0  0  0
  158.0190  211.2240  154.4740 C   0  0  2  0  0  3  0  0  0  0  0  0
  156.1990  211.5640  154.4740 S   0  0  0  0  0  0  0  0  0  0  0  0
  157.6820  213.1030  152.8890 O   0  0  0  0  0  1  0  0  0  0  0  0
  157.8500  213.6330  155.2510 N   0  0  0  0  0  1  0  0  0  0  0  0
  160.8410  212.7080  151.2080 S   0  0  0  0  0  0  0  0  0  0  0  0
  160.4770  211.5670  147.3360 C   0  0  0  0  0  3  0  0  0  0  0  0
  160.9850  212.6520  146.6370 C   0  0  0  0  0  0  0  0  0  0  0  0
  160.5820  211.5170  148.7250 C   0  0  0  0  0  3  0  0  0  0  0  0
  161.1950  212.5570  149.4440 C   0  0  0  0  0  0  0  0  0  0  0  0
  161.7170  213.6430  148.7370 C   0  0  0  0  0  3  0  0  0  0  0  0
  161.6070  213.6990  147.3420 C   0  0  0  0  0  3  0  0  0  0  0  0
  160.0530  214.2900  145.0200 N   0  0  1  0  0  0  0  0  0  0  0  0
  158.8250  213.5870  144.5950 C   0  0  2  0  0  0  0  0  0  0  0  0
  160.5120  212.9220  145.2550 C   0  0  2  0  0  3  0  0  0  0  0  0
  159.2960  212.3110  144.9510 O   0  0  0  0  0  0  0  0  0  0  0  0
  159.5570  214.4530  143.6410 C   0  0  2  0  0  3  0  0  0  0  0  0
  157.7320  214.0850  145.3090 O   0  0  0  0  0  1  0  0  0  0  0  0
  160.4090  213.6870  142.6660 C   0  0  0  0  0  3  0  0  0  0  0  0
  160.1610  213.7410  141.3540 C   0  0  0  0  0  3  0  0  0  0  0  0
  160.2110  212.6660  139.1330 C   0  0  0  0  0  0  0  0  0  0  0  0
  160.8530  212.9280  140.3970 N   0  0  0  0  0  0  0  0  0  0  0  0
  159.9090  213.6430  138.3950 O   0  0  0  0  0  0  0  0  0  0  0  0
  162.3240  213.0000  140.4590 C   0  0  1  0  0  3  0  0  0  0  0  0
  162.8480  212.2550  141.5450 O   0  0  0  0  0  1  0  0  0  0  0  0
  162.9140  212.7140  139.1960 O   0  0  0  0  0  0  0  0  0  0  0  0
  164.2650  213.1050  139.2040 C   0  0  0  0  0  1  0  0  0  0  0  0
  160.0870  211.2510  138.6430 C   0  0  1  0  0  3  0  0  0  0  0  0
  160.5810  210.2770  139.6790 C   0  0  0  0  0  0  0  0  0  0  0  0
  160.1790  210.3460  140.8320 O   0  0  0  0  0  0  0  0  0  0  0  0
  161.6520  209.2900  139.3020 C   0  0  2  0  0  3  0  0  0  0  0  0
  161.0340  207.9860  138.8520 C   0  0  0  0  0  1  0  0  0  0  0  0
  162.5000  209.0510  140.3580 F   0  0  0  0  0  0  0  0  0  0  0  0
  157.6230  211.5890  138.4720 C   0  0  0  0  0  2  0  0  0  0  0  0
  158.7130  210.8490  138.1650 C   0  0  0  0  0  3  0  0  0  0  0  0
  1  5  2  0  0  0  0
  1  8  1  0  0  0  0
  2 10  1  0  0  0  0
  4 11  2  0  0  0  0
  4 10  1  0  0  0  0
  5 12  1  0  0  0  0
  6  2  2  0  0  0  0
  7 13  1  0  0  0  0
  7  9  1  0  0  0  0
  8  7  2  0  0  0  0
  9  4  1  0  0  0  0
 10 33  1  6  0  0  0
 12  3  1  0  0  0  0
 12 13  2  0  0  0  0
 13  6  1  0  0  0  0
 14  5  1  0  0  0  0
 15 14  1  0  0  0  0
 16 15  1  0  0  0  0
 17 18  1  0  0  0  0
 17 16  1  0  0  0  0
 18 19  1  0  0  0  0
 19 21  1  0  0  0  0
 20 26  1  0  0  0  0
 21 20  2  0  0  0  0
 22 24  1  0  0  0  0
 23 22  1  0  0  0  0
 23 21  1  0  0  0  0
 24 20  1  0  0  0  0
 24 25  1  1  0  0  0
 26 27  1  0  0  0  0
 28 22  1  0  0  0  0
 29 32  1  0  0  0  0
 29 28  1  0  0  0  0
 30 29  1  0  0  0  0
 31 29  1  0  0  0  0
 34 37  1  6  0  0  0
 34 35  1  0  0  0  0
 34 36  1  0  0  0  0
 34 38  1  0  0  0  0
 35 36  1  0  0  0  0
 35 33  1  1  0  0  0
 39  8  1  0  0  0  0
 40 42  1  0  0  0  0
 41 40  2  0  0  0  0
 41 45  1  0  0  0  0
 42 43  2  0  0  0  0
 43 39  1  0  0  0  0
 44 43  1  0  0  0  0
 45 44  2  0  0  0  0
 46 48  1  0  0  0  0
 47 49  1  0  0  0  0
 47 46  1  0  0  0  0
 47 51  1  0  0  0  0
 48 41  1  0  0  0  0
 49 48  1  0  0  0  0
 50 47  1  0  0  0  0
 50 46  1  0  0  0  0
 52 50  1  0  0  0  0
 53 52  2  0  0  0  0
 54 55  1  0  0  0  0
 55 57  1  0  0  0  0
 55 53  1  0  0  0  0
 56 54  2  0  0  0  0
 57 58  1  0  0  0  0
 59 60  1  0  0  0  0
 59 57  1  0  0  0  0
 61 54  1  0  0  0  0
 61 62  1  0  0  0  0
 62 63  2  0  0  0  0
 64 62  1  0  0  0  0
 64 66  1  0  0  0  0
 65 64  1  0  0  0  0
 68 67  2  0  0  0  0
 68 61  1  0  0  0  0
M  END
>  <MODEL>
2

>  <REMARK>
 VINA RESULT:      -4.3      1.333      1.732
  Name = 
  23 active torsions:
  status: ('A' for Active; 'I' for Inactive)
    1  A    between atoms: C_1  and  C_18
    2  A    between atoms: O_6  and  C_53
    3  A    between atoms: C_7  and  C_9
    4  A    between atoms: C_7  and  C_60
    5  A    between atoms: C_8  and  C_38
    6  A    between atoms: C_9  and  C_44
    7  A    between atoms: C_11  and  C_59
    8  A    between atoms: C_12  and  C_28
    9  A    between atoms: C_15  and  C_17
   10  A    between atoms: C_17  and  C_18
   11  A    between atoms: C_17  and  C_51
   12  A    between atoms: C_21  and  C_45
   13  A    between atoms: C_22  and  S_68
   14  A    between atoms: O_23  and  C_40
   15  A    between atoms: O_23  and  C_60
   16  A    between atoms: C_24  and  C_29
   17  A    between atoms: C_26  and  N_43
   18  A    between atoms: C_29  and  C_56
   19  A    between atoms: C_36  and  N_41
   20  A    between atoms: N_37  and  C_59
   21  A    between atoms: N_41  and  C_44
   22  A    between atoms: N_43  and  C_53
   23  A    between atoms: C_52  and  S_68
                            x       y       z     vdW  Elec       q    Type
                         _______ _______ _______ _____ _____    ______ ____

>  <TORSDO>
F 23

$$$$
=
 OpenBabel11052411193D

 68 74  0  0  1  0  0  0  0  0999 V2000
  161.6020  211.5920  149.9060 C   0  0  0  0  0  3  0  0  0  0  0  0
  157.7400  214.4520  152.1170 N   0  0  0  0  0  0  0  0  0  0  0  0
  159.3240  214.0260  148.4060 F   0  0  0  0  0  0  0  0  0  0  0  0
  157.9810  212.1720  152.9660 C   0  0  0  0  0  0  0  0  0  0  0  0
  160.9370  212.3590  148.9470 C   0  0  0  0  0  0  0  0  0  0  0  0
  158.4840  214.3350  151.0540 C   0  0  0  0  0  3  0  0  0  0  0  0
  160.0100  212.3130  151.5820 C   0  0  0  0  0  0  0  0  0  0  0  0
  161.1530  211.5860  151.2280 C   0  0  0  0  0  0  0  0  0  0  0  0
  159.3740  211.9880  152.8120 N   0  0  0  0  0  2  0  0  0  0  0  0
  157.5450  213.5600  153.2700 C   0  0  1  0  0  3  0  0  0  0  0  0
  156.9490  211.1920  152.1430 S   0  0  0  0  0  0  0  0  0  0  0  0
  159.9010  213.2180  149.3430 C   0  0  0  0  0  0  0  0  0  0  0  0
  159.4540  213.2570  150.6790 C   0  0  0  0  0  0  0  0  0  0  0  0
  161.2660  212.1950  147.5990 O   0  0  0  0  0  0  0  0  0  0  0  0
  162.4440  212.7410  147.0250 C   0  0  0  0  0  2  0  0  0  0  0  0
  162.1040  213.6140  145.8410 C   0  0  0  0  0  2  0  0  0  0  0  0
  163.1160  213.3670  144.7330 C   0  0  0  0  0  2  0  0  0  0  0  0
  162.4650  213.6340  143.3780 C   0  0  0  0  0  2  0  0  0  0  0  0
  162.3810  212.4100  142.5850 N   0  0  0  0  0  2  0  0  0  0  0  0
  161.9180  212.4380  140.1880 C   0  0  0  0  0  0  0  0  0  0  0  0
  161.5330  212.3240  141.4410 C   0  0  0  0  0  0  0  0  0  0  0  0
  159.5590  212.3000  140.2650 N   0  0  0  0  0  0  0  0  0  0  0  0
  160.1670  212.1980  141.5020 O   0  0  0  0  0  0  0  0  0  0  0  0
  160.6880  212.4930  139.3330 C   0  0  2  0  0  3  0  0  0  0  0  0
  160.7030  211.3730  138.3120 C   0  0  0  0  0  1  0  0  0  0  0  0
  163.2900  212.8090  139.7580 C   0  0  0  0  0  2  0  0  0  0  0  0
  163.4880  214.2990  139.8430 C   0  0  0  0  0  1  0  0  0  0  0  0
  158.7590  213.5290  140.3120 C   0  0  0  0  0  2  0  0  0  0  0  0
  157.3330  213.3370  139.7610 C   0  0  0  0  0  0  0  0  0  0  0  0
  157.2620  212.0130  139.0350 C   0  0  0  0  0  1  0  0  0  0  0  0
  156.9820  214.4290  138.7630 C   0  0  0  0  0  1  0  0  0  0  0  0
  156.3940  213.3570  140.7950 O   0  0  0  0  0  1  0  0  0  0  0  0
  158.2180  214.1120  154.5510 C   0  0  0  0  0  2  0  0  0  0  0  0
  156.9450  212.7270  156.2600 C   0  0  2  0  0  0  0  0  0  0  0  0
  158.2650  213.0410  155.6580 C   0  0  2  0  0  3  0  0  0  0  0  0
  157.9160  213.9040  157.2590 S   0  0  0  0  0  0  0  0  0  0  0  0
  156.7860  211.5160  156.9400 O   0  0  0  0  0  1  0  0  0  0  0  0
  155.7410  213.3010  155.6710 N   0  0  0  0  0  1  0  0  0  0  0  0
  162.1150  210.6950  152.4440 S   0  0  0  0  0  0  0  0  0  0  0  0
  160.2840  207.4970  150.7550 C   0  0  0  0  0  3  0  0  0  0  0  0
  160.7260  206.4340  151.5290 C   0  0  0  0  0  0  0  0  0  0  0  0
  160.5770  208.8080  151.1320 C   0  0  0  0  0  3  0  0  0  0  0  0
  161.3240  209.0800  152.2900 C   0  0  0  0  0  0  0  0  0  0  0  0
  161.7580  208.0080  153.0750 C   0  0  0  0  0  3  0  0  0  0  0  0
  161.4700  206.6910  152.6950 C   0  0  0  0  0  3  0  0  0  0  0  0
  160.2220  204.0130  151.7580 N   0  0  1  0  0  0  0  0  0  0  0  0
  161.5730  203.4360  151.5970 C   0  0  2  0  0  0  0  0  0  0  0  0
  160.8000  205.0750  150.9350 C   0  0  2  0  0  3  0  0  0  0  0  0
  162.0880  204.5460  150.9050 O   0  0  0  0  0  0  0  0  0  0  0  0
  160.3830  202.6970  151.1140 C   0  0  2  0  0  3  0  0  0  0  0  0
  162.1150  203.1610  152.8560 O   0  0  0  0  0  1  0  0  0  0  0  0
  160.1780  202.7950  149.6270 C   0  0  0  0  0  3  0  0  0  0  0  0
  161.1100  202.3490  148.7790 C   0  0  0  0  0  3  0  0  0  0  0  0
  161.5890  203.7440  146.8000 C   0  0  0  0  0  0  0  0  0  0  0  0
  161.0270  202.5400  147.3600 N   0  0  0  0  0  0  0  0  0  0  0  0
  162.8180  203.9710  146.9680 O   0  0  0  0  0  0  0  0  0  0  0  0
  161.0240  201.3030  146.5600 C   0  0  1  0  0  3  0  0  0  0  0  0
  161.4810  200.1860  147.3030 O   0  0  0  0  0  1  0  0  0  0  0  0
  159.7780  201.1130  145.8980 O   0  0  0  0  0  0  0  0  0  0  0  0
  159.9990  200.5870  144.6130 C   0  0  0  0  0  1  0  0  0  0  0  0
  160.7570  204.5940  145.8820 C   0  0  1  0  0  3  0  0  0  0  0  0
  161.2750  206.0070  145.8390 C   0  0  0  0  0  0  0  0  0  0  0  0
  161.8650  206.4170  144.8480 O   0  0  0  0  0  0  0  0  0  0  0  0
  161.1530  206.8680  147.0660 C   0  0  2  0  0  3  0  0  0  0  0  0
  162.4510  206.8720  147.8400 C   0  0  0  0  0  1  0  0  0  0  0  0
  160.1380  206.4270  147.8810 F   0  0  0  0  0  0  0  0  0  0  0  0
  159.4550  204.2930  143.7770 C   0  0  0  0  0  2  0  0  0  0  0  0
  160.5870  204.0600  144.4810 C   0  0  0  0  0  3  0  0  0  0  0  0
  1  8  1  0  0  0  0
  2 10  1  0  0  0  0
  3 12  1  0  0  0  0
  4 10  1  0  0  0  0
  5 12  1  0  0  0  0
  5  1  2  0  0  0  0
  6  2  2  0  0  0  0
  7  9  1  0  0  0  0
  8  7  2  0  0  0  0
  8 39  1  0  0  0  0
  9  4  1  0  0  0  0
 10 33  1  1  0  0  0
 11  4  2  0  0  0  0
 12 13  2  0  0  0  0
 13  6  1  0  0  0  0
 13  7  1  0  0  0  0
 14  5  1  0  0  0  0
 15 14  1  0  0  0  0
 16 15  1  0  0  0  0
 17 16  1  0  0  0  0
 18 17  1  0  0  0  0
 19 18  1  0  0  0  0
 20 21  2  0  0  0  0
 21 23  1  0  0  0  0
 21 19  1  0  0  0  0
 22 28  1  0  0  0  0
 22 23  1  0  0  0  0
 24 25  1  6  0  0  0
 24 20  1  0  0  0  0
 24 22  1  0  0  0  0
 26 27  1  0  0  0  0
 26 20  1  0  0  0  0
 29 28  1  0  0  0  0
 29 32  1  0  0  0  0
 30 29  1  0  0  0  0
 31 29  1  0  0  0  0
 34 38  1  6  0  0  0
 34 37  1  0  0  0  0
 34 36  1  0  0  0  0
 35 33  1  6  0  0  0
 35 34  1  0  0  0  0
 35 36  1  0  0  0  0
 40 42  2  0  0  0  0
 40 41  1  0  0  0  0
 41 45  2  0  0  0  0
 42 43  1  0  0  0  0
 43 39  1  0  0  0  0
 43 44  2  0  0  0  0
 45 44  1  0  0  0  0
 47 46  1  0  0  0  0
 47 51  1  0  0  0  0
 48 41  1  0  0  0  0
 48 46  1  0  0  0  0
 49 48  1  0  0  0  0
 49 47  1  0  0  0  0
 50 47  1  0  0  0  0
 50 46  1  0  0  0  0
 52 50  1  0  0  0  0
 53 52  2  0  0  0  0
 54 56  2  0  0  0  0
 54 55  1  0  0  0  0
 55 53  1  0  0  0  0
 57 58  1  0  0  0  0
 57 55  1  0  0  0  0
 59 57  1  0  0  0  0
 60 59  1  0  0  0  0
 61 54  1  0  0  0  0
 62 61  1  0  0  0  0
 62 64  1  0  0  0  0
 63 62  2  0  0  0  0
 64 65  1  0  0  0  0
 64 66  1  0  0  0  0
 67 68  2  0  0  0  0
 68 61  1  0  0  0  0
M  END
>  <MODEL>
3

>  <REMARK>
 VINA RESULT:      -1.8      2.713     10.046
  Name = 
  23 active torsions:
  status: ('A' for Active; 'I' for Inactive)
    1  A    between atoms: C_1  and  C_18
    2  A    between atoms: O_6  and  C_53
    3  A    between atoms: C_7  and  C_9
    4  A    between atoms: C_7  and  C_60
    5  A    between atoms: C_8  and  C_38
    6  A    between atoms: C_9  and  C_44
    7  A    between atoms: C_11  and  C_59
    8  A    between atoms: C_12  and  C_28
    9  A    between atoms: C_15  and  C_17
   10  A    between atoms: C_17  and  C_18
   11  A    between atoms: C_17  and  C_51
   12  A    between atoms: C_21  and  C_45
   13  A    between atoms: C_22  and  S_68
   14  A    between atoms: O_23  and  C_40
   15  A    between atoms: O_23  and  C_60
   16  A    between atoms: C_24  and  C_29
   17  A    between atoms: C_26  and  N_43
   18  A    between atoms: C_29  and  C_56
   19  A    between atoms: C_36  and  N_41
   20  A    between atoms: N_37  and  C_59
   21  A    between atoms: N_41  and  C_44
   22  A    between atoms: N_43  and  C_53
   23  A    between atoms: C_52  and  S_68
                            x       y       z     vdW  Elec       q    Type
                         _______ _______ _______ _____ _____    ______ ____

>  <TORSDO>
F 23

$$$$
