=
 OpenBabel11042421093D

 28 31  0  0  1  0  0  0  0  0999 V2000
  161.1500  205.4370  153.2050 C   0  0  0  0  0  3  0  0  0  0  0  0
  161.4850  210.8200  153.2500 N   0  0  0  0  0  1  0  0  0  0  0  0
  161.2870  207.5720  152.0260 C   0  0  0  0  0  0  0  0  0  0  0  0
  161.1970  206.1790  152.0210 C   0  0  0  0  0  0  0  0  0  0  0  0
  161.4080  209.6020  151.1420 N   0  0  0  0  0  0  0  0  0  0  0  0
  160.9770  203.3950  151.9130 C   0  0  0  0  0  3  0  0  0  0  0  0
  161.1480  205.5240  150.7600 C   0  0  0  0  0  0  0  0  0  0  0  0
  161.4110  209.6140  152.4990 C   0  0  0  0  0  0  0  0  0  0  0  0
  161.2060  206.2840  149.5580 C   0  0  0  0  0  0  0  0  0  0  0  0
  161.3270  208.2920  150.8710 C   0  0  0  0  0  0  0  0  0  0  0  0
  160.9060  203.4340  149.4070 C   0  0  0  0  0  0  0  0  0  0  0  0
  161.2240  205.6110  148.2070 C   0  0  2  0  0  3  0  0  0  0  0  0
  161.3380  208.3930  153.0870 N   0  0  0  0  0  2  0  0  0  0  0  0
  161.2940  207.6890  149.6170 C   0  0  0  0  0  3  0  0  0  0  0  0
  161.0250  204.1220  150.7130 C   0  0  0  0  0  0  0  0  0  0  0  0
  161.0440  204.0470  153.1480 C   0  0  0  0  0  3  0  0  0  0  0  0
  160.9700  204.1270  148.2670 C   0  0  0  0  0  3  0  0  0  0  0  0
  160.5010  200.8720  149.2720 N   0  0  0  0  0  0  0  0  0  0  0  0
  160.6810  202.0130  149.3320 C   0  0  0  0  0  0  0  0  0  0  0  0
  162.4520  205.8410  147.5800 O   0  0  0  0  0  0  0  0  0  0  0  0
  162.1250  206.2580  146.2880 C   0  0  0  0  0  2  0  0  0  0  0  0
  162.2500  205.0890  145.3340 C   0  0  0  0  0  2  0  0  0  0  0  0
  159.2170  203.5620  143.9910 O   0  0  0  0  0  0  0  0  0  0  0  0
  160.8280  202.5420  145.3370 N   0  0  0  0  0  2  0  0  0  0  0  0
  160.3010  203.6630  144.6240 C   0  0  0  0  0  0  0  0  0  0  0  0
  160.9970  204.9090  144.6230 N   0  0  0  0  0  2  0  0  0  0  0  0
  160.1500  201.2580  145.3620 C   0  0  0  0  0  2  0  0  0  0  0  0
  161.0760  200.2100  145.9430 C   0  0  0  0  0  1  0  0  0  0  0  0
  3 13  1  0  0  0  0
  4  3  1  0  0  0  0
  4  1  2  0  0  0  0
  5  8  2  0  0  0  0
  6 16  2  0  0  0  0
  7  4  1  0  0  0  0
  8 13  1  0  0  0  0
  8  2  1  0  0  0  0
  9 14  2  0  0  0  0
  9  7  1  0  0  0  0
 10  5  1  0  0  0  0
 10  3  2  0  0  0  0
 11 15  1  0  0  0  0
 12 20  1  1  0  0  0
 12 17  1  0  0  0  0
 12  9  1  0  0  0  0
 14 10  1  0  0  0  0
 15  7  2  0  0  0  0
 15  6  1  0  0  0  0
 16  1  1  0  0  0  0
 17 11  2  0  0  0  0
 18 19  3  0  0  0  0
 19 11  1  0  0  0  0
 21 20  1  0  0  0  0
 22 21  1  0  0  0  0
 23 25  2  0  0  0  0
 24 27  1  0  0  0  0
 25 24  1  0  0  0  0
 26 25  1  0  0  0  0
 26 22  1  0  0  0  0
 27 28  1  0  0  0  0
M  END
>  <MODEL>
1

>  <REMARK>
 VINA RESULT:      -8.7      0.000      0.000
  Name = 
  6 active torsions:
  status: ('A' for Active; 'I' for Inactive)
    1  A    between atoms: C_3  and  N_5
    2  A    between atoms: C_11  and  C_14
    3  A    between atoms: C_11  and  N_22
    4  A    between atoms: C_14  and  O_15
    5  A    between atoms: O_15  and  C_23
    6  A    between atoms: C_16  and  C_21
                            x       y       z     vdW  Elec       q    Type
                         _______ _______ _______ _____ _____    ______ ____

>  <TORSDO>
F 6

$$$$
=
 OpenBabel11042421093D

 28 31  0  0  1  0  0  0  0  0999 V2000
  161.3080  206.9690  147.7790 C   0  0  0  0  0  3  0  0  0  0  0  0
  162.3630  212.2110  148.4850 N   0  0  0  0  0  1  0  0  0  0  0  0
  161.7880  208.8660  149.2390 C   0  0  0  0  0  0  0  0  0  0  0  0
  161.5180  207.5110  149.0500 C   0  0  0  0  0  0  0  0  0  0  0  0
  162.2400  210.7050  150.3950 N   0  0  0  0  0  0  0  0  0  0  0  0
  161.0220  204.7740  148.7630 C   0  0  0  0  0  3  0  0  0  0  0  0
  161.4660  206.6790  150.2020 C   0  0  2  0  0  3  0  0  0  0  0  0
  162.1660  210.9240  149.0580 C   0  0  0  0  0  0  0  0  0  0  0  0
  161.6710  207.2370  151.4960 C   0  0  0  0  0  0  0  0  0  0  0  0
  161.9970  209.3890  150.4800 C   0  0  0  0  0  0  0  0  0  0  0  0
  161.2380  204.4120  151.2350 C   0  0  0  0  0  0  0  0  0  0  0  0
  161.5550  206.3910  152.7400 C   0  0  0  0  0  0  0  0  0  0  0  0
  161.8910  209.8270  148.3070 N   0  0  0  0  0  2  0  0  0  0  0  0
  161.9430  208.6120  151.6330 C   0  0  0  0  0  3  0  0  0  0  0  0
  161.2280  205.2990  150.0490 C   0  0  0  0  0  0  0  0  0  0  0  0
  161.0560  205.6040  147.6380 C   0  0  0  0  0  3  0  0  0  0  0  0
  161.4170  204.9170  152.4580 C   0  0  0  0  0  3  0  0  0  0  0  0
  160.9800  201.8390  150.9880 N   0  0  0  0  0  0  0  0  0  0  0  0
  161.0950  202.9850  151.0990 C   0  0  0  0  0  0  0  0  0  0  0  0
  160.4640  206.8170  153.5020 O   0  0  0  0  0  0  0  0  0  0  0  0
  160.8560  206.6310  154.8290 C   0  0  0  0  0  2  0  0  0  0  0  0
  160.3950  207.8090  155.6610 C   0  0  0  0  0  2  0  0  0  0  0  0
  162.4550  210.7970  155.2560 O   0  0  0  0  0  0  0  0  0  0  0  0
  160.3990  210.3580  154.2420 N   0  0  0  0  0  2  0  0  0  0  0  0
  161.4860  210.0080  155.1020 C   0  0  0  0  0  0  0  0  0  0  0  0
  161.4830  208.7600  155.7960 N   0  0  0  0  0  2  0  0  0  0  0  0
  160.3650  211.6170  153.5190 C   0  0  0  0  0  2  0  0  0  0  0  0
  159.1860  211.6210  152.5680 C   0  0  0  0  0  1  0  0  0  0  0  0
  1  4  1  0  0  0  0
  2  8  1  0  0  0  0
  3 10  1  0  0  0  0
  4  3  2  0  0  0  0
  5 10  1  0  0  0  0
  6 15  2  0  0  0  0
  7  4  1  6  0  0  0
  7  9  1  0  0  0  0
  8  5  2  0  0  0  0
  9 14  1  0  0  0  0
  9 12  2  0  0  0  0
 10 14  2  0  0  0  0
 11 17  2  0  0  0  0
 12 20  1  0  0  0  0
 13  8  1  0  0  0  0
 13  3  1  0  0  0  0
 15  7  1  0  0  0  0
 15 11  1  0  0  0  0
 16  1  2  0  0  0  0
 16  6  1  0  0  0  0
 17 12  1  0  0  0  0
 18 19  3  0  0  0  0
 19 11  1  0  0  0  0
 20 21  1  0  0  0  0
 21 22  1  0  0  0  0
 22 26  1  0  0  0  0
 24 25  1  0  0  0  0
 25 23  2  0  0  0  0
 25 26  1  0  0  0  0
 27 24  1  0  0  0  0
 28 27  1  0  0  0  0
M  END
>  <MODEL>
2

>  <REMARK>
 VINA RESULT:      -8.7      3.396      7.165
  Name = 
  6 active torsions:
  status: ('A' for Active; 'I' for Inactive)
    1  A    between atoms: C_3  and  N_5
    2  A    between atoms: C_11  and  C_14
    3  A    between atoms: C_11  and  N_22
    4  A    between atoms: C_14  and  O_15
    5  A    between atoms: O_15  and  C_23
    6  A    between atoms: C_16  and  C_21
                            x       y       z     vdW  Elec       q    Type
                         _______ _______ _______ _____ _____    ______ ____

>  <TORSDO>
F 6

$$$$
=
 OpenBabel11042421093D

 28 31  0  0  1  0  0  0  0  0999 V2000
  161.1230  204.3440  152.8340 C   0  0  0  0  0  3  0  0  0  0  0  0
  160.5890  208.2880  156.4730 N   0  0  0  0  0  1  0  0  0  0  0  0
  160.9430  206.7140  153.3930 C   0  0  0  0  0  0  0  0  0  0  0  0
  161.0790  205.6890  152.4570 C   0  0  0  0  0  0  0  0  0  0  0  0
  160.7570  208.8080  154.0990 N   0  0  0  0  0  0  0  0  0  0  0  0
  161.3110  203.7000  150.5060 C   0  0  0  0  0  3  0  0  0  0  0  0
  161.1640  206.0520  151.0850 C   0  0  2  0  0  3  0  0  0  0  0  0
  160.7270  207.9040  155.1100 C   0  0  0  0  0  0  0  0  0  0  0  0
  161.1280  207.4240  150.7060 C   0  0  0  0  0  0  0  0  0  0  0  0
  160.8940  208.0230  153.0210 C   0  0  0  0  0  0  0  0  0  0  0  0
  161.2920  205.4080  148.6710 C   0  0  0  0  0  0  0  0  0  0  0  0
  161.2840  207.8430  149.2650 C   0  0  0  0  0  0  0  0  0  0  0  0
  160.8380  206.6060  154.7280 N   0  0  0  0  0  2  0  0  0  0  0  0
  160.9870  208.4220  151.6910 C   0  0  0  0  0  3  0  0  0  0  0  0
  161.2690  205.0450  150.1070 C   0  0  0  0  0  0  0  0  0  0  0  0
  161.2440  203.3530  151.8590 C   0  0  0  0  0  3  0  0  0  0  0  0
  161.2700  206.6890  148.2950 C   0  0  0  0  0  3  0  0  0  0  0  0
  161.3070  203.5810  146.8250 N   0  0  0  0  0  0  0  0  0  0  0  0
  161.3000  204.3950  147.6470 C   0  0  0  0  0  0  0  0  0  0  0  0
  162.4730  208.5600  149.1070 O   0  0  0  0  0  0  0  0  0  0  0  0
  162.1340  209.6480  148.3000 C   0  0  0  0  0  2  0  0  0  0  0  0
  162.1270  210.9120  149.1340 C   0  0  0  0  0  2  0  0  0  0  0  0
  162.2640  213.6830  146.7590 O   0  0  0  0  0  0  0  0  0  0  0  0
  160.4100  212.3620  147.2740 N   0  0  0  0  0  2  0  0  0  0  0  0
  161.7830  212.7300  147.4260 C   0  0  0  0  0  0  0  0  0  0  0  0
  162.6230  212.0190  148.3360 N   0  0  0  0  0  2  0  0  0  0  0  0
  159.5230  213.0590  146.3590 C   0  0  0  0  0  2  0  0  0  0  0  0
  159.4680  212.3120  145.0420 C   0  0  0  0  0  1  0  0  0  0  0  0
  3 13  1  0  0  0  0
  4  1  1  0  0  0  0
  4  3  2  0  0  0  0
  5  8  2  0  0  0  0
  6 16  1  0  0  0  0
  7 15  1  6  0  0  0
  7  4  1  0  0  0  0
  8  2  1  0  0  0  0
  9  7  1  0  0  0  0
  9 14  1  0  0  0  0
 10  3  1  0  0  0  0
 10  5  1  0  0  0  0
 11 15  1  0  0  0  0
 12  9  2  0  0  0  0
 13  8  1  0  0  0  0
 14 10  2  0  0  0  0
 15  6  2  0  0  0  0
 16  1  2  0  0  0  0
 17 11  2  0  0  0  0
 17 12  1  0  0  0  0
 18 19  3  0  0  0  0
 19 11  1  0  0  0  0
 20 12  1  0  0  0  0
 21 20  1  0  0  0  0
 21 22  1  0  0  0  0
 23 25  2  0  0  0  0
 24 25  1  0  0  0  0
 25 26  1  0  0  0  0
 26 22  1  0  0  0  0
 27 24  1  0  0  0  0
 28 27  1  0  0  0  0
M  END
>  <MODEL>
3

>  <REMARK>
 VINA RESULT:      -8.5      3.206      5.510
  Name = 
  6 active torsions:
  status: ('A' for Active; 'I' for Inactive)
    1  A    between atoms: C_3  and  N_5
    2  A    between atoms: C_11  and  C_14
    3  A    between atoms: C_11  and  N_22
    4  A    between atoms: C_14  and  O_15
    5  A    between atoms: O_15  and  C_23
    6  A    between atoms: C_16  and  C_21
                            x       y       z     vdW  Elec       q    Type
                         _______ _______ _______ _____ _____    ______ ____

>  <TORSDO>
F 6

$$$$
=
 OpenBabel11042421093D

 28 31  0  0  1  0  0  0  0  0999 V2000
  161.0630  203.8930  151.6120 C   0  0  0  0  0  3  0  0  0  0  0  0
  160.7320  207.2060  155.8540 N   0  0  0  0  0  1  0  0  0  0  0  0
  160.9940  206.1440  152.5540 C   0  0  0  0  0  0  0  0  0  0  0  0
  161.0760  205.2820  151.4600 C   0  0  0  0  0  0  0  0  0  0  0  0
  160.9080  208.1010  153.5960 N   0  0  0  0  0  0  0  0  0  0  0  0
  161.2050  203.6320  149.2070 C   0  0  0  0  0  3  0  0  0  0  0  0
  161.1690  205.8630  150.1650 C   0  0  2  0  0  3  0  0  0  0  0  0
  160.8430  207.0450  154.4460 C   0  0  0  0  0  0  0  0  0  0  0  0
  161.1920  207.2780  150.0170 C   0  0  0  0  0  0  0  0  0  0  0  0
  161.0010  207.4980  152.4020 C   0  0  0  0  0  0  0  0  0  0  0  0
  161.2510  205.6190  147.6780 C   0  0  0  0  0  0  0  0  0  0  0  0
  161.3570  207.9210  148.6620 C   0  0  0  0  0  0  0  0  0  0  0  0
  160.8930  205.8240  153.8540 N   0  0  0  0  0  2  0  0  0  0  0  0
  161.1030  208.1060  151.1540 C   0  0  0  0  0  3  0  0  0  0  0  0
  161.2210  205.0250  149.0340 C   0  0  0  0  0  0  0  0  0  0  0  0
  161.1320  203.0710  150.4860 C   0  0  0  0  0  3  0  0  0  0  0  0
  161.2840  206.9440  147.5170 C   0  0  0  0  0  3  0  0  0  0  0  0
  161.1700  204.1230  145.5550 N   0  0  0  0  0  0  0  0  0  0  0  0
  161.2060  204.7880  146.5010 C   0  0  0  0  0  0  0  0  0  0  0  0
  162.5760  208.6020  148.6070 O   0  0  0  0  0  0  0  0  0  0  0  0
  162.3310  209.8300  149.2240 C   0  0  0  0  0  2  0  0  0  0  0  0
  161.5980  210.7410  148.2610 C   0  0  0  0  0  2  0  0  0  0  0  0
  162.1540  214.3490  148.1510 O   0  0  0  0  0  0  0  0  0  0  0  0
  162.0980  212.8780  146.3390 N   0  0  0  0  0  2  0  0  0  0  0  0
  162.0140  213.1680  147.7360 C   0  0  0  0  0  0  0  0  0  0  0  0
  161.7690  212.1220  148.6760 N   0  0  0  0  0  2  0  0  0  0  0  0
  162.3460  213.9140  145.3520 C   0  0  0  0  0  2  0  0  0  0  0  0
  163.1070  213.3250  144.1820 C   0  0  0  0  0  1  0  0  0  0  0  0
  3 13  1  0  0  0  0
  4  1  1  0  0  0  0
  4  3  2  0  0  0  0
  5  8  2  0  0  0  0
  6 16  1  0  0  0  0
  7 15  1  6  0  0  0
  7  4  1  0  0  0  0
  8  2  1  0  0  0  0
  9  7  1  0  0  0  0
  9 14  1  0  0  0  0
 10  3  1  0  0  0  0
 10  5  1  0  0  0  0
 11 15  1  0  0  0  0
 12  9  2  0  0  0  0
 13  8  1  0  0  0  0
 14 10  2  0  0  0  0
 15  6  2  0  0  0  0
 16  1  2  0  0  0  0
 17 11  2  0  0  0  0
 17 12  1  0  0  0  0
 18 19  3  0  0  0  0
 19 11  1  0  0  0  0
 20 12  1  0  0  0  0
 20 21  1  0  0  0  0
 22 26  1  0  0  0  0
 22 21  1  0  0  0  0
 24 25  1  0  0  0  0
 25 23  2  0  0  0  0
 25 26  1  0  0  0  0
 27 24  1  0  0  0  0
 28 27  1  0  0  0  0
M  END
>  <MODEL>
4

>  <REMARK>
 VINA RESULT:      -8.2      3.416      5.928
  Name = 
  6 active torsions:
  status: ('A' for Active; 'I' for Inactive)
    1  A    between atoms: C_3  and  N_5
    2  A    between atoms: C_11  and  C_14
    3  A    between atoms: C_11  and  N_22
    4  A    between atoms: C_14  and  O_15
    5  A    between atoms: O_15  and  C_23
    6  A    between atoms: C_16  and  C_21
                            x       y       z     vdW  Elec       q    Type
                         _______ _______ _______ _____ _____    ______ ____

>  <TORSDO>
F 6

$$$$
=
 OpenBabel11042421093D

 28 31  0  0  1  0  0  0  0  0999 V2000
  161.1770  204.3330  152.3960 C   0  0  0  0  0  3  0  0  0  0  0  0
  160.6280  208.0220  156.2920 N   0  0  0  0  0  1  0  0  0  0  0  0
  160.9740  206.6580  153.1120 C   0  0  0  0  0  0  0  0  0  0  0  0
  161.1130  205.6990  152.1090 C   0  0  0  0  0  0  0  0  0  0  0  0
  160.7690  208.6990  153.9560 N   0  0  0  0  0  0  0  0  0  0  0  0
  161.3510  203.8460  150.0300 C   0  0  0  0  0  3  0  0  0  0  0  0
  161.1820  206.1530  150.7630 C   0  0  2  0  0  3  0  0  0  0  0  0
  160.7580  207.7300  154.9060 C   0  0  0  0  0  0  0  0  0  0  0  0
  161.1260  207.5470  150.4770 C   0  0  0  0  0  0  0  0  0  0  0  0
  160.9060  207.9890  152.8280 C   0  0  0  0  0  0  0  0  0  0  0  0
  161.2970  205.6720  148.3120 C   0  0  0  0  0  0  0  0  0  0  0  0
  161.2650  208.0620  149.0650 C   0  0  0  0  0  0  0  0  0  0  0  0
  160.8810  206.4620  154.4370 N   0  0  0  0  0  2  0  0  0  0  0  0
  160.9820  208.4760  151.5260 C   0  0  0  0  0  3  0  0  0  0  0  0
  161.2900  205.2140  149.7200 C   0  0  0  0  0  0  0  0  0  0  0  0
  161.3010  203.4100  151.3570 C   0  0  0  0  0  3  0  0  0  0  0  0
  161.2570  206.9740  148.0210 C   0  0  0  0  0  3  0  0  0  0  0  0
  161.3170  203.9720  146.3470 N   0  0  0  0  0  0  0  0  0  0  0  0
  161.3080  204.7290  147.2220 C   0  0  0  0  0  0  0  0  0  0  0  0
  162.4440  208.8020  148.9460 O   0  0  0  0  0  0  0  0  0  0  0  0
  162.0520  210.0160  148.3770 C   0  0  0  0  0  2  0  0  0  0  0  0
  162.3300  211.1420  149.3500 C   0  0  0  0  0  2  0  0  0  0  0  0
  159.7820  213.7310  149.7300 O   0  0  0  0  0  0  0  0  0  0  0  0
  160.4480  212.1670  151.3290 N   0  0  0  0  0  2  0  0  0  0  0  0
  160.5250  212.7600  150.0310 C   0  0  0  0  0  0  0  0  0  0  0  0
  161.4460  212.2580  149.0630 N   0  0  0  0  0  2  0  0  0  0  0  0
  159.5240  212.6480  152.3410 C   0  0  0  0  0  2  0  0  0  0  0  0
  158.6510  211.5040  152.8130 C   0  0  0  0  0  1  0  0  0  0  0  0
  3 13  1  0  0  0  0
  4  1  1  0  0  0  0
  4  3  2  0  0  0  0
  5  8  2  0  0  0  0
  6 16  1  0  0  0  0
  7 15  1  6  0  0  0
  7  4  1  0  0  0  0
  8  2  1  0  0  0  0
  9  7  1  0  0  0  0
  9 14  1  0  0  0  0
 10  3  1  0  0  0  0
 10  5  1  0  0  0  0
 11 15  1  0  0  0  0
 12  9  2  0  0  0  0
 13  8  1  0  0  0  0
 14 10  2  0  0  0  0
 15  6  2  0  0  0  0
 16  1  2  0  0  0  0
 17 11  2  0  0  0  0
 17 12  1  0  0  0  0
 18 19  3  0  0  0  0
 19 11  1  0  0  0  0
 20 12  1  0  0  0  0
 21 20  1  0  0  0  0
 21 22  1  0  0  0  0
 23 25  2  0  0  0  0
 24 27  1  0  0  0  0
 25 24  1  0  0  0  0
 26 22  1  0  0  0  0
 26 25  1  0  0  0  0
 27 28  1  0  0  0  0
M  END
>  <MODEL>
5

>  <REMARK>
 VINA RESULT:      -8.2      2.693      6.015
  Name = 
  6 active torsions:
  status: ('A' for Active; 'I' for Inactive)
    1  A    between atoms: C_3  and  N_5
    2  A    between atoms: C_11  and  C_14
    3  A    between atoms: C_11  and  N_22
    4  A    between atoms: C_14  and  O_15
    5  A    between atoms: O_15  and  C_23
    6  A    between atoms: C_16  and  C_21
                            x       y       z     vdW  Elec       q    Type
                         _______ _______ _______ _____ _____    ______ ____

>  <TORSDO>
F 6

$$$$
=
 OpenBabel11042421093D

 28 31  0  0  1  0  0  0  0  0999 V2000
  160.8120  203.8200  150.1260 C   0  0  0  0  0  3  0  0  0  0  0  0
  162.0010  203.9530  144.8670 N   0  0  0  0  0  1  0  0  0  0  0  0
  161.6070  205.0190  148.1530 C   0  0  0  0  0  0  0  0  0  0  0  0
  161.3000  204.9770  149.5130 C   0  0  0  0  0  0  0  0  0  0  0  0
  162.3070  205.9310  146.2560 N   0  0  0  0  0  0  0  0  0  0  0  0
  160.7510  204.9750  152.2540 C   0  0  0  0  0  3  0  0  0  0  0  0
  161.5070  206.1600  150.2750 C   0  0  2  0  0  3  0  0  0  0  0  0
  161.9360  204.6330  146.1150 C   0  0  0  0  0  0  0  0  0  0  0  0
  161.9950  207.3390  149.6440 C   0  0  0  0  0  0  0  0  0  0  0  0
  162.0880  206.1480  147.5600 C   0  0  0  0  0  0  0  0  0  0  0  0
  161.5140  207.3540  152.4730 C   0  0  0  0  0  0  0  0  0  0  0  0
  162.1600  208.6270  150.4130 C   0  0  0  0  0  0  0  0  0  0  0  0
  161.4990  204.0310  147.2500 N   0  0  0  0  0  2  0  0  0  0  0  0
  162.2930  207.3290  148.2670 C   0  0  0  0  0  3  0  0  0  0  0  0
  161.2390  206.1480  151.6570 C   0  0  0  0  0  0  0  0  0  0  0  0
  160.5340  203.8230  151.4930 C   0  0  0  0  0  3  0  0  0  0  0  0
  161.9610  208.4740  151.8990 C   0  0  0  0  0  3  0  0  0  0  0  0
  161.2040  207.3290  155.0520 N   0  0  0  0  0  0  0  0  0  0  0  0
  161.3430  207.3400  153.9030 C   0  0  0  0  0  0  0  0  0  0  0  0
  161.2670  209.5860  149.9280 O   0  0  0  0  0  0  0  0  0  0  0  0
  161.9560  210.7970  150.0140 C   0  0  0  0  0  2  0  0  0  0  0  0
  162.2140  211.3310  148.6200 C   0  0  0  0  0  2  0  0  0  0  0  0
  160.2440  213.7970  146.7840 O   0  0  0  0  0  0  0  0  0  0  0  0
  162.3770  213.0170  146.2450 N   0  0  0  0  0  2  0  0  0  0  0  0
  161.2110  213.0450  147.0730 C   0  0  0  0  0  0  0  0  0  0  0  0
  161.1330  212.2190  148.2350 N   0  0  0  0  0  2  0  0  0  0  0  0
  162.4960  213.8410  145.0550 C   0  0  0  0  0  2  0  0  0  0  0  0
  162.7110  212.9550  143.8460 C   0  0  0  0  0  1  0  0  0  0  0  0
  1 16  1  0  0  0  0
  2  8  1  0  0  0  0
  3  4  1  0  0  0  0
  4  1  2  0  0  0  0
  5 10  1  0  0  0  0
  7  4  1  1  0  0  0
  7 15  1  0  0  0  0
  8  5  2  0  0  0  0
  8 13  1  0  0  0  0
  9  7  1  0  0  0  0
  9 12  1  0  0  0  0
 10  3  2  0  0  0  0
 10 14  1  0  0  0  0
 11 19  1  0  0  0  0
 12 17  2  0  0  0  0
 13  3  1  0  0  0  0
 14  9  2  0  0  0  0
 15  6  1  0  0  0  0
 15 11  2  0  0  0  0
 16  6  2  0  0  0  0
 17 11  1  0  0  0  0
 19 18  3  0  0  0  0
 20 21  1  0  0  0  0
 20 12  1  0  0  0  0
 22 21  1  0  0  0  0
 23 25  2  0  0  0  0
 24 25  1  0  0  0  0
 25 26  1  0  0  0  0
 26 22  1  0  0  0  0
 27 24  1  0  0  0  0
 28 27  1  0  0  0  0
M  END
>  <MODEL>
6

>  <REMARK>
 VINA RESULT:      -8.1      3.514      7.004
  Name = 
  6 active torsions:
  status: ('A' for Active; 'I' for Inactive)
    1  A    between atoms: C_3  and  N_5
    2  A    between atoms: C_11  and  C_14
    3  A    between atoms: C_11  and  N_22
    4  A    between atoms: C_14  and  O_15
    5  A    between atoms: O_15  and  C_23
    6  A    between atoms: C_16  and  C_21
                            x       y       z     vdW  Elec       q    Type
                         _______ _______ _______ _____ _____    ______ ____

>  <TORSDO>
F 6

$$$$
=
 OpenBabel11042421093D

 28 31  0  0  1  0  0  0  0  0999 V2000
  161.5740  208.4340  150.1460 C   0  0  0  0  0  3  0  0  0  0  0  0
  161.1610  207.4970  155.4410 N   0  0  0  0  0  1  0  0  0  0  0  0
  161.3320  206.8900  152.0220 C   0  0  0  0  0  0  0  0  0  0  0  0
  161.4430  207.1380  150.6530 C   0  0  0  0  0  0  0  0  0  0  0  0
  161.1270  205.6520  153.8510 N   0  0  0  0  0  0  0  0  0  0  0  0
  161.6980  207.5370  147.8980 C   0  0  0  0  0  3  0  0  0  0  0  0
  161.4250  206.0210  149.7740 C   0  0  2  0  0  3  0  0  0  0  0  0
  161.2070  206.9800  154.1160 C   0  0  0  0  0  0  0  0  0  0  0  0
  161.2810  204.7040  150.2950 C   0  0  0  0  0  0  0  0  0  0  0  0
  161.2100  205.6250  152.5130 C   0  0  0  0  0  0  0  0  0  0  0  0
  161.6150  205.0680  147.4690 C   0  0  0  0  0  0  0  0  0  0  0  0
  161.1910  203.5060  149.3820 C   0  0  0  0  0  0  0  0  0  0  0  0
  161.3340  207.7800  153.0270 N   0  0  0  0  0  2  0  0  0  0  0  0
  161.1760  204.5060  151.6870 C   0  0  0  0  0  3  0  0  0  0  0  0
  161.5660  206.2290  148.3880 C   0  0  0  0  0  0  0  0  0  0  0  0
  161.6960  208.6310  148.7700 C   0  0  0  0  0  3  0  0  0  0  0  0
  161.4710  203.8260  147.9360 C   0  0  0  0  0  3  0  0  0  0  0  0
  162.0510  205.3870  144.9280 N   0  0  0  0  0  0  0  0  0  0  0  0
  161.8560  205.2450  146.0600 C   0  0  0  0  0  0  0  0  0  0  0  0
  159.9240  202.9260  149.4870 O   0  0  0  0  0  0  0  0  0  0  0  0
  160.1470  201.5510  149.3850 C   0  0  0  0  0  2  0  0  0  0  0  0
  161.5760  201.3030  148.9480 C   0  0  0  0  0  2  0  0  0  0  0  0
  161.2070  199.0830  146.0710 O   0  0  0  0  0  0  0  0  0  0  0  0
  160.5860  201.3290  146.2040 N   0  0  0  0  0  2  0  0  0  0  0  0
  161.1400  200.1350  146.7600 C   0  0  0  0  0  0  0  0  0  0  0  0
  161.6250  200.1230  148.1030 N   0  0  0  0  0  2  0  0  0  0  0  0
  160.0820  201.3820  144.8430 C   0  0  0  0  0  2  0  0  0  0  0  0
  159.5810  202.7790  144.5430 C   0  0  0  0  0  1  0  0  0  0  0  0
  1  4  1  0  0  0  0
  3 10  1  0  0  0  0
  3 13  1  0  0  0  0
  4  3  2  0  0  0  0
  5  8  2  0  0  0  0
  6 15  2  0  0  0  0
  6 16  1  0  0  0  0
  7 15  1  1  0  0  0
  7  9  1  0  0  0  0
  7  4  1  0  0  0  0
  8  2  1  0  0  0  0
  9 14  1  0  0  0  0
 10  5  1  0  0  0  0
 11 17  2  0  0  0  0
 11 15  1  0  0  0  0
 12 20  1  0  0  0  0
 12  9  2  0  0  0  0
 13  8  1  0  0  0  0
 14 10  2  0  0  0  0
 16  1  2  0  0  0  0
 17 12  1  0  0  0  0
 18 19  3  0  0  0  0
 19 11  1  0  0  0  0
 21 20  1  0  0  0  0
 22 21  1  0  0  0  0
 23 25  2  0  0  0  0
 24 25  1  0  0  0  0
 25 26  1  0  0  0  0
 26 22  1  0  0  0  0
 27 24  1  0  0  0  0
 28 27  1  0  0  0  0
M  END
>  <MODEL>
7

>  <REMARK>
 VINA RESULT:      -8.0      1.806      3.956
  Name = 
  6 active torsions:
  status: ('A' for Active; 'I' for Inactive)
    1  A    between atoms: C_3  and  N_5
    2  A    between atoms: C_11  and  C_14
    3  A    between atoms: C_11  and  N_22
    4  A    between atoms: C_14  and  O_15
    5  A    between atoms: O_15  and  C_23
    6  A    between atoms: C_16  and  C_21
                            x       y       z     vdW  Elec       q    Type
                         _______ _______ _______ _____ _____    ______ ____

>  <TORSDO>
F 6

$$$$
=
 OpenBabel11042421093D

 28 31  0  0  1  0  0  0  0  0999 V2000
  161.9710  205.6350  147.4710 C   0  0  0  0  0  3  0  0  0  0  0  0
  160.6780  200.5280  148.6220 N   0  0  0  0  0  1  0  0  0  0  0  0
  161.2260  203.9330  149.0550 C   0  0  0  0  0  0  0  0  0  0  0  0
  161.5580  205.2530  148.7500 C   0  0  0  0  0  0  0  0  0  0  0  0
  160.5540  202.2520  150.3370 N   0  0  0  0  0  0  0  0  0  0  0  0
  162.1670  207.9300  148.2220 C   0  0  0  0  0  3  0  0  0  0  0  0
  161.4590  206.2180  149.7900 C   0  0  2  0  0  3  0  0  0  0  0  0
  160.8220  201.8720  149.0630 C   0  0  0  0  0  0  0  0  0  0  0  0
  161.0470  205.8220  151.0940 C   0  0  0  0  0  0  0  0  0  0  0  0
  160.8180  203.5660  150.3020 C   0  0  0  0  0  0  0  0  0  0  0  0
  161.5920  208.5900  150.5710 C   0  0  0  0  0  0  0  0  0  0  0  0
  160.9980  206.8110  152.2330 C   0  0  0  0  0  0  0  0  0  0  0  0
  161.2370  202.8680  148.2380 N   0  0  0  0  0  2  0  0  0  0  0  0
  160.7190  204.4760  151.3500 C   0  0  0  0  0  3  0  0  0  0  0  0
  161.7560  207.5670  149.5140 C   0  0  0  0  0  0  0  0  0  0  0  0
  162.2790  206.9710  147.2100 C   0  0  0  0  0  3  0  0  0  0  0  0
  161.2180  208.2390  151.8040 C   0  0  0  0  0  3  0  0  0  0  0  0
  161.9560  211.1120  150.0650 N   0  0  0  0  0  0  0  0  0  0  0  0
  161.7940  209.9890  150.2910 C   0  0  0  0  0  0  0  0  0  0  0  0
  161.9500  206.4700  153.1970 O   0  0  0  0  0  0  0  0  0  0  0  0
  161.2100  206.0370  154.2990 C   0  0  0  0  0  2  0  0  0  0  0  0
  160.5250  207.2240  154.9440 C   0  0  0  0  0  2  0  0  0  0  0  0
  162.3660  210.2030  155.9820 O   0  0  0  0  0  0  0  0  0  0  0  0
  160.4260  210.1280  154.6850 N   0  0  0  0  0  2  0  0  0  0  0  0
  161.4750  209.5040  155.4300 C   0  0  0  0  0  0  0  0  0  0  0  0
  161.5230  208.0830  155.5560 N   0  0  0  0  0  2  0  0  0  0  0  0
  160.3430  211.5700  154.5330 C   0  0  0  0  0  2  0  0  0  0  0  0
  160.0770  211.9090  153.0810 C   0  0  0  0  0  1  0  0  0  0  0  0
  1  4  1  0  0  0  0
  2  8  1  0  0  0  0
  3 10  1  0  0  0  0
  4  3  2  0  0  0  0
  6 15  2  0  0  0  0
  7  4  1  6  0  0  0
  7  9  1  0  0  0  0
  8  5  2  0  0  0  0
  9 14  1  0  0  0  0
  9 12  2  0  0  0  0
 10  5  1  0  0  0  0
 10 14  2  0  0  0  0
 11 17  2  0  0  0  0
 12 20  1  0  0  0  0
 13  3  1  0  0  0  0
 13  8  1  0  0  0  0
 15  7  1  0  0  0  0
 15 11  1  0  0  0  0
 16  1  2  0  0  0  0
 16  6  1  0  0  0  0
 17 12  1  0  0  0  0
 18 19  3  0  0  0  0
 19 11  1  0  0  0  0
 20 21  1  0  0  0  0
 21 22  1  0  0  0  0
 22 26  1  0  0  0  0
 24 25  1  0  0  0  0
 25 26  1  0  0  0  0
 25 23  2  0  0  0  0
 27 24  1  0  0  0  0
 28 27  1  0  0  0  0
M  END
>  <MODEL>
8

>  <REMARK>
 VINA RESULT:      -7.9      2.894      8.373
  Name = 
  6 active torsions:
  status: ('A' for Active; 'I' for Inactive)
    1  A    between atoms: C_3  and  N_5
    2  A    between atoms: C_11  and  C_14
    3  A    between atoms: C_11  and  N_22
    4  A    between atoms: C_14  and  O_15
    5  A    between atoms: O_15  and  C_23
    6  A    between atoms: C_16  and  C_21
                            x       y       z     vdW  Elec       q    Type
                         _______ _______ _______ _____ _____    ______ ____

>  <TORSDO>
F 6

$$$$
=
 OpenBabel11042421093D

 28 31  0  0  1  0  0  0  0  0999 V2000
  162.1100  204.3540  145.5600 C   0  0  0  0  0  3  0  0  0  0  0  0
  161.1120  199.0940  146.2020 N   0  0  0  0  0  1  0  0  0  0  0  0
  161.4310  202.4720  146.9590 C   0  0  0  0  0  0  0  0  0  0  0  0
  161.6880  203.8320  146.7850 C   0  0  0  0  0  0  0  0  0  0  0  0
  160.8330  200.6420  148.0610 N   0  0  0  0  0  0  0  0  0  0  0  0
  162.1390  206.5780  146.5210 C   0  0  0  0  0  3  0  0  0  0  0  0
  161.5000  204.6890  147.9040 C   0  0  2  0  0  3  0  0  0  0  0  0
  161.1590  200.3980  146.7670 C   0  0  0  0  0  0  0  0  0  0  0  0
  161.0790  204.1510  149.1530 C   0  0  0  0  0  0  0  0  0  0  0  0
  161.0140  201.9670  148.1540 C   0  0  0  0  0  0  0  0  0  0  0  0
  161.4610  206.9830  148.9000 C   0  0  0  0  0  0  0  0  0  0  0  0
  160.9360  205.0250  150.3750 C   0  0  0  0  0  0  0  0  0  0  0  0
  161.5320  201.4890  146.0500 N   0  0  0  0  0  2  0  0  0  0  0  0
  160.8300  202.7690  149.2760 C   0  0  0  0  0  3  0  0  0  0  0  0
  161.7180  206.0730  147.7610 C   0  0  0  0  0  0  0  0  0  0  0  0
  162.3390  205.7250  145.4310 C   0  0  0  0  0  3  0  0  0  0  0  0
  161.0770  206.4980  150.0830 C   0  0  0  0  0  3  0  0  0  0  0  0
  161.6770  209.5580  148.6360 N   0  0  0  0  0  0  0  0  0  0  0  0
  161.5810  208.4110  148.7540 C   0  0  0  0  0  0  0  0  0  0  0  0
  161.8820  204.6550  151.3350 O   0  0  0  0  0  0  0  0  0  0  0  0
  161.2730  204.9220  152.5620 C   0  0  0  0  0  2  0  0  0  0  0  0
  161.9560  206.1050  153.2170 C   0  0  0  0  0  2  0  0  0  0  0  0
  160.0920  208.3270  155.4370 O   0  0  0  0  0  0  0  0  0  0  0  0
  161.2700  208.9250  153.5130 N   0  0  0  0  0  2  0  0  0  0  0  0
  160.8040  207.9650  154.4630 C   0  0  0  0  0  0  0  0  0  0  0  0
  161.1400  206.5850  154.3180 N   0  0  0  0  0  2  0  0  0  0  0  0
  160.9510  210.3380  153.6260 C   0  0  0  0  0  2  0  0  0  0  0  0
  159.7490  210.6540  152.7610 C   0  0  0  0  0  1  0  0  0  0  0  0
  1  4  1  0  0  0  0
  2  8  1  0  0  0  0
  3 10  1  0  0  0  0
  4  3  2  0  0  0  0
  5 10  1  0  0  0  0
  6 15  2  0  0  0  0
  7  4  1  6  0  0  0
  7  9  1  0  0  0  0
  8  5  2  0  0  0  0
  9 14  1  0  0  0  0
  9 12  2  0  0  0  0
 10 14  2  0  0  0  0
 11 17  2  0  0  0  0
 12 20  1  0  0  0  0
 13  8  1  0  0  0  0
 13  3  1  0  0  0  0
 15  7  1  0  0  0  0
 15 11  1  0  0  0  0
 16  1  2  0  0  0  0
 16  6  1  0  0  0  0
 17 12  1  0  0  0  0
 18 19  3  0  0  0  0
 19 11  1  0  0  0  0
 20 21  1  0  0  0  0
 21 22  1  0  0  0  0
 22 26  1  0  0  0  0
 24 27  1  0  0  0  0
 24 25  1  0  0  0  0
 25 23  2  0  0  0  0
 26 25  1  0  0  0  0
 28 27  1  0  0  0  0
M  END
>  <MODEL>
9

>  <REMARK>
 VINA RESULT:      -7.8      2.298      8.221
  Name = 
  6 active torsions:
  status: ('A' for Active; 'I' for Inactive)
    1  A    between atoms: C_3  and  N_5
    2  A    between atoms: C_11  and  C_14
    3  A    between atoms: C_11  and  N_22
    4  A    between atoms: C_14  and  O_15
    5  A    between atoms: O_15  and  C_23
    6  A    between atoms: C_16  and  C_21
                            x       y       z     vdW  Elec       q    Type
                         _______ _______ _______ _____ _____    ______ ____

>  <TORSDO>
F 6

$$$$
