=
 OpenBabel11052412003D

 61 65  0  0  1  0  0  0  0  0999 V2000
  161.5830  208.6030  147.8760 N   0  0  0  0  0  0  0  0  0  0  0  0
  161.8000  209.1770  149.0210 C   0  0  0  0  0  0  0  0  0  0  0  0
  160.5890  202.9360  144.8990 O   0  0  0  0  0  0  0  0  0  0  0  0
  161.7880  204.4490  147.1210 C   0  0  0  0  0  0  0  0  0  0  0  0
  161.4170  203.0660  147.0940 N   0  0  0  0  0  2  0  0  0  0  0  0
  161.2990  206.7590  146.3830 C   0  0  0  0  0  3  0  0  0  0  0  0
  161.8230  207.2310  147.5180 C   0  0  0  0  0  0  0  0  0  0  0  0
  160.8280  202.3590  145.9960 C   0  0  0  0  0  0  0  0  0  0  0  0
  162.7400  206.3360  148.3100 C   0  0  0  0  0  2  0  0  0  0  0  0
  162.3100  204.9380  148.2090 N   0  0  0  0  0  0  0  0  0  0  0  0
  161.5840  205.3530  145.9300 C   0  0  0  0  0  2  0  0  0  0  0  0
  160.3450  200.2310  144.8480 C   0  0  0  0  0  2  0  0  0  0  0  0
  161.6450  198.9140  146.3570 C   0  0  0  0  0  2  0  0  0  0  0  0
  161.4610  200.2260  146.9750 N   0  0  0  0  0  2  0  0  0  0  0  0
  160.4560  200.9260  146.1820 C   0  0  1  0  0  3  0  0  0  0  0  0
  160.7290  198.8120  145.1540 C   0  0  0  0  0  2  0  0  0  0  0  0
  161.4970  210.6320  149.1550 C   0  0  0  0  0  2  0  0  0  0  0  0
  162.4110  211.3700  148.4030 O   0  0  0  0  0  0  0  0  0  0  0  0
  161.6520  212.3760  147.7880 C   0  0  2  0  0  3  0  0  0  0  0  0
  162.9150  214.4400  147.7260 O   0  0  0  0  0  1  0  0  0  0  0  0
  162.5540  213.3170  146.9760 C   0  0  2  0  0  3  0  0  0  0  0  0
  161.8890  213.7330  145.6710 C   0  0  0  0  0  2  0  0  0  0  0  0
  160.9460  212.7160  145.2330 N   0  0  0  0  0  2  0  0  0  0  0  0
  159.9290  211.4540  143.5740 O   0  0  0  0  0  0  0  0  0  0  0  0
  160.6980  212.4100  143.8580 C   0  0  0  0  0  0  0  0  0  0  0  0
  161.3430  213.1930  142.7620 C   0  0  0  0  0  2  0  0  0  0  0  0
  160.3700  211.6940  139.2100 P   0  0  1  0  0  0  0  0  0  0  0  0
  162.1650  211.6380  141.0780 N   0  0  0  0  0  0  0  0  0  0  0  0
  160.4710  212.5970  137.7810 O   0  0  0  0  0  0  0  0  0  0  0  0
  161.2460  212.4770  141.4560 C   0  0  0  0  0  0  0  0  0  0  0  0
  161.9440  211.0080  139.7760 C   0  0  2  0  0  3  0  0  0  0  0  0
  160.1890  212.6830  140.5780 O   0  0  0  0  0  0  0  0  0  0  0  0
  159.2820  210.6420  139.1420 O   0  0  0  0  0  1  0  0  0  0  0  0
  162.9910  210.9950  137.4980 O   0  0  0  0  0  0  0  0  0  0  0  0
  164.0550  211.9910  139.2640 O   0  0  0  0  0  1  0  0  0  0  0  0
  163.0520  211.3620  138.8360 C   0  0  0  0  0  0  0  0  0  0  0  0
  161.4430  214.1870  149.3480 O   0  0  0  0  0  1  0  0  0  0  0  0
  160.7570  213.0990  148.8020 C   0  0  1  0  0  3  0  0  0  0  0  0
  159.4450  213.5700  148.1880 C   0  0  0  0  0  2  0  0  0  0  0  0
  158.5050  213.7850  149.1970 O   0  0  0  0  0  0  0  0  0  0  0  0
  156.1480  213.7580  149.5970 C   0  0  0  0  0  1  0  0  0  0  0  0
  157.2650  213.6290  148.5720 C   0  0  0  0  0  2  0  0  0  0  0  0
  162.2500  208.4190  150.2330 C   0  0  0  0  0  2  0  0  0  0  0  0
  161.0660  207.8350  150.9790 C   0  0  0  0  0  2  0  0  0  0  0  0
  161.0040  208.4290  152.3750 C   0  0  0  0  0  2  0  0  0  0  0  0
  161.9980  209.5680  152.5100 C   0  0  0  0  0  2  0  0  0  0  0  0
  161.7250  210.3380  153.7930 C   0  0  0  0  0  2  0  0  0  0  0  0
  160.4200  209.8710  154.4190 C   0  0  1  0  0  3  0  0  0  0  0  0
  158.6330  210.8380  155.4310 C   0  0  2  0  0  3  0  0  0  0  0  0
  160.6230  209.6250  155.8670 C   0  0  0  0  0  0  0  0  0  0  0  0
  159.6770  210.6690  156.9170 S   0  0  0  0  0  0  0  0  0  0  0  0
  159.4410  210.8740  154.2750 O   0  0  0  0  0  0  0  0  0  0  0  0
  161.2640  208.6790  156.2910 O   0  0  0  0  0  0  0  0  0  0  0  0
  155.7570  213.0880  154.5220 C   0  0  0  0  0  2  0  0  0  0  0  0
  156.5040  213.8310  153.4080 C   0  0  0  0  0  2  0  0  0  0  0  0
  158.0210  213.6050  153.4880 C   0  0  0  0  0  2  0  0  0  0  0  0
  158.4680  213.2990  154.9160 C   0  0  0  0  0  2  0  0  0  0  0  0
  156.4150  211.8210  154.8370 N   0  0  0  0  0  0  0  0  0  0  0  0
  157.7230  212.0720  155.4830 C   0  0  1  0  0  3  0  0  0  0  0  0
  155.1110  209.9480  155.3080 O   0  0  0  0  0  1  0  0  0  0  0  0
  155.5630  211.1660  155.8180 C   0  0  0  0  0  2  0  0  0  0  0  0
  1  2  2  0  0  0  0
  2 17  1  0  0  0  0
  2 43  1  0  0  0  0
  3  8  2  0  0  0  0
  4 10  2  0  0  0  0
  5  4  1  0  0  0  0
  6  7  2  0  0  0  0
  7  1  1  0  0  0  0
  7  9  1  0  0  0  0
  8  5  1  0  0  0  0
 10  9  1  0  0  0  0
 11  6  1  0  0  0  0
 11  4  1  0  0  0  0
 12 16  1  0  0  0  0
 12 15  1  0  0  0  0
 13 14  1  0  0  0  0
 15  8  1  6  0  0  0
 15 14  1  0  0  0  0
 16 13  1  0  0  0  0
 18 17  1  0  0  0  0
 19 18  1  1  0  0  0
 19 38  1  0  0  0  0
 21 20  1  1  0  0  0
 21 19  1  0  0  0  0
 22 21  1  0  0  0  0
 23 22  1  0  0  0  0
 24 25  2  0  0  0  0
 25 23  1  0  0  0  0
 26 25  1  0  0  0  0
 27 29  2  6  0  0  0
 27 31  1  0  0  0  0
 27 32  1  0  0  0  0
 28 30  2  0  0  0  0
 30 26  1  0  0  0  0
 31 36  1  6  0  0  0
 31 28  1  0  0  0  0
 32 30  1  0  0  0  0
 33 27  1  0  0  0  0
 34 36  2  0  0  0  0
 36 35  1  0  0  0  0
 38 37  1  6  0  0  0
 39 38  1  0  0  0  0
 39 40  1  0  0  0  0
 42 40  1  0  0  0  0
 42 41  1  0  0  0  0
 43 44  1  0  0  0  0
 44 45  1  0  0  0  0
 45 46  1  0  0  0  0
 46 47  1  0  0  0  0
 48 47  1  1  0  0  0
 48 50  1  0  0  0  0
 49 52  1  6  0  0  0
 49 59  1  0  0  0  0
 49 51  1  0  0  0  0
 50 53  2  0  0  0  0
 50 51  1  0  0  0  0
 52 48  1  0  0  0  0
 54 58  1  0  0  0  0
 55 56  1  0  0  0  0
 55 54  1  0  0  0  0
 56 57  1  0  0  0  0
 58 59  1  0  0  0  0
 58 61  1  0  0  0  0
 59 57  1  6  0  0  0
 60 61  1  0  0  0  0
M  END
>  <MODEL>
1

>  <REMARK>
 VINA RESULT:      -5.6      0.000      0.000
  Name = 
  23 active torsions:
  status: ('A' for Active; 'I' for Inactive)
    1  A    between atoms: N_3  and  C_24
    2  A    between atoms: C_4  and  C_54
    3  A    between atoms: N_6  and  C_28
    4  A    between atoms: C_9  and  C_46
    5  A    between atoms: C_11  and  C_47
    6  A    between atoms: C_11  and  C_60
    7  A    between atoms: C_12  and  O_32
    8  A    between atoms: C_12  and  C_39
    9  A    between atoms: C_19  and  C_45
   10  A    between atoms: C_19  and  C_47
   11  A    between atoms: C_20  and  C_38
   12  A    between atoms: C_20  and  C_55
   13  A    between atoms: C_21  and  N_40
   14  A    between atoms: C_23  and  O_32
   15  A    between atoms: C_24  and  C_36
   16  A    between atoms: O_25  and  C_31
   17  A    between atoms: O_25  and  C_42
   18  A    between atoms: C_31  and  C_36
   19  A    between atoms: C_31  and  C_39
   20  A    between atoms: C_34  and  C_58
   21  A    between atoms: C_42  and  C_45
   22  A    between atoms: C_48  and  C_61
   23  A    between atoms: C_54  and  C_60
                            x       y       z     vdW  Elec       q    Type
                         _______ _______ _______ _____ _____    ______ ____

>  <TORSDO>
F 23

$$$$
=
 OpenBabel11052412003D

 61 65  0  0  1  0  0  0  0  0999 V2000
  161.6070  204.8170  149.7180 N   0  0  0  0  0  0  0  0  0  0  0  0
  161.2120  205.2840  148.5720 C   0  0  0  0  0  0  0  0  0  0  0  0
  159.7980  206.9890  155.5470 O   0  0  0  0  0  0  0  0  0  0  0  0
  161.5170  207.2510  153.1730 C   0  0  0  0  0  0  0  0  0  0  0  0
  161.1110  208.2770  154.0870 N   0  0  0  0  0  2  0  0  0  0  0  0
  160.9360  205.1600  151.9870 C   0  0  0  0  0  3  0  0  0  0  0  0
  161.7200  205.5230  150.9670 C   0  0  0  0  0  0  0  0  0  0  0  0
  160.2660  208.1180  155.2320 C   0  0  0  0  0  0  0  0  0  0  0  0
  162.7690  206.5760  151.2090 C   0  0  0  0  0  2  0  0  0  0  0  0
  162.2890  207.5700  152.1740 N   0  0  0  0  0  0  0  0  0  0  0  0
  161.0700  205.8190  153.3320 C   0  0  0  0  0  2  0  0  0  0  0  0
  161.0240  210.3370  155.9950 C   0  0  0  0  0  2  0  0  0  0  0  0
  158.9330  211.4020  155.5550 C   0  0  0  0  0  2  0  0  0  0  0  0
  158.7030  209.9590  155.5060 N   0  0  0  0  0  2  0  0  0  0  0  0
  159.9070  209.3250  156.0330 C   0  0  1  0  0  3  0  0  0  0  0  0
  160.3140  211.6530  156.1250 C   0  0  0  0  0  2  0  0  0  0  0  0
  161.2010  204.3650  147.3970 C   0  0  0  0  0  2  0  0  0  0  0  0
  162.1690  204.7710  146.4780 O   0  0  0  0  0  0  0  0  0  0  0  0
  161.6290  204.4730  145.2200 C   0  0  2  0  0  3  0  0  0  0  0  0
  159.9420  206.1760  144.8850 O   0  0  0  0  0  1  0  0  0  0  0  0
  161.2150  205.7570  144.4880 C   0  0  2  0  0  3  0  0  0  0  0  0
  161.2740  205.5780  142.9770 C   0  0  0  0  0  2  0  0  0  0  0  0
  162.4600  206.2200  142.4330 N   0  0  0  0  0  2  0  0  0  0  0  0
  163.5710  207.3650  140.7500 O   0  0  0  0  0  0  0  0  0  0  0  0
  162.5330  206.7480  141.1060 C   0  0  0  0  0  0  0  0  0  0  0  0
  161.3990  206.5920  140.1460 C   0  0  0  0  0  2  0  0  0  0  0  0
  160.0850  209.8300  138.2510 P   0  0  1  0  0  0  0  0  0  0  0  0
  162.1770  208.3560  138.6600 N   0  0  0  0  0  0  0  0  0  0  0  0
  159.7350  211.2790  139.0560 O   0  0  0  0  0  1  0  0  0  0  0  0
  161.2000  207.8290  139.3360 C   0  0  0  0  0  0  0  0  0  0  0  0
  161.8420  209.5680  137.9120 C   0  0  2  0  0  3  0  0  0  0  0  0
  159.9760  208.4850  139.2800 O   0  0  0  0  0  0  0  0  0  0  0  0
  159.2330  209.6480  137.0120 O   0  0  0  0  0  0  0  0  0  0  0  0
  163.0440  211.7350  137.5340 O   0  0  0  0  0  0  0  0  0  0  0  0
  163.0130  210.7650  139.6080 O   0  0  0  0  0  1  0  0  0  0  0  0
  162.6610  210.7200  138.4000 C   0  0  0  0  0  0  0  0  0  0  0  0
  159.7590  203.4210  144.1470 O   0  0  0  0  0  1  0  0  0  0  0  0
  160.5080  203.4320  145.3260 C   0  0  1  0  0  3  0  0  0  0  0  0
  161.0390  202.0330  145.6130 C   0  0  0  0  0  2  0  0  0  0  0  0
  160.2940  201.4500  146.6400 O   0  0  0  0  0  0  0  0  0  0  0  0
  161.1810  201.0400  148.8220 C   0  0  0  0  0  1  0  0  0  0  0  0
  161.2080  200.6670  147.3480 C   0  0  0  0  0  2  0  0  0  0  0  0
  160.6790  206.6750  148.4070 C   0  0  0  0  0  2  0  0  0  0  0  0
  161.7900  207.6450  148.0580 C   0  0  0  0  0  2  0  0  0  0  0  0
  161.2550  209.0650  148.1040 C   0  0  0  0  0  2  0  0  0  0  0  0
  162.3710  210.0410  148.4310 C   0  0  0  0  0  2  0  0  0  0  0  0
  161.9520  210.9300  149.5910 C   0  0  0  0  0  2  0  0  0  0  0  0
  162.0140  212.3930  149.1820 C   0  0  1  0  0  3  0  0  0  0  0  0
  160.7950  213.8000  147.8820 C   0  0  2  0  0  3  0  0  0  0  0  0
  162.7960  212.5270  147.9290 C   0  0  0  0  0  0  0  0  0  0  0  0
  161.8740  213.1450  146.5660 S   0  0  0  0  0  0  0  0  0  0  0  0
  160.7110  212.8730  148.9430 O   0  0  0  0  0  0  0  0  0  0  0  0
  164.0040  212.3750  147.8870 O   0  0  0  0  0  0  0  0  0  0  0  0
  157.0620  213.5420  147.4870 C   0  0  0  0  0  2  0  0  0  0  0  0
  157.1110  212.5650  146.3070 C   0  0  0  0  0  2  0  0  0  0  0  0
  158.5070  212.5100  145.6680 C   0  0  0  0  0  2  0  0  0  0  0  0
  159.2700  213.8150  145.8760 C   0  0  0  0  0  2  0  0  0  0  0  0
  158.3330  213.5490  148.2120 N   0  0  0  0  0  0  0  0  0  0  0  0
  159.3920  214.1570  147.3760 C   0  0  1  0  0  3  0  0  0  0  0  0
  158.4180  213.7240  150.5340 O   0  0  0  0  0  1  0  0  0  0  0  0
  158.1280  214.4200  149.3590 C   0  0  0  0  0  2  0  0  0  0  0  0
  1  7  1  0  0  0  0
  2  1  2  0  0  0  0
  4 11  1  0  0  0  0
  4  5  1  0  0  0  0
  5  8  1  0  0  0  0
  6 11  1  0  0  0  0
  7  9  1  0  0  0  0
  7  6  2  0  0  0  0
  8  3  2  0  0  0  0
  9 10  1  0  0  0  0
 10  4  2  0  0  0  0
 12 15  1  0  0  0  0
 12 16  1  0  0  0  0
 13 16  1  0  0  0  0
 14 13  1  0  0  0  0
 14 15  1  0  0  0  0
 15  8  1  6  0  0  0
 17  2  1  0  0  0  0
 18 17  1  0  0  0  0
 19 38  1  0  0  0  0
 19 18  1  1  0  0  0
 21 20  1  6  0  0  0
 21 19  1  0  0  0  0
 22 21  1  0  0  0  0
 23 22  1  0  0  0  0
 24 25  2  0  0  0  0
 25 23  1  0  0  0  0
 26 25  1  0  0  0  0
 27 33  2  6  0  0  0
 27 29  1  0  0  0  0
 27 32  1  0  0  0  0
 28 30  2  0  0  0  0
 30 26  1  0  0  0  0
 31 27  1  0  0  0  0
 31 36  1  1  0  0  0
 31 28  1  0  0  0  0
 32 30  1  0  0  0  0
 34 36  2  0  0  0  0
 36 35  1  0  0  0  0
 38 37  1  6  0  0  0
 38 39  1  0  0  0  0
 39 40  1  0  0  0  0
 40 42  1  0  0  0  0
 42 41  1  0  0  0  0
 43  2  1  0  0  0  0
 44 45  1  0  0  0  0
 44 43  1  0  0  0  0
 45 46  1  0  0  0  0
 46 47  1  0  0  0  0
 48 47  1  6  0  0  0
 49 51  1  6  0  0  0
 49 52  1  0  0  0  0
 50 48  1  0  0  0  0
 51 50  1  0  0  0  0
 52 48  1  0  0  0  0
 53 50  2  0  0  0  0
 54 58  1  0  0  0  0
 55 54  1  0  0  0  0
 56 57  1  0  0  0  0
 56 55  1  0  0  0  0
 58 61  1  0  0  0  0
 59 57  1  6  0  0  0
 59 49  1  0  0  0  0
 59 58  1  0  0  0  0
 61 60  1  0  0  0  0
M  END
>  <MODEL>
2

>  <REMARK>
 VINA RESULT:      -4.1      2.853      8.298
  Name = 
  23 active torsions:
  status: ('A' for Active; 'I' for Inactive)
    1  A    between atoms: N_3  and  C_24
    2  A    between atoms: C_4  and  C_54
    3  A    between atoms: N_6  and  C_28
    4  A    between atoms: C_9  and  C_46
    5  A    between atoms: C_11  and  C_47
    6  A    between atoms: C_11  and  C_60
    7  A    between atoms: C_12  and  O_32
    8  A    between atoms: C_12  and  C_39
    9  A    between atoms: C_19  and  C_45
   10  A    between atoms: C_19  and  C_47
   11  A    between atoms: C_20  and  C_38
   12  A    between atoms: C_20  and  C_55
   13  A    between atoms: C_21  and  N_40
   14  A    between atoms: C_23  and  O_32
   15  A    between atoms: C_24  and  C_36
   16  A    between atoms: O_25  and  C_31
   17  A    between atoms: O_25  and  C_42
   18  A    between atoms: C_31  and  C_36
   19  A    between atoms: C_31  and  C_39
   20  A    between atoms: C_34  and  C_58
   21  A    between atoms: C_42  and  C_45
   22  A    between atoms: C_48  and  C_61
   23  A    between atoms: C_54  and  C_60
                            x       y       z     vdW  Elec       q    Type
                         _______ _______ _______ _____ _____    ______ ____

>  <TORSDO>
F 23

$$$$
=
 OpenBabel11052412003D

 61 65  0  0  1  0  0  0  0  0999 V2000
  162.4040  208.8440  148.1070 N   0  0  0  0  0  0  0  0  0  0  0  0
  161.7970  207.6960  148.1670 C   0  0  0  0  0  0  0  0  0  0  0  0
  160.0250  212.5190  152.8830 O   0  0  0  0  0  0  0  0  0  0  0  0
  160.8750  212.2580  150.0770 C   0  0  0  0  0  0  0  0  0  0  0  0
  159.9320  213.1830  150.6320 N   0  0  0  0  0  2  0  0  0  0  0  0
  161.8550  209.9870  150.1340 C   0  0  0  0  0  3  0  0  0  0  0  0
  162.0770  210.0520  148.8170 C   0  0  0  0  0  0  0  0  0  0  0  0
  159.5340  213.2800  152.0030 C   0  0  0  0  0  0  0  0  0  0  0  0
  162.0890  211.4070  148.1580 C   0  0  0  0  0  2  0  0  0  0  0  0
  161.1200  212.3010  148.7990 N   0  0  0  0  0  0  0  0  0  0  0  0
  161.5830  211.2340  150.9300 C   0  0  0  0  0  2  0  0  0  0  0  0
  157.1660  213.9180  151.7480 C   0  0  0  0  0  2  0  0  0  0  0  0
  156.8640  214.4190  154.0620 C   0  0  0  0  0  2  0  0  0  0  0  0
  158.3020  214.3150  153.8260 N   0  0  0  0  0  2  0  0  0  0  0  0
  158.4880  214.2760  152.3790 C   0  0  1  0  0  3  0  0  0  0  0  0
  156.1530  214.4420  152.7250 C   0  0  0  0  0  2  0  0  0  0  0  0
  162.3020  206.5820  147.3130 C   0  0  0  0  0  2  0  0  0  0  0  0
  161.3110  206.2030  146.4070 O   0  0  0  0  0  0  0  0  0  0  0  0
  162.0010  205.6560  145.3160 C   0  0  2  0  0  3  0  0  0  0  0  0
  160.7890  204.5970  143.5090 O   0  0  0  0  0  1  0  0  0  0  0  0
  161.1950  205.8320  144.0210 C   0  0  2  0  0  3  0  0  0  0  0  0
  161.9840  206.6120  142.9790 C   0  0  0  0  0  2  0  0  0  0  0  0
  161.8910  205.9660  141.6790 N   0  0  0  0  0  2  0  0  0  0  0  0
  162.2050  205.9460  139.3810 O   0  0  0  0  0  0  0  0  0  0  0  0
  162.2330  206.6110  140.4500 C   0  0  0  0  0  0  0  0  0  0  0  0
  162.6350  208.0500  140.4160 C   0  0  0  0  0  2  0  0  0  0  0  0
  159.7160  209.6430  138.2370 P   0  0  1  0  0  0  0  0  0  0  0  0
  162.2540  209.7780  138.7450 N   0  0  0  0  0  0  0  0  0  0  0  0
  158.5290  210.6520  138.9010 O   0  0  0  0  0  1  0  0  0  0  0  0
  161.7650  208.8340  139.4920 C   0  0  0  0  0  0  0  0  0  0  0  0
  161.2880  210.4660  137.8870 C   0  0  2  0  0  3  0  0  0  0  0  0
  160.3970  208.6080  139.3980 O   0  0  0  0  0  0  0  0  0  0  0  0
  159.2000  208.8690  137.0420 O   0  0  0  0  0  0  0  0  0  0  0  0
  160.0990  212.6720  137.9350 O   0  0  0  0  0  0  0  0  0  0  0  0
  162.2040  212.4630  138.8110 O   0  0  0  0  0  1  0  0  0  0  0  0
  161.2240  211.9170  138.2400 C   0  0  0  0  0  0  0  0  0  0  0  0
  163.5480  204.1920  146.4200 O   0  0  0  0  0  1  0  0  0  0  0  0
  162.4230  204.2080  145.5920 C   0  0  1  0  0  3  0  0  0  0  0  0
  161.3050  203.3870  146.2210 C   0  0  0  0  0  2  0  0  0  0  0  0
  161.2660  203.6240  147.5970 O   0  0  0  0  0  0  0  0  0  0  0  0
  161.0320  202.4810  149.6830 C   0  0  0  0  0  1  0  0  0  0  0  0
  160.9690  202.3840  148.1670 C   0  0  0  0  0  2  0  0  0  0  0  0
  160.6790  207.4220  149.1260 C   0  0  0  0  0  2  0  0  0  0  0  0
  161.1220  207.6490  150.5580 C   0  0  0  0  0  2  0  0  0  0  0  0
  161.4510  206.3150  151.2030 C   0  0  0  0  0  2  0  0  0  0  0  0
  162.4890  206.4970  152.2960 C   0  0  0  0  0  2  0  0  0  0  0  0
  162.1690  207.7440  153.1060 C   0  0  0  0  0  2  0  0  0  0  0  0
  160.7830  207.6310  153.7190 C   0  0  1  0  0  3  0  0  0  0  0  0
  159.6940  208.4920  155.5160 C   0  0  2  0  0  3  0  0  0  0  0  0
  160.7690  206.5340  154.7190 C   0  0  0  0  0  0  0  0  0  0  0  0
  160.4400  207.0600  156.3630 S   0  0  0  0  0  0  0  0  0  0  0  0
  160.4580  208.8320  154.3790 O   0  0  0  0  0  0  0  0  0  0  0  0
  160.8200  205.3580  154.4060 O   0  0  0  0  0  0  0  0  0  0  0  0
  159.2610  212.1070  156.4690 C   0  0  0  0  0  2  0  0  0  0  0  0
  160.7600  212.4270  156.4940 C   0  0  0  0  0  2  0  0  0  0  0  0
  161.6170  211.1540  156.5280 C   0  0  0  0  0  2  0  0  0  0  0  0
  160.8660  209.9900  157.1690 C   0  0  0  0  0  2  0  0  0  0  0  0
  159.0020  210.8840  155.7100 N   0  0  0  0  0  0  0  0  0  0  0  0
  159.5380  209.7100  156.4350 C   0  0  1  0  0  3  0  0  0  0  0  0
  156.9590  211.8270  156.3170 O   0  0  0  0  0  1  0  0  0  0  0  0
  157.5540  210.7450  155.6650 C   0  0  0  0  0  2  0  0  0  0  0  0
  1  2  2  0  0  0  0
  1  7  1  0  0  0  0
  2 43  1  0  0  0  0
  4  5  1  0  0  0  0
  4 11  1  0  0  0  0
  5  8  1  0  0  0  0
  6 11  1  0  0  0  0
  7  6  2  0  0  0  0
  8  3  2  0  0  0  0
  9 10  1  0  0  0  0
  9  7  1  0  0  0  0
 10  4  2  0  0  0  0
 12 15  1  0  0  0  0
 12 16  1  0  0  0  0
 14 13  1  0  0  0  0
 15  8  1  1  0  0  0
 15 14  1  0  0  0  0
 16 13  1  0  0  0  0
 17  2  1  0  0  0  0
 18 17  1  0  0  0  0
 19 38  1  0  0  0  0
 19 18  1  1  0  0  0
 21 20  1  6  0  0  0
 21 19  1  0  0  0  0
 22 21  1  0  0  0  0
 23 22  1  0  0  0  0
 24 25  2  0  0  0  0
 25 23  1  0  0  0  0
 26 25  1  0  0  0  0
 27 33  2  6  0  0  0
 27 29  1  0  0  0  0
 27 32  1  0  0  0  0
 28 30  2  0  0  0  0
 30 26  1  0  0  0  0
 31 27  1  0  0  0  0
 31 36  1  1  0  0  0
 31 28  1  0  0  0  0
 32 30  1  0  0  0  0
 34 36  2  0  0  0  0
 36 35  1  0  0  0  0
 38 39  1  0  0  0  0
 38 37  1  1  0  0  0
 39 40  1  0  0  0  0
 40 42  1  0  0  0  0
 42 41  1  0  0  0  0
 43 44  1  0  0  0  0
 44 45  1  0  0  0  0
 45 46  1  0  0  0  0
 46 47  1  0  0  0  0
 48 47  1  1  0  0  0
 48 52  1  0  0  0  0
 48 50  1  0  0  0  0
 49 52  1  6  0  0  0
 49 51  1  0  0  0  0
 49 59  1  0  0  0  0
 50 51  1  0  0  0  0
 53 50  2  0  0  0  0
 54 55  1  0  0  0  0
 55 56  1  0  0  0  0
 56 57  1  0  0  0  0
 58 59  1  0  0  0  0
 58 54  1  0  0  0  0
 59 57  1  6  0  0  0
 61 58  1  0  0  0  0
 61 60  1  0  0  0  0
M  END
>  <MODEL>
3

>  <REMARK>
 VINA RESULT:      -3.2      2.964      7.693
  Name = 
  23 active torsions:
  status: ('A' for Active; 'I' for Inactive)
    1  A    between atoms: N_3  and  C_24
    2  A    between atoms: C_4  and  C_54
    3  A    between atoms: N_6  and  C_28
    4  A    between atoms: C_9  and  C_46
    5  A    between atoms: C_11  and  C_47
    6  A    between atoms: C_11  and  C_60
    7  A    between atoms: C_12  and  O_32
    8  A    between atoms: C_12  and  C_39
    9  A    between atoms: C_19  and  C_45
   10  A    between atoms: C_19  and  C_47
   11  A    between atoms: C_20  and  C_38
   12  A    between atoms: C_20  and  C_55
   13  A    between atoms: C_21  and  N_40
   14  A    between atoms: C_23  and  O_32
   15  A    between atoms: C_24  and  C_36
   16  A    between atoms: O_25  and  C_31
   17  A    between atoms: O_25  and  C_42
   18  A    between atoms: C_31  and  C_36
   19  A    between atoms: C_31  and  C_39
   20  A    between atoms: C_34  and  C_58
   21  A    between atoms: C_42  and  C_45
   22  A    between atoms: C_48  and  C_61
   23  A    between atoms: C_54  and  C_60
                            x       y       z     vdW  Elec       q    Type
                         _______ _______ _______ _____ _____    ______ ____

>  <TORSDO>
F 23

$$$$
=
 OpenBabel11052412003D

 61 65  0  0  1  0  0  0  0  0999 V2000
  162.2610  209.5820  148.4230 N   0  0  0  0  0  0  0  0  0  0  0  0
  162.1510  210.5750  149.2540 C   0  0  0  0  0  0  0  0  0  0  0  0
  161.9270  203.2060  147.3240 O   0  0  0  0  0  0  0  0  0  0  0  0
  161.8160  205.4540  149.2200 C   0  0  0  0  0  0  0  0  0  0  0  0
  161.2020  204.1660  149.3420 N   0  0  0  0  0  2  0  0  0  0  0  0
  162.5080  207.3060  147.7340 C   0  0  0  0  0  3  0  0  0  0  0  0
  162.3090  208.1770  148.7290 C   0  0  0  0  0  0  0  0  0  0  0  0
  161.2700  203.0920  148.3960 C   0  0  0  0  0  0  0  0  0  0  0  0
  162.2610  207.6530  150.1400 C   0  0  0  0  0  2  0  0  0  0  0  0
  161.6480  206.3220  150.1760 N   0  0  0  0  0  0  0  0  0  0  0  0
  162.6390  205.8350  148.0150 C   0  0  0  0  0  2  0  0  0  0  0  0
  160.8410  201.3160  150.0520 C   0  0  0  0  0  2  0  0  0  0  0  0
  158.4770  201.3310  149.7240 C   0  0  0  0  0  2  0  0  0  0  0  0
  159.0730  202.0770  148.6160 N   0  0  0  0  0  2  0  0  0  0  0  0
  160.5120  201.8380  148.6770 C   0  0  1  0  0  3  0  0  0  0  0  0
  159.5810  200.6220  150.4800 C   0  0  0  0  0  2  0  0  0  0  0  0
  162.1490  211.9620  148.7070 C   0  0  0  0  0  2  0  0  0  0  0  0
  160.8370  212.3610  148.4520 O   0  0  0  0  0  0  0  0  0  0  0  0
  160.8340  212.7800  147.1150 C   0  0  2  0  0  3  0  0  0  0  0  0
  162.5790  214.2820  147.8620 O   0  0  0  0  0  1  0  0  0  0  0  0
  162.1330  213.5250  146.7750 C   0  0  2  0  0  3  0  0  0  0  0  0
  161.9630  214.4020  145.5430 C   0  0  0  0  0  2  0  0  0  0  0  0
  162.8640  213.9750  144.4840 N   0  0  0  0  0  2  0  0  0  0  0  0
  163.3070  212.8180  142.5230 O   0  0  0  0  0  0  0  0  0  0  0  0
  162.4880  213.0650  143.4470 C   0  0  0  0  0  0  0  0  0  0  0  0
  161.1420  212.4160  143.4370 C   0  0  0  0  0  2  0  0  0  0  0  0
  159.8140  212.5540  139.6920 P   0  0  1  0  0  0  0  0  0  0  0  0
  160.5930  210.9500  141.5720 N   0  0  0  0  0  0  0  0  0  0  0  0
  160.7720  213.0920  138.4040 O   0  0  0  0  0  0  0  0  0  0  0  0
  160.6760  212.1590  142.0430 C   0  0  0  0  0  0  0  0  0  0  0  0
  160.1210  210.8430  140.1910 C   0  0  2  0  0  3  0  0  0  0  0  0
  160.3270  213.1900  141.1790 O   0  0  0  0  0  0  0  0  0  0  0  0
  158.3420  212.8220  139.4560 O   0  0  0  0  0  1  0  0  0  0  0  0
  161.0350  210.1870  137.9510 O   0  0  0  0  0  0  0  0  0  0  0  0
  162.1870  209.6990  139.8690 O   0  0  0  0  0  1  0  0  0  0  0  0
  161.1720  210.2150  139.3330 C   0  0  0  0  0  0  0  0  0  0  0  0
  159.8070  214.4270  145.7040 O   0  0  0  0  0  1  0  0  0  0  0  0
  159.5630  213.5700  146.7800 C   0  0  1  0  0  3  0  0  0  0  0  0
  158.3810  212.6630  146.4610 C   0  0  0  0  0  2  0  0  0  0  0  0
  157.2810  213.4380  146.0920 O   0  0  0  0  0  0  0  0  0  0  0  0
  155.8590  214.4320  147.7370 C   0  0  0  0  0  1  0  0  0  0  0  0
  157.2170  214.4510  147.0520 C   0  0  0  0  0  2  0  0  0  0  0  0
  161.9320  210.3780  150.7240 C   0  0  0  0  0  2  0  0  0  0  0  0
  160.5220  210.7730  151.1200 C   0  0  0  0  0  2  0  0  0  0  0  0
  160.0090  209.8170  152.1820 C   0  0  0  0  0  2  0  0  0  0  0  0
  160.8090  209.9700  153.4630 C   0  0  0  0  0  2  0  0  0  0  0  0
  160.2500  209.0430  154.5310 C   0  0  0  0  0  2  0  0  0  0  0  0
  159.6350  209.8520  155.6610 C   0  0  1  0  0  3  0  0  0  0  0  0
  158.6550  211.8870  155.8950 C   0  0  2  0  0  3  0  0  0  0  0  0
  160.6740  210.7070  156.2850 C   0  0  0  0  0  0  0  0  0  0  0  0
  160.3790  212.4320  156.1310 S   0  0  0  0  0  0  0  0  0  0  0  0
  158.6250  210.6900  155.1470 O   0  0  0  0  0  0  0  0  0  0  0  0
  161.5680  210.2560  156.9800 O   0  0  0  0  0  0  0  0  0  0  0  0
  156.0070  213.3030  153.6250 C   0  0  0  0  0  2  0  0  0  0  0  0
  156.9310  213.4640  152.4130 C   0  0  0  0  0  2  0  0  0  0  0  0
  158.4130  213.3740  152.8060 C   0  0  0  0  0  2  0  0  0  0  0  0
  158.6350  213.8010  154.2550 C   0  0  0  0  0  2  0  0  0  0  0  0
  156.5770  212.3670  154.5940 N   0  0  0  0  0  0  0  0  0  0  0  0
  157.7810  212.9550  155.2230 C   0  0  1  0  0  3  0  0  0  0  0  0
  155.9870  212.8800  156.7890 O   0  0  0  0  0  1  0  0  0  0  0  0
  155.5720  212.2150  155.6350 C   0  0  0  0  0  2  0  0  0  0  0  0
  1  7  1  0  0  0  0
  1  2  2  0  0  0  0
  2 43  1  0  0  0  0
  3  8  2  0  0  0  0
  4  5  1  0  0  0  0
  4 10  2  0  0  0  0
  6 11  1  0  0  0  0
  6  7  2  0  0  0  0
  7  9  1  0  0  0  0
  8  5  1  0  0  0  0
  9 10  1  0  0  0  0
 11  4  1  0  0  0  0
 12 16  1  0  0  0  0
 13 16  1  0  0  0  0
 14 15  1  0  0  0  0
 14 13  1  0  0  0  0
 15  8  1  1  0  0  0
 15 12  1  0  0  0  0
 17  2  1  0  0  0  0
 18 17  1  0  0  0  0
 19 18  1  1  0  0  0
 21 19  1  0  0  0  0
 21 20  1  1  0  0  0
 22 21  1  0  0  0  0
 23 22  1  0  0  0  0
 24 25  2  0  0  0  0
 25 23  1  0  0  0  0
 26 25  1  0  0  0  0
 27 29  2  6  0  0  0
 27 31  1  0  0  0  0
 27 32  1  0  0  0  0
 28 30  2  0  0  0  0
 30 26  1  0  0  0  0
 31 36  1  6  0  0  0
 31 28  1  0  0  0  0
 32 30  1  0  0  0  0
 33 27  1  0  0  0  0
 34 36  2  0  0  0  0
 36 35  1  0  0  0  0
 38 37  1  6  0  0  0
 38 19  1  0  0  0  0
 39 38  1  0  0  0  0
 40 39  1  0  0  0  0
 40 42  1  0  0  0  0
 42 41  1  0  0  0  0
 43 44  1  0  0  0  0
 44 45  1  0  0  0  0
 45 46  1  0  0  0  0
 46 47  1  0  0  0  0
 48 47  1  6  0  0  0
 48 50  1  0  0  0  0
 49 52  1  6  0  0  0
 49 51  1  0  0  0  0
 50 53  2  0  0  0  0
 51 50  1  0  0  0  0
 52 48  1  0  0  0  0
 54 58  1  0  0  0  0
 55 56  1  0  0  0  0
 55 54  1  0  0  0  0
 56 57  1  0  0  0  0
 58 59  1  0  0  0  0
 58 61  1  0  0  0  0
 59 57  1  6  0  0  0
 59 49  1  0  0  0  0
 61 60  1  0  0  0  0
M  END
>  <MODEL>
4

>  <REMARK>
 VINA RESULT:      -2.9      1.943      2.318
  Name = 
  23 active torsions:
  status: ('A' for Active; 'I' for Inactive)
    1  A    between atoms: N_3  and  C_24
    2  A    between atoms: C_4  and  C_54
    3  A    between atoms: N_6  and  C_28
    4  A    between atoms: C_9  and  C_46
    5  A    between atoms: C_11  and  C_47
    6  A    between atoms: C_11  and  C_60
    7  A    between atoms: C_12  and  O_32
    8  A    between atoms: C_12  and  C_39
    9  A    between atoms: C_19  and  C_45
   10  A    between atoms: C_19  and  C_47
   11  A    between atoms: C_20  and  C_38
   12  A    between atoms: C_20  and  C_55
   13  A    between atoms: C_21  and  N_40
   14  A    between atoms: C_23  and  O_32
   15  A    between atoms: C_24  and  C_36
   16  A    between atoms: O_25  and  C_31
   17  A    between atoms: O_25  and  C_42
   18  A    between atoms: C_31  and  C_36
   19  A    between atoms: C_31  and  C_39
   20  A    between atoms: C_34  and  C_58
   21  A    between atoms: C_42  and  C_45
   22  A    between atoms: C_48  and  C_61
   23  A    between atoms: C_54  and  C_60
                            x       y       z     vdW  Elec       q    Type
                         _______ _______ _______ _____ _____    ______ ____

>  <TORSDO>
F 23

$$$$
=
 OpenBabel11052412003D

 61 65  0  0  1  0  0  0  0  0999 V2000
  162.1770  208.5510  148.2250 N   0  0  0  0  0  0  0  0  0  0  0  0
  161.9010  209.3140  149.2400 C   0  0  0  0  0  0  0  0  0  0  0  0
  162.0500  202.6450  145.5660 O   0  0  0  0  0  0  0  0  0  0  0  0
  161.6630  204.3660  147.9220 C   0  0  0  0  0  0  0  0  0  0  0  0
  161.0500  203.1020  147.6420 N   0  0  0  0  0  2  0  0  0  0  0  0
  162.5350  206.5060  147.0400 C   0  0  0  0  0  3  0  0  0  0  0  0
  162.1950  207.1130  148.1820 C   0  0  0  0  0  0  0  0  0  0  0  0
  161.2550  202.2900  146.4810 C   0  0  0  0  0  0  0  0  0  0  0  0
  161.9610  206.2630  149.4030 C   0  0  0  0  0  2  0  0  0  0  0  0
  161.3600  204.9790  149.0300 N   0  0  0  0  0  0  0  0  0  0  0  0
  162.6400  205.0070  146.9680 C   0  0  0  0  0  2  0  0  0  0  0  0
  160.0600  200.8140  144.9090 C   0  0  0  0  0  2  0  0  0  0  0  0
  161.0010  198.8070  145.7950 C   0  0  0  0  0  2  0  0  0  0  0  0
  161.2750  199.8740  146.7550 N   0  0  0  0  0  2  0  0  0  0  0  0
  160.4760  201.0240  146.3420 C   0  0  1  0  0  3  0  0  0  0  0  0
  160.0110  199.3200  144.7690 C   0  0  0  0  0  2  0  0  0  0  0  0
  161.9720  210.7930  149.0570 C   0  0  0  0  0  2  0  0  0  0  0  0
  160.6810  211.3130  148.9620 O   0  0  0  0  0  0  0  0  0  0  0  0
  160.7160  212.1840  147.8640 C   0  0  2  0  0  3  0  0  0  0  0  0
  163.0380  212.4460  148.4980 O   0  0  0  0  0  1  0  0  0  0  0  0
  162.1630  212.4260  147.4080 C   0  0  2  0  0  3  0  0  0  0  0  0
  162.2820  213.7100  146.6000 C   0  0  0  0  0  2  0  0  0  0  0  0
  163.0050  213.4680  145.3620 N   0  0  0  0  0  2  0  0  0  0  0  0
  163.0660  212.9760  143.0960 O   0  0  0  0  0  0  0  0  0  0  0  0
  162.3700  213.0790  144.1400 C   0  0  0  0  0  0  0  0  0  0  0  0
  160.9020  212.8070  144.0830 C   0  0  0  0  0  2  0  0  0  0  0  0
  159.4030  212.7500  140.4010 P   0  0  1  0  0  0  0  0  0  0  0  0
  160.7200  211.3510  142.1410 N   0  0  0  0  0  0  0  0  0  0  0  0
  160.0900  213.6220  139.1230 O   0  0  0  0  0  0  0  0  0  0  0  0
  160.4630  212.5010  142.6900 C   0  0  0  0  0  0  0  0  0  0  0  0
  160.2320  211.1850  140.7710 C   0  0  2  0  0  3  0  0  0  0  0  0
  159.7790  213.4260  141.9120 O   0  0  0  0  0  0  0  0  0  0  0  0
  157.9080  212.5750  140.2310 O   0  0  0  0  0  1  0  0  0  0  0  0
  162.6410  211.4440  140.1320 O   0  0  0  0  0  1  0  0  0  0  0  0
  161.1900  210.3090  138.7720 O   0  0  0  0  0  0  0  0  0  0  0  0
  161.3770  210.9520  139.8380 C   0  0  0  0  0  0  0  0  0  0  0  0
  160.7950  214.4500  148.6470 O   0  0  0  0  0  1  0  0  0  0  0  0
  159.9330  213.4710  148.1460 C   0  0  1  0  0  3  0  0  0  0  0  0
  159.2150  213.9980  146.9100 C   0  0  0  0  0  2  0  0  0  0  0  0
  158.0670  213.2390  146.6750 O   0  0  0  0  0  0  0  0  0  0  0  0
  157.4710  213.9230  148.8880 C   0  0  0  0  0  1  0  0  0  0  0  0
  157.0650  213.8620  147.4230 C   0  0  0  0  0  2  0  0  0  0  0  0
  161.4230  208.7710  150.5530 C   0  0  0  0  0  2  0  0  0  0  0  0
  162.4870  208.9200  151.6230 C   0  0  0  0  0  2  0  0  0  0  0  0
  162.1800  210.1390  152.4740 C   0  0  0  0  0  2  0  0  0  0  0  0
  160.6900  210.4240  152.4740 C   0  0  0  0  0  2  0  0  0  0  0  0
  160.4530  211.9180  152.6250 C   0  0  0  0  0  2  0  0  0  0  0  0
  160.0220  212.2420  154.0460 C   0  0  1  0  0  3  0  0  0  0  0  0
  159.8150  211.1190  156.0080 C   0  0  2  0  0  3  0  0  0  0  0  0
  158.5670  211.9960  154.1930 C   0  0  0  0  0  0  0  0  0  0  0  0
  158.1600  210.7340  155.3460 S   0  0  0  0  0  0  0  0  0  0  0  0
  160.7040  211.4040  154.9500 O   0  0  0  0  0  0  0  0  0  0  0  0
  157.7230  212.7120  153.6830 O   0  0  0  0  0  0  0  0  0  0  0  0
  162.0350  208.2450  156.9940 C   0  0  0  0  0  2  0  0  0  0  0  0
  161.1410  207.1590  156.3840 C   0  0  0  0  0  2  0  0  0  0  0  0
  159.7310  207.6850  156.0770 C   0  0  0  0  0  2  0  0  0  0  0  0
  159.3540  208.8460  156.9940 C   0  0  0  0  0  2  0  0  0  0  0  0
  161.7180  209.5580  156.4340 N   0  0  0  0  0  0  0  0  0  0  0  0
  160.3790  209.9950  156.8880 C   0  0  1  0  0  3  0  0  0  0  0  0
  163.3770  211.1290  155.9750 O   0  0  0  0  0  1  0  0  0  0  0  0
  162.6920  210.4770  157.0020 C   0  0  0  0  0  2  0  0  0  0  0  0
  1  2  2  0  0  0  0
  2 43  1  0  0  0  0
  3  8  2  0  0  0  0
  4 10  2  0  0  0  0
  5  4  1  0  0  0  0
  6  7  2  0  0  0  0
  7  1  1  0  0  0  0
  7  9  1  0  0  0  0
  8  5  1  0  0  0  0
 10  9  1  0  0  0  0
 11  6  1  0  0  0  0
 11  4  1  0  0  0  0
 12 15  1  0  0  0  0
 13 14  1  0  0  0  0
 15  8  1  6  0  0  0
 15 14  1  0  0  0  0
 16 12  1  0  0  0  0
 16 13  1  0  0  0  0
 17  2  1  0  0  0  0
 18 17  1  0  0  0  0
 19 38  1  0  0  0  0
 19 18  1  1  0  0  0
 21 19  1  0  0  0  0
 21 20  1  1  0  0  0
 22 21  1  0  0  0  0
 23 22  1  0  0  0  0
 24 25  2  0  0  0  0
 25 23  1  0  0  0  0
 26 25  1  0  0  0  0
 27 29  2  6  0  0  0
 27 31  1  0  0  0  0
 27 32  1  0  0  0  0
 28 30  2  0  0  0  0
 30 26  1  0  0  0  0
 31 36  1  6  0  0  0
 31 28  1  0  0  0  0
 32 30  1  0  0  0  0
 33 27  1  0  0  0  0
 35 36  2  0  0  0  0
 36 34  1  0  0  0  0
 38 37  1  6  0  0  0
 39 38  1  0  0  0  0
 40 39  1  0  0  0  0
 40 42  1  0  0  0  0
 42 41  1  0  0  0  0
 43 44  1  0  0  0  0
 44 45  1  0  0  0  0
 45 46  1  0  0  0  0
 46 47  1  0  0  0  0
 48 47  1  6  0  0  0
 48 50  1  0  0  0  0
 48 52  1  0  0  0  0
 49 52  1  6  0  0  0
 49 59  1  0  0  0  0
 50 51  1  0  0  0  0
 51 49  1  0  0  0  0
 53 50  2  0  0  0  0
 55 54  1  0  0  0  0
 56 55  1  0  0  0  0
 56 57  1  0  0  0  0
 58 59  1  0  0  0  0
 58 54  1  0  0  0  0
 58 61  1  0  0  0  0
 59 57  1  6  0  0  0
 60 61  1  0  0  0  0
M  END
>  <MODEL>
5

>  <REMARK>
 VINA RESULT:      -2.8      1.807      3.075
  Name = 
  23 active torsions:
  status: ('A' for Active; 'I' for Inactive)
    1  A    between atoms: N_3  and  C_24
    2  A    between atoms: C_4  and  C_54
    3  A    between atoms: N_6  and  C_28
    4  A    between atoms: C_9  and  C_46
    5  A    between atoms: C_11  and  C_47
    6  A    between atoms: C_11  and  C_60
    7  A    between atoms: C_12  and  O_32
    8  A    between atoms: C_12  and  C_39
    9  A    between atoms: C_19  and  C_45
   10  A    between atoms: C_19  and  C_47
   11  A    between atoms: C_20  and  C_38
   12  A    between atoms: C_20  and  C_55
   13  A    between atoms: C_21  and  N_40
   14  A    between atoms: C_23  and  O_32
   15  A    between atoms: C_24  and  C_36
   16  A    between atoms: O_25  and  C_31
   17  A    between atoms: O_25  and  C_42
   18  A    between atoms: C_31  and  C_36
   19  A    between atoms: C_31  and  C_39
   20  A    between atoms: C_34  and  C_58
   21  A    between atoms: C_42  and  C_45
   22  A    between atoms: C_48  and  C_61
   23  A    between atoms: C_54  and  C_60
                            x       y       z     vdW  Elec       q    Type
                         _______ _______ _______ _____ _____    ______ ____

>  <TORSDO>
F 23

$$$$
