=
 OpenBabel11042422483D

 38 44  0  0  1  0  0  0  0  0999 V2000
  162.5120  206.9070  147.2060 C   0  0  0  0  0  2  0  0  0  0  0  0
  161.0360  205.9730  151.1120 C   0  0  1  0  0  3  0  0  0  0  0  0
  160.9210  207.6650  152.9540 C   0  0  0  0  0  3  0  0  0  0  0  0
  161.1560  206.2020  147.2540 C   0  0  2  0  0  3  0  0  0  0  0  0
  160.2570  209.6180  157.0920 C   0  0  0  0  0  3  0  0  0  0  0  0
  161.3190  208.9770  153.5400 C   0  0  0  0  0  0  0  0  0  0  0  0
  161.0540  208.9710  155.0200 C   0  0  0  0  0  0  0  0  0  0  0  0
  162.1340  207.4570  149.5640 N   0  0  0  0  0  0  0  0  0  0  0  0
  161.5720  209.5680  150.6010 C   0  0  0  0  0  3  0  0  0  0  0  0
  161.7140  208.2370  150.6720 C   0  0  0  0  0  0  0  0  0  0  0  0
  161.5810  208.0140  155.9190 N   0  0  0  0  0  0  0  0  0  0  0  0
  161.1520  207.3570  151.6790 C   0  0  0  0  0  0  0  0  0  0  0  0
  159.8600  211.1360  153.6060 C   0  0  0  0  0  0  0  0  0  0  0  0
  160.8310  205.5840  148.6250 C   0  0  0  0  0  2  0  0  0  0  0  0
  161.1130  208.3540  157.2570 C   0  0  0  0  0  3  0  0  0  0  0  0
  159.6980  210.9960  154.9250 C   0  0  0  0  0  3  0  0  0  0  0  0
  161.1020  205.2150  146.2710 O   0  0  0  0  0  1  0  0  0  0  0  0
  161.7560  206.0550  149.7530 C   0  0  2  0  0  3  0  0  0  0  0  0
  162.5620  207.9960  148.2740 C   0  0  0  0  0  2  0  0  0  0  0  0
  160.6700  210.1530  152.8290 C   0  0  0  0  0  0  0  0  0  0  0  0
  160.3240  209.8760  155.6310 C   0  0  0  0  0  0  0  0  0  0  0  0
  160.8890  210.3890  151.5660 N   0  0  0  0  0  0  0  0  0  0  0  0
  161.6950  204.9490  151.9910 C   0  0  0  0  0  0  0  0  0  0  0  0
  162.7000  205.2320  152.6320 O   0  0  0  0  0  0  0  0  0  0  0  0
  159.7060  203.5510  151.4800 C   0  0  0  0  0  2  0  0  0  0  0  0
  161.9020  202.5710  151.3420 C   0  0  0  0  0  2  0  0  0  0  0  0
  161.0810  203.5880  152.1030 C   0  0  1  0  0  3  0  0  0  0  0  0
  160.9780  201.6990  150.6290 N   0  0  0  0  0  0  0  0  0  0  0  0
  159.7890  202.5040  150.3900 C   0  0  0  0  0  2  0  0  0  0  0  0
  161.5630  201.4160  149.3290 C   0  0  0  0  0  2  0  0  0  0  0  0
  160.5630  201.7230  148.2270 C   0  0  0  0  0  2  0  0  0  0  0  0
  161.2440  202.0740  147.0560 O   0  0  0  0  0  0  0  0  0  0  0  0
  159.3550  201.3180  145.9720 O   0  0  0  0  0  0  0  0  0  0  0  0
  160.7560  201.2300  146.0480 C   0  0  1  0  0  0  0  0  0  0  0  0
  160.0810  201.8470  144.8860 C   0  0  0  0  0  2  0  0  0  0  0  0
  161.2060  199.7790  146.0080 C   0  0  0  0  0  1  0  0  0  0  0  0
  158.7240  213.1520  152.4270 N   0  0  0  0  0  0  0  0  0  0  0  0
  159.2300  212.2540  152.9520 C   0  0  0  0  0  0  0  0  0  0  0  0
  1  4  1  0  0  0  0
  1 19  1  0  0  0  0
  2 12  1  0  0  0  0
  2 23  1  1  0  0  0
  3  6  1  0  0  0  0
  4 17  1  6  0  0  0
  4 14  1  0  0  0  0
  5 15  1  0  0  0  0
  6  7  2  0  0  0  0
  7 21  1  0  0  0  0
  7 11  1  0  0  0  0
  8 18  1  0  0  0  0
  8 10  1  0  0  0  0
  9 10  2  0  0  0  0
  9 22  1  0  0  0  0
 10 12  1  0  0  0  0
 11 15  2  0  0  0  0
 12  3  2  0  0  0  0
 13 16  2  0  0  0  0
 16 21  1  0  0  0  0
 18 14  1  6  0  0  0
 18  2  1  0  0  0  0
 19  8  1  0  0  0  0
 20  6  1  0  0  0  0
 20 13  1  0  0  0  0
 21  5  2  0  0  0  0
 22 20  2  0  0  0  0
 23 24  2  0  0  0  0
 25 27  1  0  0  0  0
 26 27  1  0  0  0  0
 27 23  1  6  0  0  0
 28 26  1  0  0  0  0
 29 28  1  0  0  0  0
 29 25  1  0  0  0  0
 30 28  1  0  0  0  0
 31 30  1  0  0  0  0
 32 31  1  0  0  0  0
 33 34  1  0  0  0  0
 34 36  1  6  0  0  0
 34 32  1  0  0  0  0
 35 33  1  0  0  0  0
 35 34  1  0  0  0  0
 37 38  3  0  0  0  0
 38 13  1  0  0  0  0
M  END
>  <MODEL>
1

>  <REMARK>
 VINA RESULT:      -6.5      0.000      0.000
  Name = 
  7 active torsions:
  status: ('A' for Active; 'I' for Inactive)
    1  A    between atoms: C_3  and  C_14
    2  A    between atoms: C_13  and  O_34
    3  A    between atoms: C_14  and  C_17
    4  A    between atoms: C_15  and  C_29
    5  A    between atoms: C_15  and  N_36
    6  A    between atoms: C_21  and  C_33
    7  A    between atoms: C_29  and  O_34
                            x       y       z     vdW  Elec       q    Type
                         _______ _______ _______ _____ _____    ______ ____

>  <TORSDO>
F 7

$$$$
=
 OpenBabel11042422483D

 38 44  0  0  1  0  0  0  0  0999 V2000
  161.3620  210.7820  156.7720 C   0  0  0  0  0  2  0  0  0  0  0  0
  160.1540  210.4510  152.6820 C   0  0  1  0  0  3  0  0  0  0  0  0
  160.8360  208.5350  151.2220 C   0  0  0  0  0  3  0  0  0  0  0  0
  159.8660  210.9490  156.5050 C   0  0  2  0  0  3  0  0  0  0  0  0
  161.3770  205.7890  147.5400 C   0  0  0  0  0  3  0  0  0  0  0  0
  161.7180  207.3650  150.9400 C   0  0  0  0  0  0  0  0  0  0  0  0
  161.6500  207.0220  149.4770 C   0  0  0  0  0  0  0  0  0  0  0  0
  161.4830  209.7370  154.5600 N   0  0  0  0  0  0  0  0  0  0  0  0
  161.7880  207.4170  153.9470 C   0  0  0  0  0  3  0  0  0  0  0  0
  161.4870  208.6800  153.6130 C   0  0  0  0  0  0  0  0  0  0  0  0
  161.9360  207.9330  148.4330 N   0  0  0  0  0  0  0  0  0  0  0  0
  160.7930  209.1200  152.4180 C   0  0  0  0  0  0  0  0  0  0  0  0
  161.0800  204.8560  151.2360 C   0  0  0  0  0  0  0  0  0  0  0  0
  159.5260  211.1670  155.0200 C   0  0  0  0  0  2  0  0  0  0  0  0
  161.7760  207.2250  147.1690 C   0  0  0  0  0  3  0  0  0  0  0  0
  161.0450  204.6990  149.9090 C   0  0  0  0  0  3  0  0  0  0  0  0
  159.3660  212.0080  157.2610 O   0  0  0  0  0  1  0  0  0  0  0  0
  160.6870  210.8620  154.0670 C   0  0  2  0  0  3  0  0  0  0  0  0
  161.9040  209.6140  155.9550 C   0  0  0  0  0  2  0  0  0  0  0  0
  161.4140  206.1780  151.8390 C   0  0  0  0  0  0  0  0  0  0  0  0
  161.3440  205.8280  149.0240 C   0  0  0  0  0  0  0  0  0  0  0  0
  161.5410  206.2560  153.1340 N   0  0  0  0  0  0  0  0  0  0  0  0
  160.5380  211.4730  151.6490 C   0  0  0  0  0  0  0  0  0  0  0  0
  161.3340  211.1920  150.7620 O   0  0  0  0  0  0  0  0  0  0  0  0
  160.4440  213.7320  150.6220 C   0  0  0  0  0  2  0  0  0  0  0  0
  158.4140  212.7250  151.4390 C   0  0  0  0  0  2  0  0  0  0  0  0
  159.9010  212.8270  151.7010 C   0  0  1  0  0  3  0  0  0  0  0  0
  158.0440  213.8210  150.5530 N   0  0  0  0  0  0  0  0  0  0  0  0
  159.2440  214.1240  149.7860 C   0  0  0  0  0  2  0  0  0  0  0  0
  157.0630  213.3070  149.6120 C   0  0  0  0  0  2  0  0  0  0  0  0
  157.4150  213.7400  148.1990 C   0  0  0  0  0  2  0  0  0  0  0  0
  157.2380  212.6670  147.3180 O   0  0  0  0  0  0  0  0  0  0  0  0
  158.9140  213.5860  146.0310 O   0  0  0  0  0  0  0  0  0  0  0  0
  157.5810  213.1410  146.0450 C   0  0  1  0  0  0  0  0  0  0  0  0
  158.6290  212.4210  145.2900 C   0  0  0  0  0  2  0  0  0  0  0  0
  156.6720  214.1440  145.3530 C   0  0  0  0  0  1  0  0  0  0  0  0
  160.5440  202.8050  152.7370 N   0  0  0  0  0  0  0  0  0  0  0  0
  160.7830  203.7190  152.0680 C   0  0  0  0  0  0  0  0  0  0  0  0
  2 23  1  6  0  0  0
  2 18  1  0  0  0  0
  3 12  1  0  0  0  0
  4  1  1  0  0  0  0
  4 17  1  1  0  0  0
  5 21  1  0  0  0  0
  6  3  2  0  0  0  0
  6 20  1  0  0  0  0
  7  6  1  0  0  0  0
  8 19  1  0  0  0  0
 10  9  1  0  0  0  0
 10  8  1  0  0  0  0
 11  7  2  0  0  0  0
 12  2  1  0  0  0  0
 12 10  2  0  0  0  0
 13 20  2  0  0  0  0
 13 38  1  0  0  0  0
 14  4  1  0  0  0  0
 15  5  2  0  0  0  0
 15 11  1  0  0  0  0
 16 13  1  0  0  0  0
 18  8  1  0  0  0  0
 18 14  1  1  0  0  0
 19  1  1  0  0  0  0
 20 22  1  0  0  0  0
 21  7  1  0  0  0  0
 21 16  2  0  0  0  0
 22  9  2  0  0  0  0
 24 23  2  0  0  0  0
 25 27  1  0  0  0  0
 26 27  1  0  0  0  0
 27 23  1  6  0  0  0
 28 26  1  0  0  0  0
 29 28  1  0  0  0  0
 29 25  1  0  0  0  0
 30 28  1  0  0  0  0
 31 30  1  0  0  0  0
 32 31  1  0  0  0  0
 33 34  1  0  0  0  0
 34 36  1  6  0  0  0
 34 32  1  0  0  0  0
 35 33  1  0  0  0  0
 35 34  1  0  0  0  0
 38 37  3  0  0  0  0
M  END
>  <MODEL>
2

>  <REMARK>
 VINA RESULT:      -6.5      3.808      9.081
  Name = 
  7 active torsions:
  status: ('A' for Active; 'I' for Inactive)
    1  A    between atoms: C_3  and  C_14
    2  A    between atoms: C_13  and  O_34
    3  A    between atoms: C_14  and  C_17
    4  A    between atoms: C_15  and  C_29
    5  A    between atoms: C_15  and  N_36
    6  A    between atoms: C_21  and  C_33
    7  A    between atoms: C_29  and  O_34
                            x       y       z     vdW  Elec       q    Type
                         _______ _______ _______ _____ _____    ______ ____

>  <TORSDO>
F 7

$$$$
=
 OpenBabel11042422483D

 38 44  0  0  1  0  0  0  0  0999 V2000
  161.6280  208.3910  154.5620 C   0  0  0  0  0  2  0  0  0  0  0  0
  161.0970  208.4090  150.3170 C   0  0  1  0  0  3  0  0  0  0  0  0
  161.4410  206.3720  148.9030 C   0  0  0  0  0  3  0  0  0  0  0  0
  160.3120  208.9840  154.0590 C   0  0  2  0  0  3  0  0  0  0  0  0
  161.7940  203.5740  145.2380 C   0  0  0  0  0  3  0  0  0  0  0  0
  161.9840  204.9960  148.7170 C   0  0  0  0  0  0  0  0  0  0  0  0
  162.0730  204.6810  147.2490 C   0  0  0  0  0  0  0  0  0  0  0  0
  161.8220  207.3470  152.3540 N   0  0  0  0  0  0  0  0  0  0  0  0
  161.5490  205.0370  151.6930 C   0  0  0  0  0  3  0  0  0  0  0  0
  161.6840  206.3310  151.3730 C   0  0  0  0  0  0  0  0  0  0  0  0
  162.7830  205.4650  146.3090 N   0  0  0  0  0  0  0  0  0  0  0  0
  161.3620  206.9490  150.1010 C   0  0  0  0  0  0  0  0  0  0  0  0
  160.6120  202.7810  148.7870 C   0  0  0  0  0  0  0  0  0  0  0  0
  160.3080  209.2860  152.5500 C   0  0  0  0  0  2  0  0  0  0  0  0
  162.6460  204.8300  145.0050 C   0  0  0  0  0  3  0  0  0  0  0  0
  160.7610  202.6360  147.4670 C   0  0  0  0  0  3  0  0  0  0  0  0
  160.0150  210.1460  154.7700 O   0  0  0  0  0  1  0  0  0  0  0  0
  161.4790  208.6530  151.7890 C   0  0  2  0  0  3  0  0  0  0  0  0
  161.9440  207.1120  153.7920 C   0  0  0  0  0  2  0  0  0  0  0  0
  161.2030  203.9510  149.4980 C   0  0  0  0  0  0  0  0  0  0  0  0
  161.5200  203.6260  146.6970 C   0  0  0  0  0  0  0  0  0  0  0  0
  161.1230  203.9940  150.7980 N   0  0  0  0  0  0  0  0  0  0  0  0
  161.9290  209.2710  149.4110 C   0  0  0  0  0  0  0  0  0  0  0  0
  162.4040  208.8130  148.3790 O   0  0  0  0  0  0  0  0  0  0  0  0
  163.1540  211.3630  148.8670 C   0  0  0  0  0  2  0  0  0  0  0  0
  160.8540  211.4940  149.5730 C   0  0  0  0  0  2  0  0  0  0  0  0
  162.1340  210.7100  149.7690 C   0  0  1  0  0  3  0  0  0  0  0  0
  161.2040  212.7630  148.9490 N   0  0  0  0  0  0  0  0  0  0  0  0
  162.4230  212.5050  148.1950 C   0  0  0  0  0  2  0  0  0  0  0  0
  160.1660  213.0700  147.9770 C   0  0  0  0  0  2  0  0  0  0  0  0
  160.4560  212.3670  146.6620 C   0  0  0  0  0  2  0  0  0  0  0  0
  159.4920  212.7250  145.7130 O   0  0  0  0  0  0  0  0  0  0  0  0
  159.8560  211.7970  143.6350 O   0  0  0  0  0  0  0  0  0  0  0  0
  160.1700  212.8640  144.4950 C   0  0  1  0  0  0  0  0  0  0  0  0
  159.3690  213.0680  143.2680 C   0  0  0  0  0  2  0  0  0  0  0  0
  161.6660  213.1280  144.5000 C   0  0  0  0  0  1  0  0  0  0  0  0
  159.2600  200.9810  150.0820 N   0  0  0  0  0  0  0  0  0  0  0  0
  159.8620  201.7830  149.5050 C   0  0  0  0  0  0  0  0  0  0  0  0
  2 23  1  6  0  0  0
  2 18  1  0  0  0  0
  3 12  1  0  0  0  0
  4  1  1  0  0  0  0
  4 17  1  1  0  0  0
  5 21  1  0  0  0  0
  6  3  2  0  0  0  0
  6 20  1  0  0  0  0
  7  6  1  0  0  0  0
  8 19  1  0  0  0  0
 10  9  1  0  0  0  0
 10  8  1  0  0  0  0
 11  7  2  0  0  0  0
 12  2  1  0  0  0  0
 12 10  2  0  0  0  0
 13 20  2  0  0  0  0
 13 38  1  0  0  0  0
 14  4  1  0  0  0  0
 15  5  2  0  0  0  0
 15 11  1  0  0  0  0
 16 13  1  0  0  0  0
 18  8  1  0  0  0  0
 18 14  1  1  0  0  0
 19  1  1  0  0  0  0
 20 22  1  0  0  0  0
 21  7  1  0  0  0  0
 21 16  2  0  0  0  0
 22  9  2  0  0  0  0
 24 23  2  0  0  0  0
 25 27  1  0  0  0  0
 26 27  1  0  0  0  0
 27 23  1  6  0  0  0
 28 26  1  0  0  0  0
 29 25  1  0  0  0  0
 29 28  1  0  0  0  0
 30 28  1  0  0  0  0
 31 30  1  0  0  0  0
 32 31  1  0  0  0  0
 33 34  1  0  0  0  0
 34 36  1  1  0  0  0
 34 32  1  0  0  0  0
 35 33  1  0  0  0  0
 35 34  1  0  0  0  0
 38 37  3  0  0  0  0
M  END
>  <MODEL>
3

>  <REMARK>
 VINA RESULT:      -5.9      3.554      8.982
  Name = 
  7 active torsions:
  status: ('A' for Active; 'I' for Inactive)
    1  A    between atoms: C_3  and  C_14
    2  A    between atoms: C_13  and  O_34
    3  A    between atoms: C_14  and  C_17
    4  A    between atoms: C_15  and  C_29
    5  A    between atoms: C_15  and  N_36
    6  A    between atoms: C_21  and  C_33
    7  A    between atoms: C_29  and  O_34
                            x       y       z     vdW  Elec       q    Type
                         _______ _______ _______ _____ _____    ______ ____

>  <TORSDO>
F 7

$$$$
=
 OpenBabel11042422483D

 38 44  0  0  1  0  0  0  0  0999 V2000
  161.3810  210.4730  156.8070 C   0  0  0  0  0  2  0  0  0  0  0  0
  160.2560  210.2560  152.6850 C   0  0  1  0  0  3  0  0  0  0  0  0
  160.8470  208.3130  151.2230 C   0  0  0  0  0  3  0  0  0  0  0  0
  159.9060  210.7390  156.5060 C   0  0  2  0  0  3  0  0  0  0  0  0
  161.2990  205.5700  147.5270 C   0  0  0  0  0  3  0  0  0  0  0  0
  161.6580  207.0910  150.9510 C   0  0  0  0  0  0  0  0  0  0  0  0
  161.6040  206.7650  149.4830 C   0  0  0  0  0  0  0  0  0  0  0  0
  161.4880  209.4410  154.5880 N   0  0  0  0  0  0  0  0  0  0  0  0
  161.6570  207.1120  153.9590 C   0  0  0  0  0  3  0  0  0  0  0  0
  161.4460  208.3940  153.6300 C   0  0  0  0  0  0  0  0  0  0  0  0
  161.9740  207.6640  148.4550 N   0  0  0  0  0  0  0  0  0  0  0  0
  160.8130  208.8890  152.4230 C   0  0  0  0  0  0  0  0  0  0  0  0
  160.8510  204.6250  151.2050 C   0  0  0  0  0  0  0  0  0  0  0  0
  159.6170  210.9910  155.0150 C   0  0  0  0  0  2  0  0  0  0  0  0
  161.7990  206.9790  147.1800 C   0  0  0  0  0  3  0  0  0  0  0  0
  160.8380  204.4830  149.8770 C   0  0  0  0  0  3  0  0  0  0  0  0
  159.4580  211.8230  157.2600 O   0  0  0  0  0  1  0  0  0  0  0  0
  160.7790  210.6200  154.0870 C   0  0  2  0  0  3  0  0  0  0  0  0
  161.8660  209.2780  155.9910 C   0  0  0  0  0  2  0  0  0  0  0  0
  161.2550  205.9180  151.8300 C   0  0  0  0  0  0  0  0  0  0  0  0
  161.2320  205.5970  149.0110 C   0  0  0  0  0  0  0  0  0  0  0  0
  161.3550  205.9760  153.1280 N   0  0  0  0  0  0  0  0  0  0  0  0
  160.7300  211.2600  151.6730 C   0  0  0  0  0  0  0  0  0  0  0  0
  161.4050  210.9060  150.7150 O   0  0  0  0  0  0  0  0  0  0  0  0
  160.0330  213.3360  150.5010 C   0  0  0  0  0  2  0  0  0  0  0  0
  159.0520  212.8030  152.6360 C   0  0  0  0  0  2  0  0  0  0  0  0
  160.3310  212.6940  151.8340 C   0  0  1  0  0  3  0  0  0  0  0  0
  158.2140  213.8090  151.9980 N   0  0  0  0  0  0  0  0  0  0  0  0
  158.5940  213.7990  150.5930 C   0  0  0  0  0  2  0  0  0  0  0  0
  156.8410  213.3360  152.0660 C   0  0  0  0  0  2  0  0  0  0  0  0
  156.0640  214.1290  153.1040 C   0  0  0  0  0  2  0  0  0  0  0  0
  155.3080  213.2570  153.8950 O   0  0  0  0  0  0  0  0  0  0  0  0
  155.2130  212.6530  156.1170 O   0  0  0  0  0  0  0  0  0  0  0  0
  156.0560  213.0310  155.0580 C   0  0  1  0  0  0  0  0  0  0  0  0
  156.0820  211.6620  155.6170 C   0  0  0  0  0  2  0  0  0  0  0  0
  157.0570  214.0780  155.5160 C   0  0  0  0  0  1  0  0  0  0  0  0
  160.1450  202.6010  152.6720 N   0  0  0  0  0  0  0  0  0  0  0  0
  160.4590  203.5030  152.0180 C   0  0  0  0  0  0  0  0  0  0  0  0
  2 23  1  6  0  0  0
  2 18  1  0  0  0  0
  3 12  1  0  0  0  0
  4  1  1  0  0  0  0
  4 17  1  1  0  0  0
  5 21  1  0  0  0  0
  6  3  2  0  0  0  0
  6 20  1  0  0  0  0
  7  6  1  0  0  0  0
  8 19  1  0  0  0  0
 10  9  1  0  0  0  0
 10  8  1  0  0  0  0
 11  7  2  0  0  0  0
 12  2  1  0  0  0  0
 12 10  2  0  0  0  0
 13 20  2  0  0  0  0
 13 38  1  0  0  0  0
 14  4  1  0  0  0  0
 15  5  2  0  0  0  0
 15 11  1  0  0  0  0
 16 13  1  0  0  0  0
 18  8  1  0  0  0  0
 18 14  1  1  0  0  0
 19  1  1  0  0  0  0
 20 22  1  0  0  0  0
 21  7  1  0  0  0  0
 21 16  2  0  0  0  0
 22  9  2  0  0  0  0
 24 23  2  0  0  0  0
 25 29  1  0  0  0  0
 25 27  1  0  0  0  0
 27 23  1  6  0  0  0
 27 26  1  0  0  0  0
 28 30  1  0  0  0  0
 28 26  1  0  0  0  0
 29 28  1  0  0  0  0
 30 31  1  0  0  0  0
 31 32  1  0  0  0  0
 32 34  1  0  0  0  0
 34 36  1  1  0  0  0
 34 35  1  0  0  0  0
 34 33  1  0  0  0  0
 35 33  1  0  0  0  0
 38 37  3  0  0  0  0
M  END
>  <MODEL>
4

>  <REMARK>
 VINA RESULT:      -5.6      3.580      9.780
  Name = 
  7 active torsions:
  status: ('A' for Active; 'I' for Inactive)
    1  A    between atoms: C_3  and  C_14
    2  A    between atoms: C_13  and  O_34
    3  A    between atoms: C_14  and  C_17
    4  A    between atoms: C_15  and  C_29
    5  A    between atoms: C_15  and  N_36
    6  A    between atoms: C_21  and  C_33
    7  A    between atoms: C_29  and  O_34
                            x       y       z     vdW  Elec       q    Type
                         _______ _______ _______ _____ _____    ______ ____

>  <TORSDO>
F 7

$$$$
=
 OpenBabel11042422483D

 38 44  0  0  1  0  0  0  0  0999 V2000
  161.4780  207.6130  155.3460 C   0  0  0  0  0  2  0  0  0  0  0  0
  160.8960  208.1710  151.1450 C   0  0  1  0  0  3  0  0  0  0  0  0
  161.3050  206.3560  149.4700 C   0  0  0  0  0  3  0  0  0  0  0  0
  160.1320  208.2120  154.9350 C   0  0  2  0  0  3  0  0  0  0  0  0
  161.7280  204.0860  145.4640 C   0  0  0  0  0  3  0  0  0  0  0  0
  161.9020  205.0400  149.1000 C   0  0  0  0  0  0  0  0  0  0  0  0
  161.9860  204.9270  147.6020 C   0  0  0  0  0  0  0  0  0  0  0  0
  161.6870  206.8800  153.0180 N   0  0  0  0  0  0  0  0  0  0  0  0
  161.5000  204.6680  152.0580 C   0  0  0  0  0  3  0  0  0  0  0  0
  161.5790  205.9980  151.9110 C   0  0  0  0  0  0  0  0  0  0  0  0
  162.6520  205.8580  146.7710 N   0  0  0  0  0  0  0  0  0  0  0  0
  161.2180  206.7650  150.7350 C   0  0  0  0  0  0  0  0  0  0  0  0
  160.6210  202.7810  148.8830 C   0  0  0  0  0  0  0  0  0  0  0  0
  160.0990  208.7110  153.4790 C   0  0  0  0  0  2  0  0  0  0  0  0
  162.5260  205.3960  145.3940 C   0  0  0  0  0  3  0  0  0  0  0  0
  160.7610  202.8190  147.5550 C   0  0  0  0  0  3  0  0  0  0  0  0
  159.7970  209.2560  155.7960 O   0  0  0  0  0  1  0  0  0  0  0  0
  161.2850  208.2340  152.6340 C   0  0  2  0  0  3  0  0  0  0  0  0
  161.8350  206.4620  154.4110 C   0  0  0  0  0  2  0  0  0  0  0  0
  161.1720  203.8700  149.7390 C   0  0  0  0  0  0  0  0  0  0  0  0
  161.4690  203.9320  146.9180 C   0  0  0  0  0  0  0  0  0  0  0  0
  161.1060  203.7370  151.0340 N   0  0  0  0  0  0  0  0  0  0  0  0
  161.6820  209.1800  150.3560 C   0  0  0  0  0  0  0  0  0  0  0  0
  162.1410  208.8910  149.2580 O   0  0  0  0  0  0  0  0  0  0  0  0
  161.8660  211.6000  149.8260 C   0  0  0  0  0  2  0  0  0  0  0  0
  160.7020  210.9170  151.8210 C   0  0  0  0  0  2  0  0  0  0  0  0
  161.8610  210.5570  150.9170 C   0  0  1  0  0  3  0  0  0  0  0  0
  160.3320  212.2970  151.5380 N   0  0  0  0  0  0  0  0  0  0  0  0
  160.7150  212.5270  150.1520 C   0  0  0  0  0  2  0  0  0  0  0  0
  158.8810  212.3770  151.5920 C   0  0  0  0  0  2  0  0  0  0  0  0
  158.4230  212.6190  153.0210 C   0  0  0  0  0  2  0  0  0  0  0  0
  157.8990  211.4370  153.5560 O   0  0  0  0  0  0  0  0  0  0  0  0
  156.0530  212.4450  154.4980 O   0  0  0  0  0  0  0  0  0  0  0  0
  157.2710  211.7930  154.7570 C   0  0  1  0  0  0  0  0  0  0  0  0
  155.9720  211.1630  155.0790 C   0  0  0  0  0  2  0  0  0  0  0  0
  158.0610  212.5340  155.8210 C   0  0  0  0  0  1  0  0  0  0  0  0
  159.3580  200.7700  149.9360 N   0  0  0  0  0  0  0  0  0  0  0  0
  159.9210  201.6660  149.4670 C   0  0  0  0  0  0  0  0  0  0  0  0
  2 23  1  6  0  0  0
  2 18  1  0  0  0  0
  3 12  1  0  0  0  0
  4  1  1  0  0  0  0
  4 17  1  1  0  0  0
  5 21  1  0  0  0  0
  6  3  2  0  0  0  0
  6 20  1  0  0  0  0
  7  6  1  0  0  0  0
  8 19  1  0  0  0  0
 10  9  1  0  0  0  0
 10  8  1  0  0  0  0
 11  7  2  0  0  0  0
 12  2  1  0  0  0  0
 12 10  2  0  0  0  0
 13 38  1  0  0  0  0
 13 20  2  0  0  0  0
 14  4  1  0  0  0  0
 15  5  2  0  0  0  0
 15 11  1  0  0  0  0
 16 13  1  0  0  0  0
 18  8  1  0  0  0  0
 18 14  1  1  0  0  0
 19  1  1  0  0  0  0
 20 22  1  0  0  0  0
 21 16  2  0  0  0  0
 21  7  1  0  0  0  0
 22  9  2  0  0  0  0
 24 23  2  0  0  0  0
 25 29  1  0  0  0  0
 25 27  1  0  0  0  0
 27 23  1  6  0  0  0
 27 26  1  0  0  0  0
 28 30  1  0  0  0  0
 28 26  1  0  0  0  0
 29 28  1  0  0  0  0
 30 31  1  0  0  0  0
 31 32  1  0  0  0  0
 32 34  1  0  0  0  0
 33 34  1  0  0  0  0
 33 35  1  0  0  0  0
 34 35  1  0  0  0  0
 34 36  1  1  0  0  0
 38 37  3  0  0  0  0
M  END
>  <MODEL>
5

>  <REMARK>
 VINA RESULT:      -5.5      3.011      9.423
  Name = 
  7 active torsions:
  status: ('A' for Active; 'I' for Inactive)
    1  A    between atoms: C_3  and  C_14
    2  A    between atoms: C_13  and  O_34
    3  A    between atoms: C_14  and  C_17
    4  A    between atoms: C_15  and  C_29
    5  A    between atoms: C_15  and  N_36
    6  A    between atoms: C_21  and  C_33
    7  A    between atoms: C_29  and  O_34
                            x       y       z     vdW  Elec       q    Type
                         _______ _______ _______ _____ _____    ______ ____

>  <TORSDO>
F 7

$$$$
=
 OpenBabel11042422483D

 38 44  0  0  1  0  0  0  0  0999 V2000
  161.3760  212.7010  147.2520 C   0  0  0  0  0  2  0  0  0  0  0  0
  162.5950  209.8160  150.1670 C   0  0  1  0  0  3  0  0  0  0  0  0
  161.8730  207.4210  150.0830 C   0  0  0  0  0  3  0  0  0  0  0  0
  162.8780  212.6350  147.5350 C   0  0  2  0  0  3  0  0  0  0  0  0
  161.2820  202.9670  151.1770 C   0  0  0  0  0  3  0  0  0  0  0  0
  160.9640  206.3550  149.5710 C   0  0  0  0  0  0  0  0  0  0  0  0
  161.0300  205.1570  150.4770 C   0  0  0  0  0  0  0  0  0  0  0  0
  161.2410  210.4860  148.2920 N   0  0  0  0  0  0  0  0  0  0  0  0
  160.8800  208.3140  147.2900 C   0  0  0  0  0  3  0  0  0  0  0  0
  161.2150  209.0690  148.3470 C   0  0  0  0  0  0  0  0  0  0  0  0
  160.7720  205.1960  151.8680 N   0  0  0  0  0  0  0  0  0  0  0  0
  161.9250  208.6330  149.5340 C   0  0  0  0  0  0  0  0  0  0  0  0
  161.5370  204.6010  147.7300 C   0  0  0  0  0  0  0  0  0  0  0  0
  163.2300  211.8490  148.8100 C   0  0  0  0  0  2  0  0  0  0  0  0
  160.9200  203.8420  152.3870 C   0  0  0  0  0  3  0  0  0  0  0  0
  161.5750  203.6340  148.6510 C   0  0  0  0  0  3  0  0  0  0  0  0
  163.4000  213.9240  147.6190 O   0  0  0  0  0  1  0  0  0  0  0  0
  162.0670  211.0250  149.3730 C   0  0  2  0  0  3  0  0  0  0  0  0
  160.8100  211.2880  147.1470 C   0  0  0  0  0  2  0  0  0  0  0  0
  161.2330  206.0090  148.1160 C   0  0  0  0  0  0  0  0  0  0  0  0
  161.3080  203.9430  150.0580 C   0  0  0  0  0  0  0  0  0  0  0  0
  161.1020  206.8980  147.1710 N   0  0  0  0  0  0  0  0  0  0  0  0
  162.2430  209.9510  151.6210 C   0  0  0  0  0  0  0  0  0  0  0  0
  163.1220  210.0470  152.4680 O   0  0  0  0  0  0  0  0  0  0  0  0
  160.4530  208.9090  152.9920 C   0  0  0  0  0  2  0  0  0  0  0  0
  160.4910  211.3030  152.7280 C   0  0  0  0  0  2  0  0  0  0  0  0
  160.7990  210.0050  152.0140 C   0  0  1  0  0  3  0  0  0  0  0  0
  159.6280  210.9920  153.8590 N   0  0  0  0  0  0  0  0  0  0  0  0
  159.9480  209.6210  154.2290 C   0  0  0  0  0  2  0  0  0  0  0  0
  160.0430  211.8360  154.9680 C   0  0  0  0  0  2  0  0  0  0  0  0
  160.3230  210.9860  156.1960 C   0  0  0  0  0  2  0  0  0  0  0  0
  161.3600  211.5580  156.9400 O   0  0  0  0  0  0  0  0  0  0  0  0
  163.2210  210.7110  155.8770 O   0  0  0  0  0  0  0  0  0  0  0  0
  162.3800  210.5990  156.9980 C   0  0  1  0  0  0  0  0  0  0  0  0
  163.7770  211.0700  157.1220 C   0  0  0  0  0  2  0  0  0  0  0  0
  162.0230  209.1450  157.2580 C   0  0  0  0  0  1  0  0  0  0  0  0
  162.0150  203.9720  145.2560 N   0  0  0  0  0  0  0  0  0  0  0  0
  161.8020  204.2520  146.3590 C   0  0  0  0  0  0  0  0  0  0  0  0
  1  4  1  0  0  0  0
  2 23  1  1  0  0  0
  4 17  1  1  0  0  0
  4 14  1  0  0  0  0
  5 15  1  0  0  0  0
  6  3  1  0  0  0  0
  6  7  2  0  0  0  0
  7 11  1  0  0  0  0
  8 10  1  0  0  0  0
  8 18  1  0  0  0  0
  9 10  2  0  0  0  0
 10 12  1  0  0  0  0
 11 15  2  0  0  0  0
 12  3  2  0  0  0  0
 12  2  1  0  0  0  0
 13 20  1  0  0  0  0
 13 16  2  0  0  0  0
 16 21  1  0  0  0  0
 18 14  1  6  0  0  0
 18  2  1  0  0  0  0
 19  1  1  0  0  0  0
 19  8  1  0  0  0  0
 20  6  1  0  0  0  0
 21  7  1  0  0  0  0
 21  5  2  0  0  0  0
 22  9  1  0  0  0  0
 22 20  2  0  0  0  0
 23 24  2  0  0  0  0
 25 29  1  0  0  0  0
 26 28  1  0  0  0  0
 27 23  1  1  0  0  0
 27 26  1  0  0  0  0
 27 25  1  0  0  0  0
 28 29  1  0  0  0  0
 28 30  1  0  0  0  0
 30 31  1  0  0  0  0
 31 32  1  0  0  0  0
 32 34  1  0  0  0  0
 33 34  1  0  0  0  0
 33 35  1  0  0  0  0
 34 35  1  0  0  0  0
 34 36  1  1  0  0  0
 37 38  3  0  0  0  0
 38 13  1  0  0  0  0
M  END
>  <MODEL>
6

>  <REMARK>
 VINA RESULT:      -4.9      3.484      8.609
  Name = 
  7 active torsions:
  status: ('A' for Active; 'I' for Inactive)
    1  A    between atoms: C_3  and  C_14
    2  A    between atoms: C_13  and  O_34
    3  A    between atoms: C_14  and  C_17
    4  A    between atoms: C_15  and  C_29
    5  A    between atoms: C_15  and  N_36
    6  A    between atoms: C_21  and  C_33
    7  A    between atoms: C_29  and  O_34
                            x       y       z     vdW  Elec       q    Type
                         _______ _______ _______ _____ _____    ______ ____

>  <TORSDO>
F 7

$$$$
=
 OpenBabel11042422483D

 38 44  0  0  1  0  0  0  0  0999 V2000
  161.4310  212.6930  147.2760 C   0  0  0  0  0  2  0  0  0  0  0  0
  162.5920  209.7970  150.2030 C   0  0  1  0  0  3  0  0  0  0  0  0
  161.8570  207.4060  150.1040 C   0  0  0  0  0  3  0  0  0  0  0  0
  162.9280  212.6180  147.5800 C   0  0  2  0  0  3  0  0  0  0  0  0
  161.2260  202.9530  151.1820 C   0  0  0  0  0  3  0  0  0  0  0  0
  160.9500  206.3460  149.5770 C   0  0  0  0  0  0  0  0  0  0  0  0
  160.9970  205.1450  150.4820 C   0  0  0  0  0  0  0  0  0  0  0  0
  161.2680  210.4780  148.3090 N   0  0  0  0  0  0  0  0  0  0  0  0
  160.9100  208.3100  147.2990 C   0  0  0  0  0  3  0  0  0  0  0  0
  161.2340  209.0600  148.3620 C   0  0  0  0  0  0  0  0  0  0  0  0
  160.7190  205.1840  151.8690 N   0  0  0  0  0  0  0  0  0  0  0  0
  161.9240  208.6190  149.5580 C   0  0  0  0  0  0  0  0  0  0  0  0
  161.5410  204.5920  147.7420 C   0  0  0  0  0  0  0  0  0  0  0  0
  163.2580  211.8290  148.8600 C   0  0  0  0  0  2  0  0  0  0  0  0
  160.8520  203.8280  152.3870 C   0  0  0  0  0  3  0  0  0  0  0  0
  161.5600  203.6230  148.6610 C   0  0  0  0  0  3  0  0  0  0  0  0
  163.4560  213.9050  147.6750 O   0  0  0  0  0  1  0  0  0  0  0  0
  162.0810  211.0100  149.4040 C   0  0  2  0  0  3  0  0  0  0  0  0
  160.8580  211.2840  147.1610 C   0  0  0  0  0  2  0  0  0  0  0  0
  161.2390  206.0010  148.1250 C   0  0  0  0  0  0  0  0  0  0  0  0
  161.2740  203.9310  150.0650 C   0  0  0  0  0  0  0  0  0  0  0  0
  161.1260  206.8920  147.1800 N   0  0  0  0  0  0  0  0  0  0  0  0
  162.2190  209.9310  151.6520 C   0  0  0  0  0  0  0  0  0  0  0  0
  163.0810  210.1190  152.5020 O   0  0  0  0  0  0  0  0  0  0  0  0
  160.5620  208.9970  153.2500 C   0  0  0  0  0  2  0  0  0  0  0  0
  160.2680  211.2420  152.4250 C   0  0  0  0  0  2  0  0  0  0  0  0
  160.7730  209.8690  152.0360 C   0  0  1  0  0  3  0  0  0  0  0  0
  159.4300  211.0870  153.6070 N   0  0  0  0  0  0  0  0  0  0  0  0
  159.9330  209.9020  154.2880 C   0  0  0  0  0  2  0  0  0  0  0  0
  159.6960  212.2190  154.4800 C   0  0  0  0  0  2  0  0  0  0  0  0
  158.3900  212.8140  154.9780 C   0  0  0  0  0  2  0  0  0  0  0  0
  157.5860  213.1660  153.8880 O   0  0  0  0  0  0  0  0  0  0  0  0
  155.7060  213.9510  154.9650 O   0  0  0  0  0  0  0  0  0  0  0  0
  156.2670  212.8720  154.2610 C   0  0  1  0  0  0  0  0  0  0  0  0
  155.1790  213.6920  153.6840 C   0  0  0  0  0  2  0  0  0  0  0  0
  155.9650  211.5580  154.9610 C   0  0  0  0  0  1  0  0  0  0  0  0
  162.0510  203.9640  145.2740 N   0  0  0  0  0  0  0  0  0  0  0  0
  161.8230  204.2440  146.3730 C   0  0  0  0  0  0  0  0  0  0  0  0
  1  4  1  0  0  0  0
  2 23  1  1  0  0  0
  4 17  1  1  0  0  0
  4 14  1  0  0  0  0
  5 15  1  0  0  0  0
  6  3  1  0  0  0  0
  6  7  2  0  0  0  0
  7 11  1  0  0  0  0
  8 10  1  0  0  0  0
  8 18  1  0  0  0  0
  9 10  2  0  0  0  0
 10 12  1  0  0  0  0
 11 15  2  0  0  0  0
 12  3  2  0  0  0  0
 12  2  1  0  0  0  0
 13 20  1  0  0  0  0
 13 16  2  0  0  0  0
 16 21  1  0  0  0  0
 18 14  1  6  0  0  0
 18  2  1  0  0  0  0
 19  1  1  0  0  0  0
 19  8  1  0  0  0  0
 20  6  1  0  0  0  0
 21  7  1  0  0  0  0
 21  5  2  0  0  0  0
 22  9  1  0  0  0  0
 22 20  2  0  0  0  0
 23 24  2  0  0  0  0
 25 29  1  0  0  0  0
 26 28  1  0  0  0  0
 27 23  1  1  0  0  0
 27 26  1  0  0  0  0
 27 25  1  0  0  0  0
 28 29  1  0  0  0  0
 28 30  1  0  0  0  0
 30 31  1  0  0  0  0
 32 34  1  0  0  0  0
 32 31  1  0  0  0  0
 34 36  1  1  0  0  0
 34 33  1  0  0  0  0
 35 34  1  0  0  0  0
 35 33  1  0  0  0  0
 37 38  3  0  0  0  0
 38 13  1  0  0  0  0
M  END
>  <MODEL>
7

>  <REMARK>
 VINA RESULT:      -4.8      3.812      8.787
  Name = 
  7 active torsions:
  status: ('A' for Active; 'I' for Inactive)
    1  A    between atoms: C_3  and  C_14
    2  A    between atoms: C_13  and  O_34
    3  A    between atoms: C_14  and  C_17
    4  A    between atoms: C_15  and  C_29
    5  A    between atoms: C_15  and  N_36
    6  A    between atoms: C_21  and  C_33
    7  A    between atoms: C_29  and  O_34
                            x       y       z     vdW  Elec       q    Type
                         _______ _______ _______ _____ _____    ______ ____

>  <TORSDO>
F 7

$$$$
=
 OpenBabel11042422483D

 38 44  0  0  1  0  0  0  0  0999 V2000
  162.7450  210.1120  148.6620 C   0  0  0  0  0  2  0  0  0  0  0  0
  160.7460  209.4570  152.3870 C   0  0  1  0  0  3  0  0  0  0  0  0
  159.3310  211.2050  153.4870 C   0  0  0  0  0  3  0  0  0  0  0  0
  161.9100  208.8340  148.7530 C   0  0  2  0  0  3  0  0  0  0  0  0
  156.6430  213.4010  156.5420 C   0  0  0  0  0  3  0  0  0  0  0  0
  158.8970  212.6240  153.6310 C   0  0  0  0  0  0  0  0  0  0  0  0
  158.2290  212.8150  154.9660 C   0  0  0  0  0  0  0  0  0  0  0  0
  161.4680  210.9000  150.5980 N   0  0  0  0  0  0  0  0  0  0  0  0
  159.7320  212.5780  150.7420 C   0  0  0  0  0  3  0  0  0  0  0  0
  160.4290  211.5730  151.2910 C   0  0  0  0  0  0  0  0  0  0  0  0
  158.8320  212.5070  156.2080 N   0  0  0  0  0  0  0  0  0  0  0  0
  160.0490  210.7840  152.4470 C   0  0  0  0  0  0  0  0  0  0  0  0
  156.6790  213.6520  152.7270 C   0  0  0  0  0  0  0  0  0  0  0  0
  161.5000  208.4670  150.1900 C   0  0  0  0  0  2  0  0  0  0  0  0
  157.8810  212.8450  157.2600 C   0  0  0  0  0  3  0  0  0  0  0  0
  156.2070  213.7510  153.9740 C   0  0  0  0  0  3  0  0  0  0  0  0
  162.6070  207.7730  148.1780 O   0  0  0  0  0  1  0  0  0  0  0  0
  161.7250  209.5930  151.2060 C   0  0  2  0  0  3  0  0  0  0  0  0
  161.9750  211.2750  149.2790 C   0  0  0  0  0  2  0  0  0  0  0  0
  158.0370  213.0910  152.4690 C   0  0  0  0  0  0  0  0  0  0  0  0
  157.0240  213.3170  155.1100 C   0  0  0  0  0  0  0  0  0  0  0  0
  158.4970  213.1140  151.2500 N   0  0  0  0  0  0  0  0  0  0  0  0
  161.4950  209.1580  153.6550 C   0  0  0  0  0  0  0  0  0  0  0  0
  161.9800  210.0640  154.3200 O   0  0  0  0  0  0  0  0  0  0  0  0
  160.2660  207.0410  154.0750 C   0  0  0  0  0  2  0  0  0  0  0  0
  162.5010  206.9470  153.1820 C   0  0  0  0  0  2  0  0  0  0  0  0
  161.6050  207.7360  154.1120 C   0  0  1  0  0  3  0  0  0  0  0  0
  161.8770  205.6500  152.9610 N   0  0  0  0  0  0  0  0  0  0  0  0
  160.4480  205.8700  153.1320 C   0  0  0  0  0  2  0  0  0  0  0  0
  162.0840  205.3010  151.5640 C   0  0  0  0  0  2  0  0  0  0  0  0
  160.9170  204.4720  151.0530 C   0  0  0  0  0  2  0  0  0  0  0  0
  161.3310  203.1520  150.8450 O   0  0  0  0  0  0  0  0  0  0  0  0
  161.0880  201.4200  149.3440 O   0  0  0  0  0  0  0  0  0  0  0  0
  160.8610  202.7880  149.5750 C   0  0  1  0  0  0  0  0  0  0  0  0
  159.7450  201.8210  149.4950 C   0  0  0  0  0  2  0  0  0  0  0  0
  161.2660  203.6120  148.3650 C   0  0  0  0  0  1  0  0  0  0  0  0
  155.1740  214.4510  150.7680 N   0  0  0  0  0  0  0  0  0  0  0  0
  155.8440  214.0950  151.6410 C   0  0  0  0  0  0  0  0  0  0  0  0
  1  4  1  0  0  0  0
  1 19  1  0  0  0  0
  2 12  1  0  0  0  0
  2 23  1  1  0  0  0
  3  6  1  0  0  0  0
  4 17  1  1  0  0  0
  4 14  1  0  0  0  0
  5 15  1  0  0  0  0
  6  7  2  0  0  0  0
  7 21  1  0  0  0  0
  7 11  1  0  0  0  0
  8 18  1  0  0  0  0
  8 10  1  0  0  0  0
  9 22  1  0  0  0  0
  9 10  2  0  0  0  0
 10 12  1  0  0  0  0
 11 15  2  0  0  0  0
 12  3  2  0  0  0  0
 13 16  2  0  0  0  0
 16 21  1  0  0  0  0
 18 14  1  6  0  0  0
 18  2  1  0  0  0  0
 19  8  1  0  0  0  0
 20 13  1  0  0  0  0
 20  6  1  0  0  0  0
 21  5  2  0  0  0  0
 22 20  2  0  0  0  0
 23 24  2  0  0  0  0
 25 27  1  0  0  0  0
 26 27  1  0  0  0  0
 27 23  1  6  0  0  0
 28 29  1  0  0  0  0
 28 26  1  0  0  0  0
 29 25  1  0  0  0  0
 30 28  1  0  0  0  0
 31 30  1  0  0  0  0
 32 31  1  0  0  0  0
 33 35  1  0  0  0  0
 33 34  1  0  0  0  0
 34 36  1  6  0  0  0
 34 32  1  0  0  0  0
 35 34  1  0  0  0  0
 37 38  3  0  0  0  0
 38 13  1  0  0  0  0
M  END
>  <MODEL>
8

>  <REMARK>
 VINA RESULT:      -4.4      2.476      4.231
  Name = 
  7 active torsions:
  status: ('A' for Active; 'I' for Inactive)
    1  A    between atoms: C_3  and  C_14
    2  A    between atoms: C_13  and  O_34
    3  A    between atoms: C_14  and  C_17
    4  A    between atoms: C_15  and  C_29
    5  A    between atoms: C_15  and  N_36
    6  A    between atoms: C_21  and  C_33
    7  A    between atoms: C_29  and  O_34
                            x       y       z     vdW  Elec       q    Type
                         _______ _______ _______ _____ _____    ______ ____

>  <TORSDO>
F 7

$$$$
=
 OpenBabel11042422483D

 38 44  0  0  1  0  0  0  0  0999 V2000
  161.4230  205.0420  147.8370 C   0  0  0  0  0  2  0  0  0  0  0  0
  162.0830  209.0200  149.2680 C   0  0  1  0  0  3  0  0  0  0  0  0
  161.1860  209.8350  151.4580 C   0  0  0  0  0  3  0  0  0  0  0  0
  162.8750  205.5230  147.8190 C   0  0  2  0  0  3  0  0  0  0  0  0
  160.1270  212.5780  155.0270 C   0  0  0  0  0  3  0  0  0  0  0  0
  160.2570  209.6920  152.6150 C   0  0  0  0  0  0  0  0  0  0  0  0
  160.1280  211.0120  153.3260 C   0  0  0  0  0  0  0  0  0  0  0  0
  160.9990  206.8730  149.4080 N   0  0  0  0  0  0  0  0  0  0  0  0
  160.5790  206.8180  151.7900 C   0  0  0  0  0  3  0  0  0  0  0  0
  160.8550  207.5040  150.6720 C   0  0  0  0  0  0  0  0  0  0  0  0
  159.7240  212.2150  152.7010 N   0  0  0  0  0  0  0  0  0  0  0  0
  161.3940  208.8470  150.5890 C   0  0  0  0  0  0  0  0  0  0  0  0
  160.8870  208.8310  154.9930 C   0  0  0  0  0  0  0  0  0  0  0  0
  163.0220  207.0440  148.0070 C   0  0  0  0  0  2  0  0  0  0  0  0
  159.7060  213.2600  153.7170 C   0  0  0  0  0  3  0  0  0  0  0  0
  160.7470  210.0650  155.4870 C   0  0  0  0  0  3  0  0  0  0  0  0
  163.4860  205.1370  146.6270 O   0  0  0  0  0  1  0  0  0  0  0  0
  161.7420  207.7360  148.4880 C   0  0  2  0  0  3  0  0  0  0  0  0
  160.7610  205.4550  149.1480 C   0  0  0  0  0  2  0  0  0  0  0  0
  160.6560  208.5580  153.5460 C   0  0  0  0  0  0  0  0  0  0  0  0
  160.3530  211.1710  154.6100 C   0  0  0  0  0  0  0  0  0  0  0  0
  160.6990  207.3230  153.1310 N   0  0  0  0  0  0  0  0  0  0  0  0
  161.5850  210.2290  148.5270 C   0  0  0  0  0  0  0  0  0  0  0  0
  160.8330  210.1050  147.5690 O   0  0  0  0  0  0  0  0  0  0  0  0
  163.1790  212.1110  148.2330 C   0  0  0  0  0  2  0  0  0  0  0  0
  160.8800  212.5870  148.7710 C   0  0  0  0  0  2  0  0  0  0  0  0
  161.9920  211.5880  149.0050 C   0  0  1  0  0  3  0  0  0  0  0  0
  161.4850  213.8140  148.2690 N   0  0  0  0  0  0  0  0  0  0  0  0
  162.7060  213.3980  147.5930 C   0  0  0  0  0  2  0  0  0  0  0  0
  160.6000  214.3500  147.2480 C   0  0  0  0  0  2  0  0  0  0  0  0
  161.3200  214.4110  145.9110 C   0  0  0  0  0  2  0  0  0  0  0  0
  160.3910  214.3110  144.8700 O   0  0  0  0  0  0  0  0  0  0  0  0
  160.1750  212.0280  144.6460 O   0  0  0  0  0  0  0  0  0  0  0  0
  160.7630  213.1890  144.1170 C   0  0  1  0  0  0  0  0  0  0  0  0
  159.7060  212.4550  143.3870 C   0  0  0  0  0  2  0  0  0  0  0  0
  162.2310  212.9540  143.8040 C   0  0  0  0  0  1  0  0  0  0  0  0
  161.5810  206.9230  156.6130 N   0  0  0  0  0  0  0  0  0  0  0  0
  161.2720  207.7730  155.8920 C   0  0  0  0  0  0  0  0  0  0  0  0
  1 19  1  0  0  0  0
  2 23  1  6  0  0  0
  2 12  1  0  0  0  0
  3  6  1  0  0  0  0
  4 17  1  6  0  0  0
  4  1  1  0  0  0  0
  4 14  1  0  0  0  0
  6  7  2  0  0  0  0
  6 20  1  0  0  0  0
  7 21  1  0  0  0  0
  8 10  1  0  0  0  0
  9 22  1  0  0  0  0
 10  9  2  0  0  0  0
 11  7  1  0  0  0  0
 11 15  2  0  0  0  0
 12 10  1  0  0  0  0
 12  3  2  0  0  0  0
 13 16  2  0  0  0  0
 13 38  1  0  0  0  0
 15  5  1  0  0  0  0
 18 14  1  1  0  0  0
 18  2  1  0  0  0  0
 18  8  1  0  0  0  0
 19  8  1  0  0  0  0
 20 13  1  0  0  0  0
 21  5  2  0  0  0  0
 21 16  1  0  0  0  0
 22 20  2  0  0  0  0
 24 23  2  0  0  0  0
 25 27  1  0  0  0  0
 26 27  1  0  0  0  0
 27 23  1  6  0  0  0
 28 26  1  0  0  0  0
 29 25  1  0  0  0  0
 29 28  1  0  0  0  0
 30 28  1  0  0  0  0
 31 30  1  0  0  0  0
 32 31  1  0  0  0  0
 34 36  1  6  0  0  0
 34 33  1  0  0  0  0
 34 32  1  0  0  0  0
 35 34  1  0  0  0  0
 35 33  1  0  0  0  0
 38 37  3  0  0  0  0
M  END
>  <MODEL>
9

>  <REMARK>
 VINA RESULT:      -4.2      3.673      7.263
  Name = 
  7 active torsions:
  status: ('A' for Active; 'I' for Inactive)
    1  A    between atoms: C_3  and  C_14
    2  A    between atoms: C_13  and  O_34
    3  A    between atoms: C_14  and  C_17
    4  A    between atoms: C_15  and  C_29
    5  A    between atoms: C_15  and  N_36
    6  A    between atoms: C_21  and  C_33
    7  A    between atoms: C_29  and  O_34
                            x       y       z     vdW  Elec       q    Type
                         _______ _______ _______ _____ _____    ______ ____

>  <TORSDO>
F 7

$$$$
