=
 OpenBabel11052411493D

 40 45  0  0  1  0  0  0  0  0999 V2000
  160.8710  209.4660  153.6510 C   0  0  1  0  0  3  0  0  0  0  0  0
  161.7530  208.9600  155.7290 C   0  0  0  0  0  0  0  0  0  0  0  0
  160.7380  207.2490  154.1970 C   0  0  0  0  0  0  0  0  0  0  0  0
  160.6260  208.5970  154.8260 C   0  0  2  0  0  3  0  0  0  0  0  0
  162.0630  208.2780  156.6910 O   0  0  0  0  0  0  0  0  0  0  0  0
  160.9210  207.3780  152.8930 C   0  0  0  0  0  0  0  0  0  0  0  0
  162.5640  210.5290  155.3770 S   0  0  0  0  0  0  0  0  0  0  0  0
  160.5440  205.9550  154.9120 C   0  0  0  0  0  1  0  0  0  0  0  0
  161.4990  210.7870  153.9100 C   0  0  2  0  0  3  0  0  0  0  0  0
  161.0870  208.7760  152.5370 C   0  0  0  0  0  2  0  0  0  0  0  0
  160.6480  205.5660  150.7310 C   0  0  1  0  0  3  0  0  0  0  0  0
  161.6620  205.0260  151.4980 C   0  0  0  0  0  2  0  0  0  0  0  0
  161.0380  206.2940  151.9750 N   0  0  0  0  0  0  0  0  0  0  0  0
  161.4850  205.5450  148.3430 N   0  0  0  0  0  2  0  0  0  0  0  0
  161.2080  206.2760  149.5410 C   0  0  0  0  0  0  0  0  0  0  0  0
  161.4030  207.5210  149.5880 O   0  0  0  0  0  0  0  0  0  0  0  0
  159.9840  205.8340  145.6460 C   0  0  0  0  0  2  0  0  0  0  0  0
  160.8240  205.1450  144.5790 C   0  0  0  0  0  2  0  0  0  0  0  0
  161.9930  206.1790  147.1330 C   0  0  1  0  0  3  0  0  0  0  0  0
  162.6890  205.1530  146.2850 C   0  0  0  0  0  0  0  0  0  0  0  0
  163.8390  204.7570  146.6060 O   0  0  0  0  0  0  0  0  0  0  0  0
  160.8500  206.8590  146.3710 C   0  0  0  0  0  2  0  0  0  0  0  0
  162.0230  204.5560  145.1660 N   0  0  0  0  0  2  0  0  0  0  0  0
  160.4430  211.8320  154.2440 C   0  0  0  0  0  2  0  0  0  0  0  0
  158.4140  213.0330  153.4720 C   0  0  1  0  0  3  0  0  0  0  0  0
  160.0020  212.2710  151.8700 C   0  0  0  0  0  2  0  0  0  0  0  0
  159.3680  211.8920  153.1720 C   0  0  1  0  0  3  0  0  0  0  0  0
  158.5500  214.0290  152.4860 O   0  0  0  0  0  0  0  0  0  0  0  0
  159.1480  213.4090  151.3750 C   0  0  1  0  0  3  0  0  0  0  0  0
  155.6570  210.8310  154.5290 N   0  0  0  0  0  1  0  0  0  0  0  0
  156.9780  212.5260  153.5110 C   0  0  1  0  0  3  0  0  0  0  0  0
  156.7680  211.7450  154.7260 C   0  0  1  0  0  3  0  0  0  0  0  0
  156.2750  213.1270  154.6560 N   0  0  0  0  0  2  0  0  0  0  0  0
  159.9970  214.3920  150.6290 C   0  0  0  0  0  3  0  0  0  0  0  0
  160.3250  214.2510  149.3370 C   0  0  0  0  0  3  0  0  0  0  0  0
  159.8920  213.0840  148.4990 C   0  0  1  0  0  3  0  0  0  0  0  0
  157.4990  213.0350  147.7960 C   0  0  0  0  0  1  0  0  0  0  0  0
  158.8860  213.5480  147.4560 C   0  0  0  0  0  2  0  0  0  0  0  0
  162.2850  212.7690  148.4780 O   0  0  0  0  0  1  0  0  0  0  0  0
  161.0950  212.4010  147.8450 C   0  0  0  0  0  2  0  0  0  0  0  0
  1 10  1  6  0  0  0
  1  9  1  0  0  0  0
  1  4  1  0  0  0  0
  2  5  2  0  0  0  0
  3  8  1  0  0  0  0
  4  3  1  6  0  0  0
  4  2  1  0  0  0  0
  6  3  2  0  0  0  0
  7  2  1  0  0  0  0
  9 24  1  1  0  0  0
  9  7  1  0  0  0  0
 10  6  1  0  0  0  0
 11 15  1  6  0  0  0
 11 12  1  0  0  0  0
 11 13  1  0  0  0  0
 12 13  1  0  0  0  0
 13  6  1  0  0  0  0
 14 15  1  0  0  0  0
 15 16  2  0  0  0  0
 17 22  1  0  0  0  0
 18 23  1  0  0  0  0
 18 17  1  0  0  0  0
 19 14  1  1  0  0  0
 20 21  2  0  0  0  0
 20 19  1  0  0  0  0
 22 19  1  0  0  0  0
 23 20  1  0  0  0  0
 25 28  1  6  0  0  0
 25 31  1  0  0  0  0
 26 27  1  0  0  0  0
 27 25  1  0  0  0  0
 27 24  1  1  0  0  0
 29 34  1  1  0  0  0
 29 26  1  0  0  0  0
 29 28  1  0  0  0  0
 31 33  1  1  0  0  0
 31 32  1  0  0  0  0
 32 30  1  6  0  0  0
 33 32  1  0  0  0  0
 35 34  2  0  0  0  0
 36 38  1  6  0  0  0
 36 35  1  0  0  0  0
 38 37  1  0  0  0  0
 40 39  1  0  0  0  0
 40 36  1  0  0  0  0
M  END
>  <MODEL>
1

>  <REMARK>
 VINA RESULT:      -7.1      0.000      0.000
  Name = 
  10 active torsions:
  status: ('A' for Active; 'I' for Inactive)
    1  A    between atoms: C_1  and  C_16
    2  A    between atoms: N_3  and  C_18
    3  A    between atoms: C_4  and  C_28
    4  A    between atoms: C_8  and  C_13
    5  A    between atoms: C_8  and  C_31
    6  A    between atoms: C_8  and  C_39
    7  A    between atoms: C_14  and  C_15
    8  A    between atoms: C_15  and  C_37
    9  A    between atoms: C_17  and  C_21
   10  A    between atoms: C_34  and  N_40
                            x       y       z     vdW  Elec       q    Type
                         _______ _______ _______ _____ _____    ______ ____

>  <TORSDO>
F 10

$$$$
=
 OpenBabel11052411493D

 40 45  0  0  1  0  0  0  0  0999 V2000
  160.2710  209.5940  153.4820 C   0  0  1  0  0  3  0  0  0  0  0  0
  161.2990  208.5420  155.2680 C   0  0  0  0  0  0  0  0  0  0  0  0
  161.1810  207.5610  152.9590 C   0  0  0  0  0  0  0  0  0  0  0  0
  160.4620  208.2480  154.0720 C   0  0  2  0  0  3  0  0  0  0  0  0
  161.8950  207.6700  155.8770 O   0  0  0  0  0  0  0  0  0  0  0  0
  161.2760  208.3740  151.9190 C   0  0  0  0  0  0  0  0  0  0  0  0
  161.2910  210.2550  155.8270 S   0  0  0  0  0  0  0  0  0  0  0  0
  161.6120  206.1340  152.9740 C   0  0  0  0  0  1  0  0  0  0  0  0
  160.2190  210.7410  154.4240 C   0  0  2  0  0  3  0  0  0  0  0  0
  160.7750  209.6950  152.2580 C   0  0  0  0  0  2  0  0  0  0  0  0
  162.5300  207.0700  149.7380 C   0  0  1  0  0  3  0  0  0  0  0  0
  162.3100  208.3550  149.2820 C   0  0  0  0  0  2  0  0  0  0  0  0
  161.8760  208.0350  150.6720 N   0  0  0  0  0  0  0  0  0  0  0  0
  161.5480  204.7470  149.5400 N   0  0  0  0  0  2  0  0  0  0  0  0
  161.5040  206.1330  149.1900 C   0  0  0  0  0  0  0  0  0  0  0  0
  160.5850  206.5740  148.4480 O   0  0  0  0  0  0  0  0  0  0  0  0
  161.1190  201.8750  150.6270 C   0  0  0  0  0  2  0  0  0  0  0  0
  161.3070  200.9120  149.4620 C   0  0  0  0  0  2  0  0  0  0  0  0
  160.5570  203.7840  149.0760 C   0  0  1  0  0  3  0  0  0  0  0  0
  161.1470  202.9500  147.9750 C   0  0  0  0  0  0  0  0  0  0  0  0
  161.2690  203.4380  146.8220 O   0  0  0  0  0  0  0  0  0  0  0  0
  160.0730  202.9170  150.2430 C   0  0  0  0  0  2  0  0  0  0  0  0
  161.6520  201.6380  148.2440 N   0  0  0  0  0  2  0  0  0  0  0  0
  158.8010  210.9560  154.9370 C   0  0  0  0  0  2  0  0  0  0  0  0
  158.5310  213.3610  154.3960 C   0  0  1  0  0  3  0  0  0  0  0  0
  158.4280  211.7510  152.6460 C   0  0  0  0  0  2  0  0  0  0  0  0
  158.0490  211.9580  154.0790 C   0  0  1  0  0  3  0  0  0  0  0  0
  159.2120  213.8860  153.2810 O   0  0  0  0  0  0  0  0  0  0  0  0
  158.7950  213.1320  152.1700 C   0  0  1  0  0  3  0  0  0  0  0  0
  154.9960  214.1560  155.0580 N   0  0  0  0  0  1  0  0  0  0  0  0
  157.3520  214.2560  154.7600 C   0  0  1  0  0  3  0  0  0  0  0  0
  156.2440  213.4350  155.2360 C   0  0  1  0  0  3  0  0  0  0  0  0
  157.0840  214.1530  156.2030 N   0  0  0  0  0  2  0  0  0  0  0  0
  159.8990  213.0430  151.1620 C   0  0  0  0  0  3  0  0  0  0  0  0
  159.7670  213.4390  149.8880 C   0  0  0  0  0  3  0  0  0  0  0  0
  158.4930  213.9980  149.3260 C   0  0  1  0  0  3  0  0  0  0  0  0
  160.1050  214.0400  147.4220 C   0  0  0  0  0  1  0  0  0  0  0  0
  158.7230  214.4530  147.8920 C   0  0  0  0  0  2  0  0  0  0  0  0
  156.1180  213.6090  149.5120 O   0  0  0  0  0  1  0  0  0  0  0  0
  157.3590  212.9740  149.4100 C   0  0  0  0  0  2  0  0  0  0  0  0
  1 10  1  6  0  0  0
  1  4  1  0  0  0  0
  1  9  1  0  0  0  0
  2  7  1  0  0  0  0
  2  5  2  0  0  0  0
  3  8  1  0  0  0  0
  4  3  1  6  0  0  0
  4  2  1  0  0  0  0
  6 10  1  0  0  0  0
  6  3  2  0  0  0  0
  9 24  1  1  0  0  0
  9  7  1  0  0  0  0
 11 15  1  6  0  0  0
 11 13  1  0  0  0  0
 12 11  1  0  0  0  0
 12 13  1  0  0  0  0
 13  6  1  0  0  0  0
 15 14  1  0  0  0  0
 16 15  2  0  0  0  0
 18 17  1  0  0  0  0
 19 14  1  1  0  0  0
 19 22  1  0  0  0  0
 20 23  1  0  0  0  0
 20 19  1  0  0  0  0
 21 20  2  0  0  0  0
 22 17  1  0  0  0  0
 23 18  1  0  0  0  0
 25 28  1  6  0  0  0
 25 31  1  0  0  0  0
 26 27  1  0  0  0  0
 27 25  1  0  0  0  0
 27 24  1  1  0  0  0
 29 34  1  6  0  0  0
 29 26  1  0  0  0  0
 29 28  1  0  0  0  0
 31 32  1  0  0  0  0
 31 33  1  1  0  0  0
 32 30  1  6  0  0  0
 32 33  1  0  0  0  0
 35 34  2  0  0  0  0
 36 38  1  6  0  0  0
 36 40  1  0  0  0  0
 36 35  1  0  0  0  0
 37 38  1  0  0  0  0
 40 39  1  0  0  0  0
M  END
>  <MODEL>
2

>  <REMARK>
 VINA RESULT:      -6.4      2.139      2.839
  Name = 
  10 active torsions:
  status: ('A' for Active; 'I' for Inactive)
    1  A    between atoms: C_1  and  C_16
    2  A    between atoms: N_3  and  C_18
    3  A    between atoms: C_4  and  C_28
    4  A    between atoms: C_8  and  C_13
    5  A    between atoms: C_8  and  C_31
    6  A    between atoms: C_8  and  C_39
    7  A    between atoms: C_14  and  C_15
    8  A    between atoms: C_15  and  C_37
    9  A    between atoms: C_17  and  C_21
   10  A    between atoms: C_34  and  N_40
                            x       y       z     vdW  Elec       q    Type
                         _______ _______ _______ _____ _____    ______ ____

>  <TORSDO>
F 10

$$$$
=
 OpenBabel11052411493D

 40 45  0  0  1  0  0  0  0  0999 V2000
  160.9290  209.1400  153.4020 C   0  0  1  0  0  3  0  0  0  0  0  0
  160.5590  208.8140  155.6630 C   0  0  0  0  0  0  0  0  0  0  0  0
  160.4940  211.0670  154.5560 C   0  0  0  0  0  0  0  0  0  0  0  0
  161.2060  209.7650  154.7170 C   0  0  2  0  0  3  0  0  0  0  0  0
  160.3340  209.1020  156.8260 O   0  0  0  0  0  0  0  0  0  0  0  0
  160.0000  211.1580  153.3320 C   0  0  0  0  0  0  0  0  0  0  0  0
  160.2290  207.1670  155.0120 S   0  0  0  0  0  0  0  0  0  0  0  0
  160.4570  212.1510  155.5790 C   0  0  0  0  0  1  0  0  0  0  0  0
  160.8580  207.6570  153.3630 C   0  0  2  0  0  3  0  0  0  0  0  0
  160.1970  209.9140  152.6090 C   0  0  0  0  0  2  0  0  0  0  0  0
  159.1930  213.5330  152.0130 C   0  0  1  0  0  3  0  0  0  0  0  0
  158.0520  213.1020  152.6620 C   0  0  0  0  0  2  0  0  0  0  0  0
  159.2860  212.2810  152.8240 N   0  0  0  0  0  0  0  0  0  0  0  0
  160.3510  212.9960  149.8290 N   0  0  0  0  0  2  0  0  0  0  0  0
  159.1370  213.1840  150.5610 C   0  0  0  0  0  0  0  0  0  0  0  0
  158.0200  213.0250  149.9970 O   0  0  0  0  0  0  0  0  0  0  0  0
  162.8670  212.6590  148.0490 C   0  0  0  0  0  2  0  0  0  0  0  0
  162.7290  213.6190  146.8760 C   0  0  0  0  0  2  0  0  0  0  0  0
  160.3720  212.6150  148.4220 C   0  0  1  0  0  3  0  0  0  0  0  0
  160.3090  213.8490  147.5680 C   0  0  0  0  0  0  0  0  0  0  0  0
  159.2150  214.4530  147.4280 O   0  0  0  0  0  0  0  0  0  0  0  0
  161.6220  211.7810  148.1180 C   0  0  0  0  0  2  0  0  0  0  0  0
  161.4980  214.3940  146.9850 N   0  0  0  0  0  2  0  0  0  0  0  0
  162.2420  207.0550  153.1630 C   0  0  0  0  0  2  0  0  0  0  0  0
  160.8090  205.5450  151.8140 C   0  0  1  0  0  3  0  0  0  0  0  0
  162.6550  206.6380  150.7800 C   0  0  0  0  0  2  0  0  0  0  0  0
  162.2330  206.0020  152.0680 C   0  0  1  0  0  3  0  0  0  0  0  0
  160.4070  205.9620  150.5300 O   0  0  0  0  0  0  0  0  0  0  0  0
  161.5850  206.2170  149.8080 C   0  0  1  0  0  3  0  0  0  0  0  0
  160.4320  202.1000  150.5680 N   0  0  0  0  0  1  0  0  0  0  0  0
  160.7100  204.0290  151.9290 C   0  0  1  0  0  3  0  0  0  0  0  0
  161.0340  203.4190  150.6430 C   0  0  1  0  0  3  0  0  0  0  0  0
  162.0380  203.4330  151.7160 N   0  0  0  0  0  2  0  0  0  0  0  0
  161.3520  207.3090  148.8090 C   0  0  0  0  0  3  0  0  0  0  0  0
  161.5170  207.1470  147.4890 C   0  0  0  0  0  3  0  0  0  0  0  0
  161.9710  205.8600  146.8660 C   0  0  1  0  0  3  0  0  0  0  0  0
  161.6110  203.3920  146.8170 C   0  0  0  0  0  1  0  0  0  0  0  0
  161.1900  204.6990  147.4620 C   0  0  0  0  0  2  0  0  0  0  0  0
  160.4910  206.0880  144.9730 O   0  0  0  0  0  1  0  0  0  0  0  0
  161.8260  205.9050  145.3430 C   0  0  0  0  0  2  0  0  0  0  0  0
  1 10  1  1  0  0  0
  1  4  1  0  0  0  0
  2  5  2  0  0  0  0
  3  8  1  0  0  0  0
  4  3  1  6  0  0  0
  4  2  1  0  0  0  0
  6  3  2  0  0  0  0
  7  2  1  0  0  0  0
  9 24  1  1  0  0  0
  9  1  1  0  0  0  0
  9  7  1  0  0  0  0
 10  6  1  0  0  0  0
 11 15  1  6  0  0  0
 11 12  1  0  0  0  0
 11 13  1  0  0  0  0
 12 13  1  0  0  0  0
 13  6  1  0  0  0  0
 14 15  1  0  0  0  0
 16 15  2  0  0  0  0
 17 22  1  0  0  0  0
 18 23  1  0  0  0  0
 18 17  1  0  0  0  0
 19 14  1  1  0  0  0
 20 19  1  0  0  0  0
 21 20  2  0  0  0  0
 22 19  1  0  0  0  0
 23 20  1  0  0  0  0
 25 28  1  6  0  0  0
 25 31  1  0  0  0  0
 25 27  1  0  0  0  0
 26 27  1  0  0  0  0
 27 24  1  1  0  0  0
 29 34  1  6  0  0  0
 29 28  1  0  0  0  0
 29 26  1  0  0  0  0
 31 33  1  1  0  0  0
 32 30  1  1  0  0  0
 32 33  1  0  0  0  0
 32 31  1  0  0  0  0
 35 34  2  0  0  0  0
 36 40  1  6  0  0  0
 36 38  1  0  0  0  0
 36 35  1  0  0  0  0
 37 38  1  0  0  0  0
 39 40  1  0  0  0  0
M  END
>  <MODEL>
3

>  <REMARK>
 VINA RESULT:      -6.3      2.597      7.391
  Name = 
  10 active torsions:
  status: ('A' for Active; 'I' for Inactive)
    1  A    between atoms: C_1  and  C_16
    2  A    between atoms: N_3  and  C_18
    3  A    between atoms: C_4  and  C_28
    4  A    between atoms: C_8  and  C_13
    5  A    between atoms: C_8  and  C_31
    6  A    between atoms: C_8  and  C_39
    7  A    between atoms: C_14  and  C_15
    8  A    between atoms: C_15  and  C_37
    9  A    between atoms: C_17  and  C_21
   10  A    between atoms: C_34  and  N_40
                            x       y       z     vdW  Elec       q    Type
                         _______ _______ _______ _____ _____    ______ ____

>  <TORSDO>
F 10

$$$$
=
 OpenBabel11052411493D

 40 45  0  0  1  0  0  0  0  0999 V2000
  160.5430  209.8340  152.4220 C   0  0  1  0  0  3  0  0  0  0  0  0
  161.2610  208.6590  154.2810 C   0  0  0  0  0  0  0  0  0  0  0  0
  161.0730  207.6510  151.9890 C   0  0  0  0  0  0  0  0  0  0  0  0
  160.4440  208.4940  153.0480 C   0  0  2  0  0  3  0  0  0  0  0  0
  161.6490  207.7080  154.9390 O   0  0  0  0  0  0  0  0  0  0  0  0
  161.3730  208.4000  150.9400 C   0  0  0  0  0  0  0  0  0  0  0  0
  161.5520  210.3580  154.8050 S   0  0  0  0  0  0  0  0  0  0  0  0
  161.2230  206.1690  152.0550 C   0  0  0  0  0  1  0  0  0  0  0  0
  160.6640  210.9970  153.3380 C   0  0  2  0  0  3  0  0  0  0  0  0
  161.1170  209.8010  151.2250 C   0  0  0  0  0  2  0  0  0  0  0  0
  162.5890  206.8440  148.9080 C   0  0  1  0  0  3  0  0  0  0  0  0
  162.3890  208.0760  148.3160 C   0  0  0  0  0  2  0  0  0  0  0  0
  161.9580  207.9170  149.7350 N   0  0  0  0  0  0  0  0  0  0  0  0
  161.5780  204.5250  148.9470 N   0  0  0  0  0  2  0  0  0  0  0  0
  161.5420  205.8730  148.4680 C   0  0  0  0  0  0  0  0  0  0  0  0
  160.6130  206.2540  147.7050 O   0  0  0  0  0  0  0  0  0  0  0  0
  161.1090  201.7930  150.3340 C   0  0  0  0  0  2  0  0  0  0  0  0
  161.2720  200.7090  149.2770 C   0  0  0  0  0  2  0  0  0  0  0  0
  160.5680  203.5360  148.5930 C   0  0  1  0  0  3  0  0  0  0  0  0
  161.1350  202.5800  147.5830 C   0  0  0  0  0  0  0  0  0  0  0  0
  161.2570  202.9410  146.3840 O   0  0  0  0  0  0  0  0  0  0  0  0
  160.0780  202.8060  149.8490 C   0  0  0  0  0  2  0  0  0  0  0  0
  161.6210  201.2950  147.9870 N   0  0  0  0  0  2  0  0  0  0  0  0
  159.2890  211.4910  153.7680 C   0  0  0  0  0  2  0  0  0  0  0  0
  158.0740  213.1440  152.3740 C   0  0  1  0  0  3  0  0  0  0  0  0
  158.5140  213.6420  154.6600 C   0  0  0  0  0  2  0  0  0  0  0  0
  159.1140  212.9690  153.4650 C   0  0  1  0  0  3  0  0  0  0  0  0
  156.9350  213.7760  152.9090 O   0  0  0  0  0  0  0  0  0  0  0  0
  157.3530  214.4140  154.0900 C   0  0  1  0  0  3  0  0  0  0  0  0
  160.5430  214.0680  149.8010 N   0  0  0  0  0  1  0  0  0  0  0  0
  158.6430  213.9710  151.2280 C   0  0  1  0  0  3  0  0  0  0  0  0
  159.6270  213.1810  150.4950 C   0  0  1  0  0  3  0  0  0  0  0  0
  158.2760  213.3520  149.9450 N   0  0  0  0  0  2  0  0  0  0  0  0
  156.2320  214.4480  155.0830 C   0  0  0  0  0  3  0  0  0  0  0  0
  155.9750  213.4500  155.9390 C   0  0  0  0  0  3  0  0  0  0  0  0
  156.7710  212.1780  155.9860 C   0  0  1  0  0  3  0  0  0  0  0  0
  158.6590  211.0520  157.1640 C   0  0  0  0  0  1  0  0  0  0  0  0
  157.6160  212.1500  157.2510 C   0  0  0  0  0  2  0  0  0  0  0  0
  155.6830  210.5510  154.5730 O   0  0  0  0  0  1  0  0  0  0  0  0
  155.8570  210.9540  155.9000 C   0  0  0  0  0  2  0  0  0  0  0  0
  1 10  1  6  0  0  0
  1  4  1  0  0  0  0
  1  9  1  0  0  0  0
  2  7  1  0  0  0  0
  2  5  2  0  0  0  0
  3  8  1  0  0  0  0
  4  3  1  6  0  0  0
  4  2  1  0  0  0  0
  6 10  1  0  0  0  0
  6  3  2  0  0  0  0
  9 24  1  1  0  0  0
  9  7  1  0  0  0  0
 11 15  1  6  0  0  0
 11 13  1  0  0  0  0
 12 11  1  0  0  0  0
 12 13  1  0  0  0  0
 13  6  1  0  0  0  0
 15 14  1  0  0  0  0
 16 15  2  0  0  0  0
 18 17  1  0  0  0  0
 19 14  1  1  0  0  0
 19 22  1  0  0  0  0
 20 23  1  0  0  0  0
 20 19  1  0  0  0  0
 21 20  2  0  0  0  0
 22 17  1  0  0  0  0
 23 18  1  0  0  0  0
 25 28  1  1  0  0  0
 25 27  1  0  0  0  0
 27 24  1  1  0  0  0
 27 26  1  0  0  0  0
 28 29  1  0  0  0  0
 29 26  1  0  0  0  0
 29 34  1  1  0  0  0
 31 33  1  6  0  0  0
 31 25  1  0  0  0  0
 32 30  1  6  0  0  0
 32 31  1  0  0  0  0
 33 32  1  0  0  0  0
 34 35  2  0  0  0  0
 35 36  1  0  0  0  0
 36 40  1  1  0  0  0
 36 38  1  0  0  0  0
 37 38  1  0  0  0  0
 39 40  1  0  0  0  0
M  END
>  <MODEL>
4

>  <REMARK>
 VINA RESULT:      -6.2      2.611      4.823
  Name = 
  10 active torsions:
  status: ('A' for Active; 'I' for Inactive)
    1  A    between atoms: C_1  and  C_16
    2  A    between atoms: N_3  and  C_18
    3  A    between atoms: C_4  and  C_28
    4  A    between atoms: C_8  and  C_13
    5  A    between atoms: C_8  and  C_31
    6  A    between atoms: C_8  and  C_39
    7  A    between atoms: C_14  and  C_15
    8  A    between atoms: C_15  and  C_37
    9  A    between atoms: C_17  and  C_21
   10  A    between atoms: C_34  and  N_40
                            x       y       z     vdW  Elec       q    Type
                         _______ _______ _______ _____ _____    ______ ____

>  <TORSDO>
F 10

$$$$
=
 OpenBabel11052411493D

 40 45  0  0  1  0  0  0  0  0999 V2000
  161.1340  205.9500  150.1440 C   0  0  1  0  0  3  0  0  0  0  0  0
  162.0880  206.0430  152.2500 C   0  0  0  0  0  0  0  0  0  0  0  0
  160.7520  204.0870  151.4160 C   0  0  0  0  0  0  0  0  0  0  0  0
  160.8620  205.5690  151.5500 C   0  0  2  0  0  3  0  0  0  0  0  0
  162.3750  205.6840  153.3790 O   0  0  0  0  0  0  0  0  0  0  0  0
  160.8570  203.7440  150.1420 C   0  0  0  0  0  0  0  0  0  0  0  0
  163.0700  207.2680  151.3650 S   0  0  0  0  0  0  0  0  0  0  0  0
  160.4440  203.1490  152.5340 C   0  0  0  0  0  1  0  0  0  0  0  0
  161.9460  207.1740  149.9230 C   0  0  2  0  0  3  0  0  0  0  0  0
  161.1780  204.9030  149.3280 C   0  0  0  0  0  2  0  0  0  0  0  0
  160.1970  201.3750  148.7350 C   0  0  1  0  0  3  0  0  0  0  0  0
  161.1850  200.9810  149.6150 C   0  0  0  0  0  2  0  0  0  0  0  0
  160.7670  202.4110  149.6470 N   0  0  0  0  0  0  0  0  0  0  0  0
  160.8530  202.8700  146.8010 N   0  0  0  0  0  2  0  0  0  0  0  0
  160.7570  201.5570  147.3610 C   0  0  0  0  0  0  0  0  0  0  0  0
  161.1740  200.5560  146.7170 O   0  0  0  0  0  0  0  0  0  0  0  0
  162.4850  205.3660  145.9570 C   0  0  0  0  0  2  0  0  0  0  0  0
  161.7540  206.0180  144.7910 C   0  0  0  0  0  2  0  0  0  0  0  0
  161.4260  203.1260  145.4860 C   0  0  1  0  0  3  0  0  0  0  0  0
  160.4300  203.8700  144.6420 C   0  0  0  0  0  0  0  0  0  0  0  0
  159.4560  203.2530  144.1400 O   0  0  0  0  0  0  0  0  0  0  0  0
  162.7410  203.9010  145.6220 C   0  0  0  0  0  2  0  0  0  0  0  0
  160.5300  205.2890  144.4770 N   0  0  0  0  0  2  0  0  0  0  0  0
  161.0600  208.4130  149.9050 C   0  0  0  0  0  2  0  0  0  0  0  0
  161.0950  210.8800  150.1670 C   0  0  1  0  0  3  0  0  0  0  0  0
  161.4020  209.4960  152.0800 C   0  0  0  0  0  2  0  0  0  0  0  0
  161.7250  209.5760  150.6210 C   0  0  1  0  0  3  0  0  0  0  0  0
  160.3890  211.4570  151.2400 O   0  0  0  0  0  0  0  0  0  0  0  0
  160.9060  210.8790  152.4120 C   0  0  1  0  0  3  0  0  0  0  0  0
  163.5920  212.1850  147.7950 N   0  0  0  0  0  1  0  0  0  0  0  0
  162.1660  211.8400  149.6660 C   0  0  1  0  0  3  0  0  0  0  0  0
  162.2760  211.7360  148.2140 C   0  0  1  0  0  3  0  0  0  0  0  0
  161.5470  212.8640  148.8100 N   0  0  0  0  0  2  0  0  0  0  0  0
  159.8400  210.7960  153.4610 C   0  0  0  0  0  3  0  0  0  0  0  0
  160.0800  210.4320  154.7280 C   0  0  0  0  0  3  0  0  0  0  0  0
  161.4400  210.0500  155.2330 C   0  0  1  0  0  3  0  0  0  0  0  0
  163.1520  210.5550  156.9760 C   0  0  0  0  0  1  0  0  0  0  0  0
  161.8950  211.0500  156.2860 C   0  0  0  0  0  2  0  0  0  0  0  0
  160.4860  207.8350  155.1380 O   0  0  0  0  0  1  0  0  0  0  0  0
  161.4410  208.6230  155.7850 C   0  0  0  0  0  2  0  0  0  0  0  0
  1 10  1  1  0  0  0
  1  4  1  0  0  0  0
  2  5  2  0  0  0  0
  3  8  1  0  0  0  0
  4  3  1  6  0  0  0
  4  2  1  0  0  0  0
  6  3  2  0  0  0  0
  7  2  1  0  0  0  0
  9 24  1  1  0  0  0
  9  1  1  0  0  0  0
  9  7  1  0  0  0  0
 10  6  1  0  0  0  0
 11 15  1  6  0  0  0
 11 12  1  0  0  0  0
 11 13  1  0  0  0  0
 12 13  1  0  0  0  0
 13  6  1  0  0  0  0
 14 15  1  0  0  0  0
 16 15  2  0  0  0  0
 18 17  1  0  0  0  0
 19 22  1  0  0  0  0
 19 14  1  1  0  0  0
 20 19  1  0  0  0  0
 21 20  2  0  0  0  0
 22 17  1  0  0  0  0
 23 20  1  0  0  0  0
 23 18  1  0  0  0  0
 25 27  1  0  0  0  0
 25 28  1  1  0  0  0
 26 29  1  0  0  0  0
 27 24  1  6  0  0  0
 27 26  1  0  0  0  0
 28 29  1  0  0  0  0
 29 34  1  1  0  0  0
 31 33  1  6  0  0  0
 31 25  1  0  0  0  0
 32 30  1  1  0  0  0
 32 33  1  0  0  0  0
 32 31  1  0  0  0  0
 34 35  2  0  0  0  0
 36 35  1  1  0  0  0
 36 40  1  0  0  0  0
 36 38  1  0  0  0  0
 38 37  1  0  0  0  0
 39 40  1  0  0  0  0
M  END
>  <MODEL>
5

>  <REMARK>
 VINA RESULT:      -5.7      3.253      5.752
  Name = 
  10 active torsions:
  status: ('A' for Active; 'I' for Inactive)
    1  A    between atoms: C_1  and  C_16
    2  A    between atoms: N_3  and  C_18
    3  A    between atoms: C_4  and  C_28
    4  A    between atoms: C_8  and  C_13
    5  A    between atoms: C_8  and  C_31
    6  A    between atoms: C_8  and  C_39
    7  A    between atoms: C_14  and  C_15
    8  A    between atoms: C_15  and  C_37
    9  A    between atoms: C_17  and  C_21
   10  A    between atoms: C_34  and  N_40
                            x       y       z     vdW  Elec       q    Type
                         _______ _______ _______ _____ _____    ______ ____

>  <TORSDO>
F 10

$$$$
=
 OpenBabel11052411493D

 40 45  0  0  1  0  0  0  0  0999 V2000
  161.0530  208.3420  153.3100 C   0  0  1  0  0  3  0  0  0  0  0  0
  160.5710  208.5190  155.5670 C   0  0  0  0  0  0  0  0  0  0  0  0
  160.8240  210.4980  154.0420 C   0  0  0  0  0  0  0  0  0  0  0  0
  161.3620  209.1810  154.4930 C   0  0  2  0  0  3  0  0  0  0  0  0
  160.3450  209.0580  156.6370 O   0  0  0  0  0  0  0  0  0  0  0  0
  160.3860  210.3990  152.7970 C   0  0  0  0  0  0  0  0  0  0  0  0
  160.0590  206.8250  155.2300 S   0  0  0  0  0  0  0  0  0  0  0  0
  160.8900  211.7610  154.8300 C   0  0  0  0  0  1  0  0  0  0  0  0
  160.7980  206.8990  153.5570 C   0  0  2  0  0  3  0  0  0  0  0  0
  160.4490  209.0210  152.3420 C   0  0  0  0  0  2  0  0  0  0  0  0
  158.6890  212.2990  151.5560 C   0  0  1  0  0  3  0  0  0  0  0  0
  159.9560  212.6580  151.1430 C   0  0  0  0  0  2  0  0  0  0  0  0
  159.8350  211.4730  152.0400 N   0  0  0  0  0  0  0  0  0  0  0  0
  157.5590  212.6350  153.7950 N   0  0  0  0  0  2  0  0  0  0  0  0
  158.2200  213.1950  152.6570 C   0  0  0  0  0  0  0  0  0  0  0  0
  158.4390  214.4350  152.5920 O   0  0  0  0  0  0  0  0  0  0  0  0
  157.5020  211.7710  156.7720 C   0  0  0  0  0  2  0  0  0  0  0  0
  156.0630  211.8870  157.2550 C   0  0  0  0  0  2  0  0  0  0  0  0
  157.1120  213.4420  154.9230 C   0  0  1  0  0  3  0  0  0  0  0  0
  155.6440  213.2200  155.1480 C   0  0  0  0  0  0  0  0  0  0  0  0
  154.8070  213.7610  154.3800 O   0  0  0  0  0  0  0  0  0  0  0  0
  157.9320  213.1060  156.1740 C   0  0  0  0  0  2  0  0  0  0  0  0
  155.1900  212.3270  156.1720 N   0  0  0  0  0  2  0  0  0  0  0  0
  162.1020  206.1120  153.5570 C   0  0  0  0  0  2  0  0  0  0  0  0
  160.8110  204.6580  152.0150 C   0  0  1  0  0  3  0  0  0  0  0  0
  162.5780  206.0010  151.1520 C   0  0  0  0  0  2  0  0  0  0  0  0
  162.1910  205.1930  152.3510 C   0  0  1  0  0  3  0  0  0  0  0  0
  160.3950  205.1850  150.7770 O   0  0  0  0  0  0  0  0  0  0  0  0
  161.5580  205.6110  150.1150 C   0  0  1  0  0  3  0  0  0  0  0  0
  160.4340  201.3510  150.4390 N   0  0  0  0  0  1  0  0  0  0  0  0
  160.8320  203.1360  151.9580 C   0  0  1  0  0  3  0  0  0  0  0  0
  160.9540  202.7000  150.5710 C   0  0  1  0  0  3  0  0  0  0  0  0
  162.1340  202.6810  151.4450 N   0  0  0  0  0  2  0  0  0  0  0  0
  161.2520  206.7870  149.2390 C   0  0  0  0  0  3  0  0  0  0  0  0
  161.3580  206.7590  147.9040 C   0  0  0  0  0  3  0  0  0  0  0  0
  161.8120  205.5510  147.1380 C   0  0  1  0  0  3  0  0  0  0  0  0
  161.6100  203.0640  147.1360 C   0  0  0  0  0  1  0  0  0  0  0  0
  160.9090  204.3700  147.4620 C   0  0  0  0  0  2  0  0  0  0  0  0
  160.8890  205.0610  144.9620 O   0  0  0  0  0  1  0  0  0  0  0  0
  161.8410  205.8320  145.6340 C   0  0  0  0  0  2  0  0  0  0  0  0
  1 10  1  1  0  0  0
  1  9  1  0  0  0  0
  1  4  1  0  0  0  0
  2  5  2  0  0  0  0
  3  8  1  0  0  0  0
  4  3  1  6  0  0  0
  4  2  1  0  0  0  0
  6  3  2  0  0  0  0
  7  2  1  0  0  0  0
  9 24  1  1  0  0  0
  9  7  1  0  0  0  0
 10  6  1  0  0  0  0
 11 13  1  0  0  0  0
 11 15  1  1  0  0  0
 12 11  1  0  0  0  0
 12 13  1  0  0  0  0
 13  6  1  0  0  0  0
 15 14  1  0  0  0  0
 16 15  2  0  0  0  0
 17 18  1  0  0  0  0
 19 14  1  6  0  0  0
 19 20  1  0  0  0  0
 19 22  1  0  0  0  0
 20 23  1  0  0  0  0
 21 20  2  0  0  0  0
 22 17  1  0  0  0  0
 23 18  1  0  0  0  0
 25 28  1  6  0  0  0
 25 27  1  0  0  0  0
 26 27  1  0  0  0  0
 27 24  1  1  0  0  0
 29 34  1  6  0  0  0
 29 28  1  0  0  0  0
 29 26  1  0  0  0  0
 31 33  1  1  0  0  0
 31 25  1  0  0  0  0
 32 30  1  1  0  0  0
 32 33  1  0  0  0  0
 32 31  1  0  0  0  0
 35 34  2  0  0  0  0
 36 40  1  6  0  0  0
 36 38  1  0  0  0  0
 36 35  1  0  0  0  0
 37 38  1  0  0  0  0
 39 40  1  0  0  0  0
M  END
>  <MODEL>
6

>  <REMARK>
 VINA RESULT:      -5.6      2.514      8.897
  Name = 
  10 active torsions:
  status: ('A' for Active; 'I' for Inactive)
    1  A    between atoms: C_1  and  C_16
    2  A    between atoms: N_3  and  C_18
    3  A    between atoms: C_4  and  C_28
    4  A    between atoms: C_8  and  C_13
    5  A    between atoms: C_8  and  C_31
    6  A    between atoms: C_8  and  C_39
    7  A    between atoms: C_14  and  C_15
    8  A    between atoms: C_15  and  C_37
    9  A    between atoms: C_17  and  C_21
   10  A    between atoms: C_34  and  N_40
                            x       y       z     vdW  Elec       q    Type
                         _______ _______ _______ _____ _____    ______ ____

>  <TORSDO>
F 10

$$$$
=
 OpenBabel11052411493D

 40 45  0  0  1  0  0  0  0  0999 V2000
  161.1900  208.3960  152.3750 C   0  0  1  0  0  3  0  0  0  0  0  0
  161.8800  209.4640  150.4420 C   0  0  0  0  0  0  0  0  0  0  0  0
  162.2160  207.0130  150.8690 C   0  0  0  0  0  0  0  0  0  0  0  0
  162.3050  208.4050  151.3990 C   0  0  2  0  0  3  0  0  0  0  0  0
  162.3970  209.5980  149.3450 O   0  0  0  0  0  0  0  0  0  0  0  0
  161.2730  206.3470  151.5170 C   0  0  0  0  0  0  0  0  0  0  0  0
  160.6290  210.6090  151.0480 S   0  0  0  0  0  0  0  0  0  0  0  0
  163.1360  206.4260  149.8530 C   0  0  0  0  0  1  0  0  0  0  0  0
  160.5050  209.6900  152.6260 C   0  0  2  0  0  3  0  0  0  0  0  0
  160.5570  207.2290  152.4210 C   0  0  0  0  0  2  0  0  0  0  0  0
  160.3130  203.8880  150.4870 C   0  0  1  0  0  3  0  0  0  0  0  0
  160.9660  203.5350  151.6510 C   0  0  0  0  0  2  0  0  0  0  0  0
  160.9390  204.9810  151.2900 N   0  0  0  0  0  0  0  0  0  0  0  0
  161.1180  204.4610  148.1580 N   0  0  0  0  0  2  0  0  0  0  0  0
  161.1640  203.5940  149.2940 C   0  0  0  0  0  0  0  0  0  0  0  0
  161.9440  202.6030  149.3100 O   0  0  0  0  0  0  0  0  0  0  0  0
  161.1420  206.2110  145.5990 C   0  0  0  0  0  2  0  0  0  0  0  0
  160.7970  205.3080  144.4230 C   0  0  0  0  0  2  0  0  0  0  0  0
  161.9500  204.2600  146.9780 C   0  0  1  0  0  3  0  0  0  0  0  0
  161.2270  203.3790  146.0000 C   0  0  0  0  0  0  0  0  0  0  0  0
  161.1570  202.1410  146.2100 O   0  0  0  0  0  0  0  0  0  0  0  0
  162.3220  205.6100  146.3550 C   0  0  0  0  0  2  0  0  0  0  0  0
  160.5400  203.9450  144.8780 N   0  0  0  0  0  2  0  0  0  0  0  0
  161.2210  210.4770  153.7150 C   0  0  0  0  0  2  0  0  0  0  0  0
  161.4200  210.5810  156.1860 C   0  0  1  0  0  3  0  0  0  0  0  0
  159.5740  211.6380  155.1160 C   0  0  0  0  0  2  0  0  0  0  0  0
  160.4540  210.4310  155.0250 C   0  0  1  0  0  3  0  0  0  0  0  0
  161.1850  211.8090  156.8330 O   0  0  0  0  0  0  0  0  0  0  0  0
  159.8850  212.2050  156.4760 C   0  0  1  0  0  3  0  0  0  0  0  0
  160.5180  207.1680  157.2370 N   0  0  0  0  0  1  0  0  0  0  0  0
  161.2510  209.4290  157.1690 C   0  0  1  0  0  3  0  0  0  0  0  0
  161.2070  208.1660  156.4390 C   0  0  1  0  0  3  0  0  0  0  0  0
  162.4420  208.5670  157.1250 N   0  0  0  0  0  2  0  0  0  0  0  0
  159.7930  213.7000  156.4340 C   0  0  0  0  0  3  0  0  0  0  0  0
  158.7670  214.3590  155.8790 C   0  0  0  0  0  3  0  0  0  0  0  0
  157.6050  213.6750  155.2220 C   0  0  1  0  0  3  0  0  0  0  0  0
  155.7590  212.3800  156.2900 C   0  0  0  0  0  1  0  0  0  0  0  0
  156.3850  213.7530  156.1290 C   0  0  0  0  0  2  0  0  0  0  0  0
  158.4940  214.4520  153.1170 O   0  0  0  0  0  1  0  0  0  0  0  0
  157.3150  214.2800  153.8470 C   0  0  0  0  0  2  0  0  0  0  0  0
  1 10  1  6  0  0  0
  1  9  1  0  0  0  0
  2  7  1  0  0  0  0
  3  4  1  0  0  0  0
  3  6  2  0  0  0  0
  4  2  1  6  0  0  0
  4  1  1  0  0  0  0
  5  2  2  0  0  0  0
  6 10  1  0  0  0  0
  7  9  1  0  0  0  0
  8  3  1  0  0  0  0
  9 24  1  1  0  0  0
 11 15  1  6  0  0  0
 11 13  1  0  0  0  0
 11 12  1  0  0  0  0
 13  6  1  0  0  0  0
 13 12  1  0  0  0  0
 14 15  1  0  0  0  0
 15 16  2  0  0  0  0
 17 22  1  0  0  0  0
 18 23  1  0  0  0  0
 18 17  1  0  0  0  0
 19 14  1  1  0  0  0
 20 21  2  0  0  0  0
 20 19  1  0  0  0  0
 22 19  1  0  0  0  0
 23 20  1  0  0  0  0
 25 28  1  1  0  0  0
 25 31  1  0  0  0  0
 26 29  1  0  0  0  0
 27 24  1  6  0  0  0
 27 26  1  0  0  0  0
 27 25  1  0  0  0  0
 29 34  1  6  0  0  0
 29 28  1  0  0  0  0
 31 33  1  1  0  0  0
 32 33  1  0  0  0  0
 32 31  1  0  0  0  0
 32 30  1  1  0  0  0
 35 34  2  0  0  0  0
 36 40  1  6  0  0  0
 36 35  1  0  0  0  0
 36 38  1  0  0  0  0
 38 37  1  0  0  0  0
 39 40  1  0  0  0  0
M  END
>  <MODEL>
7

>  <REMARK>
 VINA RESULT:      -5.5      3.133      4.794
  Name = 
  10 active torsions:
  status: ('A' for Active; 'I' for Inactive)
    1  A    between atoms: C_1  and  C_16
    2  A    between atoms: N_3  and  C_18
    3  A    between atoms: C_4  and  C_28
    4  A    between atoms: C_8  and  C_13
    5  A    between atoms: C_8  and  C_31
    6  A    between atoms: C_8  and  C_39
    7  A    between atoms: C_14  and  C_15
    8  A    between atoms: C_15  and  C_37
    9  A    between atoms: C_17  and  C_21
   10  A    between atoms: C_34  and  N_40
                            x       y       z     vdW  Elec       q    Type
                         _______ _______ _______ _____ _____    ______ ____

>  <TORSDO>
F 10

$$$$
=
 OpenBabel11052411493D

 40 45  0  0  1  0  0  0  0  0999 V2000
  159.8680  212.5790  152.0140 C   0  0  1  0  0  3  0  0  0  0  0  0
  158.6960  213.8400  150.4680 C   0  0  0  0  0  0  0  0  0  0  0  0
  160.8980  212.7360  149.9770 C   0  0  0  0  0  0  0  0  0  0  0  0
  160.0860  213.5580  150.9220 C   0  0  2  0  0  3  0  0  0  0  0  0
  158.4560  214.3960  149.4090 O   0  0  0  0  0  0  0  0  0  0  0  0
  161.1470  211.5530  150.5140 C   0  0  0  0  0  0  0  0  0  0  0  0
  157.3900  213.4070  151.6300 S   0  0  0  0  0  0  0  0  0  0  0  0
  161.4510  213.2230  148.6810 C   0  0  0  0  0  1  0  0  0  0  0  0
  158.6160  212.7170  152.8020 C   0  0  2  0  0  3  0  0  0  0  0  0
  160.4370  211.4040  151.7720 C   0  0  0  0  0  2  0  0  0  0  0  0
  162.5600  209.1760  149.8930 C   0  0  1  0  0  3  0  0  0  0  0  0
  162.7010  209.9580  148.7630 C   0  0  0  0  0  2  0  0  0  0  0  0
  161.9230  210.5270  149.9010 N   0  0  0  0  0  0  0  0  0  0  0  0
  161.4170  207.4650  148.4200 N   0  0  0  0  0  2  0  0  0  0  0  0
  161.5120  208.1320  149.6830 C   0  0  0  0  0  0  0  0  0  0  0  0
  160.7400  207.8190  150.6290 O   0  0  0  0  0  0  0  0  0  0  0  0
  161.6220  204.5090  149.3300 C   0  0  0  0  0  2  0  0  0  0  0  0
  161.5840  203.6410  148.0790 C   0  0  0  0  0  2  0  0  0  0  0  0
  160.4480  206.4090  148.1580 C   0  0  1  0  0  3  0  0  0  0  0  0
  160.7960  205.7170  146.8710 C   0  0  0  0  0  0  0  0  0  0  0  0
  160.5400  206.2770  145.7740 O   0  0  0  0  0  0  0  0  0  0  0  0
  160.4040  205.4260  149.3330 C   0  0  0  0  0  2  0  0  0  0  0  0
  161.4970  204.4680  146.8810 N   0  0  0  0  0  2  0  0  0  0  0  0
  158.8070  213.6970  153.9520 C   0  0  0  0  0  2  0  0  0  0  0  0
  158.1150  211.6120  155.1060 C   0  0  1  0  0  3  0  0  0  0  0  0
  160.0900  212.7390  155.8120 C   0  0  0  0  0  2  0  0  0  0  0  0
  158.7090  212.9950  155.2960 C   0  0  1  0  0  3  0  0  0  0  0  0
  159.0930  210.6400  155.3920 O   0  0  0  0  0  0  0  0  0  0  0  0
  160.0690  211.2780  156.1770 C   0  0  1  0  0  3  0  0  0  0  0  0
  155.0110  212.6150  156.8150 N   0  0  0  0  0  1  0  0  0  0  0  0
  156.9060  211.4240  156.0140 C   0  0  1  0  0  3  0  0  0  0  0  0
  155.8810  212.4050  155.6720 C   0  0  1  0  0  3  0  0  0  0  0  0
  155.7440  211.0180  155.2070 N   0  0  0  0  0  2  0  0  0  0  0  0
  161.4150  210.6730  155.9200 C   0  0  0  0  0  3  0  0  0  0  0  0
  161.5860  209.4350  155.4360 C   0  0  0  0  0  3  0  0  0  0  0  0
  160.4490  208.5110  155.1150 C   0  0  1  0  0  3  0  0  0  0  0  0
  161.4410  206.5280  153.9720 C   0  0  0  0  0  1  0  0  0  0  0  0
  160.7000  207.8370  153.7740 C   0  0  0  0  0  2  0  0  0  0  0  0
  161.3110  207.5050  157.1330 O   0  0  0  0  0  1  0  0  0  0  0  0
  160.2470  207.4790  156.2270 C   0  0  0  0  0  2  0  0  0  0  0  0
  1 10  1  6  0  0  0
  1  9  1  0  0  0  0
  2  4  1  0  0  0  0
  2  7  1  0  0  0  0
  3  6  2  0  0  0  0
  4  3  1  6  0  0  0
  4  1  1  0  0  0  0
  5  2  2  0  0  0  0
  6 10  1  0  0  0  0
  7  9  1  0  0  0  0
  8  3  1  0  0  0  0
  9 24  1  1  0  0  0
 11 15  1  6  0  0  0
 11 13  1  0  0  0  0
 12 11  1  0  0  0  0
 12 13  1  0  0  0  0
 13  6  1  0  0  0  0
 14 15  1  0  0  0  0
 15 16  2  0  0  0  0
 17 22  1  0  0  0  0
 18 17  1  0  0  0  0
 19 14  1  1  0  0  0
 19 22  1  0  0  0  0
 20 23  1  0  0  0  0
 20 19  1  0  0  0  0
 21 20  2  0  0  0  0
 23 18  1  0  0  0  0
 25 27  1  0  0  0  0
 25 28  1  1  0  0  0
 25 31  1  0  0  0  0
 26 29  1  0  0  0  0
 27 24  1  6  0  0  0
 27 26  1  0  0  0  0
 28 29  1  0  0  0  0
 29 34  1  6  0  0  0
 31 33  1  6  0  0  0
 32 31  1  0  0  0  0
 32 30  1  1  0  0  0
 33 32  1  0  0  0  0
 35 34  2  0  0  0  0
 36 38  1  6  0  0  0
 36 35  1  0  0  0  0
 36 40  1  0  0  0  0
 38 37  1  0  0  0  0
 40 39  1  0  0  0  0
M  END
>  <MODEL>
8

>  <REMARK>
 VINA RESULT:      -5.4      2.261      5.589
  Name = 
  10 active torsions:
  status: ('A' for Active; 'I' for Inactive)
    1  A    between atoms: C_1  and  C_16
    2  A    between atoms: N_3  and  C_18
    3  A    between atoms: C_4  and  C_28
    4  A    between atoms: C_8  and  C_13
    5  A    between atoms: C_8  and  C_31
    6  A    between atoms: C_8  and  C_39
    7  A    between atoms: C_14  and  C_15
    8  A    between atoms: C_15  and  C_37
    9  A    between atoms: C_17  and  C_21
   10  A    between atoms: C_34  and  N_40
                            x       y       z     vdW  Elec       q    Type
                         _______ _______ _______ _____ _____    ______ ____

>  <TORSDO>
F 10

$$$$
=
 OpenBabel11052411493D

 40 45  0  0  1  0  0  0  0  0999 V2000
  161.2330  206.6760  151.2140 C   0  0  1  0  0  3  0  0  0  0  0  0
  161.8800  208.4970  149.9440 C   0  0  0  0  0  0  0  0  0  0  0  0
  160.7100  208.6940  152.1570 C   0  0  0  0  0  0  0  0  0  0  0  0
  160.7730  208.0290  150.8220 C   0  0  2  0  0  3  0  0  0  0  0  0
  162.0120  209.6680  149.6280 O   0  0  0  0  0  0  0  0  0  0  0  0
  160.9990  207.8180  153.1060 C   0  0  0  0  0  0  0  0  0  0  0  0
  162.9530  207.2100  149.2840 S   0  0  0  0  0  0  0  0  0  0  0  0
  160.2650  210.0970  152.3910 C   0  0  0  0  0  1  0  0  0  0  0  0
  162.0450  205.9260  150.2220 C   0  0  2  0  0  3  0  0  0  0  0  0
  161.4100  206.5530  152.5250 C   0  0  0  0  0  2  0  0  0  0  0  0
  161.5780  208.7540  155.7180 C   0  0  1  0  0  3  0  0  0  0  0  0
  160.4250  208.0090  155.8740 C   0  0  0  0  0  2  0  0  0  0  0  0
  161.0030  208.1030  154.5020 N   0  0  0  0  0  0  0  0  0  0  0  0
  159.9490  210.6620  156.0460 N   0  0  0  0  0  2  0  0  0  0  0  0
  161.2630  210.2140  155.6980 C   0  0  0  0  0  0  0  0  0  0  0  0
  162.1650  211.0460  155.4090 O   0  0  0  0  0  0  0  0  0  0  0  0
  157.2240  211.8310  156.9510 C   0  0  0  0  0  2  0  0  0  0  0  0
  156.6580  212.6280  155.7840 C   0  0  0  0  0  2  0  0  0  0  0  0
  159.5830  212.0720  156.0880 C   0  0  1  0  0  3  0  0  0  0  0  0
  158.9700  212.4700  154.7760 C   0  0  0  0  0  0  0  0  0  0  0  0
  159.7090  212.6520  153.7740 O   0  0  0  0  0  0  0  0  0  0  0  0
  158.6300  212.3370  157.2590 C   0  0  0  0  0  2  0  0  0  0  0  0
  157.5480  212.5570  154.6300 N   0  0  0  0  0  2  0  0  0  0  0  0
  161.1490  205.1550  149.2620 C   0  0  0  0  0  2  0  0  0  0  0  0
  160.4040  202.8100  149.5790 C   0  0  1  0  0  3  0  0  0  0  0  0
  161.8100  203.3510  147.7350 C   0  0  0  0  0  2  0  0  0  0  0  0
  161.5650  203.6970  149.1700 C   0  0  1  0  0  3  0  0  0  0  0  0
  159.9530  202.0850  148.4580 O   0  0  0  0  0  0  0  0  0  0  0  0
  161.0060  202.0940  147.5280 C   0  0  1  0  0  3  0  0  0  0  0  0
  162.7100  201.3500  152.0520 N   0  0  0  0  0  1  0  0  0  0  0  0
  160.8310  201.8530  150.6850 C   0  0  1  0  0  3  0  0  0  0  0  0
  161.9650  202.4180  151.4090 C   0  0  1  0  0  3  0  0  0  0  0  0
  160.6200  202.4900  151.9940 N   0  0  0  0  0  2  0  0  0  0  0  0
  160.4640  202.0640  146.1330 C   0  0  0  0  0  3  0  0  0  0  0  0
  160.6030  203.0770  145.2660 C   0  0  0  0  0  3  0  0  0  0  0  0
  161.3030  204.3600  145.6030 C   0  0  1  0  0  3  0  0  0  0  0  0
  163.7410  204.7030  146.0060 C   0  0  0  0  0  1  0  0  0  0  0  0
  162.6850  204.3720  144.9680 C   0  0  0  0  0  2  0  0  0  0  0  0
  160.4580  206.5540  146.1500 O   0  0  0  0  0  1  0  0  0  0  0  0
  160.4770  205.5700  145.1590 C   0  0  0  0  0  2  0  0  0  0  0  0
  1 10  1  1  0  0  0
  3  8  1  0  0  0  0
  3  6  2  0  0  0  0
  4  2  1  6  0  0  0
  4  1  1  0  0  0  0
  4  3  1  0  0  0  0
  5  2  2  0  0  0  0
  6 13  1  0  0  0  0
  7  2  1  0  0  0  0
  7  9  1  0  0  0  0
  9 24  1  6  0  0  0
  9  1  1  0  0  0  0
 10  6  1  0  0  0  0
 11 15  1  6  0  0  0
 11 12  1  0  0  0  0
 13 11  1  0  0  0  0
 13 12  1  0  0  0  0
 15 14  1  0  0  0  0
 16 15  2  0  0  0  0
 17 22  1  0  0  0  0
 18 17  1  0  0  0  0
 19 14  1  6  0  0  0
 19 22  1  0  0  0  0
 20 19  1  0  0  0  0
 21 20  2  0  0  0  0
 23 20  1  0  0  0  0
 23 18  1  0  0  0  0
 25 28  1  6  0  0  0
 25 31  1  0  0  0  0
 26 27  1  0  0  0  0
 27 24  1  6  0  0  0
 27 25  1  0  0  0  0
 29 34  1  6  0  0  0
 29 26  1  0  0  0  0
 29 28  1  0  0  0  0
 31 32  1  0  0  0  0
 31 33  1  1  0  0  0
 32 33  1  0  0  0  0
 32 30  1  1  0  0  0
 35 36  1  0  0  0  0
 35 34  2  0  0  0  0
 36 38  1  6  0  0  0
 38 37  1  0  0  0  0
 40 36  1  0  0  0  0
 40 39  1  0  0  0  0
M  END
>  <MODEL>
9

>  <REMARK>
 VINA RESULT:      -5.3      3.246      9.410
  Name = 
  10 active torsions:
  status: ('A' for Active; 'I' for Inactive)
    1  A    between atoms: C_1  and  C_16
    2  A    between atoms: N_3  and  C_18
    3  A    between atoms: C_4  and  C_28
    4  A    between atoms: C_8  and  C_13
    5  A    between atoms: C_8  and  C_31
    6  A    between atoms: C_8  and  C_39
    7  A    between atoms: C_14  and  C_15
    8  A    between atoms: C_15  and  C_37
    9  A    between atoms: C_17  and  C_21
   10  A    between atoms: C_34  and  N_40
                            x       y       z     vdW  Elec       q    Type
                         _______ _______ _______ _____ _____    ______ ____

>  <TORSDO>
F 10

$$$$
