=
 OpenBabel11052411003D

 37 38  0  0  1  0  0  0  0  0999 V2000
  161.6900  206.7090  149.7640 N   0  0  0  0  0  0  0  0  0  0  0  0
  162.3350  206.8910  148.4910 C   0  0  0  0  0  0  0  0  0  0  0  0
  163.3640  207.6190  148.4210 O   0  0  0  0  0  0  0  0  0  0  0  0
  159.9290  206.0070  145.5540 C   0  0  0  0  0  3  0  0  0  0  0  0
  161.8070  206.2630  147.2550 C   0  0  0  0  0  0  0  0  0  0  0  0
  162.4930  205.2930  146.6160 C   0  0  0  0  0  0  0  0  0  0  0  0
  161.9530  204.6820  145.3910 C   0  0  0  0  0  0  0  0  0  0  0  0
  160.5280  206.8260  146.6670 C   0  0  0  0  0  2  0  0  0  0  0  0
  162.6310  203.8340  144.7510 O   0  0  0  0  0  0  0  0  0  0  0  0
  163.7050  204.8260  147.1200 O   0  0  0  0  0  1  0  0  0  0  0  0
  160.6020  205.0380  144.9380 C   0  0  0  0  0  0  0  0  0  0  0  0
  160.0150  204.3570  143.8790 O   0  0  0  0  0  1  0  0  0  0  0  0
  162.1150  207.4650  150.8710 N   0  0  0  0  0  2  0  0  0  0  0  0
  161.3970  208.7320  150.8470 C   0  0  1  0  0  3  0  0  0  0  0  0
  160.4340  208.7890  152.0220 C   0  0  0  0  0  2  0  0  0  0  0  0
  161.1740  208.6750  153.3450 C   0  0  0  0  0  3  0  0  0  0  0  0
  160.7060  207.4450  154.1240 C   0  0  0  0  0  2  0  0  0  0  0  0
  160.9230  209.9370  154.1670 C   0  0  0  0  0  2  0  0  0  0  0  0
  161.4330  207.3570  155.4630 C   0  0  0  0  0  2  0  0  0  0  0  0
  161.1800  208.6190  156.2810 C   0  0  0  0  0  2  0  0  0  0  0  0
  161.6490  209.8490  155.5070 C   0  0  0  0  0  2  0  0  0  0  0  0
  162.3850  209.8870  150.9360 C   0  0  0  0  0  2  0  0  0  0  0  0
  161.9040  210.9880  150.2250 O   0  0  0  0  0  0  0  0  0  0  0  0
  162.0450  210.6390  148.8810 C   0  0  0  0  0  2  0  0  0  0  0  0
  162.0630  211.8710  148.0490 C   0  0  0  0  0  0  0  0  0  0  0  0
  163.2110  212.6500  147.9880 O   0  0  0  0  0  1  0  0  0  0  0  0
  161.0520  212.1900  147.3690 O   0  0  0  0  0  0  0  0  0  0  0  0
  160.7360  205.6240  149.9700 C   0  0  0  0  0  2  0  0  0  0  0  0
  161.4590  204.2890  150.0120 C   0  0  0  0  0  2  0  0  0  0  0  0
  160.5410  203.2210  150.5930 C   0  0  2  0  0  3  0  0  0  0  0  0
  160.9620  203.8800  152.6720 C   0  0  0  0  0  1  0  0  0  0  0  0
  161.0580  202.7800  151.8170 O   0  0  0  0  0  0  0  0  0  0  0  0
  160.4220  202.0490  149.6190 C   0  0  2  0  0  3  0  0  0  0  0  0
  161.1310  200.9510  150.1150 O   0  0  0  0  0  1  0  0  0  0  0  0
  160.9870  202.4390  148.2580 C   0  0  0  0  0  2  0  0  0  0  0  0
  160.5130  201.5600  146.0840 O   0  0  0  0  0  1  0  0  0  0  0  0
  161.0550  201.2390  147.3280 C   0  0  0  0  0  2  0  0  0  0  0  0
  1 28  1  0  0  0  0
  1 13  1  0  0  0  0
  2  1  1  0  0  0  0
  3  2  2  0  0  0  0
  4  8  1  0  0  0  0
  5  2  1  0  0  0  0
  6 10  1  0  0  0  0
  6  5  2  0  0  0  0
  7  6  1  0  0  0  0
  8  5  1  0  0  0  0
  9  7  2  0  0  0  0
 11  7  1  0  0  0  0
 11  4  2  0  0  0  0
 12 11  1  0  0  0  0
 14 13  1  0  0  0  0
 14 22  1  1  0  0  0
 14 15  1  0  0  0  0
 15 16  1  0  0  0  0
 16 17  1  0  0  0  0
 16 18  1  0  0  0  0
 17 19  1  0  0  0  0
 18 21  1  0  0  0  0
 19 20  1  0  0  0  0
 21 20  1  0  0  0  0
 23 22  1  0  0  0  0
 24 23  1  0  0  0  0
 25 24  1  0  0  0  0
 26 25  1  0  0  0  0
 27 25  2  0  0  0  0
 28 29  1  0  0  0  0
 30 29  1  6  0  0  0
 30 32  1  0  0  0  0
 32 31  1  0  0  0  0
 33 34  1  1  0  0  0
 33 30  1  0  0  0  0
 35 33  1  0  0  0  0
 36 37  1  0  0  0  0
 37 35  1  0  0  0  0
M  END
>  <MODEL>
1

>  <REMARK>
 VINA RESULT:      -6.3      0.000      0.000
  Name = 
  16 active torsions:
  status: ('A' for Active; 'I' for Inactive)
    1  A    between atoms: C_1  and  C_22
    2  A    between atoms: C_1  and  C_25
    3  A    between atoms: C_2  and  C_37
    4  A    between atoms: N_3  and  C_4
    5  A    between atoms: N_3  and  N_31
    6  A    between atoms: C_4  and  C_28
    7  A    between atoms: C_5  and  C_19
    8  A    between atoms: C_9  and  C_20
    9  A    between atoms: C_11  and  C_22
   10  A    between atoms: C_11  and  C_28
   11  A    between atoms: C_11  and  O_35
   12  A    between atoms: O_15  and  C_19
   13  A    between atoms: O_15  and  C_21
   14  A    between atoms: C_21  and  C_32
   15  A    between atoms: N_31  and  C_32
   16  A    between atoms: C_32  and  C_37
                            x       y       z     vdW  Elec       q    Type
                         _______ _______ _______ _____ _____    ______ ____

>  <TORSDO>
F 16

$$$$
=
 OpenBabel11052411003D

 37 38  0  0  1  0  0  0  0  0999 V2000
  161.8500  209.0060  151.0940 N   0  0  0  0  0  0  0  0  0  0  0  0
  161.1120  208.9070  152.3260 C   0  0  0  0  0  0  0  0  0  0  0  0
  160.9590  207.7750  152.8620 O   0  0  0  0  0  0  0  0  0  0  0  0
  158.8340  212.0190  152.8950 C   0  0  0  0  0  3  0  0  0  0  0  0
  160.5060  210.1000  152.9670 C   0  0  0  0  0  0  0  0  0  0  0  0
  160.9830  210.5820  154.1330 C   0  0  0  0  0  0  0  0  0  0  0  0
  160.3690  211.7680  154.7550 C   0  0  0  0  0  0  0  0  0  0  0  0
  159.2630  210.6890  152.3330 C   0  0  0  0  0  2  0  0  0  0  0  0
  160.7630  212.1690  155.8820 O   0  0  0  0  0  0  0  0  0  0  0  0
  162.0840  209.9950  154.7520 O   0  0  0  0  0  1  0  0  0  0  0  0
  159.3210  212.5010  154.0360 C   0  0  0  0  0  0  0  0  0  0  0  0
  158.8430  213.7090  154.5330 O   0  0  0  0  0  1  0  0  0  0  0  0
  162.2490  207.8330  150.4290 N   0  0  0  0  0  2  0  0  0  0  0  0
  161.2610  207.5510  149.3960 C   0  0  1  0  0  3  0  0  0  0  0  0
  161.9580  207.4330  148.0500 C   0  0  0  0  0  2  0  0  0  0  0  0
  161.4430  206.2360  147.2660 C   0  0  0  0  0  3  0  0  0  0  0  0
  162.6000  205.3530  146.8000 C   0  0  0  0  0  2  0  0  0  0  0  0
  160.6510  206.7340  146.0590 C   0  0  0  0  0  2  0  0  0  0  0  0
  162.0740  204.1720  145.9900 C   0  0  0  0  0  2  0  0  0  0  0  0
  161.2830  204.6740  144.7860 C   0  0  0  0  0  2  0  0  0  0  0  0
  160.1240  205.5540  145.2480 C   0  0  0  0  0  2  0  0  0  0  0  0
  160.5390  206.2490  149.7150 C   0  0  0  0  0  2  0  0  0  0  0  0
  161.2700  205.5070  150.6430 O   0  0  0  0  0  0  0  0  0  0  0  0
  161.2810  204.2060  150.1360 C   0  0  0  0  0  2  0  0  0  0  0  0
  160.9840  203.2450  151.2310 C   0  0  0  0  0  0  0  0  0  0  0  0
  160.7370  203.7130  152.5160 O   0  0  0  0  0  1  0  0  0  0  0  0
  160.9190  202.0110  150.9890 O   0  0  0  0  0  0  0  0  0  0  0  0
  162.3540  210.2930  150.6270 C   0  0  0  0  0  2  0  0  0  0  0  0
  161.7700  210.6250  149.2650 C   0  0  0  0  0  2  0  0  0  0  0  0
  161.9070  212.1170  148.9920 C   0  0  2  0  0  3  0  0  0  0  0  0
  160.4050  213.4190  149.9830 C   0  0  0  0  0  1  0  0  0  0  0  0
  160.6340  212.6770  148.8230 O   0  0  0  0  0  0  0  0  0  0  0  0
  162.7520  212.3420  147.7390 C   0  0  2  0  0  3  0  0  0  0  0  0
  164.1080  212.3180  148.0750 O   0  0  0  0  0  1  0  0  0  0  0  0
  162.4130  213.6910  147.1130 C   0  0  0  0  0  2  0  0  0  0  0  0
  160.9610  212.7020  145.4900 O   0  0  0  0  0  1  0  0  0  0  0  0
  162.0650  213.5410  145.6420 C   0  0  0  0  0  2  0  0  0  0  0  0
  1  2  1  0  0  0  0
  2  3  2  0  0  0  0
  2  5  1  0  0  0  0
  4 11  2  0  0  0  0
  5  6  2  0  0  0  0
  6 10  1  0  0  0  0
  6  7  1  0  0  0  0
  7  9  2  0  0  0  0
  8  4  1  0  0  0  0
  8  5  1  0  0  0  0
 11 12  1  0  0  0  0
 11  7  1  0  0  0  0
 13  1  1  0  0  0  0
 14 15  1  6  0  0  0
 14 22  1  0  0  0  0
 14 13  1  0  0  0  0
 16 15  1  0  0  0  0
 17 16  1  0  0  0  0
 18 16  1  0  0  0  0
 19 17  1  0  0  0  0
 20 21  1  0  0  0  0
 20 19  1  0  0  0  0
 21 18  1  0  0  0  0
 22 23  1  0  0  0  0
 24 23  1  0  0  0  0
 24 25  1  0  0  0  0
 25 26  1  0  0  0  0
 27 25  2  0  0  0  0
 28  1  1  0  0  0  0
 29 28  1  0  0  0  0
 30 29  1  6  0  0  0
 32 30  1  0  0  0  0
 32 31  1  0  0  0  0
 33 34  1  1  0  0  0
 33 30  1  0  0  0  0
 35 33  1  0  0  0  0
 36 37  1  0  0  0  0
 37 35  1  0  0  0  0
M  END
>  <MODEL>
2

>  <REMARK>
 VINA RESULT:      -6.0      2.462      9.150
  Name = 
  16 active torsions:
  status: ('A' for Active; 'I' for Inactive)
    1  A    between atoms: C_1  and  C_22
    2  A    between atoms: C_1  and  C_25
    3  A    between atoms: C_2  and  C_37
    4  A    between atoms: N_3  and  C_4
    5  A    between atoms: N_3  and  N_31
    6  A    between atoms: C_4  and  C_28
    7  A    between atoms: C_5  and  C_19
    8  A    between atoms: C_9  and  C_20
    9  A    between atoms: C_11  and  C_22
   10  A    between atoms: C_11  and  C_28
   11  A    between atoms: C_11  and  O_35
   12  A    between atoms: O_15  and  C_19
   13  A    between atoms: O_15  and  C_21
   14  A    between atoms: C_21  and  C_32
   15  A    between atoms: N_31  and  C_32
   16  A    between atoms: C_32  and  C_37
                            x       y       z     vdW  Elec       q    Type
                         _______ _______ _______ _____ _____    ______ ____

>  <TORSDO>
F 16

$$$$
=
 OpenBabel11052411003D

 37 38  0  0  1  0  0  0  0  0999 V2000
  161.2850  208.5320  150.4730 N   0  0  0  0  0  0  0  0  0  0  0  0
  160.9310  207.9740  151.7520 C   0  0  0  0  0  0  0  0  0  0  0  0
  160.4290  206.8170  151.8010 O   0  0  0  0  0  0  0  0  0  0  0  0
  161.2680  210.9700  154.2230 C   0  0  0  0  0  3  0  0  0  0  0  0
  161.1190  208.7350  153.0110 C   0  0  0  0  0  0  0  0  0  0  0  0
  161.4240  208.1090  154.1670 C   0  0  0  0  0  0  0  0  0  0  0  0
  161.6070  208.8810  155.4070 C   0  0  0  0  0  0  0  0  0  0  0  0
  160.8440  210.2250  152.9850 C   0  0  0  0  0  2  0  0  0  0  0  0
  161.8130  208.2890  156.4990 O   0  0  0  0  0  0  0  0  0  0  0  0
  161.6080  206.7290  154.2030 O   0  0  0  0  0  1  0  0  0  0  0  0
  161.5870  210.3480  155.3560 C   0  0  0  0  0  0  0  0  0  0  0  0
  161.9150  211.0940  156.4820 O   0  0  0  0  0  1  0  0  0  0  0  0
  160.9240  207.8530  149.2960 N   0  0  0  0  0  2  0  0  0  0  0  0
  161.6130  206.5690  149.2940 C   0  0  1  0  0  3  0  0  0  0  0  0
  160.6090  205.4560  149.0440 C   0  0  0  0  0  2  0  0  0  0  0  0
  161.1880  204.1000  149.4110 C   0  0  0  0  0  3  0  0  0  0  0  0
  160.8580  203.0610  148.3400 C   0  0  0  0  0  2  0  0  0  0  0  0
  160.6130  203.6600  150.7560 C   0  0  0  0  0  2  0  0  0  0  0  0
  161.4180  201.6970  148.7330 C   0  0  0  0  0  2  0  0  0  0  0  0
  160.8420  201.2610  150.0760 C   0  0  0  0  0  2  0  0  0  0  0  0
  161.1730  202.2950  151.1500 C   0  0  0  0  0  2  0  0  0  0  0  0
  162.6750  206.5570  148.2040 C   0  0  0  0  0  2  0  0  0  0  0  0
  162.1130  206.9200  146.9790 O   0  0  0  0  0  0  0  0  0  0  0  0
  162.3130  205.8160  146.1490 C   0  0  0  0  0  2  0  0  0  0  0  0
  161.1470  205.6620  145.2400 C   0  0  0  0  0  0  0  0  0  0  0  0
  161.2240  204.8000  144.1530 O   0  0  0  0  0  0  0  0  0  0  0  0
  160.0760  206.2830  145.4730 O   0  0  0  0  0  1  0  0  0  0  0  0
  162.1750  209.6850  150.3820 C   0  0  0  0  0  2  0  0  0  0  0  0
  162.0780  210.3170  149.0050 C   0  0  0  0  0  2  0  0  0  0  0  0
  161.9030  211.8250  149.1380 C   0  0  2  0  0  3  0  0  0  0  0  0
  160.4700  213.3880  149.7990 C   0  0  0  0  0  1  0  0  0  0  0  0
  160.9130  212.0960  150.0890 O   0  0  0  0  0  0  0  0  0  0  0  0
  161.5150  212.4260  147.7880 C   0  0  2  0  0  3  0  0  0  0  0  0
  160.7730  211.4960  147.0540 O   0  0  0  0  0  1  0  0  0  0  0  0
  162.7660  212.8030  147.0010 C   0  0  0  0  0  2  0  0  0  0  0  0
  161.2490  214.4510  146.1610 O   0  0  0  0  0  1  0  0  0  0  0  0
  162.4370  213.7750  145.8810 C   0  0  0  0  0  2  0  0  0  0  0  0
  1  2  1  0  0  0  0
  2  3  2  0  0  0  0
  2  5  1  0  0  0  0
  4 11  2  0  0  0  0
  5  6  2  0  0  0  0
  6 10  1  0  0  0  0
  6  7  1  0  0  0  0
  7  9  2  0  0  0  0
  8  5  1  0  0  0  0
  8  4  1  0  0  0  0
 11  7  1  0  0  0  0
 11 12  1  0  0  0  0
 13  1  1  0  0  0  0
 14 22  1  6  0  0  0
 14 13  1  0  0  0  0
 15 14  1  0  0  0  0
 15 16  1  0  0  0  0
 16 18  1  0  0  0  0
 17 19  1  0  0  0  0
 17 16  1  0  0  0  0
 18 21  1  0  0  0  0
 19 20  1  0  0  0  0
 20 21  1  0  0  0  0
 23 22  1  0  0  0  0
 24 23  1  0  0  0  0
 25 27  1  0  0  0  0
 25 24  1  0  0  0  0
 26 25  2  0  0  0  0
 28  1  1  0  0  0  0
 29 28  1  0  0  0  0
 30 29  1  6  0  0  0
 30 32  1  0  0  0  0
 31 32  1  0  0  0  0
 33 34  1  6  0  0  0
 33 30  1  0  0  0  0
 35 33  1  0  0  0  0
 37 36  1  0  0  0  0
 37 35  1  0  0  0  0
M  END
>  <MODEL>
3

>  <REMARK>
 VINA RESULT:      -5.9      2.239      8.439
  Name = 
  16 active torsions:
  status: ('A' for Active; 'I' for Inactive)
    1  A    between atoms: C_1  and  C_22
    2  A    between atoms: C_1  and  C_25
    3  A    between atoms: C_2  and  C_37
    4  A    between atoms: N_3  and  C_4
    5  A    between atoms: N_3  and  N_31
    6  A    between atoms: C_4  and  C_28
    7  A    between atoms: C_5  and  C_19
    8  A    between atoms: C_9  and  C_20
    9  A    between atoms: C_11  and  C_22
   10  A    between atoms: C_11  and  C_28
   11  A    between atoms: C_11  and  O_35
   12  A    between atoms: O_15  and  C_19
   13  A    between atoms: O_15  and  C_21
   14  A    between atoms: C_21  and  C_32
   15  A    between atoms: N_31  and  C_32
   16  A    between atoms: C_32  and  C_37
                            x       y       z     vdW  Elec       q    Type
                         _______ _______ _______ _____ _____    ______ ____

>  <TORSDO>
F 16

$$$$
=
 OpenBabel11052411003D

 37 38  0  0  1  0  0  0  0  0999 V2000
  161.6300  206.9340  149.7160 N   0  0  0  0  0  0  0  0  0  0  0  0
  162.2540  207.0750  148.4270 C   0  0  0  0  0  0  0  0  0  0  0  0
  163.2540  207.8360  148.3070 O   0  0  0  0  0  0  0  0  0  0  0  0
  159.8470  205.9490  145.5740 C   0  0  0  0  0  3  0  0  0  0  0  0
  161.7360  206.3660  147.2310 C   0  0  0  0  0  0  0  0  0  0  0  0
  162.4550  205.3970  146.6270 C   0  0  0  0  0  0  0  0  0  0  0  0
  161.9240  204.7050  145.4410 C   0  0  0  0  0  0  0  0  0  0  0  0
  160.4250  206.8440  146.6380 C   0  0  0  0  0  2  0  0  0  0  0  0
  162.6290  203.8580  144.8320 O   0  0  0  0  0  0  0  0  0  0  0  0
  163.6920  205.0070  147.1330 O   0  0  0  0  0  1  0  0  0  0  0  0
  160.5530  204.9810  144.9950 C   0  0  0  0  0  0  0  0  0  0  0  0
  159.9810  204.2250  143.9780 O   0  0  0  0  0  1  0  0  0  0  0  0
  162.0390  207.7600  150.7780 N   0  0  0  0  0  2  0  0  0  0  0  0
  161.0140  207.6940  151.8120 C   0  0  1  0  0  3  0  0  0  0  0  0
  161.6490  207.2680  153.1260 C   0  0  0  0  0  2  0  0  0  0  0  0
  160.8630  207.8000  154.3140 C   0  0  0  0  0  3  0  0  0  0  0  0
  161.7580  208.6410  155.2240 C   0  0  0  0  0  2  0  0  0  0  0  0
  160.2860  206.6230  155.0960 C   0  0  0  0  0  2  0  0  0  0  0  0
  160.9670  209.1440  156.4280 C   0  0  0  0  0  2  0  0  0  0  0  0
  160.3920  207.9660  157.2070 C   0  0  0  0  0  2  0  0  0  0  0  0
  159.4950  207.1260  156.3010 C   0  0  0  0  0  2  0  0  0  0  0  0
  160.3600  209.0590  151.9760 C   0  0  0  0  0  2  0  0  0  0  0  0
  161.2880  210.0720  151.7290 O   0  0  0  0  0  0  0  0  0  0  0  0
  160.9720  211.0800  152.6410 C   0  0  0  0  0  2  0  0  0  0  0  0
  159.8890  211.9310  152.0830 C   0  0  0  0  0  0  0  0  0  0  0  0
  158.6310  211.9260  152.6710 O   0  0  0  0  0  1  0  0  0  0  0  0
  160.1190  212.6860  151.1010 O   0  0  0  0  0  0  0  0  0  0  0  0
  160.7200  205.8260  149.9880 C   0  0  0  0  0  2  0  0  0  0  0  0
  161.4750  204.5090  149.9740 C   0  0  0  0  0  2  0  0  0  0  0  0
  160.6160  203.4120  150.5890 C   0  0  2  0  0  3  0  0  0  0  0  0
  160.8580  203.8370  152.7560 C   0  0  0  0  0  1  0  0  0  0  0  0
  161.2320  202.9390  151.7540 O   0  0  0  0  0  0  0  0  0  0  0  0
  160.4330  202.2700  149.5900 C   0  0  2  0  0  3  0  0  0  0  0  0
  160.8660  201.0700  150.1610 O   0  0  0  0  0  1  0  0  0  0  0  0
  161.2380  202.5450  148.3250 C   0  0  0  0  0  2  0  0  0  0  0  0
  161.3720  200.4340  147.2070 O   0  0  0  0  0  1  0  0  0  0  0  0
  160.7550  201.6850  147.1700 C   0  0  0  0  0  2  0  0  0  0  0  0
  1 28  1  0  0  0  0
  1 13  1  0  0  0  0
  2  1  1  0  0  0  0
  3  2  2  0  0  0  0
  4  8  1  0  0  0  0
  5  2  1  0  0  0  0
  6 10  1  0  0  0  0
  6  5  2  0  0  0  0
  7  6  1  0  0  0  0
  8  5  1  0  0  0  0
  9  7  2  0  0  0  0
 11  7  1  0  0  0  0
 11  4  2  0  0  0  0
 12 11  1  0  0  0  0
 13 14  1  0  0  0  0
 14 22  1  1  0  0  0
 14 15  1  0  0  0  0
 15 16  1  0  0  0  0
 16 18  1  0  0  0  0
 16 17  1  0  0  0  0
 17 19  1  0  0  0  0
 18 21  1  0  0  0  0
 19 20  1  0  0  0  0
 21 20  1  0  0  0  0
 23 22  1  0  0  0  0
 23 24  1  0  0  0  0
 25 24  1  0  0  0  0
 25 26  1  0  0  0  0
 27 25  2  0  0  0  0
 29 28  1  0  0  0  0
 30 29  1  6  0  0  0
 30 32  1  0  0  0  0
 32 31  1  0  0  0  0
 33 34  1  1  0  0  0
 33 30  1  0  0  0  0
 35 33  1  0  0  0  0
 37 36  1  0  0  0  0
 37 35  1  0  0  0  0
M  END
>  <MODEL>
4

>  <REMARK>
 VINA RESULT:      -5.8      1.589      2.031
  Name = 
  16 active torsions:
  status: ('A' for Active; 'I' for Inactive)
    1  A    between atoms: C_1  and  C_22
    2  A    between atoms: C_1  and  C_25
    3  A    between atoms: C_2  and  C_37
    4  A    between atoms: N_3  and  C_4
    5  A    between atoms: N_3  and  N_31
    6  A    between atoms: C_4  and  C_28
    7  A    between atoms: C_5  and  C_19
    8  A    between atoms: C_9  and  C_20
    9  A    between atoms: C_11  and  C_22
   10  A    between atoms: C_11  and  C_28
   11  A    between atoms: C_11  and  O_35
   12  A    between atoms: O_15  and  C_19
   13  A    between atoms: O_15  and  C_21
   14  A    between atoms: C_21  and  C_32
   15  A    between atoms: N_31  and  C_32
   16  A    between atoms: C_32  and  C_37
                            x       y       z     vdW  Elec       q    Type
                         _______ _______ _______ _____ _____    ______ ____

>  <TORSDO>
F 16

$$$$
=
 OpenBabel11052411003D

 37 38  0  0  1  0  0  0  0  0999 V2000
  161.1210  210.1480  151.9110 N   0  0  0  0  0  0  0  0  0  0  0  0
  160.4990  211.3660  152.3580 C   0  0  0  0  0  0  0  0  0  0  0  0
  160.8050  212.4540  151.7970 O   0  0  0  0  0  0  0  0  0  0  0  0
  157.1230  211.5870  154.2930 C   0  0  0  0  0  3  0  0  0  0  0  0
  159.5260  211.3770  153.4780 C   0  0  0  0  0  0  0  0  0  0  0  0
  159.9370  211.3120  154.7610 C   0  0  0  0  0  0  0  0  0  0  0  0
  158.9560  211.3250  155.8590 C   0  0  0  0  0  0  0  0  0  0  0  0
  158.0500  211.3470  153.1320 C   0  0  0  0  0  2  0  0  0  0  0  0
  159.3350  211.1830  157.0510 O   0  0  0  0  0  0  0  0  0  0  0  0
  161.2930  211.2690  155.0740 O   0  0  0  0  0  1  0  0  0  0  0  0
  157.5350  211.5410  155.5580 C   0  0  0  0  0  0  0  0  0  0  0  0
  156.6180  211.7140  156.5880 O   0  0  0  0  0  1  0  0  0  0  0  0
  162.1680  210.2060  150.9740 N   0  0  0  0  0  2  0  0  0  0  0  0
  161.6330  209.7890  149.6850 C   0  0  1  0  0  3  0  0  0  0  0  0
  162.3260  210.5650  148.5760 C   0  0  0  0  0  2  0  0  0  0  0  0
  161.7920  211.9860  148.4830 C   0  0  0  0  0  3  0  0  0  0  0  0
  160.6780  212.0790  147.4400 C   0  0  0  0  0  2  0  0  0  0  0  0
  162.9350  212.9250  148.1060 C   0  0  0  0  0  2  0  0  0  0  0  0
  160.1700  213.5140  147.3320 C   0  0  0  0  0  2  0  0  0  0  0  0
  161.3150  214.4490  146.9570 C   0  0  0  0  0  2  0  0  0  0  0  0
  162.4280  214.3600  147.9980 C   0  0  0  0  0  2  0  0  0  0  0  0
  161.8650  208.2970  149.4890 C   0  0  0  0  0  2  0  0  0  0  0  0
  161.4500  207.9090  148.2140 O   0  0  0  0  0  0  0  0  0  0  0  0
  162.3620  206.9270  147.8220 C   0  0  0  0  0  2  0  0  0  0  0  0
  161.7730  206.1140  146.7250 C   0  0  0  0  0  0  0  0  0  0  0  0
  162.5190  205.1020  146.1350 O   0  0  0  0  0  0  0  0  0  0  0  0
  160.5860  206.3160  146.3550 O   0  0  0  0  0  1  0  0  0  0  0  0
  160.5590  208.8490  152.2670 C   0  0  0  0  0  2  0  0  0  0  0  0
  161.4260  208.1670  153.3100 C   0  0  0  0  0  2  0  0  0  0  0  0
  160.8570  206.7930  153.6410 C   0  0  2  0  0  3  0  0  0  0  0  0
  160.9760  207.9420  155.5390 C   0  0  0  0  0  1  0  0  0  0  0  0
  160.7310  206.6650  155.0290 O   0  0  0  0  0  0  0  0  0  0  0  0
  161.7750  205.7020  153.0920 C   0  0  2  0  0  3  0  0  0  0  0  0
  162.6900  206.2630  152.1980 O   0  0  0  0  0  1  0  0  0  0  0  0
  160.9540  204.6390  152.3710 C   0  0  0  0  0  2  0  0  0  0  0  0
  160.3810  205.1700  150.1100 O   0  0  0  0  0  1  0  0  0  0  0  0
  161.3430  204.5460  150.9050 C   0  0  0  0  0  2  0  0  0  0  0  0
  1 28  1  0  0  0  0
  1  2  1  0  0  0  0
  2  5  1  0  0  0  0
  3  2  2  0  0  0  0
  4 11  2  0  0  0  0
  5  6  2  0  0  0  0
  6 10  1  0  0  0  0
  6  7  1  0  0  0  0
  7  9  2  0  0  0  0
  8  5  1  0  0  0  0
  8  4  1  0  0  0  0
 11  7  1  0  0  0  0
 11 12  1  0  0  0  0
 13  1  1  0  0  0  0
 14 15  1  6  0  0  0
 14 13  1  0  0  0  0
 16 15  1  0  0  0  0
 17 16  1  0  0  0  0
 18 16  1  0  0  0  0
 19 17  1  0  0  0  0
 20 19  1  0  0  0  0
 20 21  1  0  0  0  0
 21 18  1  0  0  0  0
 22 14  1  0  0  0  0
 23 22  1  0  0  0  0
 24 23  1  0  0  0  0
 25 24  1  0  0  0  0
 26 25  2  0  0  0  0
 27 25  1  0  0  0  0
 28 29  1  0  0  0  0
 30 29  1  1  0  0  0
 30 32  1  0  0  0  0
 32 31  1  0  0  0  0
 33 34  1  6  0  0  0
 33 30  1  0  0  0  0
 35 33  1  0  0  0  0
 36 37  1  0  0  0  0
 37 35  1  0  0  0  0
M  END
>  <MODEL>
5

>  <REMARK>
 VINA RESULT:      -5.8      3.028      7.781
  Name = 
  16 active torsions:
  status: ('A' for Active; 'I' for Inactive)
    1  A    between atoms: C_1  and  C_22
    2  A    between atoms: C_1  and  C_25
    3  A    between atoms: C_2  and  C_37
    4  A    between atoms: N_3  and  C_4
    5  A    between atoms: N_3  and  N_31
    6  A    between atoms: C_4  and  C_28
    7  A    between atoms: C_5  and  C_19
    8  A    between atoms: C_9  and  C_20
    9  A    between atoms: C_11  and  C_22
   10  A    between atoms: C_11  and  C_28
   11  A    between atoms: C_11  and  O_35
   12  A    between atoms: O_15  and  C_19
   13  A    between atoms: O_15  and  C_21
   14  A    between atoms: C_21  and  C_32
   15  A    between atoms: N_31  and  C_32
   16  A    between atoms: C_32  and  C_37
                            x       y       z     vdW  Elec       q    Type
                         _______ _______ _______ _____ _____    ______ ____

>  <TORSDO>
F 16

$$$$
=
 OpenBabel11052411003D

 37 38  0  0  1  0  0  0  0  0999 V2000
  162.1060  209.3660  150.5070 N   0  0  0  0  0  0  0  0  0  0  0  0
  162.1450  207.9410  150.7020 C   0  0  0  0  0  0  0  0  0  0  0  0
  162.3580  207.4840  151.8590 O   0  0  0  0  0  0  0  0  0  0  0  0
  162.2090  206.4680  147.0930 C   0  0  0  0  0  3  0  0  0  0  0  0
  161.9650  206.9960  149.5720 C   0  0  0  0  0  0  0  0  0  0  0  0
  161.3320  205.8170  149.7420 C   0  0  0  0  0  0  0  0  0  0  0  0
  161.1630  204.8920  148.6090 C   0  0  0  0  0  0  0  0  0  0  0  0
  162.6150  207.3450  148.2480 C   0  0  0  0  0  2  0  0  0  0  0  0
  160.6440  203.7580  148.7870 O   0  0  0  0  0  0  0  0  0  0  0  0
  160.7960  205.4670  150.9790 O   0  0  0  0  0  1  0  0  0  0  0  0
  161.5680  205.3150  147.2630 C   0  0  0  0  0  0  0  0  0  0  0  0
  161.2710  204.5220  146.1600 O   0  0  0  0  0  1  0  0  0  0  0  0
  162.4610  210.2210  151.5650 N   0  0  0  0  0  2  0  0  0  0  0  0
  161.3650  210.2170  152.5250 C   0  0  1  0  0  3  0  0  0  0  0  0
  161.9190  210.4310  153.9250 C   0  0  0  0  0  2  0  0  0  0  0  0
  161.7380  209.1890  154.7830 C   0  0  0  0  0  3  0  0  0  0  0  0
  160.5470  208.3620  154.2980 C   0  0  0  0  0  2  0  0  0  0  0  0
  161.5190  209.6130  156.2330 C   0  0  0  0  0  2  0  0  0  0  0  0
  160.3570  207.1350  155.1850 C   0  0  0  0  0  2  0  0  0  0  0  0
  160.1400  207.5620  156.6320 C   0  0  0  0  0  2  0  0  0  0  0  0
  161.3290  208.3860  157.1210 C   0  0  0  0  0  2  0  0  0  0  0  0
  160.3800  211.3280  152.1880 C   0  0  0  0  0  2  0  0  0  0  0  0
  159.8480  211.8730  153.3580 O   0  0  0  0  0  0  0  0  0  0  0  0
  158.4990  211.5150  153.3410 C   0  0  0  0  0  2  0  0  0  0  0  0
  157.9570  211.5600  154.7250 C   0  0  0  0  0  0  0  0  0  0  0  0
  157.1640  212.6280  155.1240 O   0  0  0  0  0  0  0  0  0  0  0  0
  158.1860  210.6150  155.5260 O   0  0  0  0  0  1  0  0  0  0  0  0
  161.5250  209.9390  149.2970 C   0  0  0  0  0  2  0  0  0  0  0  0
  162.0950  211.3220  149.0420 C   0  0  0  0  0  2  0  0  0  0  0  0
  161.4630  211.9220  147.7930 C   0  0  2  0  0  3  0  0  0  0  0  0
  163.6100  212.4920  147.8150 C   0  0  0  0  0  1  0  0  0  0  0  0
  162.4340  212.6330  147.0760 O   0  0  0  0  0  0  0  0  0  0  0  0
  160.3140  212.8500  148.1840 C   0  0  2  0  0  3  0  0  0  0  0  0
  160.0470  213.7360  147.1370 O   0  0  0  0  0  1  0  0  0  0  0  0
  160.6810  213.6440  149.4330 C   0  0  0  0  0  2  0  0  0  0  0  0
  158.4010  213.4060  150.1150 O   0  0  0  0  0  1  0  0  0  0  0  0
  159.4580  214.3130  150.0380 C   0  0  0  0  0  2  0  0  0  0  0  0
  1  2  1  0  0  0  0
  1 13  1  0  0  0  0
  2  3  2  0  0  0  0
  4 11  2  0  0  0  0
  4  8  1  0  0  0  0
  5  6  2  0  0  0  0
  5  2  1  0  0  0  0
  6 10  1  0  0  0  0
  7  9  2  0  0  0  0
  7  6  1  0  0  0  0
  8  5  1  0  0  0  0
 11  7  1  0  0  0  0
 12 11  1  0  0  0  0
 13 14  1  0  0  0  0
 14 22  1  6  0  0  0
 14 15  1  0  0  0  0
 15 16  1  0  0  0  0
 16 18  1  0  0  0  0
 17 16  1  0  0  0  0
 17 19  1  0  0  0  0
 18 21  1  0  0  0  0
 19 20  1  0  0  0  0
 20 21  1  0  0  0  0
 22 23  1  0  0  0  0
 24 23  1  0  0  0  0
 24 25  1  0  0  0  0
 25 26  2  0  0  0  0
 25 27  1  0  0  0  0
 28  1  1  0  0  0  0
 29 28  1  0  0  0  0
 30 33  1  0  0  0  0
 30 29  1  1  0  0  0
 32 30  1  0  0  0  0
 32 31  1  0  0  0  0
 33 34  1  6  0  0  0
 33 35  1  0  0  0  0
 35 37  1  0  0  0  0
 37 36  1  0  0  0  0
M  END
>  <MODEL>
6

>  <REMARK>
 VINA RESULT:      -5.3      2.606      6.555
  Name = 
  16 active torsions:
  status: ('A' for Active; 'I' for Inactive)
    1  A    between atoms: C_1  and  C_22
    2  A    between atoms: C_1  and  C_25
    3  A    between atoms: C_2  and  C_37
    4  A    between atoms: N_3  and  C_4
    5  A    between atoms: N_3  and  N_31
    6  A    between atoms: C_4  and  C_28
    7  A    between atoms: C_5  and  C_19
    8  A    between atoms: C_9  and  C_20
    9  A    between atoms: C_11  and  C_22
   10  A    between atoms: C_11  and  C_28
   11  A    between atoms: C_11  and  O_35
   12  A    between atoms: O_15  and  C_19
   13  A    between atoms: O_15  and  C_21
   14  A    between atoms: C_21  and  C_32
   15  A    between atoms: N_31  and  C_32
   16  A    between atoms: C_32  and  C_37
                            x       y       z     vdW  Elec       q    Type
                         _______ _______ _______ _____ _____    ______ ____

>  <TORSDO>
F 16

$$$$
=
 OpenBabel11052411003D

 37 38  0  0  1  0  0  0  0  0999 V2000
  161.8400  207.8520  150.8030 N   0  0  0  0  0  0  0  0  0  0  0  0
  161.9500  208.7220  151.9440 C   0  0  0  0  0  0  0  0  0  0  0  0
  162.5680  209.8160  151.8270 O   0  0  0  0  0  0  0  0  0  0  0  0
  160.8730  206.5760  155.0160 C   0  0  0  0  0  3  0  0  0  0  0  0
  161.3750  208.3520  153.2610 C   0  0  0  0  0  0  0  0  0  0  0  0
  160.7060  209.2540  154.0090 C   0  0  0  0  0  0  0  0  0  0  0  0
  160.1430  208.8690  155.3140 C   0  0  0  0  0  0  0  0  0  0  0  0
  161.6640  206.9630  153.7940 C   0  0  0  0  0  2  0  0  0  0  0  0
  159.5890  209.7310  156.0460 O   0  0  0  0  0  0  0  0  0  0  0  0
  160.5030  210.5530  153.5480 O   0  0  0  0  0  1  0  0  0  0  0  0
  160.1980  207.4660  155.7400 C   0  0  0  0  0  0  0  0  0  0  0  0
  159.5340  207.0550  156.8900 O   0  0  0  0  0  1  0  0  0  0  0  0
  162.5510  208.1560  149.6280 N   0  0  0  0  0  2  0  0  0  0  0  0
  161.7650  209.1190  148.8690 C   0  0  1  0  0  3  0  0  0  0  0  0
  162.6410  210.3020  148.4930 C   0  0  0  0  0  2  0  0  0  0  0  0
  161.8120  211.5610  148.2990 C   0  0  0  0  0  3  0  0  0  0  0  0
  162.6720  212.6980  147.7480 C   0  0  0  0  0  2  0  0  0  0  0  0
  161.2070  211.9710  149.6400 C   0  0  0  0  0  2  0  0  0  0  0  0
  161.8370  213.9650  147.5860 C   0  0  0  0  0  2  0  0  0  0  0  0
  161.2340  214.3710  148.9270 C   0  0  0  0  0  2  0  0  0  0  0  0
  160.3720  213.2390  149.4790 C   0  0  0  0  0  2  0  0  0  0  0  0
  161.2220  208.4610  147.6080 C   0  0  0  0  0  2  0  0  0  0  0  0
  161.6800  207.1460  147.5150 O   0  0  0  0  0  0  0  0  0  0  0  0
  160.7010  206.4740  146.7800 C   0  0  0  0  0  2  0  0  0  0  0  0
  161.3250  205.8340  145.5930 C   0  0  0  0  0  0  0  0  0  0  0  0
  162.7080  205.8170  145.4610 O   0  0  0  0  0  1  0  0  0  0  0  0
  160.6050  205.2730  144.7240 O   0  0  0  0  0  0  0  0  0  0  0  0
  160.8590  206.7720  150.7790 C   0  0  0  0  0  2  0  0  0  0  0  0
  161.5580  205.4270  150.6940 C   0  0  0  0  0  2  0  0  0  0  0  0
  160.5530  204.3410  150.3350 C   0  0  2  0  0  3  0  0  0  0  0  0
  161.1930  203.5190  152.2960 C   0  0  0  0  0  1  0  0  0  0  0  0
  160.0650  203.7530  151.5080 O   0  0  0  0  0  0  0  0  0  0  0  0
  161.2180  203.2850  149.4540 C   0  0  2  0  0  3  0  0  0  0  0  0
  161.5880  203.8550  148.2320 O   0  0  0  0  0  1  0  0  0  0  0  0
  160.2560  202.1300  149.1980 C   0  0  0  0  0  2  0  0  0  0  0  0
  161.2840  200.4810  147.8040 O   0  0  0  0  0  1  0  0  0  0  0  0
  160.9940  200.8040  149.1300 C   0  0  0  0  0  2  0  0  0  0  0  0
  1  2  1  0  0  0  0
  2  5  1  0  0  0  0
  3  2  2  0  0  0  0
  4 11  2  0  0  0  0
  5  8  1  0  0  0  0
  5  6  2  0  0  0  0
  6  7  1  0  0  0  0
  7 11  1  0  0  0  0
  7  9  2  0  0  0  0
  8  4  1  0  0  0  0
 10  6  1  0  0  0  0
 11 12  1  0  0  0  0
 13  1  1  0  0  0  0
 14 22  1  6  0  0  0
 14 13  1  0  0  0  0
 15 14  1  0  0  0  0
 16 15  1  0  0  0  0
 16 18  1  0  0  0  0
 17 16  1  0  0  0  0
 19 17  1  0  0  0  0
 19 20  1  0  0  0  0
 20 21  1  0  0  0  0
 21 18  1  0  0  0  0
 23 22  1  0  0  0  0
 24 23  1  0  0  0  0
 25 24  1  0  0  0  0
 26 25  1  0  0  0  0
 27 25  2  0  0  0  0
 28  1  1  0  0  0  0
 29 28  1  0  0  0  0
 30 29  1  1  0  0  0
 30 32  1  0  0  0  0
 32 31  1  0  0  0  0
 33 34  1  6  0  0  0
 33 30  1  0  0  0  0
 35 33  1  0  0  0  0
 36 37  1  0  0  0  0
 37 35  1  0  0  0  0
M  END
>  <MODEL>
7

>  <REMARK>
 VINA RESULT:      -5.2      2.203      6.595
  Name = 
  16 active torsions:
  status: ('A' for Active; 'I' for Inactive)
    1  A    between atoms: C_1  and  C_22
    2  A    between atoms: C_1  and  C_25
    3  A    between atoms: C_2  and  C_37
    4  A    between atoms: N_3  and  C_4
    5  A    between atoms: N_3  and  N_31
    6  A    between atoms: C_4  and  C_28
    7  A    between atoms: C_5  and  C_19
    8  A    between atoms: C_9  and  C_20
    9  A    between atoms: C_11  and  C_22
   10  A    between atoms: C_11  and  C_28
   11  A    between atoms: C_11  and  O_35
   12  A    between atoms: O_15  and  C_19
   13  A    between atoms: O_15  and  C_21
   14  A    between atoms: C_21  and  C_32
   15  A    between atoms: N_31  and  C_32
   16  A    between atoms: C_32  and  C_37
                            x       y       z     vdW  Elec       q    Type
                         _______ _______ _______ _____ _____    ______ ____

>  <TORSDO>
F 16

$$$$
=
 OpenBabel11052411003D

 37 38  0  0  1  0  0  0  0  0999 V2000
  162.1130  209.2850  150.5400 N   0  0  0  0  0  0  0  0  0  0  0  0
  162.1410  207.8560  150.7150 C   0  0  0  0  0  0  0  0  0  0  0  0
  162.3280  207.3810  151.8690 O   0  0  0  0  0  0  0  0  0  0  0  0
  162.2580  206.4440  147.0830 C   0  0  0  0  0  3  0  0  0  0  0  0
  161.9810  206.9290  149.5670 C   0  0  0  0  0  0  0  0  0  0  0  0
  161.3550  205.7430  149.7110 C   0  0  0  0  0  0  0  0  0  0  0  0
  161.2060  204.8360  148.5610 C   0  0  0  0  0  0  0  0  0  0  0  0
  162.6440  207.3050  148.2570 C   0  0  0  0  0  2  0  0  0  0  0  0
  160.6930  203.6960  148.7130 O   0  0  0  0  0  0  0  0  0  0  0  0
  160.8070  205.3690  150.9350 O   0  0  0  0  0  1  0  0  0  0  0  0
  161.6240  205.2840  147.2270 C   0  0  0  0  0  0  0  0  0  0  0  0
  161.3450  204.5080  146.1070 O   0  0  0  0  0  1  0  0  0  0  0  0
  162.4480  210.1220  151.6180 N   0  0  0  0  0  2  0  0  0  0  0  0
  161.3070  210.1610  152.5230 C   0  0  1  0  0  3  0  0  0  0  0  0
  161.8020  210.2100  153.9590 C   0  0  0  0  0  2  0  0  0  0  0  0
  160.8890  209.4190  154.8820 C   0  0  0  0  0  3  0  0  0  0  0  0
  161.2800  209.6320  156.3450 C   0  0  0  0  0  2  0  0  0  0  0  0
  160.9860  207.9370  154.5290 C   0  0  0  0  0  2  0  0  0  0  0  0
  160.3780  208.8100  157.2610 C   0  0  0  0  0  2  0  0  0  0  0  0
  160.4760  207.3310  156.9040 C   0  0  0  0  0  2  0  0  0  0  0  0
  160.0830  207.1150  155.4450 C   0  0  0  0  0  2  0  0  0  0  0  0
  160.4590  211.3910  152.2290 C   0  0  0  0  0  2  0  0  0  0  0  0
  159.1410  211.1750  152.6350 O   0  0  0  0  0  0  0  0  0  0  0  0
  158.8220  212.2790  153.4270 C   0  0  0  0  0  2  0  0  0  0  0  0
  157.7320  211.9130  154.3710 C   0  0  0  0  0  0  0  0  0  0  0  0
  158.0190  211.1650  155.5050 O   0  0  0  0  0  1  0  0  0  0  0  0
  156.5550  212.3110  154.1630 O   0  0  0  0  0  0  0  0  0  0  0  0
  161.5600  209.8780  149.3270 C   0  0  0  0  0  2  0  0  0  0  0  0
  162.5730  210.8100  148.6870 C   0  0  0  0  0  2  0  0  0  0  0  0
  161.9930  212.2150  148.5830 C   0  0  2  0  0  3  0  0  0  0  0  0
  160.0310  213.1770  148.9830 C   0  0  0  0  0  1  0  0  0  0  0  0
  160.6290  212.1320  148.2760 O   0  0  0  0  0  0  0  0  0  0  0  0
  162.7290  213.0050  147.5020 C   0  0  2  0  0  3  0  0  0  0  0  0
  162.9910  214.2980  147.9610 O   0  0  0  0  0  1  0  0  0  0  0  0
  161.8800  213.0820  146.2380 C   0  0  0  0  0  2  0  0  0  0  0  0
  162.0410  212.9830  143.8540 O   0  0  0  0  0  1  0  0  0  0  0  0
  162.7440  213.3200  145.0110 C   0  0  0  0  0  2  0  0  0  0  0  0
  1  2  1  0  0  0  0
  1 13  1  0  0  0  0
  2  3  2  0  0  0  0
  4 11  2  0  0  0  0
  4  8  1  0  0  0  0
  5  6  2  0  0  0  0
  5  2  1  0  0  0  0
  6 10  1  0  0  0  0
  7  9  2  0  0  0  0
  7  6  1  0  0  0  0
  8  5  1  0  0  0  0
 11  7  1  0  0  0  0
 12 11  1  0  0  0  0
 13 14  1  0  0  0  0
 14 22  1  6  0  0  0
 14 15  1  0  0  0  0
 15 16  1  0  0  0  0
 16 17  1  0  0  0  0
 17 19  1  0  0  0  0
 18 16  1  0  0  0  0
 18 21  1  0  0  0  0
 20 19  1  0  0  0  0
 21 20  1  0  0  0  0
 22 23  1  0  0  0  0
 23 24  1  0  0  0  0
 24 25  1  0  0  0  0
 25 26  1  0  0  0  0
 27 25  2  0  0  0  0
 28  1  1  0  0  0  0
 29 28  1  0  0  0  0
 30 29  1  6  0  0  0
 32 30  1  0  0  0  0
 32 31  1  0  0  0  0
 33 34  1  1  0  0  0
 33 30  1  0  0  0  0
 35 33  1  0  0  0  0
 36 37  1  0  0  0  0
 37 35  1  0  0  0  0
M  END
>  <MODEL>
8

>  <REMARK>
 VINA RESULT:      -5.1      2.559      6.422
  Name = 
  16 active torsions:
  status: ('A' for Active; 'I' for Inactive)
    1  A    between atoms: C_1  and  C_22
    2  A    between atoms: C_1  and  C_25
    3  A    between atoms: C_2  and  C_37
    4  A    between atoms: N_3  and  C_4
    5  A    between atoms: N_3  and  N_31
    6  A    between atoms: C_4  and  C_28
    7  A    between atoms: C_5  and  C_19
    8  A    between atoms: C_9  and  C_20
    9  A    between atoms: C_11  and  C_22
   10  A    between atoms: C_11  and  C_28
   11  A    between atoms: C_11  and  O_35
   12  A    between atoms: O_15  and  C_19
   13  A    between atoms: O_15  and  C_21
   14  A    between atoms: C_21  and  C_32
   15  A    between atoms: N_31  and  C_32
   16  A    between atoms: C_32  and  C_37
                            x       y       z     vdW  Elec       q    Type
                         _______ _______ _______ _____ _____    ______ ____

>  <TORSDO>
F 16

$$$$
=
 OpenBabel11052411003D

 37 38  0  0  1  0  0  0  0  0999 V2000
  161.8090  208.0820  150.9410 N   0  0  0  0  0  0  0  0  0  0  0  0
  162.0140  209.2930  151.6900 C   0  0  0  0  0  0  0  0  0  0  0  0
  162.9580  210.0650  151.3650 O   0  0  0  0  0  0  0  0  0  0  0  0
  160.2760  209.0910  155.1730 C   0  0  0  0  0  3  0  0  0  0  0  0
  161.1580  209.6450  152.8500 C   0  0  0  0  0  0  0  0  0  0  0  0
  160.3360  210.7140  152.8120 C   0  0  0  0  0  0  0  0  0  0  0  0
  159.4940  211.0470  153.9730 C   0  0  0  0  0  0  0  0  0  0  0  0
  161.3210  208.8340  154.1200 C   0  0  0  0  0  2  0  0  0  0  0  0
  158.7880  212.0900  153.9670 O   0  0  0  0  0  0  0  0  0  0  0  0
  160.2400  211.5000  151.6670 O   0  0  0  0  0  1  0  0  0  0  0  0
  159.4540  210.1360  155.1240 C   0  0  0  0  0  0  0  0  0  0  0  0
  158.5480  210.3490  156.1560 O   0  0  0  0  0  1  0  0  0  0  0  0
  162.7500  207.7000  149.9690 N   0  0  0  0  0  2  0  0  0  0  0  0
  162.2970  208.2160  148.6840 C   0  0  1  0  0  3  0  0  0  0  0  0
  161.2110  207.3070  148.1300 C   0  0  0  0  0  2  0  0  0  0  0  0
  161.6730  206.6100  146.8600 C   0  0  0  0  0  3  0  0  0  0  0  0
  160.4760  206.1630  146.0200 C   0  0  0  0  0  2  0  0  0  0  0  0
  162.5230  205.3990  147.2370 C   0  0  0  0  0  2  0  0  0  0  0  0
  160.9500  205.4380  144.7640 C   0  0  0  0  0  2  0  0  0  0  0  0
  161.8000  204.2300  145.1450 C   0  0  0  0  0  2  0  0  0  0  0  0
  162.9980  204.6730  145.9810 C   0  0  0  0  0  2  0  0  0  0  0  0
  161.7470  209.6240  148.8590 C   0  0  0  0  0  2  0  0  0  0  0  0
  162.5780  210.5490  148.2240 O   0  0  0  0  0  0  0  0  0  0  0  0
  162.0600  211.7970  148.5710 C   0  0  0  0  0  2  0  0  0  0  0  0
  161.6730  212.5330  147.3380 C   0  0  0  0  0  0  0  0  0  0  0  0
  160.4070  212.3590  146.7950 O   0  0  0  0  0  0  0  0  0  0  0  0
  162.4790  213.3420  146.8050 O   0  0  0  0  0  1  0  0  0  0  0  0
  160.5510  207.3470  151.0380 C   0  0  0  0  0  2  0  0  0  0  0  0
  160.7220  205.9370  150.5020 C   0  0  0  0  0  2  0  0  0  0  0  0
  160.7220  204.9410  151.6540 C   0  0  2  0  0  3  0  0  0  0  0  0
  161.3750  205.5120  153.6990 C   0  0  0  0  0  1  0  0  0  0  0  0
  161.8610  205.1430  152.4430 O   0  0  0  0  0  0  0  0  0  0  0  0
  160.7060  203.5130  151.1100 C   0  0  2  0  0  3  0  0  0  0  0  0
  161.7790  202.7940  151.6420 O   0  0  0  0  0  1  0  0  0  0  0  0
  160.8170  203.5300  149.5890 C   0  0  0  0  0  2  0  0  0  0  0  0
  160.7290  202.0500  147.7120 O   0  0  0  0  0  1  0  0  0  0  0  0
  161.1240  202.1440  149.0460 C   0  0  0  0  0  2  0  0  0  0  0  0
  1 28  1  0  0  0  0
  1  2  1  0  0  0  0
  2  5  1  0  0  0  0
  3  2  2  0  0  0  0
  5  8  1  0  0  0  0
  6  5  2  0  0  0  0
  6  7  1  0  0  0  0
  7 11  1  0  0  0  0
  8  4  1  0  0  0  0
  9  7  2  0  0  0  0
 10  6  1  0  0  0  0
 11  4  2  0  0  0  0
 11 12  1  0  0  0  0
 13  1  1  0  0  0  0
 14 15  1  1  0  0  0
 14 22  1  0  0  0  0
 14 13  1  0  0  0  0
 16 18  1  0  0  0  0
 16 15  1  0  0  0  0
 17 16  1  0  0  0  0
 19 20  1  0  0  0  0
 19 17  1  0  0  0  0
 20 21  1  0  0  0  0
 21 18  1  0  0  0  0
 23 24  1  0  0  0  0
 23 22  1  0  0  0  0
 25 24  1  0  0  0  0
 26 25  2  0  0  0  0
 27 25  1  0  0  0  0
 29 28  1  0  0  0  0
 30 29  1  6  0  0  0
 30 32  1  0  0  0  0
 32 31  1  0  0  0  0
 33 34  1  1  0  0  0
 33 30  1  0  0  0  0
 35 33  1  0  0  0  0
 36 37  1  0  0  0  0
 37 35  1  0  0  0  0
M  END
>  <MODEL>
9

>  <REMARK>
 VINA RESULT:      -5.1      1.905      6.691
  Name = 
  16 active torsions:
  status: ('A' for Active; 'I' for Inactive)
    1  A    between atoms: C_1  and  C_22
    2  A    between atoms: C_1  and  C_25
    3  A    between atoms: C_2  and  C_37
    4  A    between atoms: N_3  and  C_4
    5  A    between atoms: N_3  and  N_31
    6  A    between atoms: C_4  and  C_28
    7  A    between atoms: C_5  and  C_19
    8  A    between atoms: C_9  and  C_20
    9  A    between atoms: C_11  and  C_22
   10  A    between atoms: C_11  and  C_28
   11  A    between atoms: C_11  and  O_35
   12  A    between atoms: O_15  and  C_19
   13  A    between atoms: O_15  and  C_21
   14  A    between atoms: C_21  and  C_32
   15  A    between atoms: N_31  and  C_32
   16  A    between atoms: C_32  and  C_37
                            x       y       z     vdW  Elec       q    Type
                         _______ _______ _______ _____ _____    ______ ____

>  <TORSDO>
F 16

$$$$
