=
 OpenBabel11052411543D

 32 36  0  0  1  0  0  0  0  0999 V2000
  160.1150  211.9310  154.5220 N   0  0  0  0  0  0  0  0  0  0  0  0
  161.8160  209.8690  152.2860 C   0  0  0  0  0  3  0  0  0  0  0  0
  161.4440  207.7730  153.5830 C   0  0  0  0  0  0  0  0  0  0  0  0
  161.9840  210.7000  153.5100 C   0  0  0  0  0  2  0  0  0  0  0  0
  159.0200  209.6590  155.6340 C   0  0  0  0  0  3  0  0  0  0  0  0
  160.7130  210.7310  154.2890 C   0  0  0  0  0  0  0  0  0  0  0  0
  161.5810  208.5560  152.3180 C   0  0  0  0  0  0  0  0  0  0  0  0
  160.1600  209.5550  154.8320 C   0  0  0  0  0  0  0  0  0  0  0  0
  158.9920  212.0380  155.2800 C   0  0  0  0  0  3  0  0  0  0  0  0
  158.4260  210.9010  155.8550 C   0  0  0  0  0  3  0  0  0  0  0  0
  160.7590  208.2180  154.6470 C   0  0  0  0  0  3  0  0  0  0  0  0
  161.3430  207.3140  149.9960 C   0  0  0  0  0  0  0  0  0  0  0  0
  161.4380  207.8780  151.0570 C   0  0  0  0  0  0  0  0  0  0  0  0
  161.0840  204.5190  144.5250 C   0  0  0  0  0  3  0  0  0  0  0  0
  161.3690  204.9780  147.2600 C   0  0  0  0  0  0  0  0  0  0  0  0
  160.9010  207.4370  147.2700 S   0  0  0  0  0  0  0  0  0  0  0  0
  161.4070  203.4580  145.3930 C   0  0  0  0  0  3  0  0  0  0  0  0
  161.0510  206.0140  146.3950 C   0  0  0  0  0  0  0  0  0  0  0  0
  161.2530  206.6520  148.7270 C   0  0  0  0  0  0  0  0  0  0  0  0
  161.4860  205.3280  148.5650 N   0  0  0  0  0  0  0  0  0  0  0  0
  161.5530  203.6840  146.7730 C   0  0  0  0  0  3  0  0  0  0  0  0
  160.9020  205.8180  145.0250 C   0  0  0  0  0  3  0  0  0  0  0  0
  161.9280  206.4270  153.6540 N   0  0  0  0  0  2  0  0  0  0  0  0
  161.0900  205.2600  153.4260 C   0  0  0  0  0  2  0  0  0  0  0  0
  160.9310  203.2330  152.1150 C   0  0  2  0  0  3  0  0  0  0  0  0
  160.3290  204.3120  151.3200 N   0  0  0  0  0  2  0  0  0  0  0  0
  161.5150  204.5680  152.1490 C   0  0  1  0  0  3  0  0  0  0  0  0
  161.7520  202.3400  151.2050 C   0  0  0  0  0  2  0  0  0  0  0  0
  160.9430  201.1220  150.7870 C   0  0  0  0  0  2  0  0  0  0  0  0
  159.5610  201.6740  148.9230 O   0  0  0  0  0  1  0  0  0  0  0  0
  161.5580  200.6730  148.4110 O   0  0  0  0  0  0  0  0  0  0  0  0
  160.6390  201.1660  149.3270 C   0  0  0  0  0  0  0  0  0  0  0  0
  1  9  1  0  0  0  0
  2  7  2  0  0  0  0
  2  4  1  0  0  0  0
  3 23  1  0  0  0  0
  3 11  2  0  0  0  0
  4  6  1  0  0  0  0
  5 10  1  0  0  0  0
  6  1  2  0  0  0  0
  6  8  1  0  0  0  0
  7  3  1  0  0  0  0
  8  5  2  0  0  0  0
  9 10  2  0  0  0  0
 11  8  1  0  0  0  0
 12 13  3  0  0  0  0
 13  7  1  0  0  0  0
 14 22  2  0  0  0  0
 14 17  1  0  0  0  0
 15 20  1  0  0  0  0
 16 19  1  0  0  0  0
 17 21  2  0  0  0  0
 18 15  2  0  0  0  0
 18 16  1  0  0  0  0
 19 12  1  0  0  0  0
 20 19  2  0  0  0  0
 21 15  1  0  0  0  0
 22 18  1  0  0  0  0
 24 23  1  0  0  0  0
 25 28  1  6  0  0  0
 25 27  1  0  0  0  0
 26 25  1  0  0  0  0
 26 27  1  0  0  0  0
 27 24  1  1  0  0  0
 29 28  1  0  0  0  0
 30 32  1  0  0  0  0
 31 32  2  0  0  0  0
 32 29  1  0  0  0  0
M  END
>  <MODEL>
1

>  <REMARK>
 VINA RESULT:      -7.5      0.000      0.000
  Name = 
  8 active torsions:
  status: ('A' for Active; 'I' for Inactive)
    1  A    between atoms: C_7  and  C_19
    2  A    between atoms: C_7  and  C_23
    3  A    between atoms: C_8  and  C_21
    4  A    between atoms: C_9  and  N_17
    5  A    between atoms: C_13  and  C_18
    6  A    between atoms: N_17  and  C_27
    7  A    between atoms: C_23  and  C_30
    8  A    between atoms: C_27  and  C_29
                            x       y       z     vdW  Elec       q    Type
                         _______ _______ _______ _____ _____    ______ ____

>  <TORSDO>
F 8

$$$$
=
 OpenBabel11052411543D

 32 36  0  0  1  0  0  0  0  0999 V2000
  161.4750  204.1760  151.3010 N   0  0  0  0  0  0  0  0  0  0  0  0
  161.4960  207.3640  152.7100 C   0  0  0  0  0  3  0  0  0  0  0  0
  161.8090  208.5640  150.5470 C   0  0  0  0  0  0  0  0  0  0  0  0
  162.3730  206.2300  152.3060 C   0  0  0  0  0  2  0  0  0  0  0  0
  161.0780  205.3680  148.8480 C   0  0  0  0  0  3  0  0  0  0  0  0
  161.7690  205.4970  151.1570 C   0  0  0  0  0  0  0  0  0  0  0  0
  161.2490  208.4140  151.9240 C   0  0  0  0  0  0  0  0  0  0  0  0
  161.5560  206.1310  149.9170 C   0  0  0  0  0  0  0  0  0  0  0  0
  160.9850  203.4330  150.2740 C   0  0  0  0  0  3  0  0  0  0  0  0
  160.7820  204.0170  149.0240 C   0  0  0  0  0  3  0  0  0  0  0  0
  161.8720  207.5520  149.6690 C   0  0  0  0  0  3  0  0  0  0  0  0
  159.6470  210.2810  152.8930 C   0  0  0  0  0  0  0  0  0  0  0  0
  160.3820  209.4380  152.4420 C   0  0  0  0  0  0  0  0  0  0  0  0
  155.7530  214.4530  155.1810 C   0  0  0  0  0  3  0  0  0  0  0  0
  157.3300  212.1730  154.8920 C   0  0  0  0  0  0  0  0  0  0  0  0
  158.3490  212.7110  152.6690 S   0  0  0  0  0  0  0  0  0  0  0  0
  155.7550  213.4600  156.1800 C   0  0  0  0  0  3  0  0  0  0  0  0
  157.3200  213.1590  153.9160 C   0  0  0  0  0  0  0  0  0  0  0  0
  158.7630  211.2650  153.4450 C   0  0  0  0  0  0  0  0  0  0  0  0
  158.1330  211.1110  154.6350 N   0  0  0  0  0  0  0  0  0  0  0  0
  156.5470  212.3070  156.0390 C   0  0  0  0  0  3  0  0  0  0  0  0
  156.5440  214.3070  154.0300 C   0  0  0  0  0  3  0  0  0  0  0  0
  162.1730  209.8590  150.0540 N   0  0  0  0  0  2  0  0  0  0  0  0
  162.0220  210.2600  148.6650 C   0  0  0  0  0  2  0  0  0  0  0  0
  161.6320  212.3280  147.4710 C   0  0  2  0  0  3  0  0  0  0  0  0
  161.3440  212.5850  148.8890 N   0  0  0  0  0  2  0  0  0  0  0  0
  162.4520  211.7020  148.5000 C   0  0  1  0  0  3  0  0  0  0  0  0
  162.3660  213.5190  146.8870 C   0  0  0  0  0  2  0  0  0  0  0  0
  162.5520  213.3440  145.3880 C   0  0  0  0  0  2  0  0  0  0  0  0
  160.9540  212.3900  143.8970 O   0  0  0  0  0  0  0  0  0  0  0  0
  160.3050  214.3280  144.9350 O   0  0  0  0  0  1  0  0  0  0  0  0
  161.2350  213.3270  144.6900 C   0  0  0  0  0  0  0  0  0  0  0  0
  3  7  1  0  0  0  0
  4  2  1  0  0  0  0
  5 10  2  0  0  0  0
  5  8  1  0  0  0  0
  6  1  1  0  0  0  0
  6  4  1  0  0  0  0
  7 13  1  0  0  0  0
  7  2  2  0  0  0  0
  8  6  2  0  0  0  0
  9  1  2  0  0  0  0
 10  9  1  0  0  0  0
 11  8  1  0  0  0  0
 11  3  2  0  0  0  0
 12 19  1  0  0  0  0
 13 12  3  0  0  0  0
 14 17  1  0  0  0  0
 15 21  1  0  0  0  0
 16 19  1  0  0  0  0
 16 18  1  0  0  0  0
 18 22  1  0  0  0  0
 18 15  2  0  0  0  0
 19 20  2  0  0  0  0
 20 15  1  0  0  0  0
 21 17  2  0  0  0  0
 22 14  2  0  0  0  0
 23  3  1  0  0  0  0
 24 23  1  0  0  0  0
 25 28  1  6  0  0  0
 25 27  1  0  0  0  0
 25 26  1  0  0  0  0
 27 24  1  1  0  0  0
 27 26  1  0  0  0  0
 29 28  1  0  0  0  0
 30 32  2  0  0  0  0
 32 31  1  0  0  0  0
 32 29  1  0  0  0  0
M  END
>  <MODEL>
2

>  <REMARK>
 VINA RESULT:      -7.3      4.821      9.610
  Name = 
  8 active torsions:
  status: ('A' for Active; 'I' for Inactive)
    1  A    between atoms: C_7  and  C_19
    2  A    between atoms: C_7  and  C_23
    3  A    between atoms: C_8  and  C_21
    4  A    between atoms: C_9  and  N_17
    5  A    between atoms: C_13  and  C_18
    6  A    between atoms: N_17  and  C_27
    7  A    between atoms: C_23  and  C_30
    8  A    between atoms: C_27  and  C_29
                            x       y       z     vdW  Elec       q    Type
                         _______ _______ _______ _____ _____    ______ ____

>  <TORSDO>
F 8

$$$$
=
 OpenBabel11052411543D

 32 36  0  0  1  0  0  0  0  0999 V2000
  160.6640  213.6470  148.0780 N   0  0  0  0  0  0  0  0  0  0  0  0
  162.2040  210.5560  148.5500 C   0  0  0  0  0  3  0  0  0  0  0  0
  161.8080  210.4790  151.0100 C   0  0  0  0  0  0  0  0  0  0  0  0
  162.4490  212.0250  148.5480 C   0  0  0  0  0  2  0  0  0  0  0  0
  159.5320  213.3540  150.5740 C   0  0  0  0  0  3  0  0  0  0  0  0
  161.2090  212.7520  148.9470 C   0  0  0  0  0  0  0  0  0  0  0  0
  161.9240  209.8620  149.6540 C   0  0  0  0  0  0  0  0  0  0  0  0
  160.6360  212.5740  150.2210 C   0  0  0  0  0  0  0  0  0  0  0  0
  159.5760  214.3910  148.4040 C   0  0  0  0  0  3  0  0  0  0  0  0
  158.9910  214.2620  149.6640 C   0  0  0  0  0  3  0  0  0  0  0  0
  161.1800  211.6440  151.2310 C   0  0  0  0  0  3  0  0  0  0  0  0
  161.5440  207.2600  149.3680 C   0  0  0  0  0  0  0  0  0  0  0  0
  161.7090  208.4460  149.5100 C   0  0  0  0  0  0  0  0  0  0  0  0
  160.8850  201.2030  148.5440 C   0  0  0  0  0  3  0  0  0  0  0  0
  161.0130  203.7200  149.7330 C   0  0  0  0  0  0  0  0  0  0  0  0
  161.4840  205.0730  147.6790 S   0  0  0  0  0  0  0  0  0  0  0  0
  160.6960  201.3420  149.9320 C   0  0  0  0  0  3  0  0  0  0  0  0
  161.1960  203.5700  148.3660 C   0  0  0  0  0  0  0  0  0  0  0  0
  161.3580  205.8520  149.1760 C   0  0  0  0  0  0  0  0  0  0  0  0
  161.1050  204.9930  150.1930 N   0  0  0  0  0  0  0  0  0  0  0  0
  160.7620  202.6090  150.5380 C   0  0  0  0  0  3  0  0  0  0  0  0
  161.1390  202.3280  147.7430 C   0  0  0  0  0  3  0  0  0  0  0  0
  162.2460  209.7600  152.1690 N   0  0  0  0  0  2  0  0  0  0  0  0
  161.3400  209.0780  153.0800 C   0  0  0  0  0  2  0  0  0  0  0  0
  160.0290  209.4970  155.0700 C   0  0  2  0  0  3  0  0  0  0  0  0
  161.2820  208.8640  155.5020 N   0  0  0  0  0  2  0  0  0  0  0  0
  161.2770  209.8280  154.3930 C   0  0  1  0  0  3  0  0  0  0  0  0
  159.6670  210.6020  156.0430 C   0  0  0  0  0  2  0  0  0  0  0  0
  159.2580  211.8590  155.2910 C   0  0  0  0  0  2  0  0  0  0  0  0
  158.1810  211.4870  153.1960 O   0  0  0  0  0  0  0  0  0  0  0  0
  156.8100  211.4550  155.0330 O   0  0  0  0  0  1  0  0  0  0  0  0
  158.0580  211.6010  154.4440 C   0  0  0  0  0  0  0  0  0  0  0  0
  1  9  2  0  0  0  0
  1  6  1  0  0  0  0
  2  7  2  0  0  0  0
  3 11  2  0  0  0  0
  3 23  1  0  0  0  0
  4  2  1  0  0  0  0
  4  6  1  0  0  0  0
  6  8  2  0  0  0  0
  7  3  1  0  0  0  0
  8  5  1  0  0  0  0
  8 11  1  0  0  0  0
  9 10  1  0  0  0  0
 10  5  2  0  0  0  0
 12 13  3  0  0  0  0
 13  7  1  0  0  0  0
 14 17  1  0  0  0  0
 15 20  1  0  0  0  0
 15 21  1  0  0  0  0
 16 18  1  0  0  0  0
 16 19  1  0  0  0  0
 17 21  2  0  0  0  0
 18 15  2  0  0  0  0
 19 12  1  0  0  0  0
 19 20  2  0  0  0  0
 22 18  1  0  0  0  0
 22 14  2  0  0  0  0
 23 24  1  0  0  0  0
 25 26  1  0  0  0  0
 25 28  1  1  0  0  0
 27 24  1  6  0  0  0
 27 25  1  0  0  0  0
 27 26  1  0  0  0  0
 29 28  1  0  0  0  0
 30 32  2  0  0  0  0
 32 31  1  0  0  0  0
 32 29  1  0  0  0  0
M  END
>  <MODEL>
3

>  <REMARK>
 VINA RESULT:      -7.1      4.060      6.329
  Name = 
  8 active torsions:
  status: ('A' for Active; 'I' for Inactive)
    1  A    between atoms: C_7  and  C_19
    2  A    between atoms: C_7  and  C_23
    3  A    between atoms: C_8  and  C_21
    4  A    between atoms: C_9  and  N_17
    5  A    between atoms: C_13  and  C_18
    6  A    between atoms: N_17  and  C_27
    7  A    between atoms: C_23  and  C_30
    8  A    between atoms: C_27  and  C_29
                            x       y       z     vdW  Elec       q    Type
                         _______ _______ _______ _____ _____    ______ ____

>  <TORSDO>
F 8

$$$$
=
 OpenBabel11052411543D

 32 36  0  0  1  0  0  0  0  0999 V2000
  162.1290  209.8480  156.9830 N   0  0  0  0  0  0  0  0  0  0  0  0
  160.4740  207.9150  154.6010 C   0  0  0  0  0  3  0  0  0  0  0  0
  161.1980  209.2900  152.6510 C   0  0  0  0  0  0  0  0  0  0  0  0
  160.3260  209.1000  155.4910 C   0  0  0  0  0  2  0  0  0  0  0  0
  163.5720  210.9760  154.9220 C   0  0  0  0  0  3  0  0  0  0  0  0
  161.6520  209.7450  155.7120 C   0  0  0  0  0  0  0  0  0  0  0  0
  160.8590  208.0010  153.3260 C   0  0  0  0  0  0  0  0  0  0  0  0
  162.3820  210.2990  154.6420 C   0  0  0  0  0  0  0  0  0  0  0  0
  163.2980  210.4840  157.2610 C   0  0  0  0  0  3  0  0  0  0  0  0
  164.0400  211.0650  156.2330 C   0  0  0  0  0  3  0  0  0  0  0  0
  161.9230  210.2530  153.2390 C   0  0  0  0  0  3  0  0  0  0  0  0
  161.0250  205.7520  151.9450 C   0  0  0  0  0  0  0  0  0  0  0  0
  160.9600  206.7740  152.5820 C   0  0  0  0  0  0  0  0  0  0  0  0
  161.1220  200.5480  148.6700 C   0  0  0  0  0  3  0  0  0  0  0  0
  161.1130  203.2490  149.3620 C   0  0  0  0  0  0  0  0  0  0  0  0
  161.0700  202.9890  151.8520 S   0  0  0  0  0  0  0  0  0  0  0  0
  161.1390  201.5380  147.6690 C   0  0  0  0  0  3  0  0  0  0  0  0
  161.0980  202.2650  150.3390 C   0  0  0  0  0  0  0  0  0  0  0  0
  161.0800  204.5420  151.1780 C   0  0  0  0  0  0  0  0  0  0  0  0
  161.1010  204.5240  149.8240 N   0  0  0  0  0  0  0  0  0  0  0  0
  161.1330  202.9020  148.0110 C   0  0  0  0  0  3  0  0  0  0  0  0
  161.1010  200.9090  150.0270 C   0  0  0  0  0  3  0  0  0  0  0  0
  160.8780  209.4860  151.2690 N   0  0  0  0  0  2  0  0  0  0  0  0
  161.8730  209.4860  150.2080 C   0  0  0  0  0  2  0  0  0  0  0  0
  161.5660  208.1120  148.2400 C   0  0  2  0  0  3  0  0  0  0  0  0
  163.0020  208.1050  148.5540 N   0  0  0  0  0  2  0  0  0  0  0  0
  162.0020  208.0920  149.6300 C   0  0  1  0  0  3  0  0  0  0  0  0
  161.1410  206.7190  147.8180 C   0  0  0  0  0  2  0  0  0  0  0  0
  161.9470  206.2600  146.6140 C   0  0  0  0  0  2  0  0  0  0  0  0
  160.0210  206.3550  145.2110 O   0  0  0  0  0  1  0  0  0  0  0  0
  161.3650  204.5210  144.9220 O   0  0  0  0  0  0  0  0  0  0  0  0
  161.0510  205.7160  145.5540 C   0  0  0  0  0  0  0  0  0  0  0  0
  1  9  1  0  0  0  0
  2  4  1  0  0  0  0
  3 11  2  0  0  0  0
  3  7  1  0  0  0  0
  4  6  1  0  0  0  0
  5 10  1  0  0  0  0
  6  1  2  0  0  0  0
  7  2  2  0  0  0  0
  8  5  2  0  0  0  0
  8  6  1  0  0  0  0
 10  9  2  0  0  0  0
 11  8  1  0  0  0  0
 12 13  3  0  0  0  0
 13  7  1  0  0  0  0
 14 22  1  0  0  0  0
 15 20  1  0  0  0  0
 15 18  1  0  0  0  0
 17 21  1  0  0  0  0
 17 14  2  0  0  0  0
 18 16  1  0  0  0  0
 19 16  1  0  0  0  0
 19 12  1  0  0  0  0
 20 19  2  0  0  0  0
 21 15  2  0  0  0  0
 22 18  2  0  0  0  0
 23  3  1  0  0  0  0
 24 23  1  0  0  0  0
 25 28  1  6  0  0  0
 25 26  1  0  0  0  0
 25 27  1  0  0  0  0
 26 27  1  0  0  0  0
 27 24  1  1  0  0  0
 29 28  1  0  0  0  0
 30 32  1  0  0  0  0
 31 32  2  0  0  0  0
 32 29  1  0  0  0  0
M  END
>  <MODEL>
4

>  <REMARK>
 VINA RESULT:      -7.0      2.579      4.460
  Name = 
  8 active torsions:
  status: ('A' for Active; 'I' for Inactive)
    1  A    between atoms: C_7  and  C_19
    2  A    between atoms: C_7  and  C_23
    3  A    between atoms: C_8  and  C_21
    4  A    between atoms: C_9  and  N_17
    5  A    between atoms: C_13  and  C_18
    6  A    between atoms: N_17  and  C_27
    7  A    between atoms: C_23  and  C_30
    8  A    between atoms: C_27  and  C_29
                            x       y       z     vdW  Elec       q    Type
                         _______ _______ _______ _____ _____    ______ ____

>  <TORSDO>
F 8

$$$$
=
 OpenBabel11052411543D

 32 36  0  0  1  0  0  0  0  0999 V2000
  162.6410  213.8050  144.6860 N   0  0  0  0  0  0  0  0  0  0  0  0
  163.1210  212.0820  147.6780 C   0  0  0  0  0  3  0  0  0  0  0  0
  161.0100  212.8790  148.7390 C   0  0  0  0  0  0  0  0  0  0  0  0
  163.3690  213.3810  146.9940 C   0  0  0  0  0  2  0  0  0  0  0  0
  160.0050  214.1470  145.4200 C   0  0  0  0  0  3  0  0  0  0  0  0
  162.2960  213.6490  145.9930 C   0  0  0  0  0  0  0  0  0  0  0  0
  162.0670  211.8590  148.4650 C   0  0  0  0  0  0  0  0  0  0  0  0
  160.9520  213.8020  146.3880 C   0  0  0  0  0  0  0  0  0  0  0  0
  161.7220  214.1160  143.7340 C   0  0  0  0  0  3  0  0  0  0  0  0
  160.3850  214.2980  144.0860 C   0  0  0  0  0  3  0  0  0  0  0  0
  160.4990  213.6740  147.7870 C   0  0  0  0  0  3  0  0  0  0  0  0
  161.8350  209.4580  149.5480 C   0  0  0  0  0  0  0  0  0  0  0  0
  161.9520  210.5550  149.0620 C   0  0  0  0  0  0  0  0  0  0  0  0
  161.0110  203.8840  152.0120 C   0  0  0  0  0  3  0  0  0  0  0  0
  161.2600  205.9600  150.1690 C   0  0  0  0  0  0  0  0  0  0  0  0
  161.7490  207.8190  151.7730 S   0  0  0  0  0  0  0  0  0  0  0  0
  160.8490  203.6350  150.6350 C   0  0  0  0  0  3  0  0  0  0  0  0
  161.4180  206.1930  151.5260 C   0  0  0  0  0  0  0  0  0  0  0  0
  161.6730  208.1510  150.1150 C   0  0  0  0  0  0  0  0  0  0  0  0
  161.3990  207.0500  149.3740 N   0  0  0  0  0  0  0  0  0  0  0  0
  160.9710  204.6780  149.7010 C   0  0  0  0  0  3  0  0  0  0  0  0
  161.3000  205.1790  152.4720 C   0  0  0  0  0  3  0  0  0  0  0  0
  160.3880  212.9440  150.0270 N   0  0  0  0  0  2  0  0  0  0  0  0
  159.0070  213.3530  150.2300 C   0  0  0  0  0  2  0  0  0  0  0  0
  158.4830  212.3610  152.3740 C   0  0  2  0  0  3  0  0  0  0  0  0
  159.8160  212.9670  152.4910 N   0  0  0  0  0  2  0  0  0  0  0  0
  158.7650  213.6220  151.7010 C   0  0  1  0  0  3  0  0  0  0  0  0
  157.7010  212.6260  153.6460 C   0  0  0  0  0  2  0  0  0  0  0  0
  157.4690  211.3290  154.4060 C   0  0  0  0  0  2  0  0  0  0  0  0
  155.2350  210.5360  154.6640 O   0  0  0  0  0  0  0  0  0  0  0  0
  155.8730  212.1870  156.1200 O   0  0  0  0  0  1  0  0  0  0  0  0
  156.1280  211.3310  155.0580 C   0  0  0  0  0  0  0  0  0  0  0  0
  1  6  1  0  0  0  0
  2  7  2  0  0  0  0
  3 23  1  0  0  0  0
  4  2  1  0  0  0  0
  5  8  1  0  0  0  0
  6  8  2  0  0  0  0
  6  4  1  0  0  0  0
  7  3  1  0  0  0  0
  7 13  1  0  0  0  0
  8 11  1  0  0  0  0
  9 10  1  0  0  0  0
  9  1  2  0  0  0  0
 10  5  2  0  0  0  0
 11  3  2  0  0  0  0
 12 19  1  0  0  0  0
 13 12  3  0  0  0  0
 14 22  1  0  0  0  0
 15 18  1  0  0  0  0
 17 14  2  0  0  0  0
 18 16  1  0  0  0  0
 18 22  2  0  0  0  0
 19 16  1  0  0  0  0
 20 19  2  0  0  0  0
 20 15  1  0  0  0  0
 21 15  2  0  0  0  0
 21 17  1  0  0  0  0
 23 24  1  0  0  0  0
 25 26  1  0  0  0  0
 25 28  1  1  0  0  0
 27 24  1  6  0  0  0
 27 25  1  0  0  0  0
 27 26  1  0  0  0  0
 28 29  1  0  0  0  0
 29 32  1  0  0  0  0
 30 32  2  0  0  0  0
 32 31  1  0  0  0  0
M  END
>  <MODEL>
5

>  <REMARK>
 VINA RESULT:      -6.6      5.600      8.527
  Name = 
  8 active torsions:
  status: ('A' for Active; 'I' for Inactive)
    1  A    between atoms: C_7  and  C_19
    2  A    between atoms: C_7  and  C_23
    3  A    between atoms: C_8  and  C_21
    4  A    between atoms: C_9  and  N_17
    5  A    between atoms: C_13  and  C_18
    6  A    between atoms: N_17  and  C_27
    7  A    between atoms: C_23  and  C_30
    8  A    between atoms: C_27  and  C_29
                            x       y       z     vdW  Elec       q    Type
                         _______ _______ _______ _____ _____    ______ ____

>  <TORSDO>
F 8

$$$$
=
 OpenBabel11052411543D

 32 36  0  0  1  0  0  0  0  0999 V2000
  161.1400  209.9490  156.5290 N   0  0  0  0  0  0  0  0  0  0  0  0
  160.0340  208.6180  153.5030 C   0  0  0  0  0  3  0  0  0  0  0  0
  161.7060  209.8240  152.1010 C   0  0  0  0  0  0  0  0  0  0  0  0
  159.8630  209.7650  154.4380 C   0  0  0  0  0  2  0  0  0  0  0  0
  163.4430  210.7310  155.2310 C   0  0  0  0  0  3  0  0  0  0  0  0
  161.1360  210.0260  155.1700 C   0  0  0  0  0  0  0  0  0  0  0  0
  160.8550  208.6480  152.4520 C   0  0  0  0  0  0  0  0  0  0  0  0
  162.3070  210.4060  154.4850 C   0  0  0  0  0  0  0  0  0  0  0  0
  162.2480  210.2400  157.2600 C   0  0  0  0  0  3  0  0  0  0  0  0
  163.4220  210.6420  156.6230 C   0  0  0  0  0  3  0  0  0  0  0  0
  162.3800  210.5370  153.0170 C   0  0  0  0  0  3  0  0  0  0  0  0
  160.9550  206.4780  150.9430 C   0  0  0  0  0  0  0  0  0  0  0  0
  160.9230  207.4670  151.6320 C   0  0  0  0  0  0  0  0  0  0  0  0
  161.1440  201.4340  147.4310 C   0  0  0  0  0  3  0  0  0  0  0  0
  160.8920  203.1290  149.6300 C   0  0  0  0  0  0  0  0  0  0  0  0
  161.2470  205.3110  148.4540 S   0  0  0  0  0  0  0  0  0  0  0  0
  160.8900  200.9040  148.7110 C   0  0  0  0  0  3  0  0  0  0  0  0
  161.1400  203.6390  148.3640 C   0  0  0  0  0  0  0  0  0  0  0  0
  160.9670  205.3020  150.1230 C   0  0  0  0  0  0  0  0  0  0  0  0
  160.7950  204.0530  150.6180 N   0  0  0  0  0  0  0  0  0  0  0  0
  160.7640  201.7540  149.8240 C   0  0  0  0  0  3  0  0  0  0  0  0
  161.2720  202.8200  147.2470 C   0  0  0  0  0  3  0  0  0  0  0  0
  161.9540  210.1510  150.7290 N   0  0  0  0  0  2  0  0  0  0  0  0
  161.8550  211.5010  150.1950 C   0  0  0  0  0  2  0  0  0  0  0  0
  162.0890  212.8050  148.1710 C   0  0  2  0  0  3  0  0  0  0  0  0
  163.2220  211.8700  148.2180 N   0  0  0  0  0  2  0  0  0  0  0  0
  161.8910  211.4550  148.6830 C   0  0  1  0  0  3  0  0  0  0  0  0
  161.5730  212.8930  146.7480 C   0  0  0  0  0  2  0  0  0  0  0  0
  160.2100  212.2270  146.6360 C   0  0  0  0  0  2  0  0  0  0  0  0
  158.4770  212.6030  145.0420 O   0  0  0  0  0  1  0  0  0  0  0  0
  160.5430  212.1360  144.1650 O   0  0  0  0  0  0  0  0  0  0  0  0
  159.6880  212.3240  145.2430 C   0  0  0  0  0  0  0  0  0  0  0  0
  1  9  1  0  0  0  0
  2  4  1  0  0  0  0
  3  7  1  0  0  0  0
  3 11  2  0  0  0  0
  4  6  1  0  0  0  0
  5 10  1  0  0  0  0
  6  1  2  0  0  0  0
  7  2  2  0  0  0  0
  8  6  1  0  0  0  0
  8  5  2  0  0  0  0
 10  9  2  0  0  0  0
 11  8  1  0  0  0  0
 12 13  3  0  0  0  0
 13  7  1  0  0  0  0
 14 17  1  0  0  0  0
 15 21  1  0  0  0  0
 15 20  1  0  0  0  0
 16 19  1  0  0  0  0
 17 21  2  0  0  0  0
 18 16  1  0  0  0  0
 18 15  2  0  0  0  0
 19 20  2  0  0  0  0
 19 12  1  0  0  0  0
 22 14  2  0  0  0  0
 22 18  1  0  0  0  0
 23  3  1  0  0  0  0
 24 23  1  0  0  0  0
 25 28  1  6  0  0  0
 25 26  1  0  0  0  0
 25 27  1  0  0  0  0
 26 27  1  0  0  0  0
 27 24  1  1  0  0  0
 29 28  1  0  0  0  0
 30 32  1  0  0  0  0
 31 32  2  0  0  0  0
 32 29  1  0  0  0  0
M  END
>  <MODEL>
6

>  <REMARK>
 VINA RESULT:      -6.4      4.225      6.194
  Name = 
  8 active torsions:
  status: ('A' for Active; 'I' for Inactive)
    1  A    between atoms: C_7  and  C_19
    2  A    between atoms: C_7  and  C_23
    3  A    between atoms: C_8  and  C_21
    4  A    between atoms: C_9  and  N_17
    5  A    between atoms: C_13  and  C_18
    6  A    between atoms: N_17  and  C_27
    7  A    between atoms: C_23  and  C_30
    8  A    between atoms: C_27  and  C_29
                            x       y       z     vdW  Elec       q    Type
                         _______ _______ _______ _____ _____    ______ ____

>  <TORSDO>
F 8

$$$$
=
 OpenBabel11052411543D

 32 36  0  0  1  0  0  0  0  0999 V2000
  161.9880  213.6690  146.6000 N   0  0  0  0  0  0  0  0  0  0  0  0
  162.8590  210.9220  148.5610 C   0  0  0  0  0  3  0  0  0  0  0  0
  161.1480  211.3510  150.3240 C   0  0  0  0  0  0  0  0  0  0  0  0
  163.1280  212.3710  148.3480 C   0  0  0  0  0  2  0  0  0  0  0  0
  159.6390  213.8250  148.0350 C   0  0  0  0  0  3  0  0  0  0  0  0
  161.9120  213.0450  147.8070 C   0  0  0  0  0  0  0  0  0  0  0  0
  161.9760  210.4650  149.4520 C   0  0  0  0  0  0  0  0  0  0  0  0
  160.7150  213.0970  148.5490 C   0  0  0  0  0  0  0  0  0  0  0  0
  160.9380  214.3580  146.0810 C   0  0  0  0  0  3  0  0  0  0  0  0
  159.7430  214.4530  146.7930 C   0  0  0  0  0  3  0  0  0  0  0  0
  160.5570  212.4700  149.8760 C   0  0  0  0  0  3  0  0  0  0  0  0
  161.6600  207.8450  149.6300 C   0  0  0  0  0  0  0  0  0  0  0  0
  161.8170  209.0380  149.5520 C   0  0  0  0  0  0  0  0  0  0  0  0
  160.8770  201.7560  149.9670 C   0  0  0  0  0  3  0  0  0  0  0  0
  161.3480  204.4130  150.6640 C   0  0  0  0  0  0  0  0  0  0  0  0
  161.0800  205.4400  148.3960 S   0  0  0  0  0  0  0  0  0  0  0  0
  161.1610  202.1000  151.3030 C   0  0  0  0  0  3  0  0  0  0  0  0
  161.0670  204.0620  149.3520 C   0  0  0  0  0  0  0  0  0  0  0  0
  161.4480  206.4300  149.7190 C   0  0  0  0  0  0  0  0  0  0  0  0
  161.5640  205.7350  150.8760 N   0  0  0  0  0  0  0  0  0  0  0  0
  161.4010  203.4380  151.6600 C   0  0  0  0  0  3  0  0  0  0  0  0
  160.8280  202.7450  148.9720 C   0  0  0  0  0  3  0  0  0  0  0  0
  160.8280  210.9520  151.6610 N   0  0  0  0  0  2  0  0  0  0  0  0
  160.1390  211.8110  152.6110 C   0  0  0  0  0  2  0  0  0  0  0  0
  160.9070  211.1220  154.7990 C   0  0  2  0  0  3  0  0  0  0  0  0
  159.7050  211.9420  155.0010 N   0  0  0  0  0  2  0  0  0  0  0  0
  159.7990  211.0230  153.8580 C   0  0  1  0  0  3  0  0  0  0  0  0
  160.8740  209.9440  155.7540 C   0  0  0  0  0  2  0  0  0  0  0  0
  161.7200  208.8010  155.2150 C   0  0  0  0  0  2  0  0  0  0  0  0
  160.1480  207.0100  155.3030 O   0  0  0  0  0  1  0  0  0  0  0  0
  160.8220  207.6320  153.2030 O   0  0  0  0  0  0  0  0  0  0  0  0
  160.8610  207.7590  154.5840 C   0  0  0  0  0  0  0  0  0  0  0  0
  1  6  1  0  0  0  0
  2  7  2  0  0  0  0
  3 23  1  0  0  0  0
  4  2  1  0  0  0  0
  5  8  1  0  0  0  0
  6  4  1  0  0  0  0
  6  8  2  0  0  0  0
  7 13  1  0  0  0  0
  7  3  1  0  0  0  0
  8 11  1  0  0  0  0
  9  1  2  0  0  0  0
  9 10  1  0  0  0  0
 10  5  2  0  0  0  0
 11  3  2  0  0  0  0
 12 19  1  0  0  0  0
 13 12  3  0  0  0  0
 14 17  1  0  0  0  0
 15 20  1  0  0  0  0
 15 21  1  0  0  0  0
 16 18  1  0  0  0  0
 16 19  1  0  0  0  0
 17 21  2  0  0  0  0
 18 15  2  0  0  0  0
 19 20  2  0  0  0  0
 22 18  1  0  0  0  0
 22 14  2  0  0  0  0
 23 24  1  0  0  0  0
 25 26  1  0  0  0  0
 25 28  1  1  0  0  0
 27 24  1  6  0  0  0
 27 25  1  0  0  0  0
 27 26  1  0  0  0  0
 29 28  1  0  0  0  0
 31 32  2  0  0  0  0
 32 29  1  0  0  0  0
 32 30  1  0  0  0  0
M  END
>  <MODEL>
7

>  <REMARK>
 VINA RESULT:      -6.3      4.019      6.504
  Name = 
  8 active torsions:
  status: ('A' for Active; 'I' for Inactive)
    1  A    between atoms: C_7  and  C_19
    2  A    between atoms: C_7  and  C_23
    3  A    between atoms: C_8  and  C_21
    4  A    between atoms: C_9  and  N_17
    5  A    between atoms: C_13  and  C_18
    6  A    between atoms: N_17  and  C_27
    7  A    between atoms: C_23  and  C_30
    8  A    between atoms: C_27  and  C_29
                            x       y       z     vdW  Elec       q    Type
                         _______ _______ _______ _____ _____    ______ ____

>  <TORSDO>
F 8

$$$$
=
 OpenBabel11052411543D

 32 36  0  0  1  0  0  0  0  0999 V2000
  163.4940  213.8880  144.4350 N   0  0  0  0  0  0  0  0  0  0  0  0
  163.1590  212.4000  147.5690 C   0  0  0  0  0  3  0  0  0  0  0  0
  160.7130  212.8390  147.7680 C   0  0  0  0  0  0  0  0  0  0  0  0
  163.4240  213.6950  146.8830 C   0  0  0  0  0  2  0  0  0  0  0  0
  160.7500  213.7730  144.1950 C   0  0  0  0  0  3  0  0  0  0  0  0
  162.7420  213.7230  145.5570 C   0  0  0  0  0  0  0  0  0  0  0  0
  161.9450  212.0190  147.9720 C   0  0  0  0  0  0  0  0  0  0  0  0
  161.3390  213.6440  145.4560 C   0  0  0  0  0  0  0  0  0  0  0  0
  162.9300  213.9890  143.2020 C   0  0  0  0  0  3  0  0  0  0  0  0
  161.5440  213.9380  143.0610 C   0  0  0  0  0  3  0  0  0  0  0  0
  160.4500  213.4900  146.6250 C   0  0  0  0  0  3  0  0  0  0  0  0
  161.7300  209.6600  149.1460 C   0  0  0  0  0  0  0  0  0  0  0  0
  161.8350  210.7400  148.6210 C   0  0  0  0  0  0  0  0  0  0  0  0
  161.2500  204.0850  151.6960 C   0  0  0  0  0  3  0  0  0  0  0  0
  161.6510  206.8230  151.3580 C   0  0  0  0  0  0  0  0  0  0  0  0
  161.1690  206.9640  148.9050 S   0  0  0  0  0  0  0  0  0  0  0  0
  161.6170  204.8900  152.7920 C   0  0  0  0  0  3  0  0  0  0  0  0
  161.2890  206.0200  150.2860 C   0  0  0  0  0  0  0  0  0  0  0  0
  161.5890  208.3680  149.7520 C   0  0  0  0  0  0  0  0  0  0  0  0
  161.8230  208.1360  151.0660 N   0  0  0  0  0  0  0  0  0  0  0  0
  161.8220  206.2710  152.6270 C   0  0  0  0  0  3  0  0  0  0  0  0
  161.0820  204.6510  150.4220 C   0  0  0  0  0  3  0  0  0  0  0  0
  159.6770  212.8410  148.7560 N   0  0  0  0  0  2  0  0  0  0  0  0
  159.0640  214.0540  149.2750 C   0  0  0  0  0  2  0  0  0  0  0  0
  159.5360  213.0050  151.4030 C   0  0  2  0  0  3  0  0  0  0  0  0
  159.4680  214.4530  151.6400 N   0  0  0  0  0  2  0  0  0  0  0  0
  158.5590  213.8100  150.6810 C   0  0  1  0  0  3  0  0  0  0  0  0
  158.8540  212.2790  152.5470 C   0  0  0  0  0  2  0  0  0  0  0  0
  159.5150  210.9320  152.7910 C   0  0  0  0  0  2  0  0  0  0  0  0
  160.4300  211.8340  154.8000 O   0  0  0  0  0  1  0  0  0  0  0  0
  161.7220  210.2630  153.7440 O   0  0  0  0  0  0  0  0  0  0  0  0
  160.5790  211.0460  153.8290 C   0  0  0  0  0  0  0  0  0  0  0  0
  1  6  1  0  0  0  0
  2  7  2  0  0  0  0
  3  7  1  0  0  0  0
  3 23  1  0  0  0  0
  4  2  1  0  0  0  0
  5  8  1  0  0  0  0
  6  4  1  0  0  0  0
  7 13  1  0  0  0  0
  8  6  2  0  0  0  0
  8 11  1  0  0  0  0
  9  1  2  0  0  0  0
 10  9  1  0  0  0  0
 10  5  2  0  0  0  0
 11  3  2  0  0  0  0
 12 19  1  0  0  0  0
 13 12  3  0  0  0  0
 14 17  1  0  0  0  0
 15 21  1  0  0  0  0
 16 19  1  0  0  0  0
 16 18  1  0  0  0  0
 18 22  1  0  0  0  0
 18 15  2  0  0  0  0
 19 20  2  0  0  0  0
 20 15  1  0  0  0  0
 21 17  2  0  0  0  0
 22 14  2  0  0  0  0
 23 24  1  0  0  0  0
 25 26  1  0  0  0  0
 25 28  1  1  0  0  0
 27 24  1  6  0  0  0
 27 25  1  0  0  0  0
 27 26  1  0  0  0  0
 28 29  1  0  0  0  0
 29 32  1  0  0  0  0
 31 32  2  0  0  0  0
 32 30  1  0  0  0  0
M  END
>  <MODEL>
8

>  <REMARK>
 VINA RESULT:      -6.2      5.642      8.646
  Name = 
  8 active torsions:
  status: ('A' for Active; 'I' for Inactive)
    1  A    between atoms: C_7  and  C_19
    2  A    between atoms: C_7  and  C_23
    3  A    between atoms: C_8  and  C_21
    4  A    between atoms: C_9  and  N_17
    5  A    between atoms: C_13  and  C_18
    6  A    between atoms: N_17  and  C_27
    7  A    between atoms: C_23  and  C_30
    8  A    between atoms: C_27  and  C_29
                            x       y       z     vdW  Elec       q    Type
                         _______ _______ _______ _____ _____    ______ ____

>  <TORSDO>
F 8

$$$$
=
 OpenBabel11052411543D

 32 36  0  0  1  0  0  0  0  0999 V2000
  156.6550  214.0530  154.7700 N   0  0  0  0  0  0  0  0  0  0  0  0
  159.2820  214.1790  152.4820 C   0  0  0  0  0  3  0  0  0  0  0  0
  159.9460  211.7930  152.7680 C   0  0  0  0  0  0  0  0  0  0  0  0
  158.9420  214.3470  153.9220 C   0  0  0  0  0  2  0  0  0  0  0  0
  156.7950  211.3030  154.6300 C   0  0  0  0  0  3  0  0  0  0  0  0
  157.7880  213.4750  154.2840 C   0  0  0  0  0  0  0  0  0  0  0  0
  159.7380  213.0360  151.9660 C   0  0  0  0  0  0  0  0  0  0  0  0
  157.8740  212.0720  154.1860 C   0  0  0  0  0  0  0  0  0  0  0  0
  155.5920  213.3130  155.1800 C   0  0  0  0  0  3  0  0  0  0  0  0
  155.6450  211.9200  155.1220 C   0  0  0  0  0  3  0  0  0  0  0  0
  159.0730  211.3670  153.6940 C   0  0  0  0  0  3  0  0  0  0  0  0
  160.2890  213.0030  149.3800 C   0  0  0  0  0  0  0  0  0  0  0  0
  160.0250  213.0150  150.5560 C   0  0  0  0  0  0  0  0  0  0  0  0
  161.8030  212.8690  143.4220 C   0  0  0  0  0  3  0  0  0  0  0  0
  160.3710  212.6360  145.8020 C   0  0  0  0  0  0  0  0  0  0  0  0
  162.1270  213.4830  147.3720 S   0  0  0  0  0  0  0  0  0  0  0  0
  160.4830  212.3770  143.4110 C   0  0  0  0  0  3  0  0  0  0  0  0
  161.6700  213.1200  145.7990 C   0  0  0  0  0  0  0  0  0  0  0  0
  160.6260  213.0000  147.9870 C   0  0  0  0  0  0  0  0  0  0  0  0
  159.7810  212.5640  147.0210 N   0  0  0  0  0  0  0  0  0  0  0  0
  159.7560  212.2560  144.6080 C   0  0  0  0  0  3  0  0  0  0  0  0
  162.4120  213.2480  144.6290 C   0  0  0  0  0  3  0  0  0  0  0  0
  161.0370  210.9150  152.4680 N   0  0  0  0  0  2  0  0  0  0  0  0
  161.2710  209.6600  153.1640 C   0  0  0  0  0  2  0  0  0  0  0  0
  161.1620  208.3880  151.1090 C   0  0  2  0  0  3  0  0  0  0  0  0
  162.2580  209.3560  150.9610 N   0  0  0  0  0  2  0  0  0  0  0  0
  162.0080  208.7010  152.2530 C   0  0  1  0  0  3  0  0  0  0  0  0
  161.5850  207.0600  150.5100 C   0  0  0  0  0  2  0  0  0  0  0  0
  160.6760  206.6890  149.3490 C   0  0  0  0  0  2  0  0  0  0  0  0
  160.8440  206.4410  146.9830 O   0  0  0  0  0  0  0  0  0  0  0  0
  162.6740  207.3590  148.0140 O   0  0  0  0  0  1  0  0  0  0  0  0
  161.3990  206.8100  148.0510 C   0  0  0  0  0  0  0  0  0  0  0  0
  1  9  1  0  0  0  0
  2  4  1  0  0  0  0
  3 11  2  0  0  0  0
  4  6  1  0  0  0  0
  5 10  1  0  0  0  0
  6  1  2  0  0  0  0
  7  2  2  0  0  0  0
  7  3  1  0  0  0  0
  8  6  1  0  0  0  0
  8  5  2  0  0  0  0
 10  9  2  0  0  0  0
 11  8  1  0  0  0  0
 12 13  3  0  0  0  0
 13  7  1  0  0  0  0
 14 22  1  0  0  0  0
 15 20  1  0  0  0  0
 16 19  1  0  0  0  0
 17 14  2  0  0  0  0
 17 21  1  0  0  0  0
 18 15  1  0  0  0  0
 18 16  1  0  0  0  0
 19 12  1  0  0  0  0
 20 19  2  0  0  0  0
 21 15  2  0  0  0  0
 22 18  2  0  0  0  0
 23  3  1  0  0  0  0
 23 24  1  0  0  0  0
 25 28  1  6  0  0  0
 25 27  1  0  0  0  0
 26 25  1  0  0  0  0
 26 27  1  0  0  0  0
 27 24  1  1  0  0  0
 29 28  1  0  0  0  0
 30 32  2  0  0  0  0
 31 32  1  0  0  0  0
 32 29  1  0  0  0  0
M  END
>  <MODEL>
9

>  <REMARK>
 VINA RESULT:      -6.2      4.474      5.775
  Name = 
  8 active torsions:
  status: ('A' for Active; 'I' for Inactive)
    1  A    between atoms: C_7  and  C_19
    2  A    between atoms: C_7  and  C_23
    3  A    between atoms: C_8  and  C_21
    4  A    between atoms: C_9  and  N_17
    5  A    between atoms: C_13  and  C_18
    6  A    between atoms: N_17  and  C_27
    7  A    between atoms: C_23  and  C_30
    8  A    between atoms: C_27  and  C_29
                            x       y       z     vdW  Elec       q    Type
                         _______ _______ _______ _____ _____    ______ ____

>  <TORSDO>
F 8

$$$$
