=
 OpenBabel11042420533D

 64 72  0  0  1  0  0  0  0  0999 V2000
  162.2980  207.5080  148.1820 C   0  0  0  0  0  3  0  0  0  0  0  0
  161.5530  207.5250  149.2770 C   0  0  0  0  0  0  0  0  0  0  0  0
  162.2190  206.2740  147.3600 C   0  0  1  0  0  3  0  0  0  0  0  0
  160.7530  206.2980  149.5430 C   0  0  1  0  0  3  0  0  0  0  0  0
  160.8790  205.2470  148.0600 S   0  0  2  0  0  3  0  0  0  0  0  0
  161.8620  210.0090  149.8510 C   0  0  0  0  0  0  0  0  0  0  0  0
  161.2260  210.1260  152.0630 C   0  0  2  0  0  3  0  0  0  0  0  0
  161.1120  208.7330  151.5160 C   0  0  0  0  0  0  0  0  0  0  0  0
  162.2790  210.3960  148.7260 O   0  0  0  0  0  0  0  0  0  0  0  0
  160.6820  207.7420  152.1690 O   0  0  0  0  0  0  0  0  0  0  0  0
  161.7270  210.8540  150.9440 O   0  0  0  0  0  0  0  0  0  0  0  0
  161.5000  208.6700  150.1460 N   0  0  0  0  0  0  0  0  0  0  0  0
  162.2250  210.1820  153.2090 C   0  0  0  0  0  2  0  0  0  0  0  0
  161.5040  210.4330  154.5230 C   0  0  1  0  0  3  0  0  0  0  0  0
  160.4810  211.4520  154.3480 N   0  0  0  0  0  2  0  0  0  0  0  0
  160.7630  212.3480  156.4850 O   0  0  0  0  0  0  0  0  0  0  0  0
  160.1450  212.3760  155.3860 C   0  0  0  0  0  0  0  0  0  0  0  0
  155.7360  212.2730  154.4710 O   0  0  0  0  0  1  0  0  0  0  0  0
  157.4380  213.5840  153.4980 C   0  0  0  0  0  0  0  0  0  0  0  0
  156.6190  213.3330  154.7020 C   0  0  2  0  0  3  0  0  0  0  0  0
  159.0440  213.3710  155.1610 C   0  0  2  0  0  3  0  0  0  0  0  0
  156.9530  213.7980  152.3560 O   0  0  0  0  0  0  0  0  0  0  0  0
  157.6120  211.6300  156.1170 O   0  0  0  0  0  1  0  0  0  0  0  0
  157.6710  212.9860  155.7710 C   0  0  2  0  0  3  0  0  0  0  0  0
  158.8280  213.5860  153.7420 N   0  0  0  0  0  2  0  0  0  0  0  0
  160.8950  209.1470  155.0980 C   0  0  0  0  0  2  0  0  0  0  0  0
  162.1310  209.5520  157.1080 O   0  0  0  0  0  1  0  0  0  0  0  0
  161.7320  208.5490  156.2260 C   0  0  0  0  0  2  0  0  0  0  0  0
  161.3310  205.5720  150.7510 C   0  0  0  0  0  2  0  0  0  0  0  0
  161.2390  204.0910  150.5960 C   0  0  0  0  0  0  0  0  0  0  0  0
  161.0990  203.5100  149.3340 C   0  0  0  0  0  0  0  0  0  0  0  0
  161.0820  201.3350  150.3650 C   0  0  0  0  0  3  0  0  0  0  0  0
  161.2110  201.9210  151.5850 N   0  0  0  0  0  0  0  0  0  0  0  0
  161.0200  202.1170  149.2000 C   0  0  0  0  0  0  0  0  0  0  0  0
  161.2910  203.2700  151.7220 C   0  0  0  0  0  3  0  0  0  0  0  0
  162.7600  198.1870  145.3170 O   0  0  0  0  0  1  0  0  0  0  0  0
  161.3400  200.1420  147.6810 C   0  0  0  0  0  3  0  0  0  0  0  0
  160.8350  199.2230  144.4030 C   0  0  0  0  0  2  0  0  0  0  0  0
  161.1970  199.6400  146.4040 C   0  0  0  0  0  0  0  0  0  0  0  0
  160.3340  202.2240  146.7690 C   0  0  0  0  0  3  0  0  0  0  0  0
  160.1940  201.6820  145.4660 C   0  0  0  0  0  3  0  0  0  0  0  0
  160.6630  197.3650  145.8650 O   0  0  0  0  0  1  0  0  0  0  0  0
  160.6440  200.3840  145.3300 C   0  0  0  0  0  0  0  0  0  0  0  0
  160.8970  201.4830  147.8640 C   0  0  0  0  0  0  0  0  0  0  0  0
  161.4090  198.4830  145.5020 C   0  0  0  0  0  0  0  0  0  0  0  0
  161.8960  206.6540  145.9190 C   0  0  0  0  0  2  0  0  0  0  0  0
  161.7850  205.4240  145.0280 C   0  0  0  0  0  2  0  0  0  0  0  0
  162.1390  205.8220  142.6280 C   0  0  0  0  0  3  0  0  0  0  0  0
  161.2950  205.7740  143.6610 C   0  0  0  0  0  3  0  0  0  0  0  0
  161.6680  206.2310  141.2700 C   0  0  0  0  0  2  0  0  0  0  0  0
  162.1130  207.6440  140.9320 C   0  0  0  0  0  2  0  0  0  0  0  0
  161.6110  208.0260  139.5460 C   0  0  0  0  0  2  0  0  0  0  0  0
  161.0850  209.4670  139.4970 C   0  0  1  0  0  3  0  0  0  0  0  0
  162.7790  212.7410  138.5430 C   0  0  0  0  0  2  0  0  0  0  0  0
  162.5680  212.0600  137.2010 C   0  0  0  0  0  2  0  0  0  0  0  0
  162.2490  211.8000  139.6090 C   0  0  2  0  0  3  0  0  0  0  0  0
  162.4740  210.5770  137.4920 C   0  0  0  0  0  2  0  0  0  0  0  0
  163.1890  210.7630  139.8330 O   0  0  0  0  0  0  0  0  0  0  0  0
  162.1240  210.4780  138.9630 C   0  0  2  0  0  0  0  0  0  0  0  0
  159.6830  208.6540  137.5280 C   0  0  0  0  0  1  0  0  0  0  0  0
  159.7350  209.5530  138.7590 C   0  0  2  0  0  3  0  0  0  0  0  0
  159.4410  210.8720  138.3970 O   0  0  0  0  0  0  0  0  0  0  0  0
  158.4920  211.2930  139.3370 C   0  0  0  0  0  2  0  0  0  0  0  0
  157.3090  211.6290  138.6820 O   0  0  0  0  0  1  0  0  0  0  0  0
  1  2  2  0  0  0  0
  2  4  1  0  0  0  0
  2 12  1  0  0  0  0
  3 46  1  6  0  0  0
  3  5  1  0  0  0  0
  3  1  1  0  0  0  0
  4 29  1  1  0  0  0
  5 31  1  1  0  0  0
  5  4  1  0  0  0  0
  6 12  1  0  0  0  0
  6 11  1  0  0  0  0
  7 13  1  1  0  0  0
  8  7  1  0  0  0  0
  8 10  2  0  0  0  0
  9  6  2  0  0  0  0
 11  7  1  0  0  0  0
 12  8  1  0  0  0  0
 14 13  1  6  0  0  0
 14 26  1  0  0  0  0
 15 14  1  0  0  0  0
 15 17  1  0  0  0  0
 17 16  2  0  0  0  0
 19 25  1  0  0  0  0
 19 20  1  0  0  0  0
 20 18  1  6  0  0  0
 20 24  1  0  0  0  0
 21 17  1  6  0  0  0
 21 24  1  0  0  0  0
 22 19  2  0  0  0  0
 24 23  1  6  0  0  0
 25 21  1  0  0  0  0
 26 28  1  0  0  0  0
 28 27  1  0  0  0  0
 30 29  1  0  0  0  0
 30 35  1  0  0  0  0
 31 30  2  0  0  0  0
 32 33  1  0  0  0  0
 33 35  2  0  0  0  0
 34 31  1  0  0  0  0
 34 32  2  0  0  0  0
 36 45  1  0  0  0  0
 37 44  1  0  0  0  0
 38 43  1  0  0  0  0
 38 45  1  0  0  0  0
 39 37  2  0  0  0  0
 40 44  2  0  0  0  0
 41 40  1  0  0  0  0
 43 41  2  0  0  0  0
 43 39  1  0  0  0  0
 44 34  1  0  0  0  0
 45 42  1  0  0  0  0
 45 39  1  0  0  0  0
 47 46  1  0  0  0  0
 48 49  2  0  0  0  0
 49 47  1  0  0  0  0
 50 48  1  0  0  0  0
 51 50  1  0  0  0  0
 52 51  1  0  0  0  0
 53 52  1  6  0  0  0
 55 57  1  0  0  0  0
 55 54  1  0  0  0  0
 56 54  1  6  0  0  0
 56 58  1  0  0  0  0
 57 59  1  0  0  0  0
 59 53  1  1  0  0  0
 59 56  1  0  0  0  0
 59 58  1  0  0  0  0
 61 60  1  6  0  0  0
 61 53  1  0  0  0  0
 62 61  1  0  0  0  0
 62 63  1  0  0  0  0
 64 63  1  0  0  0  0
M  END
>  <MODEL>
1

>  <REMARK>
 VINA RESULT:      -5.7      0.000      0.000
  Name = 
  21 active torsions:
  status: ('A' for Active; 'I' for Inactive)
    1  A    between atoms: C_1  and  O_17
    2  A    between atoms: C_7  and  C_15
    3  A    between atoms: C_7  and  C_39
    4  A    between atoms: C_9  and  C_12
    5  A    between atoms: C_9  and  C_28
    6  A    between atoms: O_17  and  C_29
    7  A    between atoms: C_19  and  N_61
    8  A    between atoms: C_25  and  C_44
    9  A    between atoms: N_27  and  C_28
   10  A    between atoms: C_28  and  C_54
   11  A    between atoms: C_29  and  C_63
   12  A    between atoms: C_31  and  C_48
   13  A    between atoms: C_32  and  C_62
   14  A    between atoms: C_35  and  C_48
   15  A    between atoms: C_35  and  C_60
   16  A    between atoms: C_40  and  C_52
   17  A    between atoms: C_41  and  C_56
   18  A    between atoms: C_44  and  C_52
   19  A    between atoms: C_53  and  C_63
   20  A    between atoms: C_54  and  C_57
   21  A    between atoms: C_60  and  C_63
                            x       y       z     vdW  Elec       q    Type
                         _______ _______ _______ _____ _____    ______ ____

>  <TORSDO>
F 21

$$$$
=
 OpenBabel11042420533D

 64 71  0  0  1  0  0  0  0  0999 V2000
  161.1170  206.8520  150.0040 C   0  0  0  0  0  3  0  0  0  0  0  0
  161.3330  205.9680  150.9650 C   0  0  0  0  0  0  0  0  0  0  0  0
  161.5370  208.2470  150.2940 C   0  0  1  0  0  3  0  0  0  0  0  0
  161.9520  206.4960  152.2120 C   0  0  1  0  0  3  0  0  0  0  0  0
  162.4640  208.2100  151.8690 S   0  0  0  0  0  0  0  0  0  0  0  0
  160.9480  203.5730  151.8100 C   0  0  0  0  0  0  0  0  0  0  0  0
  160.4700  202.4020  149.8840 C   0  0  2  0  0  3  0  0  0  0  0  0
  160.7250  203.8550  149.6110 C   0  0  0  0  0  0  0  0  0  0  0  0
  161.1510  203.7880  153.0360 O   0  0  0  0  0  0  0  0  0  0  0  0
  160.6500  204.3920  148.4710 O   0  0  0  0  0  0  0  0  0  0  0  0
  160.6550  202.3180  151.2960 O   0  0  0  0  0  0  0  0  0  0  0  0
  161.0130  204.5750  150.8070 N   0  0  0  0  0  0  0  0  0  0  0  0
  161.4910  201.5260  149.1740 C   0  0  0  0  0  2  0  0  0  0  0  0
  160.9770  201.1260  147.8000 C   0  0  1  0  0  3  0  0  0  0  0  0
  161.0980  202.2430  146.8750 N   0  0  0  0  0  2  0  0  0  0  0  0
  159.5920  201.3480  145.3310 O   0  0  0  0  0  0  0  0  0  0  0  0
  160.3830  202.2820  145.6380 C   0  0  0  0  0  0  0  0  0  0  0  0
  162.6190  206.1920  145.6620 O   0  0  0  0  0  1  0  0  0  0  0  0
  160.4070  205.7350  144.9830 C   0  0  0  0  0  0  0  0  0  0  0  0
  161.8430  205.5650  144.6810 C   0  0  2  0  0  3  0  0  0  0  0  0
  160.5900  203.4380  144.7020 C   0  0  2  0  0  3  0  0  0  0  0  0
  159.8620  206.8540  145.1720 O   0  0  0  0  0  0  0  0  0  0  0  0
  162.7660  203.6220  145.8080 O   0  0  0  0  0  1  0  0  0  0  0  0
  162.0210  204.0350  144.6960 C   0  0  2  0  0  3  0  0  0  0  0  0
  159.6810  204.5250  145.0210 N   0  0  0  0  0  2  0  0  0  0  0  0
  161.7020  199.8890  147.2540 C   0  0  0  0  0  2  0  0  0  0  0  0
  161.5520  198.1460  145.6200 O   0  0  0  0  0  1  0  0  0  0  0  0
  161.1980  199.4690  145.8760 C   0  0  0  0  0  2  0  0  0  0  0  0
  160.9220  206.4700  153.3350 C   0  0  0  0  0  2  0  0  0  0  0  0
  160.8580  207.7780  154.0500 C   0  0  0  0  0  0  0  0  0  0  0  0
  160.0870  208.8300  153.5510 C   0  0  0  0  0  3  0  0  0  0  0  0
  160.7680  210.1820  155.4220 C   0  0  0  0  0  3  0  0  0  0  0  0
  161.5180  209.1480  155.8880 N   0  0  0  0  0  0  0  0  0  0  0  0
  160.0290  210.0530  154.2350 C   0  0  0  0  0  0  0  0  0  0  0  0
  161.5750  207.9590  155.2320 C   0  0  0  0  0  3  0  0  0  0  0  0
  159.2010  214.4510  150.5590 O   0  0  0  0  0  1  0  0  0  0  0  0
  159.3510  211.6110  152.3860 C   0  0  0  0  0  3  0  0  0  0  0  0
  157.1930  214.2250  151.7950 C   0  0  0  0  0  2  0  0  0  0  0  0
  158.5420  212.6630  152.0090 C   0  0  0  0  0  0  0  0  0  0  0  0
  158.2390  211.8000  154.6010 C   0  0  0  0  0  3  0  0  0  0  0  0
  157.4160  212.8770  154.1870 C   0  0  0  0  0  3  0  0  0  0  0  0
  157.5850  212.9590  149.8300 O   0  0  0  0  0  1  0  0  0  0  0  0
  157.6060  213.2790  152.8790 C   0  0  0  0  0  0  0  0  0  0  0  0
  159.1960  211.1710  153.7310 C   0  0  0  0  0  0  0  0  0  0  0  0
  158.1590  213.5990  150.9250 C   0  0  0  0  0  0  0  0  0  0  0  0
  162.4340  208.7430  149.1650 C   0  0  0  0  0  2  0  0  0  0  0  0
  161.6220  209.3790  148.0460 C   0  0  0  0  0  2  0  0  0  0  0  0
  161.1440  211.6030  147.1120 C   0  0  0  0  0  3  0  0  0  0  0  0
  161.7520  210.8680  148.0450 C   0  0  0  0  0  3  0  0  0  0  0  0
  161.3190  213.0860  147.0680 C   0  0  0  0  0  2  0  0  0  0  0  0
  160.2100  213.7510  146.2700 C   0  0  0  0  0  2  0  0  0  0  0  0
  159.9880  212.9960  144.9660 C   0  0  0  0  0  2  0  0  0  0  0  0
  160.2410  213.8780  143.7360 C   0  0  1  0  0  3  0  0  0  0  0  0
  162.8670  213.5820  140.9940 C   0  0  0  0  0  2  0  0  0  0  0  0
  162.4780  212.1370  141.2540 C   0  0  0  0  0  2  0  0  0  0  0  0
  162.0590  214.4400  141.9510 C   0  0  2  0  0  3  0  0  0  0  0  0
  161.9320  212.0950  142.6660 C   0  0  0  0  0  2  0  0  0  0  0  0
  162.6340  214.3750  143.2440 O   0  0  0  0  0  0  0  0  0  0  0  0
  161.5460  213.5240  142.9890 C   0  0  2  0  0  0  0  0  0  0  0  0
  157.7590  214.4210  143.5110 C   0  0  0  0  0  1  0  0  0  0  0  0
  159.0130  213.9170  142.8040 C   0  0  2  0  0  3  0  0  0  0  0  0
  158.7680  212.6610  142.2390 O   0  0  0  0  0  0  0  0  0  0  0  0
  158.6270  212.9120  140.8690 C   0  0  0  0  0  2  0  0  0  0  0  0
  157.5490  213.7710  140.6640 O   0  0  0  0  0  1  0  0  0  0  0  0
  1  3  1  0  0  0  0
  1  2  2  0  0  0  0
  2  4  1  0  0  0  0
  3 46  1  6  0  0  0
  3  5  1  0  0  0  0
  4 29  1  1  0  0  0
  5  4  1  0  0  0  0
  6  9  2  0  0  0  0
  7 13  1  6  0  0  0
  7 11  1  0  0  0  0
  8  7  1  0  0  0  0
  8 12  1  0  0  0  0
 10  8  2  0  0  0  0
 11  6  1  0  0  0  0
 12  2  1  0  0  0  0
 12  6  1  0  0  0  0
 14 26  1  6  0  0  0
 14 13  1  0  0  0  0
 15 14  1  0  0  0  0
 16 17  2  0  0  0  0
 17 15  1  0  0  0  0
 19 25  1  0  0  0  0
 19 22  2  0  0  0  0
 20 24  1  0  0  0  0
 20 19  1  0  0  0  0
 20 18  1  1  0  0  0
 21 25  1  0  0  0  0
 21 17  1  1  0  0  0
 24 21  1  0  0  0  0
 24 23  1  1  0  0  0
 27 28  1  0  0  0  0
 28 26  1  0  0  0  0
 29 30  1  0  0  0  0
 30 35  1  0  0  0  0
 31 30  2  0  0  0  0
 31 34  1  0  0  0  0
 32 33  1  0  0  0  0
 34 32  2  0  0  0  0
 35 33  2  0  0  0  0
 36 45  1  0  0  0  0
 37 44  1  0  0  0  0
 38 43  1  0  0  0  0
 39 37  2  0  0  0  0
 39 43  1  0  0  0  0
 41 40  1  0  0  0  0
 42 45  1  0  0  0  0
 43 41  2  0  0  0  0
 44 34  1  0  0  0  0
 44 40  2  0  0  0  0
 45 38  1  0  0  0  0
 45 39  1  0  0  0  0
 47 46  1  0  0  0  0
 48 49  2  0  0  0  0
 49 47  1  0  0  0  0
 50 48  1  0  0  0  0
 51 50  1  0  0  0  0
 52 51  1  0  0  0  0
 53 52  1  1  0  0  0
 54 55  1  0  0  0  0
 55 57  1  0  0  0  0
 56 54  1  6  0  0  0
 56 59  1  0  0  0  0
 56 58  1  0  0  0  0
 57 59  1  0  0  0  0
 59 58  1  0  0  0  0
 59 53  1  1  0  0  0
 61 60  1  1  0  0  0
 61 53  1  0  0  0  0
 62 61  1  0  0  0  0
 63 62  1  0  0  0  0
 64 63  1  0  0  0  0
M  END
>  <MODEL>
2

>  <REMARK>
 VINA RESULT:      -5.7      3.179     10.020
  Name = 
  21 active torsions:
  status: ('A' for Active; 'I' for Inactive)
    1  A    between atoms: C_1  and  O_17
    2  A    between atoms: C_7  and  C_15
    3  A    between atoms: C_7  and  C_39
    4  A    between atoms: C_9  and  C_12
    5  A    between atoms: C_9  and  C_28
    6  A    between atoms: O_17  and  C_29
    7  A    between atoms: C_19  and  N_61
    8  A    between atoms: C_25  and  C_44
    9  A    between atoms: N_27  and  C_28
   10  A    between atoms: C_28  and  C_54
   11  A    between atoms: C_29  and  C_63
   12  A    between atoms: C_31  and  C_48
   13  A    between atoms: C_32  and  C_62
   14  A    between atoms: C_35  and  C_48
   15  A    between atoms: C_35  and  C_60
   16  A    between atoms: C_40  and  C_52
   17  A    between atoms: C_41  and  C_56
   18  A    between atoms: C_44  and  C_52
   19  A    between atoms: C_53  and  C_63
   20  A    between atoms: C_54  and  C_57
   21  A    between atoms: C_60  and  C_63
                            x       y       z     vdW  Elec       q    Type
                         _______ _______ _______ _____ _____    ______ ____

>  <TORSDO>
F 21

$$$$
=
 OpenBabel11042420533D

 64 72  0  0  1  0  0  0  0  0999 V2000
  162.1010  207.9940  148.9050 C   0  0  0  0  0  3  0  0  0  0  0  0
  161.4070  207.9920  150.0330 C   0  0  0  0  0  0  0  0  0  0  0  0
  162.0300  206.7520  148.0950 C   0  0  1  0  0  3  0  0  0  0  0  0
  160.6640  206.7400  150.3410 C   0  0  1  0  0  3  0  0  0  0  0  0
  160.7600  205.6830  148.8600 S   0  0  2  0  0  3  0  0  0  0  0  0
  161.7910  210.4620  150.6240 C   0  0  0  0  0  0  0  0  0  0  0  0
  161.0250  210.6130  152.7920 C   0  0  2  0  0  3  0  0  0  0  0  0
  160.8820  209.2260  152.2400 C   0  0  0  0  0  0  0  0  0  0  0  0
  162.2940  210.8260  149.5270 O   0  0  0  0  0  0  0  0  0  0  0  0
  160.3680  208.2570  152.8650 O   0  0  0  0  0  0  0  0  0  0  0  0
  161.6270  211.3150  151.7070 O   0  0  0  0  0  0  0  0  0  0  0  0
  161.3510  209.1410  150.8960 N   0  0  0  0  0  0  0  0  0  0  0  0
  161.9520  210.6280  153.9980 C   0  0  0  0  0  2  0  0  0  0  0  0
  161.2200  211.1610  155.2190 C   0  0  1  0  0  3  0  0  0  0  0  0
  159.7920  211.2410  154.9520 N   0  0  0  0  0  2  0  0  0  0  0  0
  159.7860  213.5670  154.7460 O   0  0  0  0  0  0  0  0  0  0  0  0
  159.1290  212.4890  154.7390 C   0  0  0  0  0  0  0  0  0  0  0  0
  155.4140  211.9710  157.2340 O   0  0  0  0  0  1  0  0  0  0  0  0
  155.9480  211.0460  155.1310 C   0  0  0  0  0  0  0  0  0  0  0  0
  155.5970  212.2700  155.8790 C   0  0  2  0  0  3  0  0  0  0  0  0
  157.6440  212.5090  154.5200 C   0  0  2  0  0  3  0  0  0  0  0  0
  155.2560  209.9950  155.1480 O   0  0  0  0  0  0  0  0  0  0  0  0
  157.5650  213.3330  156.8240 O   0  0  0  0  0  1  0  0  0  0  0  0
  156.8180  213.1800  155.6480 C   0  0  2  0  0  3  0  0  0  0  0  0
  157.1300  211.1600  154.3670 N   0  0  0  0  0  2  0  0  0  0  0  0
  161.4910  210.3110  156.4670 C   0  0  0  0  0  2  0  0  0  0  0  0
  160.1610  208.3380  156.7270 O   0  0  0  0  0  1  0  0  0  0  0  0
  161.3610  208.8130  156.2020 C   0  0  0  0  0  2  0  0  0  0  0  0
  161.3210  206.0430  151.5260 C   0  0  0  0  0  2  0  0  0  0  0  0
  161.1850  204.5610  151.4350 C   0  0  0  0  0  0  0  0  0  0  0  0
  161.1420  203.9200  150.1950 C   0  0  0  0  0  0  0  0  0  0  0  0
  160.9400  201.8040  151.3240 C   0  0  0  0  0  3  0  0  0  0  0  0
  160.9770  202.4470  152.5220 N   0  0  0  0  0  0  0  0  0  0  0  0
  161.0200  202.5250  150.1220 C   0  0  0  0  0  0  0  0  0  0  0  0
  161.0980  203.7990  152.6000 C   0  0  0  0  0  3  0  0  0  0  0  0
  158.5840  201.6160  144.9460 O   0  0  0  0  0  1  0  0  0  0  0  0
  160.3610  202.4460  147.7000 C   0  0  0  0  0  3  0  0  0  0  0  0
  160.6000  200.3710  144.9650 C   0  0  0  0  0  2  0  0  0  0  0  0
  160.3810  201.7200  146.5270 C   0  0  0  0  0  0  0  0  0  0  0  0
  161.6180  200.5380  148.6780 C   0  0  0  0  0  3  0  0  0  0  0  0
  161.6280  199.8140  147.4590 C   0  0  0  0  0  3  0  0  0  0  0  0
  160.5620  202.6530  144.3250 O   0  0  0  0  0  1  0  0  0  0  0  0
  160.9910  200.4450  146.4090 C   0  0  0  0  0  0  0  0  0  0  0  0
  160.9980  201.8280  148.8140 C   0  0  0  0  0  0  0  0  0  0  0  0
  159.9700  201.6620  145.1040 C   0  0  0  0  0  0  0  0  0  0  0  0
  161.6300  207.1090  146.6670 C   0  0  0  0  0  2  0  0  0  0  0  0
  160.8490  205.9820  146.0070 C   0  0  0  0  0  2  0  0  0  0  0  0
  161.7320  205.5630  143.7510 C   0  0  0  0  0  3  0  0  0  0  0  0
  160.8050  206.1350  144.5210 C   0  0  0  0  0  3  0  0  0  0  0  0
  161.7300  205.7620  142.2710 C   0  0  0  0  0  2  0  0  0  0  0  0
  161.6450  207.2370  141.9110 C   0  0  0  0  0  2  0  0  0  0  0  0
  162.0680  207.4400  140.4620 C   0  0  0  0  0  2  0  0  0  0  0  0
  161.1900  208.4720  139.7410 C   0  0  1  0  0  3  0  0  0  0  0  0
  161.5270  212.2420  139.3290 C   0  0  0  0  0  2  0  0  0  0  0  0
  162.7480  211.7060  138.6000 C   0  0  0  0  0  2  0  0  0  0  0  0
  160.7800  211.0440  139.8880 C   0  0  2  0  0  3  0  0  0  0  0  0
  163.0290  210.3430  139.1950 C   0  0  0  0  0  2  0  0  0  0  0  0
  161.4400  210.5780  141.0520 O   0  0  0  0  0  0  0  0  0  0  0  0
  161.7300  209.9140  139.8490 C   0  0  2  0  0  0  0  0  0  0  0  0
  162.0980  207.3890  137.6180 C   0  0  0  0  0  1  0  0  0  0  0  0
  160.8980  208.0510  138.2870 C   0  0  2  0  0  3  0  0  0  0  0  0
  160.4690  209.1410  137.5230 O   0  0  0  0  0  0  0  0  0  0  0  0
  159.2250  208.7470  137.0140 C   0  0  0  0  0  2  0  0  0  0  0  0
  158.2120  209.2230  137.8450 O   0  0  0  0  0  1  0  0  0  0  0  0
  1  2  2  0  0  0  0
  2  4  1  0  0  0  0
  2 12  1  0  0  0  0
  3 46  1  6  0  0  0
  3  5  1  0  0  0  0
  3  1  1  0  0  0  0
  4 29  1  1  0  0  0
  5 31  1  1  0  0  0
  5  4  1  0  0  0  0
  6 12  1  0  0  0  0
  6 11  1  0  0  0  0
  7 13  1  1  0  0  0
  8  7  1  0  0  0  0
  8 10  2  0  0  0  0
  9  6  2  0  0  0  0
 11  7  1  0  0  0  0
 12  8  1  0  0  0  0
 14 13  1  6  0  0  0
 14 26  1  0  0  0  0
 15 14  1  0  0  0  0
 17 16  2  0  0  0  0
 17 15  1  0  0  0  0
 19 22  2  0  0  0  0
 19 20  1  0  0  0  0
 20 18  1  1  0  0  0
 21 17  1  1  0  0  0
 21 24  1  0  0  0  0
 24 20  1  0  0  0  0
 24 23  1  1  0  0  0
 25 21  1  0  0  0  0
 25 19  1  0  0  0  0
 28 26  1  0  0  0  0
 28 27  1  0  0  0  0
 30 29  1  0  0  0  0
 30 35  1  0  0  0  0
 31 30  2  0  0  0  0
 32 33  1  0  0  0  0
 33 35  2  0  0  0  0
 34 31  1  0  0  0  0
 34 32  2  0  0  0  0
 36 45  1  0  0  0  0
 37 44  1  0  0  0  0
 38 45  1  0  0  0  0
 38 43  1  0  0  0  0
 39 37  2  0  0  0  0
 40 44  2  0  0  0  0
 41 40  1  0  0  0  0
 42 45  1  0  0  0  0
 43 39  1  0  0  0  0
 43 41  2  0  0  0  0
 44 34  1  0  0  0  0
 45 39  1  0  0  0  0
 47 46  1  0  0  0  0
 48 49  2  0  0  0  0
 49 47  1  0  0  0  0
 50 48  1  0  0  0  0
 51 50  1  0  0  0  0
 52 51  1  0  0  0  0
 53 52  1  6  0  0  0
 55 57  1  0  0  0  0
 55 54  1  0  0  0  0
 56 54  1  6  0  0  0
 56 58  1  0  0  0  0
 57 59  1  0  0  0  0
 59 53  1  6  0  0  0
 59 56  1  0  0  0  0
 59 58  1  0  0  0  0
 61 60  1  6  0  0  0
 61 53  1  0  0  0  0
 62 61  1  0  0  0  0
 63 62  1  0  0  0  0
 63 64  1  0  0  0  0
M  END
>  <MODEL>
3

>  <REMARK>
 VINA RESULT:      -5.4      1.605      2.047
  Name = 
  21 active torsions:
  status: ('A' for Active; 'I' for Inactive)
    1  A    between atoms: C_1  and  O_17
    2  A    between atoms: C_7  and  C_15
    3  A    between atoms: C_7  and  C_39
    4  A    between atoms: C_9  and  C_12
    5  A    between atoms: C_9  and  C_28
    6  A    between atoms: O_17  and  C_29
    7  A    between atoms: C_19  and  N_61
    8  A    between atoms: C_25  and  C_44
    9  A    between atoms: N_27  and  C_28
   10  A    between atoms: C_28  and  C_54
   11  A    between atoms: C_29  and  C_63
   12  A    between atoms: C_31  and  C_48
   13  A    between atoms: C_32  and  C_62
   14  A    between atoms: C_35  and  C_48
   15  A    between atoms: C_35  and  C_60
   16  A    between atoms: C_40  and  C_52
   17  A    between atoms: C_41  and  C_56
   18  A    between atoms: C_44  and  C_52
   19  A    between atoms: C_53  and  C_63
   20  A    between atoms: C_54  and  C_57
   21  A    between atoms: C_60  and  C_63
                            x       y       z     vdW  Elec       q    Type
                         _______ _______ _______ _____ _____    ______ ____

>  <TORSDO>
F 21

$$$$
=
 OpenBabel11042420533D

 64 71  0  0  1  0  0  0  0  0999 V2000
  161.0160  209.8170  149.7720 C   0  0  0  0  0  3  0  0  0  0  0  0
  161.3500  210.8550  150.5230 C   0  0  0  0  0  0  0  0  0  0  0  0
  161.5610  209.8110  148.3910 C   0  0  1  0  0  3  0  0  0  0  0  0
  162.2120  211.8810  149.8750 C   0  0  1  0  0  3  0  0  0  0  0  0
  162.7520  211.1930  148.2770 S   0  0  0  0  0  0  0  0  0  0  0  0
  160.0870  211.9630  152.4660 C   0  0  0  0  0  0  0  0  0  0  0  0
  160.6380  210.6470  154.2760 C   0  0  2  0  0  3  0  0  0  0  0  0
  161.2790  210.1610  153.0090 C   0  0  0  0  0  0  0  0  0  0  0  0
  159.5550  212.9010  151.8140 O   0  0  0  0  0  0  0  0  0  0  0  0
  162.0040  209.1300  152.9250 O   0  0  0  0  0  0  0  0  0  0  0  0
  159.9240  211.8000  153.8350 O   0  0  0  0  0  0  0  0  0  0  0  0
  160.9280  210.9740  151.8930 N   0  0  0  0  0  0  0  0  0  0  0  0
  161.6900  211.0480  155.3000 C   0  0  0  0  0  2  0  0  0  0  0  0
  161.1090  210.9820  156.7030 C   0  0  1  0  0  3  0  0  0  0  0  0
  159.7600  211.5280  156.7150 N   0  0  0  0  0  2  0  0  0  0  0  0
  160.4600  213.7000  157.2060 O   0  0  0  0  0  0  0  0  0  0  0  0
  159.5030  212.9060  156.9930 C   0  0  0  0  0  0  0  0  0  0  0  0
  155.5370  211.7290  155.2120 O   0  0  0  0  0  1  0  0  0  0  0  0
  156.5300  213.8610  155.3810 C   0  0  0  0  0  0  0  0  0  0  0  0
  155.8960  212.7420  156.1080 C   0  0  2  0  0  3  0  0  0  0  0  0
  158.0860  213.3980  157.0410 C   0  0  2  0  0  3  0  0  0  0  0  0
  155.9950  214.4530  154.4080 O   0  0  0  0  0  0  0  0  0  0  0  0
  157.5180  211.0390  156.7110 O   0  0  0  0  0  1  0  0  0  0  0  0
  157.0030  212.2890  157.0780 C   0  0  2  0  0  3  0  0  0  0  0  0
  157.7940  214.2330  155.8890 N   0  0  0  0  0  2  0  0  0  0  0  0
  161.1190  209.5510  157.2610 C   0  0  0  0  0  2  0  0  0  0  0  0
  160.0420  207.4290  157.0030 O   0  0  0  0  0  1  0  0  0  0  0  0
  160.5060  208.5380  156.2980 C   0  0  0  0  0  2  0  0  0  0  0  0
  161.4020  213.1520  149.6520 C   0  0  0  0  0  2  0  0  0  0  0  0
  160.6000  213.0780  148.3960 C   0  0  0  0  0  0  0  0  0  0  0  0
  161.2270  213.0380  147.1480 C   0  0  0  0  0  3  0  0  0  0  0  0
  159.0640  212.9320  146.0950 C   0  0  0  0  0  3  0  0  0  0  0  0
  158.4740  212.9780  147.3190 N   0  0  0  0  0  0  0  0  0  0  0  0
  160.4630  212.9620  145.9740 C   0  0  0  0  0  0  0  0  0  0  0  0
  159.2080  213.0490  148.4610 C   0  0  0  0  0  3  0  0  0  0  0  0
  160.9050  210.5900  140.7080 O   0  0  0  0  0  1  0  0  0  0  0  0
  160.3870  212.3730  143.5340 C   0  0  0  0  0  3  0  0  0  0  0  0
  162.3930  212.4330  140.7390 C   0  0  0  0  0  2  0  0  0  0  0  0
  161.0750  212.3370  142.3390 C   0  0  0  0  0  0  0  0  0  0  0  0
  162.4660  213.3510  144.4810 C   0  0  0  0  0  3  0  0  0  0  0  0
  163.1490  213.3070  143.2400 C   0  0  0  0  0  3  0  0  0  0  0  0
  160.1070  212.7000  140.1750 O   0  0  0  0  0  1  0  0  0  0  0  0
  162.4130  212.7870  142.1940 C   0  0  0  0  0  0  0  0  0  0  0  0
  161.1130  212.8930  144.6430 C   0  0  0  0  0  0  0  0  0  0  0  0
  161.0380  211.9660  140.9040 C   0  0  0  0  0  0  0  0  0  0  0  0
  162.2680  208.4820  148.1390 C   0  0  0  0  0  2  0  0  0  0  0  0
  161.3800  207.5150  147.3680 C   0  0  0  0  0  2  0  0  0  0  0  0
  162.1650  205.7550  145.8410 C   0  0  0  0  0  3  0  0  0  0  0  0
  162.0810  206.2260  147.0870 C   0  0  0  0  0  3  0  0  0  0  0  0
  162.8100  204.4370  145.5600 C   0  0  0  0  0  2  0  0  0  0  0  0
  162.4220  203.3980  146.5990 C   0  0  0  0  0  2  0  0  0  0  0  0
  162.0290  204.0900  147.8980 C   0  0  0  0  0  2  0  0  0  0  0  0
  160.9570  203.3060  148.6690 C   0  0  1  0  0  3  0  0  0  0  0  0
  161.4940  199.7550  147.4040 C   0  0  0  0  0  2  0  0  0  0  0  0
  161.0450  200.4990  146.1580 C   0  0  0  0  0  2  0  0  0  0  0  0
  161.4900  200.7550  148.5470 C   0  0  2  0  0  3  0  0  0  0  0  0
  160.2570  201.6970  146.6440 C   0  0  0  0  0  2  0  0  0  0  0  0
  160.1600  200.9650  148.9850 O   0  0  0  0  0  0  0  0  0  0  0  0
  160.6860  201.9040  148.0830 C   0  0  2  0  0  0  0  0  0  0  0  0
  160.0130  202.9960  151.0190 C   0  0  0  0  0  1  0  0  0  0  0  0
  161.2580  203.2720  150.1810 C   0  0  2  0  0  3  0  0  0  0  0  0
  161.8600  204.4620  150.6030 O   0  0  0  0  0  0  0  0  0  0  0  0
  161.3130  204.7060  151.8680 C   0  0  0  0  0  2  0  0  0  0  0  0
  161.7280  205.9580  152.3200 O   0  0  0  0  0  1  0  0  0  0  0  0
  1  2  2  0  0  0  0
  2 12  1  0  0  0  0
  3 46  1  1  0  0  0
  3  1  1  0  0  0  0
  4 29  1  6  0  0  0
  4  2  1  0  0  0  0
  5  3  1  0  0  0  0
  5  4  1  0  0  0  0
  6 11  1  0  0  0  0
  7 13  1  1  0  0  0
  8  7  1  0  0  0  0
  9  6  2  0  0  0  0
 10  8  2  0  0  0  0
 11  7  1  0  0  0  0
 12  6  1  0  0  0  0
 12  8  1  0  0  0  0
 14 13  1  6  0  0  0
 14 15  1  0  0  0  0
 14 26  1  0  0  0  0
 15 17  1  0  0  0  0
 17 16  2  0  0  0  0
 19 25  1  0  0  0  0
 19 20  1  0  0  0  0
 20 18  1  6  0  0  0
 20 24  1  0  0  0  0
 21 17  1  6  0  0  0
 21 24  1  0  0  0  0
 22 19  2  0  0  0  0
 24 23  1  6  0  0  0
 25 21  1  0  0  0  0
 28 27  1  0  0  0  0
 28 26  1  0  0  0  0
 30 35  1  0  0  0  0
 30 29  1  0  0  0  0
 31 30  2  0  0  0  0
 32 33  1  0  0  0  0
 33 35  2  0  0  0  0
 34 32  2  0  0  0  0
 34 31  1  0  0  0  0
 36 45  1  0  0  0  0
 37 44  1  0  0  0  0
 38 45  1  0  0  0  0
 38 43  1  0  0  0  0
 39 37  2  0  0  0  0
 40 44  2  0  0  0  0
 41 40  1  0  0  0  0
 42 45  1  0  0  0  0
 43 39  1  0  0  0  0
 43 41  2  0  0  0  0
 44 34  1  0  0  0  0
 45 39  1  0  0  0  0
 47 46  1  0  0  0  0
 48 49  2  0  0  0  0
 49 47  1  0  0  0  0
 50 48  1  0  0  0  0
 50 51  1  0  0  0  0
 51 52  1  0  0  0  0
 53 52  1  6  0  0  0
 53 61  1  0  0  0  0
 55 57  1  0  0  0  0
 55 54  1  0  0  0  0
 56 54  1  6  0  0  0
 56 58  1  0  0  0  0
 57 59  1  0  0  0  0
 59 56  1  0  0  0  0
 59 53  1  1  0  0  0
 59 58  1  0  0  0  0
 61 62  1  0  0  0  0
 61 60  1  1  0  0  0
 62 63  1  0  0  0  0
 63 64  1  0  0  0  0
M  END
>  <MODEL>
4

>  <REMARK>
 VINA RESULT:      -3.8      2.786      9.133
  Name = 
  21 active torsions:
  status: ('A' for Active; 'I' for Inactive)
    1  A    between atoms: C_1  and  O_17
    2  A    between atoms: C_7  and  C_15
    3  A    between atoms: C_7  and  C_39
    4  A    between atoms: C_9  and  C_12
    5  A    between atoms: C_9  and  C_28
    6  A    between atoms: O_17  and  C_29
    7  A    between atoms: C_19  and  N_61
    8  A    between atoms: C_25  and  C_44
    9  A    between atoms: N_27  and  C_28
   10  A    between atoms: C_28  and  C_54
   11  A    between atoms: C_29  and  C_63
   12  A    between atoms: C_31  and  C_48
   13  A    between atoms: C_32  and  C_62
   14  A    between atoms: C_35  and  C_48
   15  A    between atoms: C_35  and  C_60
   16  A    between atoms: C_40  and  C_52
   17  A    between atoms: C_41  and  C_56
   18  A    between atoms: C_44  and  C_52
   19  A    between atoms: C_53  and  C_63
   20  A    between atoms: C_54  and  C_57
   21  A    between atoms: C_60  and  C_63
                            x       y       z     vdW  Elec       q    Type
                         _______ _______ _______ _____ _____    ______ ____

>  <TORSDO>
F 21

$$$$
=
 OpenBabel11042420533D

 64 71  0  0  1  0  0  0  0  0999 V2000
  162.1380  212.4040  149.3740 C   0  0  0  0  0  3  0  0  0  0  0  0
  161.5440  211.3050  149.8140 C   0  0  0  0  0  0  0  0  0  0  0  0
  162.3620  212.4800  147.9080 C   0  0  1  0  0  3  0  0  0  0  0  0
  161.1980  210.2910  148.7810 C   0  0  1  0  0  3  0  0  0  0  0  0
  161.4880  211.0620  147.1570 S   0  0  0  0  0  0  0  0  0  0  0  0
  160.4500  211.9480  152.0470 C   0  0  0  0  0  0  0  0  0  0  0  0
  161.1120  210.2580  153.4680 C   0  0  2  0  0  3  0  0  0  0  0  0
  161.6470  210.0690  152.0790 C   0  0  0  0  0  0  0  0  0  0  0  0
  159.8880  213.0100  151.6650 O   0  0  0  0  0  0  0  0  0  0  0  0
  162.3450  209.0840  151.7100 O   0  0  0  0  0  0  0  0  0  0  0  0
  160.3870  211.4820  153.3530 O   0  0  0  0  0  0  0  0  0  0  0  0
  161.2280  211.1130  151.2040 N   0  0  0  0  0  0  0  0  0  0  0  0
  162.2440  210.4180  154.4720 C   0  0  0  0  0  2  0  0  0  0  0  0
  161.6850  210.5220  155.8820 C   0  0  1  0  0  3  0  0  0  0  0  0
  160.5880  211.4770  155.9180 N   0  0  0  0  0  2  0  0  0  0  0  0
  159.2330  210.1280  157.2580 O   0  0  0  0  0  0  0  0  0  0  0  0
  159.3710  211.2070  156.6180 C   0  0  0  0  0  0  0  0  0  0  0  0
  155.7820  212.0480  154.0300 O   0  0  0  0  0  1  0  0  0  0  0  0
  157.4050  213.5380  154.8710 C   0  0  0  0  0  0  0  0  0  0  0  0
  156.2610  212.6610  155.1930 C   0  0  2  0  0  3  0  0  0  0  0  0
  158.2560  212.2100  156.5750 C   0  0  2  0  0  3  0  0  0  0  0  0
  157.3620  214.4520  154.0080 O   0  0  0  0  0  0  0  0  0  0  0  0
  156.9740  210.3740  155.5870 O   0  0  0  0  0  1  0  0  0  0  0  0
  156.8710  211.6420  156.1740 C   0  0  2  0  0  3  0  0  0  0  0  0
  158.5610  213.2770  155.6380 N   0  0  0  0  0  2  0  0  0  0  0  0
  161.2340  209.1580  156.4210 C   0  0  0  0  0  2  0  0  0  0  0  0
  160.2810  207.4490  155.0420 O   0  0  0  0  0  1  0  0  0  0  0  0
  161.4890  208.0190  155.4360 C   0  0  0  0  0  2  0  0  0  0  0  0
  162.0960  209.0720  148.9520 C   0  0  0  0  0  2  0  0  0  0  0  0
  161.6000  207.9110  148.1570 C   0  0  0  0  0  0  0  0  0  0  0  0
  161.5700  206.6270  148.7070 C   0  0  0  0  0  3  0  0  0  0  0  0
  160.6630  205.7920  146.6390 C   0  0  0  0  0  3  0  0  0  0  0  0
  160.7070  207.0480  146.1200 N   0  0  0  0  0  0  0  0  0  0  0  0
  161.0960  205.5440  147.9520 C   0  0  0  0  0  0  0  0  0  0  0  0
  161.1620  208.1020  146.8480 C   0  0  0  0  0  3  0  0  0  0  0  0
  162.4540  201.7900  152.1480 O   0  0  0  0  0  1  0  0  0  0  0  0
  161.1800  204.0060  149.9340 C   0  0  0  0  0  3  0  0  0  0  0  0
  160.9760  200.6530  150.6860 C   0  0  0  0  0  2  0  0  0  0  0  0
  161.1190  202.7010  150.3800 C   0  0  0  0  0  0  0  0  0  0  0  0
  160.8250  203.0470  147.6690 C   0  0  0  0  0  3  0  0  0  0  0  0
  160.7620  201.7160  148.1530 C   0  0  0  0  0  3  0  0  0  0  0  0
  160.1660  201.9950  152.4650 O   0  0  0  0  0  1  0  0  0  0  0  0
  160.9190  201.5910  149.5200 C   0  0  0  0  0  0  0  0  0  0  0  0
  161.0340  204.1800  148.5290 C   0  0  0  0  0  0  0  0  0  0  0  0
  161.1940  201.7910  151.5470 C   0  0  0  0  0  0  0  0  0  0  0  0
  161.7880  213.7920  147.3830 C   0  0  0  0  0  2  0  0  0  0  0  0
  162.3060  214.1100  145.9870 C   0  0  0  0  0  2  0  0  0  0  0  0
  159.9560  213.8450  145.3180 C   0  0  0  0  0  3  0  0  0  0  0  0
  161.2330  213.9820  144.9560 C   0  0  0  0  0  3  0  0  0  0  0  0
  158.8840  213.6540  144.2940 C   0  0  0  0  0  2  0  0  0  0  0  0
  159.3230  214.1650  142.9310 C   0  0  0  0  0  2  0  0  0  0  0  0
  159.3960  213.0060  141.9450 C   0  0  0  0  0  2  0  0  0  0  0  0
  160.1080  213.3980  140.6430 C   0  0  1  0  0  3  0  0  0  0  0  0
  162.9860  211.6400  138.8770 C   0  0  0  0  0  2  0  0  0  0  0  0
  162.2890  210.5060  139.6090 C   0  0  0  0  0  2  0  0  0  0  0  0
  162.2350  212.9160  139.2110 C   0  0  2  0  0  3  0  0  0  0  0  0
  161.5500  211.1430  140.7660 C   0  0  0  0  0  2  0  0  0  0  0  0
  162.5980  213.3490  140.5110 O   0  0  0  0  0  0  0  0  0  0  0  0
  161.4110  212.6060  140.3970 C   0  0  2  0  0  0  0  0  0  0  0  0
  159.6440  214.1980  138.2650 C   0  0  0  0  0  1  0  0  0  0  0  0
  159.1480  213.3570  139.4380 C   0  0  2  0  0  3  0  0  0  0  0  0
  157.8610  213.7640  139.8030 O   0  0  0  0  0  0  0  0  0  0  0  0
  157.0070  212.8910  139.1180 C   0  0  0  0  0  2  0  0  0  0  0  0
  157.4830  211.5870  139.2370 O   0  0  0  0  0  1  0  0  0  0  0  0
  1  2  2  0  0  0  0
  2 12  1  0  0  0  0
  3 46  1  6  0  0  0
  3  1  1  0  0  0  0
  4 29  1  1  0  0  0
  4  2  1  0  0  0  0
  5  3  1  0  0  0  0
  5  4  1  0  0  0  0
  6 11  1  0  0  0  0
  7 13  1  1  0  0  0
  8  7  1  0  0  0  0
  9  6  2  0  0  0  0
 10  8  2  0  0  0  0
 11  7  1  0  0  0  0
 12  6  1  0  0  0  0
 12  8  1  0  0  0  0
 14 13  1  6  0  0  0
 14 15  1  0  0  0  0
 14 26  1  0  0  0  0
 15 17  1  0  0  0  0
 17 16  2  0  0  0  0
 19 20  1  0  0  0  0
 19 25  1  0  0  0  0
 20 18  1  6  0  0  0
 20 24  1  0  0  0  0
 21 17  1  6  0  0  0
 22 19  2  0  0  0  0
 24 23  1  6  0  0  0
 24 21  1  0  0  0  0
 25 21  1  0  0  0  0
 27 28  1  0  0  0  0
 28 26  1  0  0  0  0
 30 31  1  0  0  0  0
 30 29  1  0  0  0  0
 32 34  1  0  0  0  0
 33 32  2  0  0  0  0
 33 35  1  0  0  0  0
 34 44  1  0  0  0  0
 34 31  2  0  0  0  0
 35 30  2  0  0  0  0
 37 39  1  0  0  0  0
 38 45  1  0  0  0  0
 39 45  1  0  0  0  0
 40 41  2  0  0  0  0
 40 44  1  0  0  0  0
 41 43  1  0  0  0  0
 43 39  2  0  0  0  0
 43 38  1  0  0  0  0
 44 37  2  0  0  0  0
 45 36  1  0  0  0  0
 45 42  1  0  0  0  0
 47 46  1  0  0  0  0
 49 48  2  0  0  0  0
 49 47  1  0  0  0  0
 50 48  1  0  0  0  0
 51 50  1  0  0  0  0
 52 51  1  0  0  0  0
 53 52  1  1  0  0  0
 54 55  1  0  0  0  0
 55 57  1  0  0  0  0
 56 54  1  1  0  0  0
 56 59  1  0  0  0  0
 56 58  1  0  0  0  0
 59 58  1  0  0  0  0
 59 53  1  1  0  0  0
 59 57  1  0  0  0  0
 61 60  1  6  0  0  0
 61 62  1  0  0  0  0
 61 53  1  0  0  0  0
 63 64  1  0  0  0  0
 63 62  1  0  0  0  0
M  END
>  <MODEL>
5

>  <REMARK>
 VINA RESULT:      -3.3      2.771      4.486
  Name = 
  21 active torsions:
  status: ('A' for Active; 'I' for Inactive)
    1  A    between atoms: C_1  and  O_17
    2  A    between atoms: C_7  and  C_15
    3  A    between atoms: C_7  and  C_39
    4  A    between atoms: C_9  and  C_12
    5  A    between atoms: C_9  and  C_28
    6  A    between atoms: O_17  and  C_29
    7  A    between atoms: C_19  and  N_61
    8  A    between atoms: C_25  and  C_44
    9  A    between atoms: N_27  and  C_28
   10  A    between atoms: C_28  and  C_54
   11  A    between atoms: C_29  and  C_63
   12  A    between atoms: C_31  and  C_48
   13  A    between atoms: C_32  and  C_62
   14  A    between atoms: C_35  and  C_48
   15  A    between atoms: C_35  and  C_60
   16  A    between atoms: C_40  and  C_52
   17  A    between atoms: C_41  and  C_56
   18  A    between atoms: C_44  and  C_52
   19  A    between atoms: C_53  and  C_63
   20  A    between atoms: C_54  and  C_57
   21  A    between atoms: C_60  and  C_63
                            x       y       z     vdW  Elec       q    Type
                         _______ _______ _______ _____ _____    ______ ____

>  <TORSDO>
F 21

$$$$
=
 OpenBabel11042420533D

 64 71  0  0  1  0  0  0  0  0999 V2000
  160.5370  213.2180  150.9260 C   0  0  0  0  0  3  0  0  0  0  0  0
  160.4910  212.5020  149.8130 C   0  0  0  0  0  0  0  0  0  0  0  0
  159.5880  214.3580  151.0070 C   0  0  1  0  0  3  0  0  0  0  0  0
  159.5070  212.9490  148.7890 C   0  0  1  0  0  3  0  0  0  0  0  0
  158.4720  214.2310  149.5650 S   0  0  0  0  0  0  0  0  0  0  0  0
  161.8020  210.8150  148.3890 C   0  0  0  0  0  0  0  0  0  0  0  0
  162.6410  209.3420  149.9500 C   0  0  2  0  0  3  0  0  0  0  0  0
  161.8320  210.4350  150.5840 C   0  0  0  0  0  0  0  0  0  0  0  0
  161.5680  211.3240  147.2600 O   0  0  0  0  0  0  0  0  0  0  0  0
  161.6580  210.5660  151.8280 O   0  0  0  0  0  0  0  0  0  0  0  0
  162.5460  209.6550  148.5620 O   0  0  0  0  0  0  0  0  0  0  0  0
  161.3230  211.3460  149.6140 N   0  0  0  0  0  0  0  0  0  0  0  0
  162.0200  207.9790  150.2180 C   0  0  0  0  0  2  0  0  0  0  0  0
  162.4940  206.9730  149.1810 C   0  0  1  0  0  3  0  0  0  0  0  0
  161.8830  205.6750  149.4250 N   0  0  0  0  0  2  0  0  0  0  0  0
  160.0210  206.5660  150.5180 O   0  0  0  0  0  0  0  0  0  0  0  0
  160.6420  205.5410  150.1210 C   0  0  0  0  0  0  0  0  0  0  0  0
  162.0140  201.7590  152.1470 O   0  0  0  0  0  1  0  0  0  0  0  0
  160.9520  202.0400  150.0600 C   0  0  0  0  0  0  0  0  0  0  0  0
  160.8080  202.1040  151.5290 C   0  0  2  0  0  3  0  0  0  0  0  0
  160.0880  204.1710  150.3860 C   0  0  2  0  0  3  0  0  0  0  0  0
  161.3610  201.0230  149.4430 O   0  0  0  0  0  0  0  0  0  0  0  0
  161.4810  204.2690  152.3980 O   0  0  0  0  0  1  0  0  0  0  0  0
  160.4320  203.5770  151.7770 C   0  0  2  0  0  3  0  0  0  0  0  0
  160.5650  203.2240  149.3950 N   0  0  0  0  0  2  0  0  0  0  0  0
  162.2070  207.4460  147.7500 C   0  0  0  0  0  2  0  0  0  0  0  0
  160.6420  206.6320  146.1320 O   0  0  0  0  0  1  0  0  0  0  0  0
  161.8090  206.3040  146.8180 C   0  0  0  0  0  2  0  0  0  0  0  0
  160.2530  213.5290  147.5940 C   0  0  0  0  0  2  0  0  0  0  0  0
  159.3790  213.6090  146.3880 C   0  0  0  0  0  0  0  0  0  0  0  0
  159.8460  213.2020  145.1360 C   0  0  0  0  0  3  0  0  0  0  0  0
  157.7090  213.7700  144.1830 C   0  0  0  0  0  3  0  0  0  0  0  0
  157.2760  214.1680  145.4090 N   0  0  0  0  0  0  0  0  0  0  0  0
  159.0120  213.2750  144.0110 C   0  0  0  0  0  0  0  0  0  0  0  0
  158.0780  214.0960  146.5040 C   0  0  0  0  0  3  0  0  0  0  0  0
  158.4710  213.1860  138.2450 O   0  0  0  0  0  1  0  0  0  0  0  0
  159.1750  213.5980  141.5260 C   0  0  0  0  0  3  0  0  0  0  0  0
  160.4950  212.0600  138.7440 C   0  0  0  0  0  2  0  0  0  0  0  0
  159.6460  213.0950  140.3300 C   0  0  0  0  0  0  0  0  0  0  0  0
  160.2490  211.6110  142.5640 C   0  0  0  0  0  3  0  0  0  0  0  0
  160.7240  211.1180  141.3220 C   0  0  0  0  0  3  0  0  0  0  0  0
  160.4210  214.4150  138.4840 O   0  0  0  0  0  1  0  0  0  0  0  0
  160.3940  211.8940  140.2290 C   0  0  0  0  0  0  0  0  0  0  0  0
  159.4840  212.8230  142.6800 C   0  0  0  0  0  0  0  0  0  0  0  0
  159.7200  213.2730  138.8610 C   0  0  0  0  0  0  0  0  0  0  0  0
  158.7910  214.2530  152.3030 C   0  0  0  0  0  2  0  0  0  0  0  0
  159.7030  214.2620  153.5220 C   0  0  0  0  0  2  0  0  0  0  0  0
  159.5270  214.2770  155.9740 C   0  0  0  0  0  3  0  0  0  0  0  0
  158.9300  214.1140  154.7920 C   0  0  0  0  0  3  0  0  0  0  0  0
  158.7760  214.0700  157.2490 C   0  0  0  0  0  2  0  0  0  0  0  0
  157.5740  213.1630  157.0420 C   0  0  0  0  0  2  0  0  0  0  0  0
  158.0170  211.7060  157.0650 C   0  0  0  0  0  2  0  0  0  0  0  0
  158.4020  211.1970  155.6690 C   0  0  1  0  0  3  0  0  0  0  0  0
  161.4190  209.2110  156.8720 C   0  0  0  0  0  2  0  0  0  0  0  0
  162.0300  210.2100  155.9040 C   0  0  0  0  0  2  0  0  0  0  0  0
  159.9210  209.4550  156.8800 C   0  0  2  0  0  3  0  0  0  0  0  0
  160.9190  210.6130  154.9580 C   0  0  0  0  0  2  0  0  0  0  0  0
  159.3440  208.8890  155.7160 O   0  0  0  0  0  0  0  0  0  0  0  0
  159.6320  210.2630  155.6780 C   0  0  2  0  0  0  0  0  0  0  0  0
  156.9270  211.2470  153.5880 C   0  0  0  0  0  1  0  0  0  0  0  0
  157.1920  210.5830  154.9360 C   0  0  2  0  0  3  0  0  0  0  0  0
  156.0410  210.6380  155.7280 O   0  0  0  0  0  0  0  0  0  0  0  0
  155.2310  209.6020  155.2460 C   0  0  0  0  0  2  0  0  0  0  0  0
  154.0280  209.5880  155.9500 O   0  0  0  0  0  1  0  0  0  0  0  0
  1  3  1  0  0  0  0
  2  1  2  0  0  0  0
  3 46  1  1  0  0  0
  4 29  1  6  0  0  0
  4  5  1  0  0  0  0
  4  2  1  0  0  0  0
  5  3  1  0  0  0  0
  6 11  1  0  0  0  0
  6 12  1  0  0  0  0
  7 13  1  6  0  0  0
  7  8  1  0  0  0  0
  8 10  2  0  0  0  0
  9  6  2  0  0  0  0
 11  7  1  0  0  0  0
 12  2  1  0  0  0  0
 12  8  1  0  0  0  0
 14 26  1  6  0  0  0
 14 15  1  0  0  0  0
 14 13  1  0  0  0  0
 15 17  1  0  0  0  0
 17 16  2  0  0  0  0
 19 20  1  0  0  0  0
 20 24  1  0  0  0  0
 20 18  1  1  0  0  0
 21 17  1  6  0  0  0
 21 24  1  0  0  0  0
 22 19  2  0  0  0  0
 24 23  1  6  0  0  0
 25 19  1  0  0  0  0
 25 21  1  0  0  0  0
 27 28  1  0  0  0  0
 28 26  1  0  0  0  0
 30 35  1  0  0  0  0
 30 29  1  0  0  0  0
 31 30  2  0  0  0  0
 32 33  1  0  0  0  0
 33 35  2  0  0  0  0
 34 32  2  0  0  0  0
 34 31  1  0  0  0  0
 36 45  1  0  0  0  0
 37 44  1  0  0  0  0
 38 45  1  0  0  0  0
 38 43  1  0  0  0  0
 39 37  2  0  0  0  0
 40 44  2  0  0  0  0
 41 40  1  0  0  0  0
 42 45  1  0  0  0  0
 43 39  1  0  0  0  0
 43 41  2  0  0  0  0
 44 34  1  0  0  0  0
 45 39  1  0  0  0  0
 46 47  1  0  0  0  0
 47 49  1  0  0  0  0
 48 50  1  0  0  0  0
 49 48  2  0  0  0  0
 51 52  1  0  0  0  0
 51 50  1  0  0  0  0
 53 52  1  1  0  0  0
 55 54  1  0  0  0  0
 56 54  1  6  0  0  0
 57 59  1  0  0  0  0
 57 55  1  0  0  0  0
 58 56  1  0  0  0  0
 59 53  1  1  0  0  0
 59 58  1  0  0  0  0
 59 56  1  0  0  0  0
 61 60  1  6  0  0  0
 61 53  1  0  0  0  0
 61 62  1  0  0  0  0
 63 62  1  0  0  0  0
 63 64  1  0  0  0  0
M  END
>  <MODEL>
6

>  <REMARK>
 VINA RESULT:      -3.0      3.326     12.701
  Name = 
  21 active torsions:
  status: ('A' for Active; 'I' for Inactive)
    1  A    between atoms: C_1  and  O_17
    2  A    between atoms: C_7  and  C_15
    3  A    between atoms: C_7  and  C_39
    4  A    between atoms: C_9  and  C_12
    5  A    between atoms: C_9  and  C_28
    6  A    between atoms: O_17  and  C_29
    7  A    between atoms: C_19  and  N_61
    8  A    between atoms: C_25  and  C_44
    9  A    between atoms: N_27  and  C_28
   10  A    between atoms: C_28  and  C_54
   11  A    between atoms: C_29  and  C_63
   12  A    between atoms: C_31  and  C_48
   13  A    between atoms: C_32  and  C_62
   14  A    between atoms: C_35  and  C_48
   15  A    between atoms: C_35  and  C_60
   16  A    between atoms: C_40  and  C_52
   17  A    between atoms: C_41  and  C_56
   18  A    between atoms: C_44  and  C_52
   19  A    between atoms: C_53  and  C_63
   20  A    between atoms: C_54  and  C_57
   21  A    between atoms: C_60  and  C_63
                            x       y       z     vdW  Elec       q    Type
                         _______ _______ _______ _____ _____    ______ ____

>  <TORSDO>
F 21

$$$$
=
 OpenBabel11042420533D

 64 71  0  0  1  0  0  0  0  0999 V2000
  160.5800  209.1120  150.8000 C   0  0  0  0  0  3  0  0  0  0  0  0
  161.1930  207.9620  151.0320 C   0  0  0  0  0  0  0  0  0  0  0  0
  160.6140  210.1030  151.9060 C   0  0  1  0  0  3  0  0  0  0  0  0
  161.8180  207.8140  152.3750 C   0  0  1  0  0  3  0  0  0  0  0  0
  161.7450  209.4460  153.1820 S   0  0  0  0  0  0  0  0  0  0  0  0
  161.4310  205.5300  150.2410 C   0  0  0  0  0  0  0  0  0  0  0  0
  161.3970  205.7140  147.9440 C   0  0  2  0  0  3  0  0  0  0  0  0
  161.2610  207.0480  148.6180 C   0  0  0  0  0  0  0  0  0  0  0  0
  161.5010  204.9860  151.3760 O   0  0  0  0  0  0  0  0  0  0  0  0
  161.1050  208.1430  148.0110 O   0  0  0  0  0  0  0  0  0  0  0  0
  161.5200  204.8230  149.0500 O   0  0  0  0  0  0  0  0  0  0  0  0
  161.2750  206.9260  150.0380 N   0  0  0  0  0  0  0  0  0  0  0  0
  162.6560  205.6610  147.0920 C   0  0  0  0  0  2  0  0  0  0  0  0
  162.3700  204.9550  145.7760 C   0  0  1  0  0  3  0  0  0  0  0  0
  161.8600  203.6150  146.0250 N   0  0  0  0  0  2  0  0  0  0  0  0
  159.9030  203.9450  144.7960 O   0  0  0  0  0  0  0  0  0  0  0  0
  160.5990  203.1770  145.5150 C   0  0  0  0  0  0  0  0  0  0  0  0
  161.6650  199.9010  148.4170 O   0  0  0  0  0  1  0  0  0  0  0  0
  161.1910  199.7640  146.1110 C   0  0  0  0  0  0  0  0  0  0  0  0
  160.6480  200.0110  147.4630 C   0  0  2  0  0  3  0  0  0  0  0  0
  160.1050  201.8000  145.8500 C   0  0  2  0  0  3  0  0  0  0  0  0
  161.8320  198.7290  145.7950 O   0  0  0  0  0  0  0  0  0  0  0  0
  160.8850  202.3390  148.1080 O   0  0  0  0  0  1  0  0  0  0  0  0
  160.1040  201.4480  147.3600 C   0  0  2  0  0  3  0  0  0  0  0  0
  160.9070  200.7900  145.1830 N   0  0  0  0  0  2  0  0  0  0  0  0
  161.3940  205.7510  144.8980 C   0  0  0  0  0  2  0  0  0  0  0  0
  161.3310  205.5300  142.5160 O   0  0  0  0  0  1  0  0  0  0  0  0
  162.0030  206.1610  143.5600 C   0  0  0  0  0  2  0  0  0  0  0  0
  161.0310  206.7920  153.1870 C   0  0  0  0  0  2  0  0  0  0  0  0
  160.6050  207.3490  154.5040 C   0  0  0  0  0  0  0  0  0  0  0  0
  160.0730  208.6370  154.5980 C   0  0  0  0  0  3  0  0  0  0  0  0
  159.8210  208.3300  156.9730 C   0  0  0  0  0  3  0  0  0  0  0  0
  160.3480  207.0810  156.8600 N   0  0  0  0  0  0  0  0  0  0  0  0
  159.6690  209.1470  155.8410 C   0  0  0  0  0  0  0  0  0  0  0  0
  160.7380  206.5800  155.6590 C   0  0  0  0  0  3  0  0  0  0  0  0
  157.3800  213.8600  153.3720 O   0  0  0  0  0  1  0  0  0  0  0  0
  158.2100  210.9770  154.9300 C   0  0  0  0  0  3  0  0  0  0  0  0
  157.1760  214.1650  155.7120 C   0  0  0  0  0  2  0  0  0  0  0  0
  157.7170  212.2520  155.1150 C   0  0  0  0  0  0  0  0  0  0  0  0
  159.3850  211.3240  157.0930 C   0  0  0  0  0  3  0  0  0  0  0  0
  158.8610  212.6310  157.2610 C   0  0  0  0  0  3  0  0  0  0  0  0
  155.5300  212.9960  154.4690 O   0  0  0  0  0  1  0  0  0  0  0  0
  158.0320  213.0560  156.2410 C   0  0  0  0  0  0  0  0  0  0  0  0
  159.0790  210.5020  155.9540 C   0  0  0  0  0  0  0  0  0  0  0  0
  156.8760  213.3420  154.5650 C   0  0  0  0  0  0  0  0  0  0  0  0
  161.1370  211.4320  151.3690 C   0  0  0  0  0  2  0  0  0  0  0  0
  162.0380  211.2300  150.1590 C   0  0  0  0  0  2  0  0  0  0  0  0
  160.9050  213.0390  148.9390 C   0  0  0  0  0  3  0  0  0  0  0  0
  162.0460  212.4300  149.2680 C   0  0  0  0  0  3  0  0  0  0  0  0
  160.9000  214.2000  147.9990 C   0  0  0  0  0  2  0  0  0  0  0  0
  161.9490  214.0380  146.9110 C   0  0  0  0  0  2  0  0  0  0  0  0
  161.5180  212.9480  145.9380 C   0  0  0  0  0  2  0  0  0  0  0  0
  160.8680  213.5260  144.6730 C   0  0  1  0  0  3  0  0  0  0  0  0
  162.7890  213.9940  141.4190 C   0  0  0  0  0  2  0  0  0  0  0  0
  161.5470  213.2400  140.9780 C   0  0  0  0  0  2  0  0  0  0  0  0
  162.6910  214.1770  142.9230 C   0  0  2  0  0  3  0  0  0  0  0  0
  161.0450  212.5030  142.2030 C   0  0  0  0  0  2  0  0  0  0  0  0
  163.0320  212.9630  143.5690 O   0  0  0  0  0  0  0  0  0  0  0  0
  161.6640  213.2210  143.3850 C   0  0  2  0  0  0  0  0  0  0  0  0
  158.6030  214.0250  143.6110 C   0  0  0  0  0  1  0  0  0  0  0  0
  159.3830  213.1260  144.5660 C   0  0  2  0  0  3  0  0  0  0  0  0
  158.7700  213.1210  145.8230 O   0  0  0  0  0  0  0  0  0  0  0  0
  157.4850  212.6180  145.5860 C   0  0  0  0  0  2  0  0  0  0  0  0
  156.5380  213.5360  146.0360 O   0  0  0  0  0  1  0  0  0  0  0  0
  1  2  2  0  0  0  0
  1  3  1  0  0  0  0
  2  4  1  0  0  0  0
  3 46  1  6  0  0  0
  3  5  1  0  0  0  0
  4  5  1  0  0  0  0
  4 29  1  1  0  0  0
  6  9  2  0  0  0  0
  7 13  1  6  0  0  0
  7  8  1  0  0  0  0
  7 11  1  0  0  0  0
  8 12  1  0  0  0  0
 10  8  2  0  0  0  0
 11  6  1  0  0  0  0
 12  6  1  0  0  0  0
 12  2  1  0  0  0  0
 14 26  1  1  0  0  0
 14 15  1  0  0  0  0
 14 13  1  0  0  0  0
 16 17  2  0  0  0  0
 17 15  1  0  0  0  0
 19 20  1  0  0  0  0
 20 18  1  1  0  0  0
 21 17  1  1  0  0  0
 21 24  1  0  0  0  0
 22 19  2  0  0  0  0
 24 20  1  0  0  0  0
 24 23  1  1  0  0  0
 25 21  1  0  0  0  0
 25 19  1  0  0  0  0
 27 28  1  0  0  0  0
 28 26  1  0  0  0  0
 29 30  1  0  0  0  0
 30 31  2  0  0  0  0
 30 35  1  0  0  0  0
 31 34  1  0  0  0  0
 33 32  1  0  0  0  0
 34 44  1  0  0  0  0
 34 32  2  0  0  0  0
 35 33  2  0  0  0  0
 36 45  1  0  0  0  0
 37 39  2  0  0  0  0
 37 44  1  0  0  0  0
 38 43  1  0  0  0  0
 39 43  1  0  0  0  0
 40 41  1  0  0  0  0
 42 45  1  0  0  0  0
 43 41  2  0  0  0  0
 44 40  2  0  0  0  0
 45 39  1  0  0  0  0
 45 38  1  0  0  0  0
 47 46  1  0  0  0  0
 48 49  2  0  0  0  0
 49 47  1  0  0  0  0
 50 48  1  0  0  0  0
 51 50  1  0  0  0  0
 52 51  1  0  0  0  0
 53 52  1  1  0  0  0
 55 54  1  0  0  0  0
 55 57  1  0  0  0  0
 56 54  1  6  0  0  0
 56 59  1  0  0  0  0
 56 58  1  0  0  0  0
 57 59  1  0  0  0  0
 59 58  1  0  0  0  0
 59 53  1  1  0  0  0
 61 60  1  6  0  0  0
 61 53  1  0  0  0  0
 61 62  1  0  0  0  0
 63 62  1  0  0  0  0
 63 64  1  0  0  0  0
M  END
>  <MODEL>
7

>  <REMARK>
 VINA RESULT:      -3.0      3.379     10.717
  Name = 
  21 active torsions:
  status: ('A' for Active; 'I' for Inactive)
    1  A    between atoms: C_1  and  O_17
    2  A    between atoms: C_7  and  C_15
    3  A    between atoms: C_7  and  C_39
    4  A    between atoms: C_9  and  C_12
    5  A    between atoms: C_9  and  C_28
    6  A    between atoms: O_17  and  C_29
    7  A    between atoms: C_19  and  N_61
    8  A    between atoms: C_25  and  C_44
    9  A    between atoms: N_27  and  C_28
   10  A    between atoms: C_28  and  C_54
   11  A    between atoms: C_29  and  C_63
   12  A    between atoms: C_31  and  C_48
   13  A    between atoms: C_32  and  C_62
   14  A    between atoms: C_35  and  C_48
   15  A    between atoms: C_35  and  C_60
   16  A    between atoms: C_40  and  C_52
   17  A    between atoms: C_41  and  C_56
   18  A    between atoms: C_44  and  C_52
   19  A    between atoms: C_53  and  C_63
   20  A    between atoms: C_54  and  C_57
   21  A    between atoms: C_60  and  C_63
                            x       y       z     vdW  Elec       q    Type
                         _______ _______ _______ _____ _____    ______ ____

>  <TORSDO>
F 21

$$$$
=
 OpenBabel11042420533D

 64 71  0  0  1  0  0  0  0  0999 V2000
  162.2010  212.3440  149.3600 C   0  0  0  0  0  3  0  0  0  0  0  0
  161.6270  211.2320  149.7940 C   0  0  0  0  0  0  0  0  0  0  0  0
  162.4160  212.4360  147.8930 C   0  0  1  0  0  3  0  0  0  0  0  0
  161.2910  210.2210  148.7540 C   0  0  1  0  0  3  0  0  0  0  0  0
  161.5610  211.0100  147.1340 S   0  0  0  0  0  0  0  0  0  0  0  0
  160.5160  211.8270  152.0320 C   0  0  0  0  0  0  0  0  0  0  0  0
  161.2420  210.1560  153.4440 C   0  0  2  0  0  3  0  0  0  0  0  0
  161.7800  209.9920  152.0530 C   0  0  0  0  0  0  0  0  0  0  0  0
  159.9150  212.8690  151.6550 O   0  0  0  0  0  0  0  0  0  0  0  0
  162.5120  209.0340  151.6790 O   0  0  0  0  0  0  0  0  0  0  0  0
  160.4730  211.3530  153.3360 O   0  0  0  0  0  0  0  0  0  0  0  0
  161.3210  211.0240  151.1830 N   0  0  0  0  0  0  0  0  0  0  0  0
  162.3700  210.3530  154.4460 C   0  0  0  0  0  2  0  0  0  0  0  0
  161.8070  210.4760  155.8530 C   0  0  1  0  0  3  0  0  0  0  0  0
  160.8810  211.5950  155.9270 N   0  0  0  0  0  2  0  0  0  0  0  0
  159.0310  210.2540  156.4060 O   0  0  0  0  0  0  0  0  0  0  0  0
  159.4890  211.4100  156.1930 C   0  0  0  0  0  0  0  0  0  0  0  0
  155.4320  212.4770  154.5520 O   0  0  0  0  0  1  0  0  0  0  0  0
  157.4350  213.7220  154.5220 C   0  0  0  0  0  0  0  0  0  0  0  0
  156.3340  213.1880  155.3510 C   0  0  2  0  0  3  0  0  0  0  0  0
  158.5740  212.6000  156.2060 C   0  0  2  0  0  3  0  0  0  0  0  0
  157.2580  214.4390  153.5040 O   0  0  0  0  0  0  0  0  0  0  0  0
  156.7950  210.9230  156.0930 O   0  0  0  0  0  1  0  0  0  0  0  0
  157.0660  212.2730  156.3510 C   0  0  2  0  0  3  0  0  0  0  0  0
  158.7220  213.3740  154.9870 N   0  0  0  0  0  2  0  0  0  0  0  0
  161.1290  209.1790  156.3140 C   0  0  0  0  0  2  0  0  0  0  0  0
  161.3200  207.0140  155.3120 O   0  0  0  0  0  1  0  0  0  0  0  0
  160.7390  208.2700  155.1510 C   0  0  0  0  0  2  0  0  0  0  0  0
  162.2100  209.0150  148.9100 C   0  0  0  0  0  2  0  0  0  0  0  0
  161.7230  207.8500  148.1160 C   0  0  0  0  0  0  0  0  0  0  0  0
  161.6510  206.5760  148.6840 C   0  0  0  0  0  3  0  0  0  0  0  0
  160.8030  205.7220  146.5990 C   0  0  0  0  0  3  0  0  0  0  0  0
  160.8870  206.9690  146.0630 N   0  0  0  0  0  0  0  0  0  0  0  0
  161.1860  205.4890  147.9300 C   0  0  0  0  0  0  0  0  0  0  0  0
  161.3340  208.0270  146.7890 C   0  0  0  0  0  3  0  0  0  0  0  0
  162.4270  201.7500  152.1760 O   0  0  0  0  0  1  0  0  0  0  0  0
  161.2230  203.9760  149.9330 C   0  0  0  0  0  3  0  0  0  0  0  0
  160.9110  200.6420  150.7320 C   0  0  0  0  0  2  0  0  0  0  0  0
  161.1200  202.6800  150.3970 C   0  0  0  0  0  0  0  0  0  0  0  0
  160.8330  202.9980  147.6820 C   0  0  0  0  0  3  0  0  0  0  0  0
  160.7280  201.6760  148.1850 C   0  0  0  0  0  3  0  0  0  0  0  0
  160.1480  202.0340  152.4920 O   0  0  0  0  0  1  0  0  0  0  0  0
  160.8830  201.5650  149.5520 C   0  0  0  0  0  0  0  0  0  0  0  0
  161.0800  204.1350  148.5260 C   0  0  0  0  0  0  0  0  0  0  0  0
  161.1670  201.7840  151.5770 C   0  0  0  0  0  0  0  0  0  0  0  0
  161.8180  213.7430  147.3820 C   0  0  0  0  0  2  0  0  0  0  0  0
  162.7640  214.4520  146.4230 C   0  0  0  0  0  2  0  0  0  0  0  0
  162.8890  213.5220  144.1510 C   0  0  0  0  0  3  0  0  0  0  0  0
  162.2940  214.3530  145.0080 C   0  0  0  0  0  3  0  0  0  0  0  0
  162.4650  213.4630  142.7190 C   0  0  0  0  0  2  0  0  0  0  0  0
  161.3350  212.4670  142.5170 C   0  0  0  0  0  2  0  0  0  0  0  0
  160.6730  212.7050  141.1660 C   0  0  0  0  0  2  0  0  0  0  0  0
  160.7530  211.4710  140.2570 C   0  0  1  0  0  3  0  0  0  0  0  0
  158.4450  210.1940  137.5110 C   0  0  0  0  0  2  0  0  0  0  0  0
  158.8380  211.5750  137.0140 C   0  0  0  0  0  2  0  0  0  0  0  0
  159.1240  209.9920  138.8540 C   0  0  2  0  0  3  0  0  0  0  0  0
  159.2300  212.3680  138.2430 C   0  0  0  0  0  2  0  0  0  0  0  0
  158.4150  210.7040  139.8530 O   0  0  0  0  0  0  0  0  0  0  0  0
  159.5440  211.3340  139.3050 C   0  0  2  0  0  0  0  0  0  0  0  0
  163.0890  210.4480  140.1960 C   0  0  0  0  0  1  0  0  0  0  0  0
  162.1050  211.3970  139.5190 C   0  0  2  0  0  3  0  0  0  0  0  0
  162.6790  212.6650  139.3900 O   0  0  0  0  0  0  0  0  0  0  0  0
  163.4700  212.5800  138.2380 C   0  0  0  0  0  2  0  0  0  0  0  0
  162.8290  213.2330  137.1860 O   0  0  0  0  0  1  0  0  0  0  0  0
  1  2  2  0  0  0  0
  2 12  1  0  0  0  0
  3 46  1  6  0  0  0
  3  1  1  0  0  0  0
  4 29  1  1  0  0  0
  4  2  1  0  0  0  0
  5  3  1  0  0  0  0
  5  4  1  0  0  0  0
  6 11  1  0  0  0  0
  7 13  1  1  0  0  0
  8  7  1  0  0  0  0
  9  6  2  0  0  0  0
 10  8  2  0  0  0  0
 11  7  1  0  0  0  0
 12  6  1  0  0  0  0
 12  8  1  0  0  0  0
 14 13  1  6  0  0  0
 14 15  1  0  0  0  0
 14 26  1  0  0  0  0
 15 17  1  0  0  0  0
 17 16  2  0  0  0  0
 19 25  1  0  0  0  0
 19 20  1  0  0  0  0
 20 18  1  6  0  0  0
 20 24  1  0  0  0  0
 21 17  1  6  0  0  0
 21 24  1  0  0  0  0
 22 19  2  0  0  0  0
 24 23  1  6  0  0  0
 25 21  1  0  0  0  0
 28 27  1  0  0  0  0
 28 26  1  0  0  0  0
 30 31  1  0  0  0  0
 30 29  1  0  0  0  0
 32 34  1  0  0  0  0
 33 32  2  0  0  0  0
 33 35  1  0  0  0  0
 34 44  1  0  0  0  0
 34 31  2  0  0  0  0
 35 30  2  0  0  0  0
 37 39  1  0  0  0  0
 38 45  1  0  0  0  0
 39 45  1  0  0  0  0
 40 41  2  0  0  0  0
 40 44  1  0  0  0  0
 41 43  1  0  0  0  0
 43 39  2  0  0  0  0
 43 38  1  0  0  0  0
 44 37  2  0  0  0  0
 45 36  1  0  0  0  0
 45 42  1  0  0  0  0
 47 46  1  0  0  0  0
 48 49  2  0  0  0  0
 49 47  1  0  0  0  0
 50 48  1  0  0  0  0
 51 50  1  0  0  0  0
 52 51  1  0  0  0  0
 53 52  1  6  0  0  0
 55 54  1  0  0  0  0
 55 57  1  0  0  0  0
 56 54  1  6  0  0  0
 56 59  1  0  0  0  0
 56 58  1  0  0  0  0
 57 59  1  0  0  0  0
 59 58  1  0  0  0  0
 59 53  1  1  0  0  0
 61 60  1  1  0  0  0
 61 53  1  0  0  0  0
 62 61  1  0  0  0  0
 63 62  1  0  0  0  0
 64 63  1  0  0  0  0
M  END
>  <MODEL>
8

>  <REMARK>
 VINA RESULT:      -2.8      2.682      4.522
  Name = 
  21 active torsions:
  status: ('A' for Active; 'I' for Inactive)
    1  A    between atoms: C_1  and  O_17
    2  A    between atoms: C_7  and  C_15
    3  A    between atoms: C_7  and  C_39
    4  A    between atoms: C_9  and  C_12
    5  A    between atoms: C_9  and  C_28
    6  A    between atoms: O_17  and  C_29
    7  A    between atoms: C_19  and  N_61
    8  A    between atoms: C_25  and  C_44
    9  A    between atoms: N_27  and  C_28
   10  A    between atoms: C_28  and  C_54
   11  A    between atoms: C_29  and  C_63
   12  A    between atoms: C_31  and  C_48
   13  A    between atoms: C_32  and  C_62
   14  A    between atoms: C_35  and  C_48
   15  A    between atoms: C_35  and  C_60
   16  A    between atoms: C_40  and  C_52
   17  A    between atoms: C_41  and  C_56
   18  A    between atoms: C_44  and  C_52
   19  A    between atoms: C_53  and  C_63
   20  A    between atoms: C_54  and  C_57
   21  A    between atoms: C_60  and  C_63
                            x       y       z     vdW  Elec       q    Type
                         _______ _______ _______ _____ _____    ______ ____

>  <TORSDO>
F 21

$$$$
