=
 OpenBabel11042422313D

 26 30  0  0  1  0  0  0  0  0999 V2000
  161.5620  207.1350  150.5280 C   0  0  1  0  0  0  0  0  0  0  0  0
  162.7890  207.7720  149.8750 C   0  0  1  0  0  3  0  0  0  0  0  0
  160.8040  208.1440  151.3670 C   0  0  2  0  0  3  0  0  0  0  0  0
  162.8950  207.4600  148.4590 N   0  0  0  0  0  1  0  0  0  0  0  0
  161.5440  208.6010  150.1220 C   0  0  2  0  0  3  0  0  0  0  0  0
  161.1420  210.4230  154.1090 C   0  0  2  0  0  3  0  0  0  0  0  0
  160.5660  209.1660  154.7700 C   0  0  1  0  0  3  0  0  0  0  0  0
  160.8650  208.0400  153.8450 C   0  0  0  0  0  0  0  0  0  0  0  0
  160.5320  206.7720  154.0930 C   0  0  0  0  0  2  0  0  0  0  0  0
  161.7190  210.0000  152.7560 C   0  0  2  0  0  3  0  0  0  0  0  0
  161.5960  208.4810  152.6260 C   0  0  2  0  0  3  0  0  0  0  0  0
  162.6490  210.3620  153.8950 C   0  0  0  0  0  2  0  0  0  0  0  0
  162.0450  208.1230  156.3980 N   0  0  0  0  0  2  0  0  0  0  0  0
  160.5670  209.7300  157.2600 N   0  0  0  0  0  2  0  0  0  0  0  0
  161.0870  208.9610  156.1720 C   0  0  0  0  0  0  0  0  0  0  0  0
  160.1710  212.1320  157.1770 C   0  0  0  0  0  1  0  0  0  0  0  0
  159.5440  210.7540  157.0980 C   0  0  0  0  0  2  0  0  0  0  0  0
  160.6220  206.3810  149.5950 C   0  0  0  0  0  2  0  0  0  0  0  0
  161.0240  203.0860  151.4460 C   0  0  0  0  0  3  0  0  0  0  0  0
  161.2410  200.8990  150.5580 O   0  0  0  0  0  0  0  0  0  0  0  0
  160.8170  204.0920  148.7610 C   0  0  0  0  0  3  0  0  0  0  0  0
  160.7550  204.9150  149.8170 C   0  0  0  0  0  0  0  0  0  0  0  0
  161.0910  202.1280  150.3310 C   0  0  0  0  0  0  0  0  0  0  0  0
  160.8660  204.3920  151.2010 C   0  0  0  0  0  3  0  0  0  0  0  0
  160.9820  202.6440  148.9560 C   0  0  0  0  0  0  0  0  0  0  0  0
  161.0300  201.8510  147.9380 N   0  0  0  0  0  2  0  0  0  0  0  0
  1 18  1  6  0  0  0
  1  3  1  0  0  0  0
  2  4  1  6  0  0  0
  2  5  1  0  0  0  0
  2  1  1  0  0  0  0
  3 11  1  1  0  0  0
  5  1  1  0  0  0  0
  5  3  1  0  0  0  0
  6  7  1  0  0  0  0
  7 15  1  0  0  0  0
  8  9  2  0  0  0  0
  8  7  1  0  0  0  0
 10 12  1  0  0  0  0
 10  6  1  0  0  0  0
 11 10  1  0  0  0  0
 11  8  1  0  0  0  0
 12  6  1  0  0  0  0
 15 13  2  0  0  0  0
 15 14  1  0  0  0  0
 17 16  1  0  0  0  0
 17 14  1  0  0  0  0
 18 22  1  0  0  0  0
 21 25  1  0  0  0  0
 21 22  2  0  0  0  0
 22 24  1  0  0  0  0
 23 20  2  0  0  0  0
 23 19  1  0  0  0  0
 24 19  2  0  0  0  0
 25 23  1  0  0  0  0
 26 25  2  0  0  0  0
M  END
>  <MODEL>
1

>  <REMARK>
 VINA RESULT:      -7.4      0.000      0.000
  Name = 
  5 active torsions:
  status: ('A' for Active; 'I' for Inactive)
    1  A    between atoms: C_3  and  C_26
    2  A    between atoms: C_4  and  C_6
    3  A    between atoms: C_4  and  C_16
    4  A    between atoms: C_11  and  C_12
    5  A    between atoms: N_13  and  C_25
                            x       y       z     vdW  Elec       q    Type
                         _______ _______ _______ _____ _____    ______ ____

>  <TORSDO>
F 5

$$$$
=
 OpenBabel11042422313D

 26 30  0  0  1  0  0  0  0  0999 V2000
  161.0390  204.6720  150.7460 C   0  0  1  0  0  0  0  0  0  0  0  0
  160.2560  203.6610  151.5830 C   0  0  1  0  0  3  0  0  0  0  0  0
  161.8540  205.5970  151.6290 C   0  0  2  0  0  3  0  0  0  0  0  0
  160.3920  202.3000  151.0890 N   0  0  0  0  0  1  0  0  0  0  0  0
  161.6010  204.1650  152.0650 C   0  0  2  0  0  3  0  0  0  0  0  0
  161.4770  207.6640  154.5280 C   0  0  2  0  0  3  0  0  0  0  0  0
  161.6890  208.6810  153.4020 C   0  0  1  0  0  3  0  0  0  0  0  0
  161.3510  207.9730  152.1380 C   0  0  0  0  0  0  0  0  0  0  0  0
  161.3950  208.5470  150.9340 C   0  0  0  0  0  2  0  0  0  0  0  0
  161.0730  206.3410  153.8750 C   0  0  2  0  0  3  0  0  0  0  0  0
  160.9330  206.5630  152.3680 C   0  0  2  0  0  3  0  0  0  0  0  0
  160.0440  207.1570  154.6300 C   0  0  0  0  0  2  0  0  0  0  0  0
  159.8250  210.1800  152.9460 N   0  0  0  0  0  2  0  0  0  0  0  0
  161.3180  210.9010  154.6070 N   0  0  0  0  0  2  0  0  0  0  0  0
  160.9060  209.9540  153.6180 C   0  0  0  0  0  0  0  0  0  0  0  0
  162.0250  210.5100  156.9050 C   0  0  0  0  0  1  0  0  0  0  0  0
  162.4740  210.7030  155.4700 C   0  0  0  0  0  2  0  0  0  0  0  0
  161.8920  204.0950  149.6220 C   0  0  0  0  0  2  0  0  0  0  0  0
  160.5780  206.6740  147.1580 C   0  0  0  0  0  3  0  0  0  0  0  0
  160.2820  206.4750  144.8150 O   0  0  0  0  0  0  0  0  0  0  0  0
  161.5890  203.9830  147.2000 C   0  0  0  0  0  3  0  0  0  0  0  0
  161.5010  204.7080  148.3240 C   0  0  0  0  0  0  0  0  0  0  0  0
  160.6560  205.9350  145.8890 C   0  0  0  0  0  0  0  0  0  0  0  0
  160.9750  206.0950  148.2980 C   0  0  0  0  0  3  0  0  0  0  0  0
  161.1770  204.5580  145.9100 C   0  0  0  0  0  0  0  0  0  0  0  0
  161.2730  203.8610  144.8260 N   0  0  0  0  0  2  0  0  0  0  0  0
  1 18  1  6  0  0  0
  1  2  1  0  0  0  0
  1  3  1  0  0  0  0
  1  5  1  0  0  0  0
  2  4  1  6  0  0  0
  2  5  1  0  0  0  0
  3  5  1  0  0  0  0
  3 11  1  1  0  0  0
  6 12  1  0  0  0  0
  7 15  1  0  0  0  0
  7  6  1  0  0  0  0
  8 11  1  0  0  0  0
  8  7  1  0  0  0  0
  9  8  2  0  0  0  0
 10  6  1  0  0  0  0
 10 12  1  0  0  0  0
 11 10  1  0  0  0  0
 13 15  2  0  0  0  0
 14 17  1  0  0  0  0
 15 14  1  0  0  0  0
 17 16  1  0  0  0  0
 19 24  2  0  0  0  0
 20 23  2  0  0  0  0
 21 22  2  0  0  0  0
 22 18  1  0  0  0  0
 23 25  1  0  0  0  0
 23 19  1  0  0  0  0
 24 22  1  0  0  0  0
 25 21  1  0  0  0  0
 26 25  2  0  0  0  0
M  END
>  <MODEL>
2

>  <REMARK>
 VINA RESULT:      -7.4      2.565      3.948
  Name = 
  5 active torsions:
  status: ('A' for Active; 'I' for Inactive)
    1  A    between atoms: C_3  and  C_26
    2  A    between atoms: C_4  and  C_6
    3  A    between atoms: C_4  and  C_16
    4  A    between atoms: C_11  and  C_12
    5  A    between atoms: N_13  and  C_25
                            x       y       z     vdW  Elec       q    Type
                         _______ _______ _______ _____ _____    ______ ____

>  <TORSDO>
F 5

$$$$
=
 OpenBabel11042422313D

 26 30  0  0  1  0  0  0  0  0999 V2000
  160.9660  203.6170  149.4920 C   0  0  1  0  0  0  0  0  0  0  0  0
  159.8490  202.7360  150.0520 C   0  0  1  0  0  3  0  0  0  0  0  0
  161.8080  204.2060  150.6060 C   0  0  2  0  0  3  0  0  0  0  0  0
  159.7590  201.4500  149.3790 N   0  0  0  0  0  1  0  0  0  0  0  0
  161.1740  202.8370  150.7810 C   0  0  2  0  0  3  0  0  0  0  0  0
  161.9720  206.8160  153.0530 C   0  0  2  0  0  3  0  0  0  0  0  0
  161.8210  207.5830  151.7350 C   0  0  1  0  0  3  0  0  0  0  0  0
  161.2480  206.6180  150.7590 C   0  0  0  0  0  0  0  0  0  0  0  0
  160.9540  206.9320  149.4950 C   0  0  0  0  0  2  0  0  0  0  0  0
  161.5330  205.3730  152.7890 C   0  0  2  0  0  3  0  0  0  0  0  0
  161.0160  205.2740  151.3530 C   0  0  2  0  0  3  0  0  0  0  0  0
  160.6520  206.2950  153.6080 C   0  0  0  0  0  2  0  0  0  0  0  0
  160.0810  208.9210  152.7880 N   0  0  0  0  0  2  0  0  0  0  0  0
  161.2980  209.9990  151.0950 N   0  0  0  0  0  2  0  0  0  0  0  0
  161.0110  208.8480  151.8930 C   0  0  0  0  0  0  0  0  0  0  0  0
  162.1300  211.1650  149.1250 C   0  0  0  0  0  1  0  0  0  0  0  0
  162.3750  210.0450  150.1160 C   0  0  0  0  0  2  0  0  0  0  0  0
  161.8430  202.9850  148.4170 C   0  0  0  0  0  2  0  0  0  0  0  0
  162.3720  205.6760  145.7870 C   0  0  0  0  0  3  0  0  0  0  0  0
  161.2930  205.9400  143.6920 O   0  0  0  0  0  0  0  0  0  0  0  0
  160.8040  203.3080  146.2290 C   0  0  0  0  0  3  0  0  0  0  0  0
  161.6940  203.7300  147.1380 C   0  0  0  0  0  0  0  0  0  0  0  0
  161.4170  205.2630  144.7460 C   0  0  0  0  0  0  0  0  0  0  0  0
  162.4990  204.9550  146.9070 C   0  0  0  0  0  3  0  0  0  0  0  0
  160.6170  204.0480  144.9720 C   0  0  0  0  0  0  0  0  0  0  0  0
  159.7660  203.6330  144.0930 N   0  0  0  0  0  2  0  0  0  0  0  0
  1 18  1  6  0  0  0
  1  2  1  0  0  0  0
  1  3  1  0  0  0  0
  1  5  1  0  0  0  0
  2  4  1  6  0  0  0
  2  5  1  0  0  0  0
  3  5  1  0  0  0  0
  3 11  1  1  0  0  0
  6 12  1  0  0  0  0
  7 15  1  0  0  0  0
  7  6  1  0  0  0  0
  8 11  1  0  0  0  0
  8  7  1  0  0  0  0
  9  8  2  0  0  0  0
 10  6  1  0  0  0  0
 10 12  1  0  0  0  0
 11 10  1  0  0  0  0
 14 15  1  0  0  0  0
 15 13  2  0  0  0  0
 16 17  1  0  0  0  0
 17 14  1  0  0  0  0
 19 24  2  0  0  0  0
 20 23  2  0  0  0  0
 21 22  2  0  0  0  0
 22 18  1  0  0  0  0
 23 25  1  0  0  0  0
 23 19  1  0  0  0  0
 24 22  1  0  0  0  0
 25 21  1  0  0  0  0
 26 25  2  0  0  0  0
M  END
>  <MODEL>
3

>  <REMARK>
 VINA RESULT:      -7.2      3.184      5.213
  Name = 
  5 active torsions:
  status: ('A' for Active; 'I' for Inactive)
    1  A    between atoms: C_3  and  C_26
    2  A    between atoms: C_4  and  C_6
    3  A    between atoms: C_4  and  C_16
    4  A    between atoms: C_11  and  C_12
    5  A    between atoms: N_13  and  C_25
                            x       y       z     vdW  Elec       q    Type
                         _______ _______ _______ _____ _____    ______ ____

>  <TORSDO>
F 5

$$$$
=
 OpenBabel11042422313D

 26 30  0  0  1  0  0  0  0  0999 V2000
  161.9380  207.7430  149.1040 C   0  0  1  0  0  0  0  0  0  0  0  0
  161.4840  208.8870  148.1960 C   0  0  1  0  0  3  0  0  0  0  0  0
  162.6760  206.6800  148.3150 C   0  0  2  0  0  3  0  0  0  0  0  0
  161.8060  210.1960  148.7410 N   0  0  0  0  0  1  0  0  0  0  0  0
  162.7630  208.1350  147.8880 C   0  0  2  0  0  3  0  0  0  0  0  0
  162.3650  204.3280  145.6320 C   0  0  2  0  0  3  0  0  0  0  0  0
  161.9440  203.5130  146.8600 C   0  0  1  0  0  3  0  0  0  0  0  0
  161.5580  204.5050  147.9000 C   0  0  0  0  0  0  0  0  0  0  0  0
  161.1120  204.1680  149.1120 C   0  0  0  0  0  2  0  0  0  0  0  0
  162.2730  205.8070  146.0170 C   0  0  2  0  0  3  0  0  0  0  0  0
  161.7000  205.9100  147.4310 C   0  0  2  0  0  3  0  0  0  0  0  0
  161.2520  205.2060  145.0730 C   0  0  0  0  0  2  0  0  0  0  0  0
  160.0920  202.6780  145.5190 N   0  0  0  0  0  2  0  0  0  0  0  0
  160.7140  201.3270  147.3340 N   0  0  0  0  0  2  0  0  0  0  0  0
  160.8630  202.5080  146.5420 C   0  0  0  0  0  0  0  0  0  0  0  0
  160.7740  200.9530  149.7400 C   0  0  0  0  0  1  0  0  0  0  0  0
  161.5810  201.0040  148.4580 C   0  0  0  0  0  2  0  0  0  0  0  0
  162.7200  208.1450  150.3480 C   0  0  0  0  0  2  0  0  0  0  0  0
  160.8290  208.3440  153.6390 C   0  0  0  0  0  3  0  0  0  0  0  0
  160.0820  206.5780  155.0340 O   0  0  0  0  0  0  0  0  0  0  0  0
  161.8870  206.3830  151.8230 C   0  0  0  0  0  3  0  0  0  0  0  0
  161.9980  207.6940  151.5690 C   0  0  0  0  0  0  0  0  0  0  0  0
  160.6670  206.9200  153.9720 C   0  0  0  0  0  0  0  0  0  0  0  0
  161.4540  208.7030  152.5110 C   0  0  0  0  0  3  0  0  0  0  0  0
  161.2060  205.9160  153.0400 C   0  0  0  0  0  0  0  0  0  0  0  0
  161.0910  204.6510  153.2770 N   0  0  0  0  0  2  0  0  0  0  0  0
  1 18  1  1  0  0  0
  2  4  1  1  0  0  0
  2  1  1  0  0  0  0
  3 11  1  6  0  0  0
  3  1  1  0  0  0  0
  5  2  1  0  0  0  0
  5  3  1  0  0  0  0
  5  1  1  0  0  0  0
  6 10  1  0  0  0  0
  6  7  1  0  0  0  0
  7  8  1  0  0  0  0
  8  9  2  0  0  0  0
 10 11  1  0  0  0  0
 11  8  1  0  0  0  0
 12  6  1  0  0  0  0
 12 10  1  0  0  0  0
 13 15  2  0  0  0  0
 14 17  1  0  0  0  0
 15  7  1  0  0  0  0
 15 14  1  0  0  0  0
 17 16  1  0  0  0  0
 18 22  1  0  0  0  0
 19 23  1  0  0  0  0
 21 25  1  0  0  0  0
 22 21  2  0  0  0  0
 22 24  1  0  0  0  0
 23 20  2  0  0  0  0
 24 19  2  0  0  0  0
 25 26  2  0  0  0  0
 25 23  1  0  0  0  0
M  END
>  <MODEL>
4

>  <REMARK>
 VINA RESULT:      -6.7      2.922      7.801
  Name = 
  5 active torsions:
  status: ('A' for Active; 'I' for Inactive)
    1  A    between atoms: C_3  and  C_26
    2  A    between atoms: C_4  and  C_6
    3  A    between atoms: C_4  and  C_16
    4  A    between atoms: C_11  and  C_12
    5  A    between atoms: N_13  and  C_25
                            x       y       z     vdW  Elec       q    Type
                         _______ _______ _______ _____ _____    ______ ____

>  <TORSDO>
F 5

$$$$
=
 OpenBabel11042422313D

 26 30  0  0  1  0  0  0  0  0999 V2000
  160.6590  209.1760  155.1420 C   0  0  1  0  0  0  0  0  0  0  0  0
  161.9430  209.2320  155.9700 C   0  0  1  0  0  3  0  0  0  0  0  0
  160.4360  207.7890  154.5720 C   0  0  2  0  0  3  0  0  0  0  0  0
  161.7500  209.8740  157.2600 N   0  0  0  0  0  1  0  0  0  0  0  0
  161.1320  207.9530  155.9120 C   0  0  2  0  0  3  0  0  0  0  0  0
  161.2550  205.6660  151.8080 C   0  0  2  0  0  3  0  0  0  0  0  0
  160.8250  206.9710  151.1290 C   0  0  1  0  0  3  0  0  0  0  0  0
  160.9580  208.0350  152.1600 C   0  0  0  0  0  0  0  0  0  0  0  0
  160.6910  209.3230  151.9310 C   0  0  0  0  0  2  0  0  0  0  0  0
  161.5740  205.9980  153.2670 C   0  0  2  0  0  3  0  0  0  0  0  0
  161.4450  207.5090  153.4640 C   0  0  2  0  0  3  0  0  0  0  0  0
  162.6970  205.6820  152.3010 C   0  0  0  0  0  2  0  0  0  0  0  0
  162.3810  208.2720  149.7830 N   0  0  0  0  0  2  0  0  0  0  0  0
  161.5270  206.3430  148.7550 N   0  0  0  0  0  2  0  0  0  0  0  0
  161.6010  207.2450  149.8620 C   0  0  0  0  0  0  0  0  0  0  0  0
  161.4930  204.0060  148.0690 C   0  0  0  0  0  1  0  0  0  0  0  0
  160.7400  205.1180  148.7740 C   0  0  0  0  0  2  0  0  0  0  0  0
  159.3990  209.6980  155.8230 C   0  0  0  0  0  2  0  0  0  0  0  0
  159.3430  212.7900  153.6140 C   0  0  0  0  0  3  0  0  0  0  0  0
  157.5030  214.1640  153.0250 O   0  0  0  0  0  0  0  0  0  0  0  0
  157.5490  211.1420  155.1420 C   0  0  0  0  0  3  0  0  0  0  0  0
  158.8570  210.8590  155.0670 C   0  0  0  0  0  0  0  0  0  0  0  0
  157.9170  213.1510  153.6490 C   0  0  0  0  0  0  0  0  0  0  0  0
  159.7800  211.7140  154.2810 C   0  0  0  0  0  3  0  0  0  0  0  0
  156.9980  212.3050  154.4290 C   0  0  0  0  0  0  0  0  0  0  0  0
  155.7350  212.5700  154.4930 N   0  0  0  0  0  2  0  0  0  0  0  0
  1 18  1  1  0  0  0
  1  5  1  0  0  0  0
  1  2  1  0  0  0  0
  2  4  1  1  0  0  0
  3 11  1  6  0  0  0
  3  1  1  0  0  0  0
  3  5  1  0  0  0  0
  5  2  1  0  0  0  0
  6 12  1  0  0  0  0
  6 10  1  0  0  0  0
  7  6  1  0  0  0  0
  7  8  1  0  0  0  0
  8 11  1  0  0  0  0
  9  8  2  0  0  0  0
 10 11  1  0  0  0  0
 12 10  1  0  0  0  0
 13 15  2  0  0  0  0
 14 17  1  0  0  0  0
 14 15  1  0  0  0  0
 15  7  1  0  0  0  0
 16 17  1  0  0  0  0
 19 23  1  0  0  0  0
 19 24  2  0  0  0  0
 20 23  2  0  0  0  0
 22 21  2  0  0  0  0
 22 18  1  0  0  0  0
 23 25  1  0  0  0  0
 24 22  1  0  0  0  0
 25 26  2  0  0  0  0
 25 21  1  0  0  0  0
M  END
>  <MODEL>
5

>  <REMARK>
 VINA RESULT:      -6.7      3.533      8.254
  Name = 
  5 active torsions:
  status: ('A' for Active; 'I' for Inactive)
    1  A    between atoms: C_3  and  C_26
    2  A    between atoms: C_4  and  C_6
    3  A    between atoms: C_4  and  C_16
    4  A    between atoms: C_11  and  C_12
    5  A    between atoms: N_13  and  C_25
                            x       y       z     vdW  Elec       q    Type
                         _______ _______ _______ _____ _____    ______ ____

>  <TORSDO>
F 5

$$$$
=
 OpenBabel11042422313D

 26 30  0  0  1  0  0  0  0  0999 V2000
  161.5950  207.9160  149.9990 C   0  0  1  0  0  0  0  0  0  0  0  0
  161.5260  208.6350  148.6510 C   0  0  1  0  0  3  0  0  0  0  0  0
  162.1570  206.5170  149.8440 C   0  0  2  0  0  3  0  0  0  0  0  0
  162.0740  209.9810  148.7060 N   0  0  0  0  0  1  0  0  0  0  0  0
  162.6260  207.6270  148.9190 C   0  0  2  0  0  3  0  0  0  0  0  0
  161.7020  203.9330  147.4070 C   0  0  2  0  0  3  0  0  0  0  0  0
  161.4830  203.2010  148.7350 C   0  0  1  0  0  3  0  0  0  0  0  0
  161.1520  204.2520  149.7350 C   0  0  0  0  0  0  0  0  0  0  0  0
  160.8730  203.9930  151.0140 C   0  0  0  0  0  2  0  0  0  0  0  0
  161.5530  205.4310  147.6850 C   0  0  2  0  0  3  0  0  0  0  0  0
  161.1410  205.6180  149.1460 C   0  0  2  0  0  3  0  0  0  0  0  0
  160.4730  204.6920  146.9200 C   0  0  0  0  0  2  0  0  0  0  0  0
  159.6610  201.8530  149.6230 N   0  0  0  0  0  2  0  0  0  0  0  0
  160.2790  201.3820  147.4090 N   0  0  0  0  0  2  0  0  0  0  0  0
  160.4450  202.1090  148.6280 C   0  0  0  0  0  0  0  0  0  0  0  0
  160.1700  201.5580  144.9820 C   0  0  0  0  0  1  0  0  0  0  0  0
  161.0580  201.6470  146.2080 C   0  0  0  0  0  2  0  0  0  0  0  0
  162.2960  208.6670  151.1240 C   0  0  0  0  0  2  0  0  0  0  0  0
  160.9700  206.5390  153.9800 C   0  0  0  0  0  3  0  0  0  0  0  0
  159.8680  207.2290  155.9620 O   0  0  0  0  0  0  0  0  0  0  0  0
  161.1860  209.2990  153.2080 C   0  0  0  0  0  3  0  0  0  0  0  0
  161.6720  208.3220  152.4310 C   0  0  0  0  0  0  0  0  0  0  0  0
  160.4220  207.5640  154.8820 C   0  0  0  0  0  0  0  0  0  0  0  0
  161.5550  206.8980  152.8310 C   0  0  0  0  0  3  0  0  0  0  0  0
  160.5360  208.9780  154.4870 C   0  0  0  0  0  0  0  0  0  0  0  0
  160.0770  209.9220  155.2400 N   0  0  0  0  0  2  0  0  0  0  0  0
  1 18  1  1  0  0  0
  2  4  1  1  0  0  0
  2  5  1  0  0  0  0
  2  1  1  0  0  0  0
  3 11  1  6  0  0  0
  3  1  1  0  0  0  0
  5  3  1  0  0  0  0
  5  1  1  0  0  0  0
  6 10  1  0  0  0  0
  6  7  1  0  0  0  0
  7  8  1  0  0  0  0
  8  9  2  0  0  0  0
 10 11  1  0  0  0  0
 11  8  1  0  0  0  0
 12  6  1  0  0  0  0
 12 10  1  0  0  0  0
 14 15  1  0  0  0  0
 15  7  1  0  0  0  0
 15 13  2  0  0  0  0
 16 17  1  0  0  0  0
 17 14  1  0  0  0  0
 18 22  1  0  0  0  0
 19 23  1  0  0  0  0
 21 25  1  0  0  0  0
 22 24  1  0  0  0  0
 22 21  2  0  0  0  0
 23 20  2  0  0  0  0
 24 19  2  0  0  0  0
 25 23  1  0  0  0  0
 25 26  2  0  0  0  0
M  END
>  <MODEL>
6

>  <REMARK>
 VINA RESULT:      -6.5      2.356      7.910
  Name = 
  5 active torsions:
  status: ('A' for Active; 'I' for Inactive)
    1  A    between atoms: C_3  and  C_26
    2  A    between atoms: C_4  and  C_6
    3  A    between atoms: C_4  and  C_16
    4  A    between atoms: C_11  and  C_12
    5  A    between atoms: N_13  and  C_25
                            x       y       z     vdW  Elec       q    Type
                         _______ _______ _______ _____ _____    ______ ____

>  <TORSDO>
F 5

$$$$
=
 OpenBabel11042422313D

 26 30  0  0  1  0  0  0  0  0999 V2000
  161.5360  206.6450  149.4860 C   0  0  1  0  0  0  0  0  0  0  0  0
  162.6130  207.2250  148.5690 C   0  0  1  0  0  3  0  0  0  0  0  0
  160.8110  207.7420  150.2390 C   0  0  2  0  0  3  0  0  0  0  0  0
  162.5630  206.6710  147.2260 N   0  0  0  0  0  1  0  0  0  0  0  0
  161.3460  208.0100  148.8430 C   0  0  2  0  0  3  0  0  0  0  0  0
  161.3430  210.5250  152.4280 C   0  0  2  0  0  3  0  0  0  0  0  0
  160.9210  209.4060  153.3860 C   0  0  1  0  0  3  0  0  0  0  0  0
  161.1700  208.1300  152.6630 C   0  0  0  0  0  0  0  0  0  0  0  0
  160.9410  206.9250  153.1900 C   0  0  0  0  0  2  0  0  0  0  0  0
  161.7780  209.8620  151.1190 C   0  0  2  0  0  3  0  0  0  0  0  0
  161.7270  208.3440  151.2990 C   0  0  2  0  0  3  0  0  0  0  0  0
  162.8160  210.4720  152.0400 C   0  0  0  0  0  2  0  0  0  0  0  0
  162.7550  210.0980  154.8290 N   0  0  0  0  0  2  0  0  0  0  0  0
  160.9960  208.9730  155.9010 N   0  0  0  0  0  2  0  0  0  0  0  0
  161.6150  209.4980  154.7240 C   0  0  0  0  0  0  0  0  0  0  0  0
  159.7450  206.9990  156.5870 C   0  0  0  0  0  1  0  0  0  0  0  0
  159.6800  208.3500  155.9020 C   0  0  0  0  0  2  0  0  0  0  0  0
  160.5500  205.6820  148.8360 C   0  0  0  0  0  2  0  0  0  0  0  0
  161.0690  202.9080  151.3820 C   0  0  0  0  0  3  0  0  0  0  0  0
  161.3960  200.5900  151.0100 O   0  0  0  0  0  0  0  0  0  0  0  0
  160.8580  203.2760  148.5390 C   0  0  0  0  0  3  0  0  0  0  0  0
  160.7450  204.3110  149.3820 C   0  0  0  0  0  0  0  0  0  0  0  0
  161.1950  201.7290  150.5120 C   0  0  0  0  0  0  0  0  0  0  0  0
  160.8580  204.1180  150.8490 C   0  0  0  0  0  3  0  0  0  0  0  0
  161.0840  201.9170  149.0560 C   0  0  0  0  0  0  0  0  0  0  0  0
  161.1820  200.9190  148.2420 N   0  0  0  0  0  2  0  0  0  0  0  0
  1 18  1  6  0  0  0
  1  3  1  0  0  0  0
  2  4  1  6  0  0  0
  2  5  1  0  0  0  0
  2  1  1  0  0  0  0
  3 11  1  1  0  0  0
  5  1  1  0  0  0  0
  5  3  1  0  0  0  0
  6  7  1  0  0  0  0
  7 15  1  0  0  0  0
  8  9  2  0  0  0  0
  8  7  1  0  0  0  0
 10 11  1  0  0  0  0
 10 12  1  0  0  0  0
 10  6  1  0  0  0  0
 11  8  1  0  0  0  0
 12  6  1  0  0  0  0
 14 17  1  0  0  0  0
 15 13  2  0  0  0  0
 15 14  1  0  0  0  0
 17 16  1  0  0  0  0
 18 22  1  0  0  0  0
 21 25  1  0  0  0  0
 21 22  2  0  0  0  0
 22 24  1  0  0  0  0
 23 20  2  0  0  0  0
 23 19  1  0  0  0  0
 24 19  2  0  0  0  0
 25 23  1  0  0  0  0
 26 25  2  0  0  0  0
M  END
>  <MODEL>
7

>  <REMARK>
 VINA RESULT:      -6.5      1.381      1.703
  Name = 
  5 active torsions:
  status: ('A' for Active; 'I' for Inactive)
    1  A    between atoms: C_3  and  C_26
    2  A    between atoms: C_4  and  C_6
    3  A    between atoms: C_4  and  C_16
    4  A    between atoms: C_11  and  C_12
    5  A    between atoms: N_13  and  C_25
                            x       y       z     vdW  Elec       q    Type
                         _______ _______ _______ _____ _____    ______ ____

>  <TORSDO>
F 5

$$$$
=
 OpenBabel11042422313D

 26 30  0  0  1  0  0  0  0  0999 V2000
  161.0540  204.1310  150.4270 C   0  0  1  0  0  0  0  0  0  0  0  0
  160.2180  203.1800  151.2840 C   0  0  1  0  0  3  0  0  0  0  0  0
  161.9060  205.0390  151.2920 C   0  0  2  0  0  3  0  0  0  0  0  0
  160.2930  201.8020  150.8260 N   0  0  0  0  0  1  0  0  0  0  0  0
  161.5830  203.6320  151.7630 C   0  0  2  0  0  3  0  0  0  0  0  0
  161.6560  207.2770  154.0760 C   0  0  2  0  0  3  0  0  0  0  0  0
  161.8560  208.2230  152.8870 C   0  0  1  0  0  3  0  0  0  0  0  0
  161.4670  207.4500  151.6760 C   0  0  0  0  0  0  0  0  0  0  0  0
  161.4880  207.9530  150.4400 C   0  0  0  0  0  2  0  0  0  0  0  0
  161.2060  205.9280  153.5120 C   0  0  2  0  0  3  0  0  0  0  0  0
  161.0270  206.0660  151.9990 C   0  0  2  0  0  3  0  0  0  0  0  0
  160.2160  206.8090  154.2460 C   0  0  0  0  0  2  0  0  0  0  0  0
  160.0190  209.7390  152.3860 N   0  0  0  0  0  2  0  0  0  0  0  0
  161.5570  210.5090  153.9830 N   0  0  0  0  0  2  0  0  0  0  0  0
  161.1060  209.5230  153.0510 C   0  0  0  0  0  0  0  0  0  0  0  0
  162.3080  210.3410  156.2940 C   0  0  0  0  0  1  0  0  0  0  0  0
  162.7230  210.3280  154.8350 C   0  0  0  0  0  2  0  0  0  0  0  0
  161.8860  203.4850  149.3250 C   0  0  0  0  0  2  0  0  0  0  0  0
  161.3440  203.8380  145.5800 C   0  0  0  0  0  3  0  0  0  0  0  0
  160.8510  205.7890  144.3260 O   0  0  0  0  0  0  0  0  0  0  0  0
  161.3420  205.4420  147.9660 C   0  0  0  0  0  3  0  0  0  0  0  0
  161.5770  204.1240  148.0170 C   0  0  0  0  0  0  0  0  0  0  0  0
  161.0720  205.2790  145.4560 C   0  0  0  0  0  0  0  0  0  0  0  0
  161.5810  203.3000  146.7830 C   0  0  0  0  0  3  0  0  0  0  0  0
  161.0680  206.0990  146.6790 C   0  0  0  0  0  0  0  0  0  0  0  0
  160.8310  207.3680  146.6330 N   0  0  0  0  0  2  0  0  0  0  0  0
  1 18  1  6  0  0  0
  1  2  1  0  0  0  0
  1  3  1  0  0  0  0
  1  5  1  0  0  0  0
  2  4  1  6  0  0  0
  2  5  1  0  0  0  0
  3  5  1  0  0  0  0
  3 11  1  1  0  0  0
  6 12  1  0  0  0  0
  7 15  1  0  0  0  0
  7  6  1  0  0  0  0
  8 11  1  0  0  0  0
  8  7  1  0  0  0  0
  9  8  2  0  0  0  0
 10  6  1  0  0  0  0
 10 12  1  0  0  0  0
 11 10  1  0  0  0  0
 13 15  2  0  0  0  0
 14 17  1  0  0  0  0
 15 14  1  0  0  0  0
 17 16  1  0  0  0  0
 19 24  2  0  0  0  0
 20 23  2  0  0  0  0
 21 22  2  0  0  0  0
 22 18  1  0  0  0  0
 23 19  1  0  0  0  0
 23 25  1  0  0  0  0
 24 22  1  0  0  0  0
 25 21  1  0  0  0  0
 26 25  2  0  0  0  0
M  END
>  <MODEL>
8

>  <REMARK>
 VINA RESULT:      -6.5      2.577      4.343
  Name = 
  5 active torsions:
  status: ('A' for Active; 'I' for Inactive)
    1  A    between atoms: C_3  and  C_26
    2  A    between atoms: C_4  and  C_6
    3  A    between atoms: C_4  and  C_16
    4  A    between atoms: C_11  and  C_12
    5  A    between atoms: N_13  and  C_25
                            x       y       z     vdW  Elec       q    Type
                         _______ _______ _______ _____ _____    ______ ____

>  <TORSDO>
F 5

$$$$
=
 OpenBabel11042422313D

 26 30  0  0  1  0  0  0  0  0999 V2000
  161.2510  208.4590  151.8280 C   0  0  1  0  0  0  0  0  0  0  0  0
  161.8200  209.0930  150.5590 C   0  0  1  0  0  3  0  0  0  0  0  0
  161.5700  206.9790  151.8890 C   0  0  2  0  0  3  0  0  0  0  0  0
  162.5390  210.3290  150.8240 N   0  0  0  0  0  1  0  0  0  0  0  0
  162.5400  207.9340  151.2160 C   0  0  2  0  0  3  0  0  0  0  0  0
  161.5120  205.6800  148.5530 C   0  0  2  0  0  3  0  0  0  0  0  0
  161.6440  204.4200  149.4140 C   0  0  1  0  0  3  0  0  0  0  0  0
  161.1750  204.7980  150.7740 C   0  0  0  0  0  0  0  0  0  0  0  0
  161.1230  203.9480  151.8010 C   0  0  0  0  0  2  0  0  0  0  0  0
  161.0170  206.8040  149.4670 C   0  0  2  0  0  3  0  0  0  0  0  0
  160.7450  206.2210  150.8540 C   0  0  2  0  0  3  0  0  0  0  0  0
  160.0810  206.1940  148.4420 C   0  0  0  0  0  2  0  0  0  0  0  0
  160.0810  202.5580  149.5380 N   0  0  0  0  0  2  0  0  0  0  0  0
  161.1000  202.8840  147.4490 N   0  0  0  0  0  2  0  0  0  0  0  0
  160.9170  203.2360  148.8220 C   0  0  0  0  0  0  0  0  0  0  0  0
  161.2070  203.9480  145.2610 C   0  0  0  0  0  1  0  0  0  0  0  0
  161.9570  203.6300  146.5400 C   0  0  0  0  0  2  0  0  0  0  0  0
  161.6040  209.1510  153.1390 C   0  0  0  0  0  2  0  0  0  0  0  0
  158.5810  211.4530  153.0760 C   0  0  0  0  0  3  0  0  0  0  0  0
  157.2510  212.2110  154.8860 O   0  0  0  0  0  0  0  0  0  0  0  0
  160.1640  209.9490  154.9450 C   0  0  0  0  0  3  0  0  0  0  0  0
  160.4360  209.9290  153.6330 C   0  0  0  0  0  0  0  0  0  0  0  0
  158.2250  211.5120  154.5020 C   0  0  0  0  0  0  0  0  0  0  0  0
  159.6180  210.7100  152.6720 C   0  0  0  0  0  3  0  0  0  0  0  0
  159.0350  210.7390  155.4590 C   0  0  0  0  0  0  0  0  0  0  0  0
  158.7680  210.7480  156.7230 N   0  0  0  0  0  2  0  0  0  0  0  0
  1  3  1  0  0  0  0
  1 18  1  1  0  0  0
  2  4  1  1  0  0  0
  2  5  1  0  0  0  0
  2  1  1  0  0  0  0
  3 11  1  6  0  0  0
  5  1  1  0  0  0  0
  5  3  1  0  0  0  0
  6  7  1  0  0  0  0
  6 10  1  0  0  0  0
  7  8  1  0  0  0  0
  8 11  1  0  0  0  0
  8  9  2  0  0  0  0
 10 11  1  0  0  0  0
 12  6  1  0  0  0  0
 12 10  1  0  0  0  0
 14 15  1  0  0  0  0
 15  7  1  0  0  0  0
 15 13  2  0  0  0  0
 16 17  1  0  0  0  0
 17 14  1  0  0  0  0
 18 22  1  0  0  0  0
 19 23  1  0  0  0  0
 21 25  1  0  0  0  0
 22 21  2  0  0  0  0
 23 20  2  0  0  0  0
 23 25  1  0  0  0  0
 24 19  2  0  0  0  0
 24 22  1  0  0  0  0
 25 26  2  0  0  0  0
M  END
>  <MODEL>
9

>  <REMARK>
 VINA RESULT:      -6.2      3.078      8.192
  Name = 
  5 active torsions:
  status: ('A' for Active; 'I' for Inactive)
    1  A    between atoms: C_3  and  C_26
    2  A    between atoms: C_4  and  C_6
    3  A    between atoms: C_4  and  C_16
    4  A    between atoms: C_11  and  C_12
    5  A    between atoms: N_13  and  C_25
                            x       y       z     vdW  Elec       q    Type
                         _______ _______ _______ _____ _____    ______ ____

>  <TORSDO>
F 5

$$$$
