=
 OpenBabel11052411153D

 26 29  0  0  0  0  0  0  0  0999 V2000
  160.9550  204.0090  150.2750 C   0  0  0  0  0  3  0  0  0  0  0  0
  160.8900  205.9360  152.5300 O   0  0  0  0  0  0  0  0  0  0  0  0
  160.9570  207.0630  153.2130 C   0  0  0  0  0  0  0  0  0  0  0  0
  161.1460  206.2320  151.2830 C   0  0  0  0  0  0  0  0  0  0  0  0
  161.3830  207.5710  151.1550 C   0  0  0  0  0  0  0  0  0  0  0  0
  161.6810  208.1310  149.9120 C   0  0  0  0  0  0  0  0  0  0  0  0
  161.5530  205.1400  147.7970 C   0  0  0  0  0  3  0  0  0  0  0  0
  161.3090  203.7690  147.9340 C   0  0  0  0  0  0  0  0  0  0  0  0
  161.0190  203.2390  149.1540 N   0  0  0  0  0  0  0  0  0  0  0  0
  161.1930  205.3810  150.1840 C   0  0  0  0  0  0  0  0  0  0  0  0
  161.4960  205.9560  148.9270 C   0  0  0  0  0  0  0  0  0  0  0  0
  161.3620  202.9650  146.8440 F   0  0  0  0  0  0  0  0  0  0  0  0
  161.7300  207.3020  148.8240 N   0  0  0  0  0  0  0  0  0  0  0  0
  161.2680  208.1540  152.4010 C   0  0  0  0  0  3  0  0  0  0  0  0
  160.7320  207.1430  154.6280 C   0  0  0  0  0  0  0  0  0  0  0  0
  160.3110  207.2900  157.2600 C   0  0  0  0  0  1  0  0  0  0  0  0
  160.5410  207.2090  155.8170 C   0  0  0  0  0  0  0  0  0  0  0  0
  161.9210  209.5030  149.7930 O   0  0  0  0  0  0  0  0  0  0  0  0
  161.9290  210.1680  148.5360 C   0  0  0  0  0  2  0  0  0  0  0  0
  162.3150  211.6270  148.7190 C   0  0  0  0  0  2  0  0  0  0  0  0
  160.6920  212.2970  147.0960 C   0  0  0  0  0  2  0  0  0  0  0  0
  161.7080  214.3590  146.3930 O   0  0  0  0  0  0  0  0  0  0  0  0
  162.3970  214.4510  147.6130 C   0  0  0  0  0  2  0  0  0  0  0  0
  161.1550  212.4790  148.4810 N   0  0  0  0  0  0  0  0  0  0  0  0
  161.6240  212.9910  146.0930 C   0  0  0  0  0  2  0  0  0  0  0  0
  161.5290  213.8770  148.7410 C   0  0  0  0  0  2  0  0  0  0  0  0
  2  3  1  0  0  0  0
  3 15  1  0  0  0  0
  4  2  1  0  0  0  0
  5  4  2  0  0  0  0
  5 14  1  0  0  0  0
  6  5  1  0  0  0  0
  7  8  2  0  0  0  0
  7 11  1  0  0  0  0
  8  9  1  0  0  0  0
  9  1  2  0  0  0  0
 10  1  1  0  0  0  0
 10  4  1  0  0  0  0
 11 10  2  0  0  0  0
 12  8  1  0  0  0  0
 13 11  1  0  0  0  0
 13  6  2  0  0  0  0
 14  3  2  0  0  0  0
 15 17  3  0  0  0  0
 17 16  1  0  0  0  0
 18  6  1  0  0  0  0
 19 20  1  0  0  0  0
 19 18  1  0  0  0  0
 21 24  1  0  0  0  0
 22 23  1  0  0  0  0
 23 26  1  0  0  0  0
 24 20  1  0  0  0  0
 24 26  1  0  0  0  0
 25 22  1  0  0  0  0
 25 21  1  0  0  0  0
M  END
>  <MODEL>
1

>  <REMARK>
 VINA RESULT:      -8.5      0.000      0.000
  Name = 
  5 active torsions:
  status: ('A' for Active; 'I' for Inactive)
    1  A    between atoms: C_2  and  C_6
    2  A    between atoms: C_2  and  N_8
    3  A    between atoms: C_6  and  O_17
    4  A    between atoms: C_9  and  C_13
    5  A    between atoms: C_14  and  O_17
                            x       y       z     vdW  Elec       q    Type
                         _______ _______ _______ _____ _____    ______ ____

>  <TORSDO>
F 5

$$$$
=
 OpenBabel11052411153D

 26 29  0  0  0  0  0  0  0  0999 V2000
  161.0800  204.4020  149.0970 C   0  0  0  0  0  3  0  0  0  0  0  0
  161.5800  207.2980  149.5030 O   0  0  0  0  0  0  0  0  0  0  0  0
  161.7950  208.4590  150.0940 C   0  0  0  0  0  0  0  0  0  0  0  0
  161.4590  206.4070  150.4510 C   0  0  0  0  0  0  0  0  0  0  0  0
  161.5960  206.9970  151.6750 C   0  0  0  0  0  0  0  0  0  0  0  0
  161.5060  206.2470  152.8480 C   0  0  0  0  0  0  0  0  0  0  0  0
  160.9010  202.9140  151.4480 C   0  0  0  0  0  3  0  0  0  0  0  0
  160.7610  202.3130  150.1920 C   0  0  0  0  0  0  0  0  0  0  0  0
  160.8520  203.0610  149.0570 N   0  0  0  0  0  0  0  0  0  0  0  0
  161.2250  205.0410  150.3290 C   0  0  0  0  0  0  0  0  0  0  0  0
  161.1340  204.2870  151.5230 C   0  0  0  0  0  0  0  0  0  0  0  0
  160.5330  200.9800  150.1060 F   0  0  0  0  0  0  0  0  0  0  0  0
  161.2750  204.9020  152.7390 N   0  0  0  0  0  0  0  0  0  0  0  0
  161.8180  208.3460  151.4840 C   0  0  0  0  0  3  0  0  0  0  0  0
  161.9810  209.6870  149.3750 C   0  0  0  0  0  0  0  0  0  0  0  0
  162.3280  211.9720  148.0400 C   0  0  0  0  0  1  0  0  0  0  0  0
  162.1380  210.7200  148.7720 C   0  0  0  0  0  0  0  0  0  0  0  0
  161.6490  206.8620  154.0950 O   0  0  0  0  0  0  0  0  0  0  0  0
  160.5340  207.2320  154.8950 C   0  0  0  0  0  2  0  0  0  0  0  0
  160.8640  208.4700  155.7120 C   0  0  0  0  0  2  0  0  0  0  0  0
  162.2000  210.4480  155.5900 C   0  0  0  0  0  2  0  0  0  0  0  0
  160.4500  212.0850  155.7860 O   0  0  0  0  0  0  0  0  0  0  0  0
  159.5110  211.1560  155.3120 C   0  0  0  0  0  2  0  0  0  0  0  0
  161.3320  209.5330  154.8310 N   0  0  0  0  0  0  0  0  0  0  0  0
  161.3870  211.3500  156.5290 C   0  0  0  0  0  2  0  0  0  0  0  0
  160.1690  210.2380  154.2730 C   0  0  0  0  0  2  0  0  0  0  0  0
  1 10  1  0  0  0  0
  2  3  1  0  0  0  0
  2  4  1  0  0  0  0
  3 14  2  0  0  0  0
  4  5  2  0  0  0  0
  5  6  1  0  0  0  0
  6 18  1  0  0  0  0
  7 11  1  0  0  0  0
  8  7  2  0  0  0  0
  9  1  2  0  0  0  0
  9  8  1  0  0  0  0
 10  4  1  0  0  0  0
 10 11  2  0  0  0  0
 11 13  1  0  0  0  0
 12  8  1  0  0  0  0
 13  6  2  0  0  0  0
 14  5  1  0  0  0  0
 15  3  1  0  0  0  0
 16 17  1  0  0  0  0
 17 15  3  0  0  0  0
 18 19  1  0  0  0  0
 19 20  1  0  0  0  0
 21 25  1  0  0  0  0
 22 25  1  0  0  0  0
 23 22  1  0  0  0  0
 24 21  1  0  0  0  0
 24 20  1  0  0  0  0
 26 24  1  0  0  0  0
 26 23  1  0  0  0  0
M  END
>  <MODEL>
2

>  <REMARK>
 VINA RESULT:      -8.4      2.771      5.946
  Name = 
  5 active torsions:
  status: ('A' for Active; 'I' for Inactive)
    1  A    between atoms: C_2  and  C_6
    2  A    between atoms: C_2  and  N_8
    3  A    between atoms: C_6  and  O_17
    4  A    between atoms: C_9  and  C_13
    5  A    between atoms: C_14  and  O_17
                            x       y       z     vdW  Elec       q    Type
                         _______ _______ _______ _____ _____    ______ ____

>  <TORSDO>
F 5

$$$$
=
 OpenBabel11052411153D

 26 29  0  0  0  0  0  0  0  0999 V2000
  160.8960  209.4080  153.9700 C   0  0  0  0  0  3  0  0  0  0  0  0
  161.6330  210.1410  151.1910 O   0  0  0  0  0  0  0  0  0  0  0  0
  161.9610  210.0400  149.9170 C   0  0  0  0  0  0  0  0  0  0  0  0
  161.4900  208.9240  151.6450 C   0  0  0  0  0  0  0  0  0  0  0  0
  161.7310  208.0190  150.6510 C   0  0  0  0  0  0  0  0  0  0  0  0
  161.6400  206.6480  150.8920 C   0  0  0  0  0  0  0  0  0  0  0  0
  160.7190  206.6650  154.4390 C   0  0  0  0  0  3  0  0  0  0  0  0
  160.4740  207.5960  155.4550 C   0  0  0  0  0  0  0  0  0  0  0  0
  160.5660  208.9310  155.2020 N   0  0  0  0  0  0  0  0  0  0  0  0
  161.1490  208.5140  152.9300 C   0  0  0  0  0  0  0  0  0  0  0  0
  161.0600  207.1210  153.1660 C   0  0  0  0  0  0  0  0  0  0  0  0
  160.1430  207.1660  156.6960 F   0  0  0  0  0  0  0  0  0  0  0  0
  161.3050  206.2330  152.1530 N   0  0  0  0  0  0  0  0  0  0  0  0
  162.0440  208.7120  149.4990 C   0  0  0  0  0  3  0  0  0  0  0  0
  162.2030  211.1750  149.0720 C   0  0  0  0  0  0  0  0  0  0  0  0
  162.6510  213.2830  147.4990 C   0  0  0  0  0  1  0  0  0  0  0  0
  162.4050  212.1270  148.3610 C   0  0  0  0  0  0  0  0  0  0  0  0
  161.8870  205.7310  149.8660 O   0  0  0  0  0  0  0  0  0  0  0  0
  160.8570  204.9380  149.2890 C   0  0  0  0  0  2  0  0  0  0  0  0
  161.2670  204.4800  147.8990 C   0  0  0  0  0  2  0  0  0  0  0  0
  161.0320  206.5460  146.7200 C   0  0  0  0  0  2  0  0  0  0  0  0
  161.1930  205.7060  144.4730 O   0  0  0  0  0  0  0  0  0  0  0  0
  161.8920  204.5780  144.9320 C   0  0  0  0  0  2  0  0  0  0  0  0
  161.9900  205.5480  147.2190 N   0  0  0  0  0  0  0  0  0  0  0  0
  160.2770  206.0370  145.4840 C   0  0  0  0  0  2  0  0  0  0  0  0
  162.7790  204.9680  146.1220 C   0  0  0  0  0  2  0  0  0  0  0  0
  1  9  1  0  0  0  0
  2  4  1  0  0  0  0
  3  2  1  0  0  0  0
  4 10  1  0  0  0  0
  5  6  1  0  0  0  0
  5  4  2  0  0  0  0
  6 13  2  0  0  0  0
  7  8  1  0  0  0  0
  8 12  1  0  0  0  0
  9  8  2  0  0  0  0
 10 11  1  0  0  0  0
 10  1  2  0  0  0  0
 11  7  2  0  0  0  0
 13 11  1  0  0  0  0
 14  3  2  0  0  0  0
 14  5  1  0  0  0  0
 15  3  1  0  0  0  0
 16 17  1  0  0  0  0
 17 15  3  0  0  0  0
 18  6  1  0  0  0  0
 19 18  1  0  0  0  0
 20 19  1  0  0  0  0
 21 24  1  0  0  0  0
 22 23  1  0  0  0  0
 22 25  1  0  0  0  0
 23 26  1  0  0  0  0
 24 20  1  0  0  0  0
 25 21  1  0  0  0  0
 26 24  1  0  0  0  0
M  END
>  <MODEL>
3

>  <REMARK>
 VINA RESULT:      -8.3      3.228      6.875
  Name = 
  5 active torsions:
  status: ('A' for Active; 'I' for Inactive)
    1  A    between atoms: C_2  and  C_6
    2  A    between atoms: C_2  and  N_8
    3  A    between atoms: C_6  and  O_17
    4  A    between atoms: C_9  and  C_13
    5  A    between atoms: C_14  and  O_17
                            x       y       z     vdW  Elec       q    Type
                         _______ _______ _______ _____ _____    ______ ____

>  <TORSDO>
F 5

$$$$
=
 OpenBabel11052411153D

 26 29  0  0  0  0  0  0  0  0999 V2000
  161.6360  204.7590  146.5980 C   0  0  0  0  0  3  0  0  0  0  0  0
  161.7660  207.3710  148.0000 O   0  0  0  0  0  0  0  0  0  0  0  0
  161.7120  208.2820  148.9530 C   0  0  0  0  0  0  0  0  0  0  0  0
  161.4580  206.2260  148.5510 C   0  0  0  0  0  0  0  0  0  0  0  0
  161.2000  206.3970  149.8800 C   0  0  0  0  0  0  0  0  0  0  0  0
  160.8470  205.3150  150.6870 C   0  0  0  0  0  0  0  0  0  0  0  0
  160.9290  202.6040  148.2210 C   0  0  0  0  0  3  0  0  0  0  0  0
  161.1950  202.4340  146.8580 C   0  0  0  0  0  0  0  0  0  0  0  0
  161.5380  203.5020  146.0850 N   0  0  0  0  0  0  0  0  0  0  0  0
  161.3790  204.9720  147.9530 C   0  0  0  0  0  0  0  0  0  0  0  0
  161.0200  203.8800  148.7780 C   0  0  0  0  0  0  0  0  0  0  0  0
  161.1100  201.2000  146.3050 F   0  0  0  0  0  0  0  0  0  0  0  0
  160.7660  204.0760  150.1100 N   0  0  0  0  0  0  0  0  0  0  0  0
  161.3560  207.7340  150.1850 C   0  0  0  0  0  3  0  0  0  0  0  0
  161.9910  209.6720  148.7330 C   0  0  0  0  0  0  0  0  0  0  0  0
  162.5110  212.2580  148.3230 C   0  0  0  0  0  1  0  0  0  0  0  0
  162.2270  210.8400  148.5480 C   0  0  0  0  0  0  0  0  0  0  0  0
  160.5860  205.5000  152.0480 O   0  0  0  0  0  0  0  0  0  0  0  0
  161.5980  205.3850  153.0400 C   0  0  0  0  0  2  0  0  0  0  0  0
  161.8810  206.7440  153.6590 C   0  0  0  0  0  2  0  0  0  0  0  0
  160.6940  208.8180  153.7010 C   0  0  0  0  0  2  0  0  0  0  0  0
  161.0980  209.4250  155.9920 O   0  0  0  0  0  0  0  0  0  0  0  0
  161.3130  208.0780  156.3240 C   0  0  0  0  0  2  0  0  0  0  0  0
  160.6280  207.3870  154.0360 N   0  0  0  0  0  0  0  0  0  0  0  0
  161.5850  209.5890  154.6850 C   0  0  0  0  0  2  0  0  0  0  0  0
  160.4010  207.1830  155.4740 C   0  0  0  0  0  2  0  0  0  0  0  0
  1 10  1  0  0  0  0
  2  4  1  0  0  0  0
  2  3  1  0  0  0  0
  3 14  2  0  0  0  0
  4  5  2  0  0  0  0
  5 14  1  0  0  0  0
  5  6  1  0  0  0  0
  6 18  1  0  0  0  0
  7 11  1  0  0  0  0
  8  7  2  0  0  0  0
  9  1  2  0  0  0  0
  9  8  1  0  0  0  0
 10  4  1  0  0  0  0
 10 11  2  0  0  0  0
 11 13  1  0  0  0  0
 12  8  1  0  0  0  0
 13  6  2  0  0  0  0
 15  3  1  0  0  0  0
 16 17  1  0  0  0  0
 17 15  3  0  0  0  0
 18 19  1  0  0  0  0
 19 20  1  0  0  0  0
 20 24  1  0  0  0  0
 21 24  1  0  0  0  0
 21 25  1  0  0  0  0
 22 23  1  0  0  0  0
 24 26  1  0  0  0  0
 25 22  1  0  0  0  0
 26 23  1  0  0  0  0
M  END
>  <MODEL>
4

>  <REMARK>
 VINA RESULT:      -8.2      2.550      6.167
  Name = 
  5 active torsions:
  status: ('A' for Active; 'I' for Inactive)
    1  A    between atoms: C_2  and  C_6
    2  A    between atoms: C_2  and  N_8
    3  A    between atoms: C_6  and  O_17
    4  A    between atoms: C_9  and  C_13
    5  A    between atoms: C_14  and  O_17
                            x       y       z     vdW  Elec       q    Type
                         _______ _______ _______ _____ _____    ______ ____

>  <TORSDO>
F 5

$$$$
=
 OpenBabel11052411153D

 26 29  0  0  0  0  0  0  0  0999 V2000
  161.1590  202.3580  151.4470 C   0  0  0  0  0  3  0  0  0  0  0  0
  161.1420  205.0230  152.7510 O   0  0  0  0  0  0  0  0  0  0  0  0
  161.1110  206.3320  152.9200 C   0  0  0  0  0  0  0  0  0  0  0  0
  161.0880  204.8060  151.4640 C   0  0  0  0  0  0  0  0  0  0  0  0
  161.0230  205.9900  150.7870 C   0  0  0  0  0  0  0  0  0  0  0  0
  160.9570  206.0180  149.3940 C   0  0  0  0  0  0  0  0  0  0  0  0
  161.0280  202.4280  148.6630 C   0  0  0  0  0  3  0  0  0  0  0  0
  161.0960  201.2160  149.3600 C   0  0  0  0  0  0  0  0  0  0  0  0
  161.1590  201.2070  150.7200 N   0  0  0  0  0  0  0  0  0  0  0  0
  161.0930  203.5880  150.7910 C   0  0  0  0  0  0  0  0  0  0  0  0
  161.0270  203.6240  149.3780 C   0  0  0  0  0  0  0  0  0  0  0  0
  161.0980  200.0460  148.6770 F   0  0  0  0  0  0  0  0  0  0  0  0
  160.9620  204.8250  148.7220 N   0  0  0  0  0  0  0  0  0  0  0  0
  161.0360  207.0180  151.7090 C   0  0  0  0  0  3  0  0  0  0  0  0
  161.1520  206.9620  154.2100 C   0  0  0  0  0  0  0  0  0  0  0  0
  161.2270  208.1340  156.6060 C   0  0  0  0  0  1  0  0  0  0  0  0
  161.1860  207.4920  155.2920 C   0  0  0  0  0  0  0  0  0  0  0  0
  160.8890  207.2370  148.7120 O   0  0  0  0  0  0  0  0  0  0  0  0
  161.2410  207.3630  147.3400 C   0  0  0  0  0  2  0  0  0  0  0  0
  160.4550  206.3660  146.5040 C   0  0  0  0  0  2  0  0  0  0  0  0
  160.5480  204.9620  144.5710 C   0  0  0  0  0  2  0  0  0  0  0  0
  162.3690  203.5420  145.2380 O   0  0  0  0  0  0  0  0  0  0  0  0
  162.8430  204.5360  146.1090 C   0  0  0  0  0  2  0  0  0  0  0  0
  161.1430  206.1300  145.2410 N   0  0  0  0  0  0  0  0  0  0  0  0
  160.9690  203.6490  145.2450 C   0  0  0  0  0  2  0  0  0  0  0  0
  162.5740  205.9220  145.5070 C   0  0  0  0  0  2  0  0  0  0  0  0
  2  3  1  0  0  0  0
  3 15  1  0  0  0  0
  4  2  1  0  0  0  0
  5  4  2  0  0  0  0
  5 14  1  0  0  0  0
  6  5  1  0  0  0  0
  7  8  2  0  0  0  0
  7 11  1  0  0  0  0
  8  9  1  0  0  0  0
  9  1  2  0  0  0  0
 10  1  1  0  0  0  0
 10  4  1  0  0  0  0
 11 10  2  0  0  0  0
 12  8  1  0  0  0  0
 13 11  1  0  0  0  0
 13  6  2  0  0  0  0
 14  3  2  0  0  0  0
 15 17  3  0  0  0  0
 17 16  1  0  0  0  0
 18  6  1  0  0  0  0
 19 18  1  0  0  0  0
 20 19  1  0  0  0  0
 21 24  1  0  0  0  0
 21 25  1  0  0  0  0
 22 25  1  0  0  0  0
 22 23  1  0  0  0  0
 24 26  1  0  0  0  0
 24 20  1  0  0  0  0
 26 23  1  0  0  0  0
M  END
>  <MODEL>
5

>  <REMARK>
 VINA RESULT:      -8.2      3.625      4.881
  Name = 
  5 active torsions:
  status: ('A' for Active; 'I' for Inactive)
    1  A    between atoms: C_2  and  C_6
    2  A    between atoms: C_2  and  N_8
    3  A    between atoms: C_6  and  O_17
    4  A    between atoms: C_9  and  C_13
    5  A    between atoms: C_14  and  O_17
                            x       y       z     vdW  Elec       q    Type
                         _______ _______ _______ _____ _____    ______ ____

>  <TORSDO>
F 5

$$$$
=
 OpenBabel11052411153D

 26 29  0  0  0  0  0  0  0  0999 V2000
  160.8770  206.6780  153.6190 C   0  0  0  0  0  3  0  0  0  0  0  0
  161.0260  205.3470  150.9710 O   0  0  0  0  0  0  0  0  0  0  0  0
  161.1750  205.1590  149.6730 C   0  0  0  0  0  0  0  0  0  0  0  0
  161.2020  206.6230  151.1920 C   0  0  0  0  0  0  0  0  0  0  0  0
  161.4680  207.2730  150.0210 C   0  0  0  0  0  0  0  0  0  0  0  0
  161.6940  208.6500  150.0000 C   0  0  0  0  0  0  0  0  0  0  0  0
  161.3290  209.4290  153.5620 C   0  0  0  0  0  3  0  0  0  0  0  0
  161.0560  208.7590  154.7600 C   0  0  0  0  0  0  0  0  0  0  0  0
  160.8380  207.4140  154.7630 N   0  0  0  0  0  0  0  0  0  0  0  0
  161.1460  207.3070  152.4030 C   0  0  0  0  0  0  0  0  0  0  0  0
  161.3750  208.7040  152.3730 C   0  0  0  0  0  0  0  0  0  0  0  0
  161.0070  209.4530  155.9230 F   0  0  0  0  0  0  0  0  0  0  0  0
  161.6400  209.3330  151.1850 N   0  0  0  0  0  0  0  0  0  0  0  0
  161.4600  206.3460  148.9980 C   0  0  0  0  0  3  0  0  0  0  0  0
  161.0560  203.8750  149.0430 C   0  0  0  0  0  0  0  0  0  0  0  0
  160.8320  201.4870  147.8730 C   0  0  0  0  0  1  0  0  0  0  0  0
  160.9540  202.7960  148.5150 C   0  0  0  0  0  0  0  0  0  0  0  0
  161.9670  209.3040  148.7950 O   0  0  0  0  0  0  0  0  0  0  0  0
  162.3020  210.6850  148.7370 C   0  0  0  0  0  2  0  0  0  0  0  0
  161.2780  211.4370  147.9030 C   0  0  0  0  0  2  0  0  0  0  0  0
  160.2860  213.5800  147.5270 C   0  0  0  0  0  2  0  0  0  0  0  0
  161.5050  214.2050  145.5520 O   0  0  0  0  0  0  0  0  0  0  0  0
  162.5470  213.3320  145.9030 C   0  0  0  0  0  2  0  0  0  0  0  0
  161.4500  212.8730  148.0860 N   0  0  0  0  0  0  0  0  0  0  0  0
  160.3190  213.5970  145.9930 C   0  0  0  0  0  2  0  0  0  0  0  0
  162.6970  213.2920  147.4300 C   0  0  0  0  0  2  0  0  0  0  0  0
  1  9  1  0  0  0  0
  2  4  1  0  0  0  0
  3  2  1  0  0  0  0
  4 10  1  0  0  0  0
  5  4  2  0  0  0  0
  6  5  1  0  0  0  0
  6 13  2  0  0  0  0
  7  8  1  0  0  0  0
  8  9  2  0  0  0  0
  8 12  1  0  0  0  0
 10  1  2  0  0  0  0
 11 10  1  0  0  0  0
 11  7  2  0  0  0  0
 13 11  1  0  0  0  0
 14  3  2  0  0  0  0
 14  5  1  0  0  0  0
 15  3  1  0  0  0  0
 16 17  1  0  0  0  0
 17 15  3  0  0  0  0
 18  6  1  0  0  0  0
 19 18  1  0  0  0  0
 20 24  1  0  0  0  0
 20 19  1  0  0  0  0
 21 24  1  0  0  0  0
 22 23  1  0  0  0  0
 22 25  1  0  0  0  0
 23 26  1  0  0  0  0
 25 21  1  0  0  0  0
 26 24  1  0  0  0  0
M  END
>  <MODEL>
6

>  <REMARK>
 VINA RESULT:      -7.9      2.855      4.968
  Name = 
  5 active torsions:
  status: ('A' for Active; 'I' for Inactive)
    1  A    between atoms: C_2  and  C_6
    2  A    between atoms: C_2  and  N_8
    3  A    between atoms: C_6  and  O_17
    4  A    between atoms: C_9  and  C_13
    5  A    between atoms: C_14  and  O_17
                            x       y       z     vdW  Elec       q    Type
                         _______ _______ _______ _____ _____    ______ ____

>  <TORSDO>
F 5

$$$$
=
 OpenBabel11052411153D

 26 29  0  0  0  0  0  0  0  0999 V2000
  161.4150  205.8290  147.9400 C   0  0  0  0  0  3  0  0  0  0  0  0
  161.8510  208.6760  148.6530 O   0  0  0  0  0  0  0  0  0  0  0  0
  161.9970  209.7780  149.3640 C   0  0  0  0  0  0  0  0  0  0  0  0
  161.6420  207.7030  149.5000 C   0  0  0  0  0  0  0  0  0  0  0  0
  161.6520  208.1800  150.7790 C   0  0  0  0  0  0  0  0  0  0  0  0
  161.4500  207.3280  151.8650 C   0  0  0  0  0  0  0  0  0  0  0  0
  161.0110  204.1350  150.1180 C   0  0  0  0  0  3  0  0  0  0  0  0
  161.0020  203.6500  148.8060 C   0  0  0  0  0  0  0  0  0  0  0  0
  161.2020  204.4970  147.7570 N   0  0  0  0  0  0  0  0  0  0  0  0
  161.4310  206.3540  149.2330 C   0  0  0  0  0  0  0  0  0  0  0  0
  161.2260  205.4950  150.3390 C   0  0  0  0  0  0  0  0  0  0  0  0
  160.7940  202.3310  148.5770 F   0  0  0  0  0  0  0  0  0  0  0  0
  161.2400  205.9980  151.6140 N   0  0  0  0  0  0  0  0  0  0  0  0
  161.8820  209.5400  150.7330 C   0  0  0  0  0  3  0  0  0  0  0  0
  162.2460  211.0660  148.7810 C   0  0  0  0  0  0  0  0  0  0  0  0
  162.7070  213.4610  147.6970 C   0  0  0  0  0  1  0  0  0  0  0  0
  162.4540  212.1480  148.2920 C   0  0  0  0  0  0  0  0  0  0  0  0
  161.4630  207.8270  153.1700 O   0  0  0  0  0  0  0  0  0  0  0  0
  160.8070  207.1680  154.2450 C   0  0  0  0  0  2  0  0  0  0  0  0
  160.6200  208.1250  155.4110 C   0  0  0  0  0  2  0  0  0  0  0  0
  162.0080  210.0130  155.8840 C   0  0  0  0  0  2  0  0  0  0  0  0
  160.4190  211.3370  157.1080 O   0  0  0  0  0  0  0  0  0  0  0  0
  159.3570  210.6680  156.4800 C   0  0  0  0  0  2  0  0  0  0  0  0
  160.9610  209.4810  154.9970 N   0  0  0  0  0  0  0  0  0  0  0  0
  161.4440  210.3910  157.2610 C   0  0  0  0  0  2  0  0  0  0  0  0
  159.7500  210.3120  155.0390 C   0  0  0  0  0  2  0  0  0  0  0  0
  1 10  1  0  0  0  0
  2  3  1  0  0  0  0
  2  4  1  0  0  0  0
  3 14  2  0  0  0  0
  4  5  2  0  0  0  0
  5  6  1  0  0  0  0
  6 18  1  0  0  0  0
  7 11  1  0  0  0  0
  8  7  2  0  0  0  0
  9  1  2  0  0  0  0
  9  8  1  0  0  0  0
 10  4  1  0  0  0  0
 10 11  2  0  0  0  0
 11 13  1  0  0  0  0
 12  8  1  0  0  0  0
 13  6  2  0  0  0  0
 14  5  1  0  0  0  0
 15  3  1  0  0  0  0
 16 17  1  0  0  0  0
 17 15  3  0  0  0  0
 18 19  1  0  0  0  0
 19 20  1  0  0  0  0
 21 25  1  0  0  0  0
 22 25  1  0  0  0  0
 23 22  1  0  0  0  0
 24 26  1  0  0  0  0
 24 20  1  0  0  0  0
 24 21  1  0  0  0  0
 26 23  1  0  0  0  0
M  END
>  <MODEL>
7

>  <REMARK>
 VINA RESULT:      -7.8      2.569      6.324
  Name = 
  5 active torsions:
  status: ('A' for Active; 'I' for Inactive)
    1  A    between atoms: C_2  and  C_6
    2  A    between atoms: C_2  and  N_8
    3  A    between atoms: C_6  and  O_17
    4  A    between atoms: C_9  and  C_13
    5  A    between atoms: C_14  and  O_17
                            x       y       z     vdW  Elec       q    Type
                         _______ _______ _______ _____ _____    ______ ____

>  <TORSDO>
F 5

$$$$
=
 OpenBabel11052411153D

 26 29  0  0  0  0  0  0  0  0999 V2000
  161.1130  206.9280  154.1130 C   0  0  0  0  0  3  0  0  0  0  0  0
  161.0360  204.8950  151.9530 O   0  0  0  0  0  0  0  0  0  0  0  0
  161.0470  204.3450  150.7540 C   0  0  0  0  0  0  0  0  0  0  0  0
  161.1640  206.1840  151.7800 C   0  0  0  0  0  0  0  0  0  0  0  0
  161.2600  206.4750  150.4500 C   0  0  0  0  0  0  0  0  0  0  0  0
  161.4050  207.7910  150.0110 C   0  0  0  0  0  0  0  0  0  0  0  0
  161.4010  209.5560  153.2240 C   0  0  0  0  0  3  0  0  0  0  0  0
  161.3030  209.2530  154.5870 C   0  0  0  0  0  0  0  0  0  0  0  0
  161.1620  207.9620  154.9970 N   0  0  0  0  0  0  0  0  0  0  0  0
  161.2070  207.1860  152.7450 C   0  0  0  0  0  0  0  0  0  0  0  0
  161.3530  208.5190  152.2920 C   0  0  0  0  0  0  0  0  0  0  0  0
  161.3480  210.2510  155.5020 F   0  0  0  0  0  0  0  0  0  0  0  0
  161.4480  208.7860  150.9520 N   0  0  0  0  0  0  0  0  0  0  0  0
  161.1880  205.2930  149.7400 C   0  0  0  0  0  3  0  0  0  0  0  0
  160.9290  202.9310  150.5330 C   0  0  0  0  0  0  0  0  0  0  0  0
  160.7110  200.3030  150.1240 C   0  0  0  0  0  1  0  0  0  0  0  0
  160.8310  201.7440  150.3490 C   0  0  0  0  0  0  0  0  0  0  0  0
  161.5040  208.0770  148.6470 O   0  0  0  0  0  0  0  0  0  0  0  0
  162.3260  207.3210  147.7670 C   0  0  0  0  0  2  0  0  0  0  0  0
  161.4680  206.5920  146.7460 C   0  0  0  0  0  2  0  0  0  0  0  0
  161.5830  205.5530  144.5960 C   0  0  0  0  0  2  0  0  0  0  0  0
  161.1340  203.2870  145.2610 O   0  0  0  0  0  0  0  0  0  0  0  0
  161.5810  203.5660  146.5620 C   0  0  0  0  0  2  0  0  0  0  0  0
  162.3190  205.8290  145.8400 N   0  0  0  0  0  0  0  0  0  0  0  0
  160.5220  204.4620  144.7960 C   0  0  0  0  0  2  0  0  0  0  0  0
  162.7290  204.5840  146.5070 C   0  0  0  0  0  2  0  0  0  0  0  0
  1  9  1  0  0  0  0
  3  2  1  0  0  0  0
  4  2  1  0  0  0  0
  4 10  1  0  0  0  0
  5  4  2  0  0  0  0
  6  5  1  0  0  0  0
  6 13  2  0  0  0  0
  7  8  1  0  0  0  0
  8  9  2  0  0  0  0
  8 12  1  0  0  0  0
 10  1  2  0  0  0  0
 11 10  1  0  0  0  0
 11  7  2  0  0  0  0
 13 11  1  0  0  0  0
 14  5  1  0  0  0  0
 14  3  2  0  0  0  0
 15  3  1  0  0  0  0
 16 17  1  0  0  0  0
 17 15  3  0  0  0  0
 18  6  1  0  0  0  0
 19 18  1  0  0  0  0
 20 19  1  0  0  0  0
 21 25  1  0  0  0  0
 21 24  1  0  0  0  0
 22 23  1  0  0  0  0
 24 26  1  0  0  0  0
 24 20  1  0  0  0  0
 25 22  1  0  0  0  0
 26 23  1  0  0  0  0
M  END
>  <MODEL>
8

>  <REMARK>
 VINA RESULT:      -7.8      4.045      6.658
  Name = 
  5 active torsions:
  status: ('A' for Active; 'I' for Inactive)
    1  A    between atoms: C_2  and  C_6
    2  A    between atoms: C_2  and  N_8
    3  A    between atoms: C_6  and  O_17
    4  A    between atoms: C_9  and  C_13
    5  A    between atoms: C_14  and  O_17
                            x       y       z     vdW  Elec       q    Type
                         _______ _______ _______ _____ _____    ______ ____

>  <TORSDO>
F 5

$$$$
=
 OpenBabel11052411153D

 26 29  0  0  0  0  0  0  0  0999 V2000
  161.1400  209.2120  153.1780 C   0  0  0  0  0  3  0  0  0  0  0  0
  161.8080  210.3830  150.5350 O   0  0  0  0  0  0  0  0  0  0  0  0
  162.1140  210.4870  149.2550 C   0  0  0  0  0  0  0  0  0  0  0  0
  161.7020  209.1070  150.7970 C   0  0  0  0  0  0  0  0  0  0  0  0
  161.9460  208.3720  149.6720 C   0  0  0  0  0  0  0  0  0  0  0  0
  161.8920  206.9780  149.7000 C   0  0  0  0  0  0  0  0  0  0  0  0
  161.0380  206.4260  153.2220 C   0  0  0  0  0  3  0  0  0  0  0  0
  160.7900  207.1830  154.3720 C   0  0  0  0  0  0  0  0  0  0  0  0
  160.8460  208.5440  154.3270 N   0  0  0  0  0  0  0  0  0  0  0  0
  161.3950  208.4960  152.0080 C   0  0  0  0  0  0  0  0  0  0  0  0
  161.3430  207.0810  152.0290 C   0  0  0  0  0  0  0  0  0  0  0  0
  160.4920  206.5590  155.5370 F   0  0  0  0  0  0  0  0  0  0  0  0
  161.5910  206.3660  150.8870 N   0  0  0  0  0  0  0  0  0  0  0  0
  162.2200  209.2420  148.6360 C   0  0  0  0  0  3  0  0  0  0  0  0
  162.3130  211.7440  148.5910 C   0  0  0  0  0  0  0  0  0  0  0  0
  162.6800  214.0820  147.3570 C   0  0  0  0  0  1  0  0  0  0  0  0
  162.4780  212.8000  148.0340 C   0  0  0  0  0  0  0  0  0  0  0  0
  162.1410  206.2360  148.5420 O   0  0  0  0  0  0  0  0  0  0  0  0
  161.1640  205.3840  147.9590 C   0  0  0  0  0  2  0  0  0  0  0  0
  161.5660  203.9290  148.1360 C   0  0  0  0  0  2  0  0  0  0  0  0
  160.2840  203.1480  149.9970 C   0  0  0  0  0  2  0  0  0  0  0  0
  161.2050  200.9340  150.1710 O   0  0  0  0  0  0  0  0  0  0  0  0
  161.5900  200.9740  148.8220 C   0  0  0  0  0  2  0  0  0  0  0  0
  160.4050  203.1400  148.5310 N   0  0  0  0  0  0  0  0  0  0  0  0
  161.3370  202.2450  150.6560 C   0  0  0  0  0  2  0  0  0  0  0  0
  160.5590  201.7720  148.0130 C   0  0  0  0  0  2  0  0  0  0  0  0
  1  9  1  0  0  0  0
  2  4  1  0  0  0  0
  3  2  1  0  0  0  0
  4 10  1  0  0  0  0
  5  6  1  0  0  0  0
  5  4  2  0  0  0  0
  6 13  2  0  0  0  0
  7  8  1  0  0  0  0
  8 12  1  0  0  0  0
  9  8  2  0  0  0  0
 10 11  1  0  0  0  0
 10  1  2  0  0  0  0
 11  7  2  0  0  0  0
 13 11  1  0  0  0  0
 14  3  2  0  0  0  0
 14  5  1  0  0  0  0
 15  3  1  0  0  0  0
 16 17  1  0  0  0  0
 17 15  3  0  0  0  0
 18  6  1  0  0  0  0
 19 20  1  0  0  0  0
 19 18  1  0  0  0  0
 20 24  1  0  0  0  0
 21 25  1  0  0  0  0
 22 25  1  0  0  0  0
 23 22  1  0  0  0  0
 24 21  1  0  0  0  0
 26 24  1  0  0  0  0
 26 23  1  0  0  0  0
M  END
>  <MODEL>
9

>  <REMARK>
 VINA RESULT:      -7.6      2.925      7.897
  Name = 
  5 active torsions:
  status: ('A' for Active; 'I' for Inactive)
    1  A    between atoms: C_2  and  C_6
    2  A    between atoms: C_2  and  N_8
    3  A    between atoms: C_6  and  O_17
    4  A    between atoms: C_9  and  C_13
    5  A    between atoms: C_14  and  O_17
                            x       y       z     vdW  Elec       q    Type
                         _______ _______ _______ _____ _____    ______ ____

>  <TORSDO>
F 5

$$$$
