=
 OpenBabel11052409493D

 26 30  0  0  1  0  0  0  0  0999 V2000
  161.2010  205.6050  152.1920 C   0  0  0  0  0  3  0  0  0  0  0  0
  162.0870  211.2510  150.6310 C   0  0  0  0  0  2  0  0  0  0  0  0
  160.7000  209.3650  151.6950 C   0  0  1  0  0  3  0  0  0  0  0  0
  160.5580  210.3310  152.8850 C   0  0  2  0  0  3  0  0  0  0  0  0
  161.8540  209.7310  150.7440 C   0  0  1  0  0  3  0  0  0  0  0  0
  160.9370  208.0080  152.2720 C   0  0  0  0  0  0  0  0  0  0  0  0
  160.5900  205.5150  149.3650 C   0  0  0  0  0  2  0  0  0  0  0  0
  160.9460  206.8170  151.5240 C   0  0  0  0  0  0  0  0  0  0  0  0
  161.8660  207.5950  149.3350 C   0  0  1  0  0  3  0  0  0  0  0  0
  161.4020  205.5800  148.0850 C   0  0  0  0  0  2  0  0  0  0  0  0
  161.4370  206.7880  154.2970 C   0  0  0  0  0  3  0  0  0  0  0  0
  161.2220  209.5720  154.4190 S   0  0  0  0  0  0  0  0  0  0  0  0
  162.1870  211.3480  148.3350 C   0  0  1  0  0  3  0  0  0  0  0  0
  161.4370  205.5900  153.5730 C   0  0  0  0  0  3  0  0  0  0  0  0
  163.4070  212.1220  148.1710 N   0  0  0  0  0  1  0  0  0  0  0  0
  160.7260  206.8760  150.0350 C   0  0  1  0  0  3  0  0  0  0  0  0
  161.8570  207.0170  147.9330 C   0  0  0  0  0  2  0  0  0  0  0  0
  162.5000  209.8420  148.3190 C   0  0  0  0  0  2  0  0  0  0  0  0
  161.6290  209.1130  149.3440 C   0  0  2  0  0  3  0  0  0  0  0  0
  161.4680  211.7760  149.4800 O   0  0  0  0  0  0  0  0  0  0  0  0
  161.1930  207.9870  153.6280 C   0  0  0  0  0  0  0  0  0  0  0  0
  158.7970  211.4580  153.9900 N   0  0  0  0  0  0  0  0  0  0  0  0
  159.1550  210.6640  153.0650 N   0  0  0  0  0  0  0  0  0  0  0  0
  156.6500  211.0110  154.7960 O   0  0  0  0  0  0  0  0  0  0  0  0
  157.4230  211.7930  154.1820 C   0  0  0  0  0  0  0  0  0  0  0  0
  156.9210  213.0240  153.6750 N   0  0  0  0  0  1  0  0  0  0  0  0
  1 14  1  0  0  0  0
  3  6  1  1  0  0  0
  3  4  1  0  0  0  0
  4 23  1  1  0  0  0
  4 12  1  0  0  0  0
  5  2  1  6  0  0  0
  5  3  1  0  0  0  0
  6 21  2  0  0  0  0
  8  1  2  0  0  0  0
  8  6  1  0  0  0  0
  9 17  1  6  0  0  0
  9 19  1  0  0  0  0
  9 16  1  0  0  0  0
 10  7  1  0  0  0  0
 13 15  1  1  0  0  0
 13 20  1  0  0  0  0
 14 11  2  0  0  0  0
 16  7  1  6  0  0  0
 16  8  1  0  0  0  0
 17 10  1  0  0  0  0
 18 13  1  0  0  0  0
 19 18  1  6  0  0  0
 19  5  1  0  0  0  0
 20  2  1  0  0  0  0
 21 11  1  0  0  0  0
 21 12  1  0  0  0  0
 22 25  1  0  0  0  0
 23 22  2  0  0  0  0
 25 24  2  0  0  0  0
 26 25  1  0  0  0  0
M  END
>  <MODEL>
1

>  <REMARK>
 VINA RESULT:      -7.1      0.000      0.000
  Name = 
  2 active torsions:
  status: ('A' for Active; 'I' for Inactive)
    1  A    between atoms: C_5  and  N_12
    2  A    between atoms: N_11  and  C_13
                            x       y       z     vdW  Elec       q    Type
                         _______ _______ _______ _____ _____    ______ ____

>  <TORSDO>
F 2

$$$$
=
 OpenBabel11052409493D

 26 30  0  0  1  0  0  0  0  0999 V2000
  161.2360  207.3400  155.3500 C   0  0  0  0  0  3  0  0  0  0  0  0
  161.3540  211.6260  151.2620 C   0  0  0  0  0  2  0  0  0  0  0  0
  160.1800  210.2230  153.0690 C   0  0  1  0  0  3  0  0  0  0  0  0
  159.7290  211.5830  153.6320 C   0  0  2  0  0  3  0  0  0  0  0  0
  161.3670  210.3280  152.0940 C   0  0  1  0  0  3  0  0  0  0  0  0
  160.5650  209.3820  154.2410 C   0  0  0  0  0  0  0  0  0  0  0  0
  161.0110  205.8020  152.9100 C   0  0  0  0  0  2  0  0  0  0  0  0
  160.8680  208.0110  154.1690 C   0  0  0  0  0  0  0  0  0  0  0  0
  161.9140  207.8360  151.9060 C   0  0  1  0  0  3  0  0  0  0  0  0
  161.9560  205.4230  151.7840 C   0  0  0  0  0  2  0  0  0  0  0  0
  161.0020  209.3950  156.6180 C   0  0  0  0  0  3  0  0  0  0  0  0
  160.3100  211.7940  155.3600 S   0  0  0  0  0  0  0  0  0  0  0  0
  161.7260  210.6460  149.2140 C   0  0  1  0  0  3  0  0  0  0  0  0
  161.2950  208.0280  156.5690 C   0  0  0  0  0  3  0  0  0  0  0  0
  162.8100  211.4860  148.7290 N   0  0  0  0  0  1  0  0  0  0  0  0
  160.8310  207.3130  152.8350 C   0  0  1  0  0  3  0  0  0  0  0  0
  162.1790  206.6770  150.9650 C   0  0  0  0  0  2  0  0  0  0  0  0
  162.2870  209.4140  149.9440 C   0  0  0  0  0  2  0  0  0  0  0  0
  161.4270  209.0910  151.1680 C   0  0  2  0  0  3  0  0  0  0  0  0
  160.8060  211.4040  149.9830 O   0  0  0  0  0  0  0  0  0  0  0  0
  160.6480  210.0570  155.4420 C   0  0  0  0  0  0  0  0  0  0  0  0
  157.5980  211.6170  154.6580 N   0  0  0  0  0  0  0  0  0  0  0  0
  158.2780  211.6610  153.5860 N   0  0  0  0  0  0  0  0  0  0  0  0
  155.5910  212.7490  154.2710 O   0  0  0  0  0  0  0  0  0  0  0  0
  156.1720  211.6910  154.6300 C   0  0  0  0  0  0  0  0  0  0  0  0
  155.4020  210.5580  155.0110 N   0  0  0  0  0  1  0  0  0  0  0  0
  1 14  1  0  0  0  0
  3  4  1  0  0  0  0
  3  6  1  1  0  0  0
  4 23  1  1  0  0  0
  4 12  1  0  0  0  0
  5  2  1  6  0  0  0
  5  3  1  0  0  0  0
  6 21  2  0  0  0  0
  8  6  1  0  0  0  0
  8  1  2  0  0  0  0
  9 17  1  6  0  0  0
  9 16  1  0  0  0  0
 10  7  1  0  0  0  0
 12 21  1  0  0  0  0
 13 15  1  1  0  0  0
 13 18  1  0  0  0  0
 13 20  1  0  0  0  0
 14 11  2  0  0  0  0
 16  7  1  1  0  0  0
 16  8  1  0  0  0  0
 17 10  1  0  0  0  0
 19 18  1  6  0  0  0
 19  9  1  0  0  0  0
 19  5  1  0  0  0  0
 20  2  1  0  0  0  0
 21 11  1  0  0  0  0
 23 22  2  0  0  0  0
 24 25  2  0  0  0  0
 25 22  1  0  0  0  0
 25 26  1  0  0  0  0
M  END
>  <MODEL>
2

>  <REMARK>
 VINA RESULT:      -5.7      1.639      2.475
  Name = 
  2 active torsions:
  status: ('A' for Active; 'I' for Inactive)
    1  A    between atoms: C_5  and  N_12
    2  A    between atoms: N_11  and  C_13
                            x       y       z     vdW  Elec       q    Type
                         _______ _______ _______ _____ _____    ______ ____

>  <TORSDO>
F 2

$$$$
=
 OpenBabel11052409493D

 26 30  0  0  1  0  0  0  0  0999 V2000
  160.2450  213.8770  144.7430 C   0  0  0  0  0  3  0  0  0  0  0  0
  160.3140  213.2320  150.6310 C   0  0  0  0  0  2  0  0  0  0  0  0
  160.6400  212.3630  148.2330 C   0  0  1  0  0  3  0  0  0  0  0  0
  161.9970  211.8560  148.7510 C   0  0  2  0  0  3  0  0  0  0  0  0
  160.0020  213.4360  149.1350 C   0  0  1  0  0  3  0  0  0  0  0  0
  160.8860  212.9310  146.8740 C   0  0  0  0  0  0  0  0  0  0  0  0
  157.4270  213.5450  145.3100 C   0  0  0  0  0  2  0  0  0  0  0  0
  159.8730  213.3400  145.9890 C   0  0  0  0  0  0  0  0  0  0  0  0
  158.1210  214.1710  147.5650 C   0  0  1  0  0  3  0  0  0  0  0  0
  156.3470  214.4050  145.9410 C   0  0  0  0  0  2  0  0  0  0  0  0
  162.5910  213.5950  145.2960 C   0  0  0  0  0  3  0  0  0  0  0  0
  163.3750  212.5840  147.7810 S   0  0  0  0  0  0  0  0  0  0  0  0
  158.1600  213.4830  151.4010 C   0  0  1  0  0  3  0  0  0  0  0  0
  161.5970  213.9970  144.3950 C   0  0  0  0  0  3  0  0  0  0  0  0
  158.3890  214.4400  152.4720 N   0  0  0  0  0  1  0  0  0  0  0  0
  158.4310  213.2320  146.4120 C   0  0  1  0  0  3  0  0  0  0  0  0
  156.6340  214.4400  147.4270 C   0  0  0  0  0  2  0  0  0  0  0  0
  157.8150  214.2150  150.0920 C   0  0  0  0  0  2  0  0  0  0  0  0
  158.4750  213.5090  148.9050 C   0  0  2  0  0  3  0  0  0  0  0  0
  159.2500  212.5820  151.2880 O   0  0  0  0  0  0  0  0  0  0  0  0
  162.2150  213.0730  146.5340 C   0  0  0  0  0  0  0  0  0  0  0  0
  161.9830  209.6890  149.7010 N   0  0  0  0  0  0  0  0  0  0  0  0
  162.0350  210.4060  148.6530 N   0  0  0  0  0  0  0  0  0  0  0  0
  162.6140  207.5880  150.5030 O   0  0  0  0  0  0  0  0  0  0  0  0
  162.0210  208.2640  149.6210 C   0  0  0  0  0  0  0  0  0  0  0  0
  161.3840  207.6030  148.5350 N   0  0  0  0  0  1  0  0  0  0  0  0
  1  8  1  0  0  0  0
  2 20  1  0  0  0  0
  3  6  1  6  0  0  0
  3  4  1  0  0  0  0
  3  5  1  0  0  0  0
  4 23  1  6  0  0  0
  5  2  1  1  0  0  0
  7 10  1  0  0  0  0
  8 16  1  0  0  0  0
  8  6  2  0  0  0  0
  9 17  1  1  0  0  0
  9 19  1  0  0  0  0
 10 17  1  0  0  0  0
 11 21  2  0  0  0  0
 12  4  1  0  0  0  0
 13 15  1  1  0  0  0
 14  1  2  0  0  0  0
 14 11  1  0  0  0  0
 16  7  1  6  0  0  0
 16  9  1  0  0  0  0
 18 13  1  0  0  0  0
 19  5  1  0  0  0  0
 19 18  1  1  0  0  0
 20 13  1  0  0  0  0
 21  6  1  0  0  0  0
 21 12  1  0  0  0  0
 23 22  2  0  0  0  0
 25 22  1  0  0  0  0
 25 24  2  0  0  0  0
 26 25  1  0  0  0  0
M  END
>  <MODEL>
3

>  <REMARK>
 VINA RESULT:      -5.7      4.240      7.742
  Name = 
  2 active torsions:
  status: ('A' for Active; 'I' for Inactive)
    1  A    between atoms: C_5  and  N_12
    2  A    between atoms: N_11  and  C_13
                            x       y       z     vdW  Elec       q    Type
                         _______ _______ _______ _____ _____    ______ ____

>  <TORSDO>
F 2

$$$$
=
 OpenBabel11052409493D

 26 30  0  0  1  0  0  0  0  0999 V2000
  159.9530  211.9620  151.5550 C   0  0  0  0  0  3  0  0  0  0  0  0
  160.8650  206.5350  153.7500 C   0  0  0  0  0  2  0  0  0  0  0  0
  161.1560  209.0900  153.7780 C   0  0  1  0  0  3  0  0  0  0  0  0
  160.7470  208.9800  155.2570 C   0  0  2  0  0  3  0  0  0  0  0  0
  160.7850  207.8490  152.9460 C   0  0  1  0  0  3  0  0  0  0  0  0
  160.4560  210.2900  153.2290 C   0  0  0  0  0  0  0  0  0  0  0  0
  162.0070  210.9680  149.7760 C   0  0  0  0  0  2  0  0  0  0  0  0
  160.6990  210.8380  151.9570 C   0  0  0  0  0  0  0  0  0  0  0  0
  161.2610  208.8030  150.6200 C   0  0  1  0  0  3  0  0  0  0  0  0
  162.0570  209.9520  148.6500 C   0  0  0  0  0  2  0  0  0  0  0  0
  158.7570  211.9520  153.6660 C   0  0  0  0  0  3  0  0  0  0  0  0
  159.2490  209.9870  155.5920 S   0  0  0  0  0  0  0  0  0  0  0  0
  162.0670  205.3330  152.2000 C   0  0  1  0  0  3  0  0  0  0  0  0
  158.9930  212.5200  152.4090 C   0  0  0  0  0  3  0  0  0  0  0  0
  161.2610  204.1230  152.1450 N   0  0  0  0  0  1  0  0  0  0  0  0
  161.7120  210.1890  151.0510 C   0  0  1  0  0  3  0  0  0  0  0  0
  161.9650  208.5850  149.2950 C   0  0  0  0  0  2  0  0  0  0  0  0
  161.6110  206.3320  151.1230 C   0  0  0  0  0  2  0  0  0  0  0  0
  161.6600  207.7590  151.6740 C   0  0  2  0  0  3  0  0  0  0  0  0
  162.0830  205.8680  153.5140 O   0  0  0  0  0  0  0  0  0  0  0  0
  159.4930  210.8320  154.0540 C   0  0  0  0  0  0  0  0  0  0  0  0
  162.2200  210.6510  156.0540 N   0  0  0  0  0  0  0  0  0  0  0  0
  161.8460  209.4370  156.0920 N   0  0  0  0  0  0  0  0  0  0  0  0
  164.2100  210.3270  157.2350 O   0  0  0  0  0  0  0  0  0  0  0  0
  163.2990  211.1150  156.8660 C   0  0  0  0  0  0  0  0  0  0  0  0
  163.3450  212.4810  157.2610 N   0  0  0  0  0  1  0  0  0  0  0  0
  1  8  2  0  0  0  0
  1 14  1  0  0  0  0
  3  6  1  6  0  0  0
  3  4  1  0  0  0  0
  4 12  1  0  0  0  0
  4 23  1  1  0  0  0
  5  2  1  1  0  0  0
  5  3  1  0  0  0  0
  6 21  2  0  0  0  0
  8  6  1  0  0  0  0
  9 17  1  6  0  0  0
  9 16  1  0  0  0  0
  9 19  1  0  0  0  0
 10 17  1  0  0  0  0
 10  7  1  0  0  0  0
 11 21  1  0  0  0  0
 13 15  1  1  0  0  0
 13 20  1  0  0  0  0
 14 11  2  0  0  0  0
 16  7  1  6  0  0  0
 16  8  1  0  0  0  0
 18 13  1  0  0  0  0
 19 18  1  6  0  0  0
 19  5  1  0  0  0  0
 20  2  1  0  0  0  0
 21 12  1  0  0  0  0
 22 23  2  0  0  0  0
 22 25  1  0  0  0  0
 25 24  2  0  0  0  0
 25 26  1  0  0  0  0
M  END
>  <MODEL>
4

>  <REMARK>
 VINA RESULT:      -5.1      3.334      5.222
  Name = 
  2 active torsions:
  status: ('A' for Active; 'I' for Inactive)
    1  A    between atoms: C_5  and  N_12
    2  A    between atoms: N_11  and  C_13
                            x       y       z     vdW  Elec       q    Type
                         _______ _______ _______ _____ _____    ______ ____

>  <TORSDO>
F 2

$$$$
=
 OpenBabel11052409493D

 26 30  0  0  1  0  0  0  0  0999 V2000
  161.5710  208.1720  155.2180 C   0  0  0  0  0  3  0  0  0  0  0  0
  159.7130  213.1820  152.6600 C   0  0  0  0  0  2  0  0  0  0  0  0
  159.3320  211.0320  154.0190 C   0  0  1  0  0  3  0  0  0  0  0  0
  158.5910  211.9530  155.0040 C   0  0  2  0  0  3  0  0  0  0  0  0
  160.2540  211.7910  153.0470 C   0  0  1  0  0  3  0  0  0  0  0  0
  160.1420  210.0860  154.8440 C   0  0  0  0  0  0  0  0  0  0  0  0
  161.4220  207.3700  152.4430 C   0  0  0  0  0  2  0  0  0  0  0  0
  160.8290  208.9720  154.3310 C   0  0  0  0  0  0  0  0  0  0  0  0
  161.4900  209.7790  152.0600 C   0  0  1  0  0  3  0  0  0  0  0  0
  162.2380  207.6510  151.1950 C   0  0  0  0  0  2  0  0  0  0  0  0
  160.9400  209.6040  157.0730 C   0  0  0  0  0  3  0  0  0  0  0  0
  159.3580  211.8730  156.6700 S   0  0  0  0  0  0  0  0  0  0  0  0
  160.0200  212.9780  150.3890 C   0  0  1  0  0  3  0  0  0  0  0  0
  161.6200  208.4820  156.5840 C   0  0  0  0  0  3  0  0  0  0  0  0
  160.7040  214.2320  150.1170 N   0  0  0  0  0  1  0  0  0  0  0  0
  160.7840  208.6910  152.8520 C   0  0  1  0  0  3  0  0  0  0  0  0
  161.9330  209.0790  150.7910 C   0  0  0  0  0  2  0  0  0  0  0  0
  161.0390  211.8590  150.6620 C   0  0  0  0  0  2  0  0  0  0  0  0
  160.5310  210.9470  151.7810 C   0  0  2  0  0  3  0  0  0  0  0  0
  159.0540  213.1430  151.4150 O   0  0  0  0  0  0  0  0  0  0  0  0
  160.2140  210.3980  156.1860 C   0  0  0  0  0  0  0  0  0  0  0  0
  156.6950  211.1850  156.1920 N   0  0  0  0  0  0  0  0  0  0  0  0
  157.1980  211.5470  155.0820 N   0  0  0  0  0  0  0  0  0  0  0  0
  154.6180  211.1400  157.2610 O   0  0  0  0  0  0  0  0  0  0  0  0
  155.3290  210.7810  156.2850 C   0  0  0  0  0  0  0  0  0  0  0  0
  154.7660  209.9650  155.2650 N   0  0  0  0  0  1  0  0  0  0  0  0
  1 14  1  0  0  0  0
  3  6  1  1  0  0  0
  3  4  1  0  0  0  0
  4 23  1  1  0  0  0
  4 12  1  0  0  0  0
  5  2  1  6  0  0  0
  5  3  1  0  0  0  0
  6 21  2  0  0  0  0
  8  6  1  0  0  0  0
  8  1  2  0  0  0  0
  9 17  1  6  0  0  0
  9 16  1  0  0  0  0
 10  7  1  0  0  0  0
 13 15  1  1  0  0  0
 13 18  1  0  0  0  0
 13 20  1  0  0  0  0
 14 11  2  0  0  0  0
 16  7  1  1  0  0  0
 16  8  1  0  0  0  0
 17 10  1  0  0  0  0
 19 18  1  6  0  0  0
 19  9  1  0  0  0  0
 19  5  1  0  0  0  0
 20  2  1  0  0  0  0
 21 12  1  0  0  0  0
 21 11  1  0  0  0  0
 22 25  1  0  0  0  0
 23 22  2  0  0  0  0
 25 24  2  0  0  0  0
 26 25  1  0  0  0  0
M  END
>  <MODEL>
5

>  <REMARK>
 VINA RESULT:      -5.0      2.518      3.545
  Name = 
  2 active torsions:
  status: ('A' for Active; 'I' for Inactive)
    1  A    between atoms: C_5  and  N_12
    2  A    between atoms: N_11  and  C_13
                            x       y       z     vdW  Elec       q    Type
                         _______ _______ _______ _____ _____    ______ ____

>  <TORSDO>
F 2

$$$$
=
 OpenBabel11052409493D

 26 30  0  0  1  0  0  0  0  0999 V2000
  160.6660  209.3820  154.8900 C   0  0  0  0  0  3  0  0  0  0  0  0
  160.6420  213.5050  150.6360 C   0  0  0  0  0  2  0  0  0  0  0  0
  159.4840  212.0290  152.3960 C   0  0  1  0  0  3  0  0  0  0  0  0
  158.8200  213.3400  152.8530 C   0  0  2  0  0  3  0  0  0  0  0  0
  160.7350  212.2480  151.5250 C   0  0  1  0  0  3  0  0  0  0  0  0
  159.8580  211.2840  153.6340 C   0  0  0  0  0  0  0  0  0  0  0  0
  160.8580  207.7440  152.5130 C   0  0  0  0  0  2  0  0  0  0  0  0
  160.3310  209.9600  153.6520 C   0  0  0  0  0  0  0  0  0  0  0  0
  161.5970  209.8390  151.5010 C   0  0  1  0  0  3  0  0  0  0  0  0
  161.9440  207.4480  151.4940 C   0  0  0  0  0  2  0  0  0  0  0  0
  160.0660  211.4340  156.0370 C   0  0  0  0  0  3  0  0  0  0  0  0
  159.2080  213.6820  154.6140 S   0  0  0  0  0  0  0  0  0  0  0  0
  161.3200  212.5090  148.6760 C   0  0  1  0  0  3  0  0  0  0  0  0
  160.5260  210.1130  156.0770 C   0  0  0  0  0  3  0  0  0  0  0  0
  162.3340  213.4610  148.2510 N   0  0  0  0  0  1  0  0  0  0  0  0
  160.5040  209.2170  152.3530 C   0  0  1  0  0  3  0  0  0  0  0  0
  162.0880  208.6910  150.6410 C   0  0  0  0  0  2  0  0  0  0  0  0
  161.9560  211.3820  149.5090 C   0  0  0  0  0  2  0  0  0  0  0  0
  161.0310  210.9970  150.6660 C   0  0  2  0  0  3  0  0  0  0  0  0
  160.2470  213.1720  149.3250 O   0  0  0  0  0  0  0  0  0  0  0  0
  159.7450  212.0050  154.8050 C   0  0  0  0  0  0  0  0  0  0  0  0
  156.7220  214.2050  152.1880 N   0  0  0  0  0  0  0  0  0  0  0  0
  157.3820  213.2350  152.6750 N   0  0  0  0  0  0  0  0  0  0  0  0
  154.8080  214.0780  150.8540 O   0  0  0  0  0  0  0  0  0  0  0  0
  155.3080  214.1190  152.0090 C   0  0  0  0  0  0  0  0  0  0  0  0
  154.4560  214.0780  153.1480 N   0  0  0  0  0  1  0  0  0  0  0  0
  1 14  1  0  0  0  0
  3  4  1  0  0  0  0
  3  6  1  1  0  0  0
  4 23  1  1  0  0  0
  4 12  1  0  0  0  0
  5  2  1  6  0  0  0
  5  3  1  0  0  0  0
  6  8  1  0  0  0  0
  6 21  2  0  0  0  0
  8  1  2  0  0  0  0
  9 17  1  6  0  0  0
  9 16  1  0  0  0  0
 10  7  1  0  0  0  0
 11 14  2  0  0  0  0
 12 21  1  0  0  0  0
 13 15  1  1  0  0  0
 13 20  1  0  0  0  0
 13 18  1  0  0  0  0
 16  7  1  1  0  0  0
 16  8  1  0  0  0  0
 17 10  1  0  0  0  0
 19 18  1  6  0  0  0
 19  9  1  0  0  0  0
 19  5  1  0  0  0  0
 20  2  1  0  0  0  0
 21 11  1  0  0  0  0
 22 23  2  0  0  0  0
 24 25  2  0  0  0  0
 25 22  1  0  0  0  0
 25 26  1  0  0  0  0
M  END
>  <MODEL>
6

>  <REMARK>
 VINA RESULT:      -4.9      2.408      3.598
  Name = 
  2 active torsions:
  status: ('A' for Active; 'I' for Inactive)
    1  A    between atoms: C_5  and  N_12
    2  A    between atoms: N_11  and  C_13
                            x       y       z     vdW  Elec       q    Type
                         _______ _______ _______ _____ _____    ______ ____

>  <TORSDO>
F 2

$$$$
