=
 OpenBabel11042420463D

 27 29  0  0  0  0  0  0  0  0999 V2000
  161.6740  208.4600  151.8250 C   0  0  0  0  0  0  0  0  0  0  0  0
  160.6860  209.2980  153.9350 C   0  0  0  0  0  0  0  0  0  0  0  0
  159.7480  209.1710  156.0930 N   0  0  0  0  0  0  0  0  0  0  0  0
  160.8520  207.9270  153.9280 C   0  0  0  0  0  0  0  0  0  0  0  0
  159.9110  207.8150  156.0840 C   0  0  0  0  0  3  0  0  0  0  0  0
  161.2230  209.9540  152.4910 S   0  0  0  0  0  0  0  0  0  0  0  0
  160.1260  209.9360  155.0300 C   0  0  0  0  0  3  0  0  0  0  0  0
  161.4160  207.4230  152.7380 C   0  0  0  0  0  0  0  0  0  0  0  0
  160.4590  207.1910  155.0000 N   0  0  0  0  0  0  0  0  0  0  0  0
  160.5640  207.0560  149.4860 O   0  0  0  0  0  0  0  0  0  0  0  0
  162.2760  208.2720  150.5360 N   0  0  0  0  0  2  0  0  0  0  0  0
  161.7080  207.5790  149.4200 C   0  0  0  0  0  0  0  0  0  0  0  0
  162.4820  207.4820  148.1480 C   0  0  0  0  0  2  0  0  0  0  0  0
  161.6810  206.8480  147.1120 N   0  0  0  0  0  0  0  0  0  0  0  0
  162.1170  205.8110  146.4730 C   0  0  0  0  0  3  0  0  0  0  0  0
  161.3100  205.1740  145.4310 C   0  0  0  0  0  0  0  0  0  0  0  0
  161.6050  204.0290  145.0000 O   0  0  0  0  0  1  0  0  0  0  0  0
  160.2080  205.8420  144.9130 O   0  0  0  0  0  0  0  0  0  0  0  0
  163.2070  205.4370  152.1910 S   0  0  0  0  0  0  0  0  0  0  0  0
  161.6880  205.9850  152.4640 C   0  0  0  0  0  0  0  0  0  0  0  0
  160.5750  204.9920  152.3940 C   0  0  0  0  0  2  0  0  0  0  0  0
  161.1180  203.6250  152.0170 C   0  0  0  0  0  2  0  0  0  0  0  0
  160.6490  203.2430  150.6260 C   0  0  0  0  0  2  0  0  0  0  0  0
  160.8420  201.8190  150.4090 N   0  0  0  0  0  2  0  0  0  0  0  0
  161.2820  200.7410  148.2870 C   0  0  0  0  0  2  0  0  0  0  0  0
  161.0710  202.2180  148.0370 C   0  0  0  0  0  2  0  0  0  0  0  0
  160.2700  201.5110  149.1120 C   0  0  0  0  0  3  0  0  0  0  0  0
  1  6  1  0  0  0  0
  1  8  2  0  0  0  0
  2  7  1  0  0  0  0
  4  2  2  0  0  0  0
  4  9  1  0  0  0  0
  5  3  1  0  0  0  0
  6  2  1  0  0  0  0
  7  3  2  0  0  0  0
  8  4  1  0  0  0  0
  9  5  2  0  0  0  0
 11  1  1  0  0  0  0
 12 10  2  0  0  0  0
 12 11  1  0  0  0  0
 13 12  1  0  0  0  0
 14 13  1  0  0  0  0
 15 14  2  0  0  0  0
 16 15  1  0  0  0  0
 17 16  1  0  0  0  0
 18 16  2  0  0  0  0
 19 20  2  0  0  0  0
 20  8  1  0  0  0  0
 21 20  1  0  0  0  0
 22 21  1  0  0  0  0
 23 22  1  0  0  0  0
 24 23  1  0  0  0  0
 25 27  1  0  0  0  0
 26 25  1  0  0  0  0
 26 27  1  0  0  0  0
 27 24  1  0  0  0  0
M  END
>  <MODEL>
1

>  <REMARK>
 VINA RESULT:      -6.6      0.000      0.000
  Name = 
  10 active torsions:
  status: ('A' for Active; 'I' for Inactive)
    1  A    between atoms: C_1  and  N_17
    2  A    between atoms: C_2  and  C_11
    3  A    between atoms: C_5  and  C_13
    4  A    between atoms: C_5  and  C_16
    5  A    between atoms: N_9  and  C_10
    6  A    between atoms: C_10  and  C_23
    7  A    between atoms: C_13  and  C_19
    8  A    between atoms: C_16  and  N_25
    9  A    between atoms: C_18  and  N_25
   10  A    between atoms: C_19  and  C_26
                            x       y       z     vdW  Elec       q    Type
                         _______ _______ _______ _____ _____    ______ ____

>  <TORSDO>
F 10

$$$$
=
 OpenBabel11042420463D

 27 29  0  0  0  0  0  0  0  0999 V2000
  161.9580  208.5410  151.0220 C   0  0  0  0  0  0  0  0  0  0  0  0
  161.1560  210.3550  152.5040 C   0  0  0  0  0  0  0  0  0  0  0  0
  160.1080  211.3190  154.3820 N   0  0  0  0  0  0  0  0  0  0  0  0
  160.9010  209.0950  153.0110 C   0  0  0  0  0  0  0  0  0  0  0  0
  159.8550  210.0730  154.8820 C   0  0  0  0  0  3  0  0  0  0  0  0
  161.9420  210.2380  151.0310 S   0  0  0  0  0  0  0  0  0  0  0  0
  160.7550  211.4880  153.1950 C   0  0  0  0  0  3  0  0  0  0  0  0
  161.3510  208.0430  152.1880 C   0  0  0  0  0  0  0  0  0  0  0  0
  160.2470  208.9600  154.1950 N   0  0  0  0  0  0  0  0  0  0  0  0
  161.1750  208.3200  148.1920 O   0  0  0  0  0  0  0  0  0  0  0  0
  162.5440  207.7210  150.0020 N   0  0  0  0  0  2  0  0  0  0  0  0
  162.1350  207.6350  148.6330 C   0  0  0  0  0  0  0  0  0  0  0  0
  162.8660  206.7230  147.7060 C   0  0  0  0  0  2  0  0  0  0  0  0
  161.9670  206.2080  146.6830 N   0  0  0  0  0  0  0  0  0  0  0  0
  162.3920  205.3950  145.7710 C   0  0  0  0  0  3  0  0  0  0  0  0
  161.4860  204.8780  144.7440 C   0  0  0  0  0  0  0  0  0  0  0  0
  161.3090  205.5080  143.6680 O   0  0  0  0  0  0  0  0  0  0  0  0
  160.8160  203.6810  144.9600 O   0  0  0  0  0  1  0  0  0  0  0  0
  161.4870  205.9930  153.9860 S   0  0  0  0  0  0  0  0  0  0  0  0
  161.1920  206.5940  152.4910 C   0  0  0  0  0  0  0  0  0  0  0  0
  160.7900  205.6260  151.4270 C   0  0  0  0  0  2  0  0  0  0  0  0
  161.6150  204.3550  151.5390 C   0  0  0  0  0  2  0  0  0  0  0  0
  160.7050  203.1420  151.5350 C   0  0  0  0  0  2  0  0  0  0  0  0
  161.3130  202.0670  150.7690 N   0  0  0  0  0  2  0  0  0  0  0  0
  161.1480  200.9380  148.6340 C   0  0  0  0  0  2  0  0  0  0  0  0
  160.9860  202.4250  148.4020 C   0  0  0  0  0  2  0  0  0  0  0  0
  160.4230  201.7900  149.6570 C   0  0  0  0  0  3  0  0  0  0  0  0
  1  6  1  0  0  0  0
  1  8  2  0  0  0  0
  2  4  2  0  0  0  0
  2  7  1  0  0  0  0
  3  5  1  0  0  0  0
  4  9  1  0  0  0  0
  6  2  1  0  0  0  0
  7  3  2  0  0  0  0
  8 20  1  0  0  0  0
  8  4  1  0  0  0  0
  9  5  2  0  0  0  0
 10 12  2  0  0  0  0
 11  1  1  0  0  0  0
 12 11  1  0  0  0  0
 13 12  1  0  0  0  0
 14 13  1  0  0  0  0
 15 14  2  0  0  0  0
 16 18  1  0  0  0  0
 16 15  1  0  0  0  0
 17 16  2  0  0  0  0
 20 19  2  0  0  0  0
 21 22  1  0  0  0  0
 21 20  1  0  0  0  0
 23 22  1  0  0  0  0
 24 23  1  0  0  0  0
 25 27  1  0  0  0  0
 26 25  1  0  0  0  0
 26 27  1  0  0  0  0
 27 24  1  0  0  0  0
M  END
>  <MODEL>
2

>  <REMARK>
 VINA RESULT:      -6.4      1.329      1.523
  Name = 
  10 active torsions:
  status: ('A' for Active; 'I' for Inactive)
    1  A    between atoms: C_1  and  N_17
    2  A    between atoms: C_2  and  C_11
    3  A    between atoms: C_5  and  C_13
    4  A    between atoms: C_5  and  C_16
    5  A    between atoms: N_9  and  C_10
    6  A    between atoms: C_10  and  C_23
    7  A    between atoms: C_13  and  C_19
    8  A    between atoms: C_16  and  N_25
    9  A    between atoms: C_18  and  N_25
   10  A    between atoms: C_19  and  C_26
                            x       y       z     vdW  Elec       q    Type
                         _______ _______ _______ _____ _____    ______ ____

>  <TORSDO>
F 10

$$$$
=
 OpenBabel11042420463D

 27 29  0  0  0  0  0  0  0  0999 V2000
  161.5570  206.0660  152.4190 C   0  0  0  0  0  0  0  0  0  0  0  0
  160.9330  208.0540  153.7570 C   0  0  0  0  0  0  0  0  0  0  0  0
  160.2820  210.2840  154.1570 N   0  0  0  0  0  0  0  0  0  0  0  0
  160.8700  208.2830  152.3960 C   0  0  0  0  0  0  0  0  0  0  0  0
  160.2230  210.5090  152.8110 C   0  0  0  0  0  3  0  0  0  0  0  0
  161.4120  206.4790  154.0590 S   0  0  0  0  0  0  0  0  0  0  0  0
  160.6360  209.0670  154.6560 C   0  0  0  0  0  3  0  0  0  0  0  0
  161.2180  207.1650  151.6100 C   0  0  0  0  0  0  0  0  0  0  0  0
  160.5200  209.5100  151.9300 N   0  0  0  0  0  0  0  0  0  0  0  0
  159.9320  203.6110  152.3540 O   0  0  0  0  0  0  0  0  0  0  0  0
  161.9240  204.7740  151.9160 N   0  0  0  0  0  2  0  0  0  0  0  0
  161.1090  203.5980  151.9040 C   0  0  0  0  0  0  0  0  0  0  0  0
  161.6580  202.3330  151.3360 C   0  0  0  0  0  2  0  0  0  0  0  0
  161.3770  202.2490  149.9110 N   0  0  0  0  0  0  0  0  0  0  0  0
  161.2200  201.1050  149.3280 C   0  0  0  0  0  3  0  0  0  0  0  0
  160.9350  201.0220  147.8950 C   0  0  0  0  0  0  0  0  0  0  0  0
  160.2090  201.8850  147.3340 O   0  0  0  0  0  1  0  0  0  0  0  0
  161.4710  199.9820  147.1480 O   0  0  0  0  0  0  0  0  0  0  0  0
  162.1810  208.1830  149.2680 S   0  0  0  0  0  0  0  0  0  0  0  0
  161.2470  207.1430  150.1210 C   0  0  0  0  0  0  0  0  0  0  0  0
  160.3930  206.1920  149.3500 C   0  0  0  0  0  2  0  0  0  0  0  0
  160.8750  206.1070  147.9120 C   0  0  0  0  0  2  0  0  0  0  0  0
  161.8110  204.9250  147.7440 C   0  0  0  0  0  2  0  0  0  0  0  0
  162.1470  204.7520  146.3420 N   0  0  0  0  0  2  0  0  0  0  0  0
  160.5870  204.2700  144.5540 C   0  0  0  0  0  2  0  0  0  0  0  0
  161.4610  205.4290  144.1260 C   0  0  0  0  0  2  0  0  0  0  0  0
  161.0400  205.2940  145.5760 C   0  0  0  0  0  3  0  0  0  0  0  0
  1  6  1  0  0  0  0
  2  6  1  0  0  0  0
  2  7  1  0  0  0  0
  3  7  2  0  0  0  0
  4  2  2  0  0  0  0
  5  3  1  0  0  0  0
  8  4  1  0  0  0  0
  8  1  2  0  0  0  0
  9  4  1  0  0  0  0
  9  5  2  0  0  0  0
 11  1  1  0  0  0  0
 12 11  1  0  0  0  0
 12 10  2  0  0  0  0
 13 12  1  0  0  0  0
 14 13  1  0  0  0  0
 15 14  2  0  0  0  0
 16 15  1  0  0  0  0
 17 16  1  0  0  0  0
 18 16  2  0  0  0  0
 19 20  2  0  0  0  0
 20  8  1  0  0  0  0
 21 20  1  0  0  0  0
 22 21  1  0  0  0  0
 23 22  1  0  0  0  0
 24 23  1  0  0  0  0
 25 27  1  0  0  0  0
 26 25  1  0  0  0  0
 26 27  1  0  0  0  0
 27 24  1  0  0  0  0
M  END
>  <MODEL>
3

>  <REMARK>
 VINA RESULT:      -6.4      2.196      4.189
  Name = 
  10 active torsions:
  status: ('A' for Active; 'I' for Inactive)
    1  A    between atoms: C_1  and  N_17
    2  A    between atoms: C_2  and  C_11
    3  A    between atoms: C_5  and  C_13
    4  A    between atoms: C_5  and  C_16
    5  A    between atoms: N_9  and  C_10
    6  A    between atoms: C_10  and  C_23
    7  A    between atoms: C_13  and  C_19
    8  A    between atoms: C_16  and  N_25
    9  A    between atoms: C_18  and  N_25
   10  A    between atoms: C_19  and  C_26
                            x       y       z     vdW  Elec       q    Type
                         _______ _______ _______ _____ _____    ______ ____

>  <TORSDO>
F 10

$$$$
=
 OpenBabel11042420463D

 27 29  0  0  0  0  0  0  0  0999 V2000
  161.1590  205.5540  148.7840 C   0  0  0  0  0  0  0  0  0  0  0  0
  161.0690  203.4810  147.4330 C   0  0  0  0  0  0  0  0  0  0  0  0
  161.0870  201.1620  147.0130 N   0  0  0  0  0  0  0  0  0  0  0  0
  161.1650  203.2340  148.7890 C   0  0  0  0  0  0  0  0  0  0  0  0
  161.1830  200.9190  148.3540 C   0  0  0  0  0  3  0  0  0  0  0  0
  161.0390  205.1300  147.1450 S   0  0  0  0  0  0  0  0  0  0  0  0
  161.0300  202.4330  146.5260 C   0  0  0  0  0  3  0  0  0  0  0  0
  161.2140  204.3990  149.5820 C   0  0  0  0  0  0  0  0  0  0  0  0
  161.2260  201.9550  149.2420 N   0  0  0  0  0  0  0  0  0  0  0  0
  163.0380  207.7380  148.1760 O   0  0  0  0  0  0  0  0  0  0  0  0
  161.1570  206.8930  149.2980 N   0  0  0  0  0  2  0  0  0  0  0  0
  162.0910  207.9310  148.9830 C   0  0  0  0  0  0  0  0  0  0  0  0
  161.9340  209.2730  149.6160 C   0  0  0  0  0  2  0  0  0  0  0  0
  162.0780  210.3250  148.6200 N   0  0  0  0  0  0  0  0  0  0  0  0
  161.9480  211.5710  148.9440 C   0  0  0  0  0  3  0  0  0  0  0  0
  162.0950  212.6280  147.9430 C   0  0  0  0  0  0  0  0  0  0  0  0
  163.2060  212.8400  147.3900 O   0  0  0  0  0  0  0  0  0  0  0  0
  160.9960  213.4060  147.6000 O   0  0  0  0  0  1  0  0  0  0  0  0
  160.5490  203.3210  152.0000 S   0  0  0  0  0  0  0  0  0  0  0  0
  161.3310  204.4160  151.0670 C   0  0  0  0  0  0  0  0  0  0  0  0
  162.1410  205.4610  151.7610 C   0  0  0  0  0  2  0  0  0  0  0  0
  161.3630  206.0270  152.9370 C   0  0  0  0  0  2  0  0  0  0  0  0
  161.2860  207.5390  152.8310 C   0  0  0  0  0  2  0  0  0  0  0  0
  160.5880  208.0830  153.9840 N   0  0  0  0  0  2  0  0  0  0  0  0
  159.7200  207.4170  156.1430 C   0  0  0  0  0  2  0  0  0  0  0  0
  161.1640  207.8320  156.3170 C   0  0  0  0  0  2  0  0  0  0  0  0
  160.7310  207.1140  155.0550 C   0  0  0  0  0  3  0  0  0  0  0  0
  1 11  1  0  0  0  0
  1  8  2  0  0  0  0
  2  4  1  0  0  0  0
  3  5  2  0  0  0  0
  4  9  2  0  0  0  0
  4  8  1  0  0  0  0
  5  9  1  0  0  0  0
  6  2  1  0  0  0  0
  6  1  1  0  0  0  0
  7  3  1  0  0  0  0
  7  2  2  0  0  0  0
  8 20  1  0  0  0  0
 10 12  2  0  0  0  0
 12 11  1  0  0  0  0
 12 13  1  0  0  0  0
 14 15  2  0  0  0  0
 14 13  1  0  0  0  0
 16 15  1  0  0  0  0
 17 16  2  0  0  0  0
 18 16  1  0  0  0  0
 20 21  1  0  0  0  0
 20 19  2  0  0  0  0
 21 22  1  0  0  0  0
 23 22  1  0  0  0  0
 23 24  1  0  0  0  0
 24 27  1  0  0  0  0
 25 26  1  0  0  0  0
 27 25  1  0  0  0  0
 27 26  1  0  0  0  0
M  END
>  <MODEL>
4

>  <REMARK>
 VINA RESULT:      -6.4      2.941      7.006
  Name = 
  10 active torsions:
  status: ('A' for Active; 'I' for Inactive)
    1  A    between atoms: C_1  and  N_17
    2  A    between atoms: C_2  and  C_11
    3  A    between atoms: C_5  and  C_13
    4  A    between atoms: C_5  and  C_16
    5  A    between atoms: N_9  and  C_10
    6  A    between atoms: C_10  and  C_23
    7  A    between atoms: C_13  and  C_19
    8  A    between atoms: C_16  and  N_25
    9  A    between atoms: C_18  and  N_25
   10  A    between atoms: C_19  and  C_26
                            x       y       z     vdW  Elec       q    Type
                         _______ _______ _______ _____ _____    ______ ____

>  <TORSDO>
F 10

$$$$
=
 OpenBabel11042420463D

 27 29  0  0  0  0  0  0  0  0999 V2000
  160.8610  205.0930  150.1820 C   0  0  0  0  0  0  0  0  0  0  0  0
  160.8630  202.7020  149.5400 C   0  0  0  0  0  0  0  0  0  0  0  0
  161.0040  200.8410  148.1000 N   0  0  0  0  0  0  0  0  0  0  0  0
  161.1110  203.5440  148.4730 C   0  0  0  0  0  0  0  0  0  0  0  0
  161.2480  201.6750  147.0450 C   0  0  0  0  0  3  0  0  0  0  0  0
  160.6450  203.5910  150.9410 S   0  0  0  0  0  0  0  0  0  0  0  0
  160.8070  201.3290  149.3560 C   0  0  0  0  0  3  0  0  0  0  0  0
  161.1190  204.9120  148.8120 C   0  0  0  0  0  0  0  0  0  0  0  0
  161.2970  203.0270  147.2300 N   0  0  0  0  0  0  0  0  0  0  0  0
  162.8390  206.2170  152.0520 O   0  0  0  0  0  0  0  0  0  0  0  0
  160.8350  206.3680  150.8390 N   0  0  0  0  0  2  0  0  0  0  0  0
  161.8140  206.8830  151.7470 C   0  0  0  0  0  0  0  0  0  0  0  0
  161.6230  208.2390  152.3380 C   0  0  0  0  0  2  0  0  0  0  0  0
  160.7630  208.1670  153.5100 N   0  0  0  0  0  0  0  0  0  0  0  0
  160.9220  208.9810  154.5040 C   0  0  0  0  0  3  0  0  0  0  0  0
  160.0560  208.9080  155.6810 C   0  0  0  0  0  0  0  0  0  0  0  0
  160.0130  207.8640  156.3830 O   0  0  0  0  0  1  0  0  0  0  0  0
  159.2740  210.0020  156.0250 O   0  0  0  0  0  0  0  0  0  0  0  0
  160.5780  206.0870  146.4080 S   0  0  0  0  0  0  0  0  0  0  0  0
  161.3480  206.0280  147.8530 C   0  0  0  0  0  0  0  0  0  0  0  0
  162.3190  207.1190  148.1610 C   0  0  0  0  0  2  0  0  0  0  0  0
  161.5800  208.4280  148.3840 C   0  0  0  0  0  2  0  0  0  0  0  0
  162.5250  209.4700  148.9510 C   0  0  0  0  0  2  0  0  0  0  0  0
  161.8040  210.7040  149.2150 N   0  0  0  0  0  2  0  0  0  0  0  0
  161.6580  213.0280  148.5540 C   0  0  0  0  0  2  0  0  0  0  0  0
  161.0790  212.1790  147.4440 C   0  0  0  0  0  2  0  0  0  0  0  0
  162.2660  211.6750  148.2410 C   0  0  0  0  0  3  0  0  0  0  0  0
  1 11  1  0  0  0  0
  1  6  1  0  0  0  0
  2  6  1  0  0  0  0
  3  7  2  0  0  0  0
  4  8  1  0  0  0  0
  4  2  2  0  0  0  0
  5  9  2  0  0  0  0
  5  3  1  0  0  0  0
  7  2  1  0  0  0  0
  8  1  2  0  0  0  0
  9  4  1  0  0  0  0
 11 12  1  0  0  0  0
 12 10  2  0  0  0  0
 12 13  1  0  0  0  0
 13 14  1  0  0  0  0
 14 15  2  0  0  0  0
 15 16  1  0  0  0  0
 16 18  2  0  0  0  0
 16 17  1  0  0  0  0
 19 20  2  0  0  0  0
 20 21  1  0  0  0  0
 20  8  1  0  0  0  0
 21 22  1  0  0  0  0
 22 23  1  0  0  0  0
 23 24  1  0  0  0  0
 26 27  1  0  0  0  0
 26 25  1  0  0  0  0
 27 25  1  0  0  0  0
 27 24  1  0  0  0  0
M  END
>  <MODEL>
5

>  <REMARK>
 VINA RESULT:      -6.2      3.342      8.196
  Name = 
  10 active torsions:
  status: ('A' for Active; 'I' for Inactive)
    1  A    between atoms: C_1  and  N_17
    2  A    between atoms: C_2  and  C_11
    3  A    between atoms: C_5  and  C_13
    4  A    between atoms: C_5  and  C_16
    5  A    between atoms: N_9  and  C_10
    6  A    between atoms: C_10  and  C_23
    7  A    between atoms: C_13  and  C_19
    8  A    between atoms: C_16  and  N_25
    9  A    between atoms: C_18  and  N_25
   10  A    between atoms: C_19  and  C_26
                            x       y       z     vdW  Elec       q    Type
                         _______ _______ _______ _____ _____    ______ ____

>  <TORSDO>
F 10

$$$$
=
 OpenBabel11042420463D

 27 29  0  0  0  0  0  0  0  0999 V2000
  161.2100  205.4990  151.2090 C   0  0  0  0  0  0  0  0  0  0  0  0
  160.9900  203.1150  150.5770 C   0  0  0  0  0  0  0  0  0  0  0  0
  160.8490  201.2560  149.1360 N   0  0  0  0  0  0  0  0  0  0  0  0
  161.1670  203.9450  149.4870 C   0  0  0  0  0  0  0  0  0  0  0  0
  161.0230  202.0780  148.0580 C   0  0  0  0  0  3  0  0  0  0  0  0
  160.9880  204.0100  151.9920 S   0  0  0  0  0  0  0  0  0  0  0  0
  160.8270  201.7490  150.4060 C   0  0  0  0  0  3  0  0  0  0  0  0
  161.2990  205.3080  149.8190 C   0  0  0  0  0  0  0  0  0  0  0  0
  161.1780  203.4220  148.2330 N   0  0  0  0  0  0  0  0  0  0  0  0
  160.8320  206.1270  154.0610 O   0  0  0  0  0  0  0  0  0  0  0  0
  161.3380  206.7700  151.8610 N   0  0  0  0  0  2  0  0  0  0  0  0
  161.1430  207.0410  153.2530 C   0  0  0  0  0  0  0  0  0  0  0  0
  161.3210  208.4330  153.7590 C   0  0  0  0  0  2  0  0  0  0  0  0
  160.3630  209.3310  153.1310 N   0  0  0  0  0  0  0  0  0  0  0  0
  160.3630  210.5970  153.3970 C   0  0  0  0  0  3  0  0  0  0  0  0
  159.4000  211.4980  152.7630 C   0  0  0  0  0  0  0  0  0  0  0  0
  158.1800  211.4580  153.0760 O   0  0  0  0  0  1  0  0  0  0  0  0
  159.8360  212.4050  151.8070 O   0  0  0  0  0  0  0  0  0  0  0  0
  160.5850  206.5080  147.4730 S   0  0  0  0  0  0  0  0  0  0  0  0
  161.4870  206.4120  148.8370 C   0  0  0  0  0  0  0  0  0  0  0  0
  162.5340  207.4560  149.0450 C   0  0  0  0  0  2  0  0  0  0  0  0
  161.9560  208.8350  148.7790 C   0  0  0  0  0  2  0  0  0  0  0  0
  161.9560  209.6550  150.0550 C   0  0  0  0  0  2  0  0  0  0  0  0
  161.9990  211.0720  149.7360 N   0  0  0  0  0  2  0  0  0  0  0  0
  162.7160  212.4270  147.8620 C   0  0  0  0  0  2  0  0  0  0  0  0
  161.2030  212.4190  147.8940 C   0  0  0  0  0  2  0  0  0  0  0  0
  161.9750  211.1750  148.2890 C   0  0  0  0  0  3  0  0  0  0  0  0
  1 11  1  0  0  0  0
  1  6  1  0  0  0  0
  2  6  1  0  0  0  0
  3  7  2  0  0  0  0
  4  8  1  0  0  0  0
  4  2  2  0  0  0  0
  5  9  2  0  0  0  0
  5  3  1  0  0  0  0
  7  2  1  0  0  0  0
  8  1  2  0  0  0  0
  9  4  1  0  0  0  0
 11 12  1  0  0  0  0
 12 13  1  0  0  0  0
 12 10  2  0  0  0  0
 14 15  2  0  0  0  0
 14 13  1  0  0  0  0
 16 17  1  0  0  0  0
 16 15  1  0  0  0  0
 18 16  2  0  0  0  0
 19 20  2  0  0  0  0
 20 21  1  0  0  0  0
 20  8  1  0  0  0  0
 22 21  1  0  0  0  0
 22 23  1  0  0  0  0
 24 23  1  0  0  0  0
 25 26  1  0  0  0  0
 25 27  1  0  0  0  0
 26 27  1  0  0  0  0
 27 24  1  0  0  0  0
M  END
>  <MODEL>
6

>  <REMARK>
 VINA RESULT:      -6.2      3.452      7.677
  Name = 
  10 active torsions:
  status: ('A' for Active; 'I' for Inactive)
    1  A    between atoms: C_1  and  N_17
    2  A    between atoms: C_2  and  C_11
    3  A    between atoms: C_5  and  C_13
    4  A    between atoms: C_5  and  C_16
    5  A    between atoms: N_9  and  C_10
    6  A    between atoms: C_10  and  C_23
    7  A    between atoms: C_13  and  C_19
    8  A    between atoms: C_16  and  N_25
    9  A    between atoms: C_18  and  N_25
   10  A    between atoms: C_19  and  C_26
                            x       y       z     vdW  Elec       q    Type
                         _______ _______ _______ _____ _____    ______ ____

>  <TORSDO>
F 10

$$$$
=
 OpenBabel11042420463D

 27 29  0  0  0  0  0  0  0  0999 V2000
  161.2930  206.7380  149.3170 C   0  0  0  0  0  0  0  0  0  0  0  0
  161.3280  205.9310  146.9760 C   0  0  0  0  0  0  0  0  0  0  0  0
  161.4240  204.3580  145.2240 N   0  0  0  0  0  0  0  0  0  0  0  0
  161.3550  204.9030  147.8980 C   0  0  0  0  0  0  0  0  0  0  0  0
  161.4520  203.3420  146.1370 C   0  0  0  0  0  3  0  0  0  0  0  0
  161.2730  207.4100  147.7590 S   0  0  0  0  0  0  0  0  0  0  0  0
  161.3630  205.6610  145.6170 C   0  0  0  0  0  3  0  0  0  0  0  0
  161.3330  205.3350  149.2400 C   0  0  0  0  0  0  0  0  0  0  0  0
  161.4220  203.6140  147.4740 N   0  0  0  0  0  0  0  0  0  0  0  0
  162.2680  209.4660  149.8440 O   0  0  0  0  0  0  0  0  0  0  0  0
  161.2310  207.4790  150.5430 N   0  0  0  0  0  2  0  0  0  0  0  0
  161.7200  208.8060  150.7660 C   0  0  0  0  0  0  0  0  0  0  0  0
  161.5680  209.4250  152.1140 C   0  0  0  0  0  2  0  0  0  0  0  0
  160.6280  210.5350  152.0620 N   0  0  0  0  0  0  0  0  0  0  0  0
  159.6260  210.5990  152.8780 C   0  0  0  0  0  3  0  0  0  0  0  0
  158.6820  211.7160  152.8250 C   0  0  0  0  0  0  0  0  0  0  0  0
  158.6360  212.4700  151.8180 O   0  0  0  0  0  0  0  0  0  0  0  0
  157.8310  211.9470  153.8980 O   0  0  0  0  0  1  0  0  0  0  0  0
  160.5580  203.0120  150.4480 S   0  0  0  0  0  0  0  0  0  0  0  0
  161.3670  204.4360  150.4270 C   0  0  0  0  0  0  0  0  0  0  0  0
  162.1170  204.8210  151.6600 C   0  0  0  0  0  2  0  0  0  0  0  0
  161.1560  204.9750  152.8270 C   0  0  0  0  0  2  0  0  0  0  0  0
  161.6350  206.0760  153.7540 C   0  0  0  0  0  2  0  0  0  0  0  0
  160.5070  206.8740  154.2030 N   0  0  0  0  0  2  0  0  0  0  0  0
  159.8260  208.3330  156.0110 C   0  0  0  0  0  2  0  0  0  0  0  0
  161.2620  208.6500  155.6570 C   0  0  0  0  0  2  0  0  0  0  0  0
  160.7650  207.2200  155.5880 C   0  0  0  0  0  3  0  0  0  0  0  0
  1 11  1  0  0  0  0
  2  6  1  0  0  0  0
  2  4  1  0  0  0  0
  3  7  1  0  0  0  0
  3  5  2  0  0  0  0
  4  8  1  0  0  0  0
  5  9  1  0  0  0  0
  6  1  1  0  0  0  0
  7  2  2  0  0  0  0
  8  1  2  0  0  0  0
  8 20  1  0  0  0  0
  9  4  2  0  0  0  0
 10 12  2  0  0  0  0
 11 12  1  0  0  0  0
 12 13  1  0  0  0  0
 14 13  1  0  0  0  0
 14 15  2  0  0  0  0
 16 15  1  0  0  0  0
 16 18  1  0  0  0  0
 17 16  2  0  0  0  0
 20 19  2  0  0  0  0
 20 21  1  0  0  0  0
 21 22  1  0  0  0  0
 22 23  1  0  0  0  0
 23 24  1  0  0  0  0
 24 27  1  0  0  0  0
 26 25  1  0  0  0  0
 27 26  1  0  0  0  0
 27 25  1  0  0  0  0
M  END
>  <MODEL>
7

>  <REMARK>
 VINA RESULT:      -5.9      2.962      7.413
  Name = 
  10 active torsions:
  status: ('A' for Active; 'I' for Inactive)
    1  A    between atoms: C_1  and  N_17
    2  A    between atoms: C_2  and  C_11
    3  A    between atoms: C_5  and  C_13
    4  A    between atoms: C_5  and  C_16
    5  A    between atoms: N_9  and  C_10
    6  A    between atoms: C_10  and  C_23
    7  A    between atoms: C_13  and  C_19
    8  A    between atoms: C_16  and  N_25
    9  A    between atoms: C_18  and  N_25
   10  A    between atoms: C_19  and  C_26
                            x       y       z     vdW  Elec       q    Type
                         _______ _______ _______ _____ _____    ______ ____

>  <TORSDO>
F 10

$$$$
=
 OpenBabel11042420463D

 27 29  0  0  0  0  0  0  0  0999 V2000
  162.2370  207.7910  148.9620 C   0  0  0  0  0  0  0  0  0  0  0  0
  161.6770  209.8620  150.1970 C   0  0  0  0  0  0  0  0  0  0  0  0
  160.8710  211.1750  151.9810 N   0  0  0  0  0  0  0  0  0  0  0  0
  161.4130  208.7170  150.9230 C   0  0  0  0  0  0  0  0  0  0  0  0
  160.6090  210.0420  152.6970 C   0  0  0  0  0  3  0  0  0  0  0  0
  162.3050  209.4650  148.6970 S   0  0  0  0  0  0  0  0  0  0  0  0
  161.4040  211.1130  150.7280 C   0  0  0  0  0  3  0  0  0  0  0  0
  161.7260  207.5220  150.2440 C   0  0  0  0  0  0  0  0  0  0  0  0
  160.8760  208.8120  152.1680 N   0  0  0  0  0  0  0  0  0  0  0  0
  160.6920  206.4830  146.8240 O   0  0  0  0  0  0  0  0  0  0  0  0
  162.6770  206.7840  148.0400 N   0  0  0  0  0  2  0  0  0  0  0  0
  161.8960  206.1650  147.0120 C   0  0  0  0  0  0  0  0  0  0  0  0
  162.5230  205.1310  146.1390 C   0  0  0  0  0  2  0  0  0  0  0  0
  161.9220  203.8280  146.3810 N   0  0  0  0  0  0  0  0  0  0  0  0
  161.1880  203.2550  145.4830 C   0  0  0  0  0  3  0  0  0  0  0  0
  160.5850  201.9440  145.7280 C   0  0  0  0  0  0  0  0  0  0  0  0
  160.9160  201.2630  146.7340 O   0  0  0  0  0  1  0  0  0  0  0  0
  159.6410  201.4470  144.8400 O   0  0  0  0  0  0  0  0  0  0  0  0
  160.4490  205.1120  150.1290 S   0  0  0  0  0  0  0  0  0  0  0  0
  161.5280  206.1520  150.7920 C   0  0  0  0  0  0  0  0  0  0  0  0
  162.2840  205.6870  151.9930 C   0  0  0  0  0  2  0  0  0  0  0  0
  161.3250  205.4170  153.1400 C   0  0  0  0  0  2  0  0  0  0  0  0
  161.5590  206.4140  154.2600 C   0  0  0  0  0  2  0  0  0  0  0  0
  160.2870  206.8590  154.8020 N   0  0  0  0  0  2  0  0  0  0  0  0
  160.0850  208.8070  156.2260 C   0  0  0  0  0  2  0  0  0  0  0  0
  161.5550  208.5030  156.0380 C   0  0  0  0  0  2  0  0  0  0  0  0
  160.5550  207.3680  156.1340 C   0  0  0  0  0  3  0  0  0  0  0  0
  1  8  2  0  0  0  0
  2  7  2  0  0  0  0
  2  4  1  0  0  0  0
  3  5  2  0  0  0  0
  4  9  2  0  0  0  0
  6  1  1  0  0  0  0
  6  2  1  0  0  0  0
  7  3  1  0  0  0  0
  8 20  1  0  0  0  0
  8  4  1  0  0  0  0
  9  5  1  0  0  0  0
 10 12  2  0  0  0  0
 11  1  1  0  0  0  0
 12 11  1  0  0  0  0
 13 14  1  0  0  0  0
 13 12  1  0  0  0  0
 15 16  1  0  0  0  0
 15 14  2  0  0  0  0
 16 17  1  0  0  0  0
 18 16  2  0  0  0  0
 19 20  2  0  0  0  0
 20 21  1  0  0  0  0
 21 22  1  0  0  0  0
 22 23  1  0  0  0  0
 23 24  1  0  0  0  0
 24 27  1  0  0  0  0
 26 27  1  0  0  0  0
 26 25  1  0  0  0  0
 27 25  1  0  0  0  0
M  END
>  <MODEL>
8

>  <REMARK>
 VINA RESULT:      -5.9      2.304      4.831
  Name = 
  10 active torsions:
  status: ('A' for Active; 'I' for Inactive)
    1  A    between atoms: C_1  and  N_17
    2  A    between atoms: C_2  and  C_11
    3  A    between atoms: C_5  and  C_13
    4  A    between atoms: C_5  and  C_16
    5  A    between atoms: N_9  and  C_10
    6  A    between atoms: C_10  and  C_23
    7  A    between atoms: C_13  and  C_19
    8  A    between atoms: C_16  and  N_25
    9  A    between atoms: C_18  and  N_25
   10  A    between atoms: C_19  and  C_26
                            x       y       z     vdW  Elec       q    Type
                         _______ _______ _______ _____ _____    ______ ____

>  <TORSDO>
F 10

$$$$
=
 OpenBabel11042420463D

 27 29  0  0  0  0  0  0  0  0999 V2000
  161.3370  205.6340  151.0060 C   0  0  0  0  0  0  0  0  0  0  0  0
  161.0120  206.5040  153.3020 C   0  0  0  0  0  0  0  0  0  0  0  0
  160.8140  208.1260  155.0000 N   0  0  0  0  0  0  0  0  0  0  0  0
  161.1490  207.5080  152.3620 C   0  0  0  0  0  0  0  0  0  0  0  0
  160.9520  209.1170  154.0710 C   0  0  0  0  0  3  0  0  0  0  0  0
  161.1070  205.0040  152.5650 S   0  0  0  0  0  0  0  0  0  0  0  0
  160.8420  206.8110  154.6430 C   0  0  0  0  0  3  0  0  0  0  0  0
  161.3320  207.0390  151.0450 C   0  0  0  0  0  0  0  0  0  0  0  0
  161.1230  208.8090  152.7520 N   0  0  0  0  0  0  0  0  0  0  0  0
  160.3560  202.9070  150.4840 O   0  0  0  0  0  0  0  0  0  0  0  0
  161.4720  204.8590  149.8070 N   0  0  0  0  0  2  0  0  0  0  0  0
  160.9840  203.5310  149.5880 C   0  0  0  0  0  0  0  0  0  0  0  0
  161.2160  202.8750  148.2690 C   0  0  0  0  0  2  0  0  0  0  0  0
  161.7710  203.8260  147.3180 N   0  0  0  0  0  0  0  0  0  0  0  0
  161.2380  203.9890  146.1500 C   0  0  0  0  0  3  0  0  0  0  0  0
  161.7970  204.9470  145.1950 C   0  0  0  0  0  0  0  0  0  0  0  0
  162.7860  205.6610  145.5060 O   0  0  0  0  0  1  0  0  0  0  0  0
  161.2290  205.0690  143.9340 O   0  0  0  0  0  0  0  0  0  0  0  0
  161.1910  207.3640  148.3380 S   0  0  0  0  0  0  0  0  0  0  0  0
  161.5180  207.9070  149.8490 C   0  0  0  0  0  0  0  0  0  0  0  0
  162.0450  209.2970  149.9830 C   0  0  0  0  0  2  0  0  0  0  0  0
  161.9960  210.0050  148.6400 C   0  0  0  0  0  2  0  0  0  0  0  0
  162.2010  211.4960  148.8290 C   0  0  0  0  0  2  0  0  0  0  0  0
  161.2470  212.2360  148.0190 N   0  0  0  0  0  2  0  0  0  0  0  0
  161.1960  213.9960  146.3580 C   0  0  0  0  0  2  0  0  0  0  0  0
  162.4630  213.1920  146.1630 C   0  0  0  0  0  2  0  0  0  0  0  0
  161.9270  213.4320  147.5600 C   0  0  0  0  0  3  0  0  0  0  0  0
  1  8  2  0  0  0  0
  1  6  1  0  0  0  0
  2  7  1  0  0  0  0
  4  9  1  0  0  0  0
  4  2  2  0  0  0  0
  5  3  1  0  0  0  0
  6  2  1  0  0  0  0
  7  3  2  0  0  0  0
  8  4  1  0  0  0  0
  9  5  2  0  0  0  0
 11  1  1  0  0  0  0
 12 11  1  0  0  0  0
 12 10  2  0  0  0  0
 13 12  1  0  0  0  0
 14 13  1  0  0  0  0
 15 14  2  0  0  0  0
 16 17  1  0  0  0  0
 16 15  1  0  0  0  0
 18 16  2  0  0  0  0
 19 20  2  0  0  0  0
 20 21  1  0  0  0  0
 20  8  1  0  0  0  0
 22 23  1  0  0  0  0
 22 21  1  0  0  0  0
 24 23  1  0  0  0  0
 25 27  1  0  0  0  0
 26 25  1  0  0  0  0
 26 27  1  0  0  0  0
 27 24  1  0  0  0  0
M  END
>  <MODEL>
9

>  <REMARK>
 VINA RESULT:      -5.9      3.108      5.840
  Name = 
  10 active torsions:
  status: ('A' for Active; 'I' for Inactive)
    1  A    between atoms: C_1  and  N_17
    2  A    between atoms: C_2  and  C_11
    3  A    between atoms: C_5  and  C_13
    4  A    between atoms: C_5  and  C_16
    5  A    between atoms: N_9  and  C_10
    6  A    between atoms: C_10  and  C_23
    7  A    between atoms: C_13  and  C_19
    8  A    between atoms: C_16  and  N_25
    9  A    between atoms: C_18  and  N_25
   10  A    between atoms: C_19  and  C_26
                            x       y       z     vdW  Elec       q    Type
                         _______ _______ _______ _____ _____    ______ ____

>  <TORSDO>
F 10

$$$$
