=
 OpenBabel11042422463D

 38 40  0  0  1  0  0  0  0  0999 V2000
  162.0100  208.9660  149.9370 C   0  0  0  0  0  0  0  0  0  0  0  0
  161.9610  210.2970  149.7720 C   0  0  0  0  0  3  0  0  0  0  0  0
  161.6610  208.3470  151.2420 C   0  0  0  0  0  0  0  0  0  0  0  0
  161.0660  206.4260  152.6340 C   0  0  0  0  0  0  0  0  0  0  0  0
  161.3960  209.2570  152.4340 C   0  0  0  0  0  2  0  0  0  0  0  0
  161.1410  208.5470  153.7590 C   0  0  0  0  0  3  0  0  0  0  0  0
  161.4710  207.0250  151.3890 C   0  0  0  0  0  0  0  0  0  0  0  0
  161.5370  206.0230  150.3870 N   0  0  0  0  0  0  0  0  0  0  0  0
  160.9490  207.2260  153.8670 C   0  0  0  0  0  0  0  0  0  0  0  0
  160.9040  205.1270  152.4290 C   0  0  0  0  0  3  0  0  0  0  0  0
  161.2130  204.9230  150.9980 C   0  0  0  0  0  0  0  0  0  0  0  0
  161.1020  203.5830  148.8980 C   0  0  0  0  0  3  0  0  0  0  0  0
  160.9910  201.1650  148.9700 C   0  0  0  0  0  3  0  0  0  0  0  0
  161.0490  202.3540  148.2370 C   0  0  0  0  0  3  0  0  0  0  0  0
  160.9690  201.2060  150.3670 C   0  0  0  0  0  3  0  0  0  0  0  0
  161.1060  203.6310  150.2990 C   0  0  0  0  0  0  0  0  0  0  0  0
  161.0300  202.4360  151.0300 C   0  0  0  0  0  3  0  0  0  0  0  0
  160.0930  207.4180  156.1990 C   0  0  0  0  0  1  0  0  0  0  0  0
  160.6800  206.6840  155.1320 O   0  0  0  0  0  0  0  0  0  0  0  0
  162.3590  208.0750  148.7820 C   0  0  0  0  0  2  0  0  0  0  0  0
  161.2620  207.9270  147.9370 O   0  0  0  0  0  0  0  0  0  0  0  0
  161.6260  206.9440  147.0770 N   0  0  0  0  0  2  0  0  0  0  0  0
  160.4590  206.2390  146.7510 N   0  0  0  0  0  2  0  0  0  0  0  0
  160.4750  206.0570  145.3070 C   0  0  0  0  0  2  0  0  0  0  0  0
  161.3000  204.8670  144.9540 C   0  0  0  0  0  3  0  0  0  0  0  0
  160.7890  203.7600  144.8980 O   0  0  0  0  0  0  0  0  0  0  0  0
  162.2960  210.9930  148.4920 C   0  0  0  0  0  2  0  0  0  0  0  0
  161.9930  212.4760  148.6220 C   0  0  0  0  0  2  0  0  0  0  0  0
  160.6490  212.7360  148.1450 N   0  0  0  0  0  2  0  0  0  0  0  0
  160.6020  212.2910  146.7610 C   0  0  0  0  0  2  0  0  0  0  0  0
  160.7930  213.4840  145.8390 C   0  0  0  0  0  2  0  0  0  0  0  0
  162.2070  212.9390  143.8170 C   0  0  0  0  0  0  0  0  0  0  0  0
  160.9340  213.0320  144.4630 N   0  0  0  0  0  2  0  0  0  0  0  0
  163.2520  213.3260  144.4050 O   0  0  0  0  0  0  0  0  0  0  0  0
  161.1260  211.7520  142.0630 O   0  0  0  0  0  1  0  0  0  0  0  0
  162.3090  212.3990  142.4270 C   0  0  1  0  0  3  0  0  0  0  0  0
  162.3510  213.0850  140.1180 O   0  0  0  0  0  1  0  0  0  0  0  0
  162.6590  213.4900  141.4200 C   0  0  0  0  0  2  0  0  0  0  0  0
  1  3  1  0  0  0  0
  2  1  2  0  0  0  0
  3  7  2  0  0  0  0
  3  5  1  0  0  0  0
  4  9  1  0  0  0  0
  5  6  1  0  0  0  0
  6  9  2  0  0  0  0
  7  4  1  0  0  0  0
  8 11  2  0  0  0  0
  8  7  1  0  0  0  0
  9 19  1  0  0  0  0
 10  4  2  0  0  0  0
 11 10  1  0  0  0  0
 12 16  1  0  0  0  0
 13 15  2  0  0  0  0
 14 12  2  0  0  0  0
 14 13  1  0  0  0  0
 15 17  1  0  0  0  0
 16 11  1  0  0  0  0
 16 17  2  0  0  0  0
 19 18  1  0  0  0  0
 20  1  1  0  0  0  0
 21 20  1  0  0  0  0
 22 21  1  0  0  0  0
 23 22  1  0  0  0  0
 24 23  1  0  0  0  0
 25 24  1  0  0  0  0
 26 25  2  0  0  0  0
 27 28  1  0  0  0  0
 27  2  1  0  0  0  0
 29 28  1  0  0  0  0
 30 29  1  0  0  0  0
 31 30  1  0  0  0  0
 32 34  2  0  0  0  0
 32 33  1  0  0  0  0
 33 31  1  0  0  0  0
 36 35  1  6  0  0  0
 36 32  1  0  0  0  0
 37 38  1  0  0  0  0
 38 36  1  0  0  0  0
M  END
>  <MODEL>
1

>  <REMARK>
 VINA RESULT:      -8.1      0.000      0.000
  Name = 
  17 active torsions:
  status: ('A' for Active; 'I' for Inactive)
    1  A    between atoms: C_1  and  C_11
    2  A    between atoms: C_3  and  C_38
    3  A    between atoms: N_4  and  C_23
    4  A    between atoms: C_5  and  C_6
    5  A    between atoms: C_5  and  N_7
    6  A    between atoms: C_6  and  C_21
    7  A    between atoms: N_7  and  C_31
    8  A    between atoms: C_11  and  C_27
    9  A    between atoms: N_18  and  N_20
   10  A    between atoms: N_18  and  O_36
   11  A    between atoms: C_19  and  C_32
   12  A    between atoms: N_20  and  C_32
   13  A    between atoms: C_23  and  C_31
   14  A    between atoms: C_24  and  C_38
   15  A    between atoms: O_26  and  C_28
   16  A    between atoms: C_27  and  O_36
   17  A    between atoms: C_30  and  C_35
                            x       y       z     vdW  Elec       q    Type
                         _______ _______ _______ _____ _____    ______ ____

>  <TORSDO>
F 17

$$$$
=
 OpenBabel11042422463D

 38 40  0  0  1  0  0  0  0  0999 V2000
  161.9260  208.9570  149.8340 C   0  0  0  0  0  0  0  0  0  0  0  0
  161.9340  210.2890  149.6670 C   0  0  0  0  0  3  0  0  0  0  0  0
  161.5980  208.3580  151.1530 C   0  0  0  0  0  0  0  0  0  0  0  0
  161.0550  206.4520  152.5880 C   0  0  0  0  0  0  0  0  0  0  0  0
  161.3190  209.2850  152.3280 C   0  0  0  0  0  2  0  0  0  0  0  0
  161.0870  208.5970  153.6680 C   0  0  0  0  0  3  0  0  0  0  0  0
  161.4400  207.0340  151.3290 C   0  0  0  0  0  0  0  0  0  0  0  0
  161.5240  206.0140  150.3470 N   0  0  0  0  0  0  0  0  0  0  0  0
  160.9270  207.2740  153.8050 C   0  0  0  0  0  0  0  0  0  0  0  0
  160.9230  205.1460  152.4100 C   0  0  0  0  0  3  0  0  0  0  0  0
  161.2300  204.9200  150.9820 C   0  0  0  0  0  0  0  0  0  0  0  0
  161.1120  202.4300  151.0660 C   0  0  0  0  0  3  0  0  0  0  0  0
  160.9040  201.1260  149.0350 C   0  0  0  0  0  3  0  0  0  0  0  0
  160.9860  201.1930  150.4300 C   0  0  0  0  0  3  0  0  0  0  0  0
  160.9660  202.2970  148.2750 C   0  0  0  0  0  3  0  0  0  0  0  0
  161.1490  203.6120  150.3110 C   0  0  0  0  0  0  0  0  0  0  0  0
  161.0830  203.5380  148.9110 C   0  0  0  0  0  3  0  0  0  0  0  0
  159.8530  207.3900  156.0500 C   0  0  0  0  0  1  0  0  0  0  0  0
  160.6770  206.7520  155.0830 O   0  0  0  0  0  0  0  0  0  0  0  0
  162.1890  208.0490  148.6700 C   0  0  0  0  0  2  0  0  0  0  0  0
  161.0720  207.9950  147.8380 O   0  0  0  0  0  0  0  0  0  0  0  0
  161.0880  206.7370  147.3320 N   0  0  0  0  0  2  0  0  0  0  0  0
  162.4180  206.4550  146.9900 N   0  0  0  0  0  2  0  0  0  0  0  0
  162.3820  205.3110  146.0910 C   0  0  0  0  0  2  0  0  0  0  0  0
  161.2090  205.4200  145.1760 C   0  0  0  0  0  3  0  0  0  0  0  0
  161.3770  205.6290  143.9860 O   0  0  0  0  0  0  0  0  0  0  0  0
  162.2520  210.9660  148.3730 C   0  0  0  0  0  2  0  0  0  0  0  0
  161.9740  212.4550  148.4930 C   0  0  0  0  0  2  0  0  0  0  0  0
  161.0340  212.6820  149.5730 N   0  0  0  0  0  2  0  0  0  0  0  0
  159.9920  213.5500  149.0480 C   0  0  0  0  0  2  0  0  0  0  0  0
  158.9910  213.8640  150.1470 C   0  0  0  0  0  2  0  0  0  0  0  0
  158.3310  212.9150  152.3940 C   0  0  0  0  0  0  0  0  0  0  0  0
  159.2640  213.0430  151.3170 N   0  0  0  0  0  2  0  0  0  0  0  0
  157.2620  213.5820  152.3970 O   0  0  0  0  0  0  0  0  0  0  0  0
  159.9300  212.1890  153.9970 O   0  0  0  0  0  1  0  0  0  0  0  0
  158.6240  212.0020  153.5400 C   0  0  1  0  0  3  0  0  0  0  0  0
  156.6240  211.2070  154.6220 O   0  0  0  0  0  1  0  0  0  0  0  0
  157.6250  212.1810  154.6790 C   0  0  0  0  0  2  0  0  0  0  0  0
  1  3  1  0  0  0  0
  2  1  2  0  0  0  0
  3  7  2  0  0  0  0
  3  5  1  0  0  0  0
  4  9  1  0  0  0  0
  5  6  1  0  0  0  0
  6  9  2  0  0  0  0
  7  4  1  0  0  0  0
  8 11  2  0  0  0  0
  8  7  1  0  0  0  0
  9 19  1  0  0  0  0
 10  4  2  0  0  0  0
 11 10  1  0  0  0  0
 13 14  2  0  0  0  0
 14 12  1  0  0  0  0
 15 17  2  0  0  0  0
 15 13  1  0  0  0  0
 16 11  1  0  0  0  0
 16 12  2  0  0  0  0
 17 16  1  0  0  0  0
 19 18  1  0  0  0  0
 20  1  1  0  0  0  0
 21 20  1  0  0  0  0
 22 21  1  0  0  0  0
 23 22  1  0  0  0  0
 24 23  1  0  0  0  0
 25 24  1  0  0  0  0
 26 25  2  0  0  0  0
 27 28  1  0  0  0  0
 27  2  1  0  0  0  0
 28 29  1  0  0  0  0
 30 29  1  0  0  0  0
 30 31  1  0  0  0  0
 31 33  1  0  0  0  0
 32 34  2  0  0  0  0
 32 36  1  0  0  0  0
 33 32  1  0  0  0  0
 36 35  1  1  0  0  0
 36 38  1  0  0  0  0
 37 38  1  0  0  0  0
M  END
>  <MODEL>
2

>  <REMARK>
 VINA RESULT:      -7.7      2.897      5.227
  Name = 
  17 active torsions:
  status: ('A' for Active; 'I' for Inactive)
    1  A    between atoms: C_1  and  C_11
    2  A    between atoms: C_3  and  C_38
    3  A    between atoms: N_4  and  C_23
    4  A    between atoms: C_5  and  C_6
    5  A    between atoms: C_5  and  N_7
    6  A    between atoms: C_6  and  C_21
    7  A    between atoms: N_7  and  C_31
    8  A    between atoms: C_11  and  C_27
    9  A    between atoms: N_18  and  N_20
   10  A    between atoms: N_18  and  O_36
   11  A    between atoms: C_19  and  C_32
   12  A    between atoms: N_20  and  C_32
   13  A    between atoms: C_23  and  C_31
   14  A    between atoms: C_24  and  C_38
   15  A    between atoms: O_26  and  C_28
   16  A    between atoms: C_27  and  O_36
   17  A    between atoms: C_30  and  C_35
                            x       y       z     vdW  Elec       q    Type
                         _______ _______ _______ _____ _____    ______ ____

>  <TORSDO>
F 17

$$$$
=
 OpenBabel11042422463D

 38 40  0  0  1  0  0  0  0  0999 V2000
  161.7200  208.7880  151.3890 C   0  0  0  0  0  0  0  0  0  0  0  0
  161.9740  209.2610  150.1590 C   0  0  0  0  0  3  0  0  0  0  0  0
  161.5040  207.3350  151.6160 C   0  0  0  0  0  0  0  0  0  0  0  0
  161.1450  205.0510  150.8150 C   0  0  0  0  0  0  0  0  0  0  0  0
  161.2540  206.8460  153.0360 C   0  0  0  0  0  2  0  0  0  0  0  0
  161.1390  205.3350  153.2000 C   0  0  0  0  0  3  0  0  0  0  0  0
  161.4210  206.4490  150.6080 C   0  0  0  0  0  0  0  0  0  0  0  0
  161.4940  206.7110  149.2160 N   0  0  0  0  0  0  0  0  0  0  0  0
  161.0530  204.4810  152.1720 C   0  0  0  0  0  0  0  0  0  0  0  0
  161.0650  204.4710  149.6270 C   0  0  0  0  0  3  0  0  0  0  0  0
  161.2920  205.5590  148.6520 C   0  0  0  0  0  0  0  0  0  0  0  0
  160.5020  206.2940  146.4040 C   0  0  0  0  0  3  0  0  0  0  0  0
  161.1940  205.1240  144.3990 C   0  0  0  0  0  3  0  0  0  0  0  0
  160.4870  206.1630  145.0130 C   0  0  0  0  0  3  0  0  0  0  0  0
  161.9040  204.2060  145.1770 C   0  0  0  0  0  3  0  0  0  0  0  0
  161.2330  205.3910  147.1900 C   0  0  0  0  0  0  0  0  0  0  0  0
  161.9270  204.3420  146.5700 C   0  0  0  0  0  3  0  0  0  0  0  0
  161.6410  202.0940  151.7710 C   0  0  0  0  0  1  0  0  0  0  0  0
  160.9080  203.1120  152.4400 O   0  0  0  0  0  0  0  0  0  0  0  0
  161.7110  209.7150  152.5670 C   0  0  0  0  0  2  0  0  0  0  0  0
  160.4240  210.2000  152.7910 O   0  0  0  0  0  0  0  0  0  0  0  0
  160.2920  210.2020  154.1400 N   0  0  0  0  0  2  0  0  0  0  0  0
  161.3700  210.9390  154.6500 N   0  0  0  0  0  2  0  0  0  0  0  0
  161.4950  210.5730  156.0540 C   0  0  0  0  0  2  0  0  0  0  0  0
  161.2140  209.1190  156.2270 C   0  0  0  0  0  3  0  0  0  0  0  0
  162.0680  208.3790  156.6880 O   0  0  0  0  0  0  0  0  0  0  0  0
  162.2030  210.7050  149.8510 C   0  0  0  0  0  2  0  0  0  0  0  0
  162.0490  210.9410  148.3580 C   0  0  0  0  0  2  0  0  0  0  0  0
  161.8850  212.3590  148.1090 N   0  0  0  0  0  2  0  0  0  0  0  0
  160.5800  212.5290  147.4920 C   0  0  0  0  0  2  0  0  0  0  0  0
  160.6110  213.7330  146.5640 C   0  0  0  0  0  2  0  0  0  0  0  0
  160.4920  212.9570  144.1620 C   0  0  0  0  0  0  0  0  0  0  0  0
  161.2460  213.3730  145.3050 N   0  0  0  0  0  2  0  0  0  0  0  0
  159.2430  212.8130  144.2380 O   0  0  0  0  0  0  0  0  0  0  0  0
  162.5360  212.3970  143.0830 O   0  0  0  0  0  1  0  0  0  0  0  0
  161.1830  212.6690  142.8690 C   0  0  1  0  0  3  0  0  0  0  0  0
  161.3830  210.9840  141.1580 O   0  0  0  0  0  1  0  0  0  0  0  0
  160.5170  211.5230  142.1130 C   0  0  0  0  0  2  0  0  0  0  0  0
  1  3  1  0  0  0  0
  1 20  1  0  0  0  0
  2  1  2  0  0  0  0
  3  5  1  0  0  0  0
  4  9  1  0  0  0  0
  5  6  1  0  0  0  0
  7  4  1  0  0  0  0
  7  3  2  0  0  0  0
  8  7  1  0  0  0  0
  9 19  1  0  0  0  0
  9  6  2  0  0  0  0
 10  4  2  0  0  0  0
 11  8  2  0  0  0  0
 11 10  1  0  0  0  0
 12 16  1  0  0  0  0
 13 14  1  0  0  0  0
 13 15  2  0  0  0  0
 14 12  2  0  0  0  0
 15 17  1  0  0  0  0
 16 11  1  0  0  0  0
 17 16  2  0  0  0  0
 18 19  1  0  0  0  0
 20 21  1  0  0  0  0
 21 22  1  0  0  0  0
 22 23  1  0  0  0  0
 23 24  1  0  0  0  0
 24 25  1  0  0  0  0
 25 26  2  0  0  0  0
 27  2  1  0  0  0  0
 28 27  1  0  0  0  0
 29 28  1  0  0  0  0
 30 29  1  0  0  0  0
 31 30  1  0  0  0  0
 32 34  2  0  0  0  0
 32 33  1  0  0  0  0
 33 31  1  0  0  0  0
 36 35  1  1  0  0  0
 36 32  1  0  0  0  0
 37 38  1  0  0  0  0
 38 36  1  0  0  0  0
M  END
>  <MODEL>
3

>  <REMARK>
 VINA RESULT:      -7.4      2.194      5.028
  Name = 
  17 active torsions:
  status: ('A' for Active; 'I' for Inactive)
    1  A    between atoms: C_1  and  C_11
    2  A    between atoms: C_3  and  C_38
    3  A    between atoms: N_4  and  C_23
    4  A    between atoms: C_5  and  C_6
    5  A    between atoms: C_5  and  N_7
    6  A    between atoms: C_6  and  C_21
    7  A    between atoms: N_7  and  C_31
    8  A    between atoms: C_11  and  C_27
    9  A    between atoms: N_18  and  N_20
   10  A    between atoms: N_18  and  O_36
   11  A    between atoms: C_19  and  C_32
   12  A    between atoms: N_20  and  C_32
   13  A    between atoms: C_23  and  C_31
   14  A    between atoms: C_24  and  C_38
   15  A    between atoms: O_26  and  C_28
   16  A    between atoms: C_27  and  O_36
   17  A    between atoms: C_30  and  C_35
                            x       y       z     vdW  Elec       q    Type
                         _______ _______ _______ _____ _____    ______ ____

>  <TORSDO>
F 17

$$$$
=
 OpenBabel11042422463D

 38 40  0  0  1  0  0  0  0  0999 V2000
  161.3150  208.7390  151.4120 C   0  0  0  0  0  0  0  0  0  0  0  0
  162.0140  209.2540  150.3880 C   0  0  0  0  0  3  0  0  0  0  0  0
  161.2700  207.2710  151.6400 C   0  0  0  0  0  0  0  0  0  0  0  0
  161.1650  204.9610  150.8420 C   0  0  0  0  0  0  0  0  0  0  0  0
  161.0930  206.7570  153.0620 C   0  0  0  0  0  2  0  0  0  0  0  0
  161.1540  205.2440  153.2270 C   0  0  0  0  0  3  0  0  0  0  0  0
  161.2780  206.3810  150.6330 C   0  0  0  0  0  0  0  0  0  0  0  0
  161.3040  206.6490  149.2400 N   0  0  0  0  0  0  0  0  0  0  0  0
  161.1540  204.3850  152.1990 C   0  0  0  0  0  0  0  0  0  0  0  0
  161.1390  204.3740  149.6540 C   0  0  0  0  0  3  0  0  0  0  0  0
  161.2300  205.4800  148.6780 C   0  0  0  0  0  0  0  0  0  0  0  0
  161.7350  204.1690  146.6170 C   0  0  0  0  0  3  0  0  0  0  0  0
  160.9880  204.9320  144.4430 C   0  0  0  0  0  3  0  0  0  0  0  0
  161.6380  203.9810  145.2360 C   0  0  0  0  0  3  0  0  0  0  0  0
  160.4490  206.0800  145.0290 C   0  0  0  0  0  3  0  0  0  0  0  0
  161.1740  205.3060  147.2160 C   0  0  0  0  0  0  0  0  0  0  0  0
  160.5380  206.2650  146.4140 C   0  0  0  0  0  3  0  0  0  0  0  0
  161.2130  202.0070  151.4600 C   0  0  0  0  0  1  0  0  0  0  0  0
  161.1700  203.0080  152.4680 O   0  0  0  0  0  0  0  0  0  0  0  0
  160.6170  209.6460  152.3800 C   0  0  0  0  0  2  0  0  0  0  0  0
  161.5420  210.2520  153.2270 O   0  0  0  0  0  0  0  0  0  0  0  0
  160.8670  210.4390  154.3890 N   0  0  0  0  0  2  0  0  0  0  0  0
  159.6020  210.9360  154.0450 N   0  0  0  0  0  2  0  0  0  0  0  0
  159.6750  212.3830  154.1810 C   0  0  0  0  0  2  0  0  0  0  0  0
  159.1380  213.0360  152.9520 C   0  0  0  0  0  3  0  0  0  0  0  0
  159.8060  213.0680  151.9320 O   0  0  0  0  0  0  0  0  0  0  0  0
  162.1090  210.7160  150.0940 C   0  0  0  0  0  2  0  0  0  0  0  0
  162.1870  210.9320  148.5920 C   0  0  0  0  0  2  0  0  0  0  0  0
  162.5540  212.3080  148.3220 N   0  0  0  0  0  2  0  0  0  0  0  0
  161.4080  213.1270  148.6830 C   0  0  0  0  0  2  0  0  0  0  0  0
  160.5310  213.3380  147.4600 C   0  0  0  0  0  2  0  0  0  0  0  0
  161.0830  213.0860  145.0070 C   0  0  0  0  0  0  0  0  0  0  0  0
  161.3580  213.6340  146.3010 N   0  0  0  0  0  2  0  0  0  0  0  0
  160.1490  212.2560  144.8490 O   0  0  0  0  0  0  0  0  0  0  0  0
  163.2370  213.0510  143.9990 O   0  0  0  0  0  1  0  0  0  0  0  0
  161.9180  213.4780  143.8310 C   0  0  1  0  0  3  0  0  0  0  0  0
  162.0780  211.8500  142.0630 O   0  0  0  0  0  1  0  0  0  0  0  0
  161.3410  212.9450  142.5230 C   0  0  0  0  0  2  0  0  0  0  0  0
  1  3  1  0  0  0  0
  1 20  1  0  0  0  0
  2  1  2  0  0  0  0
  3  5  1  0  0  0  0
  4  9  1  0  0  0  0
  5  6  1  0  0  0  0
  7  4  1  0  0  0  0
  7  3  2  0  0  0  0
  8  7  1  0  0  0  0
  9 19  1  0  0  0  0
  9  6  2  0  0  0  0
 10  4  2  0  0  0  0
 11  8  2  0  0  0  0
 11 10  1  0  0  0  0
 12 16  1  0  0  0  0
 13 15  2  0  0  0  0
 13 14  1  0  0  0  0
 14 12  2  0  0  0  0
 15 17  1  0  0  0  0
 16 11  1  0  0  0  0
 17 16  2  0  0  0  0
 18 19  1  0  0  0  0
 20 21  1  0  0  0  0
 21 22  1  0  0  0  0
 23 24  1  0  0  0  0
 23 22  1  0  0  0  0
 25 24  1  0  0  0  0
 26 25  2  0  0  0  0
 27  2  1  0  0  0  0
 28 27  1  0  0  0  0
 29 28  1  0  0  0  0
 29 30  1  0  0  0  0
 31 30  1  0  0  0  0
 32 33  1  0  0  0  0
 33 31  1  0  0  0  0
 34 32  2  0  0  0  0
 36 35  1  1  0  0  0
 36 32  1  0  0  0  0
 37 38  1  0  0  0  0
 38 36  1  0  0  0  0
M  END
>  <MODEL>
4

>  <REMARK>
 VINA RESULT:      -7.3      2.503      4.937
  Name = 
  17 active torsions:
  status: ('A' for Active; 'I' for Inactive)
    1  A    between atoms: C_1  and  C_11
    2  A    between atoms: C_3  and  C_38
    3  A    between atoms: N_4  and  C_23
    4  A    between atoms: C_5  and  C_6
    5  A    between atoms: C_5  and  N_7
    6  A    between atoms: C_6  and  C_21
    7  A    between atoms: N_7  and  C_31
    8  A    between atoms: C_11  and  C_27
    9  A    between atoms: N_18  and  N_20
   10  A    between atoms: N_18  and  O_36
   11  A    between atoms: C_19  and  C_32
   12  A    between atoms: N_20  and  C_32
   13  A    between atoms: C_23  and  C_31
   14  A    between atoms: C_24  and  C_38
   15  A    between atoms: O_26  and  C_28
   16  A    between atoms: C_27  and  O_36
   17  A    between atoms: C_30  and  C_35
                            x       y       z     vdW  Elec       q    Type
                         _______ _______ _______ _____ _____    ______ ____

>  <TORSDO>
F 17

$$$$
=
 OpenBabel11042422463D

 38 40  0  0  1  0  0  0  0  0999 V2000
  161.3020  208.5500  151.7280 C   0  0  0  0  0  0  0  0  0  0  0  0
  160.4510  209.3020  152.4440 C   0  0  0  0  0  3  0  0  0  0  0  0
  161.2550  207.0670  151.8040 C   0  0  0  0  0  0  0  0  0  0  0  0
  161.1860  204.8500  150.7730 C   0  0  0  0  0  0  0  0  0  0  0  0
  161.0350  206.4110  153.1610 C   0  0  0  0  0  2  0  0  0  0  0  0
  161.0970  204.8890  153.1730 C   0  0  0  0  0  3  0  0  0  0  0  0
  161.2990  206.2840  150.7130 C   0  0  0  0  0  0  0  0  0  0  0  0
  161.3690  206.6920  149.3560 N   0  0  0  0  0  0  0  0  0  0  0  0
  161.1330  204.1390  152.0640 C   0  0  0  0  0  0  0  0  0  0  0  0
  161.2010  204.3870  149.5310 C   0  0  0  0  0  3  0  0  0  0  0  0
  161.3180  205.5860  148.6760 C   0  0  0  0  0  0  0  0  0  0  0  0
  162.2140  204.7490  146.5040 C   0  0  0  0  0  3  0  0  0  0  0  0
  161.2340  205.4480  144.4020 C   0  0  0  0  0  3  0  0  0  0  0  0
  162.1730  204.6890  145.1090 C   0  0  0  0  0  3  0  0  0  0  0  0
  160.3470  206.2790  145.0900 C   0  0  0  0  0  3  0  0  0  0  0  0
  161.3100  205.5620  147.2040 C   0  0  0  0  0  0  0  0  0  0  0  0
  160.3810  206.3330  146.4880 C   0  0  0  0  0  3  0  0  0  0  0  0
  161.0540  201.8470  151.0910 C   0  0  0  0  0  1  0  0  0  0  0  0
  161.1460  202.7420  152.1910 O   0  0  0  0  0  0  0  0  0  0  0  0
  162.2750  209.1990  150.7900 C   0  0  0  0  0  2  0  0  0  0  0  0
  161.8150  210.4580  150.4110 O   0  0  0  0  0  0  0  0  0  0  0  0
  162.0940  210.5360  149.0860 N   0  0  0  0  0  2  0  0  0  0  0  0
  162.2050  211.8990  148.7760 N   0  0  0  0  0  2  0  0  0  0  0  0
  161.5320  212.0900  147.4990 C   0  0  0  0  0  2  0  0  0  0  0  0
  162.3300  213.0060  146.6360 C   0  0  0  0  0  3  0  0  0  0  0  0
  162.1220  213.0540  145.4350 O   0  0  0  0  0  0  0  0  0  0  0  0
  160.4340  210.7970  152.4210 C   0  0  0  0  0  2  0  0  0  0  0  0
  159.0530  211.2990  152.8050 C   0  0  0  0  0  2  0  0  0  0  0  0
  159.1760  212.2760  153.8690 N   0  0  0  0  0  2  0  0  0  0  0  0
  157.9730  212.1680  154.6790 C   0  0  0  0  0  2  0  0  0  0  0  0
  158.0370  210.9000  155.5150 C   0  0  0  0  0  2  0  0  0  0  0  0
  160.0910  209.6580  156.3040 C   0  0  0  0  0  0  0  0  0  0  0  0
  159.2960  210.8470  156.2410 N   0  0  0  0  0  2  0  0  0  0  0  0
  159.6780  208.5850  155.7900 O   0  0  0  0  0  0  0  0  0  0  0  0
  162.0790  208.4590  156.8160 O   0  0  0  0  0  1  0  0  0  0  0  0
  161.4130  209.6720  157.0000 C   0  0  1  0  0  3  0  0  0  0  0  0
  162.6100  210.7180  155.1900 O   0  0  0  0  0  1  0  0  0  0  0  0
  162.2820  210.8400  156.5430 C   0  0  0  0  0  2  0  0  0  0  0  0
  1  3  1  0  0  0  0
  1  2  2  0  0  0  0
  3  5  1  0  0  0  0
  4  9  1  0  0  0  0
  5  6  1  0  0  0  0
  7  4  1  0  0  0  0
  7  3  2  0  0  0  0
  8  7  1  0  0  0  0
  9 19  1  0  0  0  0
  9  6  2  0  0  0  0
 10  4  2  0  0  0  0
 11  8  2  0  0  0  0
 11 10  1  0  0  0  0
 12 16  1  0  0  0  0
 13 15  2  0  0  0  0
 13 14  1  0  0  0  0
 14 12  2  0  0  0  0
 15 17  1  0  0  0  0
 16 11  1  0  0  0  0
 17 16  2  0  0  0  0
 18 19  1  0  0  0  0
 20  1  1  0  0  0  0
 21 20  1  0  0  0  0
 22 21  1  0  0  0  0
 23 22  1  0  0  0  0
 24 23  1  0  0  0  0
 25 24  1  0  0  0  0
 26 25  2  0  0  0  0
 27  2  1  0  0  0  0
 27 28  1  0  0  0  0
 28 29  1  0  0  0  0
 29 30  1  0  0  0  0
 30 31  1  0  0  0  0
 31 33  1  0  0  0  0
 32 36  1  0  0  0  0
 33 32  1  0  0  0  0
 34 32  2  0  0  0  0
 36 35  1  6  0  0  0
 37 38  1  0  0  0  0
 38 36  1  0  0  0  0
M  END
>  <MODEL>
5

>  <REMARK>
 VINA RESULT:      -7.2      2.765      7.713
  Name = 
  17 active torsions:
  status: ('A' for Active; 'I' for Inactive)
    1  A    between atoms: C_1  and  C_11
    2  A    between atoms: C_3  and  C_38
    3  A    between atoms: N_4  and  C_23
    4  A    between atoms: C_5  and  C_6
    5  A    between atoms: C_5  and  N_7
    6  A    between atoms: C_6  and  C_21
    7  A    between atoms: N_7  and  C_31
    8  A    between atoms: C_11  and  C_27
    9  A    between atoms: N_18  and  N_20
   10  A    between atoms: N_18  and  O_36
   11  A    between atoms: C_19  and  C_32
   12  A    between atoms: N_20  and  C_32
   13  A    between atoms: C_23  and  C_31
   14  A    between atoms: C_24  and  C_38
   15  A    between atoms: O_26  and  C_28
   16  A    between atoms: C_27  and  O_36
   17  A    between atoms: C_30  and  C_35
                            x       y       z     vdW  Elec       q    Type
                         _______ _______ _______ _____ _____    ______ ____

>  <TORSDO>
F 17

$$$$
=
 OpenBabel11042422463D

 38 40  0  0  1  0  0  0  0  0999 V2000
  161.2940  208.6720  151.4140 C   0  0  0  0  0  0  0  0  0  0  0  0
  162.0440  209.2250  150.4480 C   0  0  0  0  0  3  0  0  0  0  0  0
  161.2650  207.1980  151.6050 C   0  0  0  0  0  0  0  0  0  0  0  0
  161.2000  204.9080  150.7480 C   0  0  0  0  0  0  0  0  0  0  0  0
  161.0770  206.6470  153.0120 C   0  0  0  0  0  2  0  0  0  0  0  0
  161.1550  205.1300  153.1400 C   0  0  0  0  0  3  0  0  0  0  0  0
  161.2970  206.3340  150.5760 C   0  0  0  0  0  0  0  0  0  0  0  0
  161.3370  206.6370  149.1910 N   0  0  0  0  0  0  0  0  0  0  0  0
  161.1790  204.2980  152.0910 C   0  0  0  0  0  0  0  0  0  0  0  0
  161.1960  204.3510  149.5460 C   0  0  0  0  0  3  0  0  0  0  0  0
  161.2850  205.4820  148.5990 C   0  0  0  0  0  0  0  0  0  0  0  0
  161.9000  204.2710  146.5070 C   0  0  0  0  0  3  0  0  0  0  0  0
  161.1050  205.0320  144.3500 C   0  0  0  0  0  3  0  0  0  0  0  0
  161.8250  204.1140  145.1210 C   0  0  0  0  0  3  0  0  0  0  0  0
  160.4750  206.1180  144.9630 C   0  0  0  0  0  3  0  0  0  0  0  0
  161.2490  205.3440  147.1330 C   0  0  0  0  0  0  0  0  0  0  0  0
  160.5430  206.2710  146.3520 C   0  0  0  0  0  3  0  0  0  0  0  0
  161.1690  201.9370  151.2940 C   0  0  0  0  0  1  0  0  0  0  0  0
  161.2100  202.9150  152.3250 O   0  0  0  0  0  0  0  0  0  0  0  0
  160.5210  209.5410  152.3590 C   0  0  0  0  0  2  0  0  0  0  0  0
  161.3610  210.0440  153.3510 O   0  0  0  0  0  0  0  0  0  0  0  0
  160.5180  210.5680  154.2750 N   0  0  0  0  0  2  0  0  0  0  0  0
  159.4270  211.1000  153.5720 N   0  0  0  0  0  2  0  0  0  0  0  0
  159.3940  212.5230  153.8750 C   0  0  0  0  0  2  0  0  0  0  0  0
  158.9300  213.2850  152.6800 C   0  0  0  0  0  3  0  0  0  0  0  0
  158.3860  212.7050  151.7550 O   0  0  0  0  0  0  0  0  0  0  0  0
  162.1270  210.6950  150.1930 C   0  0  0  0  0  2  0  0  0  0  0  0
  162.0310  210.9620  148.7010 C   0  0  0  0  0  2  0  0  0  0  0  0
  161.8210  212.3800  148.4790 N   0  0  0  0  0  2  0  0  0  0  0  0
  162.4130  212.6950  147.1890 C   0  0  0  0  0  2  0  0  0  0  0  0
  161.6000  213.7860  146.5120 C   0  0  0  0  0  2  0  0  0  0  0  0
  159.1450  213.2920  146.1740 C   0  0  0  0  0  0  0  0  0  0  0  0
  160.2270  213.7520  146.9900 N   0  0  0  0  0  2  0  0  0  0  0  0
  159.3420  212.9720  144.9720 O   0  0  0  0  0  0  0  0  0  0  0  0
  157.0560  212.1560  146.1460 O   0  0  0  0  0  1  0  0  0  0  0  0
  157.7620  213.2070  146.7350 C   0  0  1  0  0  3  0  0  0  0  0  0
  156.5940  213.5660  148.8110 O   0  0  0  0  0  1  0  0  0  0  0  0
  157.7740  213.0650  148.2530 C   0  0  0  0  0  2  0  0  0  0  0  0
  1  3  1  0  0  0  0
  1 20  1  0  0  0  0
  2  1  2  0  0  0  0
  3  5  1  0  0  0  0
  4  9  1  0  0  0  0
  5  6  1  0  0  0  0
  7  4  1  0  0  0  0
  7  3  2  0  0  0  0
  8  7  1  0  0  0  0
  9 19  1  0  0  0  0
  9  6  2  0  0  0  0
 10  4  2  0  0  0  0
 11  8  2  0  0  0  0
 11 10  1  0  0  0  0
 12 16  1  0  0  0  0
 13 15  2  0  0  0  0
 13 14  1  0  0  0  0
 14 12  2  0  0  0  0
 15 17  1  0  0  0  0
 16 11  1  0  0  0  0
 17 16  2  0  0  0  0
 18 19  1  0  0  0  0
 20 21  1  0  0  0  0
 21 22  1  0  0  0  0
 23 24  1  0  0  0  0
 23 22  1  0  0  0  0
 25 24  1  0  0  0  0
 26 25  2  0  0  0  0
 27  2  1  0  0  0  0
 28 27  1  0  0  0  0
 29 28  1  0  0  0  0
 30 29  1  0  0  0  0
 31 33  1  0  0  0  0
 31 30  1  0  0  0  0
 32 36  1  0  0  0  0
 32 33  1  0  0  0  0
 34 32  2  0  0  0  0
 36 35  1  6  0  0  0
 36 38  1  0  0  0  0
 38 37  1  0  0  0  0
M  END
>  <MODEL>
6

>  <REMARK>
 VINA RESULT:      -7.2      3.016      5.564
  Name = 
  17 active torsions:
  status: ('A' for Active; 'I' for Inactive)
    1  A    between atoms: C_1  and  C_11
    2  A    between atoms: C_3  and  C_38
    3  A    between atoms: N_4  and  C_23
    4  A    between atoms: C_5  and  C_6
    5  A    between atoms: C_5  and  N_7
    6  A    between atoms: C_6  and  C_21
    7  A    between atoms: N_7  and  C_31
    8  A    between atoms: C_11  and  C_27
    9  A    between atoms: N_18  and  N_20
   10  A    between atoms: N_18  and  O_36
   11  A    between atoms: C_19  and  C_32
   12  A    between atoms: N_20  and  C_32
   13  A    between atoms: C_23  and  C_31
   14  A    between atoms: C_24  and  C_38
   15  A    between atoms: O_26  and  C_28
   16  A    between atoms: C_27  and  O_36
   17  A    between atoms: C_30  and  C_35
                            x       y       z     vdW  Elec       q    Type
                         _______ _______ _______ _____ _____    ______ ____

>  <TORSDO>
F 17

$$$$
=
 OpenBabel11042422463D

 38 40  0  0  1  0  0  0  0  0999 V2000
  161.4470  206.6020  152.4280 C   0  0  0  0  0  0  0  0  0  0  0  0
  161.2320  205.4250  151.8180 C   0  0  0  0  0  3  0  0  0  0  0  0
  161.6670  207.8400  151.6370 C   0  0  0  0  0  0  0  0  0  0  0  0
  161.9550  209.0300  149.5190 C   0  0  0  0  0  0  0  0  0  0  0  0
  162.0100  209.1270  152.3740 C   0  0  0  0  0  2  0  0  0  0  0  0
  162.1250  210.3730  151.5040 C   0  0  0  0  0  3  0  0  0  0  0  0
  161.6750  207.8490  150.2930 C   0  0  0  0  0  0  0  0  0  0  0  0
  161.5100  206.7440  149.4180 N   0  0  0  0  0  0  0  0  0  0  0  0
  162.1360  210.3440  150.1650 C   0  0  0  0  0  0  0  0  0  0  0  0
  161.9500  208.6910  148.2390 C   0  0  0  0  0  3  0  0  0  0  0  0
  161.6640  207.2410  148.2280 C   0  0  0  0  0  0  0  0  0  0  0  0
  160.5270  206.4870  146.1400 C   0  0  0  0  0  3  0  0  0  0  0  0
  161.5850  204.8960  144.6520 C   0  0  0  0  0  3  0  0  0  0  0  0
  160.5110  205.7360  144.9620 C   0  0  0  0  0  3  0  0  0  0  0  0
  162.6690  204.7940  145.5280 C   0  0  0  0  0  3  0  0  0  0  0  0
  161.6220  206.4100  147.0120 C   0  0  0  0  0  0  0  0  0  0  0  0
  162.6900  205.5530  146.7040 C   0  0  0  0  0  3  0  0  0  0  0  0
  161.2010  212.3230  148.9750 C   0  0  0  0  0  1  0  0  0  0  0  0
  162.2880  211.5490  149.4640 O   0  0  0  0  0  0  0  0  0  0  0  0
  161.4070  206.6940  153.9240 C   0  0  0  0  0  2  0  0  0  0  0  0
  160.1210  207.0130  154.3540 O   0  0  0  0  0  0  0  0  0  0  0  0
  160.2440  207.1850  155.6940 N   0  0  0  0  0  2  0  0  0  0  0  0
  161.2170  208.1760  155.8870 N   0  0  0  0  0  2  0  0  0  0  0  0
  160.6040  209.2010  156.7190 C   0  0  0  0  0  2  0  0  0  0  0  0
  159.6660  210.0240  155.9030 C   0  0  0  0  0  3  0  0  0  0  0  0
  160.0700  210.6230  154.9200 O   0  0  0  0  0  0  0  0  0  0  0  0
  161.0020  204.1380  152.5430 C   0  0  0  0  0  2  0  0  0  0  0  0
  161.1960  202.9730  151.5890 C   0  0  0  0  0  2  0  0  0  0  0  0
  160.2750  203.1020  150.4770 N   0  0  0  0  0  2  0  0  0  0  0  0
  160.0040  201.7560  149.9970 C   0  0  0  0  0  2  0  0  0  0  0  0
  161.3120  201.0780  149.6270 C   0  0  0  0  0  2  0  0  0  0  0  0
  161.0270  201.3250  147.1280 C   0  0  0  0  0  0  0  0  0  0  0  0
  161.2180  200.5120  148.2900 N   0  0  0  0  0  2  0  0  0  0  0  0
  160.8550  202.5680  147.2390 O   0  0  0  0  0  0  0  0  0  0  0  0
  161.2460  199.3310  145.8520 O   0  0  0  0  0  1  0  0  0  0  0  0
  161.0100  200.7040  145.7690 C   0  0  1  0  0  3  0  0  0  0  0  0
  159.7020  202.2650  144.4820 O   0  0  0  0  0  1  0  0  0  0  0  0
  159.7010  200.9820  145.0350 C   0  0  0  0  0  2  0  0  0  0  0  0
  1 20  1  0  0  0  0
  2  1  2  0  0  0  0
  2 27  1  0  0  0  0
  3  5  1  0  0  0  0
  3  1  1  0  0  0  0
  4  9  1  0  0  0  0
  4  7  1  0  0  0  0
  6  5  1  0  0  0  0
  7  3  2  0  0  0  0
  8  7  1  0  0  0  0
  9  6  2  0  0  0  0
 10  4  2  0  0  0  0
 11 10  1  0  0  0  0
 11  8  2  0  0  0  0
 12 16  1  0  0  0  0
 13 14  1  0  0  0  0
 13 15  2  0  0  0  0
 14 12  2  0  0  0  0
 15 17  1  0  0  0  0
 16 11  1  0  0  0  0
 17 16  2  0  0  0  0
 18 19  1  0  0  0  0
 19  9  1  0  0  0  0
 20 21  1  0  0  0  0
 21 22  1  0  0  0  0
 22 23  1  0  0  0  0
 23 24  1  0  0  0  0
 25 24  1  0  0  0  0
 26 25  2  0  0  0  0
 28 27  1  0  0  0  0
 29 28  1  0  0  0  0
 30 29  1  0  0  0  0
 31 30  1  0  0  0  0
 32 34  2  0  0  0  0
 32 33  1  0  0  0  0
 33 31  1  0  0  0  0
 36 35  1  1  0  0  0
 36 32  1  0  0  0  0
 37 38  1  0  0  0  0
 38 36  1  0  0  0  0
M  END
>  <MODEL>
7

>  <REMARK>
 VINA RESULT:      -7.2      3.599      8.512
  Name = 
  17 active torsions:
  status: ('A' for Active; 'I' for Inactive)
    1  A    between atoms: C_1  and  C_11
    2  A    between atoms: C_3  and  C_38
    3  A    between atoms: N_4  and  C_23
    4  A    between atoms: C_5  and  C_6
    5  A    between atoms: C_5  and  N_7
    6  A    between atoms: C_6  and  C_21
    7  A    between atoms: N_7  and  C_31
    8  A    between atoms: C_11  and  C_27
    9  A    between atoms: N_18  and  N_20
   10  A    between atoms: N_18  and  O_36
   11  A    between atoms: C_19  and  C_32
   12  A    between atoms: N_20  and  C_32
   13  A    between atoms: C_23  and  C_31
   14  A    between atoms: C_24  and  C_38
   15  A    between atoms: O_26  and  C_28
   16  A    between atoms: C_27  and  O_36
   17  A    between atoms: C_30  and  C_35
                            x       y       z     vdW  Elec       q    Type
                         _______ _______ _______ _____ _____    ______ ____

>  <TORSDO>
F 17

$$$$
=
 OpenBabel11042422463D

 38 40  0  0  1  0  0  0  0  0999 V2000
  161.4010  208.1320  151.6340 C   0  0  0  0  0  0  0  0  0  0  0  0
  160.5460  208.8790  152.3500 C   0  0  0  0  0  3  0  0  0  0  0  0
  161.3270  206.6490  151.6670 C   0  0  0  0  0  0  0  0  0  0  0  0
  161.2040  204.4640  150.5730 C   0  0  0  0  0  0  0  0  0  0  0  0
  161.1090  205.9580  153.0070 C   0  0  0  0  0  2  0  0  0  0  0  0
  161.1420  204.4340  152.9740 C   0  0  0  0  0  3  0  0  0  0  0  0
  161.3440  205.8970  150.5530 C   0  0  0  0  0  0  0  0  0  0  0  0
  161.4070  206.3430  149.2080 N   0  0  0  0  0  0  0  0  0  0  0  0
  161.1530  203.7170  151.8430 C   0  0  0  0  0  0  0  0  0  0  0  0
  161.1960  204.0370  149.3180 C   0  0  0  0  0  3  0  0  0  0  0  0
  161.3270  205.2590  148.4970 C   0  0  0  0  0  0  0  0  0  0  0  0
  162.0540  204.3470  146.2920 C   0  0  0  0  0  3  0  0  0  0  0  0
  161.1840  205.2560  144.2230 C   0  0  0  0  0  3  0  0  0  0  0  0
  161.9910  204.3340  144.8970 C   0  0  0  0  0  3  0  0  0  0  0  0
  160.4520  206.2030  144.9440 C   0  0  0  0  0  3  0  0  0  0  0  0
  161.3020  205.2780  147.0240 C   0  0  0  0  0  0  0  0  0  0  0  0
  160.5070  206.2110  146.3420 C   0  0  0  0  0  3  0  0  0  0  0  0
  161.0550  201.4550  150.8030 C   0  0  0  0  0  1  0  0  0  0  0  0
  161.1410  202.3170  151.9300 O   0  0  0  0  0  0  0  0  0  0  0  0
  162.4070  208.7890  150.7370 C   0  0  0  0  0  2  0  0  0  0  0  0
  161.7760  209.3330  149.6200 O   0  0  0  0  0  0  0  0  0  0  0  0
  162.2430  210.6050  149.5540 N   0  0  0  0  0  2  0  0  0  0  0  0
  161.9460  211.0780  148.2690 N   0  0  0  0  0  2  0  0  0  0  0  0
  161.4330  212.4310  148.4330 C   0  0  0  0  0  2  0  0  0  0  0  0
  162.1770  213.3680  147.5440 C   0  0  0  0  0  3  0  0  0  0  0  0
  162.7360  212.9500  146.5430 O   0  0  0  0  0  0  0  0  0  0  0  0
  160.5550  210.3740  152.3680 C   0  0  0  0  0  2  0  0  0  0  0  0
  160.8250  210.8670  153.7790 C   0  0  0  0  0  2  0  0  0  0  0  0
  160.7240  209.7550  154.7040 N   0  0  0  0  0  2  0  0  0  0  0  0
  159.6750  210.0930  155.6540 C   0  0  0  0  0  2  0  0  0  0  0  0
  159.5590  211.6040  155.7640 C   0  0  0  0  0  2  0  0  0  0  0  0
  157.3400  212.2630  154.7510 C   0  0  0  0  0  0  0  0  0  0  0  0
  158.1620  211.9880  155.8900 N   0  0  0  0  0  2  0  0  0  0  0  0
  157.8330  212.2570  153.5920 O   0  0  0  0  0  0  0  0  0  0  0  0
  155.4810  212.3010  156.2320 O   0  0  0  0  0  1  0  0  0  0  0  0
  155.8910  212.5820  154.9280 C   0  0  1  0  0  3  0  0  0  0  0  0
  154.4570  214.1090  153.7390 O   0  0  0  0  0  1  0  0  0  0  0  0
  155.5810  214.0310  154.5650 C   0  0  0  0  0  2  0  0  0  0  0  0
  1  3  1  0  0  0  0
  1  2  2  0  0  0  0
  2 27  1  0  0  0  0
  3  5  1  0  0  0  0
  4  9  1  0  0  0  0
  6  5  1  0  0  0  0
  7  4  1  0  0  0  0
  7  3  2  0  0  0  0
  8  7  1  0  0  0  0
  9 19  1  0  0  0  0
  9  6  2  0  0  0  0
 10  4  2  0  0  0  0
 11  8  2  0  0  0  0
 11 10  1  0  0  0  0
 12 16  1  0  0  0  0
 13 14  1  0  0  0  0
 13 15  2  0  0  0  0
 14 12  2  0  0  0  0
 15 17  1  0  0  0  0
 16 11  1  0  0  0  0
 17 16  2  0  0  0  0
 18 19  1  0  0  0  0
 20  1  1  0  0  0  0
 21 20  1  0  0  0  0
 22 21  1  0  0  0  0
 23 24  1  0  0  0  0
 23 22  1  0  0  0  0
 25 24  1  0  0  0  0
 26 25  2  0  0  0  0
 27 28  1  0  0  0  0
 28 29  1  0  0  0  0
 29 30  1  0  0  0  0
 30 31  1  0  0  0  0
 31 33  1  0  0  0  0
 32 36  1  0  0  0  0
 32 33  1  0  0  0  0
 34 32  2  0  0  0  0
 36 35  1  1  0  0  0
 37 38  1  0  0  0  0
 38 36  1  0  0  0  0
M  END
>  <MODEL>
8

>  <REMARK>
 VINA RESULT:      -7.0      3.770      7.651
  Name = 
  17 active torsions:
  status: ('A' for Active; 'I' for Inactive)
    1  A    between atoms: C_1  and  C_11
    2  A    between atoms: C_3  and  C_38
    3  A    between atoms: N_4  and  C_23
    4  A    between atoms: C_5  and  C_6
    5  A    between atoms: C_5  and  N_7
    6  A    between atoms: C_6  and  C_21
    7  A    between atoms: N_7  and  C_31
    8  A    between atoms: C_11  and  C_27
    9  A    between atoms: N_18  and  N_20
   10  A    between atoms: N_18  and  O_36
   11  A    between atoms: C_19  and  C_32
   12  A    between atoms: N_20  and  C_32
   13  A    between atoms: C_23  and  C_31
   14  A    between atoms: C_24  and  C_38
   15  A    between atoms: O_26  and  C_28
   16  A    between atoms: C_27  and  O_36
   17  A    between atoms: C_30  and  C_35
                            x       y       z     vdW  Elec       q    Type
                         _______ _______ _______ _____ _____    ______ ____

>  <TORSDO>
F 17

$$$$
=
 OpenBabel11042422463D

 38 40  0  0  1  0  0  0  0  0999 V2000
  161.5550  207.2500  148.5250 C   0  0  0  0  0  0  0  0  0  0  0  0
  161.7580  208.3930  149.1980 C   0  0  0  0  0  3  0  0  0  0  0  0
  161.3670  205.9650  149.2470 C   0  0  0  0  0  0  0  0  0  0  0  0
  161.0350  204.6610  151.2910 C   0  0  0  0  0  0  0  0  0  0  0  0
  161.5390  204.6620  148.4780 C   0  0  0  0  0  3  0  0  0  0  0  0
  161.2360  203.3900  149.2620 C   0  0  0  0  0  3  0  0  0  0  0  0
  161.1500  205.9030  150.5730 C   0  0  0  0  0  0  0  0  0  0  0  0
  161.0860  206.9830  151.4910 N   0  0  0  0  0  0  0  0  0  0  0  0
  161.0300  203.3660  150.5850 C   0  0  0  0  0  0  0  0  0  0  0  0
  160.8910  204.9450  152.5770 C   0  0  0  0  0  2  0  0  0  0  0  0
  160.9290  206.4200  152.6510 C   0  0  0  0  0  0  0  0  0  0  0  0
  161.1570  208.5650  153.9040 C   0  0  0  0  0  3  0  0  0  0  0  0
  160.6640  208.6790  156.2730 C   0  0  0  0  0  3  0  0  0  0  0  0
  161.0510  209.3050  155.0840 C   0  0  0  0  0  3  0  0  0  0  0  0
  160.4000  207.3070  156.2860 C   0  0  0  0  0  3  0  0  0  0  0  0
  160.8680  207.1920  153.9040 C   0  0  0  0  0  0  0  0  0  0  0  0
  160.4970  206.5650  155.1030 C   0  0  0  0  0  3  0  0  0  0  0  0
  160.7890  200.8870  150.5250 C   0  0  0  0  0  1  0  0  0  0  0  0
  160.8000  202.1320  151.2110 O   0  0  0  0  0  0  0  0  0  0  0  0
  161.4530  207.2630  147.0290 C   0  0  0  0  0  2  0  0  0  0  0  0
  160.4010  206.4510  146.6100 O   0  0  0  0  0  0  0  0  0  0  0  0
  160.4630  206.4900  145.2550 N   0  0  0  0  0  2  0  0  0  0  0  0
  161.2830  205.4240  144.8580 N   0  0  0  0  0  2  0  0  0  0  0  0
  160.4330  204.2430  144.8110 C   0  0  0  0  0  2  0  0  0  0  0  0
  161.2060  203.0440  145.2460 C   0  0  0  0  0  3  0  0  0  0  0  0
  160.6270  202.0800  145.7200 O   0  0  0  0  0  0  0  0  0  0  0  0
  161.9540  209.7230  148.5460 C   0  0  0  0  0  2  0  0  0  0  0  0
  161.9710  210.8140  149.6020 C   0  0  0  0  0  2  0  0  0  0  0  0
  161.6910  212.0920  148.9780 N   0  0  0  0  0  2  0  0  0  0  0  0
  162.7550  212.3310  148.0150 C   0  0  0  0  0  2  0  0  0  0  0  0
  162.3220  213.4140  147.0410 C   0  0  0  0  0  2  0  0  0  0  0  0
  161.0060  212.7700  144.9820 C   0  0  0  0  0  0  0  0  0  0  0  0
  161.0810  213.0280  146.3880 N   0  0  0  0  0  2  0  0  0  0  0  0
  162.0120  212.9490  144.2450 O   0  0  0  0  0  0  0  0  0  0  0  0
  158.7090  212.2610  145.3260 O   0  0  0  0  0  1  0  0  0  0  0  0
  159.7250  212.3050  144.3690 C   0  0  1  0  0  3  0  0  0  0  0  0
  159.5420  212.5150  141.9770 O   0  0  0  0  0  1  0  0  0  0  0  0
  159.3130  213.1760  143.1860 C   0  0  0  0  0  2  0  0  0  0  0  0
  1  2  2  0  0  0  0
  1  3  1  0  0  0  0
  3  7  1  0  0  0  0
  4 10  1  0  0  0  0
  5  3  2  0  0  0  0
  5  6  1  0  0  0  0
  6  9  2  0  0  0  0
  7  4  2  0  0  0  0
  7  8  1  0  0  0  0
  8 11  2  0  0  0  0
  9 19  1  0  0  0  0
  9  4  1  0  0  0  0
 10 11  1  0  0  0  0
 11 16  1  0  0  0  0
 12 16  2  0  0  0  0
 12 14  1  0  0  0  0
 13 15  1  0  0  0  0
 14 13  2  0  0  0  0
 16 17  1  0  0  0  0
 17 15  2  0  0  0  0
 18 19  1  0  0  0  0
 20  1  1  0  0  0  0
 21 20  1  0  0  0  0
 22 21  1  0  0  0  0
 23 22  1  0  0  0  0
 24 23  1  0  0  0  0
 24 25  1  0  0  0  0
 25 26  2  0  0  0  0
 27  2  1  0  0  0  0
 27 28  1  0  0  0  0
 29 28  1  0  0  0  0
 30 29  1  0  0  0  0
 31 30  1  0  0  0  0
 32 33  1  0  0  0  0
 33 31  1  0  0  0  0
 34 32  2  0  0  0  0
 36 32  1  0  0  0  0
 36 35  1  1  0  0  0
 37 38  1  0  0  0  0
 38 36  1  0  0  0  0
M  END
>  <MODEL>
9

>  <REMARK>
 VINA RESULT:      -6.9      1.858      4.442
  Name = 
  17 active torsions:
  status: ('A' for Active; 'I' for Inactive)
    1  A    between atoms: C_1  and  C_11
    2  A    between atoms: C_3  and  C_38
    3  A    between atoms: N_4  and  C_23
    4  A    between atoms: C_5  and  C_6
    5  A    between atoms: C_5  and  N_7
    6  A    between atoms: C_6  and  C_21
    7  A    between atoms: N_7  and  C_31
    8  A    between atoms: C_11  and  C_27
    9  A    between atoms: N_18  and  N_20
   10  A    between atoms: N_18  and  O_36
   11  A    between atoms: C_19  and  C_32
   12  A    between atoms: N_20  and  C_32
   13  A    between atoms: C_23  and  C_31
   14  A    between atoms: C_24  and  C_38
   15  A    between atoms: O_26  and  C_28
   16  A    between atoms: C_27  and  O_36
   17  A    between atoms: C_30  and  C_35
                            x       y       z     vdW  Elec       q    Type
                         _______ _______ _______ _____ _____    ______ ____

>  <TORSDO>
F 17

$$$$
