=
 OpenBabel11042423043D

 55 60  0  0  1  0  0  0  0  0999 V2000
  163.8890  211.8200  148.1580 C   0  0  0  0  0  1  0  0  0  0  0  0
  161.9290  211.2230  149.4420 C   0  0  0  0  0  0  0  0  0  0  0  0
  162.4490  211.9860  148.5240 C   0  0  0  0  0  0  0  0  0  0  0  0
  161.4280  210.4430  150.3600 C   0  0  0  0  0  3  0  0  0  0  0  0
  162.2480  209.3150  150.9060 C   0  0  2  0  0  3  0  0  0  0  0  0
  161.7000  206.7630  148.5050 C   0  0  0  0  0  0  0  0  0  0  0  0
  161.9810  208.0890  150.1550 N   0  0  0  0  0  0  0  0  0  0  0  0
  160.8160  204.7270  149.8250 C   0  0  0  0  0  1  0  0  0  0  0  0
  161.5070  206.9740  150.6930 N   0  0  0  0  0  0  0  0  0  0  0  0
  162.0980  208.0050  148.8370 N   0  0  0  0  0  0  0  0  0  0  0  0
  161.3290  206.1180  149.6720 C   0  0  0  0  0  0  0  0  0  0  0  0
  162.6780  205.6240  146.6580 O   0  0  0  0  0  0  0  0  0  0  0  0
  160.5230  206.4380  146.3150 N   0  0  0  0  0  2  0  0  0  0  0  0
  160.4660  205.9500  145.0040 N   0  0  0  0  0  1  0  0  0  0  0  0
  161.6810  206.2420  147.1260 C   0  0  0  0  0  0  0  0  0  0  0  0
  161.9710  209.0970  152.3940 C   0  0  0  0  0  2  0  0  0  0  0  0
  161.7760  210.4120  153.1290 C   0  0  0  0  0  2  0  0  0  0  0  0
  160.8950  210.2070  154.2690 N   0  0  0  0  0  2  0  0  0  0  0  0
  160.0890  211.4130  154.4390 C   0  0  1  0  0  3  0  0  0  0  0  0
  157.3070  213.3490  153.7760 C   0  0  0  0  0  0  0  0  0  0  0  0
  158.8300  211.5490  152.3130 O   0  0  0  0  0  0  0  0  0  0  0  0
  157.5850  212.0040  154.3840 C   0  0  0  0  0  2  0  0  0  0  0  0
  159.1460  212.9140  152.1600 C   0  0  0  0  0  2  0  0  0  0  0  0
  158.7450  211.2620  153.6980 C   0  0  2  0  0  3  0  0  0  0  0  0
  157.9350  213.7780  152.4840 C   0  0  0  0  0  2  0  0  0  0  0  0
  156.5120  214.0920  154.3240 O   0  0  0  0  0  0  0  0  0  0  0  0
  159.4920  210.7690  156.6270 O   0  0  0  0  0  0  0  0  0  0  0  0
  160.1090  213.0300  156.4980 C   0  0  0  0  0  1  0  0  0  0  0  0
  159.8590  211.6820  155.9060 C   0  0  0  0  0  0  0  0  0  0  0  0
  161.5680  212.8980  147.7360 C   0  0  0  0  0  2  0  0  0  0  0  0
  162.2140  213.2360  146.4090 C   0  0  0  0  0  2  0  0  0  0  0  0
  162.0790  214.2390  143.0420 C   0  0  0  0  0  2  0  0  0  0  0  0
  161.3880  213.3240  144.0360 C   0  0  0  0  0  0  0  0  0  0  0  0
  162.7810  212.9840  143.5410 C   0  0  0  0  0  2  0  0  0  0  0  0
  161.2050  213.8370  145.4510 C   0  0  1  0  0  3  0  0  0  0  0  0
  159.4860  212.1780  144.8710 C   0  0  0  0  0  2  0  0  0  0  0  0
  159.8170  213.3290  145.8170 C   0  0  0  0  0  2  0  0  0  0  0  0
  160.2730  212.4020  143.5850 C   0  0  1  0  0  3  0  0  0  0  0  0
  159.3740  213.0760  142.5520 C   0  0  0  0  0  2  0  0  0  0  0  0
  159.5710  213.0510  140.1040 C   0  0  0  0  0  3  0  0  0  0  0  0
  159.4480  212.3640  141.2380 C   0  0  0  0  0  3  0  0  0  0  0  0
  160.1910  210.0450  138.3420 C   0  0  2  0  0  3  0  0  0  0  0  0
  160.8680  209.4140  139.3900 O   0  0  0  0  0  1  0  0  0  0  0  0
  161.0780  211.0650  137.6540 C   0  0  2  0  0  3  0  0  0  0  0  0
  162.5250  210.6230  137.5330 C   0  0  0  0  0  1  0  0  0  0  0  0
  159.6470  212.3430  138.7910 C   0  0  1  0  0  3  0  0  0  0  0  0
  160.9850  212.2770  138.3550 O   0  0  0  0  0  0  0  0  0  0  0  0
  159.1150  210.9250  138.9440 C   0  0  1  0  0  3  0  0  0  0  0  0
  156.2590  209.3650  137.0240 C   0  0  0  0  0  2  0  0  0  0  0  0
  156.7670  210.9160  139.3440 C   0  0  0  0  0  2  0  0  0  0  0  0
  157.7960  210.7800  138.3100 N   0  0  0  0  0  0  0  0  0  0  0  0
  157.6530  209.4770  137.6410 C   0  0  0  0  0  2  0  0  0  0  0  0
  153.9570  209.4570  137.4160 C   0  0  0  0  0  1  0  0  0  0  0  0
  155.2500  209.4770  138.0740 N   0  0  0  0  0  0  0  0  0  0  0  0
  155.3800  210.7850  138.7140 C   0  0  0  0  0  2  0  0  0  0  0  0
  1  3  1  0  0  0  0
  2  4  2  0  0  0  0
  3  2  2  0  0  0  0
  5  4  1  6  0  0  0
  5 16  1  0  0  0  0
  6 10  2  0  0  0  0
  6 11  1  0  0  0  0
  7  9  1  0  0  0  0
  7  5  1  0  0  0  0
 10  7  1  0  0  0  0
 11  8  1  0  0  0  0
 11  9  2  0  0  0  0
 12 15  2  0  0  0  0
 13 15  1  0  0  0  0
 14 13  1  0  0  0  0
 15  6  1  0  0  0  0
 16 17  1  0  0  0  0
 17 18  1  0  0  0  0
 19 18  1  1  0  0  0
 19 29  1  0  0  0  0
 20 26  2  0  0  0  0
 20 22  1  0  0  0  0
 21 24  1  0  0  0  0
 23 21  1  0  0  0  0
 23 25  1  0  0  0  0
 24 22  1  0  0  0  0
 24 19  1  1  0  0  0
 25 20  1  0  0  0  0
 29 28  1  0  0  0  0
 29 27  2  0  0  0  0
 30  3  1  0  0  0  0
 31 30  1  0  0  0  0
 32 34  1  0  0  0  0
 32 33  1  0  0  0  0
 33 35  1  0  0  0  0
 34 33  1  0  0  0  0
 35 37  1  0  0  0  0
 35 31  1  1  0  0  0
 36 37  1  0  0  0  0
 38 39  1  6  0  0  0
 38 33  1  0  0  0  0
 38 36  1  0  0  0  0
 40 41  2  0  0  0  0
 41 39  1  0  0  0  0
 42 48  1  0  0  0  0
 42 43  1  1  0  0  0
 44 45  1  1  0  0  0
 44 42  1  0  0  0  0
 44 47  1  0  0  0  0
 46 48  1  0  0  0  0
 46 40  1  1  0  0  0
 47 46  1  0  0  0  0
 48 51  1  6  0  0  0
 49 52  1  0  0  0  0
 49 54  1  0  0  0  0
 51 50  1  0  0  0  0
 52 51  1  0  0  0  0
 53 54  1  0  0  0  0
 54 55  1  0  0  0  0
 55 50  1  0  0  0  0
M  END
>  <MODEL>
1

>  <REMARK>
 VINA RESULT:      -7.1      0.000      0.000
  Name = 
  16 active torsions:
  status: ('A' for Active; 'I' for Inactive)
    1  A    between atoms: C_1  and  C_35
    2  A    between atoms: C_1  and  C_55
    3  A    between atoms: C_7  and  C_49
    4  A    between atoms: C_8  and  C_21
    5  A    between atoms: N_12  and  C_41
    6  A    between atoms: C_15  and  C_33
    7  A    between atoms: C_15  and  N_52
    8  A    between atoms: C_17  and  C_46
    9  A    between atoms: C_17  and  C_47
   10  A    between atoms: C_17  and  N_52
   11  A    between atoms: C_19  and  C_27
   12  A    between atoms: C_19  and  C_31
   13  A    between atoms: N_23  and  C_42
   14  A    between atoms: C_27  and  C_50
   15  A    between atoms: C_33  and  C_41
   16  A    between atoms: C_41  and  C_43
                            x       y       z     vdW  Elec       q    Type
                         _______ _______ _______ _____ _____    ______ ____

>  <TORSDO>
F 16

$$$$
=
 OpenBabel11042423043D

 55 60  0  0  1  0  0  0  0  0999 V2000
  163.7370  212.1130  147.8890 C   0  0  0  0  0  1  0  0  0  0  0  0
  161.7240  211.5300  149.0970 C   0  0  0  0  0  0  0  0  0  0  0  0
  162.2530  212.1280  148.0680 C   0  0  0  0  0  0  0  0  0  0  0  0
  161.2170  210.9190  150.1320 C   0  0  0  0  0  3  0  0  0  0  0  0
  162.1020  210.0960  151.0170 C   0  0  2  0  0  3  0  0  0  0  0  0
  161.6840  206.8820  149.5760 C   0  0  0  0  0  0  0  0  0  0  0  0
  161.9470  208.6760  150.7040 N   0  0  0  0  0  0  0  0  0  0  0  0
  161.3070  205.2640  151.5520 C   0  0  0  0  0  1  0  0  0  0  0  0
  161.7270  207.7340  151.6110 N   0  0  0  0  0  0  0  0  0  0  0  0
  161.9150  208.2040  149.4650 N   0  0  0  0  0  0  0  0  0  0  0  0
  161.5670  206.5900  150.9230 C   0  0  0  0  0  0  0  0  0  0  0  0
  161.3360  204.7370  148.6050 O   0  0  0  0  0  0  0  0  0  0  0  0
  161.7590  206.4680  147.1040 N   0  0  0  0  0  2  0  0  0  0  0  0
  161.6600  205.6260  145.9900 N   0  0  0  0  0  1  0  0  0  0  0  0
  161.5820  205.9640  148.4280 C   0  0  0  0  0  0  0  0  0  0  0  0
  161.8010  210.3510  152.4940 C   0  0  0  0  0  2  0  0  0  0  0  0
  160.5250  211.1560  152.6780 C   0  0  0  0  0  2  0  0  0  0  0  0
  160.3840  211.5310  154.0770 N   0  0  0  0  0  2  0  0  0  0  0  0
  159.0210  211.2140  154.4930 C   0  0  1  0  0  3  0  0  0  0  0  0
  161.1500  209.0220  156.1030 C   0  0  0  0  0  0  0  0  0  0  0  0
  159.5350  211.1280  156.9130 O   0  0  0  0  0  0  0  0  0  0  0  0
  159.7170  209.0240  155.6530 C   0  0  0  0  0  2  0  0  0  0  0  0
  160.8930  211.4260  156.6810 C   0  0  0  0  0  2  0  0  0  0  0  0
  159.0420  210.3990  155.8020 C   0  0  2  0  0  3  0  0  0  0  0  0
  161.7460  210.1770  156.8490 C   0  0  0  0  0  2  0  0  0  0  0  0
  161.8320  208.0330  155.8960 O   0  0  0  0  0  0  0  0  0  0  0  0
  157.0340  212.4060  154.9280 O   0  0  0  0  0  0  0  0  0  0  0  0
  158.8690  213.8260  154.5760 C   0  0  0  0  0  1  0  0  0  0  0  0
  158.2240  212.4830  154.6710 C   0  0  0  0  0  0  0  0  0  0  0  0
  161.3680  212.6770  146.9980 C   0  0  0  0  0  2  0  0  0  0  0  0
  162.1590  213.5710  146.0680 C   0  0  0  0  0  2  0  0  0  0  0  0
  162.1990  214.2320  142.6150 C   0  0  0  0  0  2  0  0  0  0  0  0
  161.3740  213.5340  143.6800 C   0  0  0  0  0  0  0  0  0  0  0  0
  162.7060  212.9470  143.2540 C   0  0  0  0  0  2  0  0  0  0  0  0
  161.2560  214.2110  145.0320 C   0  0  1  0  0  3  0  0  0  0  0  0
  159.3170  212.7670  144.5820 C   0  0  0  0  0  2  0  0  0  0  0  0
  159.8060  213.9490  145.4150 C   0  0  0  0  0  2  0  0  0  0  0  0
  160.1400  212.7420  143.2980 C   0  0  1  0  0  3  0  0  0  0  0  0
  159.3570  213.4280  142.1820 C   0  0  0  0  0  2  0  0  0  0  0  0
  159.3380  213.1230  139.7460 C   0  0  0  0  0  3  0  0  0  0  0  0
  159.3150  212.5710  140.9580 C   0  0  0  0  0  3  0  0  0  0  0  0
  159.7070  209.9100  138.3090 C   0  0  2  0  0  3  0  0  0  0  0  0
  160.4190  209.3650  139.3810 O   0  0  0  0  0  1  0  0  0  0  0  0
  160.5930  210.7980  137.4570 C   0  0  2  0  0  3  0  0  0  0  0  0
  162.0090  210.2690  137.3050 C   0  0  0  0  0  1  0  0  0  0  0  0
  159.2990  212.2690  138.5210 C   0  0  1  0  0  3  0  0  0  0  0  0
  160.6010  212.0840  138.0190 O   0  0  0  0  0  0  0  0  0  0  0  0
  158.7130  210.9070  138.8660 C   0  0  1  0  0  3  0  0  0  0  0  0
  155.5090  209.2560  137.7330 C   0  0  0  0  0  2  0  0  0  0  0  0
  156.4310  211.5040  139.1960 C   0  0  0  0  0  2  0  0  0  0  0  0
  157.3510  210.7620  138.3310 N   0  0  0  0  0  0  0  0  0  0  0  0
  156.9370  209.3510  138.2680 C   0  0  0  0  0  2  0  0  0  0  0  0
  153.2890  209.9320  138.0130 C   0  0  0  0  0  1  0  0  0  0  0  0
  154.6050  209.9810  138.6230 N   0  0  0  0  0  0  0  0  0  0  0  0
  155.0050  211.3860  138.6560 C   0  0  0  0  0  2  0  0  0  0  0  0
  1  3  1  0  0  0  0
  2  4  2  0  0  0  0
  3  2  2  0  0  0  0
  5  4  1  6  0  0  0
  5 16  1  0  0  0  0
  6 11  1  0  0  0  0
  7  5  1  0  0  0  0
  7  9  1  0  0  0  0
 10  6  2  0  0  0  0
 10  7  1  0  0  0  0
 11  8  1  0  0  0  0
 11  9  2  0  0  0  0
 13 15  1  0  0  0  0
 14 13  1  0  0  0  0
 15 12  2  0  0  0  0
 15  6  1  0  0  0  0
 16 17  1  0  0  0  0
 17 18  1  0  0  0  0
 19 18  1  1  0  0  0
 19 29  1  0  0  0  0
 20 25  1  0  0  0  0
 22 24  1  0  0  0  0
 22 20  1  0  0  0  0
 23 25  1  0  0  0  0
 23 21  1  0  0  0  0
 24 19  1  6  0  0  0
 24 21  1  0  0  0  0
 26 20  2  0  0  0  0
 28 29  1  0  0  0  0
 29 27  2  0  0  0  0
 30  3  1  0  0  0  0
 31 30  1  0  0  0  0
 32 34  1  0  0  0  0
 32 33  1  0  0  0  0
 33 35  1  0  0  0  0
 34 33  1  0  0  0  0
 35 37  1  0  0  0  0
 35 31  1  1  0  0  0
 36 37  1  0  0  0  0
 38 39  1  6  0  0  0
 38 33  1  0  0  0  0
 38 36  1  0  0  0  0
 40 41  2  0  0  0  0
 41 39  1  0  0  0  0
 42 48  1  0  0  0  0
 42 43  1  1  0  0  0
 44 45  1  1  0  0  0
 44 47  1  0  0  0  0
 44 42  1  0  0  0  0
 46 48  1  0  0  0  0
 46 40  1  1  0  0  0
 47 46  1  0  0  0  0
 48 51  1  6  0  0  0
 49 52  1  0  0  0  0
 49 54  1  0  0  0  0
 51 50  1  0  0  0  0
 52 51  1  0  0  0  0
 53 54  1  0  0  0  0
 54 55  1  0  0  0  0
 55 50  1  0  0  0  0
M  END
>  <MODEL>
2

>  <REMARK>
 VINA RESULT:      -5.9      1.247      2.274
  Name = 
  16 active torsions:
  status: ('A' for Active; 'I' for Inactive)
    1  A    between atoms: C_1  and  C_35
    2  A    between atoms: C_1  and  C_55
    3  A    between atoms: C_7  and  C_49
    4  A    between atoms: C_8  and  C_21
    5  A    between atoms: N_12  and  C_41
    6  A    between atoms: C_15  and  C_33
    7  A    between atoms: C_15  and  N_52
    8  A    between atoms: C_17  and  C_46
    9  A    between atoms: C_17  and  C_47
   10  A    between atoms: C_17  and  N_52
   11  A    between atoms: C_19  and  C_27
   12  A    between atoms: C_19  and  C_31
   13  A    between atoms: N_23  and  C_42
   14  A    between atoms: C_27  and  C_50
   15  A    between atoms: C_33  and  C_41
   16  A    between atoms: C_41  and  C_43
                            x       y       z     vdW  Elec       q    Type
                         _______ _______ _______ _____ _____    ______ ____

>  <TORSDO>
F 16

$$$$
=
 OpenBabel11042423043D

 55 60  0  0  1  0  0  0  0  0999 V2000
  160.2360  212.0760  144.8250 C   0  0  0  0  0  1  0  0  0  0  0  0
  159.8710  213.9060  143.2850 C   0  0  0  0  0  0  0  0  0  0  0  0
  160.3620  213.5110  144.4250 C   0  0  0  0  0  0  0  0  0  0  0  0
  159.3770  214.2760  142.1360 C   0  0  0  0  0  3  0  0  0  0  0  0
  158.8430  213.2450  141.1890 C   0  0  2  0  0  3  0  0  0  0  0  0
  161.3150  211.0020  139.9930 C   0  0  0  0  0  0  0  0  0  0  0  0
  159.9460  212.5510  140.5270 N   0  0  0  0  0  0  0  0  0  0  0  0
  162.9290  212.4220  138.5630 C   0  0  0  0  0  1  0  0  0  0  0  0
  160.8620  213.1510  139.7790 N   0  0  0  0  0  0  0  0  0  0  0  0
  160.1920  211.2580  140.6900 N   0  0  0  0  0  0  0  0  0  0  0  0
  161.7340  212.1910  139.4230 C   0  0  0  0  0  0  0  0  0  0  0  0
  163.0770  209.4550  140.4050 O   0  0  0  0  0  0  0  0  0  0  0  0
  161.2530  208.6160  139.2240 N   0  0  0  0  0  2  0  0  0  0  0  0
  161.8130  207.3370  139.1210 N   0  0  0  0  0  1  0  0  0  0  0  0
  161.9410  209.6710  139.8960 C   0  0  0  0  0  0  0  0  0  0  0  0
  157.9120  213.8740  140.1530 C   0  0  0  0  0  2  0  0  0  0  0  0
  156.5110  213.2890  140.2250 C   0  0  0  0  0  2  0  0  0  0  0  0
  156.1550  212.7180  138.9340 N   0  0  0  0  0  2  0  0  0  0  0  0
  155.7630  211.3280  139.1500 C   0  0  1  0  0  3  0  0  0  0  0  0
  152.8760  209.7700  140.2290 C   0  0  0  0  0  0  0  0  0  0  0  0
  153.4410  212.1550  138.9290 O   0  0  0  0  0  0  0  0  0  0  0  0
  153.7590  209.7190  139.0150 C   0  0  0  0  0  2  0  0  0  0  0  0
  153.2830  212.2200  140.3290 C   0  0  0  0  0  2  0  0  0  0  0  0
  154.3310  211.0940  138.6290 C   0  0  2  0  0  3  0  0  0  0  0  0
  152.4160  211.0690  140.8180 C   0  0  0  0  0  2  0  0  0  0  0  0
  152.4850  208.7250  140.7190 O   0  0  0  0  0  0  0  0  0  0  0  0
  157.9310  210.5410  138.6610 O   0  0  0  0  0  0  0  0  0  0  0  0
  156.2630  209.2950  137.5780 C   0  0  0  0  0  1  0  0  0  0  0  0
  156.7360  210.4010  138.4630 C   0  0  0  0  0  0  0  0  0  0  0  0
  161.1860  214.4530  145.2390 C   0  0  0  0  0  2  0  0  0  0  0  0
  161.7430  213.7470  146.4570 C   0  0  0  0  0  2  0  0  0  0  0  0
  161.1280  210.8720  148.3840 C   0  0  0  0  0  2  0  0  0  0  0  0
  161.1630  212.3850  148.4890 C   0  0  0  0  0  0  0  0  0  0  0  0
  162.4580  211.6110  148.3370 C   0  0  0  0  0  2  0  0  0  0  0  0
  160.6280  213.1820  147.3140 C   0  0  1  0  0  3  0  0  0  0  0  0
  160.4410  214.4480  149.4140 C   0  0  0  0  0  2  0  0  0  0  0  0
  159.8980  214.3330  147.9920 C   0  0  0  0  0  2  0  0  0  0  0  0
  160.9430  213.0680  149.8240 C   0  0  1  0  0  3  0  0  0  0  0  0
  159.8680  212.3610  150.6440 C   0  0  0  0  0  2  0  0  0  0  0  0
  161.3310  210.6440  151.6150 C   0  0  0  0  0  3  0  0  0  0  0  0
  160.4740  211.6450  151.8090 C   0  0  0  0  0  3  0  0  0  0  0  0
  160.8780  209.1050  154.7700 C   0  0  2  0  0  3  0  0  0  0  0  0
  159.6360  209.6930  155.0270 O   0  0  0  0  0  1  0  0  0  0  0  0
  162.0080  210.0900  155.0000 C   0  0  2  0  0  3  0  0  0  0  0  0
  161.7760  211.0080  156.1870 C   0  0  0  0  0  1  0  0  0  0  0  0
  161.9390  209.9280  152.7770 C   0  0  1  0  0  3  0  0  0  0  0  0
  162.1910  210.8350  153.8240 O   0  0  0  0  0  0  0  0  0  0  0  0
  160.9790  208.8600  153.2790 C   0  0  1  0  0  3  0  0  0  0  0  0
  161.3330  205.0980  153.3460 C   0  0  0  0  0  2  0  0  0  0  0  0
  161.1030  207.2580  151.5210 C   0  0  0  0  0  2  0  0  0  0  0  0
  161.4470  207.5120  152.9220 N   0  0  0  0  0  0  0  0  0  0  0  0
  160.8370  206.4790  153.7750 C   0  0  0  0  0  2  0  0  0  0  0  0
  161.5360  203.5760  151.5840 C   0  0  0  0  0  1  0  0  0  0  0  0
  160.9580  204.8550  151.9550 N   0  0  0  0  0  0  0  0  0  0  0  0
  161.5920  205.8670  151.1130 C   0  0  0  0  0  2  0  0  0  0  0  0
  2  3  2  0  0  0  0
  3  1  1  0  0  0  0
  3 30  1  0  0  0  0
  4  2  2  0  0  0  0
  5 16  1  6  0  0  0
  5  4  1  0  0  0  0
  6 10  2  0  0  0  0
  7 10  1  0  0  0  0
  7  5  1  0  0  0  0
  8 11  1  0  0  0  0
  9  7  1  0  0  0  0
 11  9  2  0  0  0  0
 11  6  1  0  0  0  0
 13 15  1  0  0  0  0
 14 13  1  0  0  0  0
 15  6  1  0  0  0  0
 15 12  2  0  0  0  0
 16 17  1  0  0  0  0
 18 19  1  0  0  0  0
 18 17  1  0  0  0  0
 19 29  1  6  0  0  0
 20 26  2  0  0  0  0
 20 25  1  0  0  0  0
 21 23  1  0  0  0  0
 22 20  1  0  0  0  0
 23 25  1  0  0  0  0
 24 21  1  0  0  0  0
 24 22  1  0  0  0  0
 24 19  1  1  0  0  0
 28 29  1  0  0  0  0
 29 27  2  0  0  0  0
 30 31  1  0  0  0  0
 32 33  1  0  0  0  0
 33 38  1  0  0  0  0
 34 32  1  0  0  0  0
 34 33  1  0  0  0  0
 35 31  1  6  0  0  0
 35 37  1  0  0  0  0
 35 33  1  0  0  0  0
 36 38  1  0  0  0  0
 37 36  1  0  0  0  0
 38 39  1  1  0  0  0
 39 41  1  0  0  0  0
 40 41  2  0  0  0  0
 42 44  1  0  0  0  0
 42 43  1  6  0  0  0
 44 45  1  1  0  0  0
 46 40  1  6  0  0  0
 46 48  1  0  0  0  0
 46 47  1  0  0  0  0
 47 44  1  0  0  0  0
 48 51  1  1  0  0  0
 48 42  1  0  0  0  0
 49 52  1  0  0  0  0
 50 51  1  0  0  0  0
 51 52  1  0  0  0  0
 53 54  1  0  0  0  0
 54 49  1  0  0  0  0
 55 50  1  0  0  0  0
 55 54  1  0  0  0  0
M  END
>  <MODEL>
3

>  <REMARK>
 VINA RESULT:      -4.5      2.771     12.667
  Name = 
  16 active torsions:
  status: ('A' for Active; 'I' for Inactive)
    1  A    between atoms: C_1  and  C_35
    2  A    between atoms: C_1  and  C_55
    3  A    between atoms: C_7  and  C_49
    4  A    between atoms: C_8  and  C_21
    5  A    between atoms: N_12  and  C_41
    6  A    between atoms: C_15  and  C_33
    7  A    between atoms: C_15  and  N_52
    8  A    between atoms: C_17  and  C_46
    9  A    between atoms: C_17  and  C_47
   10  A    between atoms: C_17  and  N_52
   11  A    between atoms: C_19  and  C_27
   12  A    between atoms: C_19  and  C_31
   13  A    between atoms: N_23  and  C_42
   14  A    between atoms: C_27  and  C_50
   15  A    between atoms: C_33  and  C_41
   16  A    between atoms: C_41  and  C_43
                            x       y       z     vdW  Elec       q    Type
                         _______ _______ _______ _____ _____    ______ ____

>  <TORSDO>
F 16

$$$$
