=
 OpenBabel11052411393D

 43 43  0  0  1  0  0  0  0  0999 V2000
  161.0150  206.8510  150.0080 C   0  0  1  0  0  3  0  0  0  0  0  0
  161.5110  204.8220  151.1740 O   0  0  0  0  0  0  0  0  0  0  0  0
  161.2710  206.0580  151.2510 C   0  0  0  0  0  0  0  0  0  0  0  0
  161.2180  206.7100  152.5670 C   0  0  0  0  0  0  0  0  0  0  0  0
  161.5840  206.0850  153.5980 O   0  0  0  0  0  0  0  0  0  0  0  0
  160.7560  208.0570  152.6750 N   0  0  0  0  0  2  0  0  0  0  0  0
  160.1480  211.9690  155.0530 O   0  0  0  0  0  0  0  0  0  0  0  0
  160.4800  209.9790  153.9990 C   0  0  0  0  0  0  0  0  0  0  0  0
  160.4230  210.6590  155.1830 O   0  0  0  0  0  0  0  0  0  0  0  0
  160.1540  212.2160  153.6500 C   0  0  1  0  0  3  0  0  0  0  0  0
  160.2580  210.8900  152.8860 C   0  0  0  0  0  2  0  0  0  0  0  0
  160.7050  208.7080  153.9160 N   0  0  0  0  0  0  0  0  0  0  0  0
  158.8970  212.9770  153.2400 C   0  0  2  0  0  3  0  0  0  0  0  0
  157.8600  212.7030  154.1370 O   0  0  0  0  0  1  0  0  0  0  0  0
  158.4670  212.5680  151.8410 C   0  0  0  0  0  2  0  0  0  0  0  0
  158.8950  213.9630  150.1870 C   0  0  0  0  0  1  0  0  0  0  0  0
  157.9440  213.6690  151.1630 O   0  0  0  0  0  0  0  0  0  0  0  0
  162.2900  207.5540  149.5570 C   0  0  0  0  0  2  0  0  0  0  0  0
  162.0920  209.0050  149.5140 C   0  0  0  0  0  0  0  0  0  0  0  0
  161.9340  210.2000  149.4780 C   0  0  0  0  0  0  0  0  0  0  0  0
  161.7460  211.6540  149.4380 C   0  0  0  0  0  2  0  0  0  0  0  0
  161.2360  212.6110  147.2360 C   0  0  0  0  0  3  0  0  0  0  0  0
  163.6280  212.3420  147.8280 C   0  0  0  0  0  1  0  0  0  0  0  0
  162.1660  212.2090  148.1140 C   0  0  0  0  0  0  0  0  0  0  0  0
  161.5590  213.2120  145.8990 C   0  0  0  0  0  2  0  0  0  0  0  0
  159.6390  211.9620  145.2520 O   0  0  0  0  0  1  0  0  0  0  0  0
  160.3640  213.1210  144.9590 C   0  0  2  0  0  3  0  0  0  0  0  0
  160.8310  213.0950  143.5050 C   0  0  1  0  0  3  0  0  0  0  0  0
  162.2250  212.6790  143.4380 N   0  0  0  0  0  2  0  0  0  0  0  0
  162.9610  213.7610  142.8070 C   0  0  0  0  0  1  0  0  0  0  0  0
  159.9780  212.1220  142.7020 C   0  0  0  0  0  2  0  0  0  0  0  0
  160.8420  211.3360  141.7310 C   0  0  0  0  0  2  0  0  0  0  0  0
  160.4320  211.6300  140.2940 C   0  0  0  0  0  2  0  0  0  0  0  0
  162.8150  211.4580  140.0300 O   0  0  0  0  0  1  0  0  0  0  0  0
  161.6200  211.6570  139.3360 C   0  0  0  0  0  3  0  0  0  0  0  0
  161.4820  210.6860  138.3440 O   0  0  0  0  0  1  0  0  0  0  0  0
  160.4670  205.9340  148.9180 C   0  0  0  0  0  2  0  0  0  0  0  0
  161.4650  205.7540  147.7810 C   0  0  0  0  0  2  0  0  0  0  0  0
  161.3090  204.3960  147.1130 C   0  0  0  0  0  2  0  0  0  0  0  0
  161.4200  203.2800  148.1380 C   0  0  0  0  0  2  0  0  0  0  0  0
  161.0400  201.9490  147.5110 C   0  0  0  0  0  2  0  0  0  0  0  0
  161.0170  201.4560  149.9350 C   0  0  0  0  0  1  0  0  0  0  0  0
  161.0770  200.8450  148.5510 C   0  0  0  0  0  2  0  0  0  0  0  0
  1 37  1  6  0  0  0
  1  3  1  0  0  0  0
  2  3  2  0  0  0  0
  3  4  1  0  0  0  0
  4  6  1  0  0  0  0
  4  5  2  0  0  0  0
  6 12  1  0  0  0  0
  7  9  1  0  0  0  0
  8  9  1  0  0  0  0
 10 13  1  6  0  0  0
 10  7  1  0  0  0  0
 11 10  1  0  0  0  0
 11  8  1  0  0  0  0
 12  8  2  0  0  0  0
 13 14  1  1  0  0  0
 15 13  1  0  0  0  0
 16 17  1  0  0  0  0
 17 15  1  0  0  0  0
 18  1  1  0  0  0  0
 19 18  1  0  0  0  0
 20 19  3  0  0  0  0
 21 20  1  0  0  0  0
 22 24  2  0  0  0  0
 23 24  1  0  0  0  0
 24 21  1  0  0  0  0
 25 22  1  0  0  0  0
 27 26  1  1  0  0  0
 27 25  1  0  0  0  0
 28 31  1  6  0  0  0
 28 27  1  0  0  0  0
 29 28  1  0  0  0  0
 30 29  1  0  0  0  0
 32 31  1  0  0  0  0
 33 32  1  0  0  0  0
 35 34  1  0  0  0  0
 35 33  1  0  0  0  0
 36 35  1  0  0  0  0
 38 37  1  0  0  0  0
 39 38  1  0  0  0  0
 39 40  1  0  0  0  0
 41 40  1  0  0  0  0
 41 43  1  0  0  0  0
 43 42  1  0  0  0  0
M  END
>  <MODEL>
1

>  <REMARK>
 VINA RESULT:      -6.2      0.000      0.000
  Name = 
  24 active torsions:
  status: ('A' for Active; 'I' for Inactive)
    1  A    between atoms: C_1  and  N_12
    2  A    between atoms: C_1  and  C_21
    3  A    between atoms: C_1  and  C_40
    4  A    between atoms: C_4  and  C_13
    5  A    between atoms: C_4  and  C_36
    6  A    between atoms: C_5  and  C_16
    7  A    between atoms: C_5  and  C_27
    8  A    between atoms: C_6  and  C_21
    9  A    between atoms: C_6  and  C_24
   10  A    between atoms: C_7  and  C_15
   11  A    between atoms: C_7  and  C_22
   12  A    between atoms: C_11  and  C_32
   13  A    between atoms: C_13  and  C_22
   14  A    between atoms: C_14  and  C_15
   15  A    between atoms: C_14  and  C_32
   16  A    between atoms: C_14  and  C_41
   17  A    between atoms: C_17  and  C_37
   18  A    between atoms: C_17  and  C_39
   19  A    between atoms: C_18  and  C_24
   20  A    between atoms: O_19  and  C_27
   21  A    between atoms: C_26  and  C_29
   22  A    between atoms: C_29  and  C_40
   23  A    between atoms: C_30  and  C_41
   24  A    between atoms: N_38  and  N_43
                            x       y       z     vdW  Elec       q    Type
                         _______ _______ _______ _____ _____    ______ ____

>  <TORSDO>
F 24

$$$$
=
 OpenBabel11052411393D

 43 43  0  0  1  0  0  0  0  0999 V2000
  161.1650  206.9910  150.4510 C   0  0  1  0  0  3  0  0  0  0  0  0
  162.8680  206.0840  151.8650 O   0  0  0  0  0  0  0  0  0  0  0  0
  161.8160  206.7740  151.7820 C   0  0  0  0  0  0  0  0  0  0  0  0
  161.2160  207.3400  152.9980 C   0  0  0  0  0  0  0  0  0  0  0  0
  160.7640  206.5780  153.8940 O   0  0  0  0  0  0  0  0  0  0  0  0
  161.1500  208.7570  153.1650 N   0  0  0  0  0  2  0  0  0  0  0  0
  158.8110  212.2280  155.1160 O   0  0  0  0  0  0  0  0  0  0  0  0
  159.9830  210.4650  154.2790 C   0  0  0  0  0  0  0  0  0  0  0  0
  159.4250  211.0600  155.3760 O   0  0  0  0  0  0  0  0  0  0  0  0
  159.0980  212.5060  153.7480 C   0  0  1  0  0  3  0  0  0  0  0  0
  159.7860  211.2970  153.1020 C   0  0  0  0  0  2  0  0  0  0  0  0
  160.5930  209.3250  154.3190 N   0  0  0  0  0  0  0  0  0  0  0  0
  157.8170  212.8610  153.0000 C   0  0  2  0  0  3  0  0  0  0  0  0
  158.0430  213.9530  152.1580 O   0  0  0  0  0  1  0  0  0  0  0  0
  156.7130  213.2100  153.9840 C   0  0  0  0  0  2  0  0  0  0  0  0
  154.8270  213.9730  153.1320 C   0  0  0  0  0  1  0  0  0  0  0  0
  156.0770  214.3870  153.5890 O   0  0  0  0  0  0  0  0  0  0  0  0
  162.1390  207.6620  149.4900 C   0  0  0  0  0  2  0  0  0  0  0  0
  161.9840  209.1180  149.5300 C   0  0  0  0  0  0  0  0  0  0  0  0
  161.8600  210.3170  149.5640 C   0  0  0  0  0  0  0  0  0  0  0  0
  161.7130  211.7760  149.6100 C   0  0  0  0  0  2  0  0  0  0  0  0
  161.0810  213.0820  147.6310 C   0  0  0  0  0  3  0  0  0  0  0  0
  163.4090  212.2350  147.7340 C   0  0  0  0  0  1  0  0  0  0  0  0
  162.0250  212.3860  148.2810 C   0  0  0  0  0  0  0  0  0  0  0  0
  161.3090  213.7590  146.3110 C   0  0  0  0  0  2  0  0  0  0  0  0
  160.0130  211.9910  145.3790 O   0  0  0  0  0  1  0  0  0  0  0  0
  160.2300  213.3700  145.3080 C   0  0  2  0  0  3  0  0  0  0  0  0
  160.6510  213.7640  143.8940 C   0  0  1  0  0  3  0  0  0  0  0  0
  162.1020  213.8530  143.8130 N   0  0  0  0  0  2  0  0  0  0  0  0
  162.5610  212.6750  143.0990 C   0  0  0  0  0  1  0  0  0  0  0  0
  160.1560  212.7250  142.8950 C   0  0  0  0  0  2  0  0  0  0  0  0
  158.9510  213.2520  142.1350 C   0  0  0  0  0  2  0  0  0  0  0  0
  158.9870  212.7800  140.6880 C   0  0  0  0  0  2  0  0  0  0  0  0
  159.4520  210.6010  139.7840 O   0  0  0  0  0  1  0  0  0  0  0  0
  160.0250  211.6850  140.4500 C   0  0  0  0  0  3  0  0  0  0  0  0
  161.1060  212.1740  139.7160 O   0  0  0  0  0  1  0  0  0  0  0  0
  160.6650  205.6580  149.9010 C   0  0  0  0  0  2  0  0  0  0  0  0
  160.7070  205.6280  148.3780 C   0  0  0  0  0  2  0  0  0  0  0  0
  161.6630  204.5610  147.8680 C   0  0  0  0  0  2  0  0  0  0  0  0
  162.6340  205.1500  146.8580 C   0  0  0  0  0  2  0  0  0  0  0  0
  162.5640  204.3820  145.5500 C   0  0  0  0  0  2  0  0  0  0  0  0
  160.3140  204.4910  144.5260 C   0  0  0  0  0  1  0  0  0  0  0  0
  161.6930  205.1190  144.5490 C   0  0  0  0  0  2  0  0  0  0  0  0
  1 18  1  6  0  0  0
  1  3  1  0  0  0  0
  3  2  2  0  0  0  0
  3  4  1  0  0  0  0
  4  6  1  0  0  0  0
  4  5  2  0  0  0  0
  6 12  1  0  0  0  0
  7  9  1  0  0  0  0
  8 12  2  0  0  0  0
  8  9  1  0  0  0  0
 10 13  1  6  0  0  0
 10  7  1  0  0  0  0
 11 10  1  0  0  0  0
 11  8  1  0  0  0  0
 13 14  1  6  0  0  0
 13 15  1  0  0  0  0
 16 17  1  0  0  0  0
 17 15  1  0  0  0  0
 18 19  1  0  0  0  0
 19 20  3  0  0  0  0
 20 21  1  0  0  0  0
 22 24  2  0  0  0  0
 23 24  1  0  0  0  0
 24 21  1  0  0  0  0
 25 22  1  0  0  0  0
 27 26  1  6  0  0  0
 27 25  1  0  0  0  0
 28 31  1  6  0  0  0
 28 27  1  0  0  0  0
 29 28  1  0  0  0  0
 30 29  1  0  0  0  0
 32 31  1  0  0  0  0
 33 32  1  0  0  0  0
 34 35  1  0  0  0  0
 35 33  1  0  0  0  0
 36 35  1  0  0  0  0
 37  1  1  0  0  0  0
 38 37  1  0  0  0  0
 39 38  1  0  0  0  0
 40 39  1  0  0  0  0
 41 40  1  0  0  0  0
 42 43  1  0  0  0  0
 43 41  1  0  0  0  0
M  END
>  <MODEL>
2

>  <REMARK>
 VINA RESULT:      -5.6      1.438      2.131
  Name = 
  24 active torsions:
  status: ('A' for Active; 'I' for Inactive)
    1  A    between atoms: C_1  and  N_12
    2  A    between atoms: C_1  and  C_21
    3  A    between atoms: C_1  and  C_40
    4  A    between atoms: C_4  and  C_13
    5  A    between atoms: C_4  and  C_36
    6  A    between atoms: C_5  and  C_16
    7  A    between atoms: C_5  and  C_27
    8  A    between atoms: C_6  and  C_21
    9  A    between atoms: C_6  and  C_24
   10  A    between atoms: C_7  and  C_15
   11  A    between atoms: C_7  and  C_22
   12  A    between atoms: C_11  and  C_32
   13  A    between atoms: C_13  and  C_22
   14  A    between atoms: C_14  and  C_15
   15  A    between atoms: C_14  and  C_32
   16  A    between atoms: C_14  and  C_41
   17  A    between atoms: C_17  and  C_37
   18  A    between atoms: C_17  and  C_39
   19  A    between atoms: C_18  and  C_24
   20  A    between atoms: O_19  and  C_27
   21  A    between atoms: C_26  and  C_29
   22  A    between atoms: C_29  and  C_40
   23  A    between atoms: C_30  and  C_41
   24  A    between atoms: N_38  and  N_43
                            x       y       z     vdW  Elec       q    Type
                         _______ _______ _______ _____ _____    ______ ____

>  <TORSDO>
F 24

$$$$
=
 OpenBabel11052411393D

 43 43  0  0  1  0  0  0  0  0999 V2000
  160.9620  212.9350  148.4340 C   0  0  1  0  0  3  0  0  0  0  0  0
  163.1840  212.2720  147.8470 O   0  0  0  0  0  0  0  0  0  0  0  0
  162.1370  212.0090  148.4990 C   0  0  0  0  0  0  0  0  0  0  0  0
  162.0650  210.7800  149.3010 C   0  0  0  0  0  0  0  0  0  0  0  0
  162.0170  210.8480  150.5590 O   0  0  0  0  0  0  0  0  0  0  0  0
  162.0460  209.5080  148.6530 N   0  0  0  0  0  2  0  0  0  0  0  0
  161.2440  204.9610  148.7340 O   0  0  0  0  0  0  0  0  0  0  0  0
  161.6490  207.1990  148.8300 C   0  0  0  0  0  0  0  0  0  0  0  0
  161.5580  206.0150  149.5080 O   0  0  0  0  0  0  0  0  0  0  0  0
  160.9700  205.5090  147.4470 C   0  0  1  0  0  3  0  0  0  0  0  0
  161.3390  206.9970  147.4230 C   0  0  0  0  0  2  0  0  0  0  0  0
  161.9670  208.3200  149.3920 N   0  0  0  0  0  0  0  0  0  0  0  0
  161.7380  204.7450  146.3720 C   0  0  2  0  0  3  0  0  0  0  0  0
  163.0200  205.2840  146.2270 O   0  0  0  0  0  1  0  0  0  0  0  0
  161.0070  204.8320  145.0430 C   0  0  0  0  0  2  0  0  0  0  0  0
  161.0420  202.7120  145.6520 C   0  0  0  0  0  1  0  0  0  0  0  0
  160.5440  203.5690  144.6710 O   0  0  0  0  0  0  0  0  0  0  0  0
  161.0000  213.9190  149.5970 C   0  0  0  0  0  2  0  0  0  0  0  0
  159.9460  213.6130  150.5670 C   0  0  0  0  0  0  0  0  0  0  0  0
  159.0800  213.3600  151.3680 C   0  0  0  0  0  0  0  0  0  0  0  0
  158.0310  213.0460  152.3430 C   0  0  0  0  0  2  0  0  0  0  0  0
  157.9090  211.7700  154.4370 C   0  0  0  0  0  3  0  0  0  0  0  0
  159.3880  210.8850  152.6540 C   0  0  0  0  0  1  0  0  0  0  0  0
  158.4350  211.8950  153.2090 C   0  0  0  0  0  0  0  0  0  0  0  0
  158.2260  210.6330  155.3640 C   0  0  0  0  0  2  0  0  0  0  0  0
  159.4610  212.4380  156.3060 O   0  0  0  0  0  1  0  0  0  0  0  0
  159.2050  211.0710  156.4450 C   0  0  2  0  0  3  0  0  0  0  0  0
  160.5070  210.2790  156.3370 C   0  0  1  0  0  3  0  0  0  0  0  0
  161.6040  211.0430  156.9150 N   0  0  0  0  0  2  0  0  0  0  0  0
  162.8120  210.6510  156.2100 C   0  0  0  0  0  1  0  0  0  0  0  0
  160.3730  208.9540  157.0760 C   0  0  0  0  0  2  0  0  0  0  0  0
  160.2540  207.8060  156.0890 C   0  0  0  0  0  2  0  0  0  0  0  0
  161.0060  208.1280  154.8040 C   0  0  0  0  0  2  0  0  0  0  0  0
  160.7770  207.7390  152.4430 O   0  0  0  0  0  1  0  0  0  0  0  0
  160.7300  207.1180  153.6920 C   0  0  0  0  0  3  0  0  0  0  0  0
  161.6480  206.0680  153.7340 O   0  0  0  0  0  1  0  0  0  0  0  0
  160.9530  213.6580  147.0900 C   0  0  0  0  0  2  0  0  0  0  0  0
  160.6160  212.7100  145.9450 C   0  0  0  0  0  2  0  0  0  0  0  0
  161.5310  212.9340  144.7510 C   0  0  0  0  0  2  0  0  0  0  0  0
  160.7180  213.0670  143.4730 C   0  0  0  0  0  2  0  0  0  0  0  0
  160.2580  211.7000  142.9960 C   0  0  0  0  0  2  0  0  0  0  0  0
  162.0540  212.0400  141.3280 C   0  0  0  0  0  1  0  0  0  0  0  0
  160.6640  211.4800  141.5500 C   0  0  0  0  0  2  0  0  0  0  0  0
  1 37  1  6  0  0  0
  1  3  1  0  0  0  0
  1 18  1  0  0  0  0
  2  3  2  0  0  0  0
  3  4  1  0  0  0  0
  4  5  2  0  0  0  0
  6  4  1  0  0  0  0
  6 12  1  0  0  0  0
  7  9  1  0  0  0  0
  8 12  2  0  0  0  0
  8  9  1  0  0  0  0
 10 13  1  6  0  0  0
 10  7  1  0  0  0  0
 11 10  1  0  0  0  0
 11  8  1  0  0  0  0
 13 14  1  6  0  0  0
 15 13  1  0  0  0  0
 17 15  1  0  0  0  0
 17 16  1  0  0  0  0
 18 19  1  0  0  0  0
 19 20  3  0  0  0  0
 20 21  1  0  0  0  0
 21 24  1  0  0  0  0
 22 25  1  0  0  0  0
 23 24  1  0  0  0  0
 24 22  2  0  0  0  0
 25 27  1  0  0  0  0
 27 26  1  6  0  0  0
 28 27  1  0  0  0  0
 28 29  1  0  0  0  0
 28 31  1  1  0  0  0
 30 29  1  0  0  0  0
 32 31  1  0  0  0  0
 33 32  1  0  0  0  0
 34 35  1  0  0  0  0
 35 36  1  0  0  0  0
 35 33  1  0  0  0  0
 38 37  1  0  0  0  0
 39 38  1  0  0  0  0
 40 39  1  0  0  0  0
 41 40  1  0  0  0  0
 42 43  1  0  0  0  0
 43 41  1  0  0  0  0
M  END
>  <MODEL>
3

>  <REMARK>
 VINA RESULT:      -5.6      2.947     10.252
  Name = 
  24 active torsions:
  status: ('A' for Active; 'I' for Inactive)
    1  A    between atoms: C_1  and  N_12
    2  A    between atoms: C_1  and  C_21
    3  A    between atoms: C_1  and  C_40
    4  A    between atoms: C_4  and  C_13
    5  A    between atoms: C_4  and  C_36
    6  A    between atoms: C_5  and  C_16
    7  A    between atoms: C_5  and  C_27
    8  A    between atoms: C_6  and  C_21
    9  A    between atoms: C_6  and  C_24
   10  A    between atoms: C_7  and  C_15
   11  A    between atoms: C_7  and  C_22
   12  A    between atoms: C_11  and  C_32
   13  A    between atoms: C_13  and  C_22
   14  A    between atoms: C_14  and  C_15
   15  A    between atoms: C_14  and  C_32
   16  A    between atoms: C_14  and  C_41
   17  A    between atoms: C_17  and  C_37
   18  A    between atoms: C_17  and  C_39
   19  A    between atoms: C_18  and  C_24
   20  A    between atoms: O_19  and  C_27
   21  A    between atoms: C_26  and  C_29
   22  A    between atoms: C_29  and  C_40
   23  A    between atoms: C_30  and  C_41
   24  A    between atoms: N_38  and  N_43
                            x       y       z     vdW  Elec       q    Type
                         _______ _______ _______ _____ _____    ______ ____

>  <TORSDO>
F 24

$$$$
=
 OpenBabel11052411393D

 43 43  0  0  1  0  0  0  0  0999 V2000
  160.6900  207.2980  153.4050 C   0  0  1  0  0  3  0  0  0  0  0  0
  160.8280  206.4780  155.6480 O   0  0  0  0  0  0  0  0  0  0  0  0
  160.6440  207.4710  154.8920 C   0  0  0  0  0  0  0  0  0  0  0  0
  160.3610  208.7900  155.4730 C   0  0  0  0  0  0  0  0  0  0  0  0
  159.2900  208.9830  156.1100 O   0  0  0  0  0  0  0  0  0  0  0  0
  161.3030  209.8520  155.3200 N   0  0  0  0  0  2  0  0  0  0  0  0
  159.1300  213.9190  155.0660 O   0  0  0  0  0  0  0  0  0  0  0  0
  160.2700  211.9630  155.3000 C   0  0  0  0  0  0  0  0  0  0  0  0
  160.0050  213.2070  155.7980 O   0  0  0  0  0  0  0  0  0  0  0  0
  158.8880  213.1330  153.9030 C   0  0  1  0  0  3  0  0  0  0  0  0
  159.5390  211.7530  154.0590 C   0  0  0  0  0  2  0  0  0  0  0  0
  161.0630  211.1170  155.8740 N   0  0  0  0  0  0  0  0  0  0  0  0
  157.3880  212.9970  153.6570 C   0  0  2  0  0  3  0  0  0  0  0  0
  157.0630  213.4970  152.3930 O   0  0  0  0  0  1  0  0  0  0  0  0
  156.6110  213.7660  154.7130 C   0  0  0  0  0  2  0  0  0  0  0  0
  156.0190  211.6460  154.8630 C   0  0  0  0  0  1  0  0  0  0  0  0
  155.7200  212.9120  155.3640 O   0  0  0  0  0  0  0  0  0  0  0  0
  160.8540  208.6500  152.7210 C   0  0  0  0  0  2  0  0  0  0  0  0
  161.3530  208.4790  151.3540 C   0  0  0  0  0  0  0  0  0  0  0  0
  161.7600  208.3380  150.2270 C   0  0  0  0  0  0  0  0  0  0  0  0
  162.2500  208.1610  148.8570 C   0  0  0  0  0  2  0  0  0  0  0  0
  161.5680  207.0520  146.7760 C   0  0  0  0  0  3  0  0  0  0  0  0
  160.3020  206.4850  148.8310 C   0  0  0  0  0  1  0  0  0  0  0  0
  161.3670  207.2300  148.0900 C   0  0  0  0  0  0  0  0  0  0  0  0
  160.7570  206.1140  145.9300 C   0  0  0  0  0  2  0  0  0  0  0  0
  160.9220  205.6030  143.6100 O   0  0  0  0  0  1  0  0  0  0  0  0
  161.6100  205.5070  144.8230 C   0  0  2  0  0  3  0  0  0  0  0  0
  161.9240  204.0450  145.1340 C   0  0  1  0  0  3  0  0  0  0  0  0
  162.4860  203.9310  146.4730 N   0  0  0  0  0  2  0  0  0  0  0  0
  163.8740  204.3500  146.3880 C   0  0  0  0  0  1  0  0  0  0  0  0
  160.6530  203.2100  145.0510 C   0  0  0  0  0  2  0  0  0  0  0  0
  160.7430  202.0130  145.9810 C   0  0  0  0  0  2  0  0  0  0  0  0
  160.4730  200.7230  145.2170 C   0  0  0  0  0  2  0  0  0  0  0  0
  161.4470  198.5260  145.1980 O   0  0  0  0  0  1  0  0  0  0  0  0
  160.8380  199.4760  146.0180 C   0  0  0  0  0  3  0  0  0  0  0  0
  161.6830  199.7970  147.0800 O   0  0  0  0  0  1  0  0  0  0  0  0
  161.8200  206.3430  153.0330 C   0  0  0  0  0  2  0  0  0  0  0  0
  161.2870  205.0460  152.4370 C   0  0  0  0  0  2  0  0  0  0  0  0
  161.7550  204.8600  151.0020 C   0  0  0  0  0  2  0  0  0  0  0  0
  161.0720  203.6590  150.3690 C   0  0  0  0  0  2  0  0  0  0  0  0
  161.1840  202.4480  151.2800 C   0  0  0  0  0  2  0  0  0  0  0  0
  159.9480  201.5950  149.3140 C   0  0  0  0  0  1  0  0  0  0  0  0
  160.7140  201.1980  150.5590 C   0  0  0  0  0  2  0  0  0  0  0  0
  1 18  1  6  0  0  0
  1  3  1  0  0  0  0
  3  4  1  0  0  0  0
  3  2  2  0  0  0  0
  4  5  2  0  0  0  0
  6  4  1  0  0  0  0
  6 12  1  0  0  0  0
  7  9  1  0  0  0  0
  8  9  1  0  0  0  0
  8 12  2  0  0  0  0
 10 13  1  1  0  0  0
 10 11  1  0  0  0  0
 10  7  1  0  0  0  0
 11  8  1  0  0  0  0
 13 14  1  6  0  0  0
 13 15  1  0  0  0  0
 15 17  1  0  0  0  0
 16 17  1  0  0  0  0
 19 18  1  0  0  0  0
 20 19  3  0  0  0  0
 21 20  1  0  0  0  0
 22 24  2  0  0  0  0
 24 23  1  0  0  0  0
 24 21  1  0  0  0  0
 25 22  1  0  0  0  0
 27 26  1  6  0  0  0
 27 28  1  0  0  0  0
 27 25  1  0  0  0  0
 28 31  1  1  0  0  0
 28 29  1  0  0  0  0
 30 29  1  0  0  0  0
 31 32  1  0  0  0  0
 33 32  1  0  0  0  0
 33 35  1  0  0  0  0
 34 35  1  0  0  0  0
 35 36  1  0  0  0  0
 37  1  1  0  0  0  0
 38 37  1  0  0  0  0
 39 38  1  0  0  0  0
 40 39  1  0  0  0  0
 40 41  1  0  0  0  0
 42 43  1  0  0  0  0
 43 41  1  0  0  0  0
M  END
>  <MODEL>
4

>  <REMARK>
 VINA RESULT:      -5.5      4.370      6.420
  Name = 
  24 active torsions:
  status: ('A' for Active; 'I' for Inactive)
    1  A    between atoms: C_1  and  N_12
    2  A    between atoms: C_1  and  C_21
    3  A    between atoms: C_1  and  C_40
    4  A    between atoms: C_4  and  C_13
    5  A    between atoms: C_4  and  C_36
    6  A    between atoms: C_5  and  C_16
    7  A    between atoms: C_5  and  C_27
    8  A    between atoms: C_6  and  C_21
    9  A    between atoms: C_6  and  C_24
   10  A    between atoms: C_7  and  C_15
   11  A    between atoms: C_7  and  C_22
   12  A    between atoms: C_11  and  C_32
   13  A    between atoms: C_13  and  C_22
   14  A    between atoms: C_14  and  C_15
   15  A    between atoms: C_14  and  C_32
   16  A    between atoms: C_14  and  C_41
   17  A    between atoms: C_17  and  C_37
   18  A    between atoms: C_17  and  C_39
   19  A    between atoms: C_18  and  C_24
   20  A    between atoms: O_19  and  C_27
   21  A    between atoms: C_26  and  C_29
   22  A    between atoms: C_29  and  C_40
   23  A    between atoms: C_30  and  C_41
   24  A    between atoms: N_38  and  N_43
                            x       y       z     vdW  Elec       q    Type
                         _______ _______ _______ _____ _____    ______ ____

>  <TORSDO>
F 24

$$$$
=
 OpenBabel11052411393D

 43 43  0  0  1  0  0  0  0  0999 V2000
  161.4920  206.0490  146.5830 C   0  0  1  0  0  3  0  0  0  0  0  0
  159.5270  205.9760  145.2210 O   0  0  0  0  0  0  0  0  0  0  0  0
  160.7810  205.8540  145.2800 C   0  0  0  0  0  0  0  0  0  0  0  0
  161.5370  205.4970  144.0720 C   0  0  0  0  0  0  0  0  0  0  0  0
  162.2550  204.4610  144.0590 O   0  0  0  0  0  0  0  0  0  0  0  0
  161.4530  206.3220  142.9100 N   0  0  0  0  0  2  0  0  0  0  0  0
  162.3850  207.2600  138.4850 O   0  0  0  0  0  0  0  0  0  0  0  0
  162.0020  206.6850  140.6540 C   0  0  0  0  0  0  0  0  0  0  0  0
  162.6620  206.4090  139.4890 O   0  0  0  0  0  0  0  0  0  0  0  0
  161.3470  208.1000  138.9810 C   0  0  1  0  0  3  0  0  0  0  0  0
  161.1280  207.8350  140.4760 C   0  0  0  0  0  2  0  0  0  0  0  0
  162.1560  206.0000  141.7410 N   0  0  0  0  0  0  0  0  0  0  0  0
  161.6900  209.5670  138.7390 C   0  0  2  0  0  3  0  0  0  0  0  0
  162.4810  209.6890  137.5930 O   0  0  0  0  0  1  0  0  0  0  0  0
  162.4470  210.1330  139.9300 C   0  0  0  0  0  2  0  0  0  0  0  0
  162.3740  212.2800  140.4310 C   0  0  0  0  0  1  0  0  0  0  0  0
  161.6650  211.0890  140.5790 O   0  0  0  0  0  0  0  0  0  0  0  0
  160.5180  206.5300  147.6510 C   0  0  0  0  0  2  0  0  0  0  0  0
  161.2320  206.8780  148.8820 C   0  0  0  0  0  0  0  0  0  0  0  0
  161.8190  207.1680  149.8950 C   0  0  0  0  0  0  0  0  0  0  0  0
  162.5340  207.5270  151.1240 C   0  0  0  0  0  2  0  0  0  0  0  0
  161.1460  208.2330  153.0220 C   0  0  0  0  0  3  0  0  0  0  0  0
  161.8130  209.9790  151.3920 C   0  0  0  0  0  1  0  0  0  0  0  0
  161.7860  208.5690  151.8920 C   0  0  0  0  0  0  0  0  0  0  0  0
  160.4000  209.2140  153.8770 C   0  0  0  0  0  2  0  0  0  0  0  0
  159.6970  208.6860  156.0910 O   0  0  0  0  0  1  0  0  0  0  0  0
  160.8080  209.0800  155.3390 C   0  0  2  0  0  3  0  0  0  0  0  0
  161.3530  210.4060  155.8630 C   0  0  1  0  0  3  0  0  0  0  0  0
  162.8060  210.4220  155.7610 N   0  0  0  0  0  2  0  0  0  0  0  0
  163.3150  210.9430  157.0180 C   0  0  0  0  0  1  0  0  0  0  0  0
  160.7810  211.5620  155.0520 C   0  0  0  0  0  2  0  0  0  0  0  0
  160.0980  212.5640  155.9660 C   0  0  0  0  0  2  0  0  0  0  0  0
  158.5860  212.4960  155.7960 C   0  0  0  0  0  2  0  0  0  0  0  0
  157.0000  212.2570  154.0060 O   0  0  0  0  0  1  0  0  0  0  0  0
  158.1260  212.9690  154.4200 C   0  0  0  0  0  3  0  0  0  0  0  0
  157.8430  214.3360  154.4320 O   0  0  0  0  0  1  0  0  0  0  0  0
  162.1740  204.7460  146.9940 C   0  0  0  0  0  2  0  0  0  0  0  0
  161.1620  203.6310  147.2250 C   0  0  0  0  0  2  0  0  0  0  0  0
  161.5630  202.7480  148.3960 C   0  0  0  0  0  2  0  0  0  0  0  0
  160.4220  202.6310  149.3930 C   0  0  0  0  0  2  0  0  0  0  0  0
  160.4550  203.7930  150.3710 C   0  0  0  0  0  2  0  0  0  0  0  0
  161.2110  204.5530  152.6010 C   0  0  0  0  0  1  0  0  0  0  0  0
  161.3250  203.4510  151.5680 C   0  0  0  0  0  2  0  0  0  0  0  0
  1 37  1  1  0  0  0
  1 18  1  0  0  0  0
  2  3  2  0  0  0  0
  3  1  1  0  0  0  0
  4  3  1  0  0  0  0
  5  4  2  0  0  0  0
  6  4  1  0  0  0  0
  7 10  1  0  0  0  0
  7  9  1  0  0  0  0
  8 12  2  0  0  0  0
  9  8  1  0  0  0  0
 10 13  1  1  0  0  0
 10 11  1  0  0  0  0
 11  8  1  0  0  0  0
 12  6  1  0  0  0  0
 13 14  1  6  0  0  0
 13 15  1  0  0  0  0
 15 17  1  0  0  0  0
 16 17  1  0  0  0  0
 18 19  1  0  0  0  0
 19 20  3  0  0  0  0
 20 21  1  0  0  0  0
 21 24  1  0  0  0  0
 22 25  1  0  0  0  0
 23 24  1  0  0  0  0
 24 22  2  0  0  0  0
 25 27  1  0  0  0  0
 27 28  1  0  0  0  0
 27 26  1  1  0  0  0
 28 31  1  6  0  0  0
 29 28  1  0  0  0  0
 29 30  1  0  0  0  0
 31 32  1  0  0  0  0
 33 32  1  0  0  0  0
 34 35  1  0  0  0  0
 35 36  1  0  0  0  0
 35 33  1  0  0  0  0
 37 38  1  0  0  0  0
 38 39  1  0  0  0  0
 39 40  1  0  0  0  0
 40 41  1  0  0  0  0
 41 43  1  0  0  0  0
 43 42  1  0  0  0  0
M  END
>  <MODEL>
5

>  <REMARK>
 VINA RESULT:      -5.4      3.117     10.831
  Name = 
  24 active torsions:
  status: ('A' for Active; 'I' for Inactive)
    1  A    between atoms: C_1  and  N_12
    2  A    between atoms: C_1  and  C_21
    3  A    between atoms: C_1  and  C_40
    4  A    between atoms: C_4  and  C_13
    5  A    between atoms: C_4  and  C_36
    6  A    between atoms: C_5  and  C_16
    7  A    between atoms: C_5  and  C_27
    8  A    between atoms: C_6  and  C_21
    9  A    between atoms: C_6  and  C_24
   10  A    between atoms: C_7  and  C_15
   11  A    between atoms: C_7  and  C_22
   12  A    between atoms: C_11  and  C_32
   13  A    between atoms: C_13  and  C_22
   14  A    between atoms: C_14  and  C_15
   15  A    between atoms: C_14  and  C_32
   16  A    between atoms: C_14  and  C_41
   17  A    between atoms: C_17  and  C_37
   18  A    between atoms: C_17  and  C_39
   19  A    between atoms: C_18  and  C_24
   20  A    between atoms: O_19  and  C_27
   21  A    between atoms: C_26  and  C_29
   22  A    between atoms: C_29  and  C_40
   23  A    between atoms: C_30  and  C_41
   24  A    between atoms: N_38  and  N_43
                            x       y       z     vdW  Elec       q    Type
                         _______ _______ _______ _____ _____    ______ ____

>  <TORSDO>
F 24

$$$$
=
 OpenBabel11052411393D

 43 43  0  0  1  0  0  0  0  0999 V2000
  160.8620  208.2900  154.2240 C   0  0  1  0  0  3  0  0  0  0  0  0
  160.1630  208.8220  156.4490 O   0  0  0  0  0  0  0  0  0  0  0  0
  160.3390  209.2280  155.2680 C   0  0  0  0  0  0  0  0  0  0  0  0
  160.0040  210.6140  154.9140 C   0  0  0  0  0  0  0  0  0  0  0  0
  160.7380  211.5610  155.3050 O   0  0  0  0  0  0  0  0  0  0  0  0
  158.8470  210.8860  154.1240 N   0  0  0  0  0  2  0  0  0  0  0  0
  159.4110  214.4520  151.2430 O   0  0  0  0  0  0  0  0  0  0  0  0
  159.0540  212.7750  152.7400 C   0  0  0  0  0  0  0  0  0  0  0  0
  158.7600  214.0510  152.3490 O   0  0  0  0  0  0  0  0  0  0  0  0
  160.3230  213.3990  150.9430 C   0  0  1  0  0  3  0  0  0  0  0  0
  160.0460  212.1930  151.8490 C   0  0  0  0  0  2  0  0  0  0  0  0
  158.5100  212.1980  153.7620 N   0  0  0  0  0  0  0  0  0  0  0  0
  160.2130  213.0050  149.4730 C   0  0  2  0  0  3  0  0  0  0  0  0
  161.2290  212.1040  149.1420 O   0  0  0  0  0  1  0  0  0  0  0  0
  160.3300  214.2360  148.5890 C   0  0  0  0  0  2  0  0  0  0  0  0
  161.1600  213.9730  146.5620 C   0  0  0  0  0  1  0  0  0  0  0  0
  159.9660  213.9180  147.2800 O   0  0  0  0  0  0  0  0  0  0  0  0
  160.4220  206.8630  154.5270 C   0  0  0  0  0  2  0  0  0  0  0  0
  161.0290  205.9240  153.5800 C   0  0  0  0  0  0  0  0  0  0  0  0
  161.5260  205.1490  152.8010 C   0  0  0  0  0  0  0  0  0  0  0  0
  162.1290  204.2010  151.8580 C   0  0  0  0  0  2  0  0  0  0  0  0
  161.1580  202.6760  150.1970 C   0  0  0  0  0  3  0  0  0  0  0  0
  160.2920  204.9990  150.2470 C   0  0  0  0  0  1  0  0  0  0  0  0
  161.1950  203.9080  150.7270 C   0  0  0  0  0  0  0  0  0  0  0  0
  160.2320  202.2780  149.0860 C   0  0  0  0  0  2  0  0  0  0  0  0
  161.8010  200.4860  149.0460 O   0  0  0  0  0  1  0  0  0  0  0  0
  160.8120  201.1180  148.2860 C   0  0  2  0  0  3  0  0  0  0  0  0
  161.4020  201.6200  146.9700 C   0  0  1  0  0  3  0  0  0  0  0  0
  160.7940  200.9140  145.8500 N   0  0  0  0  0  2  0  0  0  0  0  0
  161.1690  199.5170  145.9770 C   0  0  0  0  0  1  0  0  0  0  0  0
  161.1440  203.1140  146.8210 C   0  0  0  0  0  2  0  0  0  0  0  0
  160.9640  203.4780  145.3570 C   0  0  0  0  0  2  0  0  0  0  0  0
  162.0450  204.4550  144.9150 C   0  0  0  0  0  2  0  0  0  0  0  0
  161.4850  205.9150  143.0890 O   0  0  0  0  0  1  0  0  0  0  0  0
  161.4780  205.8040  144.4800 C   0  0  0  0  0  3  0  0  0  0  0  0
  160.1810  205.9770  144.9630 O   0  0  0  0  0  1  0  0  0  0  0  0
  160.3870  208.7420  152.8450 C   0  0  0  0  0  2  0  0  0  0  0  0
  161.5110  209.3910  152.0480 C   0  0  0  0  0  2  0  0  0  0  0  0
  162.6490  208.4140  151.7940 C   0  0  0  0  0  2  0  0  0  0  0  0
  162.3890  207.6070  150.5330 C   0  0  0  0  0  2  0  0  0  0  0  0
  161.5140  208.3960  149.5730 C   0  0  0  0  0  2  0  0  0  0  0  0
  162.2520  206.7210  147.9090 C   0  0  0  0  0  1  0  0  0  0  0  0
  161.9810  208.1920  148.1430 C   0  0  0  0  0  2  0  0  0  0  0  0
  1 37  1  6  0  0  0
  1 18  1  0  0  0  0
  1  3  1  0  0  0  0
  3  2  2  0  0  0  0
  4  3  1  0  0  0  0
  4  5  2  0  0  0  0
  6  4  1  0  0  0  0
  7  9  1  0  0  0  0
  8 12  2  0  0  0  0
  9  8  1  0  0  0  0
 10 13  1  6  0  0  0
 10  7  1  0  0  0  0
 10 11  1  0  0  0  0
 11  8  1  0  0  0  0
 12  6  1  0  0  0  0
 13 14  1  6  0  0  0
 15 13  1  0  0  0  0
 16 17  1  0  0  0  0
 17 15  1  0  0  0  0
 19 18  1  0  0  0  0
 20 19  3  0  0  0  0
 21 20  1  0  0  0  0
 22 24  2  0  0  0  0
 23 24  1  0  0  0  0
 24 21  1  0  0  0  0
 25 22  1  0  0  0  0
 27 26  1  1  0  0  0
 27 25  1  0  0  0  0
 28 31  1  6  0  0  0
 28 27  1  0  0  0  0
 29 30  1  0  0  0  0
 29 28  1  0  0  0  0
 32 31  1  0  0  0  0
 33 32  1  0  0  0  0
 34 35  1  0  0  0  0
 35 33  1  0  0  0  0
 35 36  1  0  0  0  0
 38 37  1  0  0  0  0
 39 38  1  0  0  0  0
 40 39  1  0  0  0  0
 41 40  1  0  0  0  0
 42 43  1  0  0  0  0
 43 41  1  0  0  0  0
M  END
>  <MODEL>
6

>  <REMARK>
 VINA RESULT:      -5.3      3.515      7.440
  Name = 
  24 active torsions:
  status: ('A' for Active; 'I' for Inactive)
    1  A    between atoms: C_1  and  N_12
    2  A    between atoms: C_1  and  C_21
    3  A    between atoms: C_1  and  C_40
    4  A    between atoms: C_4  and  C_13
    5  A    between atoms: C_4  and  C_36
    6  A    between atoms: C_5  and  C_16
    7  A    between atoms: C_5  and  C_27
    8  A    between atoms: C_6  and  C_21
    9  A    between atoms: C_6  and  C_24
   10  A    between atoms: C_7  and  C_15
   11  A    between atoms: C_7  and  C_22
   12  A    between atoms: C_11  and  C_32
   13  A    between atoms: C_13  and  C_22
   14  A    between atoms: C_14  and  C_15
   15  A    between atoms: C_14  and  C_32
   16  A    between atoms: C_14  and  C_41
   17  A    between atoms: C_17  and  C_37
   18  A    between atoms: C_17  and  C_39
   19  A    between atoms: C_18  and  C_24
   20  A    between atoms: O_19  and  C_27
   21  A    between atoms: C_26  and  C_29
   22  A    between atoms: C_29  and  C_40
   23  A    between atoms: C_30  and  C_41
   24  A    between atoms: N_38  and  N_43
                            x       y       z     vdW  Elec       q    Type
                         _______ _______ _______ _____ _____    ______ ____

>  <TORSDO>
F 24

$$$$
=
 OpenBabel11052411393D

 43 43  0  0  1  0  0  0  0  0999 V2000
  161.3820  205.6030  147.0410 C   0  0  1  0  0  3  0  0  0  0  0  0
  159.7150  206.2920  145.4700 O   0  0  0  0  0  0  0  0  0  0  0  0
  160.8840  205.8540  145.6520 C   0  0  0  0  0  0  0  0  0  0  0  0
  161.7440  205.5660  144.4960 C   0  0  0  0  0  0  0  0  0  0  0  0
  162.7830  204.8680  144.6390 O   0  0  0  0  0  0  0  0  0  0  0  0
  161.3980  206.0770  143.2080 N   0  0  0  0  0  2  0  0  0  0  0  0
  162.6420  207.1890  138.9010 O   0  0  0  0  0  0  0  0  0  0  0  0
  162.1090  206.5300  141.0140 C   0  0  0  0  0  0  0  0  0  0  0  0
  162.8610  206.3090  139.8950 O   0  0  0  0  0  0  0  0  0  0  0  0
  161.5490  207.9900  139.3440 C   0  0  1  0  0  3  0  0  0  0  0  0
  161.2240  207.6670  140.8070 C   0  0  0  0  0  2  0  0  0  0  0  0
  162.1950  205.8100  142.0850 N   0  0  0  0  0  0  0  0  0  0  0  0
  161.8760  209.4710  139.1780 C   0  0  2  0  0  3  0  0  0  0  0  0
  162.9410  209.8210  140.0130 O   0  0  0  0  0  1  0  0  0  0  0  0
  160.6650  210.3190  139.5310 C   0  0  0  0  0  2  0  0  0  0  0  0
  159.7760  211.7400  140.9640 C   0  0  0  0  0  1  0  0  0  0  0  0
  161.0000  211.2330  140.5300 O   0  0  0  0  0  0  0  0  0  0  0  0
  160.3810  206.1250  148.0640 C   0  0  0  0  0  2  0  0  0  0  0  0
  161.0420  207.0080  149.0290 C   0  0  0  0  0  0  0  0  0  0  0  0
  161.5850  207.7330  149.8250 C   0  0  0  0  0  0  0  0  0  0  0  0
  162.2410  208.6120  150.7990 C   0  0  0  0  0  2  0  0  0  0  0  0
  160.8350  210.2050  152.0290 C   0  0  0  0  0  3  0  0  0  0  0  0
  160.9030  207.8710  152.8650 C   0  0  0  0  0  1  0  0  0  0  0  0
  161.3110  208.9550  151.9190 C   0  0  0  0  0  0  0  0  0  0  0  0
  159.8720  210.6360  153.0960 C   0  0  0  0  0  2  0  0  0  0  0  0
  159.9080  212.5980  154.4440 O   0  0  0  0  0  1  0  0  0  0  0  0
  159.7440  212.1530  153.1300 C   0  0  2  0  0  3  0  0  0  0  0  0
  158.3790  212.5840  152.5960 C   0  0  1  0  0  3  0  0  0  0  0  0
  157.7450  213.5010  153.5330 N   0  0  0  0  0  2  0  0  0  0  0  0
  156.6360  212.7870  154.1410 C   0  0  0  0  0  1  0  0  0  0  0  0
  158.5410  213.2760  151.2490 C   0  0  0  0  0  2  0  0  0  0  0  0
  159.8730  214.0030  151.1830 C   0  0  0  0  0  2  0  0  0  0  0  0
  160.2450  214.3020  149.7370 C   0  0  0  0  0  2  0  0  0  0  0  0
  159.9110  212.9130  147.8040 O   0  0  0  0  0  1  0  0  0  0  0  0
  160.6670  213.0520  148.9680 C   0  0  0  0  0  3  0  0  0  0  0  0
  162.0240  213.1000  148.6470 O   0  0  0  0  0  1  0  0  0  0  0  0
  161.6470  204.1110  147.2290 C   0  0  0  0  0  2  0  0  0  0  0  0
  160.7460  203.5110  148.3010 C   0  0  0  0  0  2  0  0  0  0  0  0
  161.1190  202.0660  148.5960 C   0  0  0  0  0  2  0  0  0  0  0  0
  160.6530  201.6680  149.9870 C   0  0  0  0  0  2  0  0  0  0  0  0
  161.5580  202.2830  151.0410 C   0  0  0  0  0  2  0  0  0  0  0  0
  161.6980  204.6120  151.8640 C   0  0  0  0  0  1  0  0  0  0  0  0
  160.8240  203.3770  151.7950 C   0  0  0  0  0  2  0  0  0  0  0  0
  1 37  1  1  0  0  0
  1 18  1  0  0  0  0
  2  3  2  0  0  0  0
  3  1  1  0  0  0  0
  4  5  2  0  0  0  0
  4  3  1  0  0  0  0
  6  4  1  0  0  0  0
  7 10  1  0  0  0  0
  7  9  1  0  0  0  0
  8 12  2  0  0  0  0
  9  8  1  0  0  0  0
 10 13  1  1  0  0  0
 10 11  1  0  0  0  0
 11  8  1  0  0  0  0
 12  6  1  0  0  0  0
 13 15  1  0  0  0  0
 13 14  1  1  0  0  0
 15 17  1  0  0  0  0
 17 16  1  0  0  0  0
 18 19  1  0  0  0  0
 19 20  3  0  0  0  0
 20 21  1  0  0  0  0
 21 24  1  0  0  0  0
 22 25  1  0  0  0  0
 24 22  2  0  0  0  0
 24 23  1  0  0  0  0
 25 27  1  0  0  0  0
 27 26  1  1  0  0  0
 28 31  1  6  0  0  0
 28 27  1  0  0  0  0
 28 29  1  0  0  0  0
 29 30  1  0  0  0  0
 32 31  1  0  0  0  0
 33 32  1  0  0  0  0
 34 35  1  0  0  0  0
 35 33  1  0  0  0  0
 36 35  1  0  0  0  0
 37 38  1  0  0  0  0
 38 39  1  0  0  0  0
 39 40  1  0  0  0  0
 40 41  1  0  0  0  0
 41 43  1  0  0  0  0
 43 42  1  0  0  0  0
M  END
>  <MODEL>
7

>  <REMARK>
 VINA RESULT:      -5.3      3.009      9.370
  Name = 
  24 active torsions:
  status: ('A' for Active; 'I' for Inactive)
    1  A    between atoms: C_1  and  N_12
    2  A    between atoms: C_1  and  C_21
    3  A    between atoms: C_1  and  C_40
    4  A    between atoms: C_4  and  C_13
    5  A    between atoms: C_4  and  C_36
    6  A    between atoms: C_5  and  C_16
    7  A    between atoms: C_5  and  C_27
    8  A    between atoms: C_6  and  C_21
    9  A    between atoms: C_6  and  C_24
   10  A    between atoms: C_7  and  C_15
   11  A    between atoms: C_7  and  C_22
   12  A    between atoms: C_11  and  C_32
   13  A    between atoms: C_13  and  C_22
   14  A    between atoms: C_14  and  C_15
   15  A    between atoms: C_14  and  C_32
   16  A    between atoms: C_14  and  C_41
   17  A    between atoms: C_17  and  C_37
   18  A    between atoms: C_17  and  C_39
   19  A    between atoms: C_18  and  C_24
   20  A    between atoms: O_19  and  C_27
   21  A    between atoms: C_26  and  C_29
   22  A    between atoms: C_29  and  C_40
   23  A    between atoms: C_30  and  C_41
   24  A    between atoms: N_38  and  N_43
                            x       y       z     vdW  Elec       q    Type
                         _______ _______ _______ _____ _____    ______ ____

>  <TORSDO>
F 24

$$$$
=
 OpenBabel11052411393D

 43 43  0  0  1  0  0  0  0  0999 V2000
  161.5940  207.5590  153.2710 C   0  0  1  0  0  3  0  0  0  0  0  0
  160.6290  206.3240  155.0780 O   0  0  0  0  0  0  0  0  0  0  0  0
  161.0390  207.4400  154.6560 C   0  0  0  0  0  0  0  0  0  0  0  0
  160.9460  208.6250  155.5180 C   0  0  0  0  0  0  0  0  0  0  0  0
  161.9760  209.3060  155.7710 O   0  0  0  0  0  0  0  0  0  0  0  0
  159.6850  209.0080  156.0680 N   0  0  0  0  0  2  0  0  0  0  0  0
  158.4630  213.4400  156.5110 O   0  0  0  0  0  0  0  0  0  0  0  0
  159.1140  211.2600  156.4200 C   0  0  0  0  0  0  0  0  0  0  0  0
  158.9800  212.3910  157.1760 O   0  0  0  0  0  0  0  0  0  0  0  0
  158.3670  213.0130  155.1550 C   0  0  1  0  0  3  0  0  0  0  0  0
  158.6820  211.5160  155.0540 C   0  0  0  0  0  2  0  0  0  0  0  0
  159.5650  210.1410  156.8850 N   0  0  0  0  0  0  0  0  0  0  0  0
  156.9750  213.3090  154.6040 C   0  0  2  0  0  3  0  0  0  0  0  0
  156.3190  212.1140  154.2960 O   0  0  0  0  0  1  0  0  0  0  0  0
  157.0770  214.1590  153.3480 C   0  0  0  0  0  2  0  0  0  0  0  0
  157.5660  213.8370  151.2210 C   0  0  0  0  0  1  0  0  0  0  0  0
  158.0680  213.6500  152.5080 O   0  0  0  0  0  0  0  0  0  0  0  0
  161.7030  206.1830  152.6240 C   0  0  0  0  0  2  0  0  0  0  0  0
  161.1330  206.2010  151.2740 C   0  0  0  0  0  0  0  0  0  0  0  0
  160.6660  206.2190  150.1630 C   0  0  0  0  0  0  0  0  0  0  0  0
  160.0950  206.2470  148.8120 C   0  0  0  0  0  2  0  0  0  0  0  0
  161.7830  204.8290  147.7330 C   0  0  0  0  0  3  0  0  0  0  0  0
  161.4440  207.1000  146.7970 C   0  0  0  0  0  1  0  0  0  0  0  0
  161.1520  206.0120  147.7810 C   0  0  0  0  0  0  0  0  0  0  0  0
  162.8310  204.4870  146.7150 C   0  0  0  0  0  2  0  0  0  0  0  0
  161.9540  204.5290  144.5010 O   0  0  0  0  0  1  0  0  0  0  0  0
  162.2330  203.6760  145.5720 C   0  0  2  0  0  3  0  0  0  0  0  0
  160.9560  202.9730  146.0300 C   0  0  1  0  0  3  0  0  0  0  0  0
  159.9860  202.9470  144.9430 N   0  0  0  0  0  2  0  0  0  0  0  0
  159.4930  201.5840  144.8480 C   0  0  0  0  0  1  0  0  0  0  0  0
  161.2720  201.5450  146.4550 C   0  0  0  0  0  2  0  0  0  0  0  0
  161.9280  201.5310  147.8240 C   0  0  0  0  0  2  0  0  0  0  0  0
  161.1700  200.6090  148.7690 C   0  0  0  0  0  2  0  0  0  0  0  0
  161.3580  201.9130  150.7790 O   0  0  0  0  0  1  0  0  0  0  0  0
  160.4440  201.3680  149.8770 C   0  0  0  0  0  3  0  0  0  0  0  0
  159.6440  202.3800  149.3450 O   0  0  0  0  0  1  0  0  0  0  0  0
  160.7160  208.4960  152.4450 C   0  0  0  0  0  2  0  0  0  0  0  0
  161.3950  209.8400  152.2110 C   0  0  0  0  0  2  0  0  0  0  0  0
  162.5050  209.7300  151.1770 C   0  0  0  0  0  2  0  0  0  0  0  0
  161.9570  209.9630  149.7780 C   0  0  0  0  0  2  0  0  0  0  0  0
  161.6600  211.4380  149.5680 C   0  0  0  0  0  2  0  0  0  0  0  0
  163.1690  212.4460  147.8850 C   0  0  0  0  0  1  0  0  0  0  0  0
  161.8140  211.8050  148.1030 C   0  0  0  0  0  2  0  0  0  0  0  0
  1 37  1  6  0  0  0
  1  3  1  0  0  0  0
  3  2  2  0  0  0  0
  3  4  1  0  0  0  0
  4  5  2  0  0  0  0
  4  6  1  0  0  0  0
  6 12  1  0  0  0  0
  7  9  1  0  0  0  0
  8 12  2  0  0  0  0
  8  9  1  0  0  0  0
 10 13  1  1  0  0  0
 10  7  1  0  0  0  0
 11 10  1  0  0  0  0
 11  8  1  0  0  0  0
 13 14  1  6  0  0  0
 15 13  1  0  0  0  0
 16 17  1  0  0  0  0
 17 15  1  0  0  0  0
 18  1  1  0  0  0  0
 19 18  1  0  0  0  0
 20 19  3  0  0  0  0
 21 20  1  0  0  0  0
 22 24  2  0  0  0  0
 23 24  1  0  0  0  0
 24 21  1  0  0  0  0
 25 22  1  0  0  0  0
 27 26  1  6  0  0  0
 27 28  1  0  0  0  0
 27 25  1  0  0  0  0
 28 31  1  6  0  0  0
 29 28  1  0  0  0  0
 30 29  1  0  0  0  0
 31 32  1  0  0  0  0
 32 33  1  0  0  0  0
 33 35  1  0  0  0  0
 35 34  1  0  0  0  0
 36 35  1  0  0  0  0
 38 37  1  0  0  0  0
 39 38  1  0  0  0  0
 40 39  1  0  0  0  0
 41 40  1  0  0  0  0
 42 43  1  0  0  0  0
 43 41  1  0  0  0  0
M  END
>  <MODEL>
8

>  <REMARK>
 VINA RESULT:      -5.0      3.954      7.689
  Name = 
  24 active torsions:
  status: ('A' for Active; 'I' for Inactive)
    1  A    between atoms: C_1  and  N_12
    2  A    between atoms: C_1  and  C_21
    3  A    between atoms: C_1  and  C_40
    4  A    between atoms: C_4  and  C_13
    5  A    between atoms: C_4  and  C_36
    6  A    between atoms: C_5  and  C_16
    7  A    between atoms: C_5  and  C_27
    8  A    between atoms: C_6  and  C_21
    9  A    between atoms: C_6  and  C_24
   10  A    between atoms: C_7  and  C_15
   11  A    between atoms: C_7  and  C_22
   12  A    between atoms: C_11  and  C_32
   13  A    between atoms: C_13  and  C_22
   14  A    between atoms: C_14  and  C_15
   15  A    between atoms: C_14  and  C_32
   16  A    between atoms: C_14  and  C_41
   17  A    between atoms: C_17  and  C_37
   18  A    between atoms: C_17  and  C_39
   19  A    between atoms: C_18  and  C_24
   20  A    between atoms: O_19  and  C_27
   21  A    between atoms: C_26  and  C_29
   22  A    between atoms: C_29  and  C_40
   23  A    between atoms: C_30  and  C_41
   24  A    between atoms: N_38  and  N_43
                            x       y       z     vdW  Elec       q    Type
                         _______ _______ _______ _____ _____    ______ ____

>  <TORSDO>
F 24

$$$$
=
 OpenBabel11052411393D

 43 43  0  0  1  0  0  0  0  0999 V2000
  161.1860  212.8860  147.6900 C   0  0  1  0  0  3  0  0  0  0  0  0
  163.4860  212.2690  147.9150 O   0  0  0  0  0  0  0  0  0  0  0  0
  162.2910  212.0430  148.2480 C   0  0  0  0  0  0  0  0  0  0  0  0
  161.9840  210.9360  149.1630 C   0  0  0  0  0  0  0  0  0  0  0  0
  161.5650  211.1750  150.3280 O   0  0  0  0  0  0  0  0  0  0  0  0
  162.1580  209.5870  148.7300 N   0  0  0  0  0  2  0  0  0  0  0  0
  160.9920  205.1430  149.2020 O   0  0  0  0  0  0  0  0  0  0  0  0
  161.5540  207.3460  149.1050 C   0  0  0  0  0  0  0  0  0  0  0  0
  161.2570  206.2680  149.8900 O   0  0  0  0  0  0  0  0  0  0  0  0
  160.9780  205.5360  147.8320 C   0  0  1  0  0  3  0  0  0  0  0  0
  161.4640  206.9840  147.6980 C   0  0  0  0  0  2  0  0  0  0  0  0
  161.8640  208.5100  149.5780 N   0  0  0  0  0  0  0  0  0  0  0  0
  161.8490  204.5960  147.0030 C   0  0  2  0  0  3  0  0  0  0  0  0
  163.0970  205.1820  146.7700 O   0  0  0  0  0  1  0  0  0  0  0  0
  161.1810  204.2990  145.6710 C   0  0  0  0  0  2  0  0  0  0  0  0
  161.2060  205.4740  143.8040 C   0  0  0  0  0  1  0  0  0  0  0  0
  160.7040  205.4820  145.1040 O   0  0  0  0  0  0  0  0  0  0  0  0
  161.2570  214.2970  148.2610 C   0  0  0  0  0  2  0  0  0  0  0  0
  160.6440  214.3480  149.5910 C   0  0  0  0  0  0  0  0  0  0  0  0
  160.1400  214.3930  150.6860 C   0  0  0  0  0  0  0  0  0  0  0  0
  159.5310  214.4530  152.0180 C   0  0  0  0  0  2  0  0  0  0  0  0
  158.3280  212.8020  153.3790 C   0  0  0  0  0  3  0  0  0  0  0  0
  157.6530  213.0200  151.0040 C   0  0  0  0  0  1  0  0  0  0  0  0
  158.5000  213.3820  152.1830 C   0  0  0  0  0  0  0  0  0  0  0  0
  157.2980  211.7450  153.6500 C   0  0  0  0  0  2  0  0  0  0  0  0
  156.2610  212.2300  155.7390 O   0  0  0  0  0  1  0  0  0  0  0  0
  157.2300  211.4220  155.1370 C   0  0  2  0  0  3  0  0  0  0  0  0
  158.5890  211.6540  155.7950 C   0  0  1  0  0  3  0  0  0  0  0  0
  158.5350  212.8360  156.6440 N   0  0  0  0  0  2  0  0  0  0  0  0
  159.8930  213.3400  156.7560 C   0  0  0  0  0  1  0  0  0  0  0  0
  158.9720  210.4460  156.6400 C   0  0  0  0  0  2  0  0  0  0  0  0
  159.5970  209.3690  155.7720 C   0  0  0  0  0  2  0  0  0  0  0  0
  160.3500  209.9950  154.6050 C   0  0  0  0  0  2  0  0  0  0  0  0
  162.5100  210.4070  153.6340 O   0  0  0  0  0  1  0  0  0  0  0  0
  161.8540  209.7410  154.6700 C   0  0  0  0  0  3  0  0  0  0  0  0
  162.3750  210.1480  155.8990 O   0  0  0  0  0  1  0  0  0  0  0  0
  161.2670  212.8950  146.1660 C   0  0  0  0  0  2  0  0  0  0  0  0
  161.3040  214.3150  145.6140 C   0  0  0  0  0  2  0  0  0  0  0  0
  162.2730  214.4330  144.4480 C   0  0  0  0  0  2  0  0  0  0  0  0
  161.6490  213.8840  143.1760 C   0  0  0  0  0  2  0  0  0  0  0  0
  162.3470  212.6010  142.7580 C   0  0  0  0  0  2  0  0  0  0  0  0
  160.7060  211.6950  141.1430 C   0  0  0  0  0  1  0  0  0  0  0  0
  162.0830  212.3080  141.2920 C   0  0  0  0  0  2  0  0  0  0  0  0
  1 37  1  6  0  0  0
  1  3  1  0  0  0  0
  1 18  1  0  0  0  0
  2  3  2  0  0  0  0
  3  4  1  0  0  0  0
  4  5  2  0  0  0  0
  6  4  1  0  0  0  0
  6 12  1  0  0  0  0
  7  9  1  0  0  0  0
  8 12  2  0  0  0  0
  8  9  1  0  0  0  0
 10 13  1  6  0  0  0
 10  7  1  0  0  0  0
 11 10  1  0  0  0  0
 11  8  1  0  0  0  0
 13 14  1  6  0  0  0
 15 13  1  0  0  0  0
 16 17  1  0  0  0  0
 17 15  1  0  0  0  0
 18 19  1  0  0  0  0
 19 20  3  0  0  0  0
 20 21  1  0  0  0  0
 21 24  1  0  0  0  0
 22 25  1  0  0  0  0
 23 24  1  0  0  0  0
 24 22  2  0  0  0  0
 25 27  1  0  0  0  0
 27 26  1  1  0  0  0
 27 28  1  0  0  0  0
 28 31  1  1  0  0  0
 28 29  1  0  0  0  0
 29 30  1  0  0  0  0
 32 31  1  0  0  0  0
 33 35  1  0  0  0  0
 33 32  1  0  0  0  0
 34 35  1  0  0  0  0
 35 36  1  0  0  0  0
 38 37  1  0  0  0  0
 39 38  1  0  0  0  0
 40 39  1  0  0  0  0
 41 40  1  0  0  0  0
 42 43  1  0  0  0  0
 43 41  1  0  0  0  0
M  END
>  <MODEL>
9

>  <REMARK>
 VINA RESULT:      -4.6      2.999     10.218
  Name = 
  24 active torsions:
  status: ('A' for Active; 'I' for Inactive)
    1  A    between atoms: C_1  and  N_12
    2  A    between atoms: C_1  and  C_21
    3  A    between atoms: C_1  and  C_40
    4  A    between atoms: C_4  and  C_13
    5  A    between atoms: C_4  and  C_36
    6  A    between atoms: C_5  and  C_16
    7  A    between atoms: C_5  and  C_27
    8  A    between atoms: C_6  and  C_21
    9  A    between atoms: C_6  and  C_24
   10  A    between atoms: C_7  and  C_15
   11  A    between atoms: C_7  and  C_22
   12  A    between atoms: C_11  and  C_32
   13  A    between atoms: C_13  and  C_22
   14  A    between atoms: C_14  and  C_15
   15  A    between atoms: C_14  and  C_32
   16  A    between atoms: C_14  and  C_41
   17  A    between atoms: C_17  and  C_37
   18  A    between atoms: C_17  and  C_39
   19  A    between atoms: C_18  and  C_24
   20  A    between atoms: O_19  and  C_27
   21  A    between atoms: C_26  and  C_29
   22  A    between atoms: C_29  and  C_40
   23  A    between atoms: C_30  and  C_41
   24  A    between atoms: N_38  and  N_43
                            x       y       z     vdW  Elec       q    Type
                         _______ _______ _______ _____ _____    ______ ____

>  <TORSDO>
F 24

$$$$
