=
 OpenBabel11052410253D

 36 40  0  0  1  0  0  0  0  0999 V2000
  160.7190  209.8000  152.6130 C   0  0  1  0  0  3  0  0  0  0  0  0
  161.1950  203.4050  152.4670 C   0  0  0  0  0  2  0  0  0  0  0  0
  161.4870  207.4840  149.7820 C   0  0  0  0  0  0  0  0  0  0  0  0
  160.3440  210.5110  153.9100 C   0  0  0  0  0  2  0  0  0  0  0  0
  161.2220  210.0420  155.0760 C   0  0  1  0  0  3  0  0  0  0  0  0
  162.0620  207.6310  152.1830 C   0  0  1  0  0  3  0  0  0  0  0  0
  160.1150  205.5120  153.2920 C   0  0  0  0  0  2  0  0  0  0  0  0
  160.6780  206.3930  154.4030 C   0  0  0  0  0  2  0  0  0  0  0  0
  161.2920  204.9190  152.5360 C   0  0  2  0  0  3  0  0  0  0  0  0
  161.3710  205.4210  151.1650 N   0  0  0  0  0  0  0  0  0  0  0  0
  160.5060  205.7660  146.8880 C   0  0  0  0  0  2  0  0  0  0  0  0
  160.7960  208.2710  152.7890 C   0  0  1  0  0  3  0  0  0  0  0  0
  159.7800  210.1110  151.6280 O   0  0  0  0  0  1  0  0  0  0  0  0
  161.7050  206.8270  150.9480 C   0  0  0  0  0  0  0  0  0  0  0  0
  161.0080  205.4490  148.2530 C   0  0  0  0  0  0  0  0  0  0  0  0
  161.3930  208.5160  155.1110 C   0  0  0  0  0  2  0  0  0  0  0  0
  161.0400  206.7770  148.5830 C   0  0  0  0  0  0  0  0  0  0  0  0
  160.4960  207.8340  154.1740 N   0  0  2  0  0  0  0  0  0  0  0  0
  160.5240  207.1440  147.2320 C   0  0  0  0  0  2  0  0  0  0  0  0
  163.1010  208.5440  151.9630 O   0  0  0  0  0  1  0  0  0  0  0  0
  161.7440  203.0370  151.1060 C   0  0  0  0  0  2  0  0  0  0  0  0
  161.5740  204.2770  150.3060 C   0  0  0  0  0  0  0  0  0  0  0  0
  161.3930  204.2470  148.9640 C   0  0  0  0  0  0  0  0  0  0  0  0
  162.5330  210.6630  154.9960 N   0  0  0  0  0  2  0  0  0  0  0  0
  162.9940  210.8840  156.3560 C   0  0  0  0  0  2  0  0  0  0  0  0
  161.5300  212.5450  157.2310 O   0  0  0  0  0  1  0  0  0  0  0  0
  161.8070  211.1770  157.2600 C   0  0  0  0  0  2  0  0  0  0  0  0
  161.5150  203.0900  148.1720 O   0  0  0  0  0  0  0  0  0  0  0  0
  161.3410  200.7090  148.3600 C   0  0  0  0  0  1  0  0  0  0  0  0
  160.5950  202.0050  148.1260 C   0  0  0  0  0  2  0  0  0  0  0  0
  161.6910  208.8740  149.7380 O   0  0  0  0  0  0  0  0  0  0  0  0
  162.2070  209.5720  148.6120 C   0  0  0  0  0  2  0  0  0  0  0  0
  162.1140  211.6160  149.8270 O   0  0  0  0  0  0  0  0  0  0  0  0
  161.3710  211.7320  147.6120 N   0  0  0  0  0  2  0  0  0  0  0  0
  161.8890  211.0200  148.7390 C   0  0  0  0  0  0  0  0  0  0  0  0
  161.0710  213.1530  147.6730 C   0  0  0  0  0  1  0  0  0  0  0  0
  1 13  1  6  0  0  0
  1 12  1  0  0  0  0
  1  4  1  0  0  0  0
  3 14  2  0  0  0  0
  4  5  1  0  0  0  0
  5 24  1  6  0  0  0
  5 16  1  0  0  0  0
  6 20  1  6  0  0  0
  6 12  1  0  0  0  0
  7  8  1  0  0  0  0
  9  2  1  6  0  0  0
  9  7  1  0  0  0  0
 10  9  1  0  0  0  0
 11 19  1  0  0  0  0
 11 15  1  0  0  0  0
 12 18  1  0  0  0  0
 14 10  1  0  0  0  0
 14  6  1  0  0  0  0
 15 17  2  0  0  0  0
 15 23  1  0  0  0  0
 17  3  1  0  0  0  0
 18  8  1  0  0  0  0
 18 16  1  0  0  0  0
 19 17  1  0  0  0  0
 21  2  1  0  0  0  0
 22 21  1  0  0  0  0
 22 10  1  0  0  0  0
 23 22  2  0  0  0  0
 24 25  1  0  0  0  0
 25 27  1  0  0  0  0
 26 27  1  0  0  0  0
 28 23  1  0  0  0  0
 30 28  1  0  0  0  0
 30 29  1  0  0  0  0
 31  3  1  0  0  0  0
 32 35  1  0  0  0  0
 32 31  1  0  0  0  0
 34 36  1  0  0  0  0
 34 35  1  0  0  0  0
 35 33  2  0  0  0  0
M  END
>  <MODEL>
1

>  <REMARK>
 VINA RESULT:      -4.6      0.000      0.000
  Name = 
  8 active torsions:
  status: ('A' for Active; 'I' for Inactive)
    1  A    between atoms: C_4  and  O_35
    2  A    between atoms: C_6  and  N_29
    3  A    between atoms: C_19  and  C_21
    4  A    between atoms: C_19  and  N_29
    5  A    between atoms: C_24  and  C_28
    6  A    between atoms: C_24  and  O_35
    7  A    between atoms: C_27  and  O_33
    8  A    between atoms: O_33  and  C_34
                            x       y       z     vdW  Elec       q    Type
                         _______ _______ _______ _____ _____    ______ ____

>  <TORSDO>
F 8

$$$$
=
 OpenBabel11052410253D

 36 40  0  0  1  0  0  0  0  0999 V2000
  161.0550  211.4950  147.4920 C   0  0  1  0  0  3  0  0  0  0  0  0
  160.3370  211.8670  153.8550 C   0  0  0  0  0  2  0  0  0  0  0  0
  161.7520  208.9810  150.1670 C   0  0  0  0  0  0  0  0  0  0  0  0
  160.6470  212.6680  146.6060 C   0  0  0  0  0  2  0  0  0  0  0  0
  161.2550  213.9840  147.1070 C   0  0  1  0  0  3  0  0  0  0  0  0
  162.0130  211.4250  149.8940 C   0  0  1  0  0  3  0  0  0  0  0  0
  159.5690  212.3710  151.5220 C   0  0  0  0  0  2  0  0  0  0  0  0
  160.1310  213.4910  150.6510 C   0  0  0  0  0  2  0  0  0  0  0  0
  160.7060  211.8440  152.3820 C   0  0  2  0  0  3  0  0  0  0  0  0
  161.0640  210.4700  152.0360 N   0  0  0  0  0  0  0  0  0  0  0  0
  160.8690  206.0980  151.9560 C   0  0  0  0  0  2  0  0  0  0  0  0
  160.8190  211.7870  148.9870 C   0  0  1  0  0  3  0  0  0  0  0  0
  160.3350  210.3610  147.1170 O   0  0  0  0  0  1  0  0  0  0  0  0
  161.6820  210.2090  150.7380 C   0  0  0  0  0  0  0  0  0  0  0  0
  161.1120  207.5420  152.2240 C   0  0  0  0  0  0  0  0  0  0  0  0
  161.1290  214.1490  148.6300 C   0  0  0  0  0  2  0  0  0  0  0  0
  161.3470  207.7800  150.8960 C   0  0  0  0  0  0  0  0  0  0  0  0
  160.2570  213.1380  149.2300 N   0  0  2  0  0  0  0  0  0  0  0  0
  161.0980  206.3440  150.5760 C   0  0  0  0  0  2  0  0  0  0  0  0
  163.2250  211.3020  149.2040 O   0  0  0  0  0  1  0  0  0  0  0  0
  160.9860  210.6330  154.4430 C   0  0  0  0  0  2  0  0  0  0  0  0
  161.1630  209.7330  153.2750 C   0  0  0  0  0  0  0  0  0  0  0  0
  161.1640  208.3840  153.4010 C   0  0  0  0  0  0  0  0  0  0  0  0
  162.6580  214.0600  146.7380 N   0  0  0  0  0  2  0  0  0  0  0  0
  162.7200  214.4530  145.3400 C   0  0  0  0  0  2  0  0  0  0  0  0
  163.3580  213.7000  143.1730 O   0  0  0  0  0  1  0  0  0  0  0  0
  163.3690  213.3470  144.5230 C   0  0  0  0  0  2  0  0  0  0  0  0
  161.1720  207.7020  154.6320 O   0  0  0  0  0  0  0  0  0  0  0  0
  160.3770  207.4480  156.8770 C   0  0  0  0  0  1  0  0  0  0  0  0
  160.0300  207.3560  155.4060 C   0  0  0  0  0  2  0  0  0  0  0  0
  162.2180  208.8720  148.8460 O   0  0  0  0  0  0  0  0  0  0  0  0
  162.9070  207.7400  148.3300 C   0  0  0  0  0  2  0  0  0  0  0  0
  160.7670  207.1870  147.4500 O   0  0  0  0  0  0  0  0  0  0  0  0
  162.5770  206.1000  146.4420 N   0  0  0  0  0  2  0  0  0  0  0  0
  162.0120  206.9950  147.4040 C   0  0  0  0  0  0  0  0  0  0  0  0
  161.7500  205.3700  145.4950 C   0  0  0  0  0  1  0  0  0  0  0  0
  1 13  1  6  0  0  0
  1 12  1  0  0  0  0
  2 21  1  0  0  0  0
  3 14  2  0  0  0  0
  3 17  1  0  0  0  0
  4  5  1  0  0  0  0
  4  1  1  0  0  0  0
  5 24  1  1  0  0  0
  5 16  1  0  0  0  0
  6 20  1  6  0  0  0
  6 14  1  0  0  0  0
  8  7  1  0  0  0  0
  9  7  1  6  0  0  0
  9  2  1  0  0  0  0
 10  9  1  0  0  0  0
 10 22  1  0  0  0  0
 11 15  1  0  0  0  0
 12 18  1  0  0  0  0
 12  6  1  0  0  0  0
 14 10  1  0  0  0  0
 15 23  1  0  0  0  0
 16 18  1  0  0  0  0
 17 15  2  0  0  0  0
 18  8  1  0  0  0  0
 19 17  1  0  0  0  0
 19 11  1  0  0  0  0
 22 23  2  0  0  0  0
 22 21  1  0  0  0  0
 23 28  1  0  0  0  0
 25 24  1  0  0  0  0
 26 27  1  0  0  0  0
 27 25  1  0  0  0  0
 28 30  1  0  0  0  0
 30 29  1  0  0  0  0
 31  3  1  0  0  0  0
 32 31  1  0  0  0  0
 34 35  1  0  0  0  0
 35 33  2  0  0  0  0
 35 32  1  0  0  0  0
 36 34  1  0  0  0  0
M  END
>  <MODEL>
2

>  <REMARK>
 VINA RESULT:      -3.9      2.686      7.194
  Name = 
  8 active torsions:
  status: ('A' for Active; 'I' for Inactive)
    1  A    between atoms: C_4  and  O_35
    2  A    between atoms: C_6  and  N_29
    3  A    between atoms: C_19  and  C_21
    4  A    between atoms: C_19  and  N_29
    5  A    between atoms: C_24  and  C_28
    6  A    between atoms: C_24  and  O_35
    7  A    between atoms: C_27  and  O_33
    8  A    between atoms: O_33  and  C_34
                            x       y       z     vdW  Elec       q    Type
                         _______ _______ _______ _____ _____    ______ ____

>  <TORSDO>
F 8

$$$$
=
 OpenBabel11052410253D

 36 40  0  0  1  0  0  0  0  0999 V2000
  160.3690  210.7310  153.3350 C   0  0  1  0  0  3  0  0  0  0  0  0
  161.2190  204.3810  153.0280 C   0  0  0  0  0  2  0  0  0  0  0  0
  161.5610  208.5720  150.5270 C   0  0  0  0  0  0  0  0  0  0  0  0
  159.8190  211.3690  154.6080 C   0  0  0  0  0  2  0  0  0  0  0  0
  160.5950  210.9020  155.8450 C   0  0  1  0  0  3  0  0  0  0  0  0
  161.8710  208.6550  152.9790 C   0  0  1  0  0  3  0  0  0  0  0  0
  159.9400  206.3940  153.8020 C   0  0  0  0  0  2  0  0  0  0  0  0
  160.3320  207.2590  154.9960 C   0  0  0  0  0  2  0  0  0  0  0  0
  161.2220  205.8940  153.1560 C   0  0  2  0  0  3  0  0  0  0  0  0
  161.4170  206.4530  151.8200 N   0  0  0  0  0  0  0  0  0  0  0  0
  160.9890  206.9190  147.4890 C   0  0  0  0  0  2  0  0  0  0  0  0
  160.5140  209.2020  153.4680 C   0  0  1  0  0  3  0  0  0  0  0  0
  159.5230  211.0300  152.2670 O   0  0  0  0  0  1  0  0  0  0  0  0
  161.6920  207.8820  151.6880 C   0  0  0  0  0  0  0  0  0  0  0  0
  161.3620  206.5760  148.8890 C   0  0  0  0  0  0  0  0  0  0  0  0
  160.8470  209.3870  155.8470 C   0  0  0  0  0  2  0  0  0  0  0  0
  161.2830  207.8900  149.2640 C   0  0  0  0  0  0  0  0  0  0  0  0
  160.0940  208.6960  154.7970 N   0  0  2  0  0  0  0  0  0  0  0  0
  160.8920  208.2820  147.8790 C   0  0  0  0  0  2  0  0  0  0  0  0
  162.8740  209.6290  152.9040 O   0  0  0  0  0  1  0  0  0  0  0  0
  161.9280  204.0960  151.7210 C   0  0  0  0  0  2  0  0  0  0  0  0
  161.7740  205.3550  150.9500 C   0  0  0  0  0  0  0  0  0  0  0  0
  161.7370  205.3690  149.5960 C   0  0  0  0  0  0  0  0  0  0  0  0
  161.8700  211.5930  155.9270 N   0  0  0  0  0  2  0  0  0  0  0  0
  162.8720  210.6130  156.3120 C   0  0  0  0  0  2  0  0  0  0  0  0
  164.9210  211.8080  156.5230 O   0  0  0  0  0  1  0  0  0  0  0  0
  163.8760  211.2500  157.2600 C   0  0  0  0  0  2  0  0  0  0  0  0
  162.0070  204.2520  148.7830 O   0  0  0  0  0  0  0  0  0  0  0  0
  162.9020  204.4000  146.5660 C   0  0  0  0  0  1  0  0  0  0  0  0
  161.6740  204.1180  147.4060 C   0  0  0  0  0  2  0  0  0  0  0  0
  161.6890  209.9710  150.5520 O   0  0  0  0  0  0  0  0  0  0  0  0
  162.5260  210.7140  149.6760 C   0  0  0  0  0  2  0  0  0  0  0  0
  160.8930  212.4440  149.7120 O   0  0  0  0  0  0  0  0  0  0  0  0
  161.9640  212.1190  147.6580 N   0  0  0  0  0  2  0  0  0  0  0  0
  161.7340  211.7960  149.0310 C   0  0  0  0  0  0  0  0  0  0  0  0
  161.2380  213.1860  146.9870 C   0  0  0  0  0  1  0  0  0  0  0  0
  1 13  1  6  0  0  0
  1 12  1  0  0  0  0
  1  4  1  0  0  0  0
  3 31  1  0  0  0  0
  3 14  2  0  0  0  0
  4  5  1  0  0  0  0
  5 16  1  0  0  0  0
  5 24  1  6  0  0  0
  6 20  1  6  0  0  0
  6 12  1  0  0  0  0
  7  8  1  0  0  0  0
  9  2  1  6  0  0  0
  9  7  1  0  0  0  0
 10  9  1  0  0  0  0
 11 19  1  0  0  0  0
 11 15  1  0  0  0  0
 12 18  1  0  0  0  0
 14 10  1  0  0  0  0
 14  6  1  0  0  0  0
 15 17  2  0  0  0  0
 15 23  1  0  0  0  0
 17  3  1  0  0  0  0
 18  8  1  0  0  0  0
 18 16  1  0  0  0  0
 19 17  1  0  0  0  0
 21  2  1  0  0  0  0
 22 21  1  0  0  0  0
 22 10  1  0  0  0  0
 23 22  2  0  0  0  0
 24 25  1  0  0  0  0
 25 27  1  0  0  0  0
 26 27  1  0  0  0  0
 28 23  1  0  0  0  0
 29 30  1  0  0  0  0
 30 28  1  0  0  0  0
 32 31  1  0  0  0  0
 34 35  1  0  0  0  0
 35 32  1  0  0  0  0
 35 33  2  0  0  0  0
 36 34  1  0  0  0  0
M  END
>  <MODEL>
3

>  <REMARK>
 VINA RESULT:      -3.3      1.430      1.590
  Name = 
  8 active torsions:
  status: ('A' for Active; 'I' for Inactive)
    1  A    between atoms: C_4  and  O_35
    2  A    between atoms: C_6  and  N_29
    3  A    between atoms: C_19  and  C_21
    4  A    between atoms: C_19  and  N_29
    5  A    between atoms: C_24  and  C_28
    6  A    between atoms: C_24  and  O_35
    7  A    between atoms: C_27  and  O_33
    8  A    between atoms: O_33  and  C_34
                            x       y       z     vdW  Elec       q    Type
                         _______ _______ _______ _____ _____    ______ ____

>  <TORSDO>
F 8

$$$$
=
 OpenBabel11052410253D

 36 40  0  0  1  0  0  0  0  0999 V2000
  162.2670  206.1640  147.4020 C   0  0  1  0  0  3  0  0  0  0  0  0
  160.7760  204.5000  153.4140 C   0  0  0  0  0  2  0  0  0  0  0  0
  161.3940  208.2730  150.3610 C   0  0  0  0  0  0  0  0  0  0  0  0
  162.6330  205.0930  146.3790 C   0  0  0  0  0  2  0  0  0  0  0  0
  161.5880  203.9710  146.3490 C   0  0  1  0  0  3  0  0  0  0  0  0
  160.6340  206.1210  149.4090 C   0  0  1  0  0  3  0  0  0  0  0  0
  162.1040  204.1870  151.3110 C   0  0  0  0  0  2  0  0  0  0  0  0
  161.5930  203.4690  150.0660 C   0  0  0  0  0  2  0  0  0  0  0  0
  160.9200  204.8900  151.9540 C   0  0  2  0  0  3  0  0  0  0  0  0
  161.0480  206.3460  151.8940 N   0  0  0  0  0  0  0  0  0  0  0  0
  162.3420  210.3770  153.0000 C   0  0  0  0  0  2  0  0  0  0  0  0
  161.9270  205.5610  148.7790 C   0  0  1  0  0  3  0  0  0  0  0  0
  163.3290  207.0600  147.5320 O   0  0  0  0  0  1  0  0  0  0  0  0
  160.9670  207.0060  150.5940 C   0  0  0  0  0  0  0  0  0  0  0  0
  161.6740  209.0610  152.8130 C   0  0  0  0  0  0  0  0  0  0  0  0
  161.1700  203.5160  147.7560 C   0  0  0  0  0  2  0  0  0  0  0  0
  161.8280  209.1400  151.4550 C   0  0  0  0  0  0  0  0  0  0  0  0
  162.0250  204.0820  148.8020 N   0  0  2  0  0  0  0  0  0  0  0  0
  162.5170  210.4570  151.5920 C   0  0  0  0  0  2  0  0  0  0  0  0
  159.7810  206.7360  148.4840 O   0  0  0  0  0  1  0  0  0  0  0  0
  160.3010  205.7560  154.1130 C   0  0  0  0  0  2  0  0  0  0  0  0
  160.7410  206.8510  153.2120 C   0  0  0  0  0  0  0  0  0  0  0  0
  161.0360  208.0890  153.6780 C   0  0  0  0  0  0  0  0  0  0  0  0
  160.4070  204.4060  145.6230 N   0  0  0  0  0  2  0  0  0  0  0  0
  160.0630  203.3540  144.6820 C   0  0  0  0  0  2  0  0  0  0  0  0
  159.7430  200.9960  144.6020 O   0  0  0  0  0  1  0  0  0  0  0  0
  160.4550  202.0020  145.2560 C   0  0  0  0  0  2  0  0  0  0  0  0
  160.8010  208.5180  154.9980 O   0  0  0  0  0  0  0  0  0  0  0  0
  160.6370  207.6940  157.2410 C   0  0  0  0  0  1  0  0  0  0  0  0
  161.5680  208.1630  156.1420 C   0  0  0  0  0  2  0  0  0  0  0  0
  161.4230  208.7480  149.0390 O   0  0  0  0  0  0  0  0  0  0  0  0
  162.4620  209.5560  148.5020 C   0  0  0  0  0  2  0  0  0  0  0  0
  160.7510  211.0540  147.8000 O   0  0  0  0  0  0  0  0  0  0  0  0
  162.7570  212.0600  148.4610 N   0  0  0  0  0  2  0  0  0  0  0  0
  161.9330  210.9170  148.2170 C   0  0  0  0  0  0  0  0  0  0  0  0
  162.2800  213.4140  148.2280 C   0  0  0  0  0  1  0  0  0  0  0  0
  1 13  1  1  0  0  0
  1 12  1  0  0  0  0
  2 21  1  0  0  0  0
  3 14  2  0  0  0  0
  3 17  1  0  0  0  0
  4  1  1  0  0  0  0
  5 24  1  1  0  0  0
  5  4  1  0  0  0  0
  5 16  1  0  0  0  0
  6 20  1  6  0  0  0
  6 14  1  0  0  0  0
  8  7  1  0  0  0  0
  9  7  1  1  0  0  0
  9  2  1  0  0  0  0
 10  9  1  0  0  0  0
 10 22  1  0  0  0  0
 12 18  1  0  0  0  0
 12  6  1  0  0  0  0
 14 10  1  0  0  0  0
 15 11  1  0  0  0  0
 15 23  1  0  0  0  0
 16 18  1  0  0  0  0
 17 19  1  0  0  0  0
 17 15  2  0  0  0  0
 18  8  1  0  0  0  0
 19 11  1  0  0  0  0
 22 23  2  0  0  0  0
 22 21  1  0  0  0  0
 23 28  1  0  0  0  0
 25 27  1  0  0  0  0
 25 24  1  0  0  0  0
 26 27  1  0  0  0  0
 28 30  1  0  0  0  0
 30 29  1  0  0  0  0
 31  3  1  0  0  0  0
 32 31  1  0  0  0  0
 33 35  2  0  0  0  0
 35 34  1  0  0  0  0
 35 32  1  0  0  0  0
 36 34  1  0  0  0  0
M  END
>  <MODEL>
4

>  <REMARK>
 VINA RESULT:      -3.0      2.227      7.288
  Name = 
  8 active torsions:
  status: ('A' for Active; 'I' for Inactive)
    1  A    between atoms: C_4  and  O_35
    2  A    between atoms: C_6  and  N_29
    3  A    between atoms: C_19  and  C_21
    4  A    between atoms: C_19  and  N_29
    5  A    between atoms: C_24  and  C_28
    6  A    between atoms: C_24  and  O_35
    7  A    between atoms: C_27  and  O_33
    8  A    between atoms: O_33  and  C_34
                            x       y       z     vdW  Elec       q    Type
                         _______ _______ _______ _____ _____    ______ ____

>  <TORSDO>
F 8

$$$$
=
 OpenBabel11052410253D

 36 40  0  0  1  0  0  0  0  0999 V2000
  160.7970  212.0390  147.3680 C   0  0  1  0  0  3  0  0  0  0  0  0
  156.3230  214.4530  151.2790 C   0  0  0  0  0  2  0  0  0  0  0  0
  160.4580  211.8470  151.0840 C   0  0  0  0  0  0  0  0  0  0  0  0
  160.6760  212.2270  145.8580 C   0  0  0  0  0  2  0  0  0  0  0  0
  160.4280  213.6960  145.4970 C   0  0  1  0  0  3  0  0  0  0  0  0
  160.0800  213.5560  149.3380 C   0  0  1  0  0  3  0  0  0  0  0  0
  157.0080  213.3760  149.1210 C   0  0  0  0  0  2  0  0  0  0  0  0
  157.6110  214.1240  147.9360 C   0  0  0  0  0  2  0  0  0  0  0  0
  157.4890  214.0610  150.3900 C   0  0  2  0  0  3  0  0  0  0  0  0
  158.3760  213.2030  151.1740 N   0  0  0  0  0  0  0  0  0  0  0  0
  159.5950  210.0790  153.9860 C   0  0  0  0  0  2  0  0  0  0  0  0
  159.6340  212.7050  148.1310 C   0  0  1  0  0  3  0  0  0  0  0  0
  160.8310  210.6760  147.6620 O   0  0  0  0  0  1  0  0  0  0  0  0
  159.6930  212.8730  150.6350 C   0  0  0  0  0  0  0  0  0  0  0  0
  159.1790  211.3190  153.2740 C   0  0  0  0  0  0  0  0  0  0  0  0
  159.3680  214.3540  146.3950 C   0  0  0  0  0  2  0  0  0  0  0  0
  160.0810  211.0810  152.2710 C   0  0  0  0  0  0  0  0  0  0  0  0
  158.6660  213.3800  147.2330 N   0  0  2  0  0  0  0  0  0  0  0  0
  160.5220  209.8220  152.9400 C   0  0  0  0  0  2  0  0  0  0  0  0
  161.4290  213.9290  149.2930 O   0  0  0  0  0  1  0  0  0  0  0  0
  156.8200  214.2500  152.6940 C   0  0  0  0  0  2  0  0  0  0  0  0
  157.9250  213.2690  152.5450 C   0  0  0  0  0  0  0  0  0  0  0  0
  158.2560  212.4030  153.5340 C   0  0  0  0  0  0  0  0  0  0  0  0
  161.6650  214.4520  145.5950 N   0  0  0  0  0  2  0  0  0  0  0  0
  162.6540  213.7760  144.7720 C   0  0  0  0  0  2  0  0  0  0  0  0
  162.2380  212.9810  142.5660 O   0  0  0  0  0  1  0  0  0  0  0  0
  162.4440  214.1430  143.3110 C   0  0  0  0  0  2  0  0  0  0  0  0
  157.7260  212.4470  154.8370 O   0  0  0  0  0  0  0  0  0  0  0  0
  156.7890  213.9040  156.4910 C   0  0  0  0  0  1  0  0  0  0  0  0
  158.0600  213.3940  155.8450 C   0  0  0  0  0  2  0  0  0  0  0  0
  161.6310  211.5160  150.3840 O   0  0  0  0  0  0  0  0  0  0  0  0
  162.5050  210.4540  150.7420 C   0  0  0  0  0  2  0  0  0  0  0  0
  162.5510  209.2670  148.6800 O   0  0  0  0  0  0  0  0  0  0  0  0
  161.5900  208.1180  150.4770 N   0  0  0  0  0  2  0  0  0  0  0  0
  162.2130  209.2660  149.8950 C   0  0  0  0  0  0  0  0  0  0  0  0
  161.3090  206.9200  149.7020 C   0  0  0  0  0  1  0  0  0  0  0  0
  1 13  1  6  0  0  0
  1 12  1  0  0  0  0
  2 21  1  0  0  0  0
  3 17  1  0  0  0  0
  4  1  1  0  0  0  0
  5 24  1  1  0  0  0
  5  4  1  0  0  0  0
  5 16  1  0  0  0  0
  6 20  1  1  0  0  0
  6 14  1  0  0  0  0
  8  7  1  0  0  0  0
  9  7  1  6  0  0  0
  9 10  1  0  0  0  0
  9  2  1  0  0  0  0
 10 22  1  0  0  0  0
 12  6  1  0  0  0  0
 14  3  2  0  0  0  0
 14 10  1  0  0  0  0
 15 23  1  0  0  0  0
 15 11  1  0  0  0  0
 16 18  1  0  0  0  0
 17 19  1  0  0  0  0
 17 15  2  0  0  0  0
 18  8  1  0  0  0  0
 18 12  1  0  0  0  0
 19 11  1  0  0  0  0
 22 21  1  0  0  0  0
 22 23  2  0  0  0  0
 23 28  1  0  0  0  0
 25 24  1  0  0  0  0
 26 27  1  0  0  0  0
 27 25  1  0  0  0  0
 28 30  1  0  0  0  0
 30 29  1  0  0  0  0
 31 32  1  0  0  0  0
 31  3  1  0  0  0  0
 33 35  2  0  0  0  0
 35 34  1  0  0  0  0
 35 32  1  0  0  0  0
 36 34  1  0  0  0  0
M  END
>  <MODEL>
5

>  <REMARK>
 VINA RESULT:      -2.8      3.413      9.193
  Name = 
  8 active torsions:
  status: ('A' for Active; 'I' for Inactive)
    1  A    between atoms: C_4  and  O_35
    2  A    between atoms: C_6  and  N_29
    3  A    between atoms: C_19  and  C_21
    4  A    between atoms: C_19  and  N_29
    5  A    between atoms: C_24  and  C_28
    6  A    between atoms: C_24  and  O_35
    7  A    between atoms: C_27  and  O_33
    8  A    between atoms: O_33  and  C_34
                            x       y       z     vdW  Elec       q    Type
                         _______ _______ _______ _____ _____    ______ ____

>  <TORSDO>
F 8

$$$$
=
 OpenBabel11052410253D

 36 40  0  0  1  0  0  0  0  0999 V2000
  161.6680  203.9870  148.9080 C   0  0  1  0  0  3  0  0  0  0  0  0
  161.2100  207.2740  154.3970 C   0  0  0  0  0  2  0  0  0  0  0  0
  161.1110  207.6320  149.5190 C   0  0  0  0  0  0  0  0  0  0  0  0
  161.9460  202.4870  148.9350 C   0  0  0  0  0  2  0  0  0  0  0  0
  160.9850  201.7590  149.8820 C   0  0  1  0  0  3  0  0  0  0  0  0
  160.3610  205.5090  150.5430 C   0  0  1  0  0  3  0  0  0  0  0  0
  162.2250  205.4560  153.0000 C   0  0  0  0  0  2  0  0  0  0  0  0
  161.5810  204.0940  152.7550 C   0  0  0  0  0  2  0  0  0  0  0  0
  161.1070  206.4800  153.1070 C   0  0  2  0  0  3  0  0  0  0  0  0
  161.1270  207.4320  151.9970 N   0  0  0  0  0  0  0  0  0  0  0  0
  162.3040  210.9260  149.6400 C   0  0  0  0  0  2  0  0  0  0  0  0
  161.5790  204.5870  150.3260 C   0  0  1  0  0  3  0  0  0  0  0  0
  162.6750  204.6310  148.1900 O   0  0  0  0  0  1  0  0  0  0  0  0
  160.8090  206.9530  150.6540 C   0  0  0  0  0  0  0  0  0  0  0  0
  161.7030  209.9270  150.5650 C   0  0  0  0  0  0  0  0  0  0  0  0
  160.8140  202.4870  151.2240 C   0  0  0  0  0  2  0  0  0  0  0  0
  161.6460  208.9910  149.5660 C   0  0  0  0  0  0  0  0  0  0  0  0
  161.7770  203.5770  151.3930 N   0  0  2  0  0  0  0  0  0  0  0  0
  162.2600  209.9540  148.6050 C   0  0  0  0  0  2  0  0  0  0  0  0
  159.3400  205.3200  149.6030 O   0  0  0  0  0  1  0  0  0  0  0  0
  160.7630  208.6730  154.0350 C   0  0  0  0  0  2  0  0  0  0  0  0
  160.9890  208.7510  152.5690 C   0  0  0  0  0  0  0  0  0  0  0  0
  161.2680  209.9210  151.9460 C   0  0  0  0  0  0  0  0  0  0  0  0
  159.6820  201.6100  149.2560 N   0  0  0  0  0  2  0  0  0  0  0  0
  159.9060  201.2970  147.8540 C   0  0  0  0  0  2  0  0  0  0  0  0
  161.2070  199.9420  146.3910 O   0  0  0  0  0  1  0  0  0  0  0  0
  161.0840  200.3450  147.7220 C   0  0  0  0  0  2  0  0  0  0  0  0
  161.2060  211.1850  152.5640 O   0  0  0  0  0  0  0  0  0  0  0  0
  159.1160  211.8640  153.5170 C   0  0  0  0  0  1  0  0  0  0  0  0
  160.1480  212.1270  152.4400 C   0  0  0  0  0  2  0  0  0  0  0  0
  160.9100  207.0030  148.2790 O   0  0  0  0  0  0  0  0  0  0  0  0
  161.8470  207.0240  147.2090 C   0  0  0  0  0  2  0  0  0  0  0  0
  160.0130  206.2270  145.9190 O   0  0  0  0  0  0  0  0  0  0  0  0
  162.1290  205.8290  145.0060 N   0  0  0  0  0  2  0  0  0  0  0  0
  161.2650  206.3320  146.0280 C   0  0  0  0  0  0  0  0  0  0  0  0
  161.6120  205.1700  143.8170 C   0  0  0  0  0  1  0  0  0  0  0  0
  1 13  1  6  0  0  0
  1  4  1  0  0  0  0
  1 12  1  0  0  0  0
  3 17  1  0  0  0  0
  3 14  2  0  0  0  0
  4  5  1  0  0  0  0
  5 24  1  6  0  0  0
  5 16  1  0  0  0  0
  6 20  1  6  0  0  0
  6 14  1  0  0  0  0
  8  7  1  0  0  0  0
  9  7  1  6  0  0  0
  9  2  1  0  0  0  0
 10 22  1  0  0  0  0
 10  9  1  0  0  0  0
 11 15  1  0  0  0  0
 12  6  1  0  0  0  0
 12 18  1  0  0  0  0
 14 10  1  0  0  0  0
 15 23  1  0  0  0  0
 16 18  1  0  0  0  0
 17 15  2  0  0  0  0
 18  8  1  0  0  0  0
 19 17  1  0  0  0  0
 19 11  1  0  0  0  0
 21  2  1  0  0  0  0
 22 21  1  0  0  0  0
 23 28  1  0  0  0  0
 23 22  2  0  0  0  0
 25 24  1  0  0  0  0
 26 27  1  0  0  0  0
 27 25  1  0  0  0  0
 30 28  1  0  0  0  0
 30 29  1  0  0  0  0
 31  3  1  0  0  0  0
 32 31  1  0  0  0  0
 33 35  2  0  0  0  0
 34 35  1  0  0  0  0
 35 32  1  0  0  0  0
 36 34  1  0  0  0  0
M  END
>  <MODEL>
6

>  <REMARK>
 VINA RESULT:      -2.5      2.348      7.482
  Name = 
  8 active torsions:
  status: ('A' for Active; 'I' for Inactive)
    1  A    between atoms: C_4  and  O_35
    2  A    between atoms: C_6  and  N_29
    3  A    between atoms: C_19  and  C_21
    4  A    between atoms: C_19  and  N_29
    5  A    between atoms: C_24  and  C_28
    6  A    between atoms: C_24  and  O_35
    7  A    between atoms: C_27  and  O_33
    8  A    between atoms: O_33  and  C_34
                            x       y       z     vdW  Elec       q    Type
                         _______ _______ _______ _____ _____    ______ ____

>  <TORSDO>
F 8

$$$$
=
 OpenBabel11052410253D

 36 40  0  0  1  0  0  0  0  0999 V2000
  160.6340  206.0410  149.2820 C   0  0  1  0  0  3  0  0  0  0  0  0
  162.7900  211.0350  152.6810 C   0  0  0  0  0  2  0  0  0  0  0  0
  160.9900  206.4950  152.9740 C   0  0  0  0  0  0  0  0  0  0  0  0
  160.5480  206.1300  147.7620 C   0  0  0  0  0  2  0  0  0  0  0  0
  161.8670  206.6210  147.1560 C   0  0  1  0  0  3  0  0  0  0  0  0
  162.2930  207.1000  150.9610 C   0  0  1  0  0  3  0  0  0  0  0  0
  161.5200  210.0780  150.7430 C   0  0  0  0  0  2  0  0  0  0  0  0
  162.1630  209.5690  149.4560 C   0  0  0  0  0  2  0  0  0  0  0  0
  162.4790  209.7810  151.8840 C   0  0  2  0  0  3  0  0  0  0  0  0
  161.9380  208.7880  152.8110 N   0  0  0  0  0  0  0  0  0  0  0  0
  159.5900  207.1500  156.1210 C   0  0  0  0  0  2  0  0  0  0  0  0
  161.1900  207.3350  149.9090 C   0  0  1  0  0  3  0  0  0  0  0  0
  159.3660  205.7760  149.8020 O   0  0  0  0  0  1  0  0  0  0  0  0
  161.7710  207.4120  152.3500 C   0  0  0  0  0  0  0  0  0  0  0  0
  160.6000  207.7500  155.2070 C   0  0  0  0  0  0  0  0  0  0  0  0
  162.4570  207.8180  147.9180 C   0  0  0  0  0  2  0  0  0  0  0  0
  160.3720  206.7790  154.2690 C   0  0  0  0  0  0  0  0  0  0  0  0
  161.5200  208.3700  148.9000 N   0  0  2  0  0  0  0  0  0  0  0  0
  159.3410  206.1490  155.1440 C   0  0  0  0  0  2  0  0  0  0  0  0
  162.8950  205.8380  150.8700 O   0  0  0  0  0  1  0  0  0  0  0  0
  162.9140  210.5690  154.1150 C   0  0  0  0  0  2  0  0  0  0  0  0
  162.1410  209.3020  154.1460 C   0  0  0  0  0  0  0  0  0  0  0  0
  161.5240  208.8630  155.2700 C   0  0  0  0  0  0  0  0  0  0  0  0
  162.8430  205.5450  147.1400 N   0  0  0  0  0  2  0  0  0  0  0  0
  162.8550  204.9890  145.7970 C   0  0  0  0  0  2  0  0  0  0  0  0
  160.8940  204.0230  144.8530 O   0  0  0  0  0  1  0  0  0  0  0  0
  161.9450  203.7720  145.7360 C   0  0  0  0  0  2  0  0  0  0  0  0
  161.6820  209.4460  156.5410 O   0  0  0  0  0  0  0  0  0  0  0  0
  160.5980  211.5750  156.7110 C   0  0  0  0  0  1  0  0  0  0  0  0
  160.6890  210.1670  157.2610 C   0  0  0  0  0  2  0  0  0  0  0  0
  160.7710  205.2540  152.3530 O   0  0  0  0  0  0  0  0  0  0  0  0
  161.1050  203.9990  152.9310 C   0  0  0  0  0  2  0  0  0  0  0  0
  162.1530  202.0950  151.9630 O   0  0  0  0  0  0  0  0  0  0  0  0
  160.3880  203.0050  150.7270 N   0  0  0  0  0  2  0  0  0  0  0  0
  161.2670  202.9850  151.8540 C   0  0  0  0  0  0  0  0  0  0  0  0
  160.4840  202.0200  149.6610 C   0  0  0  0  0  1  0  0  0  0  0  0
  1 13  1  1  0  0  0
  1 12  1  0  0  0  0
  2 21  1  0  0  0  0
  3 17  1  0  0  0  0
  4  1  1  0  0  0  0
  5 24  1  1  0  0  0
  5  4  1  0  0  0  0
  5 16  1  0  0  0  0
  6 20  1  1  0  0  0
  6 14  1  0  0  0  0
  8  7  1  0  0  0  0
  9  7  1  6  0  0  0
  9  2  1  0  0  0  0
  9 10  1  0  0  0  0
 10 22  1  0  0  0  0
 12  6  1  0  0  0  0
 14 10  1  0  0  0  0
 14  3  2  0  0  0  0
 15 23  1  0  0  0  0
 15 11  1  0  0  0  0
 16 18  1  0  0  0  0
 17 19  1  0  0  0  0
 17 15  2  0  0  0  0
 18  8  1  0  0  0  0
 18 12  1  0  0  0  0
 19 11  1  0  0  0  0
 21 22  1  0  0  0  0
 22 23  2  0  0  0  0
 23 28  1  0  0  0  0
 25 24  1  0  0  0  0
 26 27  1  0  0  0  0
 27 25  1  0  0  0  0
 28 30  1  0  0  0  0
 29 30  1  0  0  0  0
 31 32  1  0  0  0  0
 31  3  1  0  0  0  0
 34 35  1  0  0  0  0
 35 33  2  0  0  0  0
 35 32  1  0  0  0  0
 36 34  1  0  0  0  0
M  END
>  <MODEL>
7

>  <REMARK>
 VINA RESULT:      -2.3      2.342      8.206
  Name = 
  8 active torsions:
  status: ('A' for Active; 'I' for Inactive)
    1  A    between atoms: C_4  and  O_35
    2  A    between atoms: C_6  and  N_29
    3  A    between atoms: C_19  and  C_21
    4  A    between atoms: C_19  and  N_29
    5  A    between atoms: C_24  and  C_28
    6  A    between atoms: C_24  and  O_35
    7  A    between atoms: C_27  and  O_33
    8  A    between atoms: O_33  and  C_34
                            x       y       z     vdW  Elec       q    Type
                         _______ _______ _______ _____ _____    ______ ____

>  <TORSDO>
F 8

$$$$
=
 OpenBabel11052410253D

 36 40  0  0  1  0  0  0  0  0999 V2000
  160.7510  212.4690  138.1860 C   0  0  1  0  0  3  0  0  0  0  0  0
  162.9390  213.1700  144.1750 C   0  0  0  0  0  2  0  0  0  0  0  0
  158.9170  212.6620  141.4360 C   0  0  0  0  0  0  0  0  0  0  0  0
  161.7240  212.4650  137.0110 C   0  0  0  0  0  2  0  0  0  0  0  0
  162.8780  211.4830  137.2460 C   0  0  1  0  0  3  0  0  0  0  0  0
  161.0130  211.6350  140.6210 C   0  0  1  0  0  3  0  0  0  0  0  0
  163.0350  213.6870  141.7230 C   0  0  0  0  0  2  0  0  0  0  0  0
  163.6720  212.7810  140.6740 C   0  0  0  0  0  2  0  0  0  0  0  0
  162.4290  212.7950  142.7940 C   0  0  2  0  0  3  0  0  0  0  0  0
  160.9700  212.8840  142.8200 N   0  0  0  0  0  0  0  0  0  0  0  0
  156.9930  214.4530  143.7570 C   0  0  0  0  0  2  0  0  0  0  0  0
  161.4730  212.6330  139.5380 C   0  0  1  0  0  3  0  0  0  0  0  0
  159.8300  213.5030  138.0190 O   0  0  0  0  0  1  0  0  0  0  0  0
  160.2120  212.3520  141.6900 C   0  0  0  0  0  0  0  0  0  0  0  0
  158.3150  213.7700  143.6990 C   0  0  0  0  0  0  0  0  0  0  0  0
  163.4580  211.5820  138.6650 C   0  0  0  0  0  2  0  0  0  0  0  0
  158.1220  213.4430  142.3830 C   0  0  0  0  0  0  0  0  0  0  0  0
  162.9450  212.7430  139.3960 N   0  0  2  0  0  0  0  0  0  0  0  0
  156.7970  214.1270  142.3880 C   0  0  0  0  0  2  0  0  0  0  0  0
  160.3590  210.5100  140.1050 O   0  0  0  0  0  1  0  0  0  0  0  0
  161.7600  212.9580  145.1000 C   0  0  0  0  0  2  0  0  0  0  0  0
  160.5810  213.0500  144.2020 C   0  0  0  0  0  0  0  0  0  0  0  0
  159.3740  213.4800  144.6420 C   0  0  0  0  0  0  0  0  0  0  0  0
  162.4310  210.1200  137.0130 N   0  0  0  0  0  2  0  0  0  0  0  0
  162.5960  209.3890  138.2580 C   0  0  0  0  0  2  0  0  0  0  0  0
  162.0670  207.2790  137.2890 O   0  0  0  0  0  1  0  0  0  0  0  0
  161.6680  208.1840  138.2740 C   0  0  0  0  0  2  0  0  0  0  0  0
  159.0600  213.7140  145.9940 O   0  0  0  0  0  0  0  0  0  0  0  0
  157.5360  213.1880  147.7650 C   0  0  0  0  0  1  0  0  0  0  0  0
  158.7330  212.7240  146.9620 C   0  0  0  0  0  2  0  0  0  0  0  0
  158.3380  212.2270  140.2320 O   0  0  0  0  0  0  0  0  0  0  0  0
  157.0050  212.5190  139.8330 C   0  0  0  0  0  2  0  0  0  0  0  0
  156.9350  211.8590  137.5480 O   0  0  0  0  0  0  0  0  0  0  0  0
  155.8820  210.4020  139.0450 N   0  0  0  0  0  2  0  0  0  0  0  0
  156.6030  211.5970  138.7360 C   0  0  0  0  0  0  0  0  0  0  0  0
  155.4910  209.4530  138.0150 C   0  0  0  0  0  1  0  0  0  0  0  0
  1 13  1  6  0  0  0
  1 12  1  0  0  0  0
  2 21  1  0  0  0  0
  3 14  2  0  0  0  0
  3 17  1  0  0  0  0
  4  5  1  0  0  0  0
  4  1  1  0  0  0  0
  5 24  1  1  0  0  0
  5 16  1  0  0  0  0
  6 20  1  6  0  0  0
  6 14  1  0  0  0  0
  8  7  1  0  0  0  0
  9  7  1  6  0  0  0
  9 10  1  0  0  0  0
  9  2  1  0  0  0  0
 10 22  1  0  0  0  0
 12  6  1  0  0  0  0
 14 10  1  0  0  0  0
 15 11  1  0  0  0  0
 15 23  1  0  0  0  0
 16 18  1  0  0  0  0
 17 19  1  0  0  0  0
 17 15  2  0  0  0  0
 18 12  1  0  0  0  0
 18  8  1  0  0  0  0
 19 11  1  0  0  0  0
 22 23  2  0  0  0  0
 22 21  1  0  0  0  0
 23 28  1  0  0  0  0
 24 25  1  0  0  0  0
 25 27  1  0  0  0  0
 26 27  1  0  0  0  0
 28 30  1  0  0  0  0
 30 29  1  0  0  0  0
 31  3  1  0  0  0  0
 32 31  1  0  0  0  0
 33 35  2  0  0  0  0
 35 34  1  0  0  0  0
 35 32  1  0  0  0  0
 36 34  1  0  0  0  0
M  END
>  <MODEL>
8

>  <REMARK>
 VINA RESULT:      -2.2      8.882     13.483
  Name = 
  8 active torsions:
  status: ('A' for Active; 'I' for Inactive)
    1  A    between atoms: C_4  and  O_35
    2  A    between atoms: C_6  and  N_29
    3  A    between atoms: C_19  and  C_21
    4  A    between atoms: C_19  and  N_29
    5  A    between atoms: C_24  and  C_28
    6  A    between atoms: C_24  and  O_35
    7  A    between atoms: C_27  and  O_33
    8  A    between atoms: O_33  and  C_34
                            x       y       z     vdW  Elec       q    Type
                         _______ _______ _______ _____ _____    ______ ____

>  <TORSDO>
F 8

$$$$
=
 OpenBabel11052410253D

 36 40  0  0  1  0  0  0  0  0999 V2000
  162.0960  207.7480  151.0260 C   0  0  1  0  0  3  0  0  0  0  0  0
  161.8190  204.5980  145.4450 C   0  0  0  0  0  2  0  0  0  0  0  0
  160.8370  204.3210  150.2290 C   0  0  0  0  0  0  0  0  0  0  0  0
  162.7080  209.1440  151.0870 C   0  0  0  0  0  2  0  0  0  0  0  0
  162.1070  210.0630  150.0170 C   0  0  1  0  0  3  0  0  0  0  0  0
  160.7670  206.5480  149.1580 C   0  0  1  0  0  3  0  0  0  0  0  0
  162.9740  206.1500  147.0390 C   0  0  0  0  0  2  0  0  0  0  0  0
  162.6240  207.6250  147.2150 C   0  0  0  0  0  2  0  0  0  0  0  0
  161.6870  205.4070  146.7230 C   0  0  2  0  0  3  0  0  0  0  0  0
  161.3070  204.4870  147.7940 N   0  0  0  0  0  0  0  0  0  0  0  0
  161.2540  200.8400  150.2120 C   0  0  0  0  0  2  0  0  0  0  0  0
  162.1090  207.1700  149.5960 C   0  0  1  0  0  3  0  0  0  0  0  0
  162.7990  206.8980  151.8810 O   0  0  0  0  0  1  0  0  0  0  0  0
  160.8880  205.0390  149.0800 C   0  0  0  0  0  0  0  0  0  0  0  0
  161.0570  201.9410  149.2300 C   0  0  0  0  0  0  0  0  0  0  0  0
  162.0000  209.3800  148.6450 C   0  0  0  0  0  2  0  0  0  0  0  0
  161.0500  202.8740  150.2320 C   0  0  0  0  0  0  0  0  0  0  0  0
  162.7050  208.0970  148.6040 N   0  0  2  0  0  0  0  0  0  0  0  0
  161.2610  201.8060  151.2530 C   0  0  0  0  0  2  0  0  0  0  0  0
  159.6750  206.9740  149.9230 O   0  0  0  0  0  1  0  0  0  0  0  0
  161.0130  203.3410  145.6900 C   0  0  0  0  0  2  0  0  0  0  0  0
  160.9700  203.2280  147.1700 C   0  0  0  0  0  0  0  0  0  0  0  0
  160.8690  202.0310  147.7970 C   0  0  0  0  0  0  0  0  0  0  0  0
  160.7870  210.5120  150.4260 N   0  0  0  0  0  2  0  0  0  0  0  0
  160.8310  210.7420  151.8600 C   0  0  0  0  0  2  0  0  0  0  0  0
  160.0620  212.2010  153.5780 O   0  0  0  0  0  1  0  0  0  0  0  0
  159.9130  211.8990  152.2230 C   0  0  0  0  0  2  0  0  0  0  0  0
  160.6260  200.8100  147.1410 O   0  0  0  0  0  0  0  0  0  0  0  0
  161.2060  199.0400  145.6360 C   0  0  0  0  0  1  0  0  0  0  0  0
  161.5810  199.7830  146.9000 C   0  0  0  0  0  2  0  0  0  0  0  0
  160.5810  204.9910  151.4380 O   0  0  0  0  0  0  0  0  0  0  0  0
  160.8490  204.4500  152.7250 C   0  0  0  0  0  2  0  0  0  0  0  0
  162.4130  205.8180  153.8850 O   0  0  0  0  0  0  0  0  0  0  0  0
  160.1620  206.3270  154.2640 N   0  0  0  0  0  2  0  0  0  0  0  0
  161.2010  205.5520  153.6610 C   0  0  0  0  0  0  0  0  0  0  0  0
  160.4510  207.4330  155.1630 C   0  0  0  0  0  1  0  0  0  0  0  0
  1  4  1  0  0  0  0
  1 13  1  1  0  0  0
  2 21  1  0  0  0  0
  3 17  1  0  0  0  0
  3 31  1  0  0  0  0
  5 24  1  1  0  0  0
  5  4  1  0  0  0  0
  6 12  1  0  0  0  0
  6 20  1  1  0  0  0
  7  8  1  0  0  0  0
  8 18  1  0  0  0  0
  9  2  1  6  0  0  0
  9  7  1  0  0  0  0
  9 10  1  0  0  0  0
 10 14  1  0  0  0  0
 11 19  1  0  0  0  0
 12  1  1  0  0  0  0
 14  6  1  0  0  0  0
 14  3  2  0  0  0  0
 15 11  1  0  0  0  0
 15 17  2  0  0  0  0
 16  5  1  0  0  0  0
 17 19  1  0  0  0  0
 18 16  1  0  0  0  0
 18 12  1  0  0  0  0
 21 22  1  0  0  0  0
 22 10  1  0  0  0  0
 22 23  2  0  0  0  0
 23 15  1  0  0  0  0
 24 25  1  0  0  0  0
 25 27  1  0  0  0  0
 27 26  1  0  0  0  0
 28 23  1  0  0  0  0
 29 30  1  0  0  0  0
 30 28  1  0  0  0  0
 31 32  1  0  0  0  0
 32 35  1  0  0  0  0
 34 36  1  0  0  0  0
 35 33  2  0  0  0  0
 35 34  1  0  0  0  0
M  END
>  <MODEL>
9

>  <REMARK>
 VINA RESULT:      -2.1      2.398      5.334
  Name = 
  8 active torsions:
  status: ('A' for Active; 'I' for Inactive)
    1  A    between atoms: C_4  and  O_35
    2  A    between atoms: C_6  and  N_29
    3  A    between atoms: C_19  and  C_21
    4  A    between atoms: C_19  and  N_29
    5  A    between atoms: C_24  and  C_28
    6  A    between atoms: C_24  and  O_35
    7  A    between atoms: C_27  and  O_33
    8  A    between atoms: O_33  and  C_34
                            x       y       z     vdW  Elec       q    Type
                         _______ _______ _______ _____ _____    ______ ____

>  <TORSDO>
F 8

$$$$
