=
 OpenBabel11042420113D

 30 32  0  0  1  0  0  0  0  0999 V2000
  161.4000  205.7840  150.4960 C   0  0  2  0  0  3  0  0  0  0  0  0
  161.4500  200.6480  148.2680 N   0  0  0  0  0  0  0  0  0  0  0  0
  161.1260  202.1130  151.5000 C   0  0  0  0  0  3  0  0  0  0  0  0
  161.5730  200.6010  149.6590 N   0  0  0  0  0  2  0  0  0  0  0  0
  160.6830  203.8120  149.2210 C   0  0  0  0  0  3  0  0  0  0  0  0
  161.0500  204.3260  150.4090 C   0  0  0  0  0  0  0  0  0  0  0  0
  161.1760  203.4460  151.6100 C   0  0  0  0  0  3  0  0  0  0  0  0
  160.7260  201.6590  147.9100 C   0  0  0  0  0  3  0  0  0  0  0  0
  160.8840  201.5640  150.1640 C   0  0  2  0  0  3  0  0  0  0  0  0
  160.2210  202.3820  149.1150 C   0  0  1  0  0  3  0  0  0  0  0  0
  161.3510  206.2480  151.9120 C   0  0  0  0  0  3  0  0  0  0  0  0
  160.9510  207.4460  152.1950 N   0  0  0  0  0  0  0  0  0  0  0  0
  160.9070  207.9720  153.5290 C   0  0  0  0  0  0  0  0  0  0  0  0
  161.1160  206.9860  154.8330 S   0  0  0  0  0  0  0  0  0  0  0  0
  160.1120  212.1140  154.1270 C   0  0  0  0  0  3  0  0  0  0  0  0
  160.5280  211.2890  155.1730 C   0  0  0  0  0  0  0  0  0  0  0  0
  160.7170  211.8550  156.5360 C   0  0  0  0  0  1  0  0  0  0  0  0
  160.1890  210.2080  152.6430 C   0  0  0  0  0  3  0  0  0  0  0  0
  160.7590  209.9680  154.9480 N   0  0  0  0  0  0  0  0  0  0  0  0
  160.6010  209.4050  153.7150 C   0  0  0  0  0  0  0  0  0  0  0  0
  159.9450  211.5660  152.8550 C   0  0  0  0  0  3  0  0  0  0  0  0
  160.7640  207.1540  148.4850 C   0  0  0  0  0  3  0  0  0  0  0  0
  160.4610  206.6050  149.6680 C   0  0  0  0  0  3  0  0  0  0  0  0
  163.0810  207.6640  148.2880 O   0  0  0  0  0  0  0  0  0  0  0  0
  162.0720  207.0930  147.8000 C   0  0  0  0  0  0  0  0  0  0  0  0
  162.2040  206.4050  146.5550 N   0  0  0  0  0  2  0  0  0  0  0  0
  161.0760  205.7730  145.8850 C   0  0  0  0  0  2  0  0  0  0  0  0
  162.8770  203.9530  145.5580 C   0  0  0  0  0  1  0  0  0  0  0  0
  161.4760  204.4300  145.3810 C   0  0  0  0  0  0  0  0  0  0  0  0
  160.6660  203.7320  144.7930 O   0  0  0  0  0  0  0  0  0  0  0  0
  1 23  1  6  0  0  0
  1 11  1  0  0  0  0
  2  4  1  0  0  0  0
  3  7  2  0  0  0  0
  4  9  1  0  0  0  0
  5  6  2  0  0  0  0
  6  1  1  0  0  0  0
  6  7  1  0  0  0  0
  8  2  2  0  0  0  0
  9  3  1  6  0  0  0
 10  8  1  6  0  0  0
 10  5  1  0  0  0  0
 10  9  1  0  0  0  0
 11 12  2  0  0  0  0
 12 13  1  0  0  0  0
 13 20  1  0  0  0  0
 13 14  2  0  0  0  0
 15 16  1  0  0  0  0
 16 17  1  0  0  0  0
 18 21  1  0  0  0  0
 18 20  2  0  0  0  0
 19 16  2  0  0  0  0
 20 19  1  0  0  0  0
 21 15  2  0  0  0  0
 22 23  2  0  0  0  0
 25 24  2  0  0  0  0
 25 22  1  0  0  0  0
 26 25  1  0  0  0  0
 27 26  1  0  0  0  0
 29 28  1  0  0  0  0
 29 27  1  0  0  0  0
 30 29  2  0  0  0  0
M  END
>  <MODEL>
1

>  <REMARK>
 VINA RESULT:      -8.2      0.000      0.000
  Name = 
  8 active torsions:
  status: ('A' for Active; 'I' for Inactive)
    1  A    between atoms: C_1  and  C_24
    2  A    between atoms: C_4  and  C_18
    3  A    between atoms: C_5  and  C_24
    4  A    between atoms: N_10  and  C_15
    5  A    between atoms: C_15  and  C_17
    6  A    between atoms: C_19  and  C_23
    7  A    between atoms: C_19  and  N_29
    8  A    between atoms: C_22  and  C_24
                            x       y       z     vdW  Elec       q    Type
                         _______ _______ _______ _____ _____    ______ ____

>  <TORSDO>
F 8

$$$$
=
 OpenBabel11042420113D

 30 32  0  0  1  0  0  0  0  0999 V2000
  161.1640  207.3010  151.4110 C   0  0  2  0  0  3  0  0  0  0  0  0
  159.4160  210.4370  155.7080 N   0  0  0  0  0  0  0  0  0  0  0  0
  160.5140  207.0910  155.1650 C   0  0  0  0  0  3  0  0  0  0  0  0
  159.4480  209.0810  156.0460 N   0  0  0  0  0  2  0  0  0  0  0  0
  161.1450  209.0390  153.1450 C   0  0  0  0  0  3  0  0  0  0  0  0
  161.0780  207.7290  152.8480 C   0  0  0  0  0  0  0  0  0  0  0  0
  160.8520  206.7170  153.9250 C   0  0  0  0  0  3  0  0  0  0  0  0
  160.3460  210.7130  154.8530 C   0  0  0  0  0  3  0  0  0  0  0  0
  160.4330  208.5290  155.4290 C   0  0  2  0  0  3  0  0  0  0  0  0
  161.1710  209.5000  154.5800 C   0  0  1  0  0  3  0  0  0  0  0  0
  160.8160  205.8580  151.2750 C   0  0  0  0  0  3  0  0  0  0  0  0
  161.4750  205.1000  150.4590 N   0  0  0  0  0  0  0  0  0  0  0  0
  161.1790  203.7120  150.2520 C   0  0  0  0  0  0  0  0  0  0  0  0
  160.9940  202.6890  151.5310 S   0  0  0  0  0  0  0  0  0  0  0  0
  161.0730  202.2850  146.2400 C   0  0  0  0  0  3  0  0  0  0  0  0
  161.4510  203.5940  146.5420 C   0  0  0  0  0  0  0  0  0  0  0  0
  161.8440  204.5250  145.4510 C   0  0  0  0  0  1  0  0  0  0  0  0
  160.7310  201.8790  148.5980 C   0  0  0  0  0  3  0  0  0  0  0  0
  161.4600  204.0190  147.8340 N   0  0  0  0  0  0  0  0  0  0  0  0
  161.1100  203.2010  148.8680 C   0  0  0  0  0  0  0  0  0  0  0  0
  160.7140  201.4240  147.2780 C   0  0  0  0  0  3  0  0  0  0  0  0
  162.8080  208.0240  149.6510 C   0  0  0  0  0  3  0  0  0  0  0  0
  162.5390  207.5390  150.8680 C   0  0  0  0  0  3  0  0  0  0  0  0
  161.2230  207.4750  147.9610 O   0  0  0  0  0  0  0  0  0  0  0  0
  161.8200  208.3730  148.6090 C   0  0  0  0  0  0  0  0  0  0  0  0
  161.5480  209.7420  148.3010 N   0  0  0  0  0  2  0  0  0  0  0  0
  162.2400  210.8440  148.9520 C   0  0  0  0  0  2  0  0  0  0  0  0
  160.9430  212.4800  147.4340 C   0  0  0  0  0  1  0  0  0  0  0  0
  162.2180  212.0460  148.0720 C   0  0  0  0  0  0  0  0  0  0  0  0
  163.2500  212.6550  147.8450 O   0  0  0  0  0  0  0  0  0  0  0  0
  1 23  1  1  0  0  0
  1  6  1  0  0  0  0
  2  4  1  0  0  0  0
  6  5  2  0  0  0  0
  6  7  1  0  0  0  0
  7  3  2  0  0  0  0
  8  2  2  0  0  0  0
  9  3  1  6  0  0  0
  9  4  1  0  0  0  0
 10  5  1  6  0  0  0
 10  8  1  0  0  0  0
 10  9  1  0  0  0  0
 11  1  1  0  0  0  0
 12 11  2  0  0  0  0
 13 12  1  0  0  0  0
 13 14  2  0  0  0  0
 15 16  2  0  0  0  0
 15 21  1  0  0  0  0
 16 19  1  0  0  0  0
 17 16  1  0  0  0  0
 18 20  1  0  0  0  0
 19 20  2  0  0  0  0
 20 13  1  0  0  0  0
 21 18  2  0  0  0  0
 22 23  2  0  0  0  0
 24 25  2  0  0  0  0
 25 22  1  0  0  0  0
 26 25  1  0  0  0  0
 26 27  1  0  0  0  0
 28 29  1  0  0  0  0
 29 27  1  0  0  0  0
 30 29  2  0  0  0  0
M  END
>  <MODEL>
2

>  <REMARK>
 VINA RESULT:      -8.1      2.572      7.958
  Name = 
  8 active torsions:
  status: ('A' for Active; 'I' for Inactive)
    1  A    between atoms: C_1  and  C_24
    2  A    between atoms: C_4  and  C_18
    3  A    between atoms: C_5  and  C_24
    4  A    between atoms: N_10  and  C_15
    5  A    between atoms: C_15  and  C_17
    6  A    between atoms: C_19  and  C_23
    7  A    between atoms: C_19  and  N_29
    8  A    between atoms: C_22  and  C_24
                            x       y       z     vdW  Elec       q    Type
                         _______ _______ _______ _____ _____    ______ ____

>  <TORSDO>
F 8

$$$$
=
 OpenBabel11042420113D

 30 32  0  0  1  0  0  0  0  0999 V2000
  161.7810  206.3570  148.3150 C   0  0  2  0  0  3  0  0  0  0  0  0
  161.4060  201.4250  150.9390 N   0  0  0  0  0  0  0  0  0  0  0  0
  161.1250  204.8790  151.7710 C   0  0  0  0  0  3  0  0  0  0  0  0
  161.4820  202.4830  151.8500 N   0  0  0  0  0  2  0  0  0  0  0  0
  160.9170  204.1610  148.9930 C   0  0  0  0  0  3  0  0  0  0  0  0
  161.2960  205.3980  149.3630 C   0  0  0  0  0  0  0  0  0  0  0  0
  161.3000  205.7900  150.8060 C   0  0  0  0  0  3  0  0  0  0  0  0
  160.7940  201.7970  149.8620 C   0  0  0  0  0  3  0  0  0  0  0  0
  160.8730  203.5000  151.3480 C   0  0  2  0  0  3  0  0  0  0  0  0
  160.3240  203.2080  149.9980 C   0  0  1  0  0  3  0  0  0  0  0  0
  162.1930  207.6470  148.9390 C   0  0  0  0  0  3  0  0  0  0  0  0
  161.5570  208.7400  148.6630 N   0  0  0  0  0  0  0  0  0  0  0  0
  161.9140  210.0210  149.2000 C   0  0  0  0  0  0  0  0  0  0  0  0
  162.2350  210.2040  150.8060 S   0  0  0  0  0  0  0  0  0  0  0  0
  161.8360  213.4110  146.6230 C   0  0  0  0  0  3  0  0  0  0  0  0
  160.7780  212.5040  146.6710 C   0  0  0  0  0  0  0  0  0  0  0  0
  159.5780  212.7150  145.8190 C   0  0  0  0  0  1  0  0  0  0  0  0
  162.9990  212.0860  148.2760 C   0  0  0  0  0  3  0  0  0  0  0  0
  160.8440  211.4240  147.4960 N   0  0  0  0  0  0  0  0  0  0  0  0
  161.9220  211.1900  148.2980 C   0  0  0  0  0  0  0  0  0  0  0  0
  162.9520  213.1990  147.4340 C   0  0  0  0  0  3  0  0  0  0  0  0
  160.7300  206.1520  146.0390 C   0  0  0  0  0  3  0  0  0  0  0  0
  160.7140  206.6120  147.2950 C   0  0  0  0  0  3  0  0  0  0  0  0
  162.9740  205.8080  145.3230 O   0  0  0  0  0  0  0  0  0  0  0  0
  161.8040  205.3550  145.4120 C   0  0  0  0  0  0  0  0  0  0  0  0
  161.5220  204.0630  144.8700 N   0  0  0  0  0  2  0  0  0  0  0  0
  160.1850  203.4890  144.8680 C   0  0  0  0  0  2  0  0  0  0  0  0
  160.9800  201.6180  146.4590 C   0  0  0  0  0  1  0  0  0  0  0  0
  160.2550  202.0450  145.2290 C   0  0  0  0  0  0  0  0  0  0  0  0
  159.7460  201.2080  144.5010 O   0  0  0  0  0  0  0  0  0  0  0  0
  1 23  1  6  0  0  0
  1 11  1  0  0  0  0
  1  6  1  0  0  0  0
  2  4  1  0  0  0  0
  5  6  2  0  0  0  0
  6  7  1  0  0  0  0
  7  3  2  0  0  0  0
  8 10  1  0  0  0  0
  8  2  2  0  0  0  0
  9  3  1  6  0  0  0
  9  4  1  0  0  0  0
 10  5  1  6  0  0  0
 10  9  1  0  0  0  0
 12 11  2  0  0  0  0
 12 13  1  0  0  0  0
 13 14  2  0  0  0  0
 15 16  2  0  0  0  0
 15 21  1  0  0  0  0
 16 19  1  0  0  0  0
 17 16  1  0  0  0  0
 18 20  1  0  0  0  0
 19 20  2  0  0  0  0
 20 13  1  0  0  0  0
 21 18  2  0  0  0  0
 22 23  2  0  0  0  0
 24 25  2  0  0  0  0
 25 22  1  0  0  0  0
 26 25  1  0  0  0  0
 27 26  1  0  0  0  0
 27 29  1  0  0  0  0
 29 28  1  0  0  0  0
 30 29  2  0  0  0  0
M  END
>  <MODEL>
3

>  <REMARK>
 VINA RESULT:      -7.9      3.363      4.528
  Name = 
  8 active torsions:
  status: ('A' for Active; 'I' for Inactive)
    1  A    between atoms: C_1  and  C_24
    2  A    between atoms: C_4  and  C_18
    3  A    between atoms: C_5  and  C_24
    4  A    between atoms: N_10  and  C_15
    5  A    between atoms: C_15  and  C_17
    6  A    between atoms: C_19  and  C_23
    7  A    between atoms: C_19  and  N_29
    8  A    between atoms: C_22  and  C_24
                            x       y       z     vdW  Elec       q    Type
                         _______ _______ _______ _____ _____    ______ ____

>  <TORSDO>
F 8

$$$$
=
 OpenBabel11042420113D

 30 32  0  0  1  0  0  0  0  0999 V2000
  161.7190  206.1430  148.4280 C   0  0  2  0  0  3  0  0  0  0  0  0
  161.3320  201.0260  150.6680 N   0  0  0  0  0  0  0  0  0  0  0  0
  161.3500  204.4040  151.8040 C   0  0  0  0  0  3  0  0  0  0  0  0
  161.5680  201.9950  151.6480 N   0  0  0  0  0  2  0  0  0  0  0  0
  160.8030  203.9430  149.0180 C   0  0  0  0  0  3  0  0  0  0  0  0
  161.2930  205.1220  149.4430 C   0  0  0  0  0  0  0  0  0  0  0  0
  161.4750  205.3860  150.9020 C   0  0  0  0  0  3  0  0  0  0  0  0
  160.6320  201.5220  149.7000 C   0  0  0  0  0  3  0  0  0  0  0  0
  160.9720  203.0820  151.3010 C   0  0  2  0  0  3  0  0  0  0  0  0
  160.2650  202.9370  150.0020 C   0  0  1  0  0  3  0  0  0  0  0  0
  162.1120  207.4140  149.1010 C   0  0  0  0  0  3  0  0  0  0  0  0
  161.2580  208.0610  149.8270 N   0  0  0  0  0  0  0  0  0  0  0  0
  161.5540  209.3040  150.4790 C   0  0  0  0  0  0  0  0  0  0  0  0
  162.2450  210.5490  149.6490 S   0  0  0  0  0  0  0  0  0  0  0  0
  160.8610  209.5720  154.6730 C   0  0  0  0  0  3  0  0  0  0  0  0
  160.9310  208.3420  154.0190 C   0  0  0  0  0  0  0  0  0  0  0  0
  160.7750  207.0800  154.7910 C   0  0  0  0  0  1  0  0  0  0  0  0
  161.2300  210.6770  152.5550 C   0  0  0  0  0  3  0  0  0  0  0  0
  161.1390  208.2950  152.6760 N   0  0  0  0  0  0  0  0  0  0  0  0
  161.2900  209.4250  151.9270 C   0  0  0  0  0  0  0  0  0  0  0  0
  161.0150  210.7450  153.9330 C   0  0  0  0  0  3  0  0  0  0  0  0
  160.6130  206.0180  146.1730 C   0  0  0  0  0  3  0  0  0  0  0  0
  160.6160  206.4130  147.4520 C   0  0  0  0  0  3  0  0  0  0  0  0
  162.8420  205.7930  145.3680 O   0  0  0  0  0  0  0  0  0  0  0  0
  161.6930  205.2900  145.4780 C   0  0  0  0  0  0  0  0  0  0  0  0
  161.4430  204.0110  144.8930 N   0  0  0  0  0  2  0  0  0  0  0  0
  160.1290  203.3840  144.9130 C   0  0  0  0  0  2  0  0  0  0  0  0
  161.0410  201.4880  146.4090 C   0  0  0  0  0  1  0  0  0  0  0  0
  160.2670  201.9310  145.2150 C   0  0  0  0  0  0  0  0  0  0  0  0
  159.7750  201.1030  144.4670 O   0  0  0  0  0  0  0  0  0  0  0  0
  1 23  1  6  0  0  0
  1 11  1  0  0  0  0
  1  6  1  0  0  0  0
  2  4  1  0  0  0  0
  5  6  2  0  0  0  0
  6  7  1  0  0  0  0
  7  3  2  0  0  0  0
  8 10  1  0  0  0  0
  8  2  2  0  0  0  0
  9  4  1  0  0  0  0
  9  3  1  6  0  0  0
 10  5  1  6  0  0  0
 10  9  1  0  0  0  0
 11 12  2  0  0  0  0
 12 13  1  0  0  0  0
 13 20  1  0  0  0  0
 14 13  2  0  0  0  0
 16 15  1  0  0  0  0
 16 17  1  0  0  0  0
 18 21  1  0  0  0  0
 19 16  2  0  0  0  0
 20 18  2  0  0  0  0
 20 19  1  0  0  0  0
 21 15  2  0  0  0  0
 22 23  2  0  0  0  0
 24 25  2  0  0  0  0
 25 22  1  0  0  0  0
 26 27  1  0  0  0  0
 26 25  1  0  0  0  0
 27 29  1  0  0  0  0
 29 28  1  0  0  0  0
 30 29  2  0  0  0  0
M  END
>  <MODEL>
4

>  <REMARK>
 VINA RESULT:      -7.6      2.027      2.818
  Name = 
  8 active torsions:
  status: ('A' for Active; 'I' for Inactive)
    1  A    between atoms: C_1  and  C_24
    2  A    between atoms: C_4  and  C_18
    3  A    between atoms: C_5  and  C_24
    4  A    between atoms: N_10  and  C_15
    5  A    between atoms: C_15  and  C_17
    6  A    between atoms: C_19  and  C_23
    7  A    between atoms: C_19  and  N_29
    8  A    between atoms: C_22  and  C_24
                            x       y       z     vdW  Elec       q    Type
                         _______ _______ _______ _____ _____    ______ ____

>  <TORSDO>
F 8

$$$$
=
 OpenBabel11042420113D

 30 32  0  0  1  0  0  0  0  0999 V2000
  161.0010  205.4400  150.2000 C   0  0  2  0  0  3  0  0  0  0  0  0
  160.6900  204.0060  144.7970 N   0  0  0  0  0  0  0  0  0  0  0  0
  161.0380  206.9900  146.7130 C   0  0  0  0  0  3  0  0  0  0  0  0
  160.5370  205.3840  144.9670 N   0  0  0  0  0  2  0  0  0  0  0  0
  161.6250  204.4960  148.0210 C   0  0  0  0  0  3  0  0  0  0  0  0
  161.2650  205.5820  148.7290 C   0  0  0  0  0  0  0  0  0  0  0  0
  161.0640  206.8980  148.0490 C   0  0  0  0  0  3  0  0  0  0  0  0
  161.4790  203.5210  145.7000 C   0  0  0  0  0  3  0  0  0  0  0  0
  161.2720  205.7580  145.9560 C   0  0  2  0  0  3  0  0  0  0  0  0
  162.0020  204.6180  146.5680 C   0  0  1  0  0  3  0  0  0  0  0  0
  160.7670  206.7760  150.8190 C   0  0  0  0  0  3  0  0  0  0  0  0
  161.4990  207.1760  151.8090 N   0  0  0  0  0  0  0  0  0  0  0  0
  161.3140  208.4330  152.4740 C   0  0  0  0  0  0  0  0  0  0  0  0
  161.6630  209.8520  151.7110 S   0  0  0  0  0  0  0  0  0  0  0  0
  159.9520  208.4960  156.5100 C   0  0  0  0  0  3  0  0  0  0  0  0
  160.0680  209.6650  155.7570 C   0  0  0  0  0  0  0  0  0  0  0  0
  159.6980  210.9750  156.3570 C   0  0  0  0  0  1  0  0  0  0  0  0
  160.7590  207.2380  154.6100 C   0  0  0  0  0  3  0  0  0  0  0  0
  160.5200  209.6090  154.4760 N   0  0  0  0  0  0  0  0  0  0  0  0
  160.8680  208.4310  153.8820 C   0  0  0  0  0  0  0  0  0  0  0  0
  160.2990  207.2760  155.9270 C   0  0  0  0  0  3  0  0  0  0  0  0
  162.0790  203.5940  151.5240 C   0  0  0  0  0  3  0  0  0  0  0  0
  162.1510  204.7660  150.8830 C   0  0  0  0  0  3  0  0  0  0  0  0
  160.0450  203.0420  152.6310 O   0  0  0  0  0  0  0  0  0  0  0  0
  160.8660  202.7730  151.7170 C   0  0  0  0  0  0  0  0  0  0  0  0
  160.6200  201.6400  150.8820 N   0  0  0  0  0  2  0  0  0  0  0  0
  161.5480  201.2150  149.8440 C   0  0  0  0  0  2  0  0  0  0  0  0
  161.4300  200.2580  147.4490 C   0  0  0  0  0  1  0  0  0  0  0  0
  160.8240  201.0560  148.5520 C   0  0  0  0  0  0  0  0  0  0  0  0
  159.7480  201.6080  148.3840 O   0  0  0  0  0  0  0  0  0  0  0  0
  1 11  1  1  0  0  0
  1 23  1  0  0  0  0
  2  4  1  0  0  0  0
  2  8  2  0  0  0  0
  3  7  2  0  0  0  0
  4  9  1  0  0  0  0
  5  6  2  0  0  0  0
  6  1  1  0  0  0  0
  7  6  1  0  0  0  0
  9 10  1  0  0  0  0
  9  3  1  1  0  0  0
 10  8  1  6  0  0  0
 10  5  1  0  0  0  0
 11 12  2  0  0  0  0
 12 13  1  0  0  0  0
 13 20  1  0  0  0  0
 14 13  2  0  0  0  0
 16 17  1  0  0  0  0
 16 15  2  0  0  0  0
 18 21  2  0  0  0  0
 19 16  1  0  0  0  0
 20 19  2  0  0  0  0
 20 18  1  0  0  0  0
 21 15  1  0  0  0  0
 22 25  1  0  0  0  0
 23 22  2  0  0  0  0
 25 24  2  0  0  0  0
 26 25  1  0  0  0  0
 27 26  1  0  0  0  0
 28 29  1  0  0  0  0
 29 27  1  0  0  0  0
 30 29  2  0  0  0  0
M  END
>  <MODEL>
5

>  <REMARK>
 VINA RESULT:      -7.5      2.248      4.291
  Name = 
  8 active torsions:
  status: ('A' for Active; 'I' for Inactive)
    1  A    between atoms: C_1  and  C_24
    2  A    between atoms: C_4  and  C_18
    3  A    between atoms: C_5  and  C_24
    4  A    between atoms: N_10  and  C_15
    5  A    between atoms: C_15  and  C_17
    6  A    between atoms: C_19  and  C_23
    7  A    between atoms: C_19  and  N_29
    8  A    between atoms: C_22  and  C_24
                            x       y       z     vdW  Elec       q    Type
                         _______ _______ _______ _____ _____    ______ ____

>  <TORSDO>
F 8

$$$$
=
 OpenBabel11042420113D

 30 32  0  0  1  0  0  0  0  0999 V2000
  161.3630  205.8880  151.9240 C   0  0  2  0  0  3  0  0  0  0  0  0
  161.7970  208.3670  156.9260 N   0  0  0  0  0  0  0  0  0  0  0  0
  161.0250  209.3100  153.5780 C   0  0  0  0  0  3  0  0  0  0  0  0
  161.7370  209.3080  155.8950 N   0  0  0  0  0  2  0  0  0  0  0  0
  160.8550  206.5170  154.2430 C   0  0  0  0  0  3  0  0  0  0  0  0
  161.0540  206.9170  152.9740 C   0  0  0  0  0  0  0  0  0  0  0  0
  161.0370  208.3700  152.6250 C   0  0  0  0  0  3  0  0  0  0  0  0
  161.1090  207.3150  156.6210 C   0  0  0  0  0  3  0  0  0  0  0  0
  160.9710  208.8500  154.9670 C   0  0  2  0  0  3  0  0  0  0  0  0
  160.4370  207.5040  155.3010 C   0  0  1  0  0  3  0  0  0  0  0  0
  161.8980  206.5410  150.6960 C   0  0  0  0  0  3  0  0  0  0  0  0
  161.1090  206.8240  149.7090 N   0  0  0  0  0  0  0  0  0  0  0  0
  161.5560  207.4240  148.4850 C   0  0  0  0  0  0  0  0  0  0  0  0
  162.0280  209.0020  148.4410 S   0  0  0  0  0  0  0  0  0  0  0  0
  161.4930  205.0170  144.9710 C   0  0  0  0  0  3  0  0  0  0  0  0
  162.5710  204.9940  145.8550 C   0  0  0  0  0  0  0  0  0  0  0  0
  163.7320  204.1030  145.5890 C   0  0  0  0  0  1  0  0  0  0  0  0
  160.4200  206.6610  146.3820 C   0  0  0  0  0  3  0  0  0  0  0  0
  162.5640  205.7870  146.9600 N   0  0  0  0  0  0  0  0  0  0  0  0
  161.5210  206.6180  147.2480 C   0  0  0  0  0  0  0  0  0  0  0  0
  160.4100  205.8560  145.2410 C   0  0  0  0  0  3  0  0  0  0  0  0
  160.1370  203.8120  151.2080 C   0  0  0  0  0  3  0  0  0  0  0  0
  160.1390  205.0980  151.5790 C   0  0  0  0  0  3  0  0  0  0  0  0
  162.0240  202.6060  152.0150 O   0  0  0  0  0  0  0  0  0  0  0  0
  161.3230  202.9510  151.0290 C   0  0  0  0  0  0  0  0  0  0  0  0
  161.7100  202.5170  149.7240 N   0  0  0  0  0  2  0  0  0  0  0  0
  160.9990  202.9210  148.5200 C   0  0  0  0  0  2  0  0  0  0  0  0
  161.3920  200.4310  147.9650 C   0  0  0  0  0  1  0  0  0  0  0  0
  160.9900  201.8010  147.5380 C   0  0  0  0  0  0  0  0  0  0  0  0
  160.6840  202.0110  146.3750 O   0  0  0  0  0  0  0  0  0  0  0  0
  1 11  1  6  0  0  0
  1  6  1  0  0  0  0
  4  2  1  0  0  0  0
  6  5  2  0  0  0  0
  7  6  1  0  0  0  0
  7  3  2  0  0  0  0
  8  2  2  0  0  0  0
  9  3  1  6  0  0  0
  9 10  1  0  0  0  0
  9  4  1  0  0  0  0
 10  5  1  6  0  0  0
 10  8  1  0  0  0  0
 12 11  2  0  0  0  0
 13 12  1  0  0  0  0
 14 13  2  0  0  0  0
 15 21  2  0  0  0  0
 15 16  1  0  0  0  0
 16 19  2  0  0  0  0
 17 16  1  0  0  0  0
 18 20  2  0  0  0  0
 19 20  1  0  0  0  0
 20 13  1  0  0  0  0
 21 18  1  0  0  0  0
 22 23  2  0  0  0  0
 23  1  1  0  0  0  0
 25 22  1  0  0  0  0
 25 24  2  0  0  0  0
 26 25  1  0  0  0  0
 27 26  1  0  0  0  0
 29 28  1  0  0  0  0
 29 27  1  0  0  0  0
 30 29  2  0  0  0  0
M  END
>  <MODEL>
6

>  <REMARK>
 VINA RESULT:      -7.3      2.343      7.333
  Name = 
  8 active torsions:
  status: ('A' for Active; 'I' for Inactive)
    1  A    between atoms: C_1  and  C_24
    2  A    between atoms: C_4  and  C_18
    3  A    between atoms: C_5  and  C_24
    4  A    between atoms: N_10  and  C_15
    5  A    between atoms: C_15  and  C_17
    6  A    between atoms: C_19  and  C_23
    7  A    between atoms: C_19  and  N_29
    8  A    between atoms: C_22  and  C_24
                            x       y       z     vdW  Elec       q    Type
                         _______ _______ _______ _____ _____    ______ ____

>  <TORSDO>
F 8

$$$$
=
 OpenBabel11042420113D

 30 32  0  0  1  0  0  0  0  0999 V2000
  161.4360  205.7740  150.4130 C   0  0  2  0  0  3  0  0  0  0  0  0
  161.5220  200.5900  148.2980 N   0  0  0  0  0  0  0  0  0  0  0  0
  161.0890  202.1270  151.4830 C   0  0  0  0  0  3  0  0  0  0  0  0
  161.5920  200.5720  149.6940 N   0  0  0  0  0  2  0  0  0  0  0  0
  160.7490  203.7810  149.1540 C   0  0  0  0  0  3  0  0  0  0  0  0
  161.0760  204.3170  150.3440 C   0  0  0  0  0  0  0  0  0  0  0  0
  161.1480  203.4620  151.5680 C   0  0  0  0  0  3  0  0  0  0  0  0
  160.8230  201.5990  147.8920 C   0  0  0  0  0  3  0  0  0  0  0  0
  160.8940  201.5520  150.1510 C   0  0  2  0  0  3  0  0  0  0  0  0
  160.2790  202.3520  149.0600 C   0  0  1  0  0  3  0  0  0  0  0  0
  161.4080  206.2510  151.8260 C   0  0  0  0  0  3  0  0  0  0  0  0
  160.8690  207.3900  152.1210 N   0  0  0  0  0  0  0  0  0  0  0  0
  160.8320  207.9280  153.4500 C   0  0  0  0  0  0  0  0  0  0  0  0
  161.0320  206.9500  154.7620 S   0  0  0  0  0  0  0  0  0  0  0  0
  160.0810  212.0820  154.0190 C   0  0  0  0  0  3  0  0  0  0  0  0
  160.4250  211.2470  155.0830 C   0  0  0  0  0  0  0  0  0  0  0  0
  160.5500  211.8060  156.4560 C   0  0  0  0  0  1  0  0  0  0  0  0
  160.2050  210.1780  152.5340 C   0  0  0  0  0  3  0  0  0  0  0  0
  160.6430  209.9220  154.8660 N   0  0  0  0  0  0  0  0  0  0  0  0
  160.5430  209.3650  153.6250 C   0  0  0  0  0  0  0  0  0  0  0  0
  159.9740  211.5400  152.7370 C   0  0  0  0  0  3  0  0  0  0  0  0
  160.8620  207.4820  148.6590 C   0  0  0  0  0  3  0  0  0  0  0  0
  160.4920  206.5930  149.5890 C   0  0  0  0  0  3  0  0  0  0  0  0
  163.0470  206.9910  147.8520 O   0  0  0  0  0  0  0  0  0  0  0  0
  162.2470  207.8520  148.3020 C   0  0  0  0  0  0  0  0  0  0  0  0
  162.7080  209.1910  148.4900 N   0  0  0  0  0  2  0  0  0  0  0  0
  161.8730  210.2340  149.0660 C   0  0  0  0  0  2  0  0  0  0  0  0
  163.1590  212.3220  148.2580 C   0  0  0  0  0  1  0  0  0  0  0  0
  161.9430  211.4610  148.2230 C   0  0  0  0  0  0  0  0  0  0  0  0
  160.9920  211.7790  147.5290 O   0  0  0  0  0  0  0  0  0  0  0  0
  1 23  1  6  0  0  0
  1 11  1  0  0  0  0
  2  4  1  0  0  0  0
  3  7  2  0  0  0  0
  4  9  1  0  0  0  0
  5  6  2  0  0  0  0
  6  1  1  0  0  0  0
  6  7  1  0  0  0  0
  8  2  2  0  0  0  0
  9  3  1  6  0  0  0
 10  8  1  6  0  0  0
 10  5  1  0  0  0  0
 10  9  1  0  0  0  0
 11 12  2  0  0  0  0
 12 13  1  0  0  0  0
 13 20  1  0  0  0  0
 13 14  2  0  0  0  0
 15 16  1  0  0  0  0
 16 17  1  0  0  0  0
 18 21  1  0  0  0  0
 18 20  2  0  0  0  0
 19 16  2  0  0  0  0
 20 19  1  0  0  0  0
 21 15  2  0  0  0  0
 22 23  2  0  0  0  0
 24 25  2  0  0  0  0
 25 26  1  0  0  0  0
 25 22  1  0  0  0  0
 26 27  1  0  0  0  0
 29 28  1  0  0  0  0
 29 27  1  0  0  0  0
 30 29  2  0  0  0  0
M  END
>  <MODEL>
7

>  <REMARK>
 VINA RESULT:      -7.3      1.776      2.897
  Name = 
  8 active torsions:
  status: ('A' for Active; 'I' for Inactive)
    1  A    between atoms: C_1  and  C_24
    2  A    between atoms: C_4  and  C_18
    3  A    between atoms: C_5  and  C_24
    4  A    between atoms: N_10  and  C_15
    5  A    between atoms: C_15  and  C_17
    6  A    between atoms: C_19  and  C_23
    7  A    between atoms: C_19  and  N_29
    8  A    between atoms: C_22  and  C_24
                            x       y       z     vdW  Elec       q    Type
                         _______ _______ _______ _____ _____    ______ ____

>  <TORSDO>
F 8

$$$$
=
 OpenBabel11042420113D

 30 32  0  0  1  0  0  0  0  0999 V2000
  160.9490  209.2510  151.8360 C   0  0  2  0  0  3  0  0  0  0  0  0
  156.8460  211.6170  154.8240 N   0  0  0  0  0  0  0  0  0  0  0  0
  159.8620  209.8230  155.4490 C   0  0  0  0  0  3  0  0  0  0  0  0
  157.6470  210.7930  155.6200 N   0  0  0  0  0  2  0  0  0  0  0  0
  159.5220  210.9810  152.8370 C   0  0  0  0  0  3  0  0  0  0  0  0
  160.3410  209.9310  153.0290 C   0  0  0  0  0  0  0  0  0  0  0  0
  160.5900  209.4050  154.4060 C   0  0  0  0  0  3  0  0  0  0  0  0
  157.5470  212.1530  153.8780 C   0  0  0  0  0  3  0  0  0  0  0  0
  158.8570  210.8570  155.1880 C   0  0  2  0  0  3  0  0  0  0  0  0
  158.9800  211.7550  154.0100 C   0  0  1  0  0  3  0  0  0  0  0  0
  161.0890  207.7880  152.0850 C   0  0  0  0  0  3  0  0  0  0  0  0
  160.9630  206.9430  151.1120 N   0  0  0  0  0  0  0  0  0  0  0  0
  161.0540  205.5220  151.2810 C   0  0  0  0  0  0  0  0  0  0  0  0
  161.2030  204.8570  152.7820 S   0  0  0  0  0  0  0  0  0  0  0  0
  161.2270  203.0990  147.7820 C   0  0  0  0  0  3  0  0  0  0  0  0
  161.5550  204.4540  147.7510 C   0  0  0  0  0  0  0  0  0  0  0  0
  161.9900  205.0850  146.4760 C   0  0  0  0  0  1  0  0  0  0  0  0
  160.7520  203.3060  150.1430 C   0  0  0  0  0  3  0  0  0  0  0  0
  161.4740  205.2010  148.8850 N   0  0  0  0  0  0  0  0  0  0  0  0
  161.0820  204.6660  150.0770 C   0  0  0  0  0  0  0  0  0  0  0  0
  160.8270  202.5240  148.9890 C   0  0  0  0  0  3  0  0  0  0  0  0
  162.7070  210.1720  150.2920 C   0  0  0  0  0  3  0  0  0  0  0  0
  162.2900  209.8360  151.5180 C   0  0  0  0  0  3  0  0  0  0  0  0
  161.6340  208.8480  148.6300 O   0  0  0  0  0  0  0  0  0  0  0  0
  161.9560  209.9960  149.0320 C   0  0  0  0  0  0  0  0  0  0  0  0
  161.6080  211.1290  148.2340 N   0  0  0  0  0  2  0  0  0  0  0  0
  161.9980  212.4860  148.5870 C   0  0  0  0  0  2  0  0  0  0  0  0
  160.1060  213.3410  150.1210 C   0  0  0  0  0  1  0  0  0  0  0  0
  160.7830  213.3230  148.7940 C   0  0  0  0  0  0  0  0  0  0  0  0
  160.3220  213.9690  147.8670 O   0  0  0  0  0  0  0  0  0  0  0  0
  1 23  1  1  0  0  0
  1 11  1  0  0  0  0
  1  6  1  0  0  0  0
  2  4  1  0  0  0  0
  5  6  2  0  0  0  0
  6  7  1  0  0  0  0
  7  3  2  0  0  0  0
  8 10  1  0  0  0  0
  8  2  2  0  0  0  0
  9  3  1  6  0  0  0
  9  4  1  0  0  0  0
 10  5  1  6  0  0  0
 10  9  1  0  0  0  0
 12 13  1  0  0  0  0
 12 11  2  0  0  0  0
 13 14  2  0  0  0  0
 15 21  1  0  0  0  0
 16 15  2  0  0  0  0
 16 19  1  0  0  0  0
 17 16  1  0  0  0  0
 19 20  2  0  0  0  0
 20 18  1  0  0  0  0
 20 13  1  0  0  0  0
 21 18  2  0  0  0  0
 22 23  2  0  0  0  0
 24 25  2  0  0  0  0
 25 22  1  0  0  0  0
 26 27  1  0  0  0  0
 26 25  1  0  0  0  0
 27 29  1  0  0  0  0
 29 28  1  0  0  0  0
 30 29  2  0  0  0  0
M  END
>  <MODEL>
8

>  <REMARK>
 VINA RESULT:      -7.3      2.792      8.280
  Name = 
  8 active torsions:
  status: ('A' for Active; 'I' for Inactive)
    1  A    between atoms: C_1  and  C_24
    2  A    between atoms: C_4  and  C_18
    3  A    between atoms: C_5  and  C_24
    4  A    between atoms: N_10  and  C_15
    5  A    between atoms: C_15  and  C_17
    6  A    between atoms: C_19  and  C_23
    7  A    between atoms: C_19  and  N_29
    8  A    between atoms: C_22  and  C_24
                            x       y       z     vdW  Elec       q    Type
                         _______ _______ _______ _____ _____    ______ ____

>  <TORSDO>
F 8

$$$$
=
 OpenBabel11042420113D

 30 32  0  0  1  0  0  0  0  0999 V2000
  161.0470  208.3150  150.8260 C   0  0  2  0  0  3  0  0  0  0  0  0
  159.5220  208.4210  156.2120 N   0  0  0  0  0  0  0  0  0  0  0  0
  161.0920  206.1450  153.9640 C   0  0  0  0  0  3  0  0  0  0  0  0
  159.8530  207.1270  155.8020 N   0  0  0  0  0  2  0  0  0  0  0  0
  161.0120  208.9190  153.2050 C   0  0  0  0  0  3  0  0  0  0  0  0
  161.1310  207.9490  152.2800 C   0  0  0  0  0  0  0  0  0  0  0  0
  161.2760  206.5200  152.6920 C   0  0  0  0  0  3  0  0  0  0  0  0
  160.2290  209.2940  155.5720 C   0  0  0  0  0  3  0  0  0  0  0  0
  160.8010  207.2020  154.9350 C   0  0  2  0  0  3  0  0  0  0  0  0
  161.1990  208.6090  154.6680 C   0  0  1  0  0  3  0  0  0  0  0  0
  160.7420  207.1100  150.0020 C   0  0  0  0  0  3  0  0  0  0  0  0
  161.5950  206.6810  149.1290 N   0  0  0  0  0  0  0  0  0  0  0  0
  161.3590  205.5490  148.2800 C   0  0  0  0  0  0  0  0  0  0  0  0
  161.2210  205.7310  146.6480 S   0  0  0  0  0  0  0  0  0  0  0  0
  160.9030  201.6880  150.0190 C   0  0  0  0  0  3  0  0  0  0  0  0
  161.1160  201.8540  148.6510 C   0  0  0  0  0  0  0  0  0  0  0  0
  161.2030  200.6650  147.7620 C   0  0  0  0  0  1  0  0  0  0  0  0
  160.9650  204.0900  150.2830 C   0  0  0  0  0  3  0  0  0  0  0  0
  161.2430  203.1030  148.1280 N   0  0  0  0  0  0  0  0  0  0  0  0
  161.1730  204.2230  148.9040 C   0  0  0  0  0  0  0  0  0  0  0  0
  160.8300  202.8160  150.8380 C   0  0  0  0  0  3  0  0  0  0  0  0
  162.5110  210.2340  150.1230 C   0  0  0  0  0  3  0  0  0  0  0  0
  162.3290  208.9300  150.3580 C   0  0  0  0  0  3  0  0  0  0  0  0
  160.8930  211.5010  151.3240 O   0  0  0  0  0  0  0  0  0  0  0  0
  161.4900  211.2960  150.2360 C   0  0  0  0  0  0  0  0  0  0  0  0
  161.1450  212.0900  149.1000 N   0  0  0  0  0  2  0  0  0  0  0  0
  161.7360  211.8780  147.7870 C   0  0  0  0  0  2  0  0  0  0  0  0
  162.4120  214.3470  148.1270 C   0  0  0  0  0  1  0  0  0  0  0  0
  162.2010  213.1780  147.2260 C   0  0  0  0  0  0  0  0  0  0  0  0
  162.3770  213.2970  146.0250 O   0  0  0  0  0  0  0  0  0  0  0  0
  1 11  1  6  0  0  0
  1  6  1  0  0  0  0
  4  2  1  0  0  0  0
  6  7  1  0  0  0  0
  6  5  2  0  0  0  0
  7  3  2  0  0  0  0
  8  2  2  0  0  0  0
  9  3  1  6  0  0  0
  9  4  1  0  0  0  0
 10  5  1  6  0  0  0
 10  9  1  0  0  0  0
 10  8  1  0  0  0  0
 12 11  2  0  0  0  0
 13 20  1  0  0  0  0
 13 12  1  0  0  0  0
 14 13  2  0  0  0  0
 15 21  1  0  0  0  0
 16 15  2  0  0  0  0
 17 16  1  0  0  0  0
 18 21  2  0  0  0  0
 19 16  1  0  0  0  0
 19 20  2  0  0  0  0
 20 18  1  0  0  0  0
 22 25  1  0  0  0  0
 22 23  2  0  0  0  0
 23  1  1  0  0  0  0
 25 24  2  0  0  0  0
 26 25  1  0  0  0  0
 27 26  1  0  0  0  0
 29 27  1  0  0  0  0
 29 28  1  0  0  0  0
 30 29  2  0  0  0  0
M  END
>  <MODEL>
9

>  <REMARK>
 VINA RESULT:      -7.2      3.398      7.849
  Name = 
  8 active torsions:
  status: ('A' for Active; 'I' for Inactive)
    1  A    between atoms: C_1  and  C_24
    2  A    between atoms: C_4  and  C_18
    3  A    between atoms: C_5  and  C_24
    4  A    between atoms: N_10  and  C_15
    5  A    between atoms: C_15  and  C_17
    6  A    between atoms: C_19  and  C_23
    7  A    between atoms: C_19  and  N_29
    8  A    between atoms: C_22  and  C_24
                            x       y       z     vdW  Elec       q    Type
                         _______ _______ _______ _____ _____    ______ ____

>  <TORSDO>
F 8

$$$$
