=
 OpenBabel11042420133D

 25 28  0  0  0  0  0  0  0  0999 V2000
  160.9350  204.0480  149.0170 C   0  0  0  0  0  3  0  0  0  0  0  0
  161.8240  208.3920  151.2740 N   0  0  0  0  0  0  0  0  0  0  0  0
  161.6800  207.7090  149.0020 C   0  0  0  0  0  3  0  0  0  0  0  0
  161.1000  204.8310  151.2950 C   0  0  0  0  0  3  0  0  0  0  0  0
  162.1340  210.0290  149.8450 C   0  0  0  0  0  3  0  0  0  0  0  0
  161.8740  208.6830  149.9740 C   0  0  0  0  0  0  0  0  0  0  0  0
  161.2140  205.3270  148.5110 C   0  0  0  0  0  0  0  0  0  0  0  0
  162.0400  209.4940  151.9610 N   0  0  0  0  0  0  0  0  0  0  0  0
  161.3730  206.1180  150.8340 C   0  0  0  0  0  0  0  0  0  0  0  0
  161.5790  207.1530  151.7590 C   0  0  0  0  0  3  0  0  0  0  0  0
  161.4300  206.3880  149.4300 C   0  0  0  0  0  0  0  0  0  0  0  0
  160.8790  203.7920  150.3940 C   0  0  0  0  0  0  0  0  0  0  0  0
  162.2330  210.5020  151.1160 N   0  0  0  0  0  0  0  0  0  0  0  0
  161.6340  205.4310  144.5750 C   0  0  0  0  0  3  0  0  0  0  0  0
  162.3670  204.8090  145.9520 S   0  0  0  0  0  0  0  0  0  0  0  0
  161.2610  205.4790  147.0320 C   0  0  0  0  0  0  0  0  0  0  0  0
  160.3210  206.1720  146.2720 C   0  0  0  0  0  3  0  0  0  0  0  0
  160.5400  206.1430  144.9280 N   0  0  0  0  0  0  0  0  0  0  0  0
  160.6030  202.5150  150.8910 O   0  0  0  0  0  0  0  0  0  0  0  0
  161.2170  201.3410  150.3740 C   0  0  0  0  0  2  0  0  0  0  0  0
  160.6350  201.0080  149.0410 C   0  0  0  0  0  3  0  0  0  0  0  0
  161.4230  200.6570  148.0280 C   0  0  0  0  0  3  0  0  0  0  0  0
  160.8610  201.4560  145.8830 O   0  0  0  0  0  1  0  0  0  0  0  0
  161.5900  199.3100  146.0910 O   0  0  0  0  0  1  0  0  0  0  0  0
  160.8430  200.3220  146.6940 C   0  0  0  0  0  3  0  0  0  0  0  0
  1 12  1  0  0  0  0
  2 10  1  0  0  0  0
  2  8  1  0  0  0  0
  3 11  2  0  0  0  0
  3  6  1  0  0  0  0
  5  6  2  0  0  0  0
  5 13  1  0  0  0  0
  6  2  1  0  0  0  0
  7  1  2  0  0  0  0
  7 11  1  0  0  0  0
  9  4  1  0  0  0  0
  9 10  2  0  0  0  0
 11  9  1  0  0  0  0
 12 19  1  0  0  0  0
 12  4  2  0  0  0  0
 13  8  2  0  0  0  0
 14 18  2  0  0  0  0
 14 15  1  0  0  0  0
 15 16  1  0  0  0  0
 16  7  1  0  0  0  0
 17 16  2  0  0  0  0
 18 17  1  0  0  0  0
 20 19  1  0  0  0  0
 21 20  1  0  0  0  0
 22 21  2  0  0  0  0
 23 25  1  0  0  0  0
 24 25  1  0  0  0  0
 25 22  1  0  0  0  0
M  END
>  <MODEL>
1

>  <REMARK>
 VINA RESULT:      -8.8      0.000      0.000
  Name = 
  5 active torsions:
  status: ('A' for Active; 'I' for Inactive)
    1  A    between atoms: C_3  and  C_13
    2  A    between atoms: C_10  and  C_23
    3  A    between atoms: C_11  and  C_18
    4  A    between atoms: C_13  and  O_22
    5  A    between atoms: O_22  and  C_24
                            x       y       z     vdW  Elec       q    Type
                         _______ _______ _______ _____ _____    ______ ____

>  <TORSDO>
F 5

$$$$
=
 OpenBabel11042420133D

 25 28  0  0  0  0  0  0  0  0999 V2000
  160.9320  204.4150  149.0240 C   0  0  0  0  0  3  0  0  0  0  0  0
  161.7680  209.1040  150.4630 N   0  0  0  0  0  0  0  0  0  0  0  0
  161.7290  208.0040  148.3570 C   0  0  0  0  0  3  0  0  0  0  0  0
  160.9940  205.6150  151.1180 C   0  0  0  0  0  3  0  0  0  0  0  0
  162.1730  210.4400  148.7690 C   0  0  0  0  0  3  0  0  0  0  0  0
  161.8880  209.1430  149.1360 C   0  0  0  0  0  0  0  0  0  0  0  0
  161.2550  205.5740  148.3010 C   0  0  0  0  0  0  0  0  0  0  0  0
  161.9650  210.3150  150.9400 N   0  0  0  0  0  0  0  0  0  0  0  0
  161.3070  206.7900  150.4380 C   0  0  0  0  0  0  0  0  0  0  0  0
  161.4810  207.9800  151.1600 C   0  0  0  0  0  3  0  0  0  0  0  0
  161.4390  206.7890  149.0130 C   0  0  0  0  0  0  0  0  0  0  0  0
  160.8030  204.4250  150.4190 C   0  0  0  0  0  0  0  0  0  0  0  0
  162.2130  211.1440  149.9310 N   0  0  0  0  0  0  0  0  0  0  0  0
  161.2720  205.5110  144.3420 C   0  0  0  0  0  3  0  0  0  0  0  0
  160.3620  206.0730  145.6360 S   0  0  0  0  0  0  0  0  0  0  0  0
  161.3780  205.4430  146.8240 C   0  0  0  0  0  0  0  0  0  0  0  0
  162.4290  204.8100  146.1640 C   0  0  0  0  0  3  0  0  0  0  0  0
  162.3570  204.8490  144.8050 N   0  0  0  0  0  0  0  0  0  0  0  0
  160.4850  203.2660  151.1330 O   0  0  0  0  0  0  0  0  0  0  0  0
  161.0930  202.0090  150.8670 C   0  0  0  0  0  2  0  0  0  0  0  0
  160.5540  201.4420  149.5960 C   0  0  0  0  0  3  0  0  0  0  0  0
  161.3440  201.2870  148.5360 C   0  0  0  0  0  3  0  0  0  0  0  0
  160.8180  201.7050  146.2770 O   0  0  0  0  0  1  0  0  0  0  0  0
  161.5940  199.6450  146.8540 O   0  0  0  0  0  1  0  0  0  0  0  0
  160.8070  200.7200  147.2640 C   0  0  0  0  0  3  0  0  0  0  0  0
  1 12  1  0  0  0  0
  2  8  1  0  0  0  0
  2 10  1  0  0  0  0
  3 11  2  0  0  0  0
  3  6  1  0  0  0  0
  5  6  2  0  0  0  0
  5 13  1  0  0  0  0
  6  2  1  0  0  0  0
  7 11  1  0  0  0  0
  7  1  2  0  0  0  0
  9  4  1  0  0  0  0
  9 10  2  0  0  0  0
 11  9  1  0  0  0  0
 12  4  2  0  0  0  0
 12 19  1  0  0  0  0
 13  8  2  0  0  0  0
 14 18  2  0  0  0  0
 14 15  1  0  0  0  0
 15 16  1  0  0  0  0
 16  7  1  0  0  0  0
 17 16  2  0  0  0  0
 18 17  1  0  0  0  0
 20 19  1  0  0  0  0
 21 20  1  0  0  0  0
 22 21  2  0  0  0  0
 23 25  1  0  0  0  0
 24 25  1  0  0  0  0
 25 22  1  0  0  0  0
M  END
>  <MODEL>
2

>  <REMARK>
 VINA RESULT:      -8.7      1.028      1.130
  Name = 
  5 active torsions:
  status: ('A' for Active; 'I' for Inactive)
    1  A    between atoms: C_3  and  C_13
    2  A    between atoms: C_10  and  C_23
    3  A    between atoms: C_11  and  C_18
    4  A    between atoms: C_13  and  O_22
    5  A    between atoms: O_22  and  C_24
                            x       y       z     vdW  Elec       q    Type
                         _______ _______ _______ _____ _____    ______ ____

>  <TORSDO>
F 5

$$$$
=
 OpenBabel11042420133D

 25 28  0  0  0  0  0  0  0  0999 V2000
  161.8590  206.3760  151.1010 C   0  0  0  0  0  3  0  0  0  0  0  0
  160.3680  208.2900  155.4440 N   0  0  0  0  0  0  0  0  0  0  0  0
  160.9140  209.2230  153.3280 C   0  0  0  0  0  3  0  0  0  0  0  0
  161.2880  205.5180  153.2830 C   0  0  0  0  0  3  0  0  0  0  0  0
  160.1590  210.4740  155.3690 C   0  0  0  0  0  3  0  0  0  0  0  0
  160.4980  209.3510  154.6480 C   0  0  0  0  0  0  0  0  0  0  0  0
  161.6290  207.6980  151.5120 C   0  0  0  0  0  0  0  0  0  0  0  0
  159.9620  208.7000  156.6280 N   0  0  0  0  0  0  0  0  0  0  0  0
  161.0390  206.8140  153.7300 C   0  0  0  0  0  0  0  0  0  0  0  0
  160.6160  207.0190  155.0520 C   0  0  0  0  0  3  0  0  0  0  0  0
  161.2020  207.9280  152.8480 C   0  0  0  0  0  0  0  0  0  0  0  0
  161.6960  205.2910  151.9710 C   0  0  0  0  0  0  0  0  0  0  0  0
  159.8290  210.0220  156.6080 N   0  0  0  0  0  0  0  0  0  0  0  0
  162.1020  210.2730  148.5420 C   0  0  0  0  0  3  0  0  0  0  0  0
  161.8880  208.6320  148.8280 S   0  0  0  0  0  0  0  0  0  0  0  0
  161.8460  208.7730  150.5070 C   0  0  0  0  0  0  0  0  0  0  0  0
  161.9880  210.1260  150.8040 C   0  0  0  0  0  3  0  0  0  0  0  0
  162.1330  210.9370  149.7200 N   0  0  0  0  0  0  0  0  0  0  0  0
  161.9310  203.9770  151.5550 O   0  0  0  0  0  0  0  0  0  0  0  0
  161.0150  202.9170  151.8040 C   0  0  0  0  0  2  0  0  0  0  0  0
  160.8880  202.0610  150.5890 C   0  0  0  0  0  3  0  0  0  0  0  0
  160.7980  202.6100  149.3800 C   0  0  0  0  0  3  0  0  0  0  0  0
  161.1220  202.4630  147.0510 O   0  0  0  0  0  1  0  0  0  0  0  0
  161.4320  200.5970  148.3160 O   0  0  0  0  0  1  0  0  0  0  0  0
  160.6700  201.7550  148.1640 C   0  0  0  0  0  3  0  0  0  0  0  0
  1  7  2  0  0  0  0
  1 12  1  0  0  0  0
  2  8  1  0  0  0  0
  3  6  1  0  0  0  0
  4  9  1  0  0  0  0
  5 13  1  0  0  0  0
  6  5  2  0  0  0  0
  6  2  1  0  0  0  0
  7 11  1  0  0  0  0
  9 10  2  0  0  0  0
 10  2  1  0  0  0  0
 11  3  2  0  0  0  0
 11  9  1  0  0  0  0
 12  4  2  0  0  0  0
 13  8  2  0  0  0  0
 14 15  1  0  0  0  0
 14 18  2  0  0  0  0
 15 16  1  0  0  0  0
 16 17  2  0  0  0  0
 16  7  1  0  0  0  0
 18 17  1  0  0  0  0
 19 20  1  0  0  0  0
 19 12  1  0  0  0  0
 21 20  1  0  0  0  0
 22 21  2  0  0  0  0
 23 25  1  0  0  0  0
 25 24  1  0  0  0  0
 25 22  1  0  0  0  0
M  END
>  <MODEL>
3

>  <REMARK>
 VINA RESULT:      -8.3      2.810      4.186
  Name = 
  5 active torsions:
  status: ('A' for Active; 'I' for Inactive)
    1  A    between atoms: C_3  and  C_13
    2  A    between atoms: C_10  and  C_23
    3  A    between atoms: C_11  and  C_18
    4  A    between atoms: C_13  and  O_22
    5  A    between atoms: O_22  and  C_24
                            x       y       z     vdW  Elec       q    Type
                         _______ _______ _______ _____ _____    ______ ____

>  <TORSDO>
F 5

$$$$
=
 OpenBabel11042420133D

 25 28  0  0  0  0  0  0  0  0999 V2000
  161.7200  208.6130  150.4060 C   0  0  0  0  0  3  0  0  0  0  0  0
  161.1800  204.0050  148.6100 N   0  0  0  0  0  0  0  0  0  0  0  0
  160.9690  204.9720  150.7700 C   0  0  0  0  0  3  0  0  0  0  0  0
  161.9130  207.5450  148.2490 C   0  0  0  0  0  3  0  0  0  0  0  0
  160.6060  202.5630  150.1620 C   0  0  0  0  0  3  0  0  0  0  0  0
  160.9140  203.8810  149.9100 C   0  0  0  0  0  0  0  0  0  0  0  0
  161.3990  207.3970  151.0280 C   0  0  0  0  0  0  0  0  0  0  0  0
  161.0520  202.8240  148.0400 N   0  0  0  0  0  0  0  0  0  0  0  0
  161.5890  206.3190  148.8250 C   0  0  0  0  0  0  0  0  0  0  0  0
  161.5150  205.1740  148.0170 C   0  0  0  0  0  3  0  0  0  0  0  0
  161.3220  206.2250  150.2280 C   0  0  0  0  0  0  0  0  0  0  0  0
  161.9790  208.6960  149.0310 C   0  0  0  0  0  0  0  0  0  0  0  0
  160.7050  201.9320  148.9620 N   0  0  0  0  0  0  0  0  0  0  0  0
  160.9170  207.0840  154.9450 C   0  0  0  0  0  3  0  0  0  0  0  0
  161.2910  206.1570  153.5960 S   0  0  0  0  0  0  0  0  0  0  0  0
  161.1560  207.4250  152.4950 C   0  0  0  0  0  0  0  0  0  0  0  0
  160.8300  208.5640  153.2280 C   0  0  0  0  0  3  0  0  0  0  0  0
  160.6970  208.3640  154.5680 N   0  0  0  0  0  0  0  0  0  0  0  0
  162.3010  209.9100  148.4190 O   0  0  0  0  0  0  0  0  0  0  0  0
  162.0430  211.1700  149.0280 C   0  0  0  0  0  2  0  0  0  0  0  0
  161.7300  212.1850  147.9800 C   0  0  0  0  0  3  0  0  0  0  0  0
  162.7100  212.8040  147.3250 C   0  0  0  0  0  3  0  0  0  0  0  0
  162.7320  213.3100  145.0240 O   0  0  0  0  0  1  0  0  0  0  0  0
  161.0400  214.1320  146.3050 O   0  0  0  0  0  1  0  0  0  0  0  0
  162.4000  213.8210  146.2770 C   0  0  0  0  0  3  0  0  0  0  0  0
  1  7  2  0  0  0  0
  2  6  1  0  0  0  0
  4  9  1  0  0  0  0
  4 12  2  0  0  0  0
  6  5  2  0  0  0  0
  6  3  1  0  0  0  0
  7 16  1  0  0  0  0
  8  2  1  0  0  0  0
  8 13  2  0  0  0  0
  9 11  1  0  0  0  0
 10  2  1  0  0  0  0
 10  9  2  0  0  0  0
 11  3  2  0  0  0  0
 11  7  1  0  0  0  0
 12  1  1  0  0  0  0
 13  5  1  0  0  0  0
 15 14  1  0  0  0  0
 16 17  2  0  0  0  0
 16 15  1  0  0  0  0
 17 18  1  0  0  0  0
 18 14  2  0  0  0  0
 19 20  1  0  0  0  0
 19 12  1  0  0  0  0
 21 20  1  0  0  0  0
 22 21  2  0  0  0  0
 23 25  1  0  0  0  0
 25 24  1  0  0  0  0
 25 22  1  0  0  0  0
M  END
>  <MODEL>
4

>  <REMARK>
 VINA RESULT:      -8.2      4.829      8.270
  Name = 
  5 active torsions:
  status: ('A' for Active; 'I' for Inactive)
    1  A    between atoms: C_3  and  C_13
    2  A    between atoms: C_10  and  C_23
    3  A    between atoms: C_11  and  C_18
    4  A    between atoms: C_13  and  O_22
    5  A    between atoms: O_22  and  C_24
                            x       y       z     vdW  Elec       q    Type
                         _______ _______ _______ _____ _____    ______ ____

>  <TORSDO>
F 5

$$$$
=
 OpenBabel11042420133D

 25 28  0  0  0  0  0  0  0  0999 V2000
  161.5130  207.4970  148.5680 C   0  0  0  0  0  3  0  0  0  0  0  0
  160.9630  203.1610  150.9450 N   0  0  0  0  0  0  0  0  0  0  0  0
  161.0880  203.7860  148.6560 C   0  0  0  0  0  3  0  0  0  0  0  0
  161.3750  206.7700  150.8660 C   0  0  0  0  0  3  0  0  0  0  0  0
  160.8210  201.4610  149.5640 C   0  0  0  0  0  3  0  0  0  0  0  0
  160.9620  202.8280  149.6540 C   0  0  0  0  0  0  0  0  0  0  0  0
  161.3540  206.1840  148.0980 C   0  0  0  0  0  0  0  0  0  0  0  0
  160.8310  202.0650  151.6630 N   0  0  0  0  0  0  0  0  0  0  0  0
  161.2240  205.4520  150.4420 C   0  0  0  0  0  0  0  0  0  0  0  0
  161.0910  204.4310  151.3950 C   0  0  0  0  0  3  0  0  0  0  0  0
  161.2150  205.1360  149.0460 C   0  0  0  0  0  0  0  0  0  0  0  0
  161.5220  207.7970  149.9370 C   0  0  0  0  0  0  0  0  0  0  0  0
  160.7420  201.0190  150.8470 N   0  0  0  0  0  0  0  0  0  0  0  0
  161.7050  205.4500  144.2230 C   0  0  0  0  0  3  0  0  0  0  0  0
  162.5890  205.3920  145.6490 S   0  0  0  0  0  0  0  0  0  0  0  0
  161.3480  205.9840  146.6240 C   0  0  0  0  0  0  0  0  0  0  0  0
  160.2510  206.2030  145.7940 C   0  0  0  0  0  3  0  0  0  0  0  0
  160.4600  205.9120  144.4800 N   0  0  0  0  0  0  0  0  0  0  0  0
  161.6770  209.1070  150.3980 O   0  0  0  0  0  0  0  0  0  0  0  0
  162.3450  209.4190  151.6140 C   0  0  0  0  0  2  0  0  0  0  0  0
  161.4950  210.3200  152.4440 C   0  0  0  0  0  3  0  0  0  0  0  0
  160.1690  210.2050  152.4250 C   0  0  0  0  0  3  0  0  0  0  0  0
  160.1270  211.8830  154.0800 O   0  0  0  0  0  1  0  0  0  0  0  0
  158.5610  211.9390  152.4290 O   0  0  0  0  0  1  0  0  0  0  0  0
  159.3150  211.1050  153.2550 C   0  0  0  0  0  3  0  0  0  0  0  0
  1 12  1  0  0  0  0
  2 10  1  0  0  0  0
  2  8  1  0  0  0  0
  3 11  2  0  0  0  0
  3  6  1  0  0  0  0
  5  6  2  0  0  0  0
  5 13  1  0  0  0  0
  6  2  1  0  0  0  0
  7  1  2  0  0  0  0
  7 11  1  0  0  0  0
  9  4  1  0  0  0  0
  9 10  2  0  0  0  0
 11  9  1  0  0  0  0
 12 19  1  0  0  0  0
 12  4  2  0  0  0  0
 13  8  2  0  0  0  0
 14 18  2  0  0  0  0
 14 15  1  0  0  0  0
 15 16  1  0  0  0  0
 16  7  1  0  0  0  0
 17 16  2  0  0  0  0
 18 17  1  0  0  0  0
 19 20  1  0  0  0  0
 20 21  1  0  0  0  0
 22 21  2  0  0  0  0
 22 25  1  0  0  0  0
 24 25  1  0  0  0  0
 25 23  1  0  0  0  0
M  END
>  <MODEL>
5

>  <REMARK>
 VINA RESULT:      -8.1      4.063      6.986
  Name = 
  5 active torsions:
  status: ('A' for Active; 'I' for Inactive)
    1  A    between atoms: C_3  and  C_13
    2  A    between atoms: C_10  and  C_23
    3  A    between atoms: C_11  and  C_18
    4  A    between atoms: C_13  and  O_22
    5  A    between atoms: O_22  and  C_24
                            x       y       z     vdW  Elec       q    Type
                         _______ _______ _______ _____ _____    ______ ____

>  <TORSDO>
F 5

$$$$
=
 OpenBabel11042420133D

 25 28  0  0  0  0  0  0  0  0999 V2000
  161.4980  207.4900  152.6860 C   0  0  0  0  0  3  0  0  0  0  0  0
  160.9460  203.3400  149.9980 N   0  0  0  0  0  0  0  0  0  0  0  0
  161.4100  205.6080  149.4600 C   0  0  0  0  0  3  0  0  0  0  0  0
  161.0290  205.1660  153.1380 C   0  0  0  0  0  3  0  0  0  0  0  0
  161.2060  203.6940  147.8470 C   0  0  0  0  0  3  0  0  0  0  0  0
  161.2010  204.2840  149.0920 C   0  0  0  0  0  0  0  0  0  0  0  0
  161.5460  207.2560  151.3030 C   0  0  0  0  0  0  0  0  0  0  0  0
  160.7930  202.1900  149.3750 N   0  0  0  0  0  0  0  0  0  0  0  0
  161.0770  204.8880  151.7740 C   0  0  0  0  0  0  0  0  0  0  0  0
  160.8750  203.5730  151.3290 C   0  0  0  0  0  3  0  0  0  0  0  0
  161.3410  205.9320  150.8310 C   0  0  0  0  0  0  0  0  0  0  0  0
  161.2400  206.4620  153.6020 C   0  0  0  0  0  0  0  0  0  0  0  0
  160.9450  202.3790  148.0690 N   0  0  0  0  0  0  0  0  0  0  0  0
  162.1770  210.1130  148.6350 C   0  0  0  0  0  3  0  0  0  0  0  0
  161.9570  208.4520  148.7440 S   0  0  0  0  0  0  0  0  0  0  0  0
  161.8160  208.4250  150.4230 C   0  0  0  0  0  0  0  0  0  0  0  0
  161.9330  209.7420  150.8610 C   0  0  0  0  0  3  0  0  0  0  0  0
  162.1360  210.6570  149.8730 N   0  0  0  0  0  0  0  0  0  0  0  0
  161.1900  206.7030  154.9780 O   0  0  0  0  0  0  0  0  0  0  0  0
  160.0790  207.3280  155.6080 C   0  0  0  0  0  2  0  0  0  0  0  0
  160.4180  208.7380  155.9550 C   0  0  0  0  0  3  0  0  0  0  0  0
  161.6850  209.1040  156.1340 C   0  0  0  0  0  3  0  0  0  0  0  0
  163.3820  210.7360  156.2380 O   0  0  0  0  0  1  0  0  0  0  0  0
  161.2680  211.3920  155.7070 O   0  0  0  0  0  1  0  0  0  0  0  0
  162.0270  210.5150  156.4820 C   0  0  0  0  0  3  0  0  0  0  0  0
  1 12  1  0  0  0  0
  2 10  1  0  0  0  0
  3 11  2  0  0  0  0
  4 12  2  0  0  0  0
  5 13  1  0  0  0  0
  5  6  2  0  0  0  0
  6  3  1  0  0  0  0
  6  2  1  0  0  0  0
  7  1  2  0  0  0  0
  8  2  1  0  0  0  0
  9  4  1  0  0  0  0
 10  9  2  0  0  0  0
 11  7  1  0  0  0  0
 11  9  1  0  0  0  0
 12 19  1  0  0  0  0
 13  8  2  0  0  0  0
 14 15  1  0  0  0  0
 14 18  2  0  0  0  0
 15 16  1  0  0  0  0
 16 17  2  0  0  0  0
 16  7  1  0  0  0  0
 18 17  1  0  0  0  0
 19 20  1  0  0  0  0
 20 21  1  0  0  0  0
 21 22  2  0  0  0  0
 22 25  1  0  0  0  0
 23 25  1  0  0  0  0
 24 25  1  0  0  0  0
M  END
>  <MODEL>
6

>  <REMARK>
 VINA RESULT:      -8.1      4.298      7.644
  Name = 
  5 active torsions:
  status: ('A' for Active; 'I' for Inactive)
    1  A    between atoms: C_3  and  C_13
    2  A    between atoms: C_10  and  C_23
    3  A    between atoms: C_11  and  C_18
    4  A    between atoms: C_13  and  O_22
    5  A    between atoms: O_22  and  C_24
                            x       y       z     vdW  Elec       q    Type
                         _______ _______ _______ _____ _____    ______ ____

>  <TORSDO>
F 5

$$$$
=
 OpenBabel11042420133D

 25 28  0  0  0  0  0  0  0  0999 V2000
  161.6920  208.0350  148.2650 C   0  0  0  0  0  3  0  0  0  0  0  0
  161.0950  204.3850  151.5930 N   0  0  0  0  0  0  0  0  0  0  0  0
  161.1670  204.4610  149.2190 C   0  0  0  0  0  3  0  0  0  0  0  0
  161.6040  207.8620  150.6720 C   0  0  0  0  0  3  0  0  0  0  0  0
  160.8640  202.4180  150.6460 C   0  0  0  0  0  3  0  0  0  0  0  0
  161.0450  203.7640  150.4150 C   0  0  0  0  0  0  0  0  0  0  0  0
  161.4830  206.6550  148.1150 C   0  0  0  0  0  0  0  0  0  0  0  0
  160.9540  203.4890  152.5480 N   0  0  0  0  0  0  0  0  0  0  0  0
  161.4030  206.4880  150.5680 C   0  0  0  0  0  0  0  0  0  0  0  0
  161.2710  205.7190  151.7340 C   0  0  0  0  0  3  0  0  0  0  0  0
  161.3430  205.8590  149.2840 C   0  0  0  0  0  0  0  0  0  0  0  0
  161.7510  208.6420  149.5260 C   0  0  0  0  0  0  0  0  0  0  0  0
  160.8120  202.2870  151.9980 N   0  0  0  0  0  0  0  0  0  0  0  0
  161.6840  205.0200  144.5150 C   0  0  0  0  0  3  0  0  0  0  0  0
  162.5950  205.2240  145.9110 S   0  0  0  0  0  0  0  0  0  0  0  0
  161.4260  206.1210  146.7280 C   0  0  0  0  0  0  0  0  0  0  0  0
  160.3290  206.2280  145.8770 C   0  0  0  0  0  3  0  0  0  0  0  0
  160.4840  205.6250  144.6650 N   0  0  0  0  0  0  0  0  0  0  0  0
  161.9560  210.0170  149.6680 O   0  0  0  0  0  0  0  0  0  0  0  0
  162.4760  210.8280  148.6210 C   0  0  0  0  0  2  0  0  0  0  0  0
  161.8090  212.1620  148.6330 C   0  0  0  0  0  3  0  0  0  0  0  0
  160.9610  212.5030  147.6650 C   0  0  0  0  0  3  0  0  0  0  0  0
  160.2810  214.3590  146.3820 O   0  0  0  0  0  1  0  0  0  0  0  0
  158.9810  213.7080  148.1340 O   0  0  0  0  0  1  0  0  0  0  0  0
  160.2930  213.8370  147.6750 C   0  0  0  0  0  3  0  0  0  0  0  0
  1 12  1  0  0  0  0
  2 10  1  0  0  0  0
  2  8  1  0  0  0  0
  3 11  2  0  0  0  0
  3  6  1  0  0  0  0
  5 13  1  0  0  0  0
  6  5  2  0  0  0  0
  6  2  1  0  0  0  0
  7  1  2  0  0  0  0
  7 11  1  0  0  0  0
  9  4  1  0  0  0  0
  9 10  2  0  0  0  0
 11  9  1  0  0  0  0
 12 19  1  0  0  0  0
 12  4  2  0  0  0  0
 13  8  2  0  0  0  0
 14 18  2  0  0  0  0
 14 15  1  0  0  0  0
 15 16  1  0  0  0  0
 16  7  1  0  0  0  0
 17 16  2  0  0  0  0
 18 17  1  0  0  0  0
 20 21  1  0  0  0  0
 20 19  1  0  0  0  0
 22 25  1  0  0  0  0
 22 21  2  0  0  0  0
 23 25  1  0  0  0  0
 25 24  1  0  0  0  0
M  END
>  <MODEL>
7

>  <REMARK>
 VINA RESULT:      -8.0      4.425      7.124
  Name = 
  5 active torsions:
  status: ('A' for Active; 'I' for Inactive)
    1  A    between atoms: C_3  and  C_13
    2  A    between atoms: C_10  and  C_23
    3  A    between atoms: C_11  and  C_18
    4  A    between atoms: C_13  and  O_22
    5  A    between atoms: O_22  and  C_24
                            x       y       z     vdW  Elec       q    Type
                         _______ _______ _______ _____ _____    ______ ____

>  <TORSDO>
F 5

$$$$
=
 OpenBabel11042420133D

 25 28  0  0  0  0  0  0  0  0999 V2000
  161.7800  208.1530  148.2270 C   0  0  0  0  0  3  0  0  0  0  0  0
  161.0950  204.5570  151.5960 N   0  0  0  0  0  0  0  0  0  0  0  0
  161.2050  204.5980  149.2230 C   0  0  0  0  0  3  0  0  0  0  0  0
  161.6530  208.0150  150.6340 C   0  0  0  0  0  3  0  0  0  0  0  0
  160.8590  202.5790  150.6740 C   0  0  0  0  0  3  0  0  0  0  0  0
  161.0570  203.9190  150.4260 C   0  0  0  0  0  0  0  0  0  0  0  0
  161.5590  206.7730  148.0940 C   0  0  0  0  0  0  0  0  0  0  0  0
  160.9310  203.6750  152.5620 N   0  0  0  0  0  0  0  0  0  0  0  0
  161.4400  206.6410  150.5470 C   0  0  0  0  0  0  0  0  0  0  0  0
  161.2830  205.8910  151.7210 C   0  0  0  0  0  3  0  0  0  0  0  0
  161.3940  205.9950  149.2710 C   0  0  0  0  0  0  0  0  0  0  0  0
  161.8250  208.7770  149.4810 C   0  0  0  0  0  0  0  0  0  0  0  0
  160.7840  202.4680  152.0260 N   0  0  0  0  0  0  0  0  0  0  0  0
  161.7890  205.0720  144.5260 C   0  0  0  0  0  3  0  0  0  0  0  0
  162.6660  205.2540  145.9460 S   0  0  0  0  0  0  0  0  0  0  0  0
  161.5180  206.2210  146.7130 C   0  0  0  0  0  0  0  0  0  0  0  0
  160.4540  206.3660  145.8270 C   0  0  0  0  0  3  0  0  0  0  0  0
  160.6160  205.7380  144.6300 N   0  0  0  0  0  0  0  0  0  0  0  0
  162.0420  210.1520  149.6060 O   0  0  0  0  0  0  0  0  0  0  0  0
  162.4520  210.9680  148.5160 C   0  0  0  0  0  2  0  0  0  0  0  0
  161.6300  212.2120  148.4740 C   0  0  0  0  0  3  0  0  0  0  0  0
  160.9280  212.5940  149.5390 C   0  0  0  0  0  3  0  0  0  0  0  0
  158.7940  213.5160  149.1530 O   0  0  0  0  0  1  0  0  0  0  0  0
  160.1140  214.4530  150.7520 O   0  0  0  0  0  1  0  0  0  0  0  0
  160.1050  213.8390  149.5000 C   0  0  0  0  0  3  0  0  0  0  0  0
  1 12  1  0  0  0  0
  2 10  1  0  0  0  0
  2  8  1  0  0  0  0
  3 11  2  0  0  0  0
  3  6  1  0  0  0  0
  5 13  1  0  0  0  0
  6  5  2  0  0  0  0
  6  2  1  0  0  0  0
  7  1  2  0  0  0  0
  7 11  1  0  0  0  0
  9  4  1  0  0  0  0
  9 10  2  0  0  0  0
 11  9  1  0  0  0  0
 12 19  1  0  0  0  0
 12  4  2  0  0  0  0
 13  8  2  0  0  0  0
 14 18  2  0  0  0  0
 14 15  1  0  0  0  0
 15 16  1  0  0  0  0
 16  7  1  0  0  0  0
 17 16  2  0  0  0  0
 18 17  1  0  0  0  0
 20 19  1  0  0  0  0
 21 20  1  0  0  0  0
 21 22  2  0  0  0  0
 23 25  1  0  0  0  0
 25 22  1  0  0  0  0
 25 24  1  0  0  0  0
M  END
>  <MODEL>
8

>  <REMARK>
 VINA RESULT:      -7.9      4.262      7.233
  Name = 
  5 active torsions:
  status: ('A' for Active; 'I' for Inactive)
    1  A    between atoms: C_3  and  C_13
    2  A    between atoms: C_10  and  C_23
    3  A    between atoms: C_11  and  C_18
    4  A    between atoms: C_13  and  O_22
    5  A    between atoms: O_22  and  C_24
                            x       y       z     vdW  Elec       q    Type
                         _______ _______ _______ _____ _____    ______ ____

>  <TORSDO>
F 5

$$$$
=
 OpenBabel11042420133D

 25 28  0  0  0  0  0  0  0  0999 V2000
  161.9050  207.6550  148.5900 C   0  0  0  0  0  3  0  0  0  0  0  0
  161.0530  203.4990  151.1900 N   0  0  0  0  0  0  0  0  0  0  0  0
  161.1130  204.0140  148.8710 C   0  0  0  0  0  3  0  0  0  0  0  0
  161.8220  207.0400  150.9230 C   0  0  0  0  0  3  0  0  0  0  0  0
  160.6630  201.7680  149.8980 C   0  0  0  0  0  3  0  0  0  0  0  0
  160.9460  203.1160  149.9170 C   0  0  0  0  0  0  0  0  0  0  0  0
  161.5890  206.3470  148.1900 C   0  0  0  0  0  0  0  0  0  0  0  0
  160.8500  202.4520  151.9630 N   0  0  0  0  0  0  0  0  0  0  0  0
  161.5150  205.7280  150.5690 C   0  0  0  0  0  0  0  0  0  0  0  0
  161.3330  204.7660  151.5730 C   0  0  0  0  0  3  0  0  0  0  0  0
  161.3970  205.3580  149.1920 C   0  0  0  0  0  0  0  0  0  0  0  0
  162.0210  208.0070  149.9410 C   0  0  0  0  0  0  0  0  0  0  0  0
  160.6110  201.3890  151.2020 N   0  0  0  0  0  0  0  0  0  0  0  0
  161.6610  205.4440  144.3360 C   0  0  0  0  0  3  0  0  0  0  0  0
  162.6290  205.4010  145.7060 S   0  0  0  0  0  0  0  0  0  0  0  0
  161.4800  206.0890  146.7280 C   0  0  0  0  0  0  0  0  0  0  0  0
  160.3430  206.3260  145.9590 C   0  0  0  0  0  3  0  0  0  0  0  0
  160.4560  205.9730  144.6490 N   0  0  0  0  0  0  0  0  0  0  0  0
  162.3330  209.3120  150.3330 O   0  0  0  0  0  0  0  0  0  0  0  0
  161.5740  210.4410  149.9170 C   0  0  0  0  0  2  0  0  0  0  0  0
  162.3650  211.2580  148.9520 C   0  0  0  0  0  3  0  0  0  0  0  0
  161.7670  212.1730  148.1920 C   0  0  0  0  0  3  0  0  0  0  0  0
  161.7430  213.3570  146.1540 O   0  0  0  0  0  1  0  0  0  0  0  0
  163.0350  214.1400  147.8550 O   0  0  0  0  0  1  0  0  0  0  0  0
  162.5570  212.9910  147.2250 C   0  0  0  0  0  3  0  0  0  0  0  0
  1 12  1  0  0  0  0
  2 10  1  0  0  0  0
  2  8  1  0  0  0  0
  3 11  2  0  0  0  0
  3  6  1  0  0  0  0
  5  6  2  0  0  0  0
  5 13  1  0  0  0  0
  6  2  1  0  0  0  0
  7  1  2  0  0  0  0
  7 11  1  0  0  0  0
  9  4  1  0  0  0  0
  9 10  2  0  0  0  0
 11  9  1  0  0  0  0
 12 19  1  0  0  0  0
 12  4  2  0  0  0  0
 13  8  2  0  0  0  0
 14 18  2  0  0  0  0
 14 15  1  0  0  0  0
 15 16  1  0  0  0  0
 16  7  1  0  0  0  0
 17 16  2  0  0  0  0
 18 17  1  0  0  0  0
 20 19  1  0  0  0  0
 21 20  1  0  0  0  0
 22 21  2  0  0  0  0
 23 25  1  0  0  0  0
 25 24  1  0  0  0  0
 25 22  1  0  0  0  0
M  END
>  <MODEL>
9

>  <REMARK>
 VINA RESULT:      -7.7      4.406      7.017
  Name = 
  5 active torsions:
  status: ('A' for Active; 'I' for Inactive)
    1  A    between atoms: C_3  and  C_13
    2  A    between atoms: C_10  and  C_23
    3  A    between atoms: C_11  and  C_18
    4  A    between atoms: C_13  and  O_22
    5  A    between atoms: O_22  and  C_24
                            x       y       z     vdW  Elec       q    Type
                         _______ _______ _______ _____ _____    ______ ____

>  <TORSDO>
F 5

$$$$
