=
 OpenBabel11052411353D

 46 48  0  0  1  0  0  0  0  0999 V2000
  160.9130  208.8270  151.6730 C   0  0  1  0  0  3  0  0  0  0  0  0
  160.8220  210.5170  153.7440 C   0  0  0  0  0  0  0  0  0  0  0  0
  160.8420  209.7490  152.8140 C   0  0  0  0  0  0  0  0  0  0  0  0
  160.8420  211.4610  154.8670 C   0  0  0  0  0  2  0  0  0  0  0  0
  158.0480  213.5130  151.8570 C   0  0  0  0  0  0  0  0  0  0  0  0
  156.8500  213.6910  152.3590 N   0  0  0  0  0  0  0  0  0  0  0  0
  159.5280  212.0640  155.0630 N   0  0  0  0  0  0  0  0  0  0  0  0
  158.8110  212.7080  154.1210 C   0  0  0  0  0  0  0  0  0  0  0  0
  158.6860  211.8840  156.1100 C   0  0  0  0  0  0  0  0  0  0  0  0
  157.5490  212.9470  154.5730 C   0  0  0  0  0  0  0  0  0  0  0  0
  158.2490  213.8330  150.4730 N   0  0  0  0  0  2  0  0  0  0  0  0
  156.5260  213.4150  153.7050 N   0  0  0  0  0  2  0  0  0  0  0  0
  157.4380  212.4330  155.8420 C   0  0  0  0  0  0  0  0  0  0  0  0
  160.5410  213.3490  150.2960 O   0  0  0  0  0  0  0  0  0  0  0  0
  159.4790  213.7450  149.7420 C   0  0  0  0  0  0  0  0  0  0  0  0
  159.2070  212.9740  152.7020 C   0  0  0  0  0  2  0  0  0  0  0  0
  158.9980  211.1060  157.2610 N   0  0  0  0  0  1  0  0  0  0  0  0
  156.2020  212.3220  156.6660 C   0  0  0  0  0  1  0  0  0  0  0  0
  158.1950  213.6990  147.6450 C   0  0  0  0  0  1  0  0  0  0  0  0
  159.4980  214.1580  148.2980 C   0  0  2  0  0  3  0  0  0  0  0  0
  160.3190  212.3170  147.0260 C   0  0  0  0  0  1  0  0  0  0  0  0
  160.9830  214.4530  146.4630 C   0  0  0  0  0  1  0  0  0  0  0  0
  160.6760  213.6050  147.6060 N   0  0  0  0  0  0  0  0  0  0  0  0
  162.3430  208.7930  151.1440 C   0  0  0  0  0  2  0  0  0  0  0  0
  162.5210  207.7270  150.0710 C   0  0  0  0  0  2  0  0  0  0  0  0
  162.5360  208.3340  148.7440 N   0  0  0  0  0  0  0  0  0  0  0  0
  161.9720  209.5640  148.8390 O   0  0  0  0  0  1  0  0  0  0  0  0
  160.5690  206.8110  148.5410 C   0  0  0  0  0  1  0  0  0  0  0  0
  161.7270  207.5190  147.8360 C   0  0  0  0  0  2  0  0  0  0  0  0
  160.4770  207.4290  152.1020 C   0  0  0  0  0  2  0  0  0  0  0  0
  161.2810  206.9470  153.2710 C   0  0  0  0  0  3  0  0  0  0  0  0
  162.0440  205.8620  153.2110 C   0  0  0  0  0  3  0  0  0  0  0  0
  162.1070  205.0570  152.0320 N   0  0  0  0  0  2  0  0  0  0  0  0
  161.2280  203.9450  151.8290 C   0  0  0  0  0  0  0  0  0  0  0  0
  160.4840  203.5390  152.7670 O   0  0  0  0  0  0  0  0  0  0  0  0
  161.1900  203.2730  150.5250 C   0  0  0  0  0  0  0  0  0  0  0  0
  161.1680  201.7450  149.0570 C   0  0  1  0  0  3  0  0  0  0  0  0
  161.2130  200.4050  148.4060 C   0  0  0  0  0  1  0  0  0  0  0  0
  161.1660  201.9280  150.3880 N   0  0  0  0  0  0  0  0  0  0  0  0
  161.2070  203.9420  149.3490 N   0  0  0  0  0  0  0  0  0  0  0  0
  161.1850  202.9710  148.4250 C   0  0  0  0  0  0  0  0  0  0  0  0
  161.2370  203.2400  146.9500 C   0  0  0  0  0  2  0  0  0  0  0  0
  162.3820  204.1390  146.5870 C   0  0  0  0  0  3  0  0  0  0  0  0
  162.4050  204.9190  145.4950 C   0  0  0  0  0  3  0  0  0  0  0  0
  161.2740  204.9820  144.5170 C   0  0  0  0  0  2  0  0  0  0  0  0
  160.3010  206.0700  144.9330 C   0  0  0  0  0  1  0  0  0  0  0  0
  1 24  1  1  0  0  0
  1 30  1  0  0  0  0
  1  3  1  0  0  0  0
  2  4  1  0  0  0  0
  3  2  3  0  0  0  0
  4  7  1  0  0  0  0
  5  6  2  0  0  0  0
  5 16  1  0  0  0  0
  6 12  1  0  0  0  0
  7  9  1  0  0  0  0
  8 10  2  0  0  0  0
  8  7  1  0  0  0  0
  9 17  1  0  0  0  0
 10 13  1  0  0  0  0
 11  5  1  0  0  0  0
 12 10  1  0  0  0  0
 13  9  2  0  0  0  0
 13 18  1  0  0  0  0
 15 14  2  0  0  0  0
 15 11  1  0  0  0  0
 16  8  1  0  0  0  0
 20 19  1  6  0  0  0
 20 15  1  0  0  0  0
 21 23  1  0  0  0  0
 22 23  1  0  0  0  0
 23 20  1  0  0  0  0
 25 24  1  0  0  0  0
 26 27  1  0  0  0  0
 26 25  1  0  0  0  0
 29 28  1  0  0  0  0
 29 26  1  0  0  0  0
 30 31  1  0  0  0  0
 32 31  2  0  0  0  0
 33 32  1  0  0  0  0
 34 33  1  0  0  0  0
 34 35  2  0  0  0  0
 36 34  1  0  0  0  0
 37 38  1  1  0  0  0
 37 39  1  0  0  0  0
 39 36  2  0  0  0  0
 40 36  1  0  0  0  0
 41 37  1  0  0  0  0
 41 40  2  0  0  0  0
 42 41  1  0  0  0  0
 43 42  1  0  0  0  0
 44 43  2  0  0  0  0
 45 46  1  0  0  0  0
 45 44  1  0  0  0  0
M  END
>  <MODEL>
1

>  <REMARK>
 VINA RESULT:      -7.6      0.000      0.000
  Name = 
  16 active torsions:
  status: ('A' for Active; 'I' for Inactive)
    1  A    between atoms: N_2  and  C_28
    2  A    between atoms: N_2  and  C_45
    3  A    between atoms: C_3  and  C_19
    4  A    between atoms: C_4  and  C_27
    5  A    between atoms: C_5  and  C_25
    6  A    between atoms: N_9  and  C_14
    7  A    between atoms: N_12  and  C_46
    8  A    between atoms: C_13  and  C_15
    9  A    between atoms: C_17  and  C_46
   10  A    between atoms: C_18  and  C_20
   11  A    between atoms: C_18  and  C_28
   12  A    between atoms: C_19  and  C_20
   13  A    between atoms: C_20  and  C_41
   14  A    between atoms: C_21  and  N_34
   15  A    between atoms: C_21  and  C_38
   16  A    between atoms: C_27  and  C_32
                            x       y       z     vdW  Elec       q    Type
                         _______ _______ _______ _____ _____    ______ ____

>  <TORSDO>
F 16

$$$$
=
 OpenBabel11052411353D

 46 48  0  0  1  0  0  0  0  0999 V2000
  161.9330  209.0860  150.9880 C   0  0  1  0  0  3  0  0  0  0  0  0
  161.7890  211.4320  149.7100 C   0  0  0  0  0  0  0  0  0  0  0  0
  161.8500  210.3840  150.3060 C   0  0  0  0  0  0  0  0  0  0  0  0
  161.7250  212.6830  148.9470 C   0  0  0  0  0  2  0  0  0  0  0  0
  158.8560  212.8820  145.3680 C   0  0  0  0  0  0  0  0  0  0  0  0
  157.6300  213.1430  145.7510 N   0  0  0  0  0  0  0  0  0  0  0  0
  160.3530  213.1730  148.8670 N   0  0  0  0  0  0  0  0  0  0  0  0
  159.6110  213.2530  147.7450 C   0  0  0  0  0  0  0  0  0  0  0  0
  159.4950  213.3940  149.8940 C   0  0  0  0  0  0  0  0  0  0  0  0
  158.3170  213.5390  148.0560 C   0  0  0  0  0  0  0  0  0  0  0  0
  159.0750  212.5700  143.9850 N   0  0  0  0  0  2  0  0  0  0  0  0
  157.2850  213.4650  147.0810 N   0  0  0  0  0  2  0  0  0  0  0  0
  158.2100  213.6360  149.4210 C   0  0  0  0  0  0  0  0  0  0  0  0
  161.4080  212.2930  144.0180 O   0  0  0  0  0  0  0  0  0  0  0  0
  160.3330  212.2910  143.3570 C   0  0  0  0  0  0  0  0  0  0  0  0
  160.0310  212.8970  146.3520 C   0  0  0  0  0  2  0  0  0  0  0  0
  159.8380  213.2470  151.2670 N   0  0  0  0  0  1  0  0  0  0  0  0
  156.9620  213.7790  150.2220 C   0  0  0  0  0  1  0  0  0  0  0  0
  161.8170  211.7940  141.4600 C   0  0  0  0  0  1  0  0  0  0  0  0
  160.3650  212.0160  141.8800 C   0  0  2  0  0  3  0  0  0  0  0  0
  160.6900  213.5980  140.1270 C   0  0  0  0  0  1  0  0  0  0  0  0
  158.6310  212.5830  140.3530 C   0  0  0  0  0  1  0  0  0  0  0  0
  159.7440  213.1190  141.1260 N   0  0  0  0  0  0  0  0  0  0  0  0
  160.7590  208.9520  151.9530 C   0  0  0  0  0  2  0  0  0  0  0  0
  161.1010  208.0480  153.1310 C   0  0  0  0  0  2  0  0  0  0  0  0
  160.7330  208.6880  154.3900 N   0  0  0  0  0  0  0  0  0  0  0  0
  161.4120  209.8590  154.4810 O   0  0  0  0  0  1  0  0  0  0  0  0
  159.9470  207.2680  156.2850 C   0  0  0  0  0  1  0  0  0  0  0  0
  161.1370  207.8270  155.5020 C   0  0  0  0  0  2  0  0  0  0  0  0
  161.9050  207.9540  149.9640 C   0  0  0  0  0  2  0  0  0  0  0  0
  162.3720  208.4290  148.6220 C   0  0  0  0  0  2  0  0  0  0  0  0
  162.2990  207.6700  147.5340 C   0  0  0  0  0  3  0  0  0  0  0  0
  161.8080  206.3300  147.5890 N   0  0  0  0  0  0  0  0  0  0  0  0
  161.8880  205.4500  146.4630 C   0  0  0  0  0  0  0  0  0  0  0  0
  162.2410  205.8900  145.3320 O   0  0  0  0  0  0  0  0  0  0  0  0
  161.5580  204.0280  146.6230 C   0  0  0  0  0  0  0  0  0  0  0  0
  160.9260  202.0550  146.1810 C   0  0  1  0  0  3  0  0  0  0  0  0
  160.3850  200.8690  145.4580 C   0  0  0  0  0  1  0  0  0  0  0  0
  161.1410  203.2480  145.6010 N   0  0  0  0  0  0  0  0  0  0  0  0
  161.6160  203.3870  147.8130 N   0  0  0  0  0  0  0  0  0  0  0  0
  161.2220  202.1380  147.5260 C   0  0  0  0  0  0  0  0  0  0  0  0
  161.0860  201.0610  148.5620 C   0  0  0  0  0  2  0  0  0  0  0  0
  159.9700  201.3500  149.5220 C   0  0  0  0  0  3  0  0  0  0  0  0
  160.1380  201.9650  150.7020 C   0  0  0  0  0  3  0  0  0  0  0  0
  161.4710  202.4420  151.1880 C   0  0  0  0  0  2  0  0  0  0  0  0
  161.4190  203.9390  151.4280 C   0  0  0  0  0  1  0  0  0  0  0  0
  1 30  1  6  0  0  0
  1 24  1  0  0  0  0
  2  3  3  0  0  0  0
  3  1  1  0  0  0  0
  4  2  1  0  0  0  0
  5  6  2  0  0  0  0
  5 16  1  0  0  0  0
  6 12  1  0  0  0  0
  7  4  1  0  0  0  0
  7  9  1  0  0  0  0
  8 10  2  0  0  0  0
  8  7  1  0  0  0  0
  9 17  1  0  0  0  0
 10 13  1  0  0  0  0
 11  5  1  0  0  0  0
 12 10  1  0  0  0  0
 13  9  2  0  0  0  0
 13 18  1  0  0  0  0
 15 11  1  0  0  0  0
 15 14  2  0  0  0  0
 16  8  1  0  0  0  0
 20 19  1  6  0  0  0
 20 15  1  0  0  0  0
 21 23  1  0  0  0  0
 22 23  1  0  0  0  0
 23 20  1  0  0  0  0
 24 25  1  0  0  0  0
 25 26  1  0  0  0  0
 26 27  1  0  0  0  0
 26 29  1  0  0  0  0
 29 28  1  0  0  0  0
 31 30  1  0  0  0  0
 32 33  2  0  0  0  0
 32 31  1  0  0  0  0
 34 36  1  0  0  0  0
 34 33  1  0  0  0  0
 35 34  2  0  0  0  0
 36 40  1  0  0  0  0
 37 38  1  1  0  0  0
 37 41  1  0  0  0  0
 39 37  1  0  0  0  0
 39 36  2  0  0  0  0
 41 40  2  0  0  0  0
 41 42  1  0  0  0  0
 42 43  1  0  0  0  0
 43 44  2  0  0  0  0
 44 45  1  0  0  0  0
 45 46  1  0  0  0  0
M  END
>  <MODEL>
2

>  <REMARK>
 VINA RESULT:      -7.5      3.120      5.752
  Name = 
  16 active torsions:
  status: ('A' for Active; 'I' for Inactive)
    1  A    between atoms: N_2  and  C_28
    2  A    between atoms: N_2  and  C_45
    3  A    between atoms: C_3  and  C_19
    4  A    between atoms: C_4  and  C_27
    5  A    between atoms: C_5  and  C_25
    6  A    between atoms: N_9  and  C_14
    7  A    between atoms: N_12  and  C_46
    8  A    between atoms: C_13  and  C_15
    9  A    between atoms: C_17  and  C_46
   10  A    between atoms: C_18  and  C_20
   11  A    between atoms: C_18  and  C_28
   12  A    between atoms: C_19  and  C_20
   13  A    between atoms: C_20  and  C_41
   14  A    between atoms: C_21  and  N_34
   15  A    between atoms: C_21  and  C_38
   16  A    between atoms: C_27  and  C_32
                            x       y       z     vdW  Elec       q    Type
                         _______ _______ _______ _____ _____    ______ ____

>  <TORSDO>
F 16

$$$$
=
 OpenBabel11052411353D

 46 48  0  0  1  0  0  0  0  0999 V2000
  161.9720  209.8960  151.3590 C   0  0  1  0  0  3  0  0  0  0  0  0
  161.9660  211.5100  149.2250 C   0  0  0  0  0  0  0  0  0  0  0  0
  161.9500  210.7720  150.1800 C   0  0  0  0  0  0  0  0  0  0  0  0
  162.0240  212.4270  148.0820 C   0  0  0  0  0  2  0  0  0  0  0  0
  159.5150  213.1040  144.2970 C   0  0  0  0  0  0  0  0  0  0  0  0
  158.3150  213.5440  144.5900 N   0  0  0  0  0  0  0  0  0  0  0  0
  160.7520  213.1220  147.9080 N   0  0  0  0  0  0  0  0  0  0  0  0
  160.1240  213.3270  146.7340 C   0  0  0  0  0  0  0  0  0  0  0  0
  159.8580  213.4590  148.8700 C   0  0  0  0  0  0  0  0  0  0  0  0
  158.8670  213.8030  146.9500 C   0  0  0  0  0  0  0  0  0  0  0  0
  159.7950  212.7790  142.9280 N   0  0  0  0  0  2  0  0  0  0  0  0
  157.9170  213.8980  145.8970 N   0  0  0  0  0  2  0  0  0  0  0  0
  158.6670  213.8990  148.3050 C   0  0  0  0  0  0  0  0  0  0  0  0
  162.0490  212.1500  143.1360 O   0  0  0  0  0  0  0  0  0  0  0  0
  161.0430  212.3190  142.3930 C   0  0  0  0  0  0  0  0  0  0  0  0
  160.5960  212.9280  145.3700 C   0  0  0  0  0  2  0  0  0  0  0  0
  160.0640  213.2440  150.2620 N   0  0  0  0  0  1  0  0  0  0  0  0
  157.3940  214.2210  149.0100 C   0  0  0  0  0  1  0  0  0  0  0  0
  159.8500  211.4130  140.4430 C   0  0  0  0  0  1  0  0  0  0  0  0
  161.1510  212.0610  140.9170 C   0  0  2  0  0  3  0  0  0  0  0  0
  161.8570  209.9490  140.0670 C   0  0  0  0  0  1  0  0  0  0  0  0
  163.0680  211.8360  139.5280 C   0  0  0  0  0  1  0  0  0  0  0  0
  162.3200  211.2180  140.6130 N   0  0  0  0  0  0  0  0  0  0  0  0
  161.1270  210.5230  152.4640 C   0  0  0  0  0  2  0  0  0  0  0  0
  161.9100  210.6580  153.7630 C   0  0  0  0  0  2  0  0  0  0  0  0
  161.0500  210.3850  154.9100 N   0  0  0  0  0  0  0  0  0  0  0  0
  159.8410  209.9890  154.4430 O   0  0  0  0  0  1  0  0  0  0  0  0
  159.4410  211.8010  156.1870 C   0  0  0  0  0  1  0  0  0  0  0  0
  160.8730  211.6170  155.6790 C   0  0  0  0  0  2  0  0  0  0  0  0
  161.4270  208.5180  150.9970 C   0  0  0  0  0  2  0  0  0  0  0  0
  161.0220  207.7570  152.2230 C   0  0  0  0  0  2  0  0  0  0  0  0
  160.9680  206.4300  152.2510 C   0  0  0  0  0  3  0  0  0  0  0  0
  161.2500  205.6460  151.0910 N   0  0  0  0  0  0  0  0  0  0  0  0
  160.9560  204.2450  151.0370 C   0  0  0  0  0  0  0  0  0  0  0  0
  160.5950  203.6270  152.0790 O   0  0  0  0  0  0  0  0  0  0  0  0
  161.0740  203.5240  149.7640 C   0  0  0  0  0  0  0  0  0  0  0  0
  161.1110  201.9470  148.3500 C   0  0  1  0  0  3  0  0  0  0  0  0
  161.0810  200.5840  147.7460 C   0  0  0  0  0  1  0  0  0  0  0  0
  160.8760  202.1920  149.6510 N   0  0  0  0  0  0  0  0  0  0  0  0
  161.4210  204.1270  148.6040 N   0  0  0  0  0  0  0  0  0  0  0  0
  161.4350  203.1260  147.7120 C   0  0  0  0  0  0  0  0  0  0  0  0
  161.8150  203.3140  146.2720 C   0  0  0  0  0  2  0  0  0  0  0  0
  162.7290  204.4890  146.0850 C   0  0  0  0  0  3  0  0  0  0  0  0
  162.4470  205.5380  145.2970 C   0  0  0  0  0  3  0  0  0  0  0  0
  161.1740  205.6520  144.5190 C   0  0  0  0  0  2  0  0  0  0  0  0
  160.1060  206.2970  145.3830 C   0  0  0  0  0  1  0  0  0  0  0  0
  1  3  1  6  0  0  0
  1 24  1  0  0  0  0
  2  3  3  0  0  0  0
  4  2  1  0  0  0  0
  5  6  2  0  0  0  0
  5 16  1  0  0  0  0
  6 12  1  0  0  0  0
  7  4  1  0  0  0  0
  7  9  1  0  0  0  0
  8 10  2  0  0  0  0
  8  7  1  0  0  0  0
  9 17  1  0  0  0  0
 10 13  1  0  0  0  0
 11  5  1  0  0  0  0
 12 10  1  0  0  0  0
 13  9  2  0  0  0  0
 13 18  1  0  0  0  0
 15 11  1  0  0  0  0
 15 14  2  0  0  0  0
 16  8  1  0  0  0  0
 20 19  1  1  0  0  0
 20 15  1  0  0  0  0
 21 23  1  0  0  0  0
 22 23  1  0  0  0  0
 23 20  1  0  0  0  0
 24 25  1  0  0  0  0
 25 26  1  0  0  0  0
 26 29  1  0  0  0  0
 27 26  1  0  0  0  0
 29 28  1  0  0  0  0
 30  1  1  0  0  0  0
 30 31  1  0  0  0  0
 31 32  1  0  0  0  0
 33 32  2  0  0  0  0
 34 33  1  0  0  0  0
 34 35  2  0  0  0  0
 36 34  1  0  0  0  0
 37 38  1  1  0  0  0
 37 39  1  0  0  0  0
 39 36  2  0  0  0  0
 40 36  1  0  0  0  0
 41 37  1  0  0  0  0
 41 40  2  0  0  0  0
 42 41  1  0  0  0  0
 43 42  1  0  0  0  0
 44 43  2  0  0  0  0
 45 44  1  0  0  0  0
 45 46  1  0  0  0  0
M  END
>  <MODEL>
3

>  <REMARK>
 VINA RESULT:      -7.2      3.085      5.687
  Name = 
  16 active torsions:
  status: ('A' for Active; 'I' for Inactive)
    1  A    between atoms: N_2  and  C_28
    2  A    between atoms: N_2  and  C_45
    3  A    between atoms: C_3  and  C_19
    4  A    between atoms: C_4  and  C_27
    5  A    between atoms: C_5  and  C_25
    6  A    between atoms: N_9  and  C_14
    7  A    between atoms: N_12  and  C_46
    8  A    between atoms: C_13  and  C_15
    9  A    between atoms: C_17  and  C_46
   10  A    between atoms: C_18  and  C_20
   11  A    between atoms: C_18  and  C_28
   12  A    between atoms: C_19  and  C_20
   13  A    between atoms: C_20  and  C_41
   14  A    between atoms: C_21  and  N_34
   15  A    between atoms: C_21  and  C_38
   16  A    between atoms: C_27  and  C_32
                            x       y       z     vdW  Elec       q    Type
                         _______ _______ _______ _____ _____    ______ ____

>  <TORSDO>
F 16

$$$$
=
 OpenBabel11052411353D

 46 48  0  0  1  0  0  0  0  0999 V2000
  161.9340  209.3410  149.4130 C   0  0  1  0  0  3  0  0  0  0  0  0
  161.9790  211.8900  148.6020 C   0  0  0  0  0  0  0  0  0  0  0  0
  161.9720  210.7350  148.9510 C   0  0  0  0  0  0  0  0  0  0  0  0
  161.9590  213.3050  148.2130 C   0  0  0  0  0  2  0  0  0  0  0  0
  159.7590  213.1750  144.1850 C   0  0  0  0  0  0  0  0  0  0  0  0
  158.4770  213.4030  144.3320 N   0  0  0  0  0  0  0  0  0  0  0  0
  160.6070  213.7290  147.8650 N   0  0  0  0  0  0  0  0  0  0  0  0
  160.0720  213.7130  146.6280 C   0  0  0  0  0  0  0  0  0  0  0  0
  159.5750  213.9710  148.7110 C   0  0  0  0  0  0  0  0  0  0  0  0
  158.7350  213.9590  146.6910 C   0  0  0  0  0  0  0  0  0  0  0  0
  160.2280  212.7940  142.8830 N   0  0  0  0  0  2  0  0  0  0  0  0
  157.8930  213.7840  145.5600 N   0  0  0  0  0  2  0  0  0  0  0  0
  158.3860  214.1290  148.0090 C   0  0  0  0  0  0  0  0  0  0  0  0
  162.5260  212.6220  143.3380 O   0  0  0  0  0  0  0  0  0  0  0  0
  161.5850  212.5350  142.5020 C   0  0  0  0  0  0  0  0  0  0  0  0
  160.7410  213.2970  145.3550 C   0  0  0  0  0  2  0  0  0  0  0  0
  159.6770  213.9170  150.1300 N   0  0  0  0  0  1  0  0  0  0  0  0
  157.0130  214.2630  148.5700 C   0  0  0  0  0  1  0  0  0  0  0  0
  161.0460  213.0770  140.1650 C   0  0  0  0  0  1  0  0  0  0  0  0
  161.8840  212.1790  141.0740 C   0  0  2  0  0  3  0  0  0  0  0  0
  160.5120  210.6370  139.8820 C   0  0  0  0  0  1  0  0  0  0  0  0
  162.7620  210.1880  140.1110 C   0  0  0  0  0  1  0  0  0  0  0  0
  161.6210  210.7520  140.8190 N   0  0  0  0  0  0  0  0  0  0  0  0
  162.6960  208.4650  148.4240 C   0  0  0  0  0  2  0  0  0  0  0  0
  162.1570  207.0400  148.4040 C   0  0  0  0  0  2  0  0  0  0  0  0
  160.9840  206.9500  147.5420 N   0  0  0  0  0  0  0  0  0  0  0  0
  159.9840  206.3720  148.2520 O   0  0  0  0  0  1  0  0  0  0  0  0
  160.2360  206.1640  145.2940 C   0  0  0  0  0  1  0  0  0  0  0  0
  161.2960  206.0950  146.3950 C   0  0  0  0  0  2  0  0  0  0  0  0
  162.5550  209.2330  150.8020 C   0  0  0  0  0  2  0  0  0  0  0  0
  161.5060  209.3050  151.8700 C   0  0  0  0  0  3  0  0  0  0  0  0
  160.7880  208.2490  152.2340 C   0  0  0  0  0  3  0  0  0  0  0  0
  160.9410  206.9830  151.5890 N   0  0  0  0  0  2  0  0  0  0  0  0
  161.0520  205.7650  152.3340 C   0  0  0  0  0  0  0  0  0  0  0  0
  161.1890  205.7950  153.5910 O   0  0  0  0  0  0  0  0  0  0  0  0
  161.0060  204.4750  151.6350 C   0  0  0  0  0  0  0  0  0  0  0  0
  161.2260  202.4090  151.2250 C   0  0  1  0  0  3  0  0  0  0  0  0
  161.5930  200.9700  151.3550 C   0  0  0  0  0  1  0  0  0  0  0  0
  161.4020  203.3150  152.2020 N   0  0  0  0  0  0  0  0  0  0  0  0
  160.5910  204.3450  150.3540 N   0  0  0  0  0  0  0  0  0  0  0  0
  160.7250  203.0350  150.1030 C   0  0  0  0  0  0  0  0  0  0  0  0
  160.4210  202.4190  148.7690 C   0  0  0  0  0  2  0  0  0  0  0  0
  161.3140  202.9570  147.6900 C   0  0  0  0  0  3  0  0  0  0  0  0
  161.3510  202.4730  146.4390 C   0  0  0  0  0  3  0  0  0  0  0  0
  160.4900  201.3380  145.9800 C   0  0  0  0  0  2  0  0  0  0  0  0
  159.8460  201.6930  144.6530 C   0  0  0  0  0  1  0  0  0  0  0  0
  1 24  1  6  0  0  0
  1 30  1  0  0  0  0
  2  3  3  0  0  0  0
  3  1  1  0  0  0  0
  4  2  1  0  0  0  0
  5  6  2  0  0  0  0
  5 16  1  0  0  0  0
  6 12  1  0  0  0  0
  7  4  1  0  0  0  0
  7  9  1  0  0  0  0
  8 10  2  0  0  0  0
  8  7  1  0  0  0  0
  9 17  1  0  0  0  0
 10 13  1  0  0  0  0
 11  5  1  0  0  0  0
 12 10  1  0  0  0  0
 13 18  1  0  0  0  0
 13  9  2  0  0  0  0
 15 11  1  0  0  0  0
 15 14  2  0  0  0  0
 16  8  1  0  0  0  0
 20 19  1  6  0  0  0
 20 15  1  0  0  0  0
 21 23  1  0  0  0  0
 22 23  1  0  0  0  0
 23 20  1  0  0  0  0
 25 24  1  0  0  0  0
 26 27  1  0  0  0  0
 26 25  1  0  0  0  0
 28 29  1  0  0  0  0
 29 26  1  0  0  0  0
 30 31  1  0  0  0  0
 31 32  2  0  0  0  0
 33 32  1  0  0  0  0
 33 34  1  0  0  0  0
 34 35  2  0  0  0  0
 36 39  2  0  0  0  0
 36 34  1  0  0  0  0
 37 38  1  6  0  0  0
 37 39  1  0  0  0  0
 40 36  1  0  0  0  0
 41 40  2  0  0  0  0
 41 37  1  0  0  0  0
 42 41  1  0  0  0  0
 43 42  1  0  0  0  0
 44 43  2  0  0  0  0
 45 44  1  0  0  0  0
 46 45  1  0  0  0  0
M  END
>  <MODEL>
4

>  <REMARK>
 VINA RESULT:      -7.1      3.252      5.567
  Name = 
  16 active torsions:
  status: ('A' for Active; 'I' for Inactive)
    1  A    between atoms: N_2  and  C_28
    2  A    between atoms: N_2  and  C_45
    3  A    between atoms: C_3  and  C_19
    4  A    between atoms: C_4  and  C_27
    5  A    between atoms: C_5  and  C_25
    6  A    between atoms: N_9  and  C_14
    7  A    between atoms: N_12  and  C_46
    8  A    between atoms: C_13  and  C_15
    9  A    between atoms: C_17  and  C_46
   10  A    between atoms: C_18  and  C_20
   11  A    between atoms: C_18  and  C_28
   12  A    between atoms: C_19  and  C_20
   13  A    between atoms: C_20  and  C_41
   14  A    between atoms: C_21  and  N_34
   15  A    between atoms: C_21  and  C_38
   16  A    between atoms: C_27  and  C_32
                            x       y       z     vdW  Elec       q    Type
                         _______ _______ _______ _____ _____    ______ ____

>  <TORSDO>
F 16

$$$$
=
 OpenBabel11052411353D

 46 48  0  0  1  0  0  0  0  0999 V2000
  161.6190  207.5370  152.6810 C   0  0  1  0  0  3  0  0  0  0  0  0
  161.9680  209.7260  151.1830 C   0  0  0  0  0  0  0  0  0  0  0  0
  161.8270  208.7280  151.8470 C   0  0  0  0  0  0  0  0  0  0  0  0
  162.1050  210.9580  150.3990 C   0  0  0  0  0  2  0  0  0  0  0  0
  159.4680  213.5600  147.6860 C   0  0  0  0  0  0  0  0  0  0  0  0
  158.4710  214.0880  148.3520 N   0  0  0  0  0  0  0  0  0  0  0  0
  161.0560  211.9120  150.7420 N   0  0  0  0  0  0  0  0  0  0  0  0
  160.3800  212.6840  149.8680 C   0  0  0  0  0  0  0  0  0  0  0  0
  160.3960  212.0250  151.9220 C   0  0  0  0  0  0  0  0  0  0  0  0
  159.3290  213.2870  150.4890 C   0  0  0  0  0  0  0  0  0  0  0  0
  159.4980  213.7440  146.2640 N   0  0  0  0  0  2  0  0  0  0  0  0
  158.3300  213.9790  149.7530 N   0  0  0  0  0  2  0  0  0  0  0  0
  159.3130  212.8860  151.8020 C   0  0  0  0  0  0  0  0  0  0  0  0
  161.5080  212.6320  145.7740 O   0  0  0  0  0  0  0  0  0  0  0  0
  160.5090  213.2810  145.3600 C   0  0  0  0  0  0  0  0  0  0  0  0
  160.5730  212.7600  148.3850 C   0  0  0  0  0  2  0  0  0  0  0  0
  160.6900  211.2470  153.0770 N   0  0  0  0  0  1  0  0  0  0  0  0
  158.2590  213.1640  152.8180 C   0  0  0  0  0  1  0  0  0  0  0  0
  158.9020  213.8260  143.5800 C   0  0  0  0  0  1  0  0  0  0  0  0
  160.3800  213.6020  143.8980 C   0  0  2  0  0  3  0  0  0  0  0  0
  160.0190  212.2000  142.0050 C   0  0  0  0  0  1  0  0  0  0  0  0
  162.1280  213.0550  142.3790 C   0  0  0  0  0  1  0  0  0  0  0  0
  160.9570  212.5300  143.0690 N   0  0  0  0  0  0  0  0  0  0  0  0
  160.5950  207.8570  153.7650 C   0  0  0  0  0  2  0  0  0  0  0  0
  161.1530  207.6000  155.1590 C   0  0  0  0  0  2  0  0  0  0  0  0
  160.7690  208.6730  156.0700 N   0  0  0  0  0  0  0  0  0  0  0  0
  159.7180  209.3320  155.5220 O   0  0  0  0  0  1  0  0  0  0  0  0
  161.4430  211.0050  156.6470 C   0  0  0  0  0  1  0  0  0  0  0  0
  161.8860  209.6090  156.2070 C   0  0  0  0  0  2  0  0  0  0  0  0
  161.1300  206.3750  151.8210 C   0  0  0  0  0  2  0  0  0  0  0  0
  160.9960  205.1210  152.6320 C   0  0  0  0  0  2  0  0  0  0  0  0
  161.0470  203.9120  152.0860 C   0  0  0  0  0  3  0  0  0  0  0  0
  161.1880  203.7340  150.6750 N   0  0  0  0  0  0  0  0  0  0  0  0
  161.0280  202.4530  150.0560 C   0  0  0  0  0  0  0  0  0  0  0  0
  160.9260  201.4100  150.7620 O   0  0  0  0  0  0  0  0  0  0  0  0
  160.9820  202.3510  148.5920 C   0  0  0  0  0  0  0  0  0  0  0  0
  160.7610  201.5470  146.6450 C   0  0  1  0  0  3  0  0  0  0  0  0
  160.5530  200.5860  145.5240 C   0  0  0  0  0  1  0  0  0  0  0  0
  160.6460  201.2150  147.9420 N   0  0  0  0  0  0  0  0  0  0  0  0
  161.3010  203.3780  147.7710 N   0  0  0  0  0  0  0  0  0  0  0  0
  161.1520  202.8650  146.5410 C   0  0  0  0  0  0  0  0  0  0  0  0
  161.4420  203.6380  145.2880 C   0  0  0  0  0  2  0  0  0  0  0  0
  162.5100  204.6700  145.5040 C   0  0  0  0  0  3  0  0  0  0  0  0
  162.2710  205.9130  145.9490 C   0  0  0  0  0  3  0  0  0  0  0  0
  160.9000  206.4050  146.2890 C   0  0  0  0  0  2  0  0  0  0  0  0
  160.8260  206.7210  147.7710 C   0  0  0  0  0  1  0  0  0  0  0  0
  1 30  1  6  0  0  0
  1 24  1  0  0  0  0
  2  3  3  0  0  0  0
  3  1  1  0  0  0  0
  4  7  1  0  0  0  0
  4  2  1  0  0  0  0
  5  6  2  0  0  0  0
  5 16  1  0  0  0  0
  6 12  1  0  0  0  0
  7  9  1  0  0  0  0
  8 10  2  0  0  0  0
  8  7  1  0  0  0  0
  9 17  1  0  0  0  0
 10 13  1  0  0  0  0
 11  5  1  0  0  0  0
 12 10  1  0  0  0  0
 13  9  2  0  0  0  0
 13 18  1  0  0  0  0
 15 14  2  0  0  0  0
 15 11  1  0  0  0  0
 16  8  1  0  0  0  0
 20 19  1  6  0  0  0
 20 15  1  0  0  0  0
 21 23  1  0  0  0  0
 22 23  1  0  0  0  0
 23 20  1  0  0  0  0
 24 25  1  0  0  0  0
 25 26  1  0  0  0  0
 26 29  1  0  0  0  0
 27 26  1  0  0  0  0
 29 28  1  0  0  0  0
 30 31  1  0  0  0  0
 32 31  1  0  0  0  0
 33 32  2  0  0  0  0
 34 33  1  0  0  0  0
 34 35  2  0  0  0  0
 36 34  1  0  0  0  0
 37 38  1  1  0  0  0
 37 39  1  0  0  0  0
 39 36  2  0  0  0  0
 40 36  1  0  0  0  0
 41 37  1  0  0  0  0
 41 40  2  0  0  0  0
 42 43  1  0  0  0  0
 42 41  1  0  0  0  0
 43 44  2  0  0  0  0
 44 45  1  0  0  0  0
 45 46  1  0  0  0  0
M  END
>  <MODEL>
5

>  <REMARK>
 VINA RESULT:      -6.3      2.403      4.194
  Name = 
  16 active torsions:
  status: ('A' for Active; 'I' for Inactive)
    1  A    between atoms: N_2  and  C_28
    2  A    between atoms: N_2  and  C_45
    3  A    between atoms: C_3  and  C_19
    4  A    between atoms: C_4  and  C_27
    5  A    between atoms: C_5  and  C_25
    6  A    between atoms: N_9  and  C_14
    7  A    between atoms: N_12  and  C_46
    8  A    between atoms: C_13  and  C_15
    9  A    between atoms: C_17  and  C_46
   10  A    between atoms: C_18  and  C_20
   11  A    between atoms: C_18  and  C_28
   12  A    between atoms: C_19  and  C_20
   13  A    between atoms: C_20  and  C_41
   14  A    between atoms: C_21  and  N_34
   15  A    between atoms: C_21  and  C_38
   16  A    between atoms: C_27  and  C_32
                            x       y       z     vdW  Elec       q    Type
                         _______ _______ _______ _____ _____    ______ ____

>  <TORSDO>
F 16

$$$$
=
 OpenBabel11052411353D

 46 48  0  0  1  0  0  0  0  0999 V2000
  162.3050  205.6330  145.3910 C   0  0  1  0  0  3  0  0  0  0  0  0
  161.1440  206.3870  147.6810 C   0  0  0  0  0  0  0  0  0  0  0  0
  161.6830  206.0630  146.6510 C   0  0  0  0  0  0  0  0  0  0  0  0
  160.4560  206.7490  148.9240 C   0  0  0  0  0  2  0  0  0  0  0  0
  160.9790  207.8900  153.3410 C   0  0  0  0  0  0  0  0  0  0  0  0
  161.2150  206.8360  154.0830 N   0  0  0  0  0  0  0  0  0  0  0  0
  160.9610  205.9630  150.0460 N   0  0  0  0  0  0  0  0  0  0  0  0
  161.1410  206.4150  151.3030 C   0  0  0  0  0  0  0  0  0  0  0  0
  161.1010  204.6160  150.1130 C   0  0  0  0  0  0  0  0  0  0  0  0
  161.4090  205.3760  152.1410 C   0  0  0  0  0  0  0  0  0  0  0  0
  160.7830  209.1480  154.0040 N   0  0  0  0  0  2  0  0  0  0  0  0
  161.4250  205.5450  153.5520 N   0  0  0  0  0  2  0  0  0  0  0  0
  161.3910  204.2130  151.4110 C   0  0  0  0  0  0  0  0  0  0  0  0
  160.4880  210.5290  152.1270 O   0  0  0  0  0  0  0  0  0  0  0  0
  160.5490  210.4180  153.3820 C   0  0  0  0  0  0  0  0  0  0  0  0
  160.9020  207.8020  151.8130 C   0  0  0  0  0  2  0  0  0  0  0  0
  160.8350  203.7310  149.0300 N   0  0  0  0  0  1  0  0  0  0  0  0
  161.4750  202.8190  151.9290 C   0  0  0  0  0  1  0  0  0  0  0  0
  160.7660  211.2560  155.6830 C   0  0  0  0  0  1  0  0  0  0  0  0
  160.4000  211.6360  154.2490 C   0  0  2  0  0  3  0  0  0  0  0  0
  158.1590  211.3970  155.0230 C   0  0  0  0  0  1  0  0  0  0  0  0
  159.0300  213.5150  154.7490 C   0  0  0  0  0  1  0  0  0  0  0  0
  159.0350  212.1810  154.1630 N   0  0  0  0  0  0  0  0  0  0  0  0
  162.3100  204.1100  145.3290 C   0  0  0  0  0  2  0  0  0  0  0  0
  160.9280  203.5310  145.6050 C   0  0  0  0  0  2  0  0  0  0  0  0
  160.9740  202.0730  145.6020 N   0  0  0  0  0  0  0  0  0  0  0  0
  159.9220  201.6210  144.8760 O   0  0  0  0  0  1  0  0  0  0  0  0
  161.4670  200.2080  147.1850 C   0  0  0  0  0  1  0  0  0  0  0  0
  160.8370  201.5860  146.9750 C   0  0  0  0  0  2  0  0  0  0  0  0
  161.5350  206.2070  144.2050 C   0  0  0  0  0  2  0  0  0  0  0  0
  161.5550  205.2640  143.0400 C   0  0  0  0  0  2  0  0  0  0  0  0
  161.6870  205.6840  141.7870 C   0  0  0  0  0  3  0  0  0  0  0  0
  161.7700  207.0750  141.4700 N   0  0  0  0  0  0  0  0  0  0  0  0
  161.9510  207.5330  140.1260 C   0  0  0  0  0  0  0  0  0  0  0  0
  162.2160  206.7130  139.2010 O   0  0  0  0  0  0  0  0  0  0  0  0
  161.8310  208.9640  139.8200 C   0  0  0  0  0  0  0  0  0  0  0  0
  161.8160  210.7900  138.7460 C   0  0  1  0  0  3  0  0  0  0  0  0
  161.9520  211.7880  137.6480 C   0  0  0  0  0  1  0  0  0  0  0  0
  161.9670  209.4650  138.5730 N   0  0  0  0  0  0  0  0  0  0  0  0
  161.6020  209.9030  140.7660 N   0  0  0  0  0  0  0  0  0  0  0  0
  161.5860  211.0550  140.0800 C   0  0  0  0  0  0  0  0  0  0  0  0
  161.4050  212.3960  140.7290 C   0  0  0  0  0  2  0  0  0  0  0  0
  162.2830  212.5550  141.9350 C   0  0  0  0  0  3  0  0  0  0  0  0
  161.8310  212.5290  143.1980 C   0  0  0  0  0  3  0  0  0  0  0  0
  160.3880  212.3280  143.5420 C   0  0  0  0  0  2  0  0  0  0  0  0
  159.7170  213.6760  143.7270 C   0  0  0  0  0  1  0  0  0  0  0  0
  1 30  1  6  0  0  0
  1  3  1  0  0  0  0
  2  4  1  0  0  0  0
  3  2  3  0  0  0  0
  4  7  1  0  0  0  0
  5 11  1  0  0  0  0
  5  6  2  0  0  0  0
  7  9  1  0  0  0  0
  7  8  1  0  0  0  0
  8 16  1  0  0  0  0
  8 10  2  0  0  0  0
  9 13  2  0  0  0  0
 10 12  1  0  0  0  0
 12  6  1  0  0  0  0
 13 18  1  0  0  0  0
 13 10  1  0  0  0  0
 14 15  2  0  0  0  0
 15 11  1  0  0  0  0
 15 20  1  0  0  0  0
 16  5  1  0  0  0  0
 17  9  1  0  0  0  0
 20 19  1  1  0  0  0
 23 20  1  0  0  0  0
 23 22  1  0  0  0  0
 23 21  1  0  0  0  0
 24  1  1  0  0  0  0
 24 25  1  0  0  0  0
 26 25  1  0  0  0  0
 26 29  1  0  0  0  0
 27 26  1  0  0  0  0
 29 28  1  0  0  0  0
 31 30  1  0  0  0  0
 32 31  1  0  0  0  0
 33 32  2  0  0  0  0
 34 33  1  0  0  0  0
 35 34  2  0  0  0  0
 36 34  1  0  0  0  0
 36 40  1  0  0  0  0
 37 38  1  1  0  0  0
 37 41  1  0  0  0  0
 39 37  1  0  0  0  0
 39 36  2  0  0  0  0
 41 42  1  0  0  0  0
 41 40  2  0  0  0  0
 42 43  1  0  0  0  0
 43 44  2  0  0  0  0
 44 45  1  0  0  0  0
 45 46  1  0  0  0  0
M  END
>  <MODEL>
6

>  <REMARK>
 VINA RESULT:      -5.9      4.275      9.310
  Name = 
  16 active torsions:
  status: ('A' for Active; 'I' for Inactive)
    1  A    between atoms: N_2  and  C_28
    2  A    between atoms: N_2  and  C_45
    3  A    between atoms: C_3  and  C_19
    4  A    between atoms: C_4  and  C_27
    5  A    between atoms: C_5  and  C_25
    6  A    between atoms: N_9  and  C_14
    7  A    between atoms: N_12  and  C_46
    8  A    between atoms: C_13  and  C_15
    9  A    between atoms: C_17  and  C_46
   10  A    between atoms: C_18  and  C_20
   11  A    between atoms: C_18  and  C_28
   12  A    between atoms: C_19  and  C_20
   13  A    between atoms: C_20  and  C_41
   14  A    between atoms: C_21  and  N_34
   15  A    between atoms: C_21  and  C_38
   16  A    between atoms: C_27  and  C_32
                            x       y       z     vdW  Elec       q    Type
                         _______ _______ _______ _____ _____    ______ ____

>  <TORSDO>
F 16

$$$$
=
 OpenBabel11052411353D

 46 48  0  0  1  0  0  0  0  0999 V2000
  162.0970  208.1150  151.4530 C   0  0  1  0  0  3  0  0  0  0  0  0
  161.6050  210.3490  152.8420 C   0  0  0  0  0  0  0  0  0  0  0  0
  161.8070  209.3340  152.2200 C   0  0  0  0  0  0  0  0  0  0  0  0
  161.4040  211.5950  153.5890 C   0  0  0  0  0  2  0  0  0  0  0  0
  159.0530  213.3180  150.0410 C   0  0  0  0  0  0  0  0  0  0  0  0
  157.7660  213.3460  150.2880 N   0  0  0  0  0  0  0  0  0  0  0  0
  160.0150  212.0330  153.5050 N   0  0  0  0  0  0  0  0  0  0  0  0
  159.4320  212.5930  152.4260 C   0  0  0  0  0  0  0  0  0  0  0  0
  159.0050  211.7440  154.3630 C   0  0  0  0  0  0  0  0  0  0  0  0
  158.0850  212.6740  152.6090 C   0  0  0  0  0  0  0  0  0  0  0  0
  159.4910  213.6710  148.7220 N   0  0  0  0  0  2  0  0  0  0  0  0
  157.2100  213.0220  151.5450 N   0  0  0  0  0  2  0  0  0  0  0  0
  157.7810  212.1400  153.8380 C   0  0  0  0  0  0  0  0  0  0  0  0
  161.8120  213.4690  149.0200 O   0  0  0  0  0  0  0  0  0  0  0  0
  160.8450  213.7380  148.2560 C   0  0  0  0  0  0  0  0  0  0  0  0
  160.0730  212.9170  151.1130 C   0  0  0  0  0  2  0  0  0  0  0  0
  159.1680  211.0000  155.5650 N   0  0  0  0  0  1  0  0  0  0  0  0
  156.4260  211.8740  154.3970 C   0  0  0  0  0  1  0  0  0  0  0  0
  159.7670  214.4530  146.1650 C   0  0  0  0  0  1  0  0  0  0  0  0
  161.1070  214.1620  146.8390 C   0  0  2  0  0  3  0  0  0  0  0  0
  160.9570  212.0690  145.7110 C   0  0  0  0  0  1  0  0  0  0  0  0
  162.3440  213.7030  144.8600 C   0  0  0  0  0  1  0  0  0  0  0  0
  161.8680  213.1320  146.1120 N   0  0  0  0  0  0  0  0  0  0  0  0
  161.8500  206.8970  152.3370 C   0  0  0  0  0  2  0  0  0  0  0  0
  160.8130  207.1860  153.4150 C   0  0  0  0  0  2  0  0  0  0  0  0
  161.2510  206.6530  154.7010 N   0  0  0  0  0  0  0  0  0  0  0  0
  160.2810  205.8280  155.1660 O   0  0  0  0  0  1  0  0  0  0  0  0
  160.1400  208.0660  156.4320 C   0  0  0  0  0  1  0  0  0  0  0  0
  161.4160  207.7590  155.6470 C   0  0  0  0  0  2  0  0  0  0  0  0
  161.2120  208.0540  150.2120 C   0  0  0  0  0  2  0  0  0  0  0  0
  161.9540  208.5230  148.9960 C   0  0  0  0  0  2  0  0  0  0  0  0
  162.0800  207.7730  147.9070 C   0  0  0  0  0  3  0  0  0  0  0  0
  161.5510  206.4470  147.8480 N   0  0  0  0  0  0  0  0  0  0  0  0
  161.7990  205.5860  146.7310 C   0  0  0  0  0  0  0  0  0  0  0  0
  162.3500  206.0350  145.6870 O   0  0  0  0  0  0  0  0  0  0  0  0
  161.4080  204.1720  146.8000 C   0  0  0  0  0  0  0  0  0  0  0  0
  160.6810  202.2640  146.2370 C   0  0  1  0  0  3  0  0  0  0  0  0
  160.0740  201.1560  145.4450 C   0  0  0  0  0  1  0  0  0  0  0  0
  160.9390  203.4840  145.7360 N   0  0  0  0  0  0  0  0  0  0  0  0
  161.4580  203.4480  147.9410 N   0  0  0  0  0  0  0  0  0  0  0  0
  161.0040  202.2400  147.5770 C   0  0  0  0  0  0  0  0  0  0  0  0
  160.8370  201.1010  148.5390 C   0  0  0  0  0  2  0  0  0  0  0  0
  159.6940  201.3310  149.4840 C   0  0  0  0  0  3  0  0  0  0  0  0
  159.8170  201.9420  150.6720 C   0  0  0  0  0  3  0  0  0  0  0  0
  161.1190  202.4720  151.1830 C   0  0  0  0  0  2  0  0  0  0  0  0
  160.8590  203.5610  152.2070 C   0  0  0  0  0  1  0  0  0  0  0  0
  1 30  1  6  0  0  0
  1  3  1  0  0  0  0
  1 24  1  0  0  0  0
  2  4  1  0  0  0  0
  3  2  3  0  0  0  0
  5  6  2  0  0  0  0
  5 16  1  0  0  0  0
  6 12  1  0  0  0  0
  7  4  1  0  0  0  0
  7  9  1  0  0  0  0
  8 10  2  0  0  0  0
  8  7  1  0  0  0  0
  9 17  1  0  0  0  0
 10 13  1  0  0  0  0
 11  5  1  0  0  0  0
 12 10  1  0  0  0  0
 13  9  2  0  0  0  0
 13 18  1  0  0  0  0
 15 11  1  0  0  0  0
 15 14  2  0  0  0  0
 16  8  1  0  0  0  0
 20 19  1  6  0  0  0
 20 15  1  0  0  0  0
 21 23  1  0  0  0  0
 22 23  1  0  0  0  0
 23 20  1  0  0  0  0
 24 25  1  0  0  0  0
 25 26  1  0  0  0  0
 26 27  1  0  0  0  0
 26 29  1  0  0  0  0
 29 28  1  0  0  0  0
 31 30  1  0  0  0  0
 32 31  1  0  0  0  0
 33 32  2  0  0  0  0
 34 36  1  0  0  0  0
 34 33  1  0  0  0  0
 35 34  2  0  0  0  0
 36 40  1  0  0  0  0
 37 38  1  1  0  0  0
 37 41  1  0  0  0  0
 39 37  1  0  0  0  0
 39 36  2  0  0  0  0
 41 40  2  0  0  0  0
 41 42  1  0  0  0  0
 42 43  1  0  0  0  0
 43 44  2  0  0  0  0
 44 45  1  0  0  0  0
 45 46  1  0  0  0  0
M  END
>  <MODEL>
7

>  <REMARK>
 VINA RESULT:      -5.7      1.823      4.001
  Name = 
  16 active torsions:
  status: ('A' for Active; 'I' for Inactive)
    1  A    between atoms: N_2  and  C_28
    2  A    between atoms: N_2  and  C_45
    3  A    between atoms: C_3  and  C_19
    4  A    between atoms: C_4  and  C_27
    5  A    between atoms: C_5  and  C_25
    6  A    between atoms: N_9  and  C_14
    7  A    between atoms: N_12  and  C_46
    8  A    between atoms: C_13  and  C_15
    9  A    between atoms: C_17  and  C_46
   10  A    between atoms: C_18  and  C_20
   11  A    between atoms: C_18  and  C_28
   12  A    between atoms: C_19  and  C_20
   13  A    between atoms: C_20  and  C_41
   14  A    between atoms: C_21  and  N_34
   15  A    between atoms: C_21  and  C_38
   16  A    between atoms: C_27  and  C_32
                            x       y       z     vdW  Elec       q    Type
                         _______ _______ _______ _____ _____    ______ ____

>  <TORSDO>
F 16

$$$$
=
 OpenBabel11052411353D

 46 48  0  0  1  0  0  0  0  0999 V2000
  162.5290  208.4740  149.2390 C   0  0  1  0  0  3  0  0  0  0  0  0
  161.1260  208.1230  151.4900 C   0  0  0  0  0  0  0  0  0  0  0  0
  161.7710  208.2640  150.4800 C   0  0  0  0  0  0  0  0  0  0  0  0
  160.3180  207.9900  152.7070 C   0  0  0  0  0  2  0  0  0  0  0  0
  159.5070  212.3230  153.9930 C   0  0  0  0  0  0  0  0  0  0  0  0
  160.0190  212.5760  155.1720 N   0  0  0  0  0  0  0  0  0  0  0  0
  160.8900  208.7690  153.8000 N   0  0  0  0  0  0  0  0  0  0  0  0
  160.6340  210.0680  154.0550 C   0  0  0  0  0  0  0  0  0  0  0  0
  161.5600  208.3040  154.8820 C   0  0  0  0  0  0  0  0  0  0  0  0
  161.1510  210.4190  155.2650 C   0  0  0  0  0  0  0  0  0  0  0  0
  158.6910  213.3340  153.3840 N   0  0  0  0  0  2  0  0  0  0  0  0
  160.8390  211.6640  155.8730 N   0  0  0  0  0  2  0  0  0  0  0  0
  161.7500  209.3140  155.8180 C   0  0  0  0  0  0  0  0  0  0  0  0
  158.1960  212.2580  151.3550 O   0  0  0  0  0  0  0  0  0  0  0  0
  158.0680  213.2720  152.0950 C   0  0  0  0  0  0  0  0  0  0  0  0
  159.7530  210.9920  153.2730 C   0  0  0  0  0  2  0  0  0  0  0  0
  161.8870  206.9340  155.0900 N   0  0  0  0  0  1  0  0  0  0  0  0
  162.3080  209.1820  157.1930 C   0  0  0  0  0  1  0  0  0  0  0  0
  155.9080  214.4290  152.2990 C   0  0  0  0  0  1  0  0  0  0  0  0
  157.2730  214.4530  151.6140 C   0  0  2  0  0  3  0  0  0  0  0  0
  158.2540  213.6830  149.5830 C   0  0  0  0  0  1  0  0  0  0  0  0
  155.9570  213.6760  149.7910 C   0  0  0  0  0  1  0  0  0  0  0  0
  157.1450  214.4400  150.1460 N   0  0  0  0  0  0  0  0  0  0  0  0
  162.3410  207.2660  148.3270 C   0  0  0  0  0  2  0  0  0  0  0  0
  161.0940  206.4720  148.6960 C   0  0  0  0  0  2  0  0  0  0  0  0
  160.9070  205.3570  147.7730 N   0  0  0  0  0  0  0  0  0  0  0  0
  161.4770  204.2560  148.3230 O   0  0  0  0  0  1  0  0  0  0  0  0
  162.3470  204.4550  145.9460 C   0  0  0  0  0  1  0  0  0  0  0  0
  161.5910  205.6570  146.5140 C   0  0  0  0  0  2  0  0  0  0  0  0
  162.0470  209.7420  148.5410 C   0  0  0  0  0  2  0  0  0  0  0  0
  162.0870  210.9190  149.4680 C   0  0  0  0  0  3  0  0  0  0  0  0
  161.6470  212.1200  149.1130 C   0  0  0  0  0  3  0  0  0  0  0  0
  161.1500  212.3750  147.7980 N   0  0  0  0  0  2  0  0  0  0  0  0
  161.8800  213.1660  146.8550 C   0  0  0  0  0  0  0  0  0  0  0  0
  162.9080  213.8060  147.2170 O   0  0  0  0  0  0  0  0  0  0  0  0
  161.4320  213.2360  145.4590 C   0  0  0  0  0  0  0  0  0  0  0  0
  160.1670  213.3240  143.7620 C   0  0  1  0  0  3  0  0  0  0  0  0
  158.9500  213.3330  142.9000 C   0  0  0  0  0  1  0  0  0  0  0  0
  160.1300  213.3110  145.1050 N   0  0  0  0  0  0  0  0  0  0  0  0
  162.2830  213.2010  144.4080 N   0  0  0  0  0  0  0  0  0  0  0  0
  161.4780  213.2640  143.3380 C   0  0  0  0  0  0  0  0  0  0  0  0
  161.9820  213.2110  141.9260 C   0  0  0  0  0  2  0  0  0  0  0  0
  162.3710  211.8180  141.5250 C   0  0  0  0  0  3  0  0  0  0  0  0
  161.6490  211.0480  140.6980 C   0  0  0  0  0  3  0  0  0  0  0  0
  160.3670  211.5040  140.0740 C   0  0  0  0  0  2  0  0  0  0  0  0
  160.1120  210.7170  138.8020 C   0  0  0  0  0  1  0  0  0  0  0  0
  1 24  1  6  0  0  0
  1  3  1  0  0  0  0
  2  4  1  0  0  0  0
  3  2  3  0  0  0  0
  4  7  1  0  0  0  0
  5  6  2  0  0  0  0
  6 12  1  0  0  0  0
  7  8  1  0  0  0  0
  7  9  1  0  0  0  0
  8 10  2  0  0  0  0
  9 17  1  0  0  0  0
  9 13  2  0  0  0  0
 10 13  1  0  0  0  0
 10 12  1  0  0  0  0
 11  5  1  0  0  0  0
 13 18  1  0  0  0  0
 14 15  2  0  0  0  0
 15 11  1  0  0  0  0
 16  5  1  0  0  0  0
 16  8  1  0  0  0  0
 20 15  1  0  0  0  0
 20 19  1  1  0  0  0
 21 23  1  0  0  0  0
 22 23  1  0  0  0  0
 23 20  1  0  0  0  0
 24 25  1  0  0  0  0
 26 27  1  0  0  0  0
 26 25  1  0  0  0  0
 28 29  1  0  0  0  0
 29 26  1  0  0  0  0
 30  1  1  0  0  0  0
 30 31  1  0  0  0  0
 32 31  2  0  0  0  0
 33 32  1  0  0  0  0
 34 35  2  0  0  0  0
 34 33  1  0  0  0  0
 36 34  1  0  0  0  0
 37 38  1  6  0  0  0
 37 39  1  0  0  0  0
 39 36  2  0  0  0  0
 40 36  1  0  0  0  0
 41 37  1  0  0  0  0
 41 40  2  0  0  0  0
 42 41  1  0  0  0  0
 43 42  1  0  0  0  0
 44 43  2  0  0  0  0
 45 44  1  0  0  0  0
 46 45  1  0  0  0  0
M  END
>  <MODEL>
8

>  <REMARK>
 VINA RESULT:      -5.0      3.059      6.930
  Name = 
  16 active torsions:
  status: ('A' for Active; 'I' for Inactive)
    1  A    between atoms: N_2  and  C_28
    2  A    between atoms: N_2  and  C_45
    3  A    between atoms: C_3  and  C_19
    4  A    between atoms: C_4  and  C_27
    5  A    between atoms: C_5  and  C_25
    6  A    between atoms: N_9  and  C_14
    7  A    between atoms: N_12  and  C_46
    8  A    between atoms: C_13  and  C_15
    9  A    between atoms: C_17  and  C_46
   10  A    between atoms: C_18  and  C_20
   11  A    between atoms: C_18  and  C_28
   12  A    between atoms: C_19  and  C_20
   13  A    between atoms: C_20  and  C_41
   14  A    between atoms: C_21  and  N_34
   15  A    between atoms: C_21  and  C_38
   16  A    between atoms: C_27  and  C_32
                            x       y       z     vdW  Elec       q    Type
                         _______ _______ _______ _____ _____    ______ ____

>  <TORSDO>
F 16

$$$$
=
 OpenBabel11052411353D

 46 48  0  0  1  0  0  0  0  0999 V2000
  162.1740  205.5300  145.0470 C   0  0  1  0  0  3  0  0  0  0  0  0
  160.8650  206.1770  147.2880 C   0  0  0  0  0  0  0  0  0  0  0  0
  161.4740  205.8840  146.2890 C   0  0  0  0  0  0  0  0  0  0  0  0
  160.0860  206.5370  148.4780 C   0  0  0  0  0  2  0  0  0  0  0  0
  161.9720  210.4840  149.8720 C   0  0  0  0  0  0  0  0  0  0  0  0
  162.4840  210.3720  151.0730 N   0  0  0  0  0  0  0  0  0  0  0  0
  160.9630  206.8120  149.6110 N   0  0  0  0  0  0  0  0  0  0  0  0
  161.5240  208.0030  149.8990 C   0  0  0  0  0  0  0  0  0  0  0  0
  161.1760  206.0300  150.6980 C   0  0  0  0  0  0  0  0  0  0  0  0
  162.0960  207.9660  151.1340 C   0  0  0  0  0  0  0  0  0  0  0  0
  161.9490  211.7870  149.2710 N   0  0  0  0  0  2  0  0  0  0  0  0
  162.5650  209.1470  151.7700 N   0  0  0  0  0  2  0  0  0  0  0  0
  161.8920  206.7190  151.6700 C   0  0  0  0  0  0  0  0  0  0  0  0
  160.9970  211.2360  147.1960 O   0  0  0  0  0  0  0  0  0  0  0  0
  161.4690  212.1190  147.9620 C   0  0  0  0  0  0  0  0  0  0  0  0
  161.4040  209.2760  149.1200 C   0  0  0  0  0  2  0  0  0  0  0  0
  160.6100  204.7360  150.8730 N   0  0  0  0  0  1  0  0  0  0  0  0
  162.2010  206.2700  153.0560 C   0  0  0  0  0  1  0  0  0  0  0  0
  162.8160  214.1730  148.0960 C   0  0  0  0  0  1  0  0  0  0  0  0
  161.5590  213.5440  147.4940 C   0  0  2  0  0  3  0  0  0  0  0  0
  159.3530  214.1300  146.8080 C   0  0  0  0  0  1  0  0  0  0  0  0
  159.7510  213.6750  149.0340 C   0  0  0  0  0  1  0  0  0  0  0  0
  160.3470  214.2970  147.8600 N   0  0  0  0  0  0  0  0  0  0  0  0
  162.1450  204.0160  144.8690 C   0  0  0  0  0  2  0  0  0  0  0  0
  160.8150  203.4230  145.3170 C   0  0  0  0  0  2  0  0  0  0  0  0
  160.9840  202.0290  145.7140 N   0  0  0  0  0  0  0  0  0  0  0  0
  160.1940  201.2660  144.9190 O   0  0  0  0  0  1  0  0  0  0  0  0
  161.4180  202.6350  148.0960 C   0  0  0  0  0  1  0  0  0  0  0  0
  160.5430  201.8700  147.1010 C   0  0  0  0  0  2  0  0  0  0  0  0
  161.5060  206.2140  143.8570 C   0  0  0  0  0  2  0  0  0  0  0  0
  161.6630  205.4000  142.6080 C   0  0  0  0  0  2  0  0  0  0  0  0
  161.8820  205.9540  141.4210 C   0  0  0  0  0  3  0  0  0  0  0  0
  161.9350  207.3720  141.2570 N   0  0  0  0  0  0  0  0  0  0  0  0
  161.8570  207.9850  139.9650 C   0  0  0  0  0  0  0  0  0  0  0  0
  161.9110  207.2800  138.9180 O   0  0  0  0  0  0  0  0  0  0  0  0
  161.7140  209.4420  139.8570 C   0  0  0  0  0  0  0  0  0  0  0  0
  161.6780  211.3980  139.0440 C   0  0  1  0  0  3  0  0  0  0  0  0
  161.8070  212.5410  138.0950 C   0  0  0  0  0  1  0  0  0  0  0  0
  161.8550  210.1130  138.6920 N   0  0  0  0  0  0  0  0  0  0  0  0
  161.4570  210.2390  140.9200 N   0  0  0  0  0  0  0  0  0  0  0  0
  161.4280  211.4740  140.3980 C   0  0  0  0  0  0  0  0  0  0  0  0
  161.2160  212.7090  141.2230 C   0  0  0  0  0  2  0  0  0  0  0  0
  160.5420  212.4010  142.5270 C   0  0  0  0  0  3  0  0  0  0  0  0
  160.8710  212.9760  143.6940 C   0  0  0  0  0  3  0  0  0  0  0  0
  161.9500  214.0040  143.8180 C   0  0  0  0  0  2  0  0  0  0  0  0
  163.2540  213.3290  144.1990 C   0  0  0  0  0  1  0  0  0  0  0  0
  1 30  1  6  0  0  0
  1  3  1  0  0  0  0
  2  4  1  0  0  0  0
  3  2  3  0  0  0  0
  4  7  1  0  0  0  0
  5  6  2  0  0  0  0
  6 12  1  0  0  0  0
  7  8  1  0  0  0  0
  7  9  1  0  0  0  0
  8 10  2  0  0  0  0
  9 17  1  0  0  0  0
  9 13  2  0  0  0  0
 10 13  1  0  0  0  0
 10 12  1  0  0  0  0
 11  5  1  0  0  0  0
 13 18  1  0  0  0  0
 14 15  2  0  0  0  0
 15 11  1  0  0  0  0
 16  5  1  0  0  0  0
 16  8  1  0  0  0  0
 20 23  1  0  0  0  0
 20 15  1  0  0  0  0
 20 19  1  1  0  0  0
 21 23  1  0  0  0  0
 23 22  1  0  0  0  0
 24  1  1  0  0  0  0
 24 25  1  0  0  0  0
 25 26  1  0  0  0  0
 26 29  1  0  0  0  0
 27 26  1  0  0  0  0
 29 28  1  0  0  0  0
 31 30  1  0  0  0  0
 32 31  1  0  0  0  0
 33 32  2  0  0  0  0
 34 33  1  0  0  0  0
 35 34  2  0  0  0  0
 36 34  1  0  0  0  0
 36 40  1  0  0  0  0
 37 38  1  1  0  0  0
 37 41  1  0  0  0  0
 39 37  1  0  0  0  0
 39 36  2  0  0  0  0
 41 40  2  0  0  0  0
 41 42  1  0  0  0  0
 42 43  1  0  0  0  0
 43 44  2  0  0  0  0
 44 45  1  0  0  0  0
 45 46  1  0  0  0  0
M  END
>  <MODEL>
9

>  <REMARK>
 VINA RESULT:      -4.8      4.254      8.781
  Name = 
  16 active torsions:
  status: ('A' for Active; 'I' for Inactive)
    1  A    between atoms: N_2  and  C_28
    2  A    between atoms: N_2  and  C_45
    3  A    between atoms: C_3  and  C_19
    4  A    between atoms: C_4  and  C_27
    5  A    between atoms: C_5  and  C_25
    6  A    between atoms: N_9  and  C_14
    7  A    between atoms: N_12  and  C_46
    8  A    between atoms: C_13  and  C_15
    9  A    between atoms: C_17  and  C_46
   10  A    between atoms: C_18  and  C_20
   11  A    between atoms: C_18  and  C_28
   12  A    between atoms: C_19  and  C_20
   13  A    between atoms: C_20  and  C_41
   14  A    between atoms: C_21  and  N_34
   15  A    between atoms: C_21  and  C_38
   16  A    between atoms: C_27  and  C_32
                            x       y       z     vdW  Elec       q    Type
                         _______ _______ _______ _____ _____    ______ ____

>  <TORSDO>
F 16

$$$$
