=
 OpenBabel11052412083D

 50 57  0  0  1  0  0  0  0  0999 V2000
  162.6250  205.0190  146.9890 C   0  0  0  0  0  2  0  0  0  0  0  0
  161.0270  203.2540  147.7740 C   0  0  0  0  0  0  0  0  0  0  0  0
  161.1800  205.8700  151.2090 C   0  0  0  0  0  0  0  0  0  0  0  0
  161.2450  207.1650  151.0860 N   0  0  0  0  0  0  0  0  0  0  0  0
  160.7560  201.2580  149.3850 C   0  0  0  0  0  1  0  0  0  0  0  0
  160.9910  205.0150  150.0180 C   0  0  0  0  0  0  0  0  0  0  0  0
  161.3780  207.0090  148.5920 C   0  0  2  0  0  3  0  0  0  0  0  0
  160.9830  202.4730  146.7860 O   0  0  0  0  0  0  0  0  0  0  0  0
  161.0090  207.8620  149.8200 C   0  0  2  0  0  3  0  0  0  0  0  0
  161.0330  205.5600  148.7870 C   0  0  0  0  0  0  0  0  0  0  0  0
  160.8860  202.7220  149.1430 C   0  0  0  0  0  0  0  0  0  0  0  0
  160.8830  203.5530  150.1860 C   0  0  0  0  0  3  0  0  0  0  0  0
  162.8730  206.5400  146.9530 C   0  0  0  0  0  2  0  0  0  0  0  0
  162.7410  207.1060  148.2450 O   0  0  0  0  0  0  0  0  0  0  0  0
  161.2240  204.7280  147.5430 C   0  0  1  0  0  3  0  0  0  0  0  0
  162.4780  209.5350  150.7050 O   0  0  0  0  0  0  0  0  0  0  0  0
  161.6680  209.2060  149.7960 C   0  0  0  0  0  0  0  0  0  0  0  0
  161.4420  210.0760  148.6830 N   0  0  0  0  0  2  0  0  0  0  0  0
  159.6370  212.9660  146.2150 C   0  0  1  0  0  3  0  0  0  0  0  0
  163.6130  213.4460  147.2490 C   0  0  0  0  0  2  0  0  0  0  0  0
  160.1330  211.8050  147.0820 C   0  0  0  0  0  2  0  0  0  0  0  0
  161.6020  214.0760  145.9670 C   0  0  0  0  0  2  0  0  0  0  0  0
  162.2180  211.2310  148.4980 N   0  0  0  0  0  0  0  0  0  0  0  0
  162.3290  213.2130  146.9640 C   0  0  0  0  0  0  0  0  0  0  0  0
  160.6300  213.3220  145.2760 O   0  0  0  0  0  0  0  0  0  0  0  0
  161.5110  212.1630  147.6680 C   0  0  1  0  0  0  0  0  0  0  0  0
  161.4780  212.3280  149.0780 N   0  0  0  0  0  2  0  0  0  0  0  0
  157.3330  212.3780  146.4210 O   0  0  0  0  0  1  0  0  0  0  0  0
  158.3630  212.5520  145.5000 C   0  0  0  0  0  2  0  0  0  0  0  0
  161.3440  205.2680  152.4620 O   0  0  0  0  0  0  0  0  0  0  0  0
  161.8280  205.9720  153.6030 C   0  0  0  0  0  2  0  0  0  0  0  0
  160.6940  206.7000  154.3060 C   0  0  0  0  0  2  0  0  0  0  0  0
  161.2050  207.9840  154.9330 C   0  0  0  0  0  2  0  0  0  0  0  0
  160.0660  208.9790  155.0390 C   0  0  0  0  0  2  0  0  0  0  0  0
  156.3750  213.8230  153.2550 N   0  0  0  0  0  0  0  0  0  0  0  0
  159.8780  211.1630  153.8580 C   0  0  0  0  0  2  0  0  0  0  0  0
  156.2630  214.2010  150.9340 N   0  0  0  0  0  0  0  0  0  0  0  0
  155.6720  214.2130  152.1580 C   0  0  0  0  0  3  0  0  0  0  0  0
  157.5520  213.7990  150.7890 C   0  0  0  0  0  0  0  0  0  0  0  0
  160.0540  212.4800  155.8760 C   0  0  1  0  0  3  0  0  0  0  0  0
  158.1530  213.7940  149.5000 N   0  0  0  0  0  1  0  0  0  0  0  0
  157.6660  213.4120  153.1550 C   0  0  0  0  0  0  0  0  0  0  0  0
  160.3680  211.0940  156.2090 N   0  0  0  0  0  0  0  0  0  0  0  0
  158.2850  213.3930  151.9020 C   0  0  0  0  0  3  0  0  0  0  0  0
  159.7660  212.5760  154.3770 C   0  0  2  0  0  3  0  0  0  0  0  0
  157.8560  213.1580  155.6150 N   0  0  0  0  0  0  0  0  0  0  0  0
  161.6360  211.1080  156.9220 C   0  0  0  0  0  1  0  0  0  0  0  0
  160.5980  210.4000  154.9480 C   0  0  1  0  0  3  0  0  0  0  0  0
  158.7470  212.8680  156.4990 C   0  0  0  0  0  3  0  0  0  0  0  0
  158.3810  213.0170  154.3320 N   0  0  0  0  0  0  0  0  0  0  0  0
  2 11  1  0  0  0  0
  3 30  1  0  0  0  0
  4  3  2  0  0  0  0
  6 12  1  0  0  0  0
  6  3  1  0  0  0  0
  7 14  1  1  0  0  0
  7 10  1  0  0  0  0
  7  9  1  0  0  0  0
  8  2  2  0  0  0  0
  9 17  1  1  0  0  0
  9  4  1  0  0  0  0
 10  6  2  0  0  0  0
 11  5  1  0  0  0  0
 11 12  2  0  0  0  0
 13  1  1  0  0  0  0
 13 14  1  0  0  0  0
 15  1  1  1  0  0  0
 15  2  1  0  0  0  0
 15 10  1  0  0  0  0
 17 16  2  0  0  0  0
 18 17  1  0  0  0  0
 19 29  1  6  0  0  0
 19 21  1  0  0  0  0
 22 24  1  0  0  0  0
 23 18  1  0  0  0  0
 23 27  1  0  0  0  0
 24 20  2  0  0  0  0
 24 26  1  0  0  0  0
 25 22  1  0  0  0  0
 25 19  1  0  0  0  0
 26 21  1  6  0  0  0
 26 23  1  0  0  0  0
 26 27  1  0  0  0  0
 29 28  1  0  0  0  0
 30 31  1  0  0  0  0
 31 32  1  0  0  0  0
 32 33  1  0  0  0  0
 33 34  1  0  0  0  0
 36 48  1  0  0  0  0
 37 38  1  0  0  0  0
 38 35  2  0  0  0  0
 39 37  2  0  0  0  0
 39 44  1  0  0  0  0
 40 43  1  0  0  0  0
 40 49  1  1  0  0  0
 41 39  1  0  0  0  0
 42 35  1  0  0  0  0
 42 50  1  0  0  0  0
 43 47  1  0  0  0  0
 44 42  2  0  0  0  0
 45 36  1  6  0  0  0
 45 40  1  0  0  0  0
 46 49  2  0  0  0  0
 48 34  1  1  0  0  0
 48 43  1  0  0  0  0
 50 45  1  0  0  0  0
 50 46  1  0  0  0  0
M  END
>  <MODEL>
1

>  <REMARK>
 VINA RESULT:      -9.0      0.000      0.000
  Name = 
  9 active torsions:
  status: ('A' for Active; 'I' for Inactive)
    1  A    between atoms: C_1  and  C_28
    2  A    between atoms: C_6  and  C_37
    3  A    between atoms: C_6  and  C_49
    4  A    between atoms: C_11  and  O_13
    5  A    between atoms: O_13  and  C_37
    6  A    between atoms: N_18  and  N_33
    7  A    between atoms: C_27  and  C_32
    8  A    between atoms: C_42  and  C_44
    9  A    between atoms: C_42  and  C_49
                            x       y       z     vdW  Elec       q    Type
                         _______ _______ _______ _____ _____    ______ ____

>  <TORSDO>
F 9

$$$$
=
 OpenBabel11052412083D

 50 57  0  0  1  0  0  0  0  0999 V2000
  160.0950  202.7610  148.8010 C   0  0  0  0  0  2  0  0  0  0  0  0
  161.3480  203.4250  146.7320 C   0  0  0  0  0  0  0  0  0  0  0  0
  161.5930  207.0380  149.0880 C   0  0  0  0  0  0  0  0  0  0  0  0
  161.7580  207.0080  150.3790 N   0  0  0  0  0  0  0  0  0  0  0  0
  161.2400  204.8890  144.6130 C   0  0  0  0  0  1  0  0  0  0  0  0
  161.6520  205.7890  148.2980 C   0  0  0  0  0  0  0  0  0  0  0  0
  161.6420  204.5090  150.4250 C   0  0  2  0  0  3  0  0  0  0  0  0
  161.2720  202.3830  146.0270 O   0  0  0  0  0  0  0  0  0  0  0  0
  162.1320  205.7970  151.1120 C   0  0  2  0  0  3  0  0  0  0  0  0
  161.7250  204.6010  148.9270 C   0  0  0  0  0  0  0  0  0  0  0  0
  161.3710  204.7520  146.0900 C   0  0  0  0  0  0  0  0  0  0  0  0
  161.5010  205.8520  146.8320 C   0  0  0  0  0  3  0  0  0  0  0  0
  160.1160  202.8340  150.3410 C   0  0  0  0  0  2  0  0  0  0  0  0
  160.3220  204.1640  150.7820 O   0  0  0  0  0  0  0  0  0  0  0  0
  161.4150  203.3000  148.2310 C   0  0  1  0  0  3  0  0  0  0  0  0
  161.6150  204.8130  153.2340 O   0  0  0  0  0  0  0  0  0  0  0  0
  161.7180  205.8670  152.5480 C   0  0  0  0  0  0  0  0  0  0  0  0
  161.5300  207.1470  153.1600 N   0  0  0  0  0  2  0  0  0  0  0  0
  160.0080  210.8700  154.3930 C   0  0  1  0  0  3  0  0  0  0  0  0
  161.5130  208.2960  157.2600 C   0  0  0  0  0  2  0  0  0  0  0  0
  160.5490  209.5850  153.7610 C   0  0  0  0  0  2  0  0  0  0  0  0
  160.6210  210.4820  156.5440 C   0  0  0  0  0  2  0  0  0  0  0  0
  161.3800  207.2690  154.5510 N   0  0  0  0  0  0  0  0  0  0  0  0
  161.0490  209.0640  156.2700 C   0  0  0  0  0  0  0  0  0  0  0  0
  160.8730  211.3010  155.4220 O   0  0  0  0  0  0  0  0  0  0  0  0
  160.8340  208.5560  154.8700 C   0  0  1  0  0  0  0  0  0  0  0  0
  159.9680  207.4320  154.8060 N   0  0  0  0  0  2  0  0  0  0  0  0
  158.8890  211.6030  152.4160 O   0  0  0  0  0  1  0  0  0  0  0  0
  159.8870  211.9440  153.3270 C   0  0  0  0  0  2  0  0  0  0  0  0
  161.3060  208.2440  148.4370 O   0  0  0  0  0  0  0  0  0  0  0  0
  161.9510  209.4730  148.7620 C   0  0  0  0  0  2  0  0  0  0  0  0
  161.4050  210.6070  147.9100 C   0  0  0  0  0  2  0  0  0  0  0  0
  162.2050  211.8740  148.1490 C   0  0  0  0  0  2  0  0  0  0  0  0
  161.3900  212.8320  148.9950 C   0  0  0  0  0  2  0  0  0  0  0  0
  160.4650  211.7850  142.8050 N   0  0  0  0  0  0  0  0  0  0  0  0
  161.2140  213.7790  146.7000 C   0  0  0  0  0  2  0  0  0  0  0  0
  162.2170  212.4790  141.3940 N   0  0  0  0  0  0  0  0  0  0  0  0
  161.2130  211.6100  141.6830 C   0  0  0  0  0  3  0  0  0  0  0  0
  162.4900  213.5240  142.2180 C   0  0  0  0  0  0  0  0  0  0  0  0
  158.7980  213.8330  146.7080 C   0  0  1  0  0  3  0  0  0  0  0  0
  163.5440  214.4240  141.8990 N   0  0  0  0  0  1  0  0  0  0  0  0
  160.7050  212.8140  143.6580 C   0  0  0  0  0  0  0  0  0  0  0  0
  159.2500  213.5220  148.0600 N   0  0  0  0  0  0  0  0  0  0  0  0
  161.7360  213.7150  143.3740 C   0  0  0  0  0  3  0  0  0  0  0  0
  160.0200  214.0370  145.8120 C   0  0  2  0  0  3  0  0  0  0  0  0
  158.7650  212.1940  145.0740 N   0  0  0  0  0  0  0  0  0  0  0  0
  158.5770  214.4530  148.9540 C   0  0  0  0  0  1  0  0  0  0  0  0
  160.6720  213.8370  148.1110 C   0  0  1  0  0  3  0  0  0  0  0  0
  158.1330  212.6310  146.1070 C   0  0  0  0  0  3  0  0  0  0  0  0
  159.8920  212.9750  144.8270 N   0  0  0  0  0  0  0  0  0  0  0  0
  1 13  1  0  0  0  0
  2 15  1  0  0  0  0
  3  4  2  0  0  0  0
  4  9  1  0  0  0  0
  5 11  1  0  0  0  0
  6 10  2  0  0  0  0
  6  3  1  0  0  0  0
  7 10  1  6  0  0  0
  7 14  1  0  0  0  0
  7  9  1  0  0  0  0
  8  2  2  0  0  0  0
  9 17  1  1  0  0  0
 11  2  1  0  0  0  0
 11 12  2  0  0  0  0
 12  6  1  0  0  0  0
 13 14  1  0  0  0  0
 15  1  1  1  0  0  0
 15 10  1  0  0  0  0
 17 18  1  0  0  0  0
 17 16  2  0  0  0  0
 18 23  1  0  0  0  0
 19 29  1  6  0  0  0
 19 25  1  0  0  0  0
 21 19  1  0  0  0  0
 23 27  1  0  0  0  0
 23 26  1  0  0  0  0
 24 22  1  0  0  0  0
 24 20  2  0  0  0  0
 25 22  1  0  0  0  0
 26 21  1  6  0  0  0
 26 24  1  0  0  0  0
 27 26  1  0  0  0  0
 28 29  1  0  0  0  0
 30 31  1  0  0  0  0
 30  3  1  0  0  0  0
 32 33  1  0  0  0  0
 32 31  1  0  0  0  0
 33 34  1  0  0  0  0
 35 42  1  0  0  0  0
 36 48  1  0  0  0  0
 37 38  1  0  0  0  0
 37 39  2  0  0  0  0
 38 35  2  0  0  0  0
 39 44  1  0  0  0  0
 40 49  1  6  0  0  0
 40 43  1  0  0  0  0
 41 39  1  0  0  0  0
 42 50  1  0  0  0  0
 43 48  1  0  0  0  0
 43 47  1  0  0  0  0
 44 42  2  0  0  0  0
 45 36  1  1  0  0  0
 45 40  1  0  0  0  0
 46 49  2  0  0  0  0
 48 34  1  1  0  0  0
 50 46  1  0  0  0  0
 50 45  1  0  0  0  0
M  END
>  <MODEL>
2

>  <REMARK>
 VINA RESULT:      -8.6      2.785      7.588
  Name = 
  9 active torsions:
  status: ('A' for Active; 'I' for Inactive)
    1  A    between atoms: C_1  and  C_28
    2  A    between atoms: C_6  and  C_37
    3  A    between atoms: C_6  and  C_49
    4  A    between atoms: C_11  and  O_13
    5  A    between atoms: O_13  and  C_37
    6  A    between atoms: N_18  and  N_33
    7  A    between atoms: C_27  and  C_32
    8  A    between atoms: C_42  and  C_44
    9  A    between atoms: C_42  and  C_49
                            x       y       z     vdW  Elec       q    Type
                         _______ _______ _______ _____ _____    ______ ____

>  <TORSDO>
F 9

$$$$
=
 OpenBabel11052412083D

 50 57  0  0  1  0  0  0  0  0999 V2000
  160.1060  203.7240  149.7870 C   0  0  0  0  0  2  0  0  0  0  0  0
  161.0990  202.0890  148.1650 C   0  0  0  0  0  0  0  0  0  0  0  0
  161.5210  205.8090  146.0100 C   0  0  0  0  0  0  0  0  0  0  0  0
  161.8320  206.9220  146.6110 N   0  0  0  0  0  0  0  0  0  0  0  0
  160.7140  200.8990  145.9100 C   0  0  0  0  0  1  0  0  0  0  0  0
  161.5200  204.5320  146.7550 C   0  0  0  0  0  0  0  0  0  0  0  0
  161.7840  205.8230  148.8590 C   0  0  2  0  0  3  0  0  0  0  0  0
  160.9690  200.9930  148.7740 O   0  0  0  0  0  0  0  0  0  0  0  0
  162.3170  206.9780  147.9910 C   0  0  2  0  0  3  0  0  0  0  0  0
  161.6950  204.5350  148.0900 C   0  0  0  0  0  0  0  0  0  0  0  0
  161.0150  202.1290  146.6920 C   0  0  0  0  0  0  0  0  0  0  0  0
  161.2020  203.2790  146.0440 C   0  0  0  0  0  3  0  0  0  0  0  0
  160.3010  205.1150  150.4200 C   0  0  0  0  0  2  0  0  0  0  0  0
  160.5230  206.0980  149.4250 O   0  0  0  0  0  0  0  0  0  0  0  0
  161.3390  203.3490  148.9520 C   0  0  1  0  0  3  0  0  0  0  0  0
  161.6120  209.2660  147.9190 O   0  0  0  0  0  0  0  0  0  0  0  0
  162.0680  208.3160  148.6120 C   0  0  0  0  0  0  0  0  0  0  0  0
  162.2630  208.4810  150.0200 N   0  0  0  0  0  2  0  0  0  0  0  0
  161.1840  207.8340  154.0350 C   0  0  1  0  0  3  0  0  0  0  0  0
  160.2180  211.4530  152.2820 C   0  0  0  0  0  2  0  0  0  0  0  0
  161.6190  207.8770  152.5680 C   0  0  0  0  0  2  0  0  0  0  0  0
  160.1080  209.8290  154.1360 C   0  0  0  0  0  2  0  0  0  0  0  0
  161.8150  209.6350  150.6830 N   0  0  0  0  0  0  0  0  0  0  0  0
  160.5670  210.2580  152.7670 C   0  0  0  0  0  0  0  0  0  0  0  0
  159.9140  208.4320  154.1780 O   0  0  0  0  0  0  0  0  0  0  0  0
  161.4970  209.3200  152.0450 C   0  0  1  0  0  0  0  0  0  0  0  0
  162.7590  209.9000  151.7450 N   0  0  0  0  0  2  0  0  0  0  0  0
  161.5210  205.5390  153.4700 O   0  0  0  0  0  1  0  0  0  0  0  0
  161.1390  206.3900  154.5050 C   0  0  0  0  0  2  0  0  0  0  0  0
  161.1320  205.8140  144.6650 O   0  0  0  0  0  0  0  0  0  0  0  0
  162.0350  205.5410  143.5960 C   0  0  0  0  0  2  0  0  0  0  0  0
  161.4190  205.9280  142.2610 C   0  0  0  0  0  2  0  0  0  0  0  0
  162.3310  206.8870  141.5210 C   0  0  0  0  0  2  0  0  0  0  0  0
  162.1810  206.6730  140.0270 C   0  0  0  0  0  2  0  0  0  0  0  0
  162.7070  212.7510  141.7730 N   0  0  0  0  0  0  0  0  0  0  0  0
  161.0530  208.8540  140.4360 C   0  0  0  0  0  2  0  0  0  0  0  0
  161.4150  213.3780  143.6380 N   0  0  0  0  0  0  0  0  0  0  0  0
  162.5460  213.5020  142.8950 C   0  0  0  0  0  3  0  0  0  0  0  0
  160.4390  212.5060  143.2770 C   0  0  0  0  0  0  0  0  0  0  0  0
  161.6400  209.7730  138.2800 C   0  0  1  0  0  3  0  0  0  0  0  0
  159.2610  212.3910  144.0660 N   0  0  0  0  0  1  0  0  0  0  0  0
  161.7570  211.8650  141.3760 C   0  0  0  0  0  0  0  0  0  0  0  0
  161.9760  208.3530  138.2750 N   0  0  0  0  0  0  0  0  0  0  0  0
  160.5890  211.7260  142.1320 C   0  0  0  0  0  3  0  0  0  0  0  0
  161.0180  210.1300  139.6300 C   0  0  2  0  0  3  0  0  0  0  0  0
  163.0280  211.3060  139.3210 N   0  0  0  0  0  0  0  0  0  0  0  0
  161.3670  207.7790  137.0850 C   0  0  0  0  0  1  0  0  0  0  0  0
  161.3050  207.7580  139.4240 C   0  0  1  0  0  3  0  0  0  0  0  0
  162.8970  210.5910  138.2570 C   0  0  0  0  0  3  0  0  0  0  0  0
  161.9540  211.0970  140.1830 N   0  0  0  0  0  0  0  0  0  0  0  0
  1 13  1  0  0  0  0
  2  8  2  0  0  0  0
  2 15  1  0  0  0  0
  3  4  2  0  0  0  0
  3  6  1  0  0  0  0
  4  9  1  0  0  0  0
  5 11  1  0  0  0  0
  6 10  2  0  0  0  0
  7 10  1  6  0  0  0
  7 14  1  0  0  0  0
  9 17  1  1  0  0  0
  9  7  1  0  0  0  0
 10 15  1  0  0  0  0
 11  2  1  0  0  0  0
 12 11  2  0  0  0  0
 12  6  1  0  0  0  0
 14 13  1  0  0  0  0
 15  1  1  6  0  0  0
 16 17  2  0  0  0  0
 17 18  1  0  0  0  0
 18 23  1  0  0  0  0
 19 25  1  0  0  0  0
 19 29  1  6  0  0  0
 20 24  2  0  0  0  0
 21 19  1  0  0  0  0
 22 25  1  0  0  0  0
 23 27  1  0  0  0  0
 23 26  1  0  0  0  0
 24 22  1  0  0  0  0
 26 21  1  1  0  0  0
 26 24  1  0  0  0  0
 27 26  1  0  0  0  0
 28 29  1  0  0  0  0
 30  3  1  0  0  0  0
 31 30  1  0  0  0  0
 32 31  1  0  0  0  0
 33 32  1  0  0  0  0
 34 33  1  0  0  0  0
 35 38  1  0  0  0  0
 38 37  2  0  0  0  0
 39 37  1  0  0  0  0
 39 41  1  0  0  0  0
 40 49  1  1  0  0  0
 40 45  1  0  0  0  0
 42 35  2  0  0  0  0
 42 44  1  0  0  0  0
 43 40  1  0  0  0  0
 43 48  1  0  0  0  0
 44 39  2  0  0  0  0
 45 50  1  0  0  0  0
 45 36  1  1  0  0  0
 46 50  1  0  0  0  0
 47 43  1  0  0  0  0
 48 34  1  1  0  0  0
 48 36  1  0  0  0  0
 49 46  2  0  0  0  0
 50 42  1  0  0  0  0
M  END
>  <MODEL>
3

>  <REMARK>
 VINA RESULT:      -7.6      4.642      9.937
  Name = 
  9 active torsions:
  status: ('A' for Active; 'I' for Inactive)
    1  A    between atoms: C_1  and  C_28
    2  A    between atoms: C_6  and  C_37
    3  A    between atoms: C_6  and  C_49
    4  A    between atoms: C_11  and  O_13
    5  A    between atoms: O_13  and  C_37
    6  A    between atoms: N_18  and  N_33
    7  A    between atoms: C_27  and  C_32
    8  A    between atoms: C_42  and  C_44
    9  A    between atoms: C_42  and  C_49
                            x       y       z     vdW  Elec       q    Type
                         _______ _______ _______ _____ _____    ______ ____

>  <TORSDO>
F 9

$$$$
=
 OpenBabel11052412083D

 50 57  0  0  1  0  0  0  0  0999 V2000
  160.0980  203.7150  149.9170 C   0  0  0  0  0  2  0  0  0  0  0  0
  161.0180  202.0710  148.2610 C   0  0  0  0  0  0  0  0  0  0  0  0
  161.3170  205.7760  146.0580 C   0  0  0  0  0  0  0  0  0  0  0  0
  161.6520  206.8940  146.6340 N   0  0  0  0  0  0  0  0  0  0  0  0
  160.5300  200.8610  146.0370 C   0  0  0  0  0  1  0  0  0  0  0  0
  161.3590  204.5050  146.8130 C   0  0  0  0  0  0  0  0  0  0  0  0
  161.7180  205.8140  148.8910 C   0  0  2  0  0  3  0  0  0  0  0  0
  160.9240  200.9810  148.8850 O   0  0  0  0  0  0  0  0  0  0  0  0
  162.2030  206.9650  147.9890 C   0  0  2  0  0  3  0  0  0  0  0  0
  161.5980  204.5190  148.1380 C   0  0  0  0  0  0  0  0  0  0  0  0
  160.8630  202.0990  146.7940 C   0  0  0  0  0  0  0  0  0  0  0  0
  161.0130  203.2440  146.1280 C   0  0  0  0  0  3  0  0  0  0  0  0
  160.3160  205.1130  150.5280 C   0  0  0  0  0  2  0  0  0  0  0  0
  160.4850  206.0890  149.5150 O   0  0  0  0  0  0  0  0  0  0  0  0
  161.2900  203.3390  149.0250 C   0  0  1  0  0  3  0  0  0  0  0  0
  161.5530  209.2690  147.9140 O   0  0  0  0  0  0  0  0  0  0  0  0
  161.9770  208.3070  148.6110 C   0  0  0  0  0  0  0  0  0  0  0  0
  162.1580  208.4630  150.0220 N   0  0  0  0  0  2  0  0  0  0  0  0
  161.2170  207.8730  154.0800 C   0  0  1  0  0  3  0  0  0  0  0  0
  160.1820  211.4630  152.3070 C   0  0  0  0  0  2  0  0  0  0  0  0
  161.6030  207.8950  152.5980 C   0  0  0  0  0  2  0  0  0  0  0  0
  160.1390  209.8670  154.1870 C   0  0  0  0  0  2  0  0  0  0  0  0
  161.7290  209.6260  150.6820 N   0  0  0  0  0  0  0  0  0  0  0  0
  160.5500  210.2770  152.7980 C   0  0  0  0  0  0  0  0  0  0  0  0
  159.9510  208.4700  154.2560 O   0  0  0  0  0  0  0  0  0  0  0  0
  161.4580  209.3300  152.0590 C   0  0  1  0  0  0  0  0  0  0  0  0
  162.7070  209.9090  151.7070 N   0  0  0  0  0  2  0  0  0  0  0  0
  161.5140  205.5690  153.5300 O   0  0  0  0  0  1  0  0  0  0  0  0
  161.1930  206.4370  154.5720 C   0  0  0  0  0  2  0  0  0  0  0  0
  160.8640  205.7680  144.7340 O   0  0  0  0  0  0  0  0  0  0  0  0
  161.7310  205.5820  143.6180 C   0  0  0  0  0  2  0  0  0  0  0  0
  161.5810  206.7240  142.6260 C   0  0  0  0  0  2  0  0  0  0  0  0
  161.6840  206.2010  141.2050 C   0  0  0  0  0  2  0  0  0  0  0  0
  162.3880  207.2280  140.3410 C   0  0  0  0  0  2  0  0  0  0  0  0
  160.5260  213.0780  138.7340 N   0  0  0  0  0  0  0  0  0  0  0  0
  160.6600  208.6750  139.2830 C   0  0  0  0  0  2  0  0  0  0  0  0
  158.4660  213.7650  139.6450 N   0  0  0  0  0  0  0  0  0  0  0  0
  159.7260  214.0600  139.2290 C   0  0  0  0  0  3  0  0  0  0  0  0
  157.9930  212.4930  139.5770 C   0  0  0  0  0  0  0  0  0  0  0  0
  161.8160  208.8250  137.1660 C   0  0  1  0  0  3  0  0  0  0  0  0
  156.6720  212.2030  140.0160 N   0  0  0  0  0  1  0  0  0  0  0  0
  160.0940  211.7930  138.6500 C   0  0  0  0  0  0  0  0  0  0  0  0
  162.4860  207.8150  137.9790 N   0  0  0  0  0  0  0  0  0  0  0  0
  158.8010  211.4740  139.0770 C   0  0  0  0  0  3  0  0  0  0  0  0
  160.6240  209.3790  137.9480 C   0  0  2  0  0  3  0  0  0  0  0  0
  162.1950  211.0780  137.5430 N   0  0  0  0  0  0  0  0  0  0  0  0
  162.5940  206.6180  137.1580 C   0  0  0  0  0  1  0  0  0  0  0  0
  161.5840  207.4950  139.0790 C   0  0  1  0  0  3  0  0  0  0  0  0
  162.7060  210.0220  137.0110 C   0  0  0  0  0  3  0  0  0  0  0  0
  160.9590  210.7840  138.1140 N   0  0  0  0  0  0  0  0  0  0  0  0
  1 13  1  0  0  0  0
  2  8  2  0  0  0  0
  2 15  1  0  0  0  0
  3  4  2  0  0  0  0
  3  6  1  0  0  0  0
  4  9  1  0  0  0  0
  5 11  1  0  0  0  0
  6 10  2  0  0  0  0
  7 10  1  6  0  0  0
  7 14  1  0  0  0  0
  9 17  1  1  0  0  0
  9  7  1  0  0  0  0
 10 15  1  0  0  0  0
 11  2  1  0  0  0  0
 12 11  2  0  0  0  0
 12  6  1  0  0  0  0
 14 13  1  0  0  0  0
 15  1  1  6  0  0  0
 16 17  2  0  0  0  0
 17 18  1  0  0  0  0
 18 23  1  0  0  0  0
 19 25  1  0  0  0  0
 19 29  1  6  0  0  0
 20 24  2  0  0  0  0
 21 19  1  0  0  0  0
 22 25  1  0  0  0  0
 23 27  1  0  0  0  0
 23 26  1  0  0  0  0
 24 22  1  0  0  0  0
 26 21  1  1  0  0  0
 26 24  1  0  0  0  0
 27 26  1  0  0  0  0
 28 29  1  0  0  0  0
 30  3  1  0  0  0  0
 31 30  1  0  0  0  0
 32 31  1  0  0  0  0
 33 32  1  0  0  0  0
 34 33  1  0  0  0  0
 35 38  1  0  0  0  0
 38 37  2  0  0  0  0
 39 37  1  0  0  0  0
 39 41  1  0  0  0  0
 40 49  1  1  0  0  0
 40 45  1  0  0  0  0
 40 43  1  0  0  0  0
 42 35  2  0  0  0  0
 42 44  1  0  0  0  0
 43 48  1  0  0  0  0
 44 39  2  0  0  0  0
 45 50  1  0  0  0  0
 45 36  1  1  0  0  0
 46 50  1  0  0  0  0
 47 43  1  0  0  0  0
 48 36  1  0  0  0  0
 48 34  1  1  0  0  0
 49 46  2  0  0  0  0
 50 42  1  0  0  0  0
M  END
>  <MODEL>
4

>  <REMARK>
 VINA RESULT:      -6.5      5.548     10.645
  Name = 
  9 active torsions:
  status: ('A' for Active; 'I' for Inactive)
    1  A    between atoms: C_1  and  C_28
    2  A    between atoms: C_6  and  C_37
    3  A    between atoms: C_6  and  C_49
    4  A    between atoms: C_11  and  O_13
    5  A    between atoms: O_13  and  C_37
    6  A    between atoms: N_18  and  N_33
    7  A    between atoms: C_27  and  C_32
    8  A    between atoms: C_42  and  C_44
    9  A    between atoms: C_42  and  C_49
                            x       y       z     vdW  Elec       q    Type
                         _______ _______ _______ _____ _____    ______ ____

>  <TORSDO>
F 9

$$$$
=
 OpenBabel11052412083D

 50 57  0  0  1  0  0  0  0  0999 V2000
  161.1330  207.5170  155.3670 C   0  0  0  0  0  2  0  0  0  0  0  0
  160.1670  209.8150  155.0890 C   0  0  0  0  0  0  0  0  0  0  0  0
  161.6570  209.0180  151.1130 C   0  0  0  0  0  0  0  0  0  0  0  0
  161.5760  207.8360  150.5720 N   0  0  0  0  0  0  0  0  0  0  0  0
  160.7680  212.2990  154.7480 C   0  0  0  0  0  1  0  0  0  0  0  0
  161.0140  209.2880  152.4180 C   0  0  0  0  0  0  0  0  0  0  0  0
  160.5990  206.8520  152.6550 C   0  0  2  0  0  3  0  0  0  0  0  0
  159.7400  210.0680  156.2480 O   0  0  0  0  0  0  0  0  0  0  0  0
  160.7590  206.7550  151.1260 C   0  0  2  0  0  3  0  0  0  0  0  0
  160.4720  208.2750  153.1200 C   0  0  0  0  0  0  0  0  0  0  0  0
  160.6820  210.9030  154.2370 C   0  0  0  0  0  0  0  0  0  0  0  0
  161.0870  210.6440  152.9940 C   0  0  0  0  0  3  0  0  0  0  0  0
  161.2410  206.1290  154.7060 C   0  0  0  0  0  2  0  0  0  0  0  0
  161.6580  206.2410  153.3570 O   0  0  0  0  0  0  0  0  0  0  0  0
  160.1440  208.3960  154.5870 C   0  0  1  0  0  3  0  0  0  0  0  0
  161.9480  204.7030  151.4700 O   0  0  0  0  0  0  0  0  0  0  0  0
  161.2510  205.4100  150.6910 C   0  0  0  0  0  0  0  0  0  0  0  0
  160.8440  204.8950  149.4200 N   0  0  0  0  0  2  0  0  0  0  0  0
  161.2870  204.2490  145.2860 C   0  0  1  0  0  3  0  0  0  0  0  0
  160.8910  200.9680  147.7730 C   0  0  0  0  0  2  0  0  0  0  0  0
  161.1000  204.6740  146.7450 C   0  0  0  0  0  2  0  0  0  0  0  0
  161.0180  202.0100  145.5400 C   0  0  0  0  0  2  0  0  0  0  0  0
  161.0770  203.5540  149.0740 N   0  0  0  0  0  0  0  0  0  0  0  0
  161.0110  202.0820  147.0450 C   0  0  0  0  0  0  0  0  0  0  0  0
  160.4310  203.1680  144.9870 O   0  0  0  0  0  0  0  0  0  0  0  0
  161.2390  203.4400  147.6540 C   0  0  1  0  0  0  0  0  0  0  0  0
  162.3930  203.4980  148.4810 N   0  0  0  0  0  2  0  0  0  0  0  0
  160.0720  206.2830  144.9900 O   0  0  0  0  0  1  0  0  0  0  0  0
  160.9830  205.4260  144.3760 C   0  0  0  0  0  2  0  0  0  0  0  0
  162.3970  210.0320  150.4950 O   0  0  0  0  0  0  0  0  0  0  0  0
  162.3240  210.3040  149.0980 C   0  0  0  0  0  2  0  0  0  0  0  0
  161.5460  211.5840  148.8400 C   0  0  0  0  0  2  0  0  0  0  0  0
  162.4950  212.7120  148.4810 C   0  0  0  0  0  2  0  0  0  0  0  0
  162.9080  212.5790  147.0290 C   0  0  0  0  0  2  0  0  0  0  0  0
  161.0360  211.2090  141.1230 N   0  0  0  0  0  0  0  0  0  0  0  0
  162.4890  213.3820  144.7100 C   0  0  0  0  0  2  0  0  0  0  0  0
  162.6220  211.6410  139.4380 N   0  0  0  0  0  0  0  0  0  0  0  0
  161.6000  210.8900  139.9270 C   0  0  0  0  0  3  0  0  0  0  0  0
  163.0940  212.7080  140.1320 C   0  0  0  0  0  0  0  0  0  0  0  0
  160.1120  213.6620  145.0390 C   0  0  1  0  0  3  0  0  0  0  0  0
  164.1640  213.4830  139.6040 N   0  0  0  0  0  1  0  0  0  0  0  0
  161.4770  212.2670  141.8510 C   0  0  0  0  0  0  0  0  0  0  0  0
  160.7220  213.4020  146.3390 N   0  0  0  0  0  0  0  0  0  0  0  0
  162.5300  213.0460  141.3600 C   0  0  0  0  0  3  0  0  0  0  0  0
  161.2080  213.6900  143.9740 C   0  0  2  0  0  3  0  0  0  0  0  0
  159.7120  211.9270  143.5600 N   0  0  0  0  0  0  0  0  0  0  0  0
  160.2620  214.4490  147.2380 C   0  0  0  0  0  1  0  0  0  0  0  0
  162.1590  213.5860  146.1730 C   0  0  1  0  0  3  0  0  0  0  0  0
  159.2710  212.4890  144.6310 C   0  0  0  0  0  3  0  0  0  0  0  0
  160.8540  212.5810  143.1020 N   0  0  0  0  0  0  0  0  0  0  0  0
  2  8  2  0  0  0  0
  3  6  1  0  0  0  0
  4  3  2  0  0  0  0
  4  9  1  0  0  0  0
  6 12  1  0  0  0  0
  6 10  2  0  0  0  0
  7 10  1  6  0  0  0
  7 14  1  0  0  0  0
  9 17  1  1  0  0  0
  9  7  1  0  0  0  0
 10 15  1  0  0  0  0
 11  5  1  0  0  0  0
 11  2  1  0  0  0  0
 12 11  2  0  0  0  0
 13  1  1  0  0  0  0
 14 13  1  0  0  0  0
 15  2  1  0  0  0  0
 15  1  1  1  0  0  0
 17 16  2  0  0  0  0
 18 17  1  0  0  0  0
 19 29  1  6  0  0  0
 19 21  1  0  0  0  0
 22 24  1  0  0  0  0
 23 18  1  0  0  0  0
 24 26  1  0  0  0  0
 24 20  2  0  0  0  0
 25 19  1  0  0  0  0
 25 22  1  0  0  0  0
 26 21  1  6  0  0  0
 26 27  1  0  0  0  0
 26 23  1  0  0  0  0
 27 23  1  0  0  0  0
 29 28  1  0  0  0  0
 30  3  1  0  0  0  0
 31 30  1  0  0  0  0
 32 31  1  0  0  0  0
 33 32  1  0  0  0  0
 34 33  1  0  0  0  0
 35 42  1  0  0  0  0
 36 48  1  0  0  0  0
 37 38  1  0  0  0  0
 37 39  2  0  0  0  0
 38 35  2  0  0  0  0
 39 44  1  0  0  0  0
 40 49  1  6  0  0  0
 40 43  1  0  0  0  0
 41 39  1  0  0  0  0
 42 50  1  0  0  0  0
 43 47  1  0  0  0  0
 44 42  2  0  0  0  0
 45 36  1  1  0  0  0
 45 40  1  0  0  0  0
 46 49  2  0  0  0  0
 48 43  1  0  0  0  0
 48 34  1  1  0  0  0
 50 46  1  0  0  0  0
 50 45  1  0  0  0  0
M  END
>  <MODEL>
5

>  <REMARK>
 VINA RESULT:      -6.5      3.491      9.324
  Name = 
  9 active torsions:
  status: ('A' for Active; 'I' for Inactive)
    1  A    between atoms: C_1  and  C_28
    2  A    between atoms: C_6  and  C_37
    3  A    between atoms: C_6  and  C_49
    4  A    between atoms: C_11  and  O_13
    5  A    between atoms: O_13  and  C_37
    6  A    between atoms: N_18  and  N_33
    7  A    between atoms: C_27  and  C_32
    8  A    between atoms: C_42  and  C_44
    9  A    between atoms: C_42  and  C_49
                            x       y       z     vdW  Elec       q    Type
                         _______ _______ _______ _____ _____    ______ ____

>  <TORSDO>
F 9

$$$$
=
 OpenBabel11052412083D

 50 57  0  0  1  0  0  0  0  0999 V2000
  157.6360  213.0730  145.4580 C   0  0  0  0  0  2  0  0  0  0  0  0
  157.3020  214.1030  147.7200 C   0  0  0  0  0  0  0  0  0  0  0  0
  161.5130  213.1400  147.8230 C   0  0  0  0  0  0  0  0  0  0  0  0
  162.2750  213.2730  146.7760 N   0  0  0  0  0  0  0  0  0  0  0  0
  157.1880  213.5920  150.2450 C   0  0  0  0  0  1  0  0  0  0  0  0
  160.1100  213.6080  147.7910 C   0  0  0  0  0  0  0  0  0  0  0  0
  160.3390  213.9500  145.3430 C   0  0  2  0  0  3  0  0  0  0  0  0
  156.0720  214.3770  147.7110 O   0  0  0  0  0  0  0  0  0  0  0  0
  161.8610  213.9920  145.5700 C   0  0  2  0  0  3  0  0  0  0  0  0
  159.5730  214.0370  146.6330 C   0  0  0  0  0  0  0  0  0  0  0  0
  157.9660  213.7220  148.9820 C   0  0  0  0  0  0  0  0  0  0  0  0
  159.2770  213.4810  149.0010 C   0  0  0  0  0  3  0  0  0  0  0  0
  158.5820  213.0320  144.2420 C   0  0  0  0  0  2  0  0  0  0  0  0
  159.9190  212.7980  144.6470 O   0  0  0  0  0  0  0  0  0  0  0  0
  158.0840  214.1690  146.4350 C   0  0  1  0  0  3  0  0  0  0  0  0
  163.7350  212.9530  144.4980 O   0  0  0  0  0  0  0  0  0  0  0  0
  162.6270  213.5410  144.3650 C   0  0  0  0  0  0  0  0  0  0  0  0
  162.0460  213.7000  143.0670 N   0  0  0  0  0  2  0  0  0  0  0  0
  159.2640  212.7910  140.0450 C   0  0  1  0  0  3  0  0  0  0  0  0
  163.0840  211.2330  139.7560 C   0  0  0  0  0  2  0  0  0  0  0  0
  160.1240  213.1950  141.2460 C   0  0  0  0  0  2  0  0  0  0  0  0
  160.7390  211.4090  139.0130 C   0  0  0  0  0  2  0  0  0  0  0  0
  162.6110  213.0810  141.9410 N   0  0  0  0  0  0  0  0  0  0  0  0
  161.8760  211.7760  139.9290 C   0  0  0  0  0  0  0  0  0  0  0  0
  159.5120  211.4430  139.7090 O   0  0  0  0  0  0  0  0  0  0  0  0
  161.5930  212.8350  140.9610 C   0  0  1  0  0  0  0  0  0  0  0  0
  162.4200  213.9840  140.8290 N   0  0  0  0  0  2  0  0  0  0  0  0
  156.9970  212.3190  139.4630 O   0  0  0  0  0  1  0  0  0  0  0  0
  157.7980  212.9850  140.3880 C   0  0  0  0  0  2  0  0  0  0  0  0
  161.9930  212.5030  148.9740 O   0  0  0  0  0  0  0  0  0  0  0  0
  162.1370  211.0890  149.0750 C   0  0  0  0  0  2  0  0  0  0  0  0
  162.2370  210.6620  150.5300 C   0  0  0  0  0  2  0  0  0  0  0  0
  162.6990  209.2200  150.6230 C   0  0  0  0  0  2  0  0  0  0  0  0
  162.3010  208.6500  151.9700 C   0  0  0  0  0  2  0  0  0  0  0  0
  162.2080  203.9470  147.7110 N   0  0  0  0  0  0  0  0  0  0  0  0
  160.9700  207.2670  150.3850 C   0  0  0  0  0  2  0  0  0  0  0  0
  161.4440  204.5460  145.5660 N   0  0  0  0  0  0  0  0  0  0  0  0
  162.2570  203.8000  146.3600 C   0  0  0  0  0  3  0  0  0  0  0  0
  160.5810  205.4450  146.1060 C   0  0  0  0  0  0  0  0  0  0  0  0
  160.7040  205.4240  151.9260 C   0  0  1  0  0  3  0  0  0  0  0  0
  159.7370  206.2160  145.2600 N   0  0  0  0  0  1  0  0  0  0  0  0
  161.3620  204.8350  148.2930 C   0  0  0  0  0  0  0  0  0  0  0  0
  161.2770  206.5500  152.6580 N   0  0  0  0  0  0  0  0  0  0  0  0
  160.5210  205.6110  147.4880 C   0  0  0  0  0  3  0  0  0  0  0  0
  160.4620  205.8480  150.4760 C   0  0  2  0  0  3  0  0  0  0  0  0
  162.0360  204.1070  150.5660 N   0  0  0  0  0  0  0  0  0  0  0  0
  160.4530  206.7450  153.8420 C   0  0  0  0  0  1  0  0  0  0  0  0
  161.1010  207.7290  151.8190 C   0  0  1  0  0  3  0  0  0  0  0  0
  161.7250  204.3340  151.7950 C   0  0  0  0  0  3  0  0  0  0  0  0
  161.3280  204.9580  149.7200 N   0  0  0  0  0  0  0  0  0  0  0  0
  2 11  1  0  0  0  0
  3 30  1  0  0  0  0
  4  3  2  0  0  0  0
  6  3  1  0  0  0  0
  6 12  1  0  0  0  0
  7 14  1  1  0  0  0
  7  9  1  0  0  0  0
  7 10  1  0  0  0  0
  8  2  2  0  0  0  0
  9 17  1  6  0  0  0
  9  4  1  0  0  0  0
 10  6  2  0  0  0  0
 11 12  2  0  0  0  0
 11  5  1  0  0  0  0
 13 14  1  0  0  0  0
 13  1  1  0  0  0  0
 15  1  1  6  0  0  0
 15 10  1  0  0  0  0
 15  2  1  0  0  0  0
 17 16  2  0  0  0  0
 18 17  1  0  0  0  0
 19 29  1  1  0  0  0
 19 21  1  0  0  0  0
 20 24  2  0  0  0  0
 22 25  1  0  0  0  0
 22 24  1  0  0  0  0
 23 18  1  0  0  0  0
 24 26  1  0  0  0  0
 25 19  1  0  0  0  0
 26 21  1  1  0  0  0
 26 23  1  0  0  0  0
 27 26  1  0  0  0  0
 27 23  1  0  0  0  0
 28 29  1  0  0  0  0
 30 31  1  0  0  0  0
 31 32  1  0  0  0  0
 32 33  1  0  0  0  0
 33 34  1  0  0  0  0
 35 42  1  0  0  0  0
 36 48  1  0  0  0  0
 37 39  2  0  0  0  0
 37 38  1  0  0  0  0
 38 35  2  0  0  0  0
 39 44  1  0  0  0  0
 40 49  1  6  0  0  0
 40 43  1  0  0  0  0
 41 39  1  0  0  0  0
 42 50  1  0  0  0  0
 43 47  1  0  0  0  0
 44 42  2  0  0  0  0
 45 36  1  1  0  0  0
 45 40  1  0  0  0  0
 46 49  2  0  0  0  0
 48 34  1  6  0  0  0
 48 43  1  0  0  0  0
 50 45  1  0  0  0  0
 50 46  1  0  0  0  0
M  END
>  <MODEL>
6

>  <REMARK>
 VINA RESULT:      -6.1      4.032      8.581
  Name = 
  9 active torsions:
  status: ('A' for Active; 'I' for Inactive)
    1  A    between atoms: C_1  and  C_28
    2  A    between atoms: C_6  and  C_37
    3  A    between atoms: C_6  and  C_49
    4  A    between atoms: C_11  and  O_13
    5  A    between atoms: O_13  and  C_37
    6  A    between atoms: N_18  and  N_33
    7  A    between atoms: C_27  and  C_32
    8  A    between atoms: C_42  and  C_44
    9  A    between atoms: C_42  and  C_49
                            x       y       z     vdW  Elec       q    Type
                         _______ _______ _______ _____ _____    ______ ____

>  <TORSDO>
F 9

$$$$
=
 OpenBabel11052412083D

 50 57  0  0  1  0  0  0  0  0999 V2000
  161.5980  209.5260  148.2420 C   0  0  0  0  0  2  0  0  0  0  0  0
  161.9730  211.9590  148.7230 C   0  0  0  0  0  0  0  0  0  0  0  0
  160.2120  210.6070  152.4290 C   0  0  0  0  0  0  0  0  0  0  0  0
  160.4900  209.4420  152.9390 N   0  0  0  0  0  0  0  0  0  0  0  0
  160.7840  214.2230  149.0570 C   0  0  0  0  0  1  0  0  0  0  0  0
  160.9360  211.0920  151.2350 C   0  0  0  0  0  0  0  0  0  0  0  0
  161.9210  208.8280  150.9800 C   0  0  2  0  0  3  0  0  0  0  0  0
  162.4740  212.3720  147.6430 O   0  0  0  0  0  0  0  0  0  0  0  0
  161.5950  208.6040  152.4680 C   0  0  2  0  0  3  0  0  0  0  0  0
  161.7790  210.2710  150.5820 C   0  0  0  0  0  0  0  0  0  0  0  0
  161.1200  212.8510  149.5300 C   0  0  0  0  0  0  0  0  0  0  0  0
  160.6300  212.4320  150.6980 C   0  0  0  0  0  3  0  0  0  0  0  0
  161.7260  208.1100  148.8380 C   0  0  0  0  0  2  0  0  0  0  0  0
  161.1260  208.0430  150.1190 O   0  0  0  0  0  0  0  0  0  0  0  0
  162.2530  210.5520  149.1780 C   0  0  1  0  0  3  0  0  0  0  0  0
  160.7050  206.8280  153.8070 O   0  0  0  0  0  0  0  0  0  0  0  0
  161.3710  207.1590  152.7880 C   0  0  0  0  0  0  0  0  0  0  0  0
  161.8400  206.1610  151.8770 N   0  0  0  0  0  2  0  0  0  0  0  0
  161.7130  204.0530  148.2380 C   0  0  1  0  0  3  0  0  0  0  0  0
  160.0810  202.2930  151.6060 C   0  0  0  0  0  2  0  0  0  0  0  0
  161.8160  204.9760  149.4560 C   0  0  0  0  0  2  0  0  0  0  0  0
  160.5140  202.3710  149.1790 C   0  0  0  0  0  2  0  0  0  0  0  0
  161.4470  204.8190  152.0090 N   0  0  0  0  0  0  0  0  0  0  0  0
  160.6280  202.9340  150.5710 C   0  0  0  0  0  0  0  0  0  0  0  0
  160.4560  203.4110  148.2270 O   0  0  0  0  0  0  0  0  0  0  0  0
  161.4590  204.1810  150.7250 C   0  0  1  0  0  0  0  0  0  0  0  0
  162.5710  204.0120  151.5930 N   0  0  0  0  0  2  0  0  0  0  0  0
  163.1520  204.6220  146.4200 O   0  0  0  0  0  1  0  0  0  0  0  0
  161.8960  204.8690  146.9710 C   0  0  0  0  0  2  0  0  0  0  0  0
  159.1880  211.3920  152.9720 O   0  0  0  0  0  0  0  0  0  0  0  0
  159.2290  212.8170  152.9880 C   0  0  0  0  0  2  0  0  0  0  0  0
  157.8630  213.3900  153.3290 C   0  0  0  0  0  2  0  0  0  0  0  0
  156.8390  212.2760  153.4370 C   0  0  0  0  0  2  0  0  0  0  0  0
  155.6850  212.7340  154.3070 C   0  0  0  0  0  2  0  0  0  0  0  0
  161.5310  211.1440  156.1950 N   0  0  0  0  0  0  0  0  0  0  0  0
  157.1150  211.5300  155.9500 C   0  0  0  0  0  2  0  0  0  0  0  0
  161.9560  208.8310  156.3130 N   0  0  0  0  0  0  0  0  0  0  0  0
  162.3890  210.0960  156.0680 C   0  0  0  0  0  3  0  0  0  0  0  0
  160.6700  208.5960  156.6820 C   0  0  0  0  0  0  0  0  0  0  0  0
  157.5930  213.5040  157.2600 C   0  0  1  0  0  3  0  0  0  0  0  0
  160.2360  207.2660  156.9360 N   0  0  0  0  0  1  0  0  0  0  0  0
  160.2370  210.9540  156.5590 C   0  0  0  0  0  0  0  0  0  0  0  0
  156.5470  213.8390  156.2990 N   0  0  0  0  0  0  0  0  0  0  0  0
  159.7780  209.6580  156.8130 C   0  0  0  0  0  3  0  0  0  0  0  0
  157.9650  212.0300  157.0940 C   0  0  2  0  0  3  0  0  0  0  0  0
  159.8080  213.3970  156.5950 N   0  0  0  0  0  0  0  0  0  0  0  0
  155.4640  214.4530  157.0520 C   0  0  0  0  0  1  0  0  0  0  0  0
  156.0370  212.5770  155.7760 C   0  0  1  0  0  3  0  0  0  0  0  0
  158.8620  214.2170  156.8960 C   0  0  0  0  0  3  0  0  0  0  0  0
  159.3620  212.0810  156.6940 N   0  0  0  0  0  0  0  0  0  0  0  0
  1 13  1  0  0  0  0
  2 15  1  0  0  0  0
  2 11  1  0  0  0  0
  3  4  2  0  0  0  0
  3 30  1  0  0  0  0
  5 11  1  0  0  0  0
  6  3  1  0  0  0  0
  7 14  1  6  0  0  0
  7  9  1  0  0  0  0
  8  2  2  0  0  0  0
  9 17  1  6  0  0  0
  9  4  1  0  0  0  0
 10  7  1  0  0  0  0
 10  6  2  0  0  0  0
 11 12  2  0  0  0  0
 12  6  1  0  0  0  0
 13 14  1  0  0  0  0
 15  1  1  6  0  0  0
 15 10  1  0  0  0  0
 17 16  2  0  0  0  0
 18 23  1  0  0  0  0
 18 17  1  0  0  0  0
 19 29  1  6  0  0  0
 19 21  1  0  0  0  0
 22 24  1  0  0  0  0
 24 26  1  0  0  0  0
 24 20  2  0  0  0  0
 25 19  1  0  0  0  0
 25 22  1  0  0  0  0
 26 21  1  6  0  0  0
 26 27  1  0  0  0  0
 26 23  1  0  0  0  0
 27 23  1  0  0  0  0
 28 29  1  0  0  0  0
 30 31  1  0  0  0  0
 31 32  1  0  0  0  0
 32 33  1  0  0  0  0
 33 34  1  0  0  0  0
 35 42  1  0  0  0  0
 37 39  2  0  0  0  0
 38 35  2  0  0  0  0
 38 37  1  0  0  0  0
 39 44  1  0  0  0  0
 39 41  1  0  0  0  0
 40 49  1  6  0  0  0
 42 50  1  0  0  0  0
 42 44  2  0  0  0  0
 43 47  1  0  0  0  0
 43 40  1  0  0  0  0
 45 36  1  6  0  0  0
 45 40  1  0  0  0  0
 46 50  1  0  0  0  0
 46 49  2  0  0  0  0
 48 34  1  6  0  0  0
 48 36  1  0  0  0  0
 48 43  1  0  0  0  0
 50 45  1  0  0  0  0
M  END
>  <MODEL>
7

>  <REMARK>
 VINA RESULT:      -6.1      2.598      7.268
  Name = 
  9 active torsions:
  status: ('A' for Active; 'I' for Inactive)
    1  A    between atoms: C_1  and  C_28
    2  A    between atoms: C_6  and  C_37
    3  A    between atoms: C_6  and  C_49
    4  A    between atoms: C_11  and  O_13
    5  A    between atoms: O_13  and  C_37
    6  A    between atoms: N_18  and  N_33
    7  A    between atoms: C_27  and  C_32
    8  A    between atoms: C_42  and  C_44
    9  A    between atoms: C_42  and  C_49
                            x       y       z     vdW  Elec       q    Type
                         _______ _______ _______ _____ _____    ______ ____

>  <TORSDO>
F 9

$$$$
