=
 OpenBabel11052411013D

 37 42  0  0  1  0  0  0  0  0999 V2000
  161.2990  207.7700  151.3820 C   0  0  0  0  0  0  0  0  0  0  0  0
  161.4310  205.6210  150.0980 C   0  0  0  0  0  0  0  0  0  0  0  0
  160.8620  203.0250  152.5720 N   0  0  0  0  0  0  0  0  0  0  0  0
  161.6910  207.5570  149.0290 N   0  0  0  0  0  0  0  0  0  0  0  0
  161.5800  209.7860  149.8790 C   0  0  0  0  0  3  0  0  0  0  0  0
  160.9940  206.9080  152.8330 S   0  0  0  0  0  0  0  0  0  0  0  0
  161.2590  202.4760  150.2210 N   0  0  0  0  0  1  0  0  0  0  0  0
  161.2020  204.7660  151.1820 C   0  0  0  0  0  0  0  0  0  0  0  0
  160.9750  205.2430  152.5180 C   0  0  0  0  0  0  0  0  0  0  0  0
  161.1170  203.3990  151.2930 C   0  0  0  0  0  0  0  0  0  0  0  0
  161.7910  206.5470  148.1370 C   0  0  0  0  0  0  0  0  0  0  0  0
  161.4450  209.2810  151.3250 C   0  0  2  0  0  0  0  0  0  0  0  0
  161.6450  205.3070  148.7610 C   0  0  0  0  0  3  0  0  0  0  0  0
  160.7740  204.1490  153.3320 C   0  0  0  0  0  3  0  0  0  0  0  0
  161.7140  208.9710  148.8210 C   0  0  0  0  0  3  0  0  0  0  0  0
  162.7300  209.6300  152.0730 C   0  0  0  0  0  1  0  0  0  0  0  0
  161.4730  207.0040  150.2200 C   0  0  0  0  0  0  0  0  0  0  0  0
  160.3100  209.8460  151.9640 O   0  0  0  0  0  0  0  0  0  0  0  0
  160.7010  210.6610  153.0460 C   0  0  1  0  0  3  0  0  0  0  0  0
  159.3610  213.8970  151.6050 C   0  0  0  0  0  3  0  0  0  0  0  0
  160.0200  211.9890  152.9480 C   0  0  0  0  0  0  0  0  0  0  0  0
  158.7090  214.4530  152.7120 C   0  0  0  0  0  3  0  0  0  0  0  0
  159.3580  212.5430  154.0550 C   0  0  0  0  0  3  0  0  0  0  0  0
  158.7080  213.7760  153.9360 C   0  0  0  0  0  3  0  0  0  0  0  0
  160.0130  212.6660  151.7240 C   0  0  0  0  0  3  0  0  0  0  0  0
  161.2180  210.0510  155.4560 C   0  0  0  0  0  0  0  0  0  0  0  0
  160.8330  209.4910  156.5530 N   0  0  0  0  0  2  0  0  0  0  0  0
  160.3700  210.0010  154.3080 N   0  0  0  0  0  2  0  0  0  0  0  0
  162.5550  210.7100  155.4010 C   0  0  0  0  0  1  0  0  0  0  0  0
  162.0720  206.7350  146.6820 C   0  0  0  0  0  2  0  0  0  0  0  0
  160.9300  205.8260  144.7250 N   0  0  0  0  0  0  0  0  0  0  0  0
  161.4460  205.6390  145.8930 C   0  0  1  0  0  3  0  0  0  0  0  0
  160.8530  203.5930  145.3000 C   0  0  0  0  0  0  0  0  0  0  0  0
  161.4320  204.2450  146.2970 C   0  0  0  0  0  3  0  0  0  0  0  0
  160.4730  204.5440  144.2090 C   0  0  0  0  0  3  0  0  0  0  0  0
  160.6510  202.1090  145.3010 C   0  0  0  0  0  2  0  0  0  0  0  0
  160.8180  201.5080  146.6860 C   0  0  0  0  0  1  0  0  0  0  0  0
  1  6  1  0  0  0  0
  2 17  1  0  0  0  0
  2  8  2  0  0  0  0
  3 14  1  0  0  0  0
  4 17  1  0  0  0  0
  5 12  1  0  0  0  0
  7 10  1  0  0  0  0
  8 10  1  0  0  0  0
  8  9  1  0  0  0  0
  9  6  1  0  0  0  0
  9 14  2  0  0  0  0
 10  3  2  0  0  0  0
 11 13  2  0  0  0  0
 11  4  1  0  0  0  0
 12  1  1  0  0  0  0
 12 18  1  0  0  0  0
 12 16  1  1  0  0  0
 13  2  1  0  0  0  0
 15  4  1  0  0  0  0
 15  5  2  0  0  0  0
 17  1  2  0  0  0  0
 19 18  1  6  0  0  0
 19 28  1  0  0  0  0
 20 25  2  0  0  0  0
 20 22  1  0  0  0  0
 21 19  1  0  0  0  0
 21 23  2  0  0  0  0
 22 24  2  0  0  0  0
 24 23  1  0  0  0  0
 25 21  1  0  0  0  0
 26 27  2  0  0  0  0
 28 26  1  0  0  0  0
 29 26  1  0  0  0  0
 30 11  1  0  0  0  0
 31 32  1  0  0  0  0
 32 34  1  0  0  0  0
 32 30  1  6  0  0  0
 33 36  1  0  0  0  0
 33 34  2  0  0  0  0
 35 31  2  0  0  0  0
 35 33  1  0  0  0  0
 36 37  1  0  0  0  0
M  END
>  <MODEL>
1

>  <REMARK>
 VINA RESULT:      -7.4      0.000      0.000
  Name = 
  7 active torsions:
  status: ('A' for Active; 'I' for Inactive)
    1  A    between atoms: C_5  and  C_6
    2  A    between atoms: C_6  and  O_19
    3  A    between atoms: C_6  and  N_36
    4  A    between atoms: C_8  and  C_13
    5  A    between atoms: C_11  and  C_22
    6  A    between atoms: O_19  and  C_28
    7  A    between atoms: C_22  and  C_27
                            x       y       z     vdW  Elec       q    Type
                         _______ _______ _______ _____ _____    ______ ____

>  <TORSDO>
F 7

$$$$
=
 OpenBabel11052411013D

 37 42  0  0  1  0  0  0  0  0999 V2000
  161.4470  208.4220  150.4040 C   0  0  0  0  0  0  0  0  0  0  0  0
  161.2050  210.7750  151.2340 C   0  0  0  0  0  0  0  0  0  0  0  0
  161.4570  212.8400  148.2580 N   0  0  0  0  0  0  0  0  0  0  0  0
  161.1000  209.0840  152.6790 N   0  0  0  0  0  0  0  0  0  0  0  0
  161.2270  206.7340  152.2750 C   0  0  0  0  0  3  0  0  0  0  0  0
  161.6140  208.9860  148.7920 S   0  0  0  0  0  0  0  0  0  0  0  0
  161.1190  213.8320  150.4680 N   0  0  0  0  0  1  0  0  0  0  0  0
  161.3310  211.4030  149.9890 C   0  0  0  0  0  0  0  0  0  0  0  0
  161.5200  210.6780  148.7640 C   0  0  0  0  0  0  0  0  0  0  0  0
  161.3020  212.7210  149.6000 C   0  0  0  0  0  0  0  0  0  0  0  0
  160.9330  210.2440  153.3500 C   0  0  0  0  0  0  0  0  0  0  0  0
  161.5500  206.9550  150.7880 C   0  0  2  0  0  0  0  0  0  0  0  0
  161.0010  211.3400  152.4880 C   0  0  0  0  0  3  0  0  0  0  0  0
  161.5920  211.5920  147.7350 C   0  0  0  0  0  3  0  0  0  0  0  0
  161.0400  207.7350  153.1490 C   0  0  0  0  0  3  0  0  0  0  0  0
  162.9980  206.5350  150.5470 C   0  0  0  0  0  1  0  0  0  0  0  0
  161.2650  209.3970  151.3960 C   0  0  0  0  0  0  0  0  0  0  0  0
  160.6590  206.2310  149.9530 O   0  0  0  0  0  0  0  0  0  0  0  0
  161.3740  205.4370  149.0330 C   0  0  1  0  0  3  0  0  0  0  0  0
  160.9050  202.2620  151.0450 C   0  0  0  0  0  3  0  0  0  0  0  0
  161.1930  203.9910  149.3690 C   0  0  0  0  0  0  0  0  0  0  0  0
  160.8010  201.2980  150.0360 C   0  0  0  0  0  3  0  0  0  0  0  0
  161.0790  203.0240  148.3570 C   0  0  0  0  0  3  0  0  0  0  0  0
  160.8880  201.6790  148.6930 C   0  0  0  0  0  3  0  0  0  0  0  0
  161.0990  203.6060  150.7110 C   0  0  0  0  0  3  0  0  0  0  0  0
  161.7310  205.5300  146.5210 C   0  0  0  0  0  0  0  0  0  0  0  0
  161.2340  205.7420  145.3490 N   0  0  0  0  0  2  0  0  0  0  0  0
  160.9090  205.7150  147.6750 N   0  0  0  0  0  2  0  0  0  0  0  0
  163.1610  205.1270  146.6460 C   0  0  0  0  0  1  0  0  0  0  0  0
  160.7510  210.3410  154.8300 C   0  0  0  0  0  2  0  0  0  0  0  0
  159.6770  212.4210  155.5250 N   0  0  0  0  0  0  0  0  0  0  0  0
  159.5700  211.1920  155.1460 C   0  0  0  0  0  0  0  0  0  0  0  0
  157.4590  211.8310  155.2910 C   0  0  0  0  0  0  0  0  0  0  0  0
  158.1910  210.7740  154.9720 C   0  0  0  0  0  3  0  0  0  0  0  0
  158.3400  212.9760  155.6800 C   0  0  0  0  0  2  0  0  0  0  0  0
  155.9620  211.8370  155.2310 C   0  0  0  0  0  2  0  0  0  0  0  0
  155.3830  210.4320  155.2140 C   0  0  0  0  0  1  0  0  0  0  0  0
  1 12  1  0  0  0  0
  1 17  2  0  0  0  0
  2 17  1  0  0  0  0
  2 13  1  0  0  0  0
  3 10  2  0  0  0  0
  4 15  1  0  0  0  0
  4 11  1  0  0  0  0
  5 15  2  0  0  0  0
  6  1  1  0  0  0  0
  8  2  2  0  0  0  0
  9  6  1  0  0  0  0
  9  8  1  0  0  0  0
 10  8  1  0  0  0  0
 10  7  1  0  0  0  0
 11 30  1  0  0  0  0
 12 16  1  6  0  0  0
 12  5  1  0  0  0  0
 13 11  2  0  0  0  0
 14  3  1  0  0  0  0
 14  9  2  0  0  0  0
 17  4  1  0  0  0  0
 18 12  1  0  0  0  0
 19 28  1  6  0  0  0
 19 21  1  0  0  0  0
 19 18  1  0  0  0  0
 21 25  2  0  0  0  0
 22 20  2  0  0  0  0
 23 24  2  0  0  0  0
 23 21  1  0  0  0  0
 24 22  1  0  0  0  0
 25 20  1  0  0  0  0
 26 29  1  0  0  0  0
 26 28  1  0  0  0  0
 27 26  2  0  0  0  0
 30 32  1  0  0  0  0
 31 35  1  0  0  0  0
 32 31  2  0  0  0  0
 33 35  1  0  0  0  0
 34 32  1  0  0  0  0
 34 33  2  0  0  0  0
 36 33  1  0  0  0  0
 37 36  1  0  0  0  0
M  END
>  <MODEL>
2

>  <REMARK>
 VINA RESULT:      -7.3      2.459      9.397
  Name = 
  7 active torsions:
  status: ('A' for Active; 'I' for Inactive)
    1  A    between atoms: C_5  and  C_6
    2  A    between atoms: C_6  and  O_19
    3  A    between atoms: C_6  and  N_36
    4  A    between atoms: C_8  and  C_13
    5  A    between atoms: C_11  and  C_22
    6  A    between atoms: O_19  and  C_28
    7  A    between atoms: C_22  and  C_27
                            x       y       z     vdW  Elec       q    Type
                         _______ _______ _______ _____ _____    ______ ____

>  <TORSDO>
F 7

$$$$
=
 OpenBabel11052411013D

 37 42  0  0  1  0  0  0  0  0999 V2000
  161.3740  207.3290  150.5050 C   0  0  0  0  0  0  0  0  0  0  0  0
  161.5750  209.4950  151.7490 C   0  0  0  0  0  0  0  0  0  0  0  0
  160.9720  208.6320  155.2240 N   0  0  0  0  0  0  0  0  0  0  0  0
  161.8830  209.4620  149.5440 N   0  0  0  0  0  0  0  0  0  0  0  0
  161.8330  207.6130  148.0340 C   0  0  0  0  0  3  0  0  0  0  0  0
  161.0440  206.4950  151.9680 S   0  0  0  0  0  0  0  0  0  0  0  0
  161.4510  210.9340  154.5520 N   0  0  0  0  0  1  0  0  0  0  0  0
  161.3140  208.9800  153.0240 C   0  0  0  0  0  0  0  0  0  0  0  0
  161.0550  207.5880  153.2650 C   0  0  0  0  0  0  0  0  0  0  0  0
  161.2470  209.5560  154.2700 C   0  0  0  0  0  0  0  0  0  0  0  0
  162.0510  210.7260  149.9910 C   0  0  0  0  0  0  0  0  0  0  0  0
  161.3740  206.6540  149.1440 C   0  0  2  0  0  0  0  0  0  0  0  0
  161.8580  210.8030  151.3710 C   0  0  0  0  0  3  0  0  0  0  0  0
  160.8520  207.4200  154.6170 C   0  0  0  0  0  3  0  0  0  0  0  0
  162.0470  208.9240  148.2300 C   0  0  0  0  0  3  0  0  0  0  0  0
  159.9320  206.2430  148.8530 C   0  0  0  0  0  1  0  0  0  0  0  0
  161.5940  208.7110  150.6040 C   0  0  0  0  0  0  0  0  0  0  0  0
  162.2240  205.5190  149.2290 O   0  0  0  0  0  0  0  0  0  0  0  0
  161.9890  204.6400  148.1520 C   0  0  1  0  0  3  0  0  0  0  0  0
  160.7080  201.0760  148.2440 C   0  0  0  0  0  3  0  0  0  0  0  0
  161.4200  203.3550  148.6660 C   0  0  0  0  0  0  0  0  0  0  0  0
  160.4080  200.9160  149.6010 C   0  0  0  0  0  3  0  0  0  0  0  0
  161.1270  203.1900  150.0290 C   0  0  0  0  0  3  0  0  0  0  0  0
  160.6180  201.9730  150.4930 C   0  0  0  0  0  3  0  0  0  0  0  0
  161.2150  202.2930  147.7790 C   0  0  0  0  0  3  0  0  0  0  0  0
  161.3070  205.2520  145.7840 C   0  0  0  0  0  0  0  0  0  0  0  0
  160.4290  205.7740  144.9960 N   0  0  0  0  0  2  0  0  0  0  0  0
  161.0770  205.2630  147.1940 N   0  0  0  0  0  2  0  0  0  0  0  0
  162.5580  204.6790  145.2090 C   0  0  0  0  0  1  0  0  0  0  0  0
  162.3550  211.8950  149.1110 C   0  0  0  0  0  2  0  0  0  0  0  0
  160.4020  213.3580  149.1920 N   0  0  0  0  0  0  0  0  0  0  0  0
  161.0930  212.4660  148.5650 C   0  0  1  0  0  3  0  0  0  0  0  0
  159.4810  212.9220  147.1220 C   0  0  0  0  0  0  0  0  0  0  0  0
  160.5610  212.1640  147.2490 C   0  0  0  0  0  3  0  0  0  0  0  0
  159.2770  213.7470  148.3530 C   0  0  0  0  0  3  0  0  0  0  0  0
  158.6300  212.9320  145.8890 C   0  0  0  0  0  2  0  0  0  0  0  0
  157.1970  212.5160  146.1780 C   0  0  0  0  0  1  0  0  0  0  0  0
  1 17  2  0  0  0  0
  1  6  1  0  0  0  0
  2  8  2  0  0  0  0
  4 11  1  0  0  0  0
  4 17  1  0  0  0  0
  5 15  2  0  0  0  0
  5 12  1  0  0  0  0
  6  9  1  0  0  0  0
  8  9  1  0  0  0  0
  8 10  1  0  0  0  0
  9 14  2  0  0  0  0
 10  7  1  0  0  0  0
 10  3  2  0  0  0  0
 11 13  2  0  0  0  0
 12 16  1  6  0  0  0
 12 18  1  0  0  0  0
 12  1  1  0  0  0  0
 13  2  1  0  0  0  0
 14  3  1  0  0  0  0
 15  4  1  0  0  0  0
 17  2  1  0  0  0  0
 19 28  1  6  0  0  0
 19 21  1  0  0  0  0
 19 18  1  0  0  0  0
 20 22  1  0  0  0  0
 21 23  2  0  0  0  0
 22 24  2  0  0  0  0
 23 24  1  0  0  0  0
 25 20  2  0  0  0  0
 25 21  1  0  0  0  0
 26 28  1  0  0  0  0
 27 26  2  0  0  0  0
 29 26  1  0  0  0  0
 30 11  1  0  0  0  0
 32 30  1  6  0  0  0
 32 31  1  0  0  0  0
 33 34  2  0  0  0  0
 33 35  1  0  0  0  0
 34 32  1  0  0  0  0
 35 31  2  0  0  0  0
 36 37  1  0  0  0  0
 36 33  1  0  0  0  0
M  END
>  <MODEL>
3

>  <REMARK>
 VINA RESULT:      -7.2      2.675      8.143
  Name = 
  7 active torsions:
  status: ('A' for Active; 'I' for Inactive)
    1  A    between atoms: C_5  and  C_6
    2  A    between atoms: C_6  and  O_19
    3  A    between atoms: C_6  and  N_36
    4  A    between atoms: C_8  and  C_13
    5  A    between atoms: C_11  and  C_22
    6  A    between atoms: O_19  and  C_28
    7  A    between atoms: C_22  and  C_27
                            x       y       z     vdW  Elec       q    Type
                         _______ _______ _______ _____ _____    ______ ____

>  <TORSDO>
F 7

$$$$
=
 OpenBabel11052411013D

 37 42  0  0  1  0  0  0  0  0999 V2000
  161.2660  207.1620  150.8100 C   0  0  0  0  0  0  0  0  0  0  0  0
  161.6190  209.3640  151.9540 C   0  0  0  0  0  0  0  0  0  0  0  0
  161.0730  208.6790  155.4780 N   0  0  0  0  0  0  0  0  0  0  0  0
  161.8590  209.2230  149.7450 N   0  0  0  0  0  0  0  0  0  0  0  0
  161.6670  207.3190  148.3170 C   0  0  0  0  0  3  0  0  0  0  0  0
  160.9350  206.4090  152.3160 S   0  0  0  0  0  0  0  0  0  0  0  0
  161.6530  210.9220  154.6950 N   0  0  0  0  0  1  0  0  0  0  0  0
  161.3680  208.9170  153.2560 C   0  0  0  0  0  0  0  0  0  0  0  0
  161.0430  207.5520  153.5640 C   0  0  0  0  0  0  0  0  0  0  0  0
  161.3680  209.5460  154.4780 C   0  0  0  0  0  0  0  0  0  0  0  0
  162.1080  210.4930  150.1320 C   0  0  0  0  0  0  0  0  0  0  0  0
  161.1900  206.4320  149.4800 C   0  0  2  0  0  0  0  0  0  0  0  0
  161.9590  210.6380  151.5130 C   0  0  0  0  0  3  0  0  0  0  0  0
  160.8700  207.4520  154.9270 C   0  0  0  0  0  3  0  0  0  0  0  0
  161.9560  208.6230  148.4510 C   0  0  0  0  0  3  0  0  0  0  0  0
  159.7200  206.0890  149.2460 C   0  0  0  0  0  1  0  0  0  0  0  0
  161.5620  208.5330  150.8430 C   0  0  0  0  0  0  0  0  0  0  0  0
  161.9800  205.2580  149.5890 O   0  0  0  0  0  0  0  0  0  0  0  0
  161.3380  204.1660  148.9720 C   0  0  1  0  0  3  0  0  0  0  0  0
  161.2290  203.3730  145.2690 C   0  0  0  0  0  3  0  0  0  0  0  0
  161.7230  204.1060  147.5280 C   0  0  0  0  0  0  0  0  0  0  0  0
  162.3820  204.0170  144.8070 C   0  0  0  0  0  3  0  0  0  0  0  0
  162.8740  204.7580  147.0610 C   0  0  0  0  0  3  0  0  0  0  0  0
  163.2040  204.7090  145.7020 C   0  0  0  0  0  3  0  0  0  0  0  0
  160.9000  203.4200  146.6270 C   0  0  0  0  0  3  0  0  0  0  0  0
  160.8170  201.8080  149.7580 C   0  0  0  0  0  0  0  0  0  0  0  0
  161.2280  200.7260  150.3290 N   0  0  0  0  0  2  0  0  0  0  0  0
  161.7010  202.9260  149.6560 N   0  0  0  0  0  2  0  0  0  0  0  0
  159.4180  201.8790  149.2460 C   0  0  0  0  0  1  0  0  0  0  0  0
  162.4470  211.6070  149.1960 C   0  0  0  0  0  2  0  0  0  0  0  0
  160.5350  213.1090  149.4230 N   0  0  0  0  0  0  0  0  0  0  0  0
  161.2030  212.2650  148.7100 C   0  0  1  0  0  3  0  0  0  0  0  0
  159.6070  212.9060  147.3200 C   0  0  0  0  0  0  0  0  0  0  0  0
  160.6650  212.1100  147.3710 C   0  0  0  0  0  3  0  0  0  0  0  0
  159.4230  213.6100  148.6280 C   0  0  0  0  0  3  0  0  0  0  0  0
  158.7590  213.0630  146.0950 C   0  0  0  0  0  2  0  0  0  0  0  0
  157.3670  212.4830  146.2830 C   0  0  0  0  0  1  0  0  0  0  0  0
  1 17  2  0  0  0  0
  1  6  1  0  0  0  0
  2  8  2  0  0  0  0
  4 11  1  0  0  0  0
  4 17  1  0  0  0  0
  5 15  2  0  0  0  0
  5 12  1  0  0  0  0
  6  9  1  0  0  0  0
  8  9  1  0  0  0  0
  8 10  1  0  0  0  0
  9 14  2  0  0  0  0
 10  7  1  0  0  0  0
 10  3  2  0  0  0  0
 11 13  2  0  0  0  0
 12 16  1  6  0  0  0
 12 18  1  0  0  0  0
 12  1  1  0  0  0  0
 13  2  1  0  0  0  0
 14  3  1  0  0  0  0
 15  4  1  0  0  0  0
 17  2  1  0  0  0  0
 19 18  1  1  0  0  0
 19 28  1  0  0  0  0
 20 25  1  0  0  0  0
 21 19  1  0  0  0  0
 22 20  2  0  0  0  0
 22 24  1  0  0  0  0
 23 21  1  0  0  0  0
 24 23  2  0  0  0  0
 25 21  2  0  0  0  0
 26 27  2  0  0  0  0
 28 26  1  0  0  0  0
 29 26  1  0  0  0  0
 30 11  1  0  0  0  0
 32 30  1  6  0  0  0
 32 31  1  0  0  0  0
 33 34  2  0  0  0  0
 33 35  1  0  0  0  0
 34 32  1  0  0  0  0
 35 31  2  0  0  0  0
 36 37  1  0  0  0  0
 36 33  1  0  0  0  0
M  END
>  <MODEL>
4

>  <REMARK>
 VINA RESULT:      -7.2      2.584      7.998
  Name = 
  7 active torsions:
  status: ('A' for Active; 'I' for Inactive)
    1  A    between atoms: C_5  and  C_6
    2  A    between atoms: C_6  and  O_19
    3  A    between atoms: C_6  and  N_36
    4  A    between atoms: C_8  and  C_13
    5  A    between atoms: C_11  and  C_22
    6  A    between atoms: O_19  and  C_28
    7  A    between atoms: C_22  and  C_27
                            x       y       z     vdW  Elec       q    Type
                         _______ _______ _______ _____ _____    ______ ____

>  <TORSDO>
F 7

$$$$
=
 OpenBabel11052411013D

 37 42  0  0  1  0  0  0  0  0999 V2000
  161.1790  208.8970  151.9810 C   0  0  0  0  0  0  0  0  0  0  0  0
  161.6750  208.3700  149.5810 C   0  0  0  0  0  0  0  0  0  0  0  0
  161.4250  204.7540  149.3540 N   0  0  0  0  0  0  0  0  0  0  0  0
  161.6750  210.4900  150.2620 N   0  0  0  0  0  0  0  0  0  0  0  0
  161.2010  211.3880  152.4240 C   0  0  0  0  0  3  0  0  0  0  0  0
  160.9600  207.2310  152.3240 S   0  0  0  0  0  0  0  0  0  0  0  0
  161.9760  206.1160  147.3980 N   0  0  0  0  0  1  0  0  0  0  0  0
  161.5420  206.9800  149.6860 C   0  0  0  0  0  0  0  0  0  0  0  0
  161.2030  206.3190  150.9150 C   0  0  0  0  0  0  0  0  0  0  0  0
  161.6620  205.9580  148.7750 C   0  0  0  0  0  0  0  0  0  0  0  0
  161.9550  210.4540  148.9410 C   0  0  0  0  0  0  0  0  0  0  0  0
  161.0970  209.9830  153.0400 C   0  0  2  0  0  0  0  0  0  0  0  0
  161.9770  209.1420  148.4660 C   0  0  0  0  0  3  0  0  0  0  0  0
  161.1430  204.9650  150.6680 C   0  0  0  0  0  3  0  0  0  0  0  0
  161.4910  211.6090  151.1320 C   0  0  0  0  0  3  0  0  0  0  0  0
  162.2900  209.7830  153.9730 C   0  0  0  0  0  1  0  0  0  0  0  0
  161.5040  209.2300  150.6580 C   0  0  0  0  0  0  0  0  0  0  0  0
  159.8700  209.8140  153.7330 O   0  0  0  0  0  0  0  0  0  0  0  0
  160.0740  209.8600  155.1270 C   0  0  1  0  0  3  0  0  0  0  0  0
  157.1030  212.0290  156.0320 C   0  0  0  0  0  3  0  0  0  0  0  0
  159.2610  210.9670  155.7190 C   0  0  0  0  0  0  0  0  0  0  0  0
  157.6950  212.9940  156.8540 C   0  0  0  0  0  3  0  0  0  0  0  0
  159.8520  211.9310  156.5520 C   0  0  0  0  0  3  0  0  0  0  0  0
  159.0690  212.9450  157.1140 C   0  0  0  0  0  3  0  0  0  0  0  0
  157.8850  211.0170  155.4680 C   0  0  0  0  0  3  0  0  0  0  0  0
  160.4910  207.9440  156.7410 C   0  0  0  0  0  0  0  0  0  0  0  0
  160.0780  206.8370  157.2600 N   0  0  0  0  0  2  0  0  0  0  0  0
  159.7110  208.5760  155.7240 N   0  0  0  0  0  2  0  0  0  0  0  0
  161.7900  208.5230  157.1900 C   0  0  0  0  0  1  0  0  0  0  0  0
  162.2520  211.6610  148.1120 C   0  0  0  0  0  2  0  0  0  0  0  0
  160.5380  212.0420  146.4160 N   0  0  0  0  0  0  0  0  0  0  0  0
  160.9860  212.2590  147.6060 C   0  0  1  0  0  3  0  0  0  0  0  0
  159.0520  213.3320  147.6210 C   0  0  0  0  0  0  0  0  0  0  0  0
  160.0800  213.0580  148.4110 C   0  0  0  0  0  3  0  0  0  0  0  0
  159.2550  212.7140  146.2730 C   0  0  0  0  0  3  0  0  0  0  0  0
  157.8660  214.1310  148.0680 C   0  0  0  0  0  2  0  0  0  0  0  0
  156.9680  213.3460  149.0090 C   0  0  0  0  0  1  0  0  0  0  0  0
  1  6  1  0  0  0  0
  1 12  1  0  0  0  0
  2  8  2  0  0  0  0
  2 17  1  0  0  0  0
  3 14  1  0  0  0  0
  4 17  1  0  0  0  0
  4 15  1  0  0  0  0
  5 12  1  0  0  0  0
  7 10  1  0  0  0  0
  8  9  1  0  0  0  0
  9  6  1  0  0  0  0
 10  3  2  0  0  0  0
 10  8  1  0  0  0  0
 11  4  1  0  0  0  0
 12 18  1  0  0  0  0
 12 16  1  1  0  0  0
 13 11  2  0  0  0  0
 13  2  1  0  0  0  0
 14  9  2  0  0  0  0
 15  5  2  0  0  0  0
 17  1  2  0  0  0  0
 19 18  1  6  0  0  0
 19 21  1  0  0  0  0
 19 28  1  0  0  0  0
 20 22  1  0  0  0  0
 21 23  2  0  0  0  0
 22 24  2  0  0  0  0
 23 24  1  0  0  0  0
 25 21  1  0  0  0  0
 25 20  2  0  0  0  0
 26 29  1  0  0  0  0
 26 27  2  0  0  0  0
 28 26  1  0  0  0  0
 30 11  1  0  0  0  0
 31 32  1  0  0  0  0
 32 30  1  1  0  0  0
 32 34  1  0  0  0  0
 33 36  1  0  0  0  0
 33 34  2  0  0  0  0
 35 31  2  0  0  0  0
 35 33  1  0  0  0  0
 36 37  1  0  0  0  0
M  END
>  <MODEL>
5

>  <REMARK>
 VINA RESULT:      -6.5      2.541      5.149
  Name = 
  7 active torsions:
  status: ('A' for Active; 'I' for Inactive)
    1  A    between atoms: C_5  and  C_6
    2  A    between atoms: C_6  and  O_19
    3  A    between atoms: C_6  and  N_36
    4  A    between atoms: C_8  and  C_13
    5  A    between atoms: C_11  and  C_22
    6  A    between atoms: O_19  and  C_28
    7  A    between atoms: C_22  and  C_27
                            x       y       z     vdW  Elec       q    Type
                         _______ _______ _______ _____ _____    ______ ____

>  <TORSDO>
F 7

$$$$
=
 OpenBabel11052411013D

 37 42  0  0  1  0  0  0  0  0999 V2000
  161.3740  208.4120  150.3580 C   0  0  0  0  0  0  0  0  0  0  0  0
  160.9550  210.6680  151.3670 C   0  0  0  0  0  0  0  0  0  0  0  0
  161.5830  213.0210  148.6730 N   0  0  0  0  0  0  0  0  0  0  0  0
  160.6850  208.8410  152.6110 N   0  0  0  0  0  0  0  0  0  0  0  0
  160.9280  206.5440  152.0050 C   0  0  0  0  0  3  0  0  0  0  0  0
  161.7580  209.1340  148.8500 S   0  0  0  0  0  0  0  0  0  0  0  0
  160.9040  213.7850  150.8950 N   0  0  0  0  0  1  0  0  0  0  0  0
  161.2440  211.4180  150.2210 C   0  0  0  0  0  0  0  0  0  0  0  0
  161.6260  210.8200  148.9720 C   0  0  0  0  0  0  0  0  0  0  0  0
  161.2390  212.7670  149.9600 C   0  0  0  0  0  0  0  0  0  0  0  0
  160.3940  209.9280  153.3590 C   0  0  0  0  0  0  0  0  0  0  0  0
  161.4570  206.9160  150.6100 C   0  0  2  0  0  0  0  0  0  0  0  0
  160.5590  211.1040  152.6260 C   0  0  0  0  0  3  0  0  0  0  0  0
  161.8240  211.8320  148.0580 C   0  0  0  0  0  3  0  0  0  0  0  0
  160.5920  207.4520  152.9350 C   0  0  0  0  0  3  0  0  0  0  0  0
  162.9350  206.5370  150.5440 C   0  0  0  0  0  1  0  0  0  0  0  0
  161.0260  209.2810  151.4020 C   0  0  0  0  0  0  0  0  0  0  0  0
  160.7150  206.2670  149.5880 O   0  0  0  0  0  0  0  0  0  0  0  0
  161.5540  205.4470  148.8070 C   0  0  1  0  0  3  0  0  0  0  0  0
  160.8980  201.7590  148.2430 C   0  0  0  0  0  3  0  0  0  0  0  0
  161.2470  204.0090  149.0790 C   0  0  0  0  0  0  0  0  0  0  0  0
  160.7290  201.2970  149.5530 C   0  0  0  0  0  3  0  0  0  0  0  0
  161.0880  203.5410  150.3930 C   0  0  0  0  0  3  0  0  0  0  0  0
  160.8240  202.1880  150.6270 C   0  0  0  0  0  3  0  0  0  0  0  0
  161.1580  203.1130  148.0080 C   0  0  0  0  0  3  0  0  0  0  0  0
  162.3490  205.4560  146.3950 C   0  0  0  0  0  0  0  0  0  0  0  0
  162.0920  205.7080  145.1560 N   0  0  0  0  0  2  0  0  0  0  0  0
  161.3690  205.7570  147.3900 N   0  0  0  0  0  2  0  0  0  0  0  0
  163.6770  204.8880  146.7660 C   0  0  0  0  0  1  0  0  0  0  0  0
  159.9980  209.8760  154.7990 C   0  0  0  0  0  2  0  0  0  0  0  0
  161.8820  209.0790  156.1310 N   0  0  0  0  0  0  0  0  0  0  0  0
  161.1930  210.0660  155.6660 C   0  0  0  0  0  0  0  0  0  0  0  0
  162.8440  211.0910  156.7210 C   0  0  0  0  0  0  0  0  0  0  0  0
  161.7640  211.3580  156.0000 C   0  0  0  0  0  3  0  0  0  0  0  0
  163.0130  209.6120  156.8760 C   0  0  0  0  0  2  0  0  0  0  0  0
  163.7500  212.1550  157.2610 C   0  0  0  0  0  2  0  0  0  0  0  0
  165.2120  211.7430  157.2090 C   0  0  0  0  0  1  0  0  0  0  0  0
  1 12  1  0  0  0  0
  1 17  2  0  0  0  0
  2 17  1  0  0  0  0
  2 13  1  0  0  0  0
  3 10  2  0  0  0  0
  4 15  1  0  0  0  0
  4 11  1  0  0  0  0
  5 15  2  0  0  0  0
  6  9  1  0  0  0  0
  6  1  1  0  0  0  0
  8  2  2  0  0  0  0
  9  8  1  0  0  0  0
 10  8  1  0  0  0  0
 10  7  1  0  0  0  0
 11 30  1  0  0  0  0
 12 16  1  6  0  0  0
 12  5  1  0  0  0  0
 13 11  2  0  0  0  0
 14  3  1  0  0  0  0
 14  9  2  0  0  0  0
 17  4  1  0  0  0  0
 18 12  1  0  0  0  0
 19 28  1  6  0  0  0
 19 21  1  0  0  0  0
 19 18  1  0  0  0  0
 20 22  1  0  0  0  0
 21 23  2  0  0  0  0
 22 24  2  0  0  0  0
 23 24  1  0  0  0  0
 25 20  2  0  0  0  0
 25 21  1  0  0  0  0
 26 29  1  0  0  0  0
 26 28  1  0  0  0  0
 27 26  2  0  0  0  0
 30 32  1  0  0  0  0
 31 35  1  0  0  0  0
 32 34  1  0  0  0  0
 32 31  2  0  0  0  0
 33 35  1  0  0  0  0
 33 36  1  0  0  0  0
 34 33  2  0  0  0  0
 37 36  1  0  0  0  0
M  END
>  <MODEL>
6

>  <REMARK>
 VINA RESULT:      -6.0      2.386      9.521
  Name = 
  7 active torsions:
  status: ('A' for Active; 'I' for Inactive)
    1  A    between atoms: C_5  and  C_6
    2  A    between atoms: C_6  and  O_19
    3  A    between atoms: C_6  and  N_36
    4  A    between atoms: C_8  and  C_13
    5  A    between atoms: C_11  and  C_22
    6  A    between atoms: O_19  and  C_28
    7  A    between atoms: C_22  and  C_27
                            x       y       z     vdW  Elec       q    Type
                         _______ _______ _______ _____ _____    ______ ____

>  <TORSDO>
F 7

$$$$
=
 OpenBabel11052411013D

 37 42  0  0  1  0  0  0  0  0999 V2000
  161.6600  209.3550  151.0880 C   0  0  0  0  0  0  0  0  0  0  0  0
  161.3050  206.8760  150.9870 C   0  0  0  0  0  0  0  0  0  0  0  0
  160.8850  205.8550  154.4470 N   0  0  0  0  0  0  0  0  0  0  0  0
  161.5970  208.0210  149.1000 N   0  0  0  0  0  0  0  0  0  0  0  0
  161.9030  210.3680  148.7830 C   0  0  0  0  0  3  0  0  0  0  0  0
  161.5190  209.3260  152.7980 S   0  0  0  0  0  0  0  0  0  0  0  0
  160.7870  204.2290  152.6210 N   0  0  0  0  0  1  0  0  0  0  0  0
  161.1740  206.6700  152.3660 C   0  0  0  0  0  0  0  0  0  0  0  0
  161.2470  207.7380  153.3240 C   0  0  0  0  0  0  0  0  0  0  0  0
  160.9500  205.5490  153.1270 C   0  0  0  0  0  0  0  0  0  0  0  0
  161.4160  206.7170  148.7970 C   0  0  0  0  0  0  0  0  0  0  0  0
  161.9710  210.6160  150.2990 C   0  0  2  0  0  0  0  0  0  0  0  0
  161.2380  205.9520  149.9510 C   0  0  0  0  0  3  0  0  0  0  0  0
  161.0670  207.1960  154.5780 C   0  0  0  0  0  3  0  0  0  0  0  0
  161.7490  209.1510  148.2380 C   0  0  0  0  0  3  0  0  0  0  0  0
  163.4010  211.0180  150.6540 C   0  0  0  0  0  1  0  0  0  0  0  0
  161.5310  208.1250  150.4260 C   0  0  0  0  0  0  0  0  0  0  0  0
  161.0430  211.6120  150.7010 O   0  0  0  0  0  0  0  0  0  0  0  0
  160.5420  212.3060  149.5800 C   0  0  1  0  0  3  0  0  0  0  0  0
  157.1320  213.9290  149.2880 C   0  0  0  0  0  3  0  0  0  0  0  0
  159.2780  213.0150  149.9510 C   0  0  0  0  0  0  0  0  0  0  0  0
  156.8740  214.2920  150.6150 C   0  0  0  0  0  3  0  0  0  0  0  0
  159.0140  213.3710  151.2830 C   0  0  0  0  0  3  0  0  0  0  0  0
  157.8150  214.0120  151.6120 C   0  0  0  0  0  3  0  0  0  0  0  0
  158.3310  213.2900  148.9580 C   0  0  0  0  0  3  0  0  0  0  0  0
  161.7160  213.5640  147.7130 C   0  0  0  0  0  0  0  0  0  0  0  0
  162.5840  214.4530  147.3660 N   0  0  0  0  0  2  0  0  0  0  0  0
  161.5440  213.2550  149.0970 N   0  0  0  0  0  2  0  0  0  0  0  0
  160.9350  212.8540  146.6600 C   0  0  0  0  0  1  0  0  0  0  0  0
  161.4530  206.1630  147.4100 C   0  0  0  0  0  2  0  0  0  0  0  0
  161.4750  203.9360  146.4100 N   0  0  0  0  0  0  0  0  0  0  0  0
  161.2880  204.6840  147.4450 C   0  0  1  0  0  3  0  0  0  0  0  0
  161.0060  202.6510  148.2670 C   0  0  0  0  0  0  0  0  0  0  0  0
  161.0010  203.9210  148.6460 C   0  0  0  0  0  3  0  0  0  0  0  0
  161.3010  202.5460  146.8040 C   0  0  0  0  0  3  0  0  0  0  0  0
  160.7670  201.5140  149.2140 C   0  0  0  0  0  2  0  0  0  0  0  0
  160.9150  201.9370  150.6650 C   0  0  0  0  0  1  0  0  0  0  0  0
  1  6  1  0  0  0  0
  2  8  2  0  0  0  0
  3 14  1  0  0  0  0
  4 17  1  0  0  0  0
  5 12  1  0  0  0  0
  6  9  1  0  0  0  0
  7 10  1  0  0  0  0
  8 10  1  0  0  0  0
  8  9  1  0  0  0  0
  9 14  2  0  0  0  0
 10  3  2  0  0  0  0
 11  4  1  0  0  0  0
 11 13  2  0  0  0  0
 12 16  1  1  0  0  0
 12 18  1  0  0  0  0
 12  1  1  0  0  0  0
 13  2  1  0  0  0  0
 15  5  2  0  0  0  0
 15  4  1  0  0  0  0
 17  2  1  0  0  0  0
 17  1  2  0  0  0  0
 19 28  1  1  0  0  0
 19 21  1  0  0  0  0
 19 18  1  0  0  0  0
 20 22  1  0  0  0  0
 21 23  2  0  0  0  0
 22 24  2  0  0  0  0
 23 24  1  0  0  0  0
 25 20  2  0  0  0  0
 25 21  1  0  0  0  0
 26 28  1  0  0  0  0
 27 26  2  0  0  0  0
 29 26  1  0  0  0  0
 30 11  1  0  0  0  0
 31 35  2  0  0  0  0
 31 32  1  0  0  0  0
 32 30  1  1  0  0  0
 32 34  1  0  0  0  0
 33 34  2  0  0  0  0
 33 36  1  0  0  0  0
 35 33  1  0  0  0  0
 36 37  1  0  0  0  0
M  END
>  <MODEL>
7

>  <REMARK>
 VINA RESULT:      -4.9      2.518      3.778
  Name = 
  7 active torsions:
  status: ('A' for Active; 'I' for Inactive)
    1  A    between atoms: C_5  and  C_6
    2  A    between atoms: C_6  and  O_19
    3  A    between atoms: C_6  and  N_36
    4  A    between atoms: C_8  and  C_13
    5  A    between atoms: C_11  and  C_22
    6  A    between atoms: O_19  and  C_28
    7  A    between atoms: C_22  and  C_27
                            x       y       z     vdW  Elec       q    Type
                         _______ _______ _______ _____ _____    ______ ____

>  <TORSDO>
F 7

$$$$
=
 OpenBabel11052411013D

 37 42  0  0  1  0  0  0  0  0999 V2000
  160.3180  212.6670  150.3770 C   0  0  0  0  0  0  0  0  0  0  0  0
  160.4350  210.9960  152.2420 C   0  0  0  0  0  0  0  0  0  0  0  0
  158.4430  212.4420  154.9110 N   0  0  0  0  0  0  0  0  0  0  0  0
  161.4880  210.5780  150.3250 N   0  0  0  0  0  0  0  0  0  0  0  0
  161.5660  211.8770  148.3230 C   0  0  0  0  0  3  0  0  0  0  0  0
  159.3200  213.6890  151.3270 S   0  0  0  0  0  0  0  0  0  0  0  0
  159.5420  210.2740  155.1780 N   0  0  0  0  0  1  0  0  0  0  0  0
  159.6420  211.7060  153.1510 C   0  0  0  0  0  0  0  0  0  0  0  0
  159.0520  212.9790  152.8440 C   0  0  0  0  0  0  0  0  0  0  0  0
  159.2240  211.4420  154.4330 C   0  0  0  0  0  0  0  0  0  0  0  0
  161.6830  209.5400  151.1670 C   0  0  0  0  0  0  0  0  0  0  0  0
  160.8030  213.0360  148.9850 C   0  0  2  0  0  0  0  0  0  0  0  0
  161.0500  209.7580  152.3920 C   0  0  0  0  0  3  0  0  0  0  0  0
  158.3310  213.3910  153.9440 C   0  0  0  0  0  3  0  0  0  0  0  0
  161.8960  210.7450  148.9660 C   0  0  0  0  0  3  0  0  0  0  0  0
  161.7670  214.2090  149.1490 C   0  0  0  0  0  1  0  0  0  0  0  0
  160.7320  211.4640  150.9690 C   0  0  0  0  0  0  0  0  0  0  0  0
  159.6660  213.4090  148.2200 O   0  0  0  0  0  0  0  0  0  0  0  0
  159.9050  213.2110  146.8450 C   0  0  1  0  0  3  0  0  0  0  0  0
  157.7220  214.3430  143.9640 C   0  0  0  0  0  3  0  0  0  0  0  0
  158.6960  213.6140  146.0620 C   0  0  0  0  0  0  0  0  0  0  0  0
  156.4490  214.3220  144.5450 C   0  0  0  0  0  3  0  0  0  0  0  0
  157.4180  213.5830  146.6400 C   0  0  0  0  0  3  0  0  0  0  0  0
  156.2970  213.9410  145.8830 C   0  0  0  0  0  3  0  0  0  0  0  0
  158.8420  213.9880  144.7210 C   0  0  0  0  0  3  0  0  0  0  0  0
  161.8910  213.6180  145.3170 C   0  0  0  0  0  0  0  0  0  0  0  0
  162.8740  214.3820  144.9740 N   0  0  0  0  0  2  0  0  0  0  0  0
  161.0730  213.9850  146.4290 N   0  0  0  0  0  2  0  0  0  0  0  0
  161.6510  212.3530  144.5650 C   0  0  0  0  0  1  0  0  0  0  0  0
  162.5120  208.3400  150.8450 C   0  0  0  0  0  2  0  0  0  0  0  0
  161.1120  207.5730  148.9980 N   0  0  0  0  0  0  0  0  0  0  0  0
  161.6910  207.3280  150.1250 C   0  0  1  0  0  3  0  0  0  0  0  0
  160.7980  205.3720  149.6120 C   0  0  0  0  0  0  0  0  0  0  0  0
  161.5330  205.9490  150.5510 C   0  0  0  0  0  3  0  0  0  0  0  0
  160.4560  206.3570  148.5390 C   0  0  0  0  0  3  0  0  0  0  0  0
  160.4090  203.9250  149.6520 C   0  0  0  0  0  2  0  0  0  0  0  0
  161.2570  203.0790  148.7170 C   0  0  0  0  0  1  0  0  0  0  0  0
  1 17  2  0  0  0  0
  1  6  1  0  0  0  0
  2 13  1  0  0  0  0
  2  8  2  0  0  0  0
  4 17  1  0  0  0  0
  4 11  1  0  0  0  0
  5 15  2  0  0  0  0
  5 12  1  0  0  0  0
  6  9  1  0  0  0  0
  8 10  1  0  0  0  0
  9  8  1  0  0  0  0
  9 14  2  0  0  0  0
 10  3  2  0  0  0  0
 10  7  1  0  0  0  0
 11 13  2  0  0  0  0
 12 16  1  1  0  0  0
 12  1  1  0  0  0  0
 14  3  1  0  0  0  0
 15  4  1  0  0  0  0
 17  2  1  0  0  0  0
 18 12  1  0  0  0  0
 19 28  1  6  0  0  0
 19 18  1  0  0  0  0
 20 22  2  0  0  0  0
 20 25  1  0  0  0  0
 21 23  1  0  0  0  0
 21 19  1  0  0  0  0
 22 24  1  0  0  0  0
 24 23  2  0  0  0  0
 25 21  2  0  0  0  0
 26 28  1  0  0  0  0
 27 26  2  0  0  0  0
 29 26  1  0  0  0  0
 30 11  1  0  0  0  0
 31 32  1  0  0  0  0
 32 34  1  0  0  0  0
 32 30  1  6  0  0  0
 33 36  1  0  0  0  0
 33 34  2  0  0  0  0
 35 31  2  0  0  0  0
 35 33  1  0  0  0  0
 37 36  1  0  0  0  0
M  END
>  <MODEL>
8

>  <REMARK>
 VINA RESULT:      -4.8      4.104      6.986
  Name = 
  7 active torsions:
  status: ('A' for Active; 'I' for Inactive)
    1  A    between atoms: C_5  and  C_6
    2  A    between atoms: C_6  and  O_19
    3  A    between atoms: C_6  and  N_36
    4  A    between atoms: C_8  and  C_13
    5  A    between atoms: C_11  and  C_22
    6  A    between atoms: O_19  and  C_28
    7  A    between atoms: C_22  and  C_27
                            x       y       z     vdW  Elec       q    Type
                         _______ _______ _______ _____ _____    ______ ____

>  <TORSDO>
F 7

$$$$
=
 OpenBabel11052411013D

 37 42  0  0  1  0  0  0  0  0999 V2000
  161.6040  210.5600  150.4370 C   0  0  0  0  0  0  0  0  0  0  0  0
  161.3400  208.2770  151.4400 C   0  0  0  0  0  0  0  0  0  0  0  0
  160.7630  208.8760  154.9740 N   0  0  0  0  0  0  0  0  0  0  0  0
  161.6980  208.4810  149.2520 N   0  0  0  0  0  0  0  0  0  0  0  0
  161.9410  210.4560  147.9320 C   0  0  0  0  0  3  0  0  0  0  0  0
  161.3690  211.2850  151.9740 S   0  0  0  0  0  0  0  0  0  0  0  0
  160.8240  206.6070  154.0630 N   0  0  0  0  0  1  0  0  0  0  0  0
  161.1400  208.6980  152.7600 C   0  0  0  0  0  0  0  0  0  0  0  0
  161.1220  210.0820  153.1440 C   0  0  0  0  0  0  0  0  0  0  0  0
  160.9120  208.0200  153.9330 C   0  0  0  0  0  0  0  0  0  0  0  0
  161.5790  207.1700  149.5560 C   0  0  0  0  0  0  0  0  0  0  0  0
  161.9150  211.3540  149.1800 C   0  0  2  0  0  0  0  0  0  0  0  0
  161.3640  206.9870  150.9220 C   0  0  0  0  0  3  0  0  0  0  0  0
  160.8910  210.1450  154.5010 C   0  0  0  0  0  3  0  0  0  0  0  0
  161.8590  209.1180  147.9820 C   0  0  0  0  0  3  0  0  0  0  0  0
  163.3080  211.9510  149.3670 C   0  0  0  0  0  1  0  0  0  0  0  0
  161.5550  209.1580  150.3880 C   0  0  0  0  0  0  0  0  0  0  0  0
  160.9320  212.3720  149.0620 O   0  0  0  0  0  0  0  0  0  0  0  0
  160.6090  212.5980  147.7090 C   0  0  1  0  0  3  0  0  0  0  0  0
  157.1890  213.4320  146.3100 C   0  0  0  0  0  3  0  0  0  0  0  0
  159.2160  213.1350  147.6070 C   0  0  0  0  0  0  0  0  0  0  0  0
  156.5870  214.0780  147.3950 C   0  0  0  0  0  3  0  0  0  0  0  0
  158.6080  213.7750  148.6980 C   0  0  0  0  0  3  0  0  0  0  0  0
  157.2960  214.2500  148.5890 C   0  0  0  0  0  3  0  0  0  0  0  0
  158.5000  212.9600  146.4170 C   0  0  0  0  0  3  0  0  0  0  0  0
  161.8630  213.5640  145.7230 C   0  0  0  0  0  0  0  0  0  0  0  0
  162.6790  214.4530  145.2680 N   0  0  0  0  0  2  0  0  0  0  0  0
  161.5680  213.5320  147.1210 N   0  0  0  0  0  2  0  0  0  0  0  0
  161.2700  212.5670  144.7860 C   0  0  0  0  0  1  0  0  0  0  0  0
  161.7130  206.0610  148.5630 C   0  0  0  0  0  2  0  0  0  0  0  0
  161.4290  204.5810  150.4840 N   0  0  0  0  0  0  0  0  0  0  0  0
  161.3920  204.7570  149.2060 C   0  0  0  0  0  0  0  0  0  0  0  0
  160.6810  202.6750  149.4220 C   0  0  0  0  0  0  0  0  0  0  0  0
  160.9150  203.5880  148.4910 C   0  0  0  0  0  3  0  0  0  0  0  0
  160.9940  203.2230  150.7780 C   0  0  0  0  0  2  0  0  0  0  0  0
  160.1530  201.3070  149.1120 C   0  0  0  0  0  2  0  0  0  0  0  0
  161.2490  200.3600  148.6560 C   0  0  0  0  0  1  0  0  0  0  0  0
  1  6  1  0  0  0  0
  2  8  2  0  0  0  0
  4 11  1  0  0  0  0
  4 17  1  0  0  0  0
  5 15  2  0  0  0  0
  5 12  1  0  0  0  0
  6  9  1  0  0  0  0
  8  9  1  0  0  0  0
  8 10  1  0  0  0  0
  9 14  2  0  0  0  0
 10  7  1  0  0  0  0
 10  3  2  0  0  0  0
 11 13  2  0  0  0  0
 12 16  1  1  0  0  0
 12  1  1  0  0  0  0
 13  2  1  0  0  0  0
 14  3  1  0  0  0  0
 15  4  1  0  0  0  0
 17  1  2  0  0  0  0
 17  2  1  0  0  0  0
 18 12  1  0  0  0  0
 19 28  1  1  0  0  0
 19 18  1  0  0  0  0
 20 25  2  0  0  0  0
 20 22  1  0  0  0  0
 21 19  1  0  0  0  0
 21 23  2  0  0  0  0
 22 24  2  0  0  0  0
 24 23  1  0  0  0  0
 25 21  1  0  0  0  0
 26 28  1  0  0  0  0
 27 26  2  0  0  0  0
 29 26  1  0  0  0  0
 30 32  1  0  0  0  0
 30 11  1  0  0  0  0
 31 35  1  0  0  0  0
 32 31  2  0  0  0  0
 33 35  1  0  0  0  0
 34 32  1  0  0  0  0
 34 33  2  0  0  0  0
 36 33  1  0  0  0  0
 37 36  1  0  0  0  0
M  END
>  <MODEL>
9

>  <REMARK>
 VINA RESULT:      -4.8      3.309      5.409
  Name = 
  7 active torsions:
  status: ('A' for Active; 'I' for Inactive)
    1  A    between atoms: C_5  and  C_6
    2  A    between atoms: C_6  and  O_19
    3  A    between atoms: C_6  and  N_36
    4  A    between atoms: C_8  and  C_13
    5  A    between atoms: C_11  and  C_22
    6  A    between atoms: O_19  and  C_28
    7  A    between atoms: C_22  and  C_27
                            x       y       z     vdW  Elec       q    Type
                         _______ _______ _______ _____ _____    ______ ____

>  <TORSDO>
F 7

$$$$
