=
 OpenBabel11052411013D

 37 40  0  0  1  0  0  0  0  0999 V2000
  160.9610  206.7030  149.7390 C   0  0  0  0  0  0  0  0  0  0  0  0
  162.5900  210.1650  151.5440 F   0  0  0  0  0  0  0  0  0  0  0  0
  160.8110  206.9560  151.0370 C   0  0  0  0  0  3  0  0  0  0  0  0
  162.0220  209.0890  150.9400 C   0  0  0  0  0  0  0  0  0  0  0  0
  161.6790  207.6610  148.8760 C   0  0  0  0  0  0  0  0  0  0  0  0
  161.3340  208.1850  151.6680 C   0  0  0  0  0  0  0  0  0  0  0  0
  161.8440  207.4020  147.6530 O   0  0  0  0  0  0  0  0  0  0  0  0
  162.2580  208.9300  149.4560 C   0  0  1  0  0  3  0  0  0  0  0  0
  160.4920  209.0880  155.1740 C   0  0  0  0  0  0  0  0  0  0  0  0
  160.4970  209.5050  153.8020 C   0  0  0  0  0  0  0  0  0  0  0  0
  159.2870  211.1930  155.7090 C   0  0  0  0  0  3  0  0  0  0  0  0
  159.9090  209.9250  156.2720 C   0  0  0  0  0  2  0  0  0  0  0  0
  159.8970  210.6160  153.3780 C   0  0  0  0  0  3  0  0  0  0  0  0
  161.3490  207.4480  154.0000 N   0  0  0  0  0  0  0  0  0  0  0  0
  160.9760  207.8970  155.2820 N   0  0  0  0  0  0  0  0  0  0  0  0
  159.2810  211.5000  154.3940 C   0  0  0  0  0  3  0  0  0  0  0  0
  161.0950  208.3680  153.1150 C   0  0  0  0  0  0  0  0  0  0  0  0
  162.5320  211.2130  148.5770 C   0  0  0  0  0  3  0  0  0  0  0  0
  161.7580  210.1480  148.7460 C   0  0  0  0  0  3  0  0  0  0  0  0
  162.7890  213.4510  147.9160 O   0  0  0  0  0  0  0  0  0  0  0  0
  162.0480  212.4330  147.9240 C   0  0  0  0  0  0  0  0  0  0  0  0
  160.6640  212.5110  147.3430 C   0  0  1  0  0  3  0  0  0  0  0  0
  159.9310  213.4840  148.0200 O   0  0  0  0  0  1  0  0  0  0  0  0
  160.6980  212.8510  145.8610 C   0  0  0  0  0  2  0  0  0  0  0  0
  158.7610  213.3160  144.5670 O   0  0  0  0  0  0  0  0  0  0  0  0
  159.4970  212.2640  145.1420 C   0  0  1  0  0  3  0  0  0  0  0  0
  159.5820  212.5710  143.7000 C   0  0  0  0  0  2  0  0  0  0  0  0
  160.4520  205.4130  149.1890 C   0  0  0  0  0  2  0  0  0  0  0  0
  160.7930  204.3280  150.0970 N   0  0  0  0  0  2  0  0  0  0  0  0
  161.0840  203.1440  149.3010 C   0  0  0  0  0  2  0  0  0  0  0  0
  161.5070  203.5510  147.8970 C   0  0  0  0  0  2  0  0  0  0  0  0
  161.0910  202.4940  146.8900 C   0  0  0  0  0  2  0  0  0  0  0  0
  161.1460  203.0800  145.4880 C   0  0  0  0  0  2  0  0  0  0  0  0
  161.8470  204.4240  145.5110 C   0  0  0  0  0  2  0  0  0  0  0  0
  160.1270  206.0350  145.1650 O   0  0  0  0  0  1  0  0  0  0  0  0
  161.0900  205.3930  144.6700 C   0  0  0  0  0  0  0  0  0  0  0  0
  161.4710  205.6210  143.3510 O   0  0  0  0  0  0  0  0  0  0  0  0
  1  3  2  0  0  0  0
  3  6  1  0  0  0  0
  4  2  1  0  0  0  0
  4  6  2  0  0  0  0
  5  8  1  0  0  0  0
  5  1  1  0  0  0  0
  6 17  1  0  0  0  0
  7  5  2  0  0  0  0
  8 19  1  6  0  0  0
  8  4  1  0  0  0  0
  9 15  2  0  0  0  0
  9 12  1  0  0  0  0
 10  9  1  0  0  0  0
 11 12  1  0  0  0  0
 13 10  2  0  0  0  0
 13 16  1  0  0  0  0
 14 15  1  0  0  0  0
 16 11  2  0  0  0  0
 17 10  1  0  0  0  0
 17 14  2  0  0  0  0
 18 19  2  0  0  0  0
 20 21  2  0  0  0  0
 21 18  1  0  0  0  0
 22 21  1  0  0  0  0
 22 23  1  1  0  0  0
 24 22  1  0  0  0  0
 25 26  1  0  0  0  0
 26 24  1  1  0  0  0
 27 25  1  0  0  0  0
 27 26  1  0  0  0  0
 28  1  1  0  0  0  0
 28 29  1  0  0  0  0
 30 29  1  0  0  0  0
 31 30  1  0  0  0  0
 32 31  1  0  0  0  0
 33 34  1  0  0  0  0
 33 32  1  0  0  0  0
 36 35  1  0  0  0  0
 36 34  1  0  0  0  0
 37 36  2  0  0  0  0
M  END
>  <MODEL>
1

>  <REMARK>
 VINA RESULT:      -7.8      0.000      0.000
  Name = 
  14 active torsions:
  status: ('A' for Active; 'I' for Inactive)
    1  A    between atoms: C_3  and  C_9
    2  A    between atoms: C_6  and  C_28
    3  A    between atoms: C_8  and  C_30
    4  A    between atoms: C_8  and  C_37
    5  A    between atoms: C_9  and  N_13
    6  A    between atoms: N_13  and  C_20
    7  A    between atoms: C_15  and  C_33
    8  A    between atoms: C_16  and  C_30
    9  A    between atoms: C_20  and  C_35
   10  A    between atoms: C_22  and  C_32
   11  A    between atoms: C_24  and  C_28
   12  A    between atoms: C_24  and  C_33
   13  A    between atoms: C_26  and  C_34
   14  A    between atoms: C_35  and  C_37
                            x       y       z     vdW  Elec       q    Type
                         _______ _______ _______ _____ _____    ______ ____

>  <TORSDO>
F 14

$$$$
=
 OpenBabel11052411013D

 37 40  0  0  1  0  0  0  0  0999 V2000
  161.6680  208.1630  150.2710 C   0  0  0  0  0  0  0  0  0  0  0  0
  161.3070  206.1460  153.9740 F   0  0  0  0  0  0  0  0  0  0  0  0
  161.4730  206.8480  150.3400 C   0  0  0  0  0  3  0  0  0  0  0  0
  161.3650  206.8150  152.7920 C   0  0  0  0  0  0  0  0  0  0  0  0
  161.7250  208.9680  151.5080 C   0  0  0  0  0  0  0  0  0  0  0  0
  161.2980  206.1400  151.6260 C   0  0  0  0  0  0  0  0  0  0  0  0
  161.9400  210.2090  151.4380 O   0  0  0  0  0  0  0  0  0  0  0  0
  161.5740  208.3100  152.8590 C   0  0  1  0  0  3  0  0  0  0  0  0
  160.8120  202.5100  150.9930 C   0  0  0  0  0  0  0  0  0  0  0  0
  160.9950  203.8090  150.4140 C   0  0  0  0  0  0  0  0  0  0  0  0
  160.9380  201.5740  148.6970 C   0  0  0  0  0  3  0  0  0  0  0  0
  160.7300  201.2610  150.1690 C   0  0  0  0  0  2  0  0  0  0  0  0
  161.2080  204.0020  149.1130 C   0  0  0  0  0  3  0  0  0  0  0  0
  160.9770  203.9410  152.6450 N   0  0  0  0  0  0  0  0  0  0  0  0
  160.8120  202.5900  152.2810 N   0  0  0  0  0  0  0  0  0  0  0  0
  161.1580  202.8200  148.2220 C   0  0  0  0  0  3  0  0  0  0  0  0
  161.0730  204.6800  151.5790 C   0  0  0  0  0  0  0  0  0  0  0  0
  160.7150  209.5640  154.7950 C   0  0  0  0  0  3  0  0  0  0  0  0
  160.4690  208.9240  153.6590 C   0  0  0  0  0  3  0  0  0  0  0  0
  159.6460  209.9120  156.8560 O   0  0  0  0  0  0  0  0  0  0  0  0
  159.6440  210.1350  155.6170 C   0  0  0  0  0  0  0  0  0  0  0  0
  158.5100  210.9050  154.9980 C   0  0  1  0  0  3  0  0  0  0  0  0
  157.6380  211.3310  155.9980 O   0  0  0  0  0  1  0  0  0  0  0  0
  159.0120  212.1120  154.2230 C   0  0  0  0  0  2  0  0  0  0  0  0
  158.2330  213.2600  152.2950 O   0  0  0  0  0  0  0  0  0  0  0  0
  158.6570  211.9990  152.7520 C   0  0  1  0  0  3  0  0  0  0  0  0
  159.5440  212.8730  151.9580 C   0  0  0  0  0  2  0  0  0  0  0  0
  161.8920  208.7940  148.9380 C   0  0  0  0  0  2  0  0  0  0  0  0
  161.4490  207.8860  147.8900 N   0  0  0  0  0  2  0  0  0  0  0  0
  162.5180  206.9300  147.6360 C   0  0  0  0  0  2  0  0  0  0  0  0
  162.2120  206.1270  146.3800 C   0  0  0  0  0  2  0  0  0  0  0  0
  160.7270  206.1710  146.0700 C   0  0  0  0  0  2  0  0  0  0  0  0
  160.4530  205.3930  144.7940 C   0  0  0  0  0  2  0  0  0  0  0  0
  161.0860  204.0170  144.8740 C   0  0  0  0  0  2  0  0  0  0  0  0
  158.9590  203.2720  144.1030 O   0  0  0  0  0  0  0  0  0  0  0  0
  160.0390  202.9760  144.6790 C   0  0  0  0  0  0  0  0  0  0  0  0
  160.2670  201.6680  145.0970 O   0  0  0  0  0  1  0  0  0  0  0  0
  1  3  2  0  0  0  0
  1  5  1  0  0  0  0
  3  6  1  0  0  0  0
  4  8  1  0  0  0  0
  4  2  1  0  0  0  0
  5  8  1  0  0  0  0
  6  4  2  0  0  0  0
  7  5  2  0  0  0  0
  8 19  1  6  0  0  0
  9 15  2  0  0  0  0
 10  9  1  0  0  0  0
 10 17  1  0  0  0  0
 11 12  1  0  0  0  0
 12  9  1  0  0  0  0
 13 10  2  0  0  0  0
 15 14  1  0  0  0  0
 16 11  2  0  0  0  0
 16 13  1  0  0  0  0
 17  6  1  0  0  0  0
 17 14  2  0  0  0  0
 18 21  1  0  0  0  0
 19 18  2  0  0  0  0
 21 20  2  0  0  0  0
 22 21  1  0  0  0  0
 22 23  1  1  0  0  0
 24 22  1  0  0  0  0
 25 26  1  0  0  0  0
 26 24  1  1  0  0  0
 27 25  1  0  0  0  0
 27 26  1  0  0  0  0
 28  1  1  0  0  0  0
 29 28  1  0  0  0  0
 30 29  1  0  0  0  0
 31 30  1  0  0  0  0
 32 31  1  0  0  0  0
 33 34  1  0  0  0  0
 33 32  1  0  0  0  0
 35 36  2  0  0  0  0
 36 34  1  0  0  0  0
 36 37  1  0  0  0  0
M  END
>  <MODEL>
2

>  <REMARK>
 VINA RESULT:      -7.6      3.221      6.277
  Name = 
  14 active torsions:
  status: ('A' for Active; 'I' for Inactive)
    1  A    between atoms: C_3  and  C_9
    2  A    between atoms: C_6  and  C_28
    3  A    between atoms: C_8  and  C_30
    4  A    between atoms: C_8  and  C_37
    5  A    between atoms: C_9  and  N_13
    6  A    between atoms: N_13  and  C_20
    7  A    between atoms: C_15  and  C_33
    8  A    between atoms: C_16  and  C_30
    9  A    between atoms: C_20  and  C_35
   10  A    between atoms: C_22  and  C_32
   11  A    between atoms: C_24  and  C_28
   12  A    between atoms: C_24  and  C_33
   13  A    between atoms: C_26  and  C_34
   14  A    between atoms: C_35  and  C_37
                            x       y       z     vdW  Elec       q    Type
                         _______ _______ _______ _____ _____    ______ ____

>  <TORSDO>
F 14

$$$$
=
 OpenBabel11052411013D

 37 40  0  0  1  0  0  0  0  0999 V2000
  161.0240  206.4560  149.7000 C   0  0  0  0  0  0  0  0  0  0  0  0
  162.6210  209.9630  151.4460 F   0  0  0  0  0  0  0  0  0  0  0  0
  160.8550  206.7400  150.9890 C   0  0  0  0  0  3  0  0  0  0  0  0
  162.0630  208.8720  150.8600 C   0  0  0  0  0  0  0  0  0  0  0  0
  161.7530  207.3960  148.8250 C   0  0  0  0  0  0  0  0  0  0  0  0
  161.3660  207.9840  151.5990 C   0  0  0  0  0  0  0  0  0  0  0  0
  161.9360  207.1080  147.6110 O   0  0  0  0  0  0  0  0  0  0  0  0
  162.3210  208.6790  149.3840 C   0  0  1  0  0  3  0  0  0  0  0  0
  160.4730  208.9680  155.0700 C   0  0  0  0  0  0  0  0  0  0  0  0
  160.4980  209.3530  153.6890 C   0  0  0  0  0  0  0  0  0  0  0  0
  159.2600  211.0830  155.5390 C   0  0  0  0  0  3  0  0  0  0  0  0
  159.8740  209.8300  156.1400 C   0  0  0  0  0  2  0  0  0  0  0  0
  159.9050  210.4530  153.2310 C   0  0  0  0  0  3  0  0  0  0  0  0
  161.3470  207.3010  153.9470 N   0  0  0  0  0  0  0  0  0  0  0  0
  160.9550  207.7790  155.2130 N   0  0  0  0  0  0  0  0  0  0  0  0
  159.2740  211.3610  154.2170 C   0  0  0  0  0  3  0  0  0  0  0  0
  161.1070  208.2000  153.0380 C   0  0  0  0  0  0  0  0  0  0  0  0
  162.5410  210.9990  148.5890 C   0  0  0  0  0  3  0  0  0  0  0  0
  161.8290  209.8790  148.6380 C   0  0  0  0  0  3  0  0  0  0  0  0
  162.8080  213.2100  147.8480 O   0  0  0  0  0  0  0  0  0  0  0  0
  162.0570  212.2000  147.9020 C   0  0  0  0  0  0  0  0  0  0  0  0
  160.6650  212.2720  147.3400 C   0  0  1  0  0  3  0  0  0  0  0  0
  159.8560  213.0120  148.2000 O   0  0  0  0  0  1  0  0  0  0  0  0
  160.6500  212.9130  145.9620 C   0  0  0  0  0  2  0  0  0  0  0  0
  158.4400  212.4940  145.2020 O   0  0  0  0  0  0  0  0  0  0  0  0
  159.7810  212.1200  145.0030 C   0  0  1  0  0  3  0  0  0  0  0  0
  159.0900  213.0430  144.0800 C   0  0  0  0  0  2  0  0  0  0  0  0
  160.5250  205.1530  149.1730 C   0  0  0  0  0  2  0  0  0  0  0  0
  161.3870  204.0770  149.6410 N   0  0  0  0  0  2  0  0  0  0  0  0
  160.5790  203.1630  150.4370 C   0  0  0  0  0  2  0  0  0  0  0  0
  160.1950  201.9470  149.6060 C   0  0  0  0  0  2  0  0  0  0  0  0
  161.3560  201.5170  148.7270 C   0  0  0  0  0  2  0  0  0  0  0  0
  160.8850  201.4060  147.2860 C   0  0  0  0  0  2  0  0  0  0  0  0
  161.3470  202.6110  146.4910 C   0  0  0  0  0  2  0  0  0  0  0  0
  159.9150  201.7110  144.8130 O   0  0  0  0  0  1  0  0  0  0  0  0
  160.5530  202.7110  145.2340 C   0  0  0  0  0  0  0  0  0  0  0  0
  160.4830  203.9190  144.5470 O   0  0  0  0  0  0  0  0  0  0  0  0
  1  3  2  0  0  0  0
  3  6  1  0  0  0  0
  4  2  1  0  0  0  0
  4  6  2  0  0  0  0
  5  8  1  0  0  0  0
  5  1  1  0  0  0  0
  6 17  1  0  0  0  0
  7  5  2  0  0  0  0
  8 19  1  6  0  0  0
  8  4  1  0  0  0  0
  9 15  2  0  0  0  0
  9 12  1  0  0  0  0
 10  9  1  0  0  0  0
 11 12  1  0  0  0  0
 13 10  2  0  0  0  0
 13 16  1  0  0  0  0
 14 15  1  0  0  0  0
 16 11  2  0  0  0  0
 17 10  1  0  0  0  0
 17 14  2  0  0  0  0
 18 19  2  0  0  0  0
 20 21  2  0  0  0  0
 21 18  1  0  0  0  0
 22 21  1  0  0  0  0
 22 23  1  1  0  0  0
 24 22  1  0  0  0  0
 26 25  1  0  0  0  0
 26 24  1  1  0  0  0
 27 26  1  0  0  0  0
 27 25  1  0  0  0  0
 28 29  1  0  0  0  0
 28  1  1  0  0  0  0
 29 30  1  0  0  0  0
 31 30  1  0  0  0  0
 32 31  1  0  0  0  0
 33 32  1  0  0  0  0
 34 33  1  0  0  0  0
 35 36  1  0  0  0  0
 36 34  1  0  0  0  0
 37 36  2  0  0  0  0
M  END
>  <MODEL>
3

>  <REMARK>
 VINA RESULT:      -7.5      1.000      1.271
  Name = 
  14 active torsions:
  status: ('A' for Active; 'I' for Inactive)
    1  A    between atoms: C_3  and  C_9
    2  A    between atoms: C_6  and  C_28
    3  A    between atoms: C_8  and  C_30
    4  A    between atoms: C_8  and  C_37
    5  A    between atoms: C_9  and  N_13
    6  A    between atoms: N_13  and  C_20
    7  A    between atoms: C_15  and  C_33
    8  A    between atoms: C_16  and  C_30
    9  A    between atoms: C_20  and  C_35
   10  A    between atoms: C_22  and  C_32
   11  A    between atoms: C_24  and  C_28
   12  A    between atoms: C_24  and  C_33
   13  A    between atoms: C_26  and  C_34
   14  A    between atoms: C_35  and  C_37
                            x       y       z     vdW  Elec       q    Type
                         _______ _______ _______ _____ _____    ______ ____

>  <TORSDO>
F 14

$$$$
=
 OpenBabel11052411013D

 37 40  0  0  1  0  0  0  0  0999 V2000
  161.8180  208.0640  149.9200 C   0  0  0  0  0  0  0  0  0  0  0  0
  161.5590  204.9220  152.7420 F   0  0  0  0  0  0  0  0  0  0  0  0
  161.5350  206.8150  149.5580 C   0  0  0  0  0  3  0  0  0  0  0  0
  161.5860  205.9510  151.8550 C   0  0  0  0  0  0  0  0  0  0  0  0
  162.0120  208.3950  151.3460 C   0  0  0  0  0  0  0  0  0  0  0  0
  161.3950  205.7190  150.5390 C   0  0  0  0  0  0  0  0  0  0  0  0
  162.3100  209.5740  151.6810 O   0  0  0  0  0  0  0  0  0  0  0  0
  161.9040  207.3220  152.4030 C   0  0  1  0  0  3  0  0  0  0  0  0
  160.7310  202.5160  148.7760 C   0  0  0  0  0  0  0  0  0  0  0  0
  161.1100  203.8930  148.6480 C   0  0  0  0  0  0  0  0  0  0  0  0
  161.1590  202.2710  146.3430 C   0  0  0  0  0  3  0  0  0  0  0  0
  160.6860  201.5760  147.6090 C   0  0  0  0  0  2  0  0  0  0  0  0
  161.5500  204.4220  147.5080 C   0  0  0  0  0  3  0  0  0  0  0  0
  160.7360  203.3780  150.7910 N   0  0  0  0  0  0  0  0  0  0  0  0
  160.5250  202.2200  150.0160 N   0  0  0  0  0  0  0  0  0  0  0  0
  161.5530  203.5630  146.3020 C   0  0  0  0  0  3  0  0  0  0  0  0
  161.0650  204.3740  150.0230 C   0  0  0  0  0  0  0  0  0  0  0  0
  161.1900  207.5690  154.7460 C   0  0  0  0  0  3  0  0  0  0  0  0
  160.9000  207.6740  153.4550 C   0  0  0  0  0  3  0  0  0  0  0  0
  159.2760  207.0440  156.0010 O   0  0  0  0  0  0  0  0  0  0  0  0
  160.2070  207.8660  155.7930 C   0  0  0  0  0  0  0  0  0  0  0  0
  160.2460  209.1610  156.5560 C   0  0  1  0  0  3  0  0  0  0  0  0
  161.5720  209.5270  156.7800 O   0  0  0  0  0  1  0  0  0  0  0  0
  159.5390  210.2760  155.8030 C   0  0  0  0  0  2  0  0  0  0  0  0
  160.5670  211.3090  153.9280 O   0  0  0  0  0  0  0  0  0  0  0  0
  160.5280  211.3270  155.3340 C   0  0  1  0  0  3  0  0  0  0  0  0
  159.8260  212.3450  154.5270 C   0  0  0  0  0  2  0  0  0  0  0  0
  161.9980  209.1020  148.8640 C   0  0  0  0  0  2  0  0  0  0  0  0
  162.1250  210.4120  149.4860 N   0  0  0  0  0  2  0  0  0  0  0  0
  162.0090  211.4220  148.4440 C   0  0  0  0  0  2  0  0  0  0  0  0
  161.2460  212.6290  148.9690 C   0  0  0  0  0  2  0  0  0  0  0  0
  160.8380  213.5390  147.8240 C   0  0  0  0  0  2  0  0  0  0  0  0
  161.2010  212.8830  146.5020 C   0  0  0  0  0  2  0  0  0  0  0  0
  161.8770  213.8870  145.5880 C   0  0  0  0  0  2  0  0  0  0  0  0
  163.6090  213.2610  144.0770 O   0  0  0  0  0  1  0  0  0  0  0  0
  162.3880  213.1890  144.3750 C   0  0  0  0  0  0  0  0  0  0  0  0
  161.5270  212.4250  143.5940 O   0  0  0  0  0  0  0  0  0  0  0  0
  1  5  1  0  0  0  0
  3  1  2  0  0  0  0
  3  6  1  0  0  0  0
  4  8  1  0  0  0  0
  4  2  1  0  0  0  0
  5  7  2  0  0  0  0
  5  8  1  0  0  0  0
  6  4  2  0  0  0  0
  8 19  1  1  0  0  0
  9 15  2  0  0  0  0
 10  9  1  0  0  0  0
 10 17  1  0  0  0  0
 11 12  1  0  0  0  0
 12  9  1  0  0  0  0
 13 10  2  0  0  0  0
 15 14  1  0  0  0  0
 16 11  2  0  0  0  0
 16 13  1  0  0  0  0
 17  6  1  0  0  0  0
 17 14  2  0  0  0  0
 18 21  1  0  0  0  0
 19 18  2  0  0  0  0
 21 20  2  0  0  0  0
 21 22  1  0  0  0  0
 22 23  1  6  0  0  0
 24 22  1  0  0  0  0
 25 27  1  0  0  0  0
 25 26  1  0  0  0  0
 26 24  1  6  0  0  0
 27 26  1  0  0  0  0
 28 29  1  0  0  0  0
 28  1  1  0  0  0  0
 30 31  1  0  0  0  0
 30 29  1  0  0  0  0
 32 31  1  0  0  0  0
 33 32  1  0  0  0  0
 34 33  1  0  0  0  0
 35 36  1  0  0  0  0
 36 34  1  0  0  0  0
 37 36  2  0  0  0  0
M  END
>  <MODEL>
4

>  <REMARK>
 VINA RESULT:      -7.3      3.090      8.171
  Name = 
  14 active torsions:
  status: ('A' for Active; 'I' for Inactive)
    1  A    between atoms: C_3  and  C_9
    2  A    between atoms: C_6  and  C_28
    3  A    between atoms: C_8  and  C_30
    4  A    between atoms: C_8  and  C_37
    5  A    between atoms: C_9  and  N_13
    6  A    between atoms: N_13  and  C_20
    7  A    between atoms: C_15  and  C_33
    8  A    between atoms: C_16  and  C_30
    9  A    between atoms: C_20  and  C_35
   10  A    between atoms: C_22  and  C_32
   11  A    between atoms: C_24  and  C_28
   12  A    between atoms: C_24  and  C_33
   13  A    between atoms: C_26  and  C_34
   14  A    between atoms: C_35  and  C_37
                            x       y       z     vdW  Elec       q    Type
                         _______ _______ _______ _____ _____    ______ ____

>  <TORSDO>
F 14

$$$$
=
 OpenBabel11052411013D

 37 40  0  0  1  0  0  0  0  0999 V2000
  161.9510  208.0440  149.8150 C   0  0  0  0  0  0  0  0  0  0  0  0
  161.4660  204.9330  152.6420 F   0  0  0  0  0  0  0  0  0  0  0  0
  161.6350  206.8040  149.4490 C   0  0  0  0  0  3  0  0  0  0  0  0
  161.5660  205.9540  151.7510 C   0  0  0  0  0  0  0  0  0  0  0  0
  162.1050  208.3760  151.2450 C   0  0  0  0  0  0  0  0  0  0  0  0
  161.4160  205.7210  150.4300 C   0  0  0  0  0  0  0  0  0  0  0  0
  162.4340  209.5460  151.5850 O   0  0  0  0  0  0  0  0  0  0  0  0
  161.9150  207.3160  152.3040 C   0  0  1  0  0  3  0  0  0  0  0  0
  160.6880  202.5360  148.6580 C   0  0  0  0  0  0  0  0  0  0  0  0
  161.1140  203.9000  148.5360 C   0  0  0  0  0  0  0  0  0  0  0  0
  161.1610  202.2730  146.2350 C   0  0  0  0  0  3  0  0  0  0  0  0
  160.6380  201.5960  147.4920 C   0  0  0  0  0  2  0  0  0  0  0  0
  161.5950  204.4130  147.4050 C   0  0  0  0  0  3  0  0  0  0  0  0
  160.6770  203.4020  150.6710 N   0  0  0  0  0  0  0  0  0  0  0  0
  160.4460  202.2510  149.8930 N   0  0  0  0  0  0  0  0  0  0  0  0
  161.5970  203.5510  146.2010 C   0  0  0  0  0  3  0  0  0  0  0  0
  161.0540  204.3860  149.9090 C   0  0  0  0  0  0  0  0  0  0  0  0
  161.2010  207.8540  154.5970 C   0  0  0  0  0  3  0  0  0  0  0  0
  160.8870  207.7130  153.3150 C   0  0  0  0  0  3  0  0  0  0  0  0
  159.3970  207.3100  155.9970 O   0  0  0  0  0  0  0  0  0  0  0  0
  160.2000  208.2000  155.6110 C   0  0  0  0  0  0  0  0  0  0  0  0
  160.0660  209.6040  156.1310 C   0  0  1  0  0  3  0  0  0  0  0  0
  161.2870  210.2640  156.0030 O   0  0  0  0  0  1  0  0  0  0  0  0
  158.9970  210.3790  155.3790 C   0  0  0  0  0  2  0  0  0  0  0  0
  159.3900  210.7860  153.0730 O   0  0  0  0  0  0  0  0  0  0  0  0
  159.6190  211.3120  154.3570 C   0  0  1  0  0  3  0  0  0  0  0  0
  158.5680  211.8550  153.4740 C   0  0  0  0  0  2  0  0  0  0  0  0
  162.2100  209.0670  148.7610 C   0  0  0  0  0  2  0  0  0  0  0  0
  161.4760  210.2850  149.0750 N   0  0  0  0  0  2  0  0  0  0  0  0
  162.3140  211.4220  148.7210 C   0  0  0  0  0  2  0  0  0  0  0  0
  161.4460  212.5910  148.2770 C   0  0  0  0  0  2  0  0  0  0  0  0
  160.7660  212.2760  146.9580 C   0  0  0  0  0  2  0  0  0  0  0  0
  159.6500  213.2780  146.7110 C   0  0  0  0  0  2  0  0  0  0  0  0
  158.9040  213.5580  148.0010 C   0  0  0  0  0  2  0  0  0  0  0  0
  156.8280  212.9080  148.9710 O   0  0  0  0  0  1  0  0  0  0  0  0
  157.5640  212.9090  147.9500 C   0  0  0  0  0  0  0  0  0  0  0  0
  157.1080  212.3400  146.7650 O   0  0  0  0  0  0  0  0  0  0  0  0
  1  5  1  0  0  0  0
  3  1  2  0  0  0  0
  3  6  1  0  0  0  0
  4  8  1  0  0  0  0
  4  2  1  0  0  0  0
  5  7  2  0  0  0  0
  5  8  1  0  0  0  0
  6  4  2  0  0  0  0
  8 19  1  1  0  0  0
  9 15  2  0  0  0  0
 10  9  1  0  0  0  0
 10 17  1  0  0  0  0
 11 12  1  0  0  0  0
 12  9  1  0  0  0  0
 13 10  2  0  0  0  0
 15 14  1  0  0  0  0
 16 11  2  0  0  0  0
 16 13  1  0  0  0  0
 17  6  1  0  0  0  0
 17 14  2  0  0  0  0
 18 21  1  0  0  0  0
 19 18  2  0  0  0  0
 21 20  2  0  0  0  0
 21 22  1  0  0  0  0
 22 23  1  6  0  0  0
 24 22  1  0  0  0  0
 25 27  1  0  0  0  0
 25 26  1  0  0  0  0
 26 24  1  1  0  0  0
 27 26  1  0  0  0  0
 28 29  1  0  0  0  0
 28  1  1  0  0  0  0
 30 29  1  0  0  0  0
 31 30  1  0  0  0  0
 32 31  1  0  0  0  0
 33 32  1  0  0  0  0
 33 34  1  0  0  0  0
 36 34  1  0  0  0  0
 36 35  1  0  0  0  0
 37 36  2  0  0  0  0
M  END
>  <MODEL>
5

>  <REMARK>
 VINA RESULT:      -7.3      3.027      8.080
  Name = 
  14 active torsions:
  status: ('A' for Active; 'I' for Inactive)
    1  A    between atoms: C_3  and  C_9
    2  A    between atoms: C_6  and  C_28
    3  A    between atoms: C_8  and  C_30
    4  A    between atoms: C_8  and  C_37
    5  A    between atoms: C_9  and  N_13
    6  A    between atoms: N_13  and  C_20
    7  A    between atoms: C_15  and  C_33
    8  A    between atoms: C_16  and  C_30
    9  A    between atoms: C_20  and  C_35
   10  A    between atoms: C_22  and  C_32
   11  A    between atoms: C_24  and  C_28
   12  A    between atoms: C_24  and  C_33
   13  A    between atoms: C_26  and  C_34
   14  A    between atoms: C_35  and  C_37
                            x       y       z     vdW  Elec       q    Type
                         _______ _______ _______ _____ _____    ______ ____

>  <TORSDO>
F 14

$$$$
=
 OpenBabel11052411013D

 37 40  0  0  1  0  0  0  0  0999 V2000
  161.4220  206.4250  149.9010 C   0  0  0  0  0  0  0  0  0  0  0  0
  162.4110  210.2470  151.4230 F   0  0  0  0  0  0  0  0  0  0  0  0
  161.1950  206.7580  151.1690 C   0  0  0  0  0  3  0  0  0  0  0  0
  162.0440  209.0460  150.9060 C   0  0  0  0  0  0  0  0  0  0  0  0
  162.0000  207.4140  148.9690 C   0  0  0  0  0  0  0  0  0  0  0  0
  161.4920  208.1040  151.6990 C   0  0  0  0  0  0  0  0  0  0  0  0
  162.2410  207.0850  147.7750 O   0  0  0  0  0  0  0  0  0  0  0  0
  162.3470  208.8050  149.4450 C   0  0  1  0  0  3  0  0  0  0  0  0
  160.4580  209.1790  155.1040 C   0  0  0  0  0  0  0  0  0  0  0  0
  160.4960  209.5070  153.7080 C   0  0  0  0  0  0  0  0  0  0  0  0
  159.1180  211.2400  155.4540 C   0  0  0  0  0  3  0  0  0  0  0  0
  159.7850  210.0490  156.1220 C   0  0  0  0  0  2  0  0  0  0  0  0
  159.8540  210.5520  153.1900 C   0  0  0  0  0  3  0  0  0  0  0  0
  161.4510  207.5190  154.0730 N   0  0  0  0  0  0  0  0  0  0  0  0
  161.0020  208.0260  155.3090 N   0  0  0  0  0  0  0  0  0  0  0  0
  159.1490  211.4620  154.1210 C   0  0  0  0  0  3  0  0  0  0  0  0
  161.1840  208.3640  153.1210 C   0  0  0  0  0  0  0  0  0  0  0  0
  162.0510  211.1320  148.6980 C   0  0  0  0  0  3  0  0  0  0  0  0
  161.6760  209.8610  148.6250 C   0  0  0  0  0  3  0  0  0  0  0  0
  161.2290  212.0390  146.6950 O   0  0  0  0  0  0  0  0  0  0  0  0
  161.3780  212.1880  147.9360 C   0  0  0  0  0  0  0  0  0  0  0  0
  160.9400  213.4680  148.5930 C   0  0  1  0  0  3  0  0  0  0  0  0
  159.9600  214.0780  147.8130 O   0  0  0  0  0  1  0  0  0  0  0  0
  160.3880  213.2210  149.9880 C   0  0  0  0  0  2  0  0  0  0  0  0
  158.2200  213.1040  150.9490 O   0  0  0  0  0  0  0  0  0  0  0  0
  159.0600  213.9290  150.1790 C   0  0  1  0  0  3  0  0  0  0  0  0
  158.8330  214.1800  151.6170 C   0  0  0  0  0  2  0  0  0  0  0  0
  161.1470  205.0280  149.4570 C   0  0  0  0  0  2  0  0  0  0  0  0
  160.3120  204.3600  150.4440 N   0  0  0  0  0  2  0  0  0  0  0  0
  160.8600  203.0300  150.6760 C   0  0  0  0  0  2  0  0  0  0  0  0
  160.2220  202.0290  149.7240 C   0  0  0  0  0  2  0  0  0  0  0  0
  161.2280  200.9680  149.3160 C   0  0  0  0  0  2  0  0  0  0  0  0
  161.3100  200.9050  147.8000 C   0  0  0  0  0  2  0  0  0  0  0  0
  160.5630  202.0730  147.1860 C   0  0  0  0  0  2  0  0  0  0  0  0
  160.3970  200.7370  145.2200 O   0  0  0  0  0  1  0  0  0  0  0  0
  160.4890  201.8940  145.7090 C   0  0  0  0  0  0  0  0  0  0  0  0
  160.4800  203.0040  144.8700 O   0  0  0  0  0  0  0  0  0  0  0  0
  1  3  2  0  0  0  0
  3  6  1  0  0  0  0
  4  2  1  0  0  0  0
  4  6  2  0  0  0  0
  5  8  1  0  0  0  0
  5  1  1  0  0  0  0
  6 17  1  0  0  0  0
  7  5  2  0  0  0  0
  8 19  1  6  0  0  0
  8  4  1  0  0  0  0
  9 15  2  0  0  0  0
  9 12  1  0  0  0  0
 10  9  1  0  0  0  0
 11 12  1  0  0  0  0
 13 10  2  0  0  0  0
 13 16  1  0  0  0  0
 14 15  1  0  0  0  0
 16 11  2  0  0  0  0
 17 10  1  0  0  0  0
 17 14  2  0  0  0  0
 19 18  2  0  0  0  0
 20 21  2  0  0  0  0
 21 22  1  0  0  0  0
 21 18  1  0  0  0  0
 22 23  1  6  0  0  0
 22 24  1  0  0  0  0
 25 27  1  0  0  0  0
 26 24  1  1  0  0  0
 26 25  1  0  0  0  0
 26 27  1  0  0  0  0
 28  1  1  0  0  0  0
 28 29  1  0  0  0  0
 29 30  1  0  0  0  0
 31 30  1  0  0  0  0
 32 31  1  0  0  0  0
 33 32  1  0  0  0  0
 34 33  1  0  0  0  0
 35 36  1  0  0  0  0
 36 34  1  0  0  0  0
 37 36  2  0  0  0  0
M  END
>  <MODEL>
6

>  <REMARK>
 VINA RESULT:      -7.2      1.732      2.621
  Name = 
  14 active torsions:
  status: ('A' for Active; 'I' for Inactive)
    1  A    between atoms: C_3  and  C_9
    2  A    between atoms: C_6  and  C_28
    3  A    between atoms: C_8  and  C_30
    4  A    between atoms: C_8  and  C_37
    5  A    between atoms: C_9  and  N_13
    6  A    between atoms: N_13  and  C_20
    7  A    between atoms: C_15  and  C_33
    8  A    between atoms: C_16  and  C_30
    9  A    between atoms: C_20  and  C_35
   10  A    between atoms: C_22  and  C_32
   11  A    between atoms: C_24  and  C_28
   12  A    between atoms: C_24  and  C_33
   13  A    between atoms: C_26  and  C_34
   14  A    between atoms: C_35  and  C_37
                            x       y       z     vdW  Elec       q    Type
                         _______ _______ _______ _____ _____    ______ ____

>  <TORSDO>
F 14

$$$$
=
 OpenBabel11052411013D

 37 40  0  0  1  0  0  0  0  0999 V2000
  161.9550  208.2190  150.0740 C   0  0  0  0  0  0  0  0  0  0  0  0
  161.1710  206.5090  153.8650 F   0  0  0  0  0  0  0  0  0  0  0  0
  161.7050  206.9200  150.2220 C   0  0  0  0  0  3  0  0  0  0  0  0
  161.3650  207.0820  152.6480 C   0  0  0  0  0  0  0  0  0  0  0  0
  161.9250  209.1160  151.2470 C   0  0  0  0  0  0  0  0  0  0  0  0
  161.3830  206.3200  151.5340 C   0  0  0  0  0  0  0  0  0  0  0  0
  162.1920  210.3410  151.1060 O   0  0  0  0  0  0  0  0  0  0  0  0
  161.6220  208.5700  152.6220 C   0  0  1  0  0  3  0  0  0  0  0  0
  160.7730  202.6780  151.1200 C   0  0  0  0  0  0  0  0  0  0  0  0
  160.9990  203.9330  150.4640 C   0  0  0  0  0  0  0  0  0  0  0  0
  160.8630  201.6020  148.8840 C   0  0  0  0  0  3  0  0  0  0  0  0
  160.6470  201.3840  150.3730 C   0  0  0  0  0  2  0  0  0  0  0  0
  161.2150  204.0390  149.1540 C   0  0  0  0  0  3  0  0  0  0  0  0
  160.9910  204.1980  152.6830 N   0  0  0  0  0  0  0  0  0  0  0  0
  160.7790  202.8340  152.4010 N   0  0  0  0  0  0  0  0  0  0  0  0
  161.1240  202.8090  148.3360 C   0  0  0  0  0  3  0  0  0  0  0  0
  161.1100  204.8690  151.5750 C   0  0  0  0  0  0  0  0  0  0  0  0
  160.5260  210.5760  153.5370 C   0  0  0  0  0  3  0  0  0  0  0  0
  160.4710  209.2780  153.2630 C   0  0  0  0  0  3  0  0  0  0  0  0
  159.1270  212.4400  153.8190 O   0  0  0  0  0  0  0  0  0  0  0  0
  159.4270  211.2790  154.2050 C   0  0  0  0  0  0  0  0  0  0  0  0
  158.7140  210.6750  155.3830 C   0  0  1  0  0  3  0  0  0  0  0  0
  159.3880  211.0130  156.5550 O   0  0  0  0  0  1  0  0  0  0  0  0
  157.2760  211.1600  155.4750 C   0  0  0  0  0  2  0  0  0  0  0  0
  156.6190  213.3780  156.0110 O   0  0  0  0  0  0  0  0  0  0  0  0
  157.1200  212.1910  156.5770 C   0  0  1  0  0  3  0  0  0  0  0  0
  155.6980  212.5700  156.7050 C   0  0  0  0  0  2  0  0  0  0  0  0
  162.3270  208.7370  148.7260 C   0  0  0  0  0  2  0  0  0  0  0  0
  162.3470  207.6380  147.7710 N   0  0  0  0  0  2  0  0  0  0  0  0
  160.9690  207.2760  147.4680 C   0  0  0  0  0  2  0  0  0  0  0  0
  160.9340  206.2750  146.3220 C   0  0  0  0  0  2  0  0  0  0  0  0
  162.2830  205.5960  146.1670 C   0  0  0  0  0  2  0  0  0  0  0  0
  162.1240  204.3400  145.3260 C   0  0  0  0  0  2  0  0  0  0  0  0
  160.8530  204.4190  144.5050 C   0  0  0  0  0  2  0  0  0  0  0  0
  158.9450  203.0380  144.1400 O   0  0  0  0  0  0  0  0  0  0  0  0
  160.1010  203.1380  144.6300 C   0  0  0  0  0  0  0  0  0  0  0  0
  160.6890  202.0410  145.2530 O   0  0  0  0  0  1  0  0  0  0  0  0
  1  3  2  0  0  0  0
  1  5  1  0  0  0  0
  3  6  1  0  0  0  0
  4  2  1  0  0  0  0
  5  8  1  0  0  0  0
  6 17  1  0  0  0  0
  6  4  2  0  0  0  0
  7  5  2  0  0  0  0
  8  4  1  0  0  0  0
  8 19  1  6  0  0  0
  9 15  2  0  0  0  0
 10  9  1  0  0  0  0
 10 17  1  0  0  0  0
 11 12  1  0  0  0  0
 12  9  1  0  0  0  0
 13 10  2  0  0  0  0
 15 14  1  0  0  0  0
 16 11  2  0  0  0  0
 16 13  1  0  0  0  0
 17 14  2  0  0  0  0
 18 21  1  0  0  0  0
 19 18  2  0  0  0  0
 20 21  2  0  0  0  0
 21 22  1  0  0  0  0
 22 24  1  0  0  0  0
 22 23  1  1  0  0  0
 25 26  1  0  0  0  0
 25 27  1  0  0  0  0
 26 24  1  6  0  0  0
 26 27  1  0  0  0  0
 28  1  1  0  0  0  0
 29 28  1  0  0  0  0
 30 29  1  0  0  0  0
 31 30  1  0  0  0  0
 32 31  1  0  0  0  0
 33 32  1  0  0  0  0
 34 36  1  0  0  0  0
 34 33  1  0  0  0  0
 35 36  2  0  0  0  0
 36 37  1  0  0  0  0
M  END
>  <MODEL>
7

>  <REMARK>
 VINA RESULT:      -7.1      3.220      6.662
  Name = 
  14 active torsions:
  status: ('A' for Active; 'I' for Inactive)
    1  A    between atoms: C_3  and  C_9
    2  A    between atoms: C_6  and  C_28
    3  A    between atoms: C_8  and  C_30
    4  A    between atoms: C_8  and  C_37
    5  A    between atoms: C_9  and  N_13
    6  A    between atoms: N_13  and  C_20
    7  A    between atoms: C_15  and  C_33
    8  A    between atoms: C_16  and  C_30
    9  A    between atoms: C_20  and  C_35
   10  A    between atoms: C_22  and  C_32
   11  A    between atoms: C_24  and  C_28
   12  A    between atoms: C_24  and  C_33
   13  A    between atoms: C_26  and  C_34
   14  A    between atoms: C_35  and  C_37
                            x       y       z     vdW  Elec       q    Type
                         _______ _______ _______ _____ _____    ______ ____

>  <TORSDO>
F 14

$$$$
=
 OpenBabel11052411013D

 37 40  0  0  1  0  0  0  0  0999 V2000
  161.2500  206.9580  150.3530 C   0  0  0  0  0  0  0  0  0  0  0  0
  162.4730  210.9190  151.2020 F   0  0  0  0  0  0  0  0  0  0  0  0
  161.0800  207.5050  151.5550 C   0  0  0  0  0  3  0  0  0  0  0  0
  162.0310  209.6700  150.8990 C   0  0  0  0  0  0  0  0  0  0  0  0
  161.8450  207.7500  149.2590 C   0  0  0  0  0  0  0  0  0  0  0  0
  161.4590  208.9020  151.8490 C   0  0  0  0  0  0  0  0  0  0  0  0
  162.0320  207.2180  148.1300 O   0  0  0  0  0  0  0  0  0  0  0  0
  162.2750  209.1790  149.4910 C   0  0  1  0  0  3  0  0  0  0  0  0
  160.7830  209.6670  155.4230 C   0  0  0  0  0  0  0  0  0  0  0  0
  160.8370  208.6560  154.4080 C   0  0  0  0  0  0  0  0  0  0  0  0
  160.3330  207.8600  157.0650 C   0  0  0  0  0  3  0  0  0  0  0  0
  160.4860  209.3580  156.8590 C   0  0  0  0  0  2  0  0  0  0  0  0
  160.7300  207.3550  154.6720 C   0  0  0  0  0  3  0  0  0  0  0  0
  161.3670  210.6520  153.5550 N   0  0  0  0  0  0  0  0  0  0  0  0
  161.0990  210.8170  154.9280 N   0  0  0  0  0  0  0  0  0  0  0  0
  160.4480  206.9540  156.0690 C   0  0  0  0  0  3  0  0  0  0  0  0
  161.2100  209.4070  153.2160 C   0  0  0  0  0  0  0  0  0  0  0  0
  161.9580  211.4070  148.4940 C   0  0  0  0  0  3  0  0  0  0  0  0
  161.6300  210.1210  148.5240 C   0  0  0  0  0  3  0  0  0  0  0  0
  160.0890  212.1910  147.3070 O   0  0  0  0  0  0  0  0  0  0  0  0
  161.3070  212.3560  147.5850 C   0  0  0  0  0  0  0  0  0  0  0  0
  162.0820  213.4610  146.9230 C   0  0  1  0  0  3  0  0  0  0  0  0
  163.2920  212.9580  146.4490 O   0  0  0  0  0  1  0  0  0  0  0  0
  161.3070  214.0740  145.7690 C   0  0  0  0  0  2  0  0  0  0  0  0
  160.8870  212.6080  143.9470 O   0  0  0  0  0  0  0  0  0  0  0  0
  161.8110  213.5500  144.4370 C   0  0  1  0  0  3  0  0  0  0  0  0
  160.8490  213.8920  143.3710 C   0  0  0  0  0  2  0  0  0  0  0  0
  160.8930  205.5240  150.1520 C   0  0  0  0  0  2  0  0  0  0  0  0
  161.3540  204.7430  151.2910 N   0  0  0  0  0  2  0  0  0  0  0  0
  161.1420  203.3340  150.9900 C   0  0  0  0  0  2  0  0  0  0  0  0
  160.4510  203.1860  149.6420 C   0  0  0  0  0  2  0  0  0  0  0  0
  161.2000  202.1970  148.7670 C   0  0  0  0  0  2  0  0  0  0  0  0
  161.1020  202.6320  147.3140 C   0  0  0  0  0  2  0  0  0  0  0  0
  161.9390  203.8760  147.0830 C   0  0  0  0  0  2  0  0  0  0  0  0
  160.9360  203.7560  144.9250 O   0  0  0  0  0  0  0  0  0  0  0  0
  161.7270  204.3660  145.6930 C   0  0  0  0  0  0  0  0  0  0  0  0
  162.3690  205.5190  145.2520 O   0  0  0  0  0  1  0  0  0  0  0  0
  1  3  2  0  0  0  0
  3  6  1  0  0  0  0
  4  2  1  0  0  0  0
  4  6  2  0  0  0  0
  5  8  1  0  0  0  0
  5  1  1  0  0  0  0
  6 17  1  0  0  0  0
  7  5  2  0  0  0  0
  8 19  1  6  0  0  0
  8  4  1  0  0  0  0
  9 12  1  0  0  0  0
 10 13  2  0  0  0  0
 10  9  1  0  0  0  0
 12 11  1  0  0  0  0
 13 16  1  0  0  0  0
 14 15  1  0  0  0  0
 15  9  2  0  0  0  0
 16 11  2  0  0  0  0
 17 14  2  0  0  0  0
 17 10  1  0  0  0  0
 18 19  2  0  0  0  0
 20 21  2  0  0  0  0
 21 18  1  0  0  0  0
 22 23  1  6  0  0  0
 22 21  1  0  0  0  0
 24 22  1  0  0  0  0
 25 26  1  0  0  0  0
 26 24  1  1  0  0  0
 27 25  1  0  0  0  0
 27 26  1  0  0  0  0
 28  1  1  0  0  0  0
 28 29  1  0  0  0  0
 30 29  1  0  0  0  0
 31 30  1  0  0  0  0
 32 31  1  0  0  0  0
 33 32  1  0  0  0  0
 34 33  1  0  0  0  0
 35 36  2  0  0  0  0
 36 34  1  0  0  0  0
 37 36  1  0  0  0  0
M  END
>  <MODEL>
8

>  <REMARK>
 VINA RESULT:      -6.7      1.503      2.059
  Name = 
  14 active torsions:
  status: ('A' for Active; 'I' for Inactive)
    1  A    between atoms: C_3  and  C_9
    2  A    between atoms: C_6  and  C_28
    3  A    between atoms: C_8  and  C_30
    4  A    between atoms: C_8  and  C_37
    5  A    between atoms: C_9  and  N_13
    6  A    between atoms: N_13  and  C_20
    7  A    between atoms: C_15  and  C_33
    8  A    between atoms: C_16  and  C_30
    9  A    between atoms: C_20  and  C_35
   10  A    between atoms: C_22  and  C_32
   11  A    between atoms: C_24  and  C_28
   12  A    between atoms: C_24  and  C_33
   13  A    between atoms: C_26  and  C_34
   14  A    between atoms: C_35  and  C_37
                            x       y       z     vdW  Elec       q    Type
                         _______ _______ _______ _____ _____    ______ ____

>  <TORSDO>
F 14

$$$$
=
 OpenBabel11052411013D

 37 40  0  0  1  0  0  0  0  0999 V2000
  161.6180  207.0360  152.0220 C   0  0  0  0  0  0  0  0  0  0  0  0
  161.7190  211.1930  152.8030 F   0  0  0  0  0  0  0  0  0  0  0  0
  161.1120  207.5550  153.1380 C   0  0  0  0  0  3  0  0  0  0  0  0
  161.6400  209.8680  152.5120 C   0  0  0  0  0  0  0  0  0  0  0  0
  162.2020  207.9200  150.9940 C   0  0  0  0  0  0  0  0  0  0  0  0
  161.0980  209.0090  153.4000 C   0  0  0  0  0  0  0  0  0  0  0  0
  162.7080  207.4220  149.9510 O   0  0  0  0  0  0  0  0  0  0  0  0
  162.2410  209.4160  151.2020 C   0  0  1  0  0  3  0  0  0  0  0  0
  159.2530  210.4450  156.2890 C   0  0  0  0  0  0  0  0  0  0  0  0
  159.4360  210.4510  154.8670 C   0  0  0  0  0  0  0  0  0  0  0  0
  157.3660  212.0240  155.9570 C   0  0  0  0  0  3  0  0  0  0  0  0
  158.2080  211.2720  156.9740 C   0  0  0  0  0  2  0  0  0  0  0  0
  158.6320  211.1080  154.0330 C   0  0  0  0  0  3  0  0  0  0  0  0
  160.8180  208.9810  155.8290 N   0  0  0  0  0  0  0  0  0  0  0  0
  160.0460  209.5880  156.8390 N   0  0  0  0  0  0  0  0  0  0  0  0
  157.5600  211.9440  154.6220 C   0  0  0  0  0  3  0  0  0  0  0  0
  160.4960  209.4710  154.6680 C   0  0  0  0  0  0  0  0  0  0  0  0
  162.1130  211.2630  149.5790 C   0  0  0  0  0  3  0  0  0  0  0  0
  161.5820  210.1530  150.0790 C   0  0  0  0  0  3  0  0  0  0  0  0
  161.3430  211.4940  147.3730 O   0  0  0  0  0  0  0  0  0  0  0  0
  161.4610  212.0250  148.5090 C   0  0  0  0  0  0  0  0  0  0  0  0
  161.0110  213.4430  148.7230 C   0  0  1  0  0  3  0  0  0  0  0  0
  160.6600  214.0070  147.4970 O   0  0  0  0  0  1  0  0  0  0  0  0
  159.8210  213.5160  149.6660 C   0  0  0  0  0  2  0  0  0  0  0  0
  157.6630  213.0650  148.7830 O   0  0  0  0  0  0  0  0  0  0  0  0
  158.6060  214.0940  148.9640 C   0  0  1  0  0  3  0  0  0  0  0  0
  157.4210  213.9670  149.8370 C   0  0  0  0  0  2  0  0  0  0  0  0
  161.6440  205.5540  151.8570 C   0  0  0  0  0  2  0  0  0  0  0  0
  160.8490  205.1790  150.6970 N   0  0  0  0  0  2  0  0  0  0  0  0
  160.9470  203.7360  150.5270 C   0  0  0  0  0  2  0  0  0  0  0  0
  160.8390  203.3750  149.0530 C   0  0  0  0  0  2  0  0  0  0  0  0
  161.5210  204.4280  148.1980 C   0  0  0  0  0  2  0  0  0  0  0  0
  161.6410  203.9210  146.7700 C   0  0  0  0  0  2  0  0  0  0  0  0
  162.3560  204.9460  145.9100 C   0  0  0  0  0  2  0  0  0  0  0  0
  161.5840  205.4770  143.7190 O   0  0  0  0  0  0  0  0  0  0  0  0
  161.3850  205.5590  144.9600 C   0  0  0  0  0  0  0  0  0  0  0  0
  160.2400  206.1870  145.4390 O   0  0  0  0  0  1  0  0  0  0  0  0
  1  3  2  0  0  0  0
  3  6  1  0  0  0  0
  4  2  1  0  0  0  0
  4  6  2  0  0  0  0
  5  8  1  0  0  0  0
  5  1  1  0  0  0  0
  6 17  1  0  0  0  0
  7  5  2  0  0  0  0
  8 19  1  6  0  0  0
  8  4  1  0  0  0  0
  9 15  2  0  0  0  0
  9 12  1  0  0  0  0
 10  9  1  0  0  0  0
 11 12  1  0  0  0  0
 13 16  1  0  0  0  0
 13 10  2  0  0  0  0
 14 15  1  0  0  0  0
 16 11  2  0  0  0  0
 17 10  1  0  0  0  0
 17 14  2  0  0  0  0
 18 19  2  0  0  0  0
 20 21  2  0  0  0  0
 21 22  1  0  0  0  0
 21 18  1  0  0  0  0
 22 23  1  6  0  0  0
 22 24  1  0  0  0  0
 25 26  1  0  0  0  0
 25 27  1  0  0  0  0
 26 24  1  1  0  0  0
 26 27  1  0  0  0  0
 28  1  1  0  0  0  0
 29 28  1  0  0  0  0
 30 29  1  0  0  0  0
 31 30  1  0  0  0  0
 32 31  1  0  0  0  0
 33 32  1  0  0  0  0
 34 33  1  0  0  0  0
 35 36  2  0  0  0  0
 36 37  1  0  0  0  0
 36 34  1  0  0  0  0
M  END
>  <MODEL>
9

>  <REMARK>
 VINA RESULT:      -6.7      1.836      2.433
  Name = 
  14 active torsions:
  status: ('A' for Active; 'I' for Inactive)
    1  A    between atoms: C_3  and  C_9
    2  A    between atoms: C_6  and  C_28
    3  A    between atoms: C_8  and  C_30
    4  A    between atoms: C_8  and  C_37
    5  A    between atoms: C_9  and  N_13
    6  A    between atoms: N_13  and  C_20
    7  A    between atoms: C_15  and  C_33
    8  A    between atoms: C_16  and  C_30
    9  A    between atoms: C_20  and  C_35
   10  A    between atoms: C_22  and  C_32
   11  A    between atoms: C_24  and  C_28
   12  A    between atoms: C_24  and  C_33
   13  A    between atoms: C_26  and  C_34
   14  A    between atoms: C_35  and  C_37
                            x       y       z     vdW  Elec       q    Type
                         _______ _______ _______ _____ _____    ______ ____

>  <TORSDO>
F 14

$$$$
