=
 OpenBabel11042420323D

 49 52  0  0  1  0  0  0  0  0999 V2000
  161.8410  207.2110  148.5580 C   0  0  1  0  0  3  0  0  0  0  0  0
  161.8470  209.6820  148.3800 O   0  0  0  0  0  0  0  0  0  0  0  0
  161.9700  208.6000  149.1030 C   0  0  0  0  0  0  0  0  0  0  0  0
  162.2230  208.9690  150.4150 C   0  0  0  0  0  3  0  0  0  0  0  0
  162.2560  210.2850  150.4300 O   0  0  0  0  0  0  0  0  0  0  0  0
  162.0280  210.6860  149.2050 C   0  0  0  0  0  0  0  0  0  0  0  0
  161.9970  211.9410  148.8640 N   0  0  0  0  0  0  0  0  0  0  0  0
  162.7320  212.8690  146.6710 C   0  0  0  0  0  3  0  0  0  0  0  0
  160.3830  212.5220  147.1340 C   0  0  0  0  0  3  0  0  0  0  0  0
  161.0810  213.4290  144.9890 C   0  0  0  0  0  0  0  0  0  0  0  0
  161.7170  212.4560  147.5520 C   0  0  0  0  0  0  0  0  0  0  0  0
  162.4150  213.3560  145.3990 C   0  0  0  0  0  3  0  0  0  0  0  0
  160.0490  213.0140  145.8600 C   0  0  0  0  0  0  0  0  0  0  0  0
  157.7630  214.4530  147.2930 N   0  0  0  0  0  1  0  0  0  0  0  0
  156.4250  213.6150  145.5970 O   0  0  0  0  0  0  0  0  0  0  0  0
  158.6830  213.0820  145.4200 N   0  0  0  0  0  2  0  0  0  0  0  0
  157.5790  213.7220  146.0790 C   0  0  0  0  0  0  0  0  0  0  0  0
  160.7690  213.9840  143.6350 C   0  0  0  0  0  2  0  0  0  0  0  0
  161.4870  213.3870  141.0750 S   0  0  0  0  0  1  0  0  0  0  0  0
  161.9880  213.9060  142.7370 C   0  0  0  0  0  2  0  0  0  0  0  0
  160.8970  206.4670  149.3830 N   0  0  0  0  0  2  0  0  0  0  0  0
  161.6410  205.7920  150.4490 C   0  0  0  0  0  2  0  0  0  0  0  0
  160.8100  204.8410  151.2090 N   0  0  0  0  0  0  0  0  0  0  0  0
  161.9510  205.4730  153.2910 C   0  0  0  0  0  2  0  0  0  0  0  0
  161.1670  206.6620  152.7690 C   0  0  1  0  0  3  0  0  0  0  0  0
  160.6150  205.2570  152.5970 C   0  0  1  0  0  3  0  0  0  0  0  0
  160.4590  207.2970  153.8260 O   0  0  0  0  0  0  0  0  0  0  0  0
  160.6090  209.5560  153.3630 O   0  0  0  0  0  0  0  0  0  0  0  0
  160.7060  208.6170  154.2050 C   0  0  0  0  0  0  0  0  0  0  0  0
  161.1980  208.8710  155.5610 C   0  0  0  0  0  3  0  0  0  0  0  0
  161.4580  210.0620  156.1220 C   0  0  0  0  0  3  0  0  0  0  0  0
  161.1670  211.3520  155.5680 N   0  0  0  0  0  2  0  0  0  0  0  0
  160.2370  212.3150  156.1250 C   0  0  0  0  0  2  0  0  0  0  0  0
  159.0680  212.3440  155.3520 O   0  0  0  0  0  0  0  0  0  0  0  0
  158.2600  213.2170  155.9850 N   0  0  0  0  0  2  0  0  0  0  0  0
  156.8950  212.8340  155.6800 C   0  0  0  0  0  2  0  0  0  0  0  0
  156.8550  211.4140  155.2270 C   0  0  0  0  0  3  0  0  0  0  0  0
  155.6900  210.7810  155.0800 C   0  0  0  0  0  2  0  0  0  0  0  0
  161.5090  203.5670  151.2310 C   0  0  0  0  0  2  0  0  0  0  0  0
  160.7530  202.5640  150.3830 C   0  0  0  0  0  2  0  0  0  0  0  0
  160.9340  202.9090  148.9200 C   0  0  0  0  0  2  0  0  0  0  0  0
  161.4470  200.5590  148.6730 N   0  0  0  0  0  1  0  0  0  0  0  0
  160.5280  201.6370  146.7930 N   0  0  0  0  0  2  0  0  0  0  0  0
  161.0550  201.6610  148.1100 C   0  0  0  0  0  0  0  0  0  0  0  0
  161.3890  207.2350  147.2360 O   0  0  0  0  0  0  0  0  0  0  0  0
  162.6440  205.4920  146.2430 C   0  0  0  0  0  2  0  0  0  0  0  0
  161.3180  205.8910  146.8500 C   0  0  2  0  0  3  0  0  0  0  0  0
  160.8590  204.4830  144.8810 C   0  0  0  0  0  1  0  0  0  0  0  0
  161.4650  205.7890  145.3440 C   0  0  2  0  0  3  0  0  0  0  0  0
  1 45  1  6  0  0  0
  1  3  1  0  0  0  0
  1 21  1  0  0  0  0
  2  3  1  0  0  0  0
  2  6  1  0  0  0  0
  3  4  2  0  0  0  0
  4  5  1  0  0  0  0
  6  5  1  0  0  0  0
  7  6  2  0  0  0  0
  8 11  1  0  0  0  0
  9 11  2  0  0  0  0
 10 12  1  0  0  0  0
 10 13  2  0  0  0  0
 11  7  1  0  0  0  0
 12  8  2  0  0  0  0
 13  9  1  0  0  0  0
 15 17  2  0  0  0  0
 16 13  1  0  0  0  0
 16 17  1  0  0  0  0
 17 14  1  0  0  0  0
 18 10  1  0  0  0  0
 19 20  1  0  0  0  0
 20 18  1  0  0  0  0
 21 22  1  0  0  0  0
 22 23  1  0  0  0  0
 23 39  1  0  0  0  0
 25 24  1  0  0  0  0
 25 27  1  1  0  0  0
 26 23  1  6  0  0  0
 26 25  1  0  0  0  0
 26 24  1  0  0  0  0
 27 29  1  0  0  0  0
 28 29  2  0  0  0  0
 29 30  1  0  0  0  0
 30 31  2  0  0  0  0
 32 31  1  0  0  0  0
 32 33  1  0  0  0  0
 34 35  1  0  0  0  0
 34 33  1  0  0  0  0
 36 35  1  0  0  0  0
 37 36  1  0  0  0  0
 38 37  2  0  0  0  0
 40 39  1  0  0  0  0
 41 40  1  0  0  0  0
 43 44  2  0  0  0  0
 44 42  1  0  0  0  0
 44 41  1  0  0  0  0
 46 47  1  0  0  0  0
 47 45  1  6  0  0  0
 49 48  1  1  0  0  0
 49 46  1  0  0  0  0
 49 47  1  0  0  0  0
M  END
>  <MODEL>
1

>  <REMARK>
 VINA RESULT:      -6.4      0.000      0.000
  Name = 
  24 active torsions:
  status: ('A' for Active; 'I' for Inactive)
    1  A    between atoms: O_1  and  C_22
    2  A    between atoms: O_1  and  C_24
    3  A    between atoms: C_5  and  N_17
    4  A    between atoms: C_5  and  N_42
    5  A    between atoms: N_6  and  C_33
    6  A    between atoms: N_6  and  C_43
    7  A    between atoms: O_10  and  C_12
    8  A    between atoms: O_10  and  C_34
    9  A    between atoms: C_12  and  C_37
   10  A    between atoms: C_13  and  C_19
   11  A    between atoms: C_13  and  C_25
   12  A    between atoms: C_15  and  C_22
   13  A    between atoms: C_16  and  C_35
   14  A    between atoms: N_17  and  C_29
   15  A    between atoms: N_17  and  C_44
   16  A    between atoms: C_19  and  C_29
   17  A    between atoms: C_22  and  N_42
   18  A    between atoms: C_23  and  C_39
   19  A    between atoms: C_23  and  N_49
   20  A    between atoms: C_27  and  N_45
   21  A    between atoms: N_31  and  C_32
   22  A    between atoms: C_33  and  O_46
   23  A    between atoms: C_35  and  C_38
   24  A    between atoms: O_46  and  N_49
                            x       y       z     vdW  Elec       q    Type
                         _______ _______ _______ _____ _____    ______ ____

>  <TORSDO>
F 24

$$$$
=
 OpenBabel11042420323D

 49 52  0  0  1  0  0  0  0  0999 V2000
  161.3400  210.5280  152.6820 C   0  0  1  0  0  3  0  0  0  0  0  0
  161.1340  208.1550  152.0000 O   0  0  0  0  0  0  0  0  0  0  0  0
  161.0790  209.0740  152.9290 C   0  0  0  0  0  0  0  0  0  0  0  0
  160.7550  208.4700  154.1330 C   0  0  0  0  0  3  0  0  0  0  0  0
  160.6120  207.1860  153.8770 O   0  0  0  0  0  0  0  0  0  0  0  0
  160.8440  207.0240  152.5980 C   0  0  0  0  0  0  0  0  0  0  0  0
  160.7810  205.8680  152.0070 N   0  0  0  0  0  0  0  0  0  0  0  0
  161.2060  206.6380  149.6760 C   0  0  0  0  0  3  0  0  0  0  0  0
  161.2100  204.2780  150.2120 C   0  0  0  0  0  3  0  0  0  0  0  0
  161.6260  205.0110  147.9300 C   0  0  0  0  0  0  0  0  0  0  0  0
  161.0580  205.6080  150.6210 C   0  0  0  0  0  0  0  0  0  0  0  0
  161.4840  206.3410  148.3380 C   0  0  0  0  0  3  0  0  0  0  0  0
  161.4840  203.9640  148.8680 C   0  0  0  0  0  0  0  0  0  0  0  0
  159.5540  201.6580  149.4190 N   0  0  0  0  0  1  0  0  0  0  0  0
  161.1120  200.3420  148.3190 O   0  0  0  0  0  0  0  0  0  0  0  0
  161.6470  202.6030  148.4370 N   0  0  0  0  0  2  0  0  0  0  0  0
  160.7780  201.4900  148.7010 C   0  0  0  0  0  0  0  0  0  0  0  0
  161.8920  204.7210  146.4870 C   0  0  0  0  0  2  0  0  0  0  0  0
  161.1800  205.8200  144.0970 S   0  0  0  0  0  1  0  0  0  0  0  0
  162.0030  206.0120  145.6990 C   0  0  0  0  0  2  0  0  0  0  0  0
  160.4180  211.0060  151.6590 N   0  0  0  0  0  2  0  0  0  0  0  0
  160.8150  212.3610  151.2700 C   0  0  0  0  0  2  0  0  0  0  0  0
  160.4020  212.7030  149.8970 N   0  0  0  0  0  0  0  0  0  0  0  0
  161.4770  211.3410  148.1580 C   0  0  0  0  0  2  0  0  0  0  0  0
  160.9520  212.6230  147.5370 C   0  0  1  0  0  3  0  0  0  0  0  0
  161.5130  212.6400  148.9490 C   0  0  1  0  0  3  0  0  0  0  0  0
  161.9200  213.1860  146.6620 O   0  0  0  0  0  0  0  0  0  0  0  0
  160.8130  212.5380  144.7390 O   0  0  0  0  0  0  0  0  0  0  0  0
  161.8120  213.1030  145.2730 C   0  0  0  0  0  0  0  0  0  0  0  0
  162.9360  213.5700  144.4580 C   0  0  0  0  0  3  0  0  0  0  0  0
  163.0640  213.4890  143.1250 C   0  0  0  0  0  3  0  0  0  0  0  0
  162.0600  213.0640  142.1930 N   0  0  0  0  0  2  0  0  0  0  0  0
  162.0570  211.8020  141.4800 C   0  0  0  0  0  2  0  0  0  0  0  0
  160.9160  211.7190  140.6700 O   0  0  0  0  0  0  0  0  0  0  0  0
  160.9960  210.5070  140.0870 N   0  0  0  0  0  2  0  0  0  0  0  0
  160.4500  210.6390  138.7500 C   0  0  0  0  0  2  0  0  0  0  0  0
  161.5400  210.5130  137.7400 C   0  0  0  0  0  3  0  0  0  0  0  0
  161.9200  209.3130  137.3000 C   0  0  0  0  0  2  0  0  0  0  0  0
  159.9210  214.0730  149.9120 C   0  0  0  0  0  2  0  0  0  0  0  0
  158.4970  214.1010  150.4290 C   0  0  0  0  0  2  0  0  0  0  0  0
  157.6310  213.2170  149.5580 C   0  0  0  0  0  2  0  0  0  0  0  0
  156.3740  214.4510  147.9010 N   0  0  0  0  0  2  0  0  0  0  0  0
  155.2550  213.9500  149.9110 N   0  0  0  0  0  1  0  0  0  0  0  0
  156.4230  213.9670  149.1050 C   0  0  0  0  0  0  0  0  0  0  0  0
  161.1670  211.2710  153.8530 O   0  0  0  0  0  0  0  0  0  0  0  0
  159.5020  212.7400  154.6730 C   0  0  0  0  0  2  0  0  0  0  0  0
  159.7810  211.4220  153.9870 C   0  0  2  0  0  3  0  0  0  0  0  0
  157.9600  211.0650  155.6090 C   0  0  0  0  0  1  0  0  0  0  0  0
  159.4160  211.4510  155.4590 C   0  0  2  0  0  3  0  0  0  0  0  0
  1 21  1  6  0  0  0
  1  3  1  0  0  0  0
  1 45  1  0  0  0  0
  2  6  1  0  0  0  0
  2  3  1  0  0  0  0
  3  4  2  0  0  0  0
  5  4  1  0  0  0  0
  6  5  1  0  0  0  0
  7  6  2  0  0  0  0
  8 11  1  0  0  0  0
  9 11  2  0  0  0  0
 10 12  1  0  0  0  0
 10 13  2  0  0  0  0
 11  7  1  0  0  0  0
 12  8  2  0  0  0  0
 13  9  1  0  0  0  0
 15 17  2  0  0  0  0
 16 17  1  0  0  0  0
 16 13  1  0  0  0  0
 17 14  1  0  0  0  0
 18 10  1  0  0  0  0
 19 20  1  0  0  0  0
 20 18  1  0  0  0  0
 22 21  1  0  0  0  0
 23 39  1  0  0  0  0
 23 22  1  0  0  0  0
 24 26  1  0  0  0  0
 25 27  1  6  0  0  0
 25 24  1  0  0  0  0
 25 26  1  0  0  0  0
 26 23  1  1  0  0  0
 28 29  2  0  0  0  0
 29 27  1  0  0  0  0
 30 29  1  0  0  0  0
 31 30  2  0  0  0  0
 32 31  1  0  0  0  0
 33 32  1  0  0  0  0
 34 33  1  0  0  0  0
 35 34  1  0  0  0  0
 36 35  1  0  0  0  0
 37 36  1  0  0  0  0
 38 37  2  0  0  0  0
 39 40  1  0  0  0  0
 41 40  1  0  0  0  0
 42 44  2  0  0  0  0
 44 41  1  0  0  0  0
 44 43  1  0  0  0  0
 46 49  1  0  0  0  0
 47 45  1  1  0  0  0
 47 46  1  0  0  0  0
 47 49  1  0  0  0  0
 49 48  1  6  0  0  0
M  END
>  <MODEL>
2

>  <REMARK>
 VINA RESULT:      -5.9      3.291     10.917
  Name = 
  24 active torsions:
  status: ('A' for Active; 'I' for Inactive)
    1  A    between atoms: O_1  and  C_22
    2  A    between atoms: O_1  and  C_24
    3  A    between atoms: C_5  and  N_17
    4  A    between atoms: C_5  and  N_42
    5  A    between atoms: N_6  and  C_33
    6  A    between atoms: N_6  and  C_43
    7  A    between atoms: O_10  and  C_12
    8  A    between atoms: O_10  and  C_34
    9  A    between atoms: C_12  and  C_37
   10  A    between atoms: C_13  and  C_19
   11  A    between atoms: C_13  and  C_25
   12  A    between atoms: C_15  and  C_22
   13  A    between atoms: C_16  and  C_35
   14  A    between atoms: N_17  and  C_29
   15  A    between atoms: N_17  and  C_44
   16  A    between atoms: C_19  and  C_29
   17  A    between atoms: C_22  and  N_42
   18  A    between atoms: C_23  and  C_39
   19  A    between atoms: C_23  and  N_49
   20  A    between atoms: C_27  and  N_45
   21  A    between atoms: N_31  and  C_32
   22  A    between atoms: C_33  and  O_46
   23  A    between atoms: C_35  and  C_38
   24  A    between atoms: O_46  and  N_49
                            x       y       z     vdW  Elec       q    Type
                         _______ _______ _______ _____ _____    ______ ____

>  <TORSDO>
F 24

$$$$
=
 OpenBabel11042420323D

 49 52  0  0  1  0  0  0  0  0999 V2000
  160.6450  213.2940  148.4830 C   0  0  1  0  0  3  0  0  0  0  0  0
  158.5650  213.6700  149.7730 O   0  0  0  0  0  0  0  0  0  0  0  0
  159.1760  213.5440  148.6240 C   0  0  0  0  0  0  0  0  0  0  0  0
  158.2460  213.6890  147.6080 C   0  0  0  0  0  3  0  0  0  0  0  0
  157.0830  213.8890  148.1950 O   0  0  0  0  0  0  0  0  0  0  0  0
  157.3010  213.8730  149.4860 C   0  0  0  0  0  0  0  0  0  0  0  0
  156.3570  214.0350  150.3660 N   0  0  0  0  0  0  0  0  0  0  0  0
  155.4880  214.4440  152.6650 C   0  0  0  0  0  3  0  0  0  0  0  0
  157.7610  213.6850  152.3260 C   0  0  0  0  0  3  0  0  0  0  0  0
  156.9310  214.0790  154.5780 C   0  0  0  0  0  0  0  0  0  0  0  0
  156.5250  214.0670  151.7930 C   0  0  0  0  0  0  0  0  0  0  0  0
  155.6920  214.4530  154.0490 C   0  0  0  0  0  3  0  0  0  0  0  0
  157.9810  213.6950  153.7150 C   0  0  0  0  0  0  0  0  0  0  0  0
  158.7360  210.8850  154.6540 N   0  0  0  0  0  1  0  0  0  0  0  0
  160.7490  211.8430  155.2890 O   0  0  0  0  0  0  0  0  0  0  0  0
  159.2450  213.3000  154.2730 N   0  0  0  0  0  2  0  0  0  0  0  0
  159.6250  212.0000  154.7510 C   0  0  0  0  0  0  0  0  0  0  0  0
  157.1300  214.1300  156.0590 C   0  0  0  0  0  2  0  0  0  0  0  0
  155.8180  211.7890  155.5880 S   0  0  0  0  0  1  0  0  0  0  0  0
  156.2400  213.1140  156.7490 C   0  0  0  0  0  2  0  0  0  0  0  0
  161.0990  212.4920  149.6130 N   0  0  0  0  0  2  0  0  0  0  0  0
  162.0360  211.4800  149.1210 C   0  0  0  0  0  2  0  0  0  0  0  0
  161.6480  210.1100  149.5040 N   0  0  0  0  0  0  0  0  0  0  0  0
  161.1640  210.3100  151.9040 C   0  0  0  0  0  2  0  0  0  0  0  0
  161.0710  208.8520  151.4950 C   0  0  1  0  0  3  0  0  0  0  0  0
  162.1060  209.7560  150.8460 C   0  0  1  0  0  3  0  0  0  0  0  0
  161.7290  208.0240  152.4440 O   0  0  0  0  0  0  0  0  0  0  0  0
  160.6670  208.4490  154.4520 O   0  0  0  0  0  0  0  0  0  0  0  0
  161.1150  207.6030  153.6240 C   0  0  0  0  0  0  0  0  0  0  0  0
  161.1150  206.1720  153.9370 C   0  0  0  0  0  3  0  0  0  0  0  0
  161.2780  205.1520  153.0810 C   0  0  0  0  0  3  0  0  0  0  0  0
  161.6380  205.2460  151.6960 N   0  0  0  0  0  2  0  0  0  0  0  0
  160.8580  204.7270  150.5890 C   0  0  0  0  0  2  0  0  0  0  0  0
  161.2560  203.4130  150.3050 O   0  0  0  0  0  0  0  0  0  0  0  0
  160.3500  202.9650  149.4140 N   0  0  0  0  0  2  0  0  0  0  0  0
  160.2630  201.5270  149.5800 C   0  0  0  0  0  2  0  0  0  0  0  0
  161.0130  200.8430  148.4880 C   0  0  0  0  0  3  0  0  0  0  0  0
  161.1290  201.4100  147.2870 C   0  0  0  0  0  2  0  0  0  0  0  0
  162.2840  209.1960  148.5720 C   0  0  0  0  0  2  0  0  0  0  0  0
  161.5160  207.8910  148.5410 C   0  0  0  0  0  2  0  0  0  0  0  0
  162.4200  206.7900  148.0270 C   0  0  0  0  0  2  0  0  0  0  0  0
  162.0550  204.7350  146.8060 N   0  0  0  0  0  1  0  0  0  0  0  0
  160.4940  206.4610  146.4500 N   0  0  0  0  0  2  0  0  0  0  0  0
  161.6990  205.9670  147.0130 C   0  0  0  0  0  0  0  0  0  0  0  0
  160.9230  212.6200  147.2900 O   0  0  0  0  0  0  0  0  0  0  0  0
  160.8110  213.0810  144.9710 C   0  0  0  0  0  2  0  0  0  0  0  0
  161.1360  213.6280  146.3420 C   0  0  2  0  0  3  0  0  0  0  0  0
  162.8460  214.4510  144.7700 C   0  0  0  0  0  1  0  0  0  0  0  0
  162.2540  213.2120  145.4050 C   0  0  2  0  0  3  0  0  0  0  0  0
  1 45  1  6  0  0  0
  1  3  1  0  0  0  0
  1 21  1  0  0  0  0
  3  2  1  0  0  0  0
  4  5  1  0  0  0  0
  4  3  2  0  0  0  0
  5  6  1  0  0  0  0
  6  2  1  0  0  0  0
  6  7  2  0  0  0  0
  7 11  1  0  0  0  0
  8 12  1  0  0  0  0
  9 13  2  0  0  0  0
 10 18  1  0  0  0  0
 11  9  1  0  0  0  0
 11  8  2  0  0  0  0
 12 10  2  0  0  0  0
 13 16  1  0  0  0  0
 13 10  1  0  0  0  0
 14 17  1  0  0  0  0
 16 17  1  0  0  0  0
 17 15  2  0  0  0  0
 18 20  1  0  0  0  0
 19 20  1  0  0  0  0
 22 23  1  0  0  0  0
 22 21  1  0  0  0  0
 25 24  1  0  0  0  0
 25 27  1  1  0  0  0
 26 23  1  6  0  0  0
 26 25  1  0  0  0  0
 26 24  1  0  0  0  0
 27 29  1  0  0  0  0
 29 30  1  0  0  0  0
 29 28  2  0  0  0  0
 31 30  2  0  0  0  0
 32 31  1  0  0  0  0
 33 32  1  0  0  0  0
 34 33  1  0  0  0  0
 35 36  1  0  0  0  0
 35 34  1  0  0  0  0
 37 36  1  0  0  0  0
 38 37  2  0  0  0  0
 39 23  1  0  0  0  0
 40 39  1  0  0  0  0
 41 40  1  0  0  0  0
 42 44  1  0  0  0  0
 43 44  2  0  0  0  0
 44 41  1  0  0  0  0
 46 49  1  0  0  0  0
 46 47  1  0  0  0  0
 47 45  1  1  0  0  0
 49 48  1  6  0  0  0
 49 47  1  0  0  0  0
M  END
>  <MODEL>
3

>  <REMARK>
 VINA RESULT:      -5.8      3.144      8.243
  Name = 
  24 active torsions:
  status: ('A' for Active; 'I' for Inactive)
    1  A    between atoms: O_1  and  C_22
    2  A    between atoms: O_1  and  C_24
    3  A    between atoms: C_5  and  N_17
    4  A    between atoms: C_5  and  N_42
    5  A    between atoms: N_6  and  C_33
    6  A    between atoms: N_6  and  C_43
    7  A    between atoms: O_10  and  C_12
    8  A    between atoms: O_10  and  C_34
    9  A    between atoms: C_12  and  C_37
   10  A    between atoms: C_13  and  C_19
   11  A    between atoms: C_13  and  C_25
   12  A    between atoms: C_15  and  C_22
   13  A    between atoms: C_16  and  C_35
   14  A    between atoms: N_17  and  C_29
   15  A    between atoms: N_17  and  C_44
   16  A    between atoms: C_19  and  C_29
   17  A    between atoms: C_22  and  N_42
   18  A    between atoms: C_23  and  C_39
   19  A    between atoms: C_23  and  N_49
   20  A    between atoms: C_27  and  N_45
   21  A    between atoms: N_31  and  C_32
   22  A    between atoms: C_33  and  O_46
   23  A    between atoms: C_35  and  C_38
   24  A    between atoms: O_46  and  N_49
                            x       y       z     vdW  Elec       q    Type
                         _______ _______ _______ _____ _____    ______ ____

>  <TORSDO>
F 24

$$$$
=
 OpenBabel11042420323D

 49 52  0  0  1  0  0  0  0  0999 V2000
  161.6650  208.2240  152.9130 C   0  0  1  0  0  3  0  0  0  0  0  0
  161.3310  206.1010  151.6800 O   0  0  0  0  0  0  0  0  0  0  0  0
  161.3130  206.7720  152.8020 C   0  0  0  0  0  0  0  0  0  0  0  0
  160.9320  205.9190  153.8240 C   0  0  0  0  0  3  0  0  0  0  0  0
  160.7180  204.7450  153.2670 O   0  0  0  0  0  0  0  0  0  0  0  0
  160.9630  204.8800  151.9880 C   0  0  0  0  0  0  0  0  0  0  0  0
  160.8420  203.9050  151.1360 N   0  0  0  0  0  0  0  0  0  0  0  0
  161.4870  205.1660  149.0860 C   0  0  0  0  0  3  0  0  0  0  0  0
  161.0710  202.7840  148.9850 C   0  0  0  0  0  3  0  0  0  0  0  0
  161.7000  203.9980  146.9740 C   0  0  0  0  0  0  0  0  0  0  0  0
  161.1290  203.9680  149.7290 C   0  0  0  0  0  0  0  0  0  0  0  0
  161.7680  205.1810  147.7160 C   0  0  0  0  0  3  0  0  0  0  0  0
  161.3450  202.7850  147.6060 C   0  0  0  0  0  0  0  0  0  0  0  0
  159.5580  202.2720  145.1780 N   0  0  0  0  0  1  0  0  0  0  0  0
  160.4710  200.1420  145.1950 O   0  0  0  0  0  0  0  0  0  0  0  0
  161.2940  201.5750  146.8330 N   0  0  0  0  0  2  0  0  0  0  0  0
  160.4490  201.2870  145.7080 C   0  0  0  0  0  0  0  0  0  0  0  0
  161.9740  204.0490  145.5040 C   0  0  0  0  0  2  0  0  0  0  0  0
  160.3050  206.1200  144.9080 S   0  0  0  0  0  1  0  0  0  0  0  0
  161.9990  205.4860  145.0200 C   0  0  0  0  0  2  0  0  0  0  0  0
  161.5810  208.8320  151.5900 N   0  0  0  0  0  2  0  0  0  0  0  0
  162.4060  210.0430  151.5820 C   0  0  0  0  0  2  0  0  0  0  0  0
  161.7710  211.1580  150.8560 N   0  0  0  0  0  0  0  0  0  0  0  0
  160.3270  212.0250  152.6440 C   0  0  0  0  0  2  0  0  0  0  0  0
  160.1430  212.8710  151.3980 C   0  0  1  0  0  3  0  0  0  0  0  0
  160.3860  211.3760  151.2700 C   0  0  1  0  0  3  0  0  0  0  0  0
  158.7630  213.1230  151.1650 O   0  0  0  0  0  0  0  0  0  0  0  0
  159.0810  213.8470  148.9940 O   0  0  0  0  0  0  0  0  0  0  0  0
  158.2890  213.6430  149.9600 C   0  0  0  0  0  0  0  0  0  0  0  0
  156.8880  214.0610  149.8850 C   0  0  0  0  0  3  0  0  0  0  0  0
  156.0230  214.1950  150.9020 C   0  0  0  0  0  3  0  0  0  0  0  0
  156.3260  214.1040  152.3010 N   0  0  0  0  0  2  0  0  0  0  0  0
  155.3510  214.1240  153.3740 C   0  0  0  0  0  2  0  0  0  0  0  0
  155.2280  212.8410  153.9260 O   0  0  0  0  0  0  0  0  0  0  0  0
  155.9500  212.8870  155.0630 N   0  0  0  0  0  2  0  0  0  0  0  0
  157.0970  212.0190  154.8760 C   0  0  0  0  0  2  0  0  0  0  0  0
  158.0440  212.1760  156.0170 C   0  0  0  0  0  3  0  0  0  0  0  0
  157.6640  211.8770  157.2600 C   0  0  0  0  0  2  0  0  0  0  0  0
  161.7540  210.8100  149.4460 C   0  0  0  0  0  2  0  0  0  0  0  0
  162.2350  211.9930  148.6290 C   0  0  0  0  0  2  0  0  0  0  0  0
  161.2840  212.2240  147.4750 C   0  0  0  0  0  2  0  0  0  0  0  0
  161.5730  213.1150  145.2450 N   0  0  0  0  0  2  0  0  0  0  0  0
  162.5910  214.3150  146.9970 N   0  0  0  0  0  1  0  0  0  0  0  0
  161.8790  213.1890  146.5050 C   0  0  0  0  0  0  0  0  0  0  0  0
  160.7950  208.8820  153.7870 O   0  0  0  0  0  0  0  0  0  0  0  0
  160.5000  209.1370  156.1210 C   0  0  0  0  0  2  0  0  0  0  0  0
  161.4960  208.9800  154.9950 C   0  0  2  0  0  3  0  0  0  0  0  0
  162.3830  210.6580  156.5660 C   0  0  0  0  0  1  0  0  0  0  0  0
  161.2530  210.3440  155.6110 C   0  0  2  0  0  3  0  0  0  0  0  0
  1 21  1  6  0  0  0
  1 45  1  0  0  0  0
  2  6  1  0  0  0  0
  2  3  1  0  0  0  0
  3  1  1  0  0  0  0
  3  4  2  0  0  0  0
  5  4  1  0  0  0  0
  6  5  1  0  0  0  0
  7  6  2  0  0  0  0
  8 11  1  0  0  0  0
  9 11  2  0  0  0  0
 10 13  2  0  0  0  0
 10 12  1  0  0  0  0
 11  7  1  0  0  0  0
 12  8  2  0  0  0  0
 13  9  1  0  0  0  0
 14 17  1  0  0  0  0
 15 17  2  0  0  0  0
 16 13  1  0  0  0  0
 17 16  1  0  0  0  0
 18 10  1  0  0  0  0
 19 20  1  0  0  0  0
 20 18  1  0  0  0  0
 22 21  1  0  0  0  0
 23 22  1  0  0  0  0
 25 27  1  1  0  0  0
 25 24  1  0  0  0  0
 26 23  1  6  0  0  0
 26 25  1  0  0  0  0
 26 24  1  0  0  0  0
 28 29  2  0  0  0  0
 29 27  1  0  0  0  0
 30 29  1  0  0  0  0
 30 31  2  0  0  0  0
 31 32  1  0  0  0  0
 32 33  1  0  0  0  0
 33 34  1  0  0  0  0
 34 35  1  0  0  0  0
 36 35  1  0  0  0  0
 36 37  1  0  0  0  0
 37 38  2  0  0  0  0
 39 23  1  0  0  0  0
 40 39  1  0  0  0  0
 41 40  1  0  0  0  0
 42 44  2  0  0  0  0
 44 43  1  0  0  0  0
 44 41  1  0  0  0  0
 47 45  1  6  0  0  0
 47 49  1  0  0  0  0
 47 46  1  0  0  0  0
 49 46  1  0  0  0  0
 49 48  1  1  0  0  0
M  END
>  <MODEL>
4

>  <REMARK>
 VINA RESULT:      -5.5      2.826      8.464
  Name = 
  24 active torsions:
  status: ('A' for Active; 'I' for Inactive)
    1  A    between atoms: O_1  and  C_22
    2  A    between atoms: O_1  and  C_24
    3  A    between atoms: C_5  and  N_17
    4  A    between atoms: C_5  and  N_42
    5  A    between atoms: N_6  and  C_33
    6  A    between atoms: N_6  and  C_43
    7  A    between atoms: O_10  and  C_12
    8  A    between atoms: O_10  and  C_34
    9  A    between atoms: C_12  and  C_37
   10  A    between atoms: C_13  and  C_19
   11  A    between atoms: C_13  and  C_25
   12  A    between atoms: C_15  and  C_22
   13  A    between atoms: C_16  and  C_35
   14  A    between atoms: N_17  and  C_29
   15  A    between atoms: N_17  and  C_44
   16  A    between atoms: C_19  and  C_29
   17  A    between atoms: C_22  and  N_42
   18  A    between atoms: C_23  and  C_39
   19  A    between atoms: C_23  and  N_49
   20  A    between atoms: C_27  and  N_45
   21  A    between atoms: N_31  and  C_32
   22  A    between atoms: C_33  and  O_46
   23  A    between atoms: C_35  and  C_38
   24  A    between atoms: O_46  and  N_49
                            x       y       z     vdW  Elec       q    Type
                         _______ _______ _______ _____ _____    ______ ____

>  <TORSDO>
F 24

$$$$
=
 OpenBabel11042420323D

 49 52  0  0  1  0  0  0  0  0999 V2000
  161.5960  207.3930  152.9730 C   0  0  1  0  0  3  0  0  0  0  0  0
  161.2630  205.4270  151.5030 O   0  0  0  0  0  0  0  0  0  0  0  0
  161.2430  205.9650  152.6950 C   0  0  0  0  0  0  0  0  0  0  0  0
  160.8590  205.0000  153.6110 C   0  0  0  0  0  3  0  0  0  0  0  0
  160.6450  203.8980  152.9230 O   0  0  0  0  0  0  0  0  0  0  0  0
  160.8930  204.1790  151.6680 C   0  0  0  0  0  0  0  0  0  0  0  0
  160.7730  203.3090  150.7090 N   0  0  0  0  0  0  0  0  0  0  0  0
  161.6260  204.7330  148.8510 C   0  0  0  0  0  3  0  0  0  0  0  0
  160.7960  202.5030  148.4100 C   0  0  0  0  0  3  0  0  0  0  0  0
  161.6240  203.8790  146.5840 C   0  0  0  0  0  0  0  0  0  0  0  0
  161.0630  203.5330  149.3200 C   0  0  0  0  0  0  0  0  0  0  0  0
  161.9010  204.9060  147.4910 C   0  0  0  0  0  3  0  0  0  0  0  0
  161.0620  202.6660  147.0380 C   0  0  0  0  0  0  0  0  0  0  0  0
  161.6840  199.6980  147.4300 N   0  0  0  0  0  1  0  0  0  0  0  0
  160.8720  199.4380  145.2740 O   0  0  0  0  0  0  0  0  0  0  0  0
  160.7950  201.6130  146.0970 N   0  0  0  0  0  2  0  0  0  0  0  0
  161.0990  200.2160  146.2330 C   0  0  0  0  0  0  0  0  0  0  0  0
  161.8980  204.1040  145.1300 C   0  0  0  0  0  2  0  0  0  0  0  0
  160.1990  206.2330  145.2080 S   0  0  0  0  0  1  0  0  0  0  0  0
  160.6680  204.6610  144.4390 C   0  0  0  0  0  2  0  0  0  0  0  0
  161.6050  208.1310  151.7150 N   0  0  0  0  0  2  0  0  0  0  0  0
  162.1890  209.4530  151.9530 C   0  0  0  0  0  2  0  0  0  0  0  0
  161.6650  210.4800  151.0350 N   0  0  0  0  0  0  0  0  0  0  0  0
  160.3470  211.2630  152.9540 C   0  0  0  0  0  2  0  0  0  0  0  0
  160.5420  212.4100  151.9800 C   0  0  1  0  0  3  0  0  0  0  0  0
  160.3640  210.9940  151.4580 C   0  0  1  0  0  3  0  0  0  0  0  0
  159.3230  213.1160  151.7900 O   0  0  0  0  0  0  0  0  0  0  0  0
  159.5630  213.9760  149.6580 O   0  0  0  0  0  0  0  0  0  0  0  0
  158.8240  213.4210  150.5230 C   0  0  0  0  0  0  0  0  0  0  0  0
  157.3990  213.1990  150.2640 C   0  0  0  0  0  3  0  0  0  0  0  0
  156.7550  213.3280  149.0940 C   0  0  0  0  0  3  0  0  0  0  0  0
  157.3500  213.5640  147.8110 N   0  0  0  0  0  2  0  0  0  0  0  0
  157.3060  212.6510  146.6850 C   0  0  0  0  0  2  0  0  0  0  0  0
  158.6030  212.2190  146.3760 O   0  0  0  0  0  0  0  0  0  0  0  0
  159.2740  213.3460  146.0640 N   0  0  0  0  0  2  0  0  0  0  0  0
  160.4240  212.9520  145.2720 C   0  0  0  0  0  2  0  0  0  0  0  0
  160.0720  212.9690  143.8230 C   0  0  0  0  0  3  0  0  0  0  0  0
  160.0550  211.8380  143.1160 C   0  0  0  0  0  2  0  0  0  0  0  0
  161.4860  209.8570  149.7350 C   0  0  0  0  0  2  0  0  0  0  0  0
  162.2610  210.6360  148.6920 C   0  0  0  0  0  2  0  0  0  0  0  0
  161.7730  212.0690  148.6720 C   0  0  0  0  0  2  0  0  0  0  0  0
  162.5610  214.2190  147.8940 N   0  0  0  0  0  1  0  0  0  0  0  0
  164.0130  212.3910  147.5830 N   0  0  0  0  0  2  0  0  0  0  0  0
  162.7600  212.9380  147.9670 C   0  0  0  0  0  0  0  0  0  0  0  0
  160.6740  207.9730  153.8480 O   0  0  0  0  0  0  0  0  0  0  0  0
  160.1250  207.9870  156.1500 C   0  0  0  0  0  2  0  0  0  0  0  0
  161.2190  207.7910  155.1250 C   0  0  2  0  0  3  0  0  0  0  0  0
  162.1620  209.0710  157.0080 C   0  0  0  0  0  1  0  0  0  0  0  0
  161.1290  209.0900  155.9030 C   0  0  2  0  0  3  0  0  0  0  0  0
  1 21  1  6  0  0  0
  1 45  1  0  0  0  0
  2  6  1  0  0  0  0
  2  3  1  0  0  0  0
  3  1  1  0  0  0  0
  3  4  2  0  0  0  0
  5  4  1  0  0  0  0
  6  5  1  0  0  0  0
  7  6  2  0  0  0  0
  8 11  1  0  0  0  0
  9 11  2  0  0  0  0
 10 13  2  0  0  0  0
 10 12  1  0  0  0  0
 11  7  1  0  0  0  0
 12  8  2  0  0  0  0
 13  9  1  0  0  0  0
 15 17  2  0  0  0  0
 16 17  1  0  0  0  0
 16 13  1  0  0  0  0
 17 14  1  0  0  0  0
 18 10  1  0  0  0  0
 20 18  1  0  0  0  0
 20 19  1  0  0  0  0
 21 22  1  0  0  0  0
 23 22  1  0  0  0  0
 25 27  1  6  0  0  0
 25 24  1  0  0  0  0
 26 23  1  1  0  0  0
 26 25  1  0  0  0  0
 26 24  1  0  0  0  0
 28 29  2  0  0  0  0
 29 27  1  0  0  0  0
 30 29  1  0  0  0  0
 31 30  2  0  0  0  0
 32 31  1  0  0  0  0
 33 32  1  0  0  0  0
 34 33  1  0  0  0  0
 35 34  1  0  0  0  0
 36 35  1  0  0  0  0
 37 36  1  0  0  0  0
 38 37  2  0  0  0  0
 39 23  1  0  0  0  0
 40 39  1  0  0  0  0
 41 40  1  0  0  0  0
 42 44  1  0  0  0  0
 43 44  2  0  0  0  0
 44 41  1  0  0  0  0
 47 45  1  6  0  0  0
 47 49  1  0  0  0  0
 47 46  1  0  0  0  0
 49 46  1  0  0  0  0
 49 48  1  1  0  0  0
M  END
>  <MODEL>
5

>  <REMARK>
 VINA RESULT:      -5.3      2.753      9.286
  Name = 
  24 active torsions:
  status: ('A' for Active; 'I' for Inactive)
    1  A    between atoms: O_1  and  C_22
    2  A    between atoms: O_1  and  C_24
    3  A    between atoms: C_5  and  N_17
    4  A    between atoms: C_5  and  N_42
    5  A    between atoms: N_6  and  C_33
    6  A    between atoms: N_6  and  C_43
    7  A    between atoms: O_10  and  C_12
    8  A    between atoms: O_10  and  C_34
    9  A    between atoms: C_12  and  C_37
   10  A    between atoms: C_13  and  C_19
   11  A    between atoms: C_13  and  C_25
   12  A    between atoms: C_15  and  C_22
   13  A    between atoms: C_16  and  C_35
   14  A    between atoms: N_17  and  C_29
   15  A    between atoms: N_17  and  C_44
   16  A    between atoms: C_19  and  C_29
   17  A    between atoms: C_22  and  N_42
   18  A    between atoms: C_23  and  C_39
   19  A    between atoms: C_23  and  N_49
   20  A    between atoms: C_27  and  N_45
   21  A    between atoms: N_31  and  C_32
   22  A    between atoms: C_33  and  O_46
   23  A    between atoms: C_35  and  C_38
   24  A    between atoms: O_46  and  N_49
                            x       y       z     vdW  Elec       q    Type
                         _______ _______ _______ _____ _____    ______ ____

>  <TORSDO>
F 24

$$$$
=
 OpenBabel11042420323D

 49 52  0  0  1  0  0  0  0  0999 V2000
  160.6180  205.8300  150.9680 C   0  0  1  0  0  3  0  0  0  0  0  0
  160.5420  207.6720  152.6220 O   0  0  0  0  0  0  0  0  0  0  0  0
  160.9630  206.4860  152.2690 C   0  0  0  0  0  0  0  0  0  0  0  0
  161.7460  205.9710  153.2890 C   0  0  0  0  0  3  0  0  0  0  0  0
  161.7790  206.8900  154.2320 O   0  0  0  0  0  0  0  0  0  0  0  0
  161.0530  207.8950  153.8100 C   0  0  0  0  0  0  0  0  0  0  0  0
  160.8780  208.9820  154.5010 N   0  0  0  0  0  0  0  0  0  0  0  0
  160.1620  210.7110  152.8550 C   0  0  0  0  0  3  0  0  0  0  0  0
  159.1350  210.5950  155.0430 C   0  0  0  0  0  3  0  0  0  0  0  0
  158.4230  212.2890  153.4500 C   0  0  0  0  0  0  0  0  0  0  0  0
  160.0670  210.1060  154.1210 C   0  0  0  0  0  0  0  0  0  0  0  0
  159.3470  211.7980  152.5230 C   0  0  0  0  0  3  0  0  0  0  0  0
  158.3130  211.6920  154.7250 C   0  0  0  0  0  0  0  0  0  0  0  0
  155.5410  210.5200  155.2700 N   0  0  0  0  0  1  0  0  0  0  0  0
  155.2800  212.3090  156.7210 O   0  0  0  0  0  0  0  0  0  0  0  0
  157.3490  212.1990  155.6620 N   0  0  0  0  0  2  0  0  0  0  0  0
  156.0300  211.6940  155.9240 C   0  0  0  0  0  0  0  0  0  0  0  0
  157.5870  213.4740  153.0800 C   0  0  0  0  0  2  0  0  0  0  0  0
  156.4100  214.4010  150.8040 S   0  0  0  0  0  1  0  0  0  0  0  0
  157.9290  213.9460  151.6800 C   0  0  0  0  0  2  0  0  0  0  0  0
  161.8230  205.7430  150.1500 N   0  0  0  0  0  2  0  0  0  0  0  0
  161.4260  205.6780  148.7410 C   0  0  0  0  0  2  0  0  0  0  0  0
  162.4950  206.1170  147.8270 N   0  0  0  0  0  0  0  0  0  0  0  0
  160.8910  207.9030  147.3060 C   0  0  0  0  0  2  0  0  0  0  0  0
  161.6570  208.2700  148.5630 C   0  0  1  0  0  3  0  0  0  0  0  0
  162.3560  207.5200  147.4410 C   0  0  1  0  0  3  0  0  0  0  0  0
  162.0670  209.6310  148.5180 O   0  0  0  0  0  0  0  0  0  0  0  0
  162.3650  209.9000  150.7940 O   0  0  0  0  0  0  0  0  0  0  0  0
  162.1530  210.4250  149.6620 C   0  0  0  0  0  0  0  0  0  0  0  0
  161.8690  211.8560  149.5390 C   0  0  0  0  0  3  0  0  0  0  0  0
  161.3230  212.4900  148.4890 C   0  0  0  0  0  3  0  0  0  0  0  0
  160.7620  211.8810  147.3190 N   0  0  0  0  0  2  0  0  0  0  0  0
  160.6230  212.5210  146.0250 C   0  0  0  0  0  2  0  0  0  0  0  0
  159.6150  211.8840  145.2880 O   0  0  0  0  0  0  0  0  0  0  0  0
  159.2550  212.7820  144.3510 N   0  0  0  0  0  2  0  0  0  0  0  0
  160.3970  212.9670  143.4750 C   0  0  0  0  0  2  0  0  0  0  0  0
  160.1230  212.3490  142.1460 C   0  0  0  0  0  3  0  0  0  0  0  0
  160.9310  211.4090  141.6550 C   0  0  0  0  0  2  0  0  0  0  0  0
  162.3940  205.3210  146.6180 C   0  0  0  0  0  2  0  0  0  0  0  0
  161.6610  204.0300  146.9240 C   0  0  0  0  0  2  0  0  0  0  0  0
  161.3940  203.2870  145.6320 C   0  0  0  0  0  2  0  0  0  0  0  0
  159.8860  201.4920  145.0430 N   0  0  0  0  0  2  0  0  0  0  0  0
  161.1160  201.2210  147.0320 N   0  0  0  0  0  1  0  0  0  0  0  0
  160.7030  201.9960  145.9160 C   0  0  0  0  0  0  0  0  0  0  0  0
  160.1010  204.5490  151.1770 O   0  0  0  0  0  0  0  0  0  0  0  0
  160.5670  202.4130  150.2710 C   0  0  0  0  0  2  0  0  0  0  0  0
  161.1500  203.6760  150.8610 C   0  0  2  0  0  3  0  0  0  0  0  0
  162.3950  201.7610  151.7850 C   0  0  0  0  0  1  0  0  0  0  0  0
  161.0370  202.4230  151.7080 C   0  0  2  0  0  3  0  0  0  0  0  0
  1 21  1  6  0  0  0
  1 45  1  0  0  0  0
  1  3  1  0  0  0  0
  2  6  1  0  0  0  0
  3  2  1  0  0  0  0
  3  4  2  0  0  0  0
  4  5  1  0  0  0  0
  6  5  1  0  0  0  0
  6  7  2  0  0  0  0
  8 11  1  0  0  0  0
 10 13  2  0  0  0  0
 11  7  1  0  0  0  0
 11  9  2  0  0  0  0
 12  8  2  0  0  0  0
 12 10  1  0  0  0  0
 13  9  1  0  0  0  0
 13 16  1  0  0  0  0
 14 17  1  0  0  0  0
 16 17  1  0  0  0  0
 17 15  2  0  0  0  0
 18 10  1  0  0  0  0
 19 20  1  0  0  0  0
 20 18  1  0  0  0  0
 22 21  1  0  0  0  0
 23 22  1  0  0  0  0
 24 26  1  0  0  0  0
 24 25  1  0  0  0  0
 25 27  1  6  0  0  0
 26 23  1  1  0  0  0
 26 25  1  0  0  0  0
 27 29  1  0  0  0  0
 29 28  2  0  0  0  0
 30 29  1  0  0  0  0
 31 30  2  0  0  0  0
 32 31  1  0  0  0  0
 33 32  1  0  0  0  0
 34 33  1  0  0  0  0
 35 34  1  0  0  0  0
 36 35  1  0  0  0  0
 37 36  1  0  0  0  0
 38 37  2  0  0  0  0
 39 40  1  0  0  0  0
 39 23  1  0  0  0  0
 41 44  1  0  0  0  0
 41 40  1  0  0  0  0
 42 44  2  0  0  0  0
 44 43  1  0  0  0  0
 46 47  1  0  0  0  0
 46 49  1  0  0  0  0
 47 45  1  1  0  0  0
 47 49  1  0  0  0  0
 49 48  1  6  0  0  0
M  END
>  <MODEL>
6

>  <REMARK>
 VINA RESULT:      -5.2      2.559      7.583
  Name = 
  24 active torsions:
  status: ('A' for Active; 'I' for Inactive)
    1  A    between atoms: O_1  and  C_22
    2  A    between atoms: O_1  and  C_24
    3  A    between atoms: C_5  and  N_17
    4  A    between atoms: C_5  and  N_42
    5  A    between atoms: N_6  and  C_33
    6  A    between atoms: N_6  and  C_43
    7  A    between atoms: O_10  and  C_12
    8  A    between atoms: O_10  and  C_34
    9  A    between atoms: C_12  and  C_37
   10  A    between atoms: C_13  and  C_19
   11  A    between atoms: C_13  and  C_25
   12  A    between atoms: C_15  and  C_22
   13  A    between atoms: C_16  and  C_35
   14  A    between atoms: N_17  and  C_29
   15  A    between atoms: N_17  and  C_44
   16  A    between atoms: C_19  and  C_29
   17  A    between atoms: C_22  and  N_42
   18  A    between atoms: C_23  and  C_39
   19  A    between atoms: C_23  and  N_49
   20  A    between atoms: C_27  and  N_45
   21  A    between atoms: N_31  and  C_32
   22  A    between atoms: C_33  and  O_46
   23  A    between atoms: C_35  and  C_38
   24  A    between atoms: O_46  and  N_49
                            x       y       z     vdW  Elec       q    Type
                         _______ _______ _______ _____ _____    ______ ____

>  <TORSDO>
F 24

$$$$
=
 OpenBabel11042420323D

 49 52  0  0  1  0  0  0  0  0999 V2000
  161.9140  209.3060  152.6990 C   0  0  1  0  0  3  0  0  0  0  0  0
  161.3720  206.9130  152.3630 O   0  0  0  0  0  0  0  0  0  0  0  0
  161.4790  207.9470  153.1550 C   0  0  0  0  0  0  0  0  0  0  0  0
  161.1380  207.5610  154.4400 C   0  0  0  0  0  3  0  0  0  0  0  0
  160.8190  206.2850  154.3720 O   0  0  0  0  0  0  0  0  0  0  0  0
  160.9680  205.9220  153.1220 C   0  0  0  0  0  0  0  0  0  0  0  0
  160.7280  204.7150  152.7020 N   0  0  0  0  0  0  0  0  0  0  0  0
  161.0180  202.8660  151.0560 C   0  0  0  0  0  3  0  0  0  0  0  0
  160.9380  205.1690  150.3170 C   0  0  0  0  0  3  0  0  0  0  0  0
  161.2210  203.3780  148.6960 C   0  0  0  0  0  0  0  0  0  0  0  0
  160.9040  204.2350  151.3580 C   0  0  0  0  0  0  0  0  0  0  0  0
  161.1790  202.4420  149.7330 C   0  0  0  0  0  3  0  0  0  0  0  0
  161.1050  204.7570  148.9830 C   0  0  0  0  0  0  0  0  0  0  0  0
  162.3310  207.5560  149.0870 N   0  0  0  0  0  1  0  0  0  0  0  0
  161.5470  207.7730  146.9160 O   0  0  0  0  0  0  0  0  0  0  0  0
  161.1370  205.7080  147.9060 N   0  0  0  0  0  2  0  0  0  0  0  0
  161.6760  207.0390  147.9260 C   0  0  0  0  0  0  0  0  0  0  0  0
  161.4270  202.8980  147.2950 C   0  0  0  0  0  2  0  0  0  0  0  0
  160.1080  201.6820  145.2440 S   0  0  0  0  0  1  0  0  0  0  0  0
  160.5310  201.7100  147.0050 C   0  0  0  0  0  2  0  0  0  0  0  0
  160.7790  209.9820  152.0820 N   0  0  0  0  0  2  0  0  0  0  0  0
  161.1720  211.3560  151.7610 C   0  0  0  0  0  2  0  0  0  0  0  0
  160.5430  211.8550  150.5250 N   0  0  0  0  0  0  0  0  0  0  0  0
  161.6460  211.2380  148.4180 C   0  0  0  0  0  2  0  0  0  0  0  0
  160.8180  212.4920  148.2020 C   0  0  1  0  0  3  0  0  0  0  0  0
  161.5270  212.2710  149.5280 C   0  0  1  0  0  3  0  0  0  0  0  0
  161.5530  213.4520  147.4530 O   0  0  0  0  0  0  0  0  0  0  0  0
  163.0850  213.0260  145.7760 O   0  0  0  0  0  0  0  0  0  0  0  0
  161.8870  213.2590  146.1120 C   0  0  0  0  0  0  0  0  0  0  0  0
  160.8480  213.4580  145.1000 C   0  0  0  0  0  3  0  0  0  0  0  0
  160.9430  213.2330  143.7810 C   0  0  0  0  0  3  0  0  0  0  0  0
  162.0360  212.6070  143.0950 N   0  0  0  0  0  2  0  0  0  0  0  0
  161.9340  211.8670  141.8520 C   0  0  0  0  0  2  0  0  0  0  0  0
  161.0610  212.5300  140.9780 O   0  0  0  0  0  0  0  0  0  0  0  0
  160.0970  211.6280  140.7060 N   0  0  0  0  0  2  0  0  0  0  0  0
  160.2940  211.1950  139.3360 C   0  0  0  0  0  2  0  0  0  0  0  0
  161.0220  209.8940  139.3140 C   0  0  0  0  0  3  0  0  0  0  0  0
  161.5810  209.4480  138.1880 C   0  0  0  0  0  2  0  0  0  0  0  0
  159.7550  213.0230  150.8740 C   0  0  0  0  0  2  0  0  0  0  0  0
  158.5380  212.5920  151.6660 C   0  0  0  0  0  2  0  0  0  0  0  0
  157.8490  213.8160  152.2320 C   0  0  0  0  0  2  0  0  0  0  0  0
  157.7430  212.7990  154.4230 N   0  0  0  0  0  1  0  0  0  0  0  0
  155.8650  214.0520  153.7530 N   0  0  0  0  0  2  0  0  0  0  0  0
  157.1300  213.4650  153.4910 C   0  0  0  0  0  0  0  0  0  0  0  0
  162.3820  210.0660  153.7750 O   0  0  0  0  0  0  0  0  0  0  0  0
  161.0350  211.3700  155.2180 C   0  0  0  0  0  2  0  0  0  0  0  0
  161.3800  209.9760  154.7480 C   0  0  2  0  0  3  0  0  0  0  0  0
  161.0840  209.9030  157.1940 C   0  0  0  0  0  1  0  0  0  0  0  0
  161.9150  210.4870  156.0730 C   0  0  2  0  0  3  0  0  0  0  0  0
  1 21  1  1  0  0  0
  1  3  1  0  0  0  0
  1 45  1  0  0  0  0
  2  6  1  0  0  0  0
  2  3  1  0  0  0  0
  3  4  2  0  0  0  0
  5  4  1  0  0  0  0
  6  5  1  0  0  0  0
  7  6  2  0  0  0  0
  8 11  1  0  0  0  0
  9 11  2  0  0  0  0
 10 13  2  0  0  0  0
 10 12  1  0  0  0  0
 11  7  1  0  0  0  0
 12  8  2  0  0  0  0
 13  9  1  0  0  0  0
 15 17  2  0  0  0  0
 16 17  1  0  0  0  0
 16 13  1  0  0  0  0
 17 14  1  0  0  0  0
 18 10  1  0  0  0  0
 19 20  1  0  0  0  0
 20 18  1  0  0  0  0
 22 21  1  0  0  0  0
 23 39  1  0  0  0  0
 23 22  1  0  0  0  0
 24 26  1  0  0  0  0
 25 27  1  6  0  0  0
 25 24  1  0  0  0  0
 25 26  1  0  0  0  0
 26 23  1  1  0  0  0
 28 29  2  0  0  0  0
 29 27  1  0  0  0  0
 30 29  1  0  0  0  0
 31 30  2  0  0  0  0
 32 31  1  0  0  0  0
 33 32  1  0  0  0  0
 34 33  1  0  0  0  0
 35 34  1  0  0  0  0
 36 35  1  0  0  0  0
 37 36  1  0  0  0  0
 38 37  2  0  0  0  0
 39 40  1  0  0  0  0
 40 41  1  0  0  0  0
 41 44  1  0  0  0  0
 44 43  2  0  0  0  0
 44 42  1  0  0  0  0
 46 49  1  0  0  0  0
 47 45  1  6  0  0  0
 47 46  1  0  0  0  0
 47 49  1  0  0  0  0
 49 48  1  1  0  0  0
M  END
>  <MODEL>
7

>  <REMARK>
 VINA RESULT:      -4.7      3.237     10.657
  Name = 
  24 active torsions:
  status: ('A' for Active; 'I' for Inactive)
    1  A    between atoms: O_1  and  C_22
    2  A    between atoms: O_1  and  C_24
    3  A    between atoms: C_5  and  N_17
    4  A    between atoms: C_5  and  N_42
    5  A    between atoms: N_6  and  C_33
    6  A    between atoms: N_6  and  C_43
    7  A    between atoms: O_10  and  C_12
    8  A    between atoms: O_10  and  C_34
    9  A    between atoms: C_12  and  C_37
   10  A    between atoms: C_13  and  C_19
   11  A    between atoms: C_13  and  C_25
   12  A    between atoms: C_15  and  C_22
   13  A    between atoms: C_16  and  C_35
   14  A    between atoms: N_17  and  C_29
   15  A    between atoms: N_17  and  C_44
   16  A    between atoms: C_19  and  C_29
   17  A    between atoms: C_22  and  N_42
   18  A    between atoms: C_23  and  C_39
   19  A    between atoms: C_23  and  N_49
   20  A    between atoms: C_27  and  N_45
   21  A    between atoms: N_31  and  C_32
   22  A    between atoms: C_33  and  O_46
   23  A    between atoms: C_35  and  C_38
   24  A    between atoms: O_46  and  N_49
                            x       y       z     vdW  Elec       q    Type
                         _______ _______ _______ _____ _____    ______ ____

>  <TORSDO>
F 24

$$$$
=
 OpenBabel11042420323D

 49 52  0  0  1  0  0  0  0  0999 V2000
  161.3410  206.4360  149.2880 C   0  0  1  0  0  3  0  0  0  0  0  0
  161.2090  208.6200  150.4490 O   0  0  0  0  0  0  0  0  0  0  0  0
  161.6220  207.8990  149.4400 C   0  0  0  0  0  0  0  0  0  0  0  0
  162.3460  208.7090  148.5810 C   0  0  0  0  0  3  0  0  0  0  0  0
  162.3300  209.9160  149.1090 O   0  0  0  0  0  0  0  0  0  0  0  0
  161.6460  209.8360  150.2220 C   0  0  0  0  0  0  0  0  0  0  0  0
  161.4300  210.8580  150.9970 N   0  0  0  0  0  0  0  0  0  0  0  0
  159.4530  211.4220  152.4060 C   0  0  0  0  0  3  0  0  0  0  0  0
  161.3180  210.1930  153.3380 C   0  0  0  0  0  3  0  0  0  0  0  0
  159.3980  210.7340  154.7290 C   0  0  0  0  0  0  0  0  0  0  0  0
  160.7230  210.8390  152.2480 C   0  0  0  0  0  0  0  0  0  0  0  0
  158.7970  211.3730  153.6400 C   0  0  0  0  0  3  0  0  0  0  0  0
  160.6720  210.1400  154.5860 C   0  0  0  0  0  0  0  0  0  0  0  0
  160.4600  207.1610  155.2380 N   0  0  0  0  0  1  0  0  0  0  0  0
  161.6910  207.6820  157.1320 O   0  0  0  0  0  0  0  0  0  0  0  0
  161.2710  209.4750  155.7100 N   0  0  0  0  0  2  0  0  0  0  0  0
  161.1700  208.0870  156.0640 C   0  0  0  0  0  0  0  0  0  0  0  0
  158.6870  210.7250  156.0450 C   0  0  0  0  0  2  0  0  0  0  0  0
  159.8580  213.1330  156.5500 S   0  0  0  0  0  1  0  0  0  0  0  0
  158.3460  212.1390  156.4720 C   0  0  0  0  0  2  0  0  0  0  0  0
  162.1920  205.8990  148.2320 N   0  0  0  0  0  2  0  0  0  0  0  0
  161.3810  205.7270  147.0240 C   0  0  0  0  0  2  0  0  0  0  0  0
  162.1120  205.0440  145.9410 N   0  0  0  0  0  0  0  0  0  0  0  0
  160.3790  206.1750  144.6160 C   0  0  0  0  0  2  0  0  0  0  0  0
  161.7000  206.2390  143.8720 C   0  0  1  0  0  3  0  0  0  0  0  0
  161.3520  205.0080  144.6930 C   0  0  1  0  0  3  0  0  0  0  0  0
  161.5140  205.9290  142.4970 O   0  0  0  0  0  0  0  0  0  0  0  0
  163.4700  206.9200  141.7690 O   0  0  0  0  0  0  0  0  0  0  0  0
  162.3240  206.4610  141.4930 C   0  0  0  0  0  0  0  0  0  0  0  0
  161.7670  206.5890  140.1440 C   0  0  0  0  0  3  0  0  0  0  0  0
  161.5920  207.7180  139.4400 C   0  0  0  0  0  3  0  0  0  0  0  0
  162.0520  209.0290  139.7960 N   0  0  0  0  0  2  0  0  0  0  0  0
  161.2820  210.2510  139.6700 C   0  0  0  0  0  2  0  0  0  0  0  0
  160.6990  210.5710  140.9050 O   0  0  0  0  0  0  0  0  0  0  0  0
  161.5090  211.5120  141.4310 N   0  0  0  0  0  2  0  0  0  0  0  0
  161.7250  212.5120  140.4040 C   0  0  0  0  0  2  0  0  0  0  0  0
  162.7000  213.5330  140.8850 C   0  0  0  0  0  3  0  0  0  0  0  0
  162.6930  213.9290  142.1590 C   0  0  0  0  0  2  0  0  0  0  0  0
  162.3300  203.6700  146.3570 C   0  0  0  0  0  2  0  0  0  0  0  0
  160.9960  203.0120  146.6460 C   0  0  0  0  0  2  0  0  0  0  0  0
  161.0500  201.5610  146.2180 C   0  0  0  0  0  2  0  0  0  0  0  0
  159.6970  200.1080  144.8380 N   0  0  0  0  0  1  0  0  0  0  0  0
  159.4250  202.4230  144.5080 N   0  0  0  0  0  2  0  0  0  0  0  0
  160.0840  201.3180  145.1070 C   0  0  0  0  0  0  0  0  0  0  0  0
  161.5920  205.7540  150.4820 O   0  0  0  0  0  0  0  0  0  0  0  0
  160.7560  204.0020  151.8360 C   0  0  0  0  0  2  0  0  0  0  0  0
  160.6850  204.6870  150.4910 C   0  0  2  0  0  3  0  0  0  0  0  0
  160.5820  202.2540  150.1120 C   0  0  0  0  0  1  0  0  0  0  0  0
  161.4420  203.3810  150.6400 C   0  0  2  0  0  3  0  0  0  0  0  0
  1 21  1  6  0  0  0
  1  3  1  0  0  0  0
  1 45  1  0  0  0  0
  3  2  1  0  0  0  0
  4  5  1  0  0  0  0
  4  3  2  0  0  0  0
  5  6  1  0  0  0  0
  6  2  1  0  0  0  0
  6  7  2  0  0  0  0
  7 11  1  0  0  0  0
  8 12  1  0  0  0  0
  9 13  2  0  0  0  0
 10 18  1  0  0  0  0
 11  8  2  0  0  0  0
 11  9  1  0  0  0  0
 12 10  2  0  0  0  0
 13 10  1  0  0  0  0
 13 16  1  0  0  0  0
 14 17  1  0  0  0  0
 16 17  1  0  0  0  0
 17 15  2  0  0  0  0
 18 20  1  0  0  0  0
 20 19  1  0  0  0  0
 22 21  1  0  0  0  0
 23 39  1  0  0  0  0
 23 22  1  0  0  0  0
 24 26  1  0  0  0  0
 25 27  1  6  0  0  0
 25 24  1  0  0  0  0
 25 26  1  0  0  0  0
 26 23  1  1  0  0  0
 29 28  2  0  0  0  0
 29 27  1  0  0  0  0
 30 29  1  0  0  0  0
 31 32  1  0  0  0  0
 31 30  2  0  0  0  0
 33 32  1  0  0  0  0
 33 34  1  0  0  0  0
 34 35  1  0  0  0  0
 36 37  1  0  0  0  0
 36 35  1  0  0  0  0
 37 38  2  0  0  0  0
 39 40  1  0  0  0  0
 41 40  1  0  0  0  0
 42 44  1  0  0  0  0
 43 44  2  0  0  0  0
 44 41  1  0  0  0  0
 47 45  1  1  0  0  0
 47 49  1  0  0  0  0
 47 46  1  0  0  0  0
 49 48  1  6  0  0  0
 49 46  1  0  0  0  0
M  END
>  <MODEL>
8

>  <REMARK>
 VINA RESULT:      -4.1      3.846      9.869
  Name = 
  24 active torsions:
  status: ('A' for Active; 'I' for Inactive)
    1  A    between atoms: O_1  and  C_22
    2  A    between atoms: O_1  and  C_24
    3  A    between atoms: C_5  and  N_17
    4  A    between atoms: C_5  and  N_42
    5  A    between atoms: N_6  and  C_33
    6  A    between atoms: N_6  and  C_43
    7  A    between atoms: O_10  and  C_12
    8  A    between atoms: O_10  and  C_34
    9  A    between atoms: C_12  and  C_37
   10  A    between atoms: C_13  and  C_19
   11  A    between atoms: C_13  and  C_25
   12  A    between atoms: C_15  and  C_22
   13  A    between atoms: C_16  and  C_35
   14  A    between atoms: N_17  and  C_29
   15  A    between atoms: N_17  and  C_44
   16  A    between atoms: C_19  and  C_29
   17  A    between atoms: C_22  and  N_42
   18  A    between atoms: C_23  and  C_39
   19  A    between atoms: C_23  and  N_49
   20  A    between atoms: C_27  and  N_45
   21  A    between atoms: N_31  and  C_32
   22  A    between atoms: C_33  and  O_46
   23  A    between atoms: C_35  and  C_38
   24  A    between atoms: O_46  and  N_49
                            x       y       z     vdW  Elec       q    Type
                         _______ _______ _______ _____ _____    ______ ____

>  <TORSDO>
F 24

$$$$
=
 OpenBabel11042420323D

 49 52  0  0  1  0  0  0  0  0999 V2000
  160.7470  206.8240  148.6290 C   0  0  1  0  0  3  0  0  0  0  0  0
  161.0310  208.7500  150.1610 O   0  0  0  0  0  0  0  0  0  0  0  0
  161.4090  208.0800  149.1040 C   0  0  0  0  0  0  0  0  0  0  0  0
  162.4980  208.7230  148.5370 C   0  0  0  0  0  3  0  0  0  0  0  0
  162.7310  209.7840  149.2820 O   0  0  0  0  0  0  0  0  0  0  0  0
  161.8430  209.7760  150.2440 C   0  0  0  0  0  0  0  0  0  0  0  0
  161.7850  210.6960  151.1620 N   0  0  0  0  0  0  0  0  0  0  0  0
  159.6020  211.3430  152.1760 C   0  0  0  0  0  3  0  0  0  0  0  0
  161.2420  210.1170  153.4660 C   0  0  0  0  0  3  0  0  0  0  0  0
  159.1170  210.7410  154.4720 C   0  0  0  0  0  0  0  0  0  0  0  0
  160.8660  210.7340  152.2670 C   0  0  0  0  0  0  0  0  0  0  0  0
  158.7350  211.3500  153.2730 C   0  0  0  0  0  3  0  0  0  0  0  0
  160.3810  210.1210  154.5790 C   0  0  0  0  0  0  0  0  0  0  0  0
  160.9960  207.1500  154.9630 N   0  0  0  0  0  1  0  0  0  0  0  0
  161.2570  207.6890  157.2020 O   0  0  0  0  0  0  0  0  0  0  0  0
  160.7550  209.4860  155.8130 N   0  0  0  0  0  2  0  0  0  0  0  0
  161.0220  208.0930  156.0370 C   0  0  0  0  0  0  0  0  0  0  0  0
  158.1820  210.7910  155.6380 C   0  0  0  0  0  2  0  0  0  0  0  0
  156.1270  212.5060  156.1460 S   0  0  0  0  0  1  0  0  0  0  0  0
  156.7760  211.1200  155.1770 C   0  0  0  0  0  2  0  0  0  0  0  0
  161.7280  206.0140  147.9160 N   0  0  0  0  0  2  0  0  0  0  0  0
  161.2090  205.7240  146.5780 C   0  0  0  0  0  2  0  0  0  0  0  0
  161.7040  204.4430  146.0410 N   0  0  0  0  0  0  0  0  0  0  0  0
  160.3130  205.1350  144.1380 C   0  0  0  0  0  2  0  0  0  0  0  0
  161.7040  205.7200  143.9790 C   0  0  1  0  0  3  0  0  0  0  0  0
  161.5270  204.3410  144.5930 C   0  0  1  0  0  3  0  0  0  0  0  0
  162.1630  205.5610  142.6430 O   0  0  0  0  0  0  0  0  0  0  0  0
  161.2410  207.5490  141.9070 O   0  0  0  0  0  0  0  0  0  0  0  0
  161.9080  206.5050  141.6470 C   0  0  0  0  0  0  0  0  0  0  0  0
  162.3180  206.1970  140.2750 C   0  0  0  0  0  3  0  0  0  0  0  0
  162.0490  206.9050  139.1670 C   0  0  0  0  0  3  0  0  0  0  0  0
  161.4280  208.1960  139.1060 N   0  0  0  0  0  2  0  0  0  0  0  0
  161.5470  209.1320  138.0050 C   0  0  0  0  0  2  0  0  0  0  0  0
  161.4710  210.4450  138.4910 O   0  0  0  0  0  0  0  0  0  0  0  0
  162.3200  211.1480  137.7150 N   0  0  0  0  0  2  0  0  0  0  0  0
  162.4940  212.4450  138.3390 C   0  0  0  0  0  2  0  0  0  0  0  0
  163.8510  212.5370  138.9500 C   0  0  0  0  0  3  0  0  0  0  0  0
  164.4040  213.7250  139.1980 C   0  0  0  0  0  2  0  0  0  0  0  0
  160.9240  203.3810  146.6510 C   0  0  0  0  0  2  0  0  0  0  0  0
  161.6950  202.7970  147.8180 C   0  0  0  0  0  2  0  0  0  0  0  0
  161.1920  201.3970  148.0990 C   0  0  0  0  0  2  0  0  0  0  0  0
  159.1150  201.6380  149.3140 N   0  0  0  0  0  2  0  0  0  0  0  0
  160.9700  200.8740  150.5460 N   0  0  0  0  0  1  0  0  0  0  0  0
  160.3870  201.3840  149.3560 C   0  0  0  0  0  0  0  0  0  0  0  0
  160.2320  206.0950  149.7050 O   0  0  0  0  0  0  0  0  0  0  0  0
  160.8560  204.3460  151.1720 C   0  0  0  0  0  2  0  0  0  0  0  0
  161.3420  205.4730  150.2890 C   0  0  2  0  0  3  0  0  0  0  0  0
  162.6850  205.4930  152.3550 C   0  0  0  0  0  1  0  0  0  0  0  0
  161.2890  205.6540  151.7940 C   0  0  2  0  0  3  0  0  0  0  0  0
  1 21  1  1  0  0  0
  1  3  1  0  0  0  0
  1 45  1  0  0  0  0
  2  6  1  0  0  0  0
  3  2  1  0  0  0  0
  4  3  2  0  0  0  0
  4  5  1  0  0  0  0
  5  6  1  0  0  0  0
  6  7  2  0  0  0  0
  7 11  1  0  0  0  0
  8 11  2  0  0  0  0
  8 12  1  0  0  0  0
  9 13  2  0  0  0  0
 10 13  1  0  0  0  0
 10 18  1  0  0  0  0
 11  9  1  0  0  0  0
 12 10  2  0  0  0  0
 13 16  1  0  0  0  0
 14 17  1  0  0  0  0
 16 17  1  0  0  0  0
 17 15  2  0  0  0  0
 20 18  1  0  0  0  0
 20 19  1  0  0  0  0
 22 21  1  0  0  0  0
 23 22  1  0  0  0  0
 23 39  1  0  0  0  0
 24 26  1  0  0  0  0
 25 27  1  6  0  0  0
 25 24  1  0  0  0  0
 25 26  1  0  0  0  0
 26 23  1  1  0  0  0
 29 28  2  0  0  0  0
 29 27  1  0  0  0  0
 30 29  1  0  0  0  0
 31 30  2  0  0  0  0
 32 31  1  0  0  0  0
 33 34  1  0  0  0  0
 33 32  1  0  0  0  0
 35 36  1  0  0  0  0
 35 34  1  0  0  0  0
 36 37  1  0  0  0  0
 37 38  2  0  0  0  0
 39 40  1  0  0  0  0
 40 41  1  0  0  0  0
 41 44  1  0  0  0  0
 42 44  2  0  0  0  0
 44 43  1  0  0  0  0
 46 49  1  0  0  0  0
 47 45  1  6  0  0  0
 47 46  1  0  0  0  0
 47 49  1  0  0  0  0
 49 48  1  1  0  0  0
M  END
>  <MODEL>
9

>  <REMARK>
 VINA RESULT:      -3.8      4.215     10.400
  Name = 
  24 active torsions:
  status: ('A' for Active; 'I' for Inactive)
    1  A    between atoms: O_1  and  C_22
    2  A    between atoms: O_1  and  C_24
    3  A    between atoms: C_5  and  N_17
    4  A    between atoms: C_5  and  N_42
    5  A    between atoms: N_6  and  C_33
    6  A    between atoms: N_6  and  C_43
    7  A    between atoms: O_10  and  C_12
    8  A    between atoms: O_10  and  C_34
    9  A    between atoms: C_12  and  C_37
   10  A    between atoms: C_13  and  C_19
   11  A    between atoms: C_13  and  C_25
   12  A    between atoms: C_15  and  C_22
   13  A    between atoms: C_16  and  C_35
   14  A    between atoms: N_17  and  C_29
   15  A    between atoms: N_17  and  C_44
   16  A    between atoms: C_19  and  C_29
   17  A    between atoms: C_22  and  N_42
   18  A    between atoms: C_23  and  C_39
   19  A    between atoms: C_23  and  N_49
   20  A    between atoms: C_27  and  N_45
   21  A    between atoms: N_31  and  C_32
   22  A    between atoms: C_33  and  O_46
   23  A    between atoms: C_35  and  C_38
   24  A    between atoms: O_46  and  N_49
                            x       y       z     vdW  Elec       q    Type
                         _______ _______ _______ _____ _____    ______ ____

>  <TORSDO>
F 24

$$$$
