=
 OpenBabel11052409493D

 26 28  0  0  1  0  0  0  0  0999 V2000
  161.1740  205.9960  152.2430 C   0  0  0  0  0  3  0  0  0  0  0  0
  162.4740  209.4080  152.0290 N   0  0  0  0  0  2  0  0  0  0  0  0
  162.4500  210.0990  150.8940 N   0  0  0  0  0  0  0  0  0  0  0  0
  161.9640  208.1910  151.7720 C   0  0  0  0  0  0  0  0  0  0  0  0
  161.9290  209.3180  149.9190 C   0  0  0  0  0  0  0  0  0  0  0  0
  161.7710  207.1780  152.6930 C   0  0  0  0  0  3  0  0  0  0  0  0
  160.7990  205.8430  150.8880 C   0  0  0  0  0  0  0  0  0  0  0  0
  161.0300  206.8780  149.9520 C   0  0  0  0  0  0  0  0  0  0  0  0
  161.6070  208.0710  150.4460 C   0  0  0  0  0  0  0  0  0  0  0  0
  161.6930  209.7870  148.5930 N   0  0  0  0  0  2  0  0  0  0  0  0
  162.0110  211.0570  148.2310 O   0  0  0  0  0  1  0  0  0  0  0  0
  160.6540  206.6700  148.5800 N   0  0  0  0  0  2  0  0  0  0  0  0
  161.4620  206.0960  147.5130 C   0  0  2  0  0  3  0  0  0  0  0  0
  160.7040  206.2150  146.1970 C   0  0  0  0  0  2  0  0  0  0  0  0
  161.5230  205.5630  145.0870 C   0  0  0  0  0  2  0  0  0  0  0  0
  161.7850  204.6540  147.8080 C   0  0  0  0  0  3  0  0  0  0  0  0
  161.9650  203.7510  146.8300 C   0  0  0  0  0  3  0  0  0  0  0  0
  161.7880  204.0730  145.3620 C   0  0  1  0  0  3  0  0  0  0  0  0
  160.7700  203.2750  144.8240 O   0  0  0  0  0  0  0  0  0  0  0  0
  159.9010  201.0600  144.9300 C   0  0  0  0  0  1  0  0  0  0  0  0
  160.7460  202.1190  145.6110 C   0  0  0  0  0  2  0  0  0  0  0  0
  160.1280  204.5650  150.4830 C   0  0  0  0  0  2  0  0  0  0  0  0
  160.7730  203.3080  152.4250 O   0  0  0  0  0  0  0  0  0  0  0  0
  160.7210  203.3630  151.1640 C   0  0  0  0  0  0  0  0  0  0  0  0
  161.2300  202.2940  150.4200 O   0  0  0  0  0  0  0  0  0  0  0  0
  160.4250  201.5450  149.5170 C   0  0  0  0  0  1  0  0  0  0  0  0
  1  6  1  0  0  0  0
  3  2  1  0  0  0  0
  4  2  1  0  0  0  0
  4  6  2  0  0  0  0
  5  9  1  0  0  0  0
  5  3  2  0  0  0  0
  7  1  2  0  0  0  0
  8  9  2  0  0  0  0
  8  7  1  0  0  0  0
  9  4  1  0  0  0  0
 10  5  1  0  0  0  0
 11 10  1  0  0  0  0
 12  8  1  0  0  0  0
 13 16  1  0  0  0  0
 13 12  1  1  0  0  0
 14 13  1  0  0  0  0
 15 18  1  0  0  0  0
 15 14  1  0  0  0  0
 17 16  2  0  0  0  0
 18 19  1  1  0  0  0
 18 17  1  0  0  0  0
 19 21  1  0  0  0  0
 20 21  1  0  0  0  0
 22  7  1  0  0  0  0
 22 24  1  0  0  0  0
 24 23  2  0  0  0  0
 25 24  1  0  0  0  0
 26 25  1  0  0  0  0
M  END
>  <MODEL>
1

>  <REMARK>
 VINA RESULT:      -7.9      0.000      0.000
  Name = 
  8 active torsions:
  status: ('A' for Active; 'I' for Inactive)
    1  A    between atoms: O_4  and  C_17
    2  A    between atoms: O_6  and  C_23
    3  A    between atoms: O_6  and  C_25
    4  A    between atoms: C_7  and  N_21
    5  A    between atoms: C_11  and  N_13
    6  A    between atoms: C_17  and  C_22
    7  A    between atoms: C_20  and  C_22
    8  A    between atoms: N_21  and  C_24
                            x       y       z     vdW  Elec       q    Type
                         _______ _______ _______ _____ _____    ______ ____

>  <TORSDO>
F 8

$$$$
=
 OpenBabel11052409493D

 26 28  0  0  1  0  0  0  0  0999 V2000
  161.8180  206.6890  152.3440 C   0  0  0  0  0  3  0  0  0  0  0  0
  161.3540  203.0620  152.3740 N   0  0  0  0  0  2  0  0  0  0  0  0
  160.8910  202.4050  151.3150 N   0  0  0  0  0  0  0  0  0  0  0  0
  161.3730  204.3690  152.0600 C   0  0  0  0  0  0  0  0  0  0  0  0
  160.6140  203.2950  150.3350 C   0  0  0  0  0  0  0  0  0  0  0  0
  161.8280  205.3940  152.8700 C   0  0  0  0  0  3  0  0  0  0  0  0
  161.3430  206.9380  151.0350 C   0  0  0  0  0  0  0  0  0  0  0  0
  160.8550  205.8830  150.2300 C   0  0  0  0  0  0  0  0  0  0  0  0
  160.9070  204.5810  150.7810 C   0  0  0  0  0  0  0  0  0  0  0  0
  160.1700  202.9060  149.0370 N   0  0  0  0  0  2  0  0  0  0  0  0
  160.1080  201.5990  148.6790 O   0  0  0  0  0  1  0  0  0  0  0  0
  160.3590  206.1850  148.9150 N   0  0  0  0  0  2  0  0  0  0  0  0
  161.0970  206.1640  147.6590 C   0  0  2  0  0  3  0  0  0  0  0  0
  160.1070  206.1450  146.5020 C   0  0  0  0  0  2  0  0  0  0  0  0
  160.8770  206.0650  145.1870 C   0  0  0  0  0  2  0  0  0  0  0  0
  162.0060  204.9640  147.5970 C   0  0  0  0  0  3  0  0  0  0  0  0
  162.3240  204.3720  146.4350 C   0  0  0  0  0  3  0  0  0  0  0  0
  161.7490  204.8000  145.1020 C   0  0  1  0  0  3  0  0  0  0  0  0
  161.0350  203.7370  144.5340 O   0  0  0  0  0  0  0  0  0  0  0  0
  160.0460  201.6520  145.1270 C   0  0  0  0  0  1  0  0  0  0  0  0
  161.0700  202.7130  145.4860 C   0  0  0  0  0  2  0  0  0  0  0  0
  161.3990  208.3450  150.5210 C   0  0  0  0  0  2  0  0  0  0  0  0
  162.5090  209.9640  151.9040 O   0  0  0  0  0  0  0  0  0  0  0  0
  161.4340  209.3610  151.6290 C   0  0  0  0  0  0  0  0  0  0  0  0
  160.2870  209.6500  152.3760 O   0  0  0  0  0  0  0  0  0  0  0  0
  159.8740  210.9820  152.6500 C   0  0  0  0  0  1  0  0  0  0  0  0
  1  6  1  0  0  0  0
  3  2  1  0  0  0  0
  4  2  1  0  0  0  0
  4  6  2  0  0  0  0
  5  9  1  0  0  0  0
  5  3  2  0  0  0  0
  7  1  2  0  0  0  0
  8  9  2  0  0  0  0
  8  7  1  0  0  0  0
  9  4  1  0  0  0  0
 10  5  1  0  0  0  0
 11 10  1  0  0  0  0
 12  8  1  0  0  0  0
 13 12  1  1  0  0  0
 14 13  1  0  0  0  0
 15 14  1  0  0  0  0
 16 13  1  0  0  0  0
 17 16  2  0  0  0  0
 18 19  1  1  0  0  0
 18 15  1  0  0  0  0
 18 17  1  0  0  0  0
 19 21  1  0  0  0  0
 20 21  1  0  0  0  0
 22  7  1  0  0  0  0
 22 24  1  0  0  0  0
 24 23  2  0  0  0  0
 24 25  1  0  0  0  0
 25 26  1  0  0  0  0
M  END
>  <MODEL>
2

>  <REMARK>
 VINA RESULT:      -7.8      2.288      4.731
  Name = 
  8 active torsions:
  status: ('A' for Active; 'I' for Inactive)
    1  A    between atoms: O_4  and  C_17
    2  A    between atoms: O_6  and  C_23
    3  A    between atoms: O_6  and  C_25
    4  A    between atoms: C_7  and  N_21
    5  A    between atoms: C_11  and  N_13
    6  A    between atoms: C_17  and  C_22
    7  A    between atoms: C_20  and  C_22
    8  A    between atoms: N_21  and  C_24
                            x       y       z     vdW  Elec       q    Type
                         _______ _______ _______ _____ _____    ______ ____

>  <TORSDO>
F 8

$$$$
=
 OpenBabel11052409493D

 26 28  0  0  1  0  0  0  0  0999 V2000
  160.9580  209.1450  153.1940 C   0  0  0  0  0  3  0  0  0  0  0  0
  161.8160  210.5440  149.9250 N   0  0  0  0  0  2  0  0  0  0  0  0
  162.2210  209.7770  148.9180 N   0  0  0  0  0  0  0  0  0  0  0  0
  161.6180  209.7440  150.9870 C   0  0  0  0  0  0  0  0  0  0  0  0
  162.2820  208.4940  149.3430 C   0  0  0  0  0  0  0  0  0  0  0  0
  161.1520  210.1380  152.2280 C   0  0  0  0  0  3  0  0  0  0  0  0
  161.2460  207.7900  152.9100 C   0  0  0  0  0  0  0  0  0  0  0  0
  161.7480  207.4070  151.6450 C   0  0  0  0  0  0  0  0  0  0  0  0
  161.9040  208.4300  150.6820 C   0  0  0  0  0  0  0  0  0  0  0  0
  162.6090  207.4060  148.4810 N   0  0  0  0  0  2  0  0  0  0  0  0
  161.8080  207.0730  147.4370 O   0  0  0  0  0  1  0  0  0  0  0  0
  162.0490  206.0210  151.4080 N   0  0  0  0  0  2  0  0  0  0  0  0
  161.1090  204.9330  151.1780 C   0  0  2  0  0  3  0  0  0  0  0  0
  161.7060  203.6390  151.7160 C   0  0  0  0  0  2  0  0  0  0  0  0
  160.7480  202.4870  151.4250 C   0  0  0  0  0  2  0  0  0  0  0  0
  160.7980  204.8010  149.7100 C   0  0  0  0  0  3  0  0  0  0  0  0
  160.4860  203.6200  149.1520 C   0  0  0  0  0  3  0  0  0  0  0  0
  160.4910  202.3140  149.9180 C   0  0  1  0  0  3  0  0  0  0  0  0
  161.4230  201.4370  149.3490 O   0  0  0  0  0  0  0  0  0  0  0  0
  161.5310  200.1020  147.3790 C   0  0  0  0  0  1  0  0  0  0  0  0
  161.1510  201.4430  147.9760 C   0  0  0  0  0  2  0  0  0  0  0  0
  160.9760  206.7740  153.9790 C   0  0  0  0  0  2  0  0  0  0  0  0
  159.5850  207.4680  155.8090 O   0  0  0  0  0  0  0  0  0  0  0  0
  160.7500  207.4030  155.3260 C   0  0  0  0  0  0  0  0  0  0  0  0
  161.8170  207.9310  156.0610 O   0  0  0  0  0  0  0  0  0  0  0  0
  161.6890  209.1080  156.8480 C   0  0  0  0  0  1  0  0  0  0  0  0
  2  4  1  0  0  0  0
  3  5  2  0  0  0  0
  3  2  1  0  0  0  0
  4  6  1  0  0  0  0
  5  9  1  0  0  0  0
  6  1  2  0  0  0  0
  7  1  1  0  0  0  0
  7 22  1  0  0  0  0
  8  7  2  0  0  0  0
  9  4  2  0  0  0  0
  9  8  1  0  0  0  0
 10  5  1  0  0  0  0
 11 10  1  0  0  0  0
 12  8  1  0  0  0  0
 13 12  1  6  0  0  0
 13 14  1  0  0  0  0
 15 14  1  0  0  0  0
 16 13  1  0  0  0  0
 17 16  2  0  0  0  0
 17 18  1  0  0  0  0
 18 19  1  6  0  0  0
 18 15  1  0  0  0  0
 20 21  1  0  0  0  0
 21 19  1  0  0  0  0
 22 24  1  0  0  0  0
 24 23  2  0  0  0  0
 24 25  1  0  0  0  0
 25 26  1  0  0  0  0
M  END
>  <MODEL>
3

>  <REMARK>
 VINA RESULT:      -7.8      2.510      4.469
  Name = 
  8 active torsions:
  status: ('A' for Active; 'I' for Inactive)
    1  A    between atoms: O_4  and  C_17
    2  A    between atoms: O_6  and  C_23
    3  A    between atoms: O_6  and  C_25
    4  A    between atoms: C_7  and  N_21
    5  A    between atoms: C_11  and  N_13
    6  A    between atoms: C_17  and  C_22
    7  A    between atoms: C_20  and  C_22
    8  A    between atoms: N_21  and  C_24
                            x       y       z     vdW  Elec       q    Type
                         _______ _______ _______ _____ _____    ______ ____

>  <TORSDO>
F 8

$$$$
=
 OpenBabel11052409493D

 26 28  0  0  1  0  0  0  0  0999 V2000
  160.7550  202.9030  150.5240 C   0  0  0  0  0  3  0  0  0  0  0  0
  161.5220  202.4950  146.9710 N   0  0  0  0  0  2  0  0  0  0  0  0
  161.6200  203.5350  146.1500 N   0  0  0  0  0  0  0  0  0  0  0  0
  161.1980  202.9690  148.1860 C   0  0  0  0  0  0  0  0  0  0  0  0
  161.3540  204.6660  146.8440 C   0  0  0  0  0  0  0  0  0  0  0  0
  161.0420  202.2190  149.3380 C   0  0  0  0  0  3  0  0  0  0  0  0
  160.6150  204.3100  150.5350 C   0  0  0  0  0  0  0  0  0  0  0  0
  160.7500  205.0600  149.3430 C   0  0  0  0  0  0  0  0  0  0  0  0
  161.0690  204.3410  148.1680 C   0  0  0  0  0  0  0  0  0  0  0  0
  161.4490  205.9680  146.2710 N   0  0  0  0  0  2  0  0  0  0  0  0
  160.4210  206.4990  145.5610 O   0  0  0  0  0  1  0  0  0  0  0  0
  160.5760  206.4860  149.3970 N   0  0  0  0  0  2  0  0  0  0  0  0
  161.5850  207.4960  149.6840 C   0  0  2  0  0  3  0  0  0  0  0  0
  161.1480  208.3040  150.8990 C   0  0  0  0  0  2  0  0  0  0  0  0
  162.1750  209.3990  151.1680 C   0  0  0  0  0  2  0  0  0  0  0  0
  161.7880  208.3980  148.4940 C   0  0  0  0  0  3  0  0  0  0  0  0
  162.1550  209.6820  148.6300 C   0  0  0  0  0  3  0  0  0  0  0  0
  162.3250  210.3580  149.9730 C   0  0  1  0  0  3  0  0  0  0  0  0
  161.4300  211.4310  150.0780 O   0  0  0  0  0  0  0  0  0  0  0  0
  160.7310  213.4180  148.9660 C   0  0  0  0  0  1  0  0  0  0  0  0
  161.6380  212.2030  148.9290 C   0  0  0  0  0  2  0  0  0  0  0  0
  160.3480  204.9820  151.8480 C   0  0  0  0  0  2  0  0  0  0  0  0
  162.7320  205.2210  152.0060 O   0  0  0  0  0  0  0  0  0  0  0  0
  161.6140  205.3390  152.5790 C   0  0  0  0  0  0  0  0  0  0  0  0
  161.5750  205.7980  153.8990 O   0  0  0  0  0  0  0  0  0  0  0  0
  160.8380  206.9530  154.2820 C   0  0  0  0  0  1  0  0  0  0  0  0
  1  7  1  0  0  0  0
  2  4  1  0  0  0  0
  3  5  2  0  0  0  0
  3  2  1  0  0  0  0
  4  6  1  0  0  0  0
  5  9  1  0  0  0  0
  6  1  2  0  0  0  0
  7 22  1  0  0  0  0
  8 12  1  0  0  0  0
  8  7  2  0  0  0  0
  9  4  2  0  0  0  0
  9  8  1  0  0  0  0
 10  5  1  0  0  0  0
 11 10  1  0  0  0  0
 13 12  1  6  0  0  0
 13 14  1  0  0  0  0
 14 15  1  0  0  0  0
 16 17  2  0  0  0  0
 16 13  1  0  0  0  0
 17 18  1  0  0  0  0
 18 19  1  1  0  0  0
 18 15  1  0  0  0  0
 21 20  1  0  0  0  0
 21 19  1  0  0  0  0
 22 24  1  0  0  0  0
 23 24  2  0  0  0  0
 24 25  1  0  0  0  0
 25 26  1  0  0  0  0
M  END
>  <MODEL>
4

>  <REMARK>
 VINA RESULT:      -7.5      2.295      6.229
  Name = 
  8 active torsions:
  status: ('A' for Active; 'I' for Inactive)
    1  A    between atoms: O_4  and  C_17
    2  A    between atoms: O_6  and  C_23
    3  A    between atoms: O_6  and  C_25
    4  A    between atoms: C_7  and  N_21
    5  A    between atoms: C_11  and  N_13
    6  A    between atoms: C_17  and  C_22
    7  A    between atoms: C_20  and  C_22
    8  A    between atoms: N_21  and  C_24
                            x       y       z     vdW  Elec       q    Type
                         _______ _______ _______ _____ _____    ______ ____

>  <TORSDO>
F 8

$$$$
=
 OpenBabel11052409493D

 26 28  0  0  1  0  0  0  0  0999 V2000
  162.1880  209.2740  151.1210 C   0  0  0  0  0  3  0  0  0  0  0  0
  161.5470  206.4870  153.4000 N   0  0  0  0  0  2  0  0  0  0  0  0
  161.0880  205.3170  152.9660 N   0  0  0  0  0  0  0  0  0  0  0  0
  161.6400  207.3030  152.3360 C   0  0  0  0  0  0  0  0  0  0  0  0
  160.8880  205.3940  151.6300 C   0  0  0  0  0  0  0  0  0  0  0  0
  162.1170  208.6010  152.3450 C   0  0  0  0  0  3  0  0  0  0  0  0
  161.7710  208.6500  149.9230 C   0  0  0  0  0  0  0  0  0  0  0  0
  161.2590  207.3320  149.9340 C   0  0  0  0  0  0  0  0  0  0  0  0
  161.2290  206.6680  151.1830 C   0  0  0  0  0  0  0  0  0  0  0  0
  160.4700  204.2810  150.8430 N   0  0  0  0  0  2  0  0  0  0  0  0
  160.9340  203.0310  151.0950 O   0  0  0  0  0  1  0  0  0  0  0  0
  160.8240  206.7440  148.6960 N   0  0  0  0  0  2  0  0  0  0  0  0
  161.6390  206.0650  147.6990 C   0  0  2  0  0  3  0  0  0  0  0  0
  161.0070  206.2580  146.3260 C   0  0  0  0  0  2  0  0  0  0  0  0
  161.8280  205.5000  145.2870 C   0  0  0  0  0  2  0  0  0  0  0  0
  161.7620  204.5980  148.0220 C   0  0  0  0  0  3  0  0  0  0  0  0
  161.9090  203.6690  147.0650 C   0  0  0  0  0  3  0  0  0  0  0  0
  161.8890  203.9910  145.5860 C   0  0  1  0  0  3  0  0  0  0  0  0
  160.8290  203.3150  144.9700 O   0  0  0  0  0  0  0  0  0  0  0  0
  159.7610  201.1870  144.8940 C   0  0  0  0  0  1  0  0  0  0  0  0
  160.7380  202.0840  145.6300 C   0  0  0  0  0  2  0  0  0  0  0  0
  161.9130  209.4160  148.6420 C   0  0  0  0  0  2  0  0  0  0  0  0
  161.2180  211.4830  149.6470 O   0  0  0  0  0  0  0  0  0  0  0  0
  162.0210  210.8990  148.8680 C   0  0  0  0  0  0  0  0  0  0  0  0
  163.0030  211.6540  148.2190 O   0  0  0  0  0  0  0  0  0  0  0  0
  162.7250  212.9200  147.6330 C   0  0  0  0  0  1  0  0  0  0  0  0
  1  6  1  0  0  0  0
  3  2  1  0  0  0  0
  4  6  2  0  0  0  0
  4  2  1  0  0  0  0
  5  3  2  0  0  0  0
  7  8  1  0  0  0  0
  7  1  2  0  0  0  0
  8  9  2  0  0  0  0
  9  5  1  0  0  0  0
  9  4  1  0  0  0  0
 10 11  1  0  0  0  0
 10  5  1  0  0  0  0
 12  8  1  0  0  0  0
 13 16  1  0  0  0  0
 13 12  1  1  0  0  0
 14 13  1  0  0  0  0
 15 18  1  0  0  0  0
 15 14  1  0  0  0  0
 17 16  2  0  0  0  0
 18 19  1  1  0  0  0
 18 17  1  0  0  0  0
 19 21  1  0  0  0  0
 20 21  1  0  0  0  0
 22 24  1  0  0  0  0
 22  7  1  0  0  0  0
 24 23  2  0  0  0  0
 25 24  1  0  0  0  0
 26 25  1  0  0  0  0
M  END
>  <MODEL>
5

>  <REMARK>
 VINA RESULT:      -7.5      1.712      4.814
  Name = 
  8 active torsions:
  status: ('A' for Active; 'I' for Inactive)
    1  A    between atoms: O_4  and  C_17
    2  A    between atoms: O_6  and  C_23
    3  A    between atoms: O_6  and  C_25
    4  A    between atoms: C_7  and  N_21
    5  A    between atoms: C_11  and  N_13
    6  A    between atoms: C_17  and  C_22
    7  A    between atoms: C_20  and  C_22
    8  A    between atoms: N_21  and  C_24
                            x       y       z     vdW  Elec       q    Type
                         _______ _______ _______ _____ _____    ______ ____

>  <TORSDO>
F 8

$$$$
=
 OpenBabel11052409493D

 26 28  0  0  1  0  0  0  0  0999 V2000
  160.9700  203.7020  147.8230 C   0  0  0  0  0  3  0  0  0  0  0  0
  161.3310  202.2560  151.1630 N   0  0  0  0  0  2  0  0  0  0  0  0
  161.2230  202.9940  152.2630 N   0  0  0  0  0  0  0  0  0  0  0  0
  161.1870  203.0780  150.1100 C   0  0  0  0  0  0  0  0  0  0  0  0
  161.0150  204.2830  151.9060 C   0  0  0  0  0  0  0  0  0  0  0  0
  161.1910  202.7040  148.7780 C   0  0  0  0  0  3  0  0  0  0  0  0
  160.7680  205.0470  148.2110 C   0  0  0  0  0  0  0  0  0  0  0  0
  160.7960  205.4180  149.5760 C   0  0  0  0  0  0  0  0  0  0  0  0
  160.9910  204.3800  150.5170 C   0  0  0  0  0  0  0  0  0  0  0  0
  160.7800  205.3220  152.8540 N   0  0  0  0  0  2  0  0  0  0  0  0
  161.8090  206.0110  153.4080 O   0  0  0  0  0  1  0  0  0  0  0  0
  160.6100  206.8010  149.9230 N   0  0  0  0  0  2  0  0  0  0  0  0
  161.6320  207.8280  150.0690 C   0  0  2  0  0  3  0  0  0  0  0  0
  161.2190  208.7850  151.1800 C   0  0  0  0  0  2  0  0  0  0  0  0
  162.2600  209.8950  151.2960 C   0  0  0  0  0  2  0  0  0  0  0  0
  161.8260  208.5720  148.7740 C   0  0  0  0  0  3  0  0  0  0  0  0
  162.2070  209.8590  148.7430 C   0  0  0  0  0  3  0  0  0  0  0  0
  162.4010  210.6960  149.9900 C   0  0  1  0  0  3  0  0  0  0  0  0
  161.5180  211.7820  149.9710 O   0  0  0  0  0  0  0  0  0  0  0  0
  160.4000  213.1220  148.3490 C   0  0  0  0  0  1  0  0  0  0  0  0
  161.6610  212.3580  148.7040 C   0  0  0  0  0  2  0  0  0  0  0  0
  160.4980  206.0570  147.1380 C   0  0  0  0  0  2  0  0  0  0  0  0
  160.4600  205.3200  144.8520 O   0  0  0  0  0  0  0  0  0  0  0  0
  161.1570  205.7010  145.8330 C   0  0  0  0  0  0  0  0  0  0  0  0
  162.5460  205.7770  145.6870 O   0  0  0  0  0  0  0  0  0  0  0  0
  163.3760  204.6220  145.6980 C   0  0  0  0  0  1  0  0  0  0  0  0
  1  7  2  0  0  0  0
  1  6  1  0  0  0  0
  2  3  1  0  0  0  0
  4  9  1  0  0  0  0
  4  2  1  0  0  0  0
  5  3  2  0  0  0  0
  5 10  1  0  0  0  0
  6  4  2  0  0  0  0
  7  8  1  0  0  0  0
  8 12  1  0  0  0  0
  8  9  2  0  0  0  0
  9  5  1  0  0  0  0
 10 11  1  0  0  0  0
 13 12  1  6  0  0  0
 13 14  1  0  0  0  0
 14 15  1  0  0  0  0
 16 13  1  0  0  0  0
 17 16  2  0  0  0  0
 17 18  1  0  0  0  0
 18 19  1  1  0  0  0
 18 15  1  0  0  0  0
 20 21  1  0  0  0  0
 21 19  1  0  0  0  0
 22  7  1  0  0  0  0
 23 24  2  0  0  0  0
 24 22  1  0  0  0  0
 25 26  1  0  0  0  0
 25 24  1  0  0  0  0
M  END
>  <MODEL>
6

>  <REMARK>
 VINA RESULT:      -7.3      2.469      6.554
  Name = 
  8 active torsions:
  status: ('A' for Active; 'I' for Inactive)
    1  A    between atoms: O_4  and  C_17
    2  A    between atoms: O_6  and  C_23
    3  A    between atoms: O_6  and  C_25
    4  A    between atoms: C_7  and  N_21
    5  A    between atoms: C_11  and  N_13
    6  A    between atoms: C_17  and  C_22
    7  A    between atoms: C_20  and  C_22
    8  A    between atoms: N_21  and  C_24
                            x       y       z     vdW  Elec       q    Type
                         _______ _______ _______ _____ _____    ______ ____

>  <TORSDO>
F 8

$$$$
=
 OpenBabel11052409493D

 26 28  0  0  1  0  0  0  0  0999 V2000
  160.7350  204.6350  149.5830 C   0  0  0  0  0  3  0  0  0  0  0  0
  161.4500  207.8160  147.9270 N   0  0  0  0  0  2  0  0  0  0  0  0
  161.8620  208.8830  148.6040 N   0  0  0  0  0  0  0  0  0  0  0  0
  161.2420  206.8300  148.8160 C   0  0  0  0  0  0  0  0  0  0  0  0
  161.9110  208.5730  149.9200 C   0  0  0  0  0  0  0  0  0  0  0  0
  160.8470  205.5370  148.5210 C   0  0  0  0  0  3  0  0  0  0  0  0
  161.0010  205.0400  150.9120 C   0  0  0  0  0  0  0  0  0  0  0  0
  161.3750  206.3730  151.2000 C   0  0  0  0  0  0  0  0  0  0  0  0
  161.5090  207.2520  150.1010 C   0  0  0  0  0  0  0  0  0  0  0  0
  162.3880  209.4780  150.9130 N   0  0  0  0  0  2  0  0  0  0  0  0
  161.9450  210.7600  150.9640 O   0  0  0  0  0  1  0  0  0  0  0  0
  161.6130  206.7470  152.5680 N   0  0  0  0  0  2  0  0  0  0  0  0
  160.7010  207.4280  153.4760 C   0  0  2  0  0  3  0  0  0  0  0  0
  161.2550  208.8120  153.7910 C   0  0  0  0  0  2  0  0  0  0  0  0
  160.3310  209.5060  154.7870 C   0  0  0  0  0  2  0  0  0  0  0  0
  160.5180  206.6310  154.7420 C   0  0  0  0  0  3  0  0  0  0  0  0
  160.2600  207.2190  155.9210 C   0  0  0  0  0  3  0  0  0  0  0  0
  160.2050  208.7210  156.1040 C   0  0  1  0  0  3  0  0  0  0  0  0
  161.1860  209.1200  157.0210 O   0  0  0  0  0  0  0  0  0  0  0  0
  162.7520  210.9150  157.0460 C   0  0  0  0  0  1  0  0  0  0  0  0
  161.3030  210.5050  156.8610 C   0  0  0  0  0  2  0  0  0  0  0  0
  160.9000  204.0100  151.9960 C   0  0  0  0  0  2  0  0  0  0  0  0
  162.4050  202.1450  151.8320 O   0  0  0  0  0  0  0  0  0  0  0  0
  161.2840  202.6350  151.5210 C   0  0  0  0  0  0  0  0  0  0  0  0
  160.4150  201.8830  150.7240 O   0  0  0  0  0  0  0  0  0  0  0  0
  160.8770  201.0660  149.6560 C   0  0  0  0  0  1  0  0  0  0  0  0
  1  7  1  0  0  0  0
  2  3  1  0  0  0  0
  2  4  1  0  0  0  0
  3  5  2  0  0  0  0
  4  9  2  0  0  0  0
  5  9  1  0  0  0  0
  5 10  1  0  0  0  0
  6  4  1  0  0  0  0
  6  1  2  0  0  0  0
  7  8  2  0  0  0  0
  7 22  1  0  0  0  0
  8 12  1  0  0  0  0
  9  8  1  0  0  0  0
 10 11  1  0  0  0  0
 13 12  1  6  0  0  0
 13 14  1  0  0  0  0
 13 16  1  0  0  0  0
 14 15  1  0  0  0  0
 15 18  1  0  0  0  0
 16 17  2  0  0  0  0
 17 18  1  0  0  0  0
 18 19  1  1  0  0  0
 21 19  1  0  0  0  0
 21 20  1  0  0  0  0
 24 23  2  0  0  0  0
 24 22  1  0  0  0  0
 25 24  1  0  0  0  0
 26 25  1  0  0  0  0
M  END
>  <MODEL>
7

>  <REMARK>
 VINA RESULT:      -7.3      2.797      6.933
  Name = 
  8 active torsions:
  status: ('A' for Active; 'I' for Inactive)
    1  A    between atoms: O_4  and  C_17
    2  A    between atoms: O_6  and  C_23
    3  A    between atoms: O_6  and  C_25
    4  A    between atoms: C_7  and  N_21
    5  A    between atoms: C_11  and  N_13
    6  A    between atoms: C_17  and  C_22
    7  A    between atoms: C_20  and  C_22
    8  A    between atoms: N_21  and  C_24
                            x       y       z     vdW  Elec       q    Type
                         _______ _______ _______ _____ _____    ______ ____

>  <TORSDO>
F 8

$$$$
=
 OpenBabel11052409493D

 26 28  0  0  1  0  0  0  0  0999 V2000
  160.6690  202.5410  149.9060 C   0  0  0  0  0  3  0  0  0  0  0  0
  161.5730  202.3360  146.3680 N   0  0  0  0  0  2  0  0  0  0  0  0
  161.7140  203.4230  145.6160 N   0  0  0  0  0  0  0  0  0  0  0  0
  161.2050  202.7410  147.5960 C   0  0  0  0  0  0  0  0  0  0  0  0
  161.4330  204.5130  146.3660 C   0  0  0  0  0  0  0  0  0  0  0  0
  160.9950  201.9260  148.6940 C   0  0  0  0  0  3  0  0  0  0  0  0
  160.5430  203.9470  149.9970 C   0  0  0  0  0  0  0  0  0  0  0  0
  160.7330  204.7650  148.8590 C   0  0  0  0  0  0  0  0  0  0  0  0
  161.0920  204.1130  147.6560 C   0  0  0  0  0  0  0  0  0  0  0  0
  161.5650  205.8460  145.8770 N   0  0  0  0  0  2  0  0  0  0  0  0
  160.4740  206.5790  145.5360 O   0  0  0  0  0  1  0  0  0  0  0  0
  160.5720  206.1870  148.9910 N   0  0  0  0  0  2  0  0  0  0  0  0
  161.5660  207.1590  149.4260 C   0  0  2  0  0  3  0  0  0  0  0  0
  161.2140  207.6360  150.8280 C   0  0  0  0  0  2  0  0  0  0  0  0
  162.2220  208.6960  151.2640 C   0  0  0  0  0  2  0  0  0  0  0  0
  161.6250  208.3220  148.4700 C   0  0  0  0  0  3  0  0  0  0  0  0
  161.9560  209.5590  148.8750 C   0  0  0  0  0  3  0  0  0  0  0  0
  162.2250  209.9130  150.3220 C   0  0  1  0  0  3  0  0  0  0  0  0
  161.3050  210.8790  150.7490 O   0  0  0  0  0  0  0  0  0  0  0  0
  159.8140  211.0890  152.5950 C   0  0  0  0  0  1  0  0  0  0  0  0
  161.2110  210.7170  152.1360 C   0  0  0  0  0  2  0  0  0  0  0  0
  160.2310  204.5420  151.3370 C   0  0  0  0  0  2  0  0  0  0  0  0
  162.6050  204.5170  151.7000 O   0  0  0  0  0  0  0  0  0  0  0  0
  161.4570  204.7080  152.1920 C   0  0  0  0  0  0  0  0  0  0  0  0
  161.3500  205.0660  153.5390 O   0  0  0  0  0  0  0  0  0  0  0  0
  161.1940  206.4160  153.9570 C   0  0  0  0  0  1  0  0  0  0  0  0
  1  7  1  0  0  0  0
  2  4  1  0  0  0  0
  3  5  2  0  0  0  0
  3  2  1  0  0  0  0
  4  9  2  0  0  0  0
  4  6  1  0  0  0  0
  5  9  1  0  0  0  0
  6  1  2  0  0  0  0
  7 22  1  0  0  0  0
  8 12  1  0  0  0  0
  8  7  2  0  0  0  0
  9  8  1  0  0  0  0
 10  5  1  0  0  0  0
 11 10  1  0  0  0  0
 13 12  1  6  0  0  0
 13 14  1  0  0  0  0
 14 15  1  0  0  0  0
 16 17  2  0  0  0  0
 16 13  1  0  0  0  0
 17 18  1  0  0  0  0
 18 19  1  1  0  0  0
 18 15  1  0  0  0  0
 19 21  1  0  0  0  0
 21 20  1  0  0  0  0
 22 24  1  0  0  0  0
 23 24  2  0  0  0  0
 24 25  1  0  0  0  0
 25 26  1  0  0  0  0
M  END
>  <MODEL>
8

>  <REMARK>
 VINA RESULT:      -7.2      2.268      6.252
  Name = 
  8 active torsions:
  status: ('A' for Active; 'I' for Inactive)
    1  A    between atoms: O_4  and  C_17
    2  A    between atoms: O_6  and  C_23
    3  A    between atoms: O_6  and  C_25
    4  A    between atoms: C_7  and  N_21
    5  A    between atoms: C_11  and  N_13
    6  A    between atoms: C_17  and  C_22
    7  A    between atoms: C_20  and  C_22
    8  A    between atoms: N_21  and  C_24
                            x       y       z     vdW  Elec       q    Type
                         _______ _______ _______ _____ _____    ______ ____

>  <TORSDO>
F 8

$$$$
=
 OpenBabel11052409493D

 26 28  0  0  1  0  0  0  0  0999 V2000
  162.0430  209.5260  149.8610 C   0  0  0  0  0  3  0  0  0  0  0  0
  160.5580  210.2490  153.1240 N   0  0  0  0  0  2  0  0  0  0  0  0
  160.4380  209.3150  154.0630 N   0  0  0  0  0  0  0  0  0  0  0  0
  161.1020  209.6650  152.0430 C   0  0  0  0  0  0  0  0  0  0  0  0
  160.9020  208.1420  153.5750 C   0  0  0  0  0  0  0  0  0  0  0  0
  161.4330  210.2950  150.8570 C   0  0  0  0  0  3  0  0  0  0  0  0
  162.2930  208.1480  150.0590 C   0  0  0  0  0  0  0  0  0  0  0  0
  161.9220  207.5110  151.2660 C   0  0  0  0  0  0  0  0  0  0  0  0
  161.3350  208.3240  152.2640 C   0  0  0  0  0  0  0  0  0  0  0  0
  160.9840  206.9540  154.3590 N   0  0  0  0  0  2  0  0  0  0  0  0
  160.4500  206.8970  155.6050 O   0  0  0  0  0  1  0  0  0  0  0  0
  162.1730  206.1040  151.4150 N   0  0  0  0  0  2  0  0  0  0  0  0
  161.2130  205.0130  151.3210 C   0  0  2  0  0  3  0  0  0  0  0  0
  161.8470  203.7440  151.8780 C   0  0  0  0  0  2  0  0  0  0  0  0
  160.8640  202.5870  151.7290 C   0  0  0  0  0  2  0  0  0  0  0  0
  160.7820  204.8060  149.8930 C   0  0  0  0  0  3  0  0  0  0  0  0
  160.4200  203.5990  149.4270 C   0  0  0  0  0  3  0  0  0  0  0  0
  160.4830  202.3370  150.2590 C   0  0  1  0  0  3  0  0  0  0  0  0
  161.3620  201.4220  149.6630 O   0  0  0  0  0  0  0  0  0  0  0  0
  161.4560  200.2780  147.5760 C   0  0  0  0  0  1  0  0  0  0  0  0
  161.2000  201.5950  148.2840 C   0  0  0  0  0  2  0  0  0  0  0  0
  162.9860  207.3930  148.9650 C   0  0  0  0  0  2  0  0  0  0  0  0
  160.8340  207.3350  147.9010 O   0  0  0  0  0  0  0  0  0  0  0  0
  162.0450  206.9790  147.8670 C   0  0  0  0  0  0  0  0  0  0  0  0
  162.4890  206.1930  146.7990 O   0  0  0  0  0  0  0  0  0  0  0  0
  161.7110  205.1300  146.2630 C   0  0  0  0  0  1  0  0  0  0  0  0
  1  7  2  0  0  0  0
  1  6  1  0  0  0  0
  2  3  1  0  0  0  0
  4  9  1  0  0  0  0
  4  2  1  0  0  0  0
  5  3  2  0  0  0  0
  5 10  1  0  0  0  0
  6  4  2  0  0  0  0
  7  8  1  0  0  0  0
  8 12  1  0  0  0  0
  8  9  2  0  0  0  0
  9  5  1  0  0  0  0
 10 11  1  0  0  0  0
 13 12  1  6  0  0  0
 13 14  1  0  0  0  0
 15 14  1  0  0  0  0
 16 13  1  0  0  0  0
 17 16  2  0  0  0  0
 17 18  1  0  0  0  0
 18 19  1  6  0  0  0
 18 15  1  0  0  0  0
 20 21  1  0  0  0  0
 21 19  1  0  0  0  0
 22  7  1  0  0  0  0
 24 23  2  0  0  0  0
 24 22  1  0  0  0  0
 25 24  1  0  0  0  0
 26 25  1  0  0  0  0
M  END
>  <MODEL>
9

>  <REMARK>
 VINA RESULT:      -7.0      2.249      4.579
  Name = 
  8 active torsions:
  status: ('A' for Active; 'I' for Inactive)
    1  A    between atoms: O_4  and  C_17
    2  A    between atoms: O_6  and  C_23
    3  A    between atoms: O_6  and  C_25
    4  A    between atoms: C_7  and  N_21
    5  A    between atoms: C_11  and  N_13
    6  A    between atoms: C_17  and  C_22
    7  A    between atoms: C_20  and  C_22
    8  A    between atoms: N_21  and  C_24
                            x       y       z     vdW  Elec       q    Type
                         _______ _______ _______ _____ _____    ______ ____

>  <TORSDO>
F 8

$$$$
