=
 OpenBabel11052410323D

 45 49  0  0  1  0  0  0  0  0999 V2000
  162.0680  210.0360  150.4500 C   0  0  0  0  0  2  0  0  0  0  0  0
  162.8660  210.2440  151.7270 C   0  0  0  0  0  2  0  0  0  0  0  0
  161.5680  209.4600  151.7580 C   0  0  0  0  0  0  0  0  0  0  0  0
  160.3700  210.1550  152.2220 N   0  0  0  0  0  2  0  0  0  0  0  0
  160.7590  211.3860  152.8960 C   0  0  0  0  0  2  0  0  0  0  0  0
  159.5970  212.3610  152.9500 C   0  0  1  0  0  3  0  0  0  0  0  0
  158.1540  212.9400  151.0670 N   0  0  0  0  0  0  0  0  0  0  0  0
  159.6600  214.0550  149.6280 N   0  0  0  0  0  0  0  0  0  0  0  0
  160.2700  213.6130  150.8090 N   0  0  0  0  0  2  0  0  0  0  0  0
  159.3190  212.9300  151.5930 C   0  0  0  0  0  0  0  0  0  0  0  0
  158.2570  213.6510  149.7960 C   0  0  0  0  0  2  0  0  0  0  0  0
  160.1800  213.2790  148.5900 N   0  0  0  0  0  2  0  0  0  0  0  0
  162.2740  212.3630  147.7990 C   0  0  0  0  0  2  0  0  0  0  0  0
  162.0900  213.7300  147.1770 C   0  0  0  0  0  2  0  0  0  0  0  0
  161.6180  213.4740  148.5910 C   0  0  0  0  0  3  0  0  0  0  0  0
  158.1240  211.5180  153.6130 S   0  0  0  0  0  0  0  0  0  0  0  0
  158.3980  213.7830  154.9060 O   0  0  0  0  0  0  0  0  0  0  0  0
  157.9630  212.6470  154.9970 C   0  0  0  0  0  0  0  0  0  0  0  0
  157.2950  212.1890  156.2560 C   0  0  0  0  0  2  0  0  0  0  0  0
  155.1360  212.1510  157.2600 F   0  0  0  0  0  0  0  0  0  0  0  0
  155.3030  212.8290  155.1120 F   0  0  0  0  0  0  0  0  0  0  0  0
  155.5930  210.6540  155.6340 F   0  0  0  0  0  0  0  0  0  0  0  0
  155.8020  211.9560  156.0620 C   0  0  0  0  0  0  0  0  0  0  0  0
  161.6170  207.9310  151.7910 C   0  0  2  0  0  3  0  0  0  0  0  0
  160.5060  207.2670  150.9720 C   0  0  0  0  0  2  0  0  0  0  0  0
  161.0880  206.2230  150.0300 C   0  0  1  0  0  3  0  0  0  0  0  0
  161.3150  203.8040  149.7780 C   0  0  0  0  0  2  0  0  0  0  0  0
  161.2160  203.5830  148.3450 N   0  0  0  0  0  0  0  0  0  0  0  0
  160.3690  204.9000  150.2150 C   0  0  0  0  0  2  0  0  0  0  0  0
  162.0620  204.2080  146.2650 O   0  0  0  0  0  0  0  0  0  0  0  0
  161.5720  204.5800  147.3660 C   0  0  0  0  0  0  0  0  0  0  0  0
  161.0020  206.7180  148.6230 C   0  0  0  0  0  3  0  0  0  0  0  0
  161.2540  206.0160  147.5130 C   0  0  0  0  0  3  0  0  0  0  0  0
  160.8670  201.2930  149.1330 C   0  0  0  0  0  1  0  0  0  0  0  0
  161.0190  202.2000  147.9270 C   0  0  0  0  0  2  0  0  0  0  0  0
  161.8530  207.3430  153.1960 C   0  0  2  0  0  3  0  0  0  0  0  0
  161.2270  205.2650  153.6270 C   0  0  0  0  0  1  0  0  0  0  0  0
  162.2590  206.0160  153.0640 O   0  0  0  0  0  0  0  0  0  0  0  0
  160.6260  207.3820  154.1060 C   0  0  0  0  0  2  0  0  0  0  0  0
  162.1090  209.9630  156.4260 C   0  0  0  0  0  3  0  0  0  0  0  0
  160.7640  208.3880  155.1930 C   0  0  0  0  0  0  0  0  0  0  0  0
  161.0140  210.3250  157.1450 N   0  0  0  0  0  0  0  0  0  0  0  0
  159.6470  208.7830  155.9340 C   0  0  0  0  0  3  0  0  0  0  0  0
  159.7970  209.7580  156.9230 C   0  0  0  0  0  3  0  0  0  0  0  0
  162.0030  208.9880  155.4320 C   0  0  0  0  0  3  0  0  0  0  0  0
  1  2  1  0  0  0  0
  1  3  1  0  0  0  0
  2  3  1  0  0  0  0
  3 24  1  0  0  0  0
  3  4  1  0  0  0  0
  4  5  1  0  0  0  0
  6  5  1  6  0  0  0
  6 16  1  0  0  0  0
  7 10  2  0  0  0  0
  8 11  1  0  0  0  0
  8  9  1  0  0  0  0
  9 10  1  0  0  0  0
 10  6  1  0  0  0  0
 11  7  1  0  0  0  0
 12 15  1  0  0  0  0
 12  8  1  0  0  0  0
 13 15  1  0  0  0  0
 14 13  1  0  0  0  0
 14 15  1  0  0  0  0
 16 18  1  0  0  0  0
 17 18  2  0  0  0  0
 18 19  1  0  0  0  0
 21 23  1  0  0  0  0
 22 23  1  0  0  0  0
 23 19  1  0  0  0  0
 23 20  1  0  0  0  0
 24 25  1  1  0  0  0
 24 36  1  0  0  0  0
 26 29  1  0  0  0  0
 26 25  1  1  0  0  0
 27 29  1  0  0  0  0
 28 27  1  0  0  0  0
 30 31  2  0  0  0  0
 31 33  1  0  0  0  0
 31 28  1  0  0  0  0
 32 26  1  0  0  0  0
 33 32  2  0  0  0  0
 35 28  1  0  0  0  0
 35 34  1  0  0  0  0
 36 39  1  1  0  0  0
 38 36  1  0  0  0  0
 38 37  1  0  0  0  0
 39 41  1  0  0  0  0
 40 42  1  0  0  0  0
 41 45  1  0  0  0  0
 41 43  2  0  0  0  0
 43 44  1  0  0  0  0
 44 42  2  0  0  0  0
 45 40  2  0  0  0  0
M  END
>  <MODEL>
1

>  <REMARK>
 VINA RESULT:      -6.3      0.000      0.000
  Name = 
  18 active torsions:
  status: ('A' for Active; 'I' for Inactive)
    1  A    between atoms: C_1  and  C_22
    2  A    between atoms: C_1  and  C_29
    3  A    between atoms: C_1  and  C_43
    4  A    between atoms: N_3  and  C_22
    5  A    between atoms: N_3  and  C_42
    6  A    between atoms: C_6  and  C_21
    7  A    between atoms: C_6  and  C_43
    8  A    between atoms: C_12  and  C_29
    9  A    between atoms: S_14  and  C_36
   10  A    between atoms: S_14  and  C_41
   11  A    between atoms: N_16  and  N_31
   12  A    between atoms: C_18  and  C_28
   13  A    between atoms: N_19  and  C_40
   14  A    between atoms: C_27  and  C_41
   15  A    between atoms: C_28  and  C_36
   16  A    between atoms: N_31  and  C_44
   17  A    between atoms: O_37  and  C_43
   18  A    between atoms: C_41  and  C_42
                            x       y       z     vdW  Elec       q    Type
                         _______ _______ _______ _____ _____    ______ ____

>  <TORSDO>
F 18

$$$$
=
 OpenBabel11052410323D

 45 49  0  0  1  0  0  0  0  0999 V2000
  162.2190  210.1850  150.3900 C   0  0  0  0  0  2  0  0  0  0  0  0
  162.8810  210.3550  151.7490 C   0  0  0  0  0  2  0  0  0  0  0  0
  161.6040  209.5460  151.6170 C   0  0  0  0  0  0  0  0  0  0  0  0
  160.3500  210.1980  151.9840 N   0  0  0  0  0  2  0  0  0  0  0  0
  160.5610  211.6380  152.0570 C   0  0  0  0  0  2  0  0  0  0  0  0
  159.2440  212.3660  152.2640 C   0  0  1  0  0  3  0  0  0  0  0  0
  159.7700  212.4230  154.6470 N   0  0  0  0  0  0  0  0  0  0  0  0
  157.6260  212.6540  155.6120 N   0  0  0  0  0  0  0  0  0  0  0  0
  157.5840  212.5930  154.2120 N   0  0  0  0  0  2  0  0  0  0  0  0
  158.8930  212.4210  153.7190 C   0  0  0  0  0  0  0  0  0  0  0  0
  159.0620  212.5790  155.9150 C   0  0  0  0  0  2  0  0  0  0  0  0
  157.0530  211.4700  156.0840 N   0  0  0  0  0  2  0  0  0  0  0  0
  155.2170  210.0720  155.3600 C   0  0  0  0  0  2  0  0  0  0  0  0
  154.8420  210.6960  156.6870 C   0  0  0  0  0  2  0  0  0  0  0  0
  155.6580  211.4830  155.6850 C   0  0  0  0  0  3  0  0  0  0  0  0
  159.3580  214.0430  151.5600 S   0  0  0  0  0  0  0  0  0  0  0  0
  157.4360  212.8720  150.2150 O   0  0  0  0  0  0  0  0  0  0  0  0
  158.3940  213.6200  150.1090 C   0  0  0  0  0  0  0  0  0  0  0  0
  158.7690  214.1870  148.7760 C   0  0  0  0  0  2  0  0  0  0  0  0
  160.6260  212.7230  149.0560 F   0  0  0  0  0  0  0  0  0  0  0  0
  159.3260  212.4630  147.2270 F   0  0  0  0  0  0  0  0  0  0  0  0
  160.6970  214.2450  147.3910 F   0  0  0  0  0  0  0  0  0  0  0  0
  159.8730  213.3850  148.1000 C   0  0  0  0  0  0  0  0  0  0  0  0
  161.6850  208.0180  151.5960 C   0  0  2  0  0  3  0  0  0  0  0  0
  160.6220  207.3640  150.7090 C   0  0  0  0  0  2  0  0  0  0  0  0
  161.2600  206.3520  149.7690 C   0  0  1  0  0  3  0  0  0  0  0  0
  161.2870  203.9580  149.2840 C   0  0  0  0  0  2  0  0  0  0  0  0
  161.4310  203.8860  147.8400 N   0  0  0  0  0  0  0  0  0  0  0  0
  160.3910  205.1120  149.6750 C   0  0  0  0  0  2  0  0  0  0  0  0
  162.7040  204.6010  146.0220 O   0  0  0  0  0  0  0  0  0  0  0  0
  162.0590  204.9220  147.0580 C   0  0  0  0  0  0  0  0  0  0  0  0
  161.4840  206.9840  148.4340 C   0  0  0  0  0  3  0  0  0  0  0  0
  161.8640  206.3660  147.3110 C   0  0  0  0  0  3  0  0  0  0  0  0
  160.9190  201.5410  148.3110 C   0  0  0  0  0  1  0  0  0  0  0  0
  161.1780  202.5820  147.2390 C   0  0  0  0  0  2  0  0  0  0  0  0
  161.8780  207.3830  152.9870 C   0  0  2  0  0  3  0  0  0  0  0  0
  161.2560  205.3040  153.4220 C   0  0  0  0  0  1  0  0  0  0  0  0
  162.2680  206.0540  152.8220 O   0  0  0  0  0  0  0  0  0  0  0  0
  160.6300  207.4120  153.8680 C   0  0  0  0  0  2  0  0  0  0  0  0
  160.0780  209.0570  157.2200 C   0  0  0  0  0  3  0  0  0  0  0  0
  160.7900  208.3150  155.0390 C   0  0  0  0  0  0  0  0  0  0  0  0
  161.1270  209.9210  157.2600 N   0  0  0  0  0  0  0  0  0  0  0  0
  161.8690  209.2000  155.1060 C   0  0  0  0  0  3  0  0  0  0  0  0
  162.0170  210.0090  156.2350 C   0  0  0  0  0  3  0  0  0  0  0  0
  159.8920  208.2350  156.1070 C   0  0  0  0  0  3  0  0  0  0  0  0
  1  3  1  0  0  0  0
  1  2  1  0  0  0  0
  3  2  1  0  0  0  0
  3  4  1  0  0  0  0
  4  5  1  0  0  0  0
  6  5  1  1  0  0  0
  6 10  1  0  0  0  0
  7 11  1  0  0  0  0
  8 11  1  0  0  0  0
  8 12  1  0  0  0  0
  9  8  1  0  0  0  0
 10  9  1  0  0  0  0
 10  7  2  0  0  0  0
 13 15  1  0  0  0  0
 13 14  1  0  0  0  0
 15 12  1  0  0  0  0
 15 14  1  0  0  0  0
 16  6  1  0  0  0  0
 18 17  2  0  0  0  0
 18 16  1  0  0  0  0
 19 18  1  0  0  0  0
 21 23  1  0  0  0  0
 22 23  1  0  0  0  0
 23 19  1  0  0  0  0
 23 20  1  0  0  0  0
 24 25  1  1  0  0  0
 24  3  1  0  0  0  0
 24 36  1  0  0  0  0
 26 25  1  1  0  0  0
 27 29  1  0  0  0  0
 28 27  1  0  0  0  0
 29 26  1  0  0  0  0
 30 31  2  0  0  0  0
 31 33  1  0  0  0  0
 31 28  1  0  0  0  0
 32 26  1  0  0  0  0
 33 32  2  0  0  0  0
 35 28  1  0  0  0  0
 35 34  1  0  0  0  0
 36 39  1  1  0  0  0
 38 36  1  0  0  0  0
 38 37  1  0  0  0  0
 39 41  1  0  0  0  0
 40 42  1  0  0  0  0
 41 43  2  0  0  0  0
 41 45  1  0  0  0  0
 43 44  1  0  0  0  0
 44 42  2  0  0  0  0
 45 40  2  0  0  0  0
M  END
>  <MODEL>
2

>  <REMARK>
 VINA RESULT:      -5.9      2.858      4.858
  Name = 
  18 active torsions:
  status: ('A' for Active; 'I' for Inactive)
    1  A    between atoms: C_1  and  C_22
    2  A    between atoms: C_1  and  C_29
    3  A    between atoms: C_1  and  C_43
    4  A    between atoms: N_3  and  C_22
    5  A    between atoms: N_3  and  C_42
    6  A    between atoms: C_6  and  C_21
    7  A    between atoms: C_6  and  C_43
    8  A    between atoms: C_12  and  C_29
    9  A    between atoms: S_14  and  C_36
   10  A    between atoms: S_14  and  C_41
   11  A    between atoms: N_16  and  N_31
   12  A    between atoms: C_18  and  C_28
   13  A    between atoms: N_19  and  C_40
   14  A    between atoms: C_27  and  C_41
   15  A    between atoms: C_28  and  C_36
   16  A    between atoms: N_31  and  C_44
   17  A    between atoms: O_37  and  C_43
   18  A    between atoms: C_41  and  C_42
                            x       y       z     vdW  Elec       q    Type
                         _______ _______ _______ _____ _____    ______ ____

>  <TORSDO>
F 18

$$$$
=
 OpenBabel11052410323D

 45 49  0  0  1  0  0  0  0  0999 V2000
  162.6590  209.8780  151.4350 C   0  0  0  0  0  2  0  0  0  0  0  0
  161.1480  210.0290  151.5240 C   0  0  0  0  0  2  0  0  0  0  0  0
  161.7680  209.1720  150.4350 C   0  0  0  0  0  0  0  0  0  0  0  0
  161.8930  209.7600  149.1040 N   0  0  0  0  0  2  0  0  0  0  0  0
  162.4830  211.0870  149.2180 C   0  0  0  0  0  2  0  0  0  0  0  0
  161.6990  212.0970  148.3980 C   0  0  1  0  0  3  0  0  0  0  0  0
  160.4260  214.0780  149.0420 N   0  0  0  0  0  0  0  0  0  0  0  0
  159.2040  213.2870  150.9020 N   0  0  0  0  0  0  0  0  0  0  0  0
  160.0340  212.3050  150.3440 N   0  0  0  0  0  2  0  0  0  0  0  0
  160.7510  212.8630  149.2680 C   0  0  0  0  0  0  0  0  0  0  0  0
  159.4230  214.4530  150.0340 C   0  0  0  0  0  2  0  0  0  0  0  0
  159.7420  213.6090  152.1500 N   0  0  0  0  0  2  0  0  0  0  0  0
  158.6210  213.5000  154.2910 C   0  0  0  0  0  2  0  0  0  0  0  0
  157.6670  212.9940  153.2310 C   0  0  0  0  0  2  0  0  0  0  0  0
  159.1470  212.7030  153.1170 C   0  0  0  0  0  3  0  0  0  0  0  0
  162.8550  213.2210  147.5500 S   0  0  0  0  0  0  0  0  0  0  0  0
  160.7600  213.0720  145.9790 O   0  0  0  0  0  0  0  0  0  0  0  0
  161.9780  213.1240  145.9890 C   0  0  0  0  0  0  0  0  0  0  0  0
  162.7480  213.1080  144.7050 C   0  0  0  0  0  2  0  0  0  0  0  0
  160.8690  211.8900  143.8930 F   0  0  0  0  0  0  0  0  0  0  0  0
  161.2900  213.9240  143.0050 F   0  0  0  0  0  0  0  0  0  0  0  0
  162.6370  212.1820  142.5210 F   0  0  0  0  0  0  0  0  0  0  0  0
  161.8650  212.7730  143.5100 C   0  0  0  0  0  0  0  0  0  0  0  0
  161.7820  207.6510  150.5960 C   0  0  2  0  0  3  0  0  0  0  0  0
  160.6410  206.9490  149.8520 C   0  0  0  0  0  2  0  0  0  0  0  0
  161.1960  205.9540  148.8430 C   0  0  1  0  0  3  0  0  0  0  0  0
  161.5340  203.5560  148.5230 C   0  0  0  0  0  2  0  0  0  0  0  0
  161.3210  203.3510  147.1000 N   0  0  0  0  0  0  0  0  0  0  0  0
  160.5710  204.5890  149.0630 C   0  0  0  0  0  2  0  0  0  0  0  0
  161.9450  204.0550  144.9670 O   0  0  0  0  0  0  0  0  0  0  0  0
  161.5340  204.3820  146.1140 C   0  0  0  0  0  0  0  0  0  0  0  0
  160.9580  206.4640  147.4590 C   0  0  0  0  0  3  0  0  0  0  0  0
  161.1500  205.7950  146.3170 C   0  0  0  0  0  3  0  0  0  0  0  0
  161.1140  201.0390  147.8730 C   0  0  0  0  0  1  0  0  0  0  0  0
  161.1660  201.9660  146.6730 C   0  0  0  0  0  2  0  0  0  0  0  0
  162.0270  207.1770  152.0420 C   0  0  2  0  0  3  0  0  0  0  0  0
  162.0490  204.9800  152.3050 C   0  0  0  0  0  1  0  0  0  0  0  0
  162.8720  206.0680  152.0130 O   0  0  0  0  0  0  0  0  0  0  0  0
  160.7570  206.7950  152.8010 C   0  0  0  0  0  2  0  0  0  0  0  0
  160.9570  209.3020  155.6150 C   0  0  0  0  0  3  0  0  0  0  0  0
  160.7130  207.3940  154.1610 C   0  0  0  0  0  0  0  0  0  0  0  0
  160.5470  208.5450  156.6660 N   0  0  0  0  0  0  0  0  0  0  0  0
  160.2820  206.6360  155.2530 C   0  0  0  0  0  3  0  0  0  0  0  0
  160.2120  207.2350  156.5130 C   0  0  0  0  0  3  0  0  0  0  0  0
  161.0450  208.7400  154.3390 C   0  0  0  0  0  3  0  0  0  0  0  0
  1  2  1  0  0  0  0
  3 24  1  0  0  0  0
  3  1  1  0  0  0  0
  3  2  1  0  0  0  0
  4  5  1  0  0  0  0
  4  3  1  0  0  0  0
  6  5  1  1  0  0  0
  6 10  1  0  0  0  0
  7 10  2  0  0  0  0
  7 11  1  0  0  0  0
  8 12  1  0  0  0  0
  9  8  1  0  0  0  0
 10  9  1  0  0  0  0
 11  8  1  0  0  0  0
 12 15  1  0  0  0  0
 14 13  1  0  0  0  0
 15 14  1  0  0  0  0
 15 13  1  0  0  0  0
 16  6  1  0  0  0  0
 17 18  2  0  0  0  0
 18 16  1  0  0  0  0
 19 18  1  0  0  0  0
 21 23  1  0  0  0  0
 22 23  1  0  0  0  0
 23 20  1  0  0  0  0
 23 19  1  0  0  0  0
 24 25  1  1  0  0  0
 24 36  1  0  0  0  0
 26 29  1  0  0  0  0
 26 25  1  1  0  0  0
 27 29  1  0  0  0  0
 28 27  1  0  0  0  0
 30 31  2  0  0  0  0
 31 33  1  0  0  0  0
 31 28  1  0  0  0  0
 32 26  1  0  0  0  0
 33 32  2  0  0  0  0
 35 28  1  0  0  0  0
 35 34  1  0  0  0  0
 36 39  1  6  0  0  0
 38 36  1  0  0  0  0
 38 37  1  0  0  0  0
 39 41  1  0  0  0  0
 40 42  1  0  0  0  0
 41 45  1  0  0  0  0
 41 43  2  0  0  0  0
 43 44  1  0  0  0  0
 44 42  2  0  0  0  0
 45 40  2  0  0  0  0
M  END
>  <MODEL>
3

>  <REMARK>
 VINA RESULT:      -5.5      4.177      5.794
  Name = 
  18 active torsions:
  status: ('A' for Active; 'I' for Inactive)
    1  A    between atoms: C_1  and  C_22
    2  A    between atoms: C_1  and  C_29
    3  A    between atoms: C_1  and  C_43
    4  A    between atoms: N_3  and  C_22
    5  A    between atoms: N_3  and  C_42
    6  A    between atoms: C_6  and  C_21
    7  A    between atoms: C_6  and  C_43
    8  A    between atoms: C_12  and  C_29
    9  A    between atoms: S_14  and  C_36
   10  A    between atoms: S_14  and  C_41
   11  A    between atoms: N_16  and  N_31
   12  A    between atoms: C_18  and  C_28
   13  A    between atoms: N_19  and  C_40
   14  A    between atoms: C_27  and  C_41
   15  A    between atoms: C_28  and  C_36
   16  A    between atoms: N_31  and  C_44
   17  A    between atoms: O_37  and  C_43
   18  A    between atoms: C_41  and  C_42
                            x       y       z     vdW  Elec       q    Type
                         _______ _______ _______ _____ _____    ______ ____

>  <TORSDO>
F 18

$$$$
=
 OpenBabel11052410323D

 45 49  0  0  1  0  0  0  0  0999 V2000
  162.7610  213.6000  148.2470 C   0  0  0  0  0  2  0  0  0  0  0  0
  163.3480  212.4070  147.5090 C   0  0  0  0  0  2  0  0  0  0  0  0
  161.8830  212.4150  147.9040 C   0  0  0  0  0  0  0  0  0  0  0  0
  161.5020  211.6700  149.1020 N   0  0  0  0  0  2  0  0  0  0  0  0
  162.2510  210.4220  149.1500 C   0  0  0  0  0  2  0  0  0  0  0  0
  161.6280  209.4570  150.1430 C   0  0  1  0  0  3  0  0  0  0  0  0
  161.7990  207.0260  150.2830 N   0  0  0  0  0  0  0  0  0  0  0  0
  161.2100  206.3720  148.0900 N   0  0  0  0  0  0  0  0  0  0  0  0
  161.1870  207.7630  148.2630 N   0  0  0  0  0  2  0  0  0  0  0  0
  161.5830  208.0710  149.5790 C   0  0  0  0  0  0  0  0  0  0  0  0
  161.5770  205.8680  149.4210 C   0  0  0  0  0  2  0  0  0  0  0  0
  162.2840  206.0880  147.2430 N   0  0  0  0  0  2  0  0  0  0  0  0
  161.8690  204.7390  145.2790 C   0  0  0  0  0  2  0  0  0  0  0  0
  163.2320  204.3730  145.8250 C   0  0  0  0  0  2  0  0  0  0  0  0
  162.1080  204.7260  146.7740 C   0  0  0  0  0  3  0  0  0  0  0  0
  162.5730  209.4930  151.7010 S   0  0  0  0  0  0  0  0  0  0  0  0
  160.8810  211.0510  152.9620 O   0  0  0  0  0  0  0  0  0  0  0  0
  161.1330  209.8880  152.6950 C   0  0  0  0  0  0  0  0  0  0  0  0
  160.2470  208.7870  153.1900 C   0  0  0  0  0  2  0  0  0  0  0  0
  159.9810  207.2660  155.0030 F   0  0  0  0  0  0  0  0  0  0  0  0
  161.7670  207.0080  153.6450 F   0  0  0  0  0  0  0  0  0  0  0  0
  161.6840  208.7450  155.0800 F   0  0  0  0  0  0  0  0  0  0  0  0
  160.9320  207.9310  154.2470 C   0  0  0  0  0  0  0  0  0  0  0  0
  160.8250  212.7440  146.8490 C   0  0  2  0  0  3  0  0  0  0  0  0
  161.3330  213.6820  145.7490 C   0  0  0  0  0  2  0  0  0  0  0  0
  161.4410  212.9410  144.4250 C   0  0  1  0  0  3  0  0  0  0  0  0
  160.0510  211.8800  142.7190 C   0  0  0  0  0  2  0  0  0  0  0  0
  160.7420  212.1570  141.4700 N   0  0  0  0  0  0  0  0  0  0  0  0
  160.1400  213.0650  143.6530 C   0  0  0  0  0  2  0  0  0  0  0  0
  162.7870  212.0130  140.3600 O   0  0  0  0  0  0  0  0  0  0  0  0
  162.1630  212.3890  141.3900 C   0  0  0  0  0  0  0  0  0  0  0  0
  162.6050  213.4680  143.6520 C   0  0  0  0  0  3  0  0  0  0  0  0
  162.9150  213.1870  142.3820 C   0  0  0  0  0  3  0  0  0  0  0  0
  158.5590  212.3990  140.3930 C   0  0  0  0  0  1  0  0  0  0  0  0
  159.9840  211.8980  140.2520 C   0  0  0  0  0  2  0  0  0  0  0  0
  159.4420  213.0910  147.4360 C   0  0  2  0  0  3  0  0  0  0  0  0
  157.4560  212.2850  146.8890 C   0  0  0  0  0  1  0  0  0  0  0  0
  158.5020  213.0730  146.4070 O   0  0  0  0  0  0  0  0  0  0  0  0
  159.3770  214.4530  148.1240 C   0  0  0  0  0  2  0  0  0  0  0  0
  156.9870  214.2140  151.0350 C   0  0  0  0  0  3  0  0  0  0  0  0
  158.8500  214.3580  149.5120 C   0  0  0  0  0  0  0  0  0  0  0  0
  157.8550  214.0880  152.0730 N   0  0  0  0  0  0  0  0  0  0  0  0
  159.7250  214.2140  150.5910 C   0  0  0  0  0  3  0  0  0  0  0  0
  159.2020  214.0870  151.8800 C   0  0  0  0  0  3  0  0  0  0  0  0
  157.4700  214.3480  149.7320 C   0  0  0  0  0  3  0  0  0  0  0  0
  2  3  1  0  0  0  0
  2  1  1  0  0  0  0
  3  1  1  0  0  0  0
  3  4  1  0  0  0  0
  4  5  1  0  0  0  0
  6  5  1  6  0  0  0
  6 16  1  0  0  0  0
  8  9  1  0  0  0  0
  8 11  1  0  0  0  0
  9 10  1  0  0  0  0
 10  6  1  0  0  0  0
 10  7  2  0  0  0  0
 11  7  1  0  0  0  0
 12  8  1  0  0  0  0
 13 14  1  0  0  0  0
 13 15  1  0  0  0  0
 14 15  1  0  0  0  0
 15 12  1  0  0  0  0
 16 18  1  0  0  0  0
 18 17  2  0  0  0  0
 18 19  1  0  0  0  0
 19 23  1  0  0  0  0
 21 23  1  0  0  0  0
 23 20  1  0  0  0  0
 23 22  1  0  0  0  0
 24 25  1  1  0  0  0
 24 36  1  0  0  0  0
 24  3  1  0  0  0  0
 26 25  1  1  0  0  0
 27 29  1  0  0  0  0
 28 27  1  0  0  0  0
 29 26  1  0  0  0  0
 30 31  2  0  0  0  0
 31 28  1  0  0  0  0
 31 33  1  0  0  0  0
 32 26  1  0  0  0  0
 33 32  2  0  0  0  0
 35 34  1  0  0  0  0
 35 28  1  0  0  0  0
 36 39  1  6  0  0  0
 38 37  1  0  0  0  0
 38 36  1  0  0  0  0
 39 41  1  0  0  0  0
 40 42  1  0  0  0  0
 41 45  1  0  0  0  0
 41 43  2  0  0  0  0
 43 44  1  0  0  0  0
 44 42  2  0  0  0  0
 45 40  2  0  0  0  0
M  END
>  <MODEL>
4

>  <REMARK>
 VINA RESULT:      -5.4      4.088      8.145
  Name = 
  18 active torsions:
  status: ('A' for Active; 'I' for Inactive)
    1  A    between atoms: C_1  and  C_22
    2  A    between atoms: C_1  and  C_29
    3  A    between atoms: C_1  and  C_43
    4  A    between atoms: N_3  and  C_22
    5  A    between atoms: N_3  and  C_42
    6  A    between atoms: C_6  and  C_21
    7  A    between atoms: C_6  and  C_43
    8  A    between atoms: C_12  and  C_29
    9  A    between atoms: S_14  and  C_36
   10  A    between atoms: S_14  and  C_41
   11  A    between atoms: N_16  and  N_31
   12  A    between atoms: C_18  and  C_28
   13  A    between atoms: N_19  and  C_40
   14  A    between atoms: C_27  and  C_41
   15  A    between atoms: C_28  and  C_36
   16  A    between atoms: N_31  and  C_44
   17  A    between atoms: O_37  and  C_43
   18  A    between atoms: C_41  and  C_42
                            x       y       z     vdW  Elec       q    Type
                         _______ _______ _______ _____ _____    ______ ____

>  <TORSDO>
F 18

$$$$
=
 OpenBabel11052410323D

 45 49  0  0  1  0  0  0  0  0999 V2000
  160.1020  207.1070  154.6280 C   0  0  0  0  0  2  0  0  0  0  0  0
  161.5720  206.7180  154.6880 C   0  0  0  0  0  2  0  0  0  0  0  0
  161.0750  207.6640  153.6100 C   0  0  0  0  0  0  0  0  0  0  0  0
  160.8310  207.1060  152.2820 N   0  0  0  0  0  2  0  0  0  0  0  0
  162.0250  206.4070  151.8280 C   0  0  0  0  0  2  0  0  0  0  0  0
  161.7980  205.7820  150.4620 C   0  0  1  0  0  3  0  0  0  0  0  0
  161.6530  203.6580  151.6570 N   0  0  0  0  0  0  0  0  0  0  0  0
  160.5070  202.3020  150.0980 N   0  0  0  0  0  0  0  0  0  0  0  0
  160.7180  203.6050  149.6270 N   0  0  0  0  0  2  0  0  0  0  0  0
  161.4350  204.3350  150.5950 C   0  0  0  0  0  0  0  0  0  0  0  0
  161.0850  202.3280  151.4490 C   0  0  0  0  0  2  0  0  0  0  0  0
  161.3160  201.4600  149.3310 N   0  0  0  0  0  2  0  0  0  0  0  0
  161.1040  201.6070  146.9260 C   0  0  0  0  0  2  0  0  0  0  0  0
  161.3730  200.1630  147.2900 C   0  0  0  0  0  2  0  0  0  0  0  0
  160.5220  201.0240  148.1960 C   0  0  0  0  0  3  0  0  0  0  0  0
  160.4920  206.7000  149.5830 S   0  0  0  0  0  0  0  0  0  0  0  0
  162.5720  207.3960  148.1450 O   0  0  0  0  0  0  0  0  0  0  0  0
  161.4690  206.8790  148.0900 C   0  0  0  0  0  0  0  0  0  0  0  0
  160.9240  206.3910  146.7830 C   0  0  0  0  0  2  0  0  0  0  0  0
  162.4520  204.5940  147.1200 F   0  0  0  0  0  0  0  0  0  0  0  0
  161.0850  204.5130  145.3230 F   0  0  0  0  0  0  0  0  0  0  0  0
  162.7920  205.9850  145.3740 F   0  0  0  0  0  0  0  0  0  0  0  0
  161.8270  205.3470  146.1390 C   0  0  0  0  0  0  0  0  0  0  0  0
  161.3060  209.1670  153.7680 C   0  0  2  0  0  3  0  0  0  0  0  0
  161.2850  209.6370  155.2260 C   0  0  0  0  0  2  0  0  0  0  0  0
  160.2370  210.7220  155.4220 C   0  0  1  0  0  3  0  0  0  0  0  0
  157.8350  211.0090  155.7580 C   0  0  0  0  0  2  0  0  0  0  0  0
  157.7310  212.1510  156.6510 N   0  0  0  0  0  0  0  0  0  0  0  0
  159.0220  210.1480  156.1270 C   0  0  0  0  0  2  0  0  0  0  0  0
  158.3730  214.3680  156.9800 O   0  0  0  0  0  0  0  0  0  0  0  0
  158.7330  213.1850  156.7280 C   0  0  0  0  0  0  0  0  0  0  0  0
  160.8370  211.8640  156.1770 C   0  0  0  0  0  3  0  0  0  0  0  0
  160.1860  212.9170  156.6820 C   0  0  0  0  0  3  0  0  0  0  0  0
  155.4860  213.0490  156.2840 C   0  0  0  0  0  1  0  0  0  0  0  0
  156.4240  212.3660  157.2600 C   0  0  0  0  0  2  0  0  0  0  0  0
  160.5030  210.0320  152.7770 C   0  0  2  0  0  3  0  0  0  0  0  0
  162.0760  210.0430  151.2210 C   0  0  0  0  0  1  0  0  0  0  0  0
  160.7790  209.6000  151.4800 O   0  0  0  0  0  0  0  0  0  0  0  0
  160.8060  211.5270  152.8610 C   0  0  0  0  0  2  0  0  0  0  0  0
  157.5300  213.3240  152.3280 C   0  0  0  0  0  3  0  0  0  0  0  0
  159.7350  212.3530  152.2420 C   0  0  0  0  0  0  0  0  0  0  0  0
  157.7710  213.9590  151.1520 N   0  0  0  0  0  0  0  0  0  0  0  0
  159.9690  213.0260  151.0400 C   0  0  0  0  0  3  0  0  0  0  0  0
  158.9590  213.8270  150.5000 C   0  0  0  0  0  3  0  0  0  0  0  0
  158.5120  212.5100  152.8980 C   0  0  0  0  0  3  0  0  0  0  0  0
  1  2  1  0  0  0  0
  3 24  1  0  0  0  0
  3  1  1  0  0  0  0
  3  2  1  0  0  0  0
  4  3  1  0  0  0  0
  5  4  1  0  0  0  0
  6 10  1  0  0  0  0
  6  5  1  1  0  0  0
  8 11  1  0  0  0  0
  9  8  1  0  0  0  0
  9 10  1  0  0  0  0
 10  7  2  0  0  0  0
 11  7  1  0  0  0  0
 12  8  1  0  0  0  0
 13 14  1  0  0  0  0
 13 15  1  0  0  0  0
 14 15  1  0  0  0  0
 15 12  1  0  0  0  0
 16  6  1  0  0  0  0
 18 17  2  0  0  0  0
 18 16  1  0  0  0  0
 19 18  1  0  0  0  0
 21 23  1  0  0  0  0
 22 23  1  0  0  0  0
 23 19  1  0  0  0  0
 23 20  1  0  0  0  0
 24 25  1  1  0  0  0
 26 25  1  1  0  0  0
 26 29  1  0  0  0  0
 26 32  1  0  0  0  0
 27 29  1  0  0  0  0
 27 28  1  0  0  0  0
 28 31  1  0  0  0  0
 28 35  1  0  0  0  0
 31 30  2  0  0  0  0
 32 33  2  0  0  0  0
 33 31  1  0  0  0  0
 34 35  1  0  0  0  0
 36 39  1  6  0  0  0
 36 24  1  0  0  0  0
 37 38  1  0  0  0  0
 38 36  1  0  0  0  0
 40 45  1  0  0  0  0
 41 39  1  0  0  0  0
 41 45  2  0  0  0  0
 42 40  2  0  0  0  0
 43 41  1  0  0  0  0
 44 43  2  0  0  0  0
 44 42  1  0  0  0  0
M  END
>  <MODEL>
5

>  <REMARK>
 VINA RESULT:      -5.4      4.140      9.711
  Name = 
  18 active torsions:
  status: ('A' for Active; 'I' for Inactive)
    1  A    between atoms: C_1  and  C_22
    2  A    between atoms: C_1  and  C_29
    3  A    between atoms: C_1  and  C_43
    4  A    between atoms: N_3  and  C_22
    5  A    between atoms: N_3  and  C_42
    6  A    between atoms: C_6  and  C_21
    7  A    between atoms: C_6  and  C_43
    8  A    between atoms: C_12  and  C_29
    9  A    between atoms: S_14  and  C_36
   10  A    between atoms: S_14  and  C_41
   11  A    between atoms: N_16  and  N_31
   12  A    between atoms: C_18  and  C_28
   13  A    between atoms: N_19  and  C_40
   14  A    between atoms: C_27  and  C_41
   15  A    between atoms: C_28  and  C_36
   16  A    between atoms: N_31  and  C_44
   17  A    between atoms: O_37  and  C_43
   18  A    between atoms: C_41  and  C_42
                            x       y       z     vdW  Elec       q    Type
                         _______ _______ _______ _____ _____    ______ ____

>  <TORSDO>
F 18

$$$$
=
 OpenBabel11052410323D

 45 49  0  0  1  0  0  0  0  0999 V2000
  162.6370  210.3160  151.0350 C   0  0  0  0  0  2  0  0  0  0  0  0
  162.7620  210.2990  152.5500 C   0  0  0  0  0  2  0  0  0  0  0  0
  161.6310  209.5510  151.8690 C   0  0  0  0  0  0  0  0  0  0  0  0
  160.3190  210.1920  151.8400 N   0  0  0  0  0  2  0  0  0  0  0  0
  160.4580  211.5900  152.2280 C   0  0  0  0  0  2  0  0  0  0  0  0
  159.4160  212.4480  151.5320 C   0  0  1  0  0  3  0  0  0  0  0  0
  157.5220  213.7820  152.3020 N   0  0  0  0  0  0  0  0  0  0  0  0
  156.7740  212.5340  154.1640 N   0  0  0  0  0  0  0  0  0  0  0  0
  157.8860  211.9550  153.5370 N   0  0  0  0  0  2  0  0  0  0  0  0
  158.2900  212.7740  152.4650 C   0  0  0  0  0  0  0  0  0  0  0  0
  156.4980  213.7210  153.3420 C   0  0  0  0  0  2  0  0  0  0  0  0
  157.2080  212.9990  155.4070 N   0  0  0  0  0  2  0  0  0  0  0  0
  159.0870  214.4480  155.8780 C   0  0  0  0  0  2  0  0  0  0  0  0
  159.2120  213.2140  156.7450 C   0  0  0  0  0  2  0  0  0  0  0  0
  158.6550  213.0990  155.3430 C   0  0  0  0  0  3  0  0  0  0  0  0
  160.1990  213.9690  150.9050 S   0  0  0  0  0  0  0  0  0  0  0  0
  159.0490  214.1700  148.5570 O   0  0  0  0  0  0  0  0  0  0  0  0
  159.8900  213.5530  149.1890 C   0  0  0  0  0  0  0  0  0  0  0  0
  160.6660  212.4490  148.5400 C   0  0  0  0  0  2  0  0  0  0  0  0
  161.9410  213.0090  146.6080 F   0  0  0  0  0  0  0  0  0  0  0  0
  162.3070  214.1790  148.5060 F   0  0  0  0  0  0  0  0  0  0  0  0
  162.9970  212.0380  148.3500 F   0  0  0  0  0  0  0  0  0  0  0  0
  162.0010  212.9320  147.9900 C   0  0  0  0  0  0  0  0  0  0  0  0
  161.7380  208.0360  151.6880 C   0  0  2  0  0  3  0  0  0  0  0  0
  160.6860  207.4600  150.7340 C   0  0  0  0  0  2  0  0  0  0  0  0
  161.2880  206.3530  149.8830 C   0  0  1  0  0  3  0  0  0  0  0  0
  161.1130  203.9480  149.4880 C   0  0  0  0  0  2  0  0  0  0  0  0
  161.3540  203.8010  148.0620 N   0  0  0  0  0  0  0  0  0  0  0  0
  160.3090  205.1980  149.7670 C   0  0  0  0  0  2  0  0  0  0  0  0
  162.8190  204.3110  146.3220 O   0  0  0  0  0  0  0  0  0  0  0  0
  162.1360  204.7370  147.2930 C   0  0  0  0  0  0  0  0  0  0  0  0
  161.6690  206.9020  148.5470 C   0  0  0  0  0  3  0  0  0  0  0  0
  162.0670  206.2020  147.4790 C   0  0  0  0  0  3  0  0  0  0  0  0
  161.2560  201.3960  148.5010 C   0  0  0  0  0  1  0  0  0  0  0  0
  161.0180  202.5020  147.4910 C   0  0  0  0  0  2  0  0  0  0  0  0
  161.9400  207.2610  153.0050 C   0  0  2  0  0  3  0  0  0  0  0  0
  161.3630  205.1320  153.1750 C   0  0  0  0  0  1  0  0  0  0  0  0
  162.3730  205.9710  152.7030 O   0  0  0  0  0  0  0  0  0  0  0  0
  160.6860  207.1570  153.8710 C   0  0  0  0  0  2  0  0  0  0  0  0
  161.6590  208.5360  157.2470 C   0  0  0  0  0  3  0  0  0  0  0  0
  160.7550  208.0370  155.0680 C   0  0  0  0  0  0  0  0  0  0  0  0
  160.9650  209.7040  157.2590 N   0  0  0  0  0  0  0  0  0  0  0  0
  160.0590  209.2480  155.0950 C   0  0  0  0  0  3  0  0  0  0  0  0
  160.1730  210.0740  156.2160 C   0  0  0  0  0  3  0  0  0  0  0  0
  161.5680  207.6810  156.1460 C   0  0  0  0  0  3  0  0  0  0  0  0
  1  3  1  0  0  0  0
  1  2  1  0  0  0  0
  3  2  1  0  0  0  0
  4  3  1  0  0  0  0
  4  5  1  0  0  0  0
  6  5  1  1  0  0  0
  6 10  1  0  0  0  0
  7 10  2  0  0  0  0
  7 11  1  0  0  0  0
  8 12  1  0  0  0  0
  9  8  1  0  0  0  0
 10  9  1  0  0  0  0
 11  8  1  0  0  0  0
 13 14  1  0  0  0  0
 15 12  1  0  0  0  0
 15 13  1  0  0  0  0
 15 14  1  0  0  0  0
 16  6  1  0  0  0  0
 17 18  2  0  0  0  0
 18 16  1  0  0  0  0
 19 18  1  0  0  0  0
 20 23  1  0  0  0  0
 23 22  1  0  0  0  0
 23 21  1  0  0  0  0
 23 19  1  0  0  0  0
 24 25  1  1  0  0  0
 24  3  1  0  0  0  0
 24 36  1  0  0  0  0
 26 25  1  1  0  0  0
 27 29  1  0  0  0  0
 28 27  1  0  0  0  0
 29 26  1  0  0  0  0
 30 31  2  0  0  0  0
 31 33  1  0  0  0  0
 31 28  1  0  0  0  0
 32 26  1  0  0  0  0
 33 32  2  0  0  0  0
 35 28  1  0  0  0  0
 35 34  1  0  0  0  0
 36 39  1  6  0  0  0
 38 36  1  0  0  0  0
 38 37  1  0  0  0  0
 39 41  1  0  0  0  0
 40 42  1  0  0  0  0
 41 43  2  0  0  0  0
 41 45  1  0  0  0  0
 43 44  1  0  0  0  0
 44 42  2  0  0  0  0
 45 40  2  0  0  0  0
M  END
>  <MODEL>
6

>  <REMARK>
 VINA RESULT:      -5.2      3.245      4.739
  Name = 
  18 active torsions:
  status: ('A' for Active; 'I' for Inactive)
    1  A    between atoms: C_1  and  C_22
    2  A    between atoms: C_1  and  C_29
    3  A    between atoms: C_1  and  C_43
    4  A    between atoms: N_3  and  C_22
    5  A    between atoms: N_3  and  C_42
    6  A    between atoms: C_6  and  C_21
    7  A    between atoms: C_6  and  C_43
    8  A    between atoms: C_12  and  C_29
    9  A    between atoms: S_14  and  C_36
   10  A    between atoms: S_14  and  C_41
   11  A    between atoms: N_16  and  N_31
   12  A    between atoms: C_18  and  C_28
   13  A    between atoms: N_19  and  C_40
   14  A    between atoms: C_27  and  C_41
   15  A    between atoms: C_28  and  C_36
   16  A    between atoms: N_31  and  C_44
   17  A    between atoms: O_37  and  C_43
   18  A    between atoms: C_41  and  C_42
                            x       y       z     vdW  Elec       q    Type
                         _______ _______ _______ _____ _____    ______ ____

>  <TORSDO>
F 18

$$$$
=
 OpenBabel11052410323D

 45 49  0  0  1  0  0  0  0  0999 V2000
  162.2110  210.3230  152.5450 C   0  0  0  0  0  2  0  0  0  0  0  0
  161.9530  210.3990  151.0480 C   0  0  0  0  0  2  0  0  0  0  0  0
  160.8250  210.0490  152.0010 C   0  0  0  0  0  0  0  0  0  0  0  0
  160.4700  208.6380  152.1370 N   0  0  0  0  0  2  0  0  0  0  0  0
  160.8210  207.9340  150.9110 C   0  0  0  0  0  2  0  0  0  0  0  0
  161.9860  206.9890  151.1470 C   0  0  1  0  0  3  0  0  0  0  0  0
  161.5990  205.1130  152.6600 N   0  0  0  0  0  0  0  0  0  0  0  0
  160.4220  203.6060  151.2720 N   0  0  0  0  0  0  0  0  0  0  0  0
  160.7680  204.7910  150.6100 N   0  0  0  0  0  2  0  0  0  0  0  0
  161.4940  205.6170  151.4910 C   0  0  0  0  0  0  0  0  0  0  0  0
  160.9310  203.8140  152.6350 C   0  0  0  0  0  2  0  0  0  0  0  0
  161.1950  202.5880  150.7070 N   0  0  0  0  0  2  0  0  0  0  0  0
  161.1750  201.1740  148.7440 C   0  0  0  0  0  2  0  0  0  0  0  0
  159.7500  201.5900  149.0430 C   0  0  0  0  0  2  0  0  0  0  0  0
  160.8870  202.5580  149.2890 C   0  0  0  0  0  3  0  0  0  0  0  0
  163.0450  206.9460  149.6650 S   0  0  0  0  0  0  0  0  0  0  0  0
  161.3910  208.4030  148.2450 O   0  0  0  0  0  0  0  0  0  0  0  0
  161.6810  207.2570  148.5450 C   0  0  0  0  0  0  0  0  0  0  0  0
  160.9050  206.1070  147.9820 C   0  0  0  0  0  2  0  0  0  0  0  0
  161.1140  204.4720  146.2620 F   0  0  0  0  0  0  0  0  0  0  0  0
  160.4610  206.5560  145.6830 F   0  0  0  0  0  0  0  0  0  0  0  0
  162.5930  206.1770  146.3130 F   0  0  0  0  0  0  0  0  0  0  0  0
  161.2700  205.8220  146.5310 C   0  0  0  0  0  0  0  0  0  0  0  0
  159.8100  211.1260  152.3870 C   0  0  2  0  0  3  0  0  0  0  0  0
  160.3710  212.5490  152.3080 C   0  0  0  0  0  2  0  0  0  0  0  0
  159.7460  213.3060  151.1460 C   0  0  1  0  0  3  0  0  0  0  0  0
  160.2810  214.1480  148.9160 C   0  0  0  0  0  2  0  0  0  0  0  0
  159.0460  213.9880  148.1670 N   0  0  0  0  0  0  0  0  0  0  0  0
  160.4870  212.9850  149.8610 C   0  0  0  0  0  2  0  0  0  0  0  0
  156.7620  214.4530  148.1510 O   0  0  0  0  0  0  0  0  0  0  0  0
  157.7430  213.9790  148.7850 C   0  0  0  0  0  0  0  0  0  0  0  0
  158.2940  212.9690  151.0560 C   0  0  0  0  0  3  0  0  0  0  0  0
  157.4560  213.3020  150.0680 C   0  0  0  0  0  3  0  0  0  0  0  0
  160.1190  213.1080  146.1520 C   0  0  0  0  0  1  0  0  0  0  0  0
  159.1560  214.1330  146.7200 C   0  0  0  0  0  2  0  0  0  0  0  0
  159.0010  210.7970  153.6580 C   0  0  2  0  0  3  0  0  0  0  0  0
  157.4900  212.0710  154.6500 C   0  0  0  0  0  1  0  0  0  0  0  0
  157.7090  211.3000  153.5090 O   0  0  0  0  0  0  0  0  0  0  0  0
  159.5950  211.3680  154.9440 C   0  0  0  0  0  2  0  0  0  0  0  0
  160.4960  208.1350  156.6710 C   0  0  0  0  0  3  0  0  0  0  0  0
  160.3470  210.3450  155.7190 C   0  0  0  0  0  0  0  0  0  0  0  0
  161.7660  208.4030  157.0760 N   0  0  0  0  0  0  0  0  0  0  0  0
  161.6580  210.5970  156.1330 C   0  0  0  0  0  3  0  0  0  0  0  0
  162.3550  209.6040  156.8250 C   0  0  0  0  0  3  0  0  0  0  0  0
  159.7630  209.1030  155.9810 C   0  0  0  0  0  3  0  0  0  0  0  0
  2  3  1  0  0  0  0
  2  1  1  0  0  0  0
  3  4  1  0  0  0  0
  3 24  1  0  0  0  0
  3  1  1  0  0  0  0
  5  4  1  0  0  0  0
  6  5  1  6  0  0  0
  6 10  1  0  0  0  0
  8 11  1  0  0  0  0
  9  8  1  0  0  0  0
  9 10  1  0  0  0  0
 10  7  2  0  0  0  0
 11  7  1  0  0  0  0
 12  8  1  0  0  0  0
 13 14  1  0  0  0  0
 13 15  1  0  0  0  0
 14 15  1  0  0  0  0
 15 12  1  0  0  0  0
 16  6  1  0  0  0  0
 17 18  2  0  0  0  0
 18 16  1  0  0  0  0
 19 18  1  0  0  0  0
 20 23  1  0  0  0  0
 21 23  1  0  0  0  0
 22 23  1  0  0  0  0
 23 19  1  0  0  0  0
 24 25  1  1  0  0  0
 24 36  1  0  0  0  0
 26 25  1  1  0  0  0
 27 29  1  0  0  0  0
 28 31  1  0  0  0  0
 28 27  1  0  0  0  0
 29 26  1  0  0  0  0
 30 31  2  0  0  0  0
 31 33  1  0  0  0  0
 32 26  1  0  0  0  0
 33 32  2  0  0  0  0
 34 35  1  0  0  0  0
 35 28  1  0  0  0  0
 36 39  1  1  0  0  0
 38 36  1  0  0  0  0
 38 37  1  0  0  0  0
 39 41  1  0  0  0  0
 40 42  1  0  0  0  0
 41 45  1  0  0  0  0
 41 43  2  0  0  0  0
 43 44  1  0  0  0  0
 44 42  2  0  0  0  0
 45 40  2  0  0  0  0
M  END
>  <MODEL>
7

>  <REMARK>
 VINA RESULT:      -5.2      3.977      8.543
  Name = 
  18 active torsions:
  status: ('A' for Active; 'I' for Inactive)
    1  A    between atoms: C_1  and  C_22
    2  A    between atoms: C_1  and  C_29
    3  A    between atoms: C_1  and  C_43
    4  A    between atoms: N_3  and  C_22
    5  A    between atoms: N_3  and  C_42
    6  A    between atoms: C_6  and  C_21
    7  A    between atoms: C_6  and  C_43
    8  A    between atoms: C_12  and  C_29
    9  A    between atoms: S_14  and  C_36
   10  A    between atoms: S_14  and  C_41
   11  A    between atoms: N_16  and  N_31
   12  A    between atoms: C_18  and  C_28
   13  A    between atoms: N_19  and  C_40
   14  A    between atoms: C_27  and  C_41
   15  A    between atoms: C_28  and  C_36
   16  A    between atoms: N_31  and  C_44
   17  A    between atoms: O_37  and  C_43
   18  A    between atoms: C_41  and  C_42
                            x       y       z     vdW  Elec       q    Type
                         _______ _______ _______ _____ _____    ______ ____

>  <TORSDO>
F 18

$$$$
=
 OpenBabel11052410323D

 45 49  0  0  1  0  0  0  0  0999 V2000
  161.2650  210.1740  148.8570 C   0  0  0  0  0  2  0  0  0  0  0  0
  162.7740  210.3310  148.9590 C   0  0  0  0  0  2  0  0  0  0  0  0
  161.9840  209.7710  150.1270 C   0  0  0  0  0  0  0  0  0  0  0  0
  161.6700  210.6800  151.2270 N   0  0  0  0  0  2  0  0  0  0  0  0
  160.2850  211.1150  151.1110 C   0  0  0  0  0  2  0  0  0  0  0  0
  160.1790  212.6210  151.2670 C   0  0  1  0  0  3  0  0  0  0  0  0
  159.2460  213.7880  149.3360 N   0  0  0  0  0  0  0  0  0  0  0  0
  161.1850  214.2640  148.0740 N   0  0  0  0  0  0  0  0  0  0  0  0
  161.4700  213.5760  149.2610 N   0  0  0  0  0  2  0  0  0  0  0  0
  160.2640  213.3000  149.9350 C   0  0  0  0  0  0  0  0  0  0  0  0
  159.7270  214.4440  148.1240 C   0  0  0  0  0  2  0  0  0  0  0  0
  161.4460  213.3810  147.0230 N   0  0  0  0  0  2  0  0  0  0  0  0
  163.0190  213.4190  145.1860 C   0  0  0  0  0  2  0  0  0  0  0  0
  161.6190  213.4570  144.6120 C   0  0  0  0  0  2  0  0  0  0  0  0
  161.9240  214.1770  145.9070 C   0  0  0  0  0  3  0  0  0  0  0  0
  158.6160  213.0370  152.1080 S   0  0  0  0  0  0  0  0  0  0  0  0
  160.0700  212.5420  154.2340 O   0  0  0  0  0  0  0  0  0  0  0  0
  159.0760  212.1910  153.6200 C   0  0  0  0  0  0  0  0  0  0  0  0
  158.2350  211.0580  154.1220 C   0  0  0  0  0  2  0  0  0  0  0  0
  156.2570  210.4620  155.3070 F   0  0  0  0  0  0  0  0  0  0  0  0
  157.3630  212.3270  155.9430 F   0  0  0  0  0  0  0  0  0  0  0  0
  156.2170  212.3020  154.0010 F   0  0  0  0  0  0  0  0  0  0  0  0
  156.9970  211.5450  154.8620 C   0  0  0  0  0  0  0  0  0  0  0  0
  161.9700  208.2600  150.3650 C   0  0  2  0  0  3  0  0  0  0  0  0
  160.8490  207.5350  149.6130 C   0  0  0  0  0  2  0  0  0  0  0  0
  161.4120  206.3760  148.8050 C   0  0  1  0  0  3  0  0  0  0  0  0
  161.4530  203.9340  148.7560 C   0  0  0  0  0  2  0  0  0  0  0  0
  161.4460  203.6030  147.3410 N   0  0  0  0  0  0  0  0  0  0  0  0
  160.5720  205.1320  149.0300 C   0  0  0  0  0  2  0  0  0  0  0  0
  162.4980  203.9880  145.2970 O   0  0  0  0  0  0  0  0  0  0  0  0
  161.9590  204.4860  146.3220 C   0  0  0  0  0  0  0  0  0  0  0  0
  161.4750  206.7580  147.3630 C   0  0  0  0  0  3  0  0  0  0  0  0
  161.7510  205.9500  146.3330 C   0  0  0  0  0  3  0  0  0  0  0  0
  161.1530  201.3590  148.2690 C   0  0  0  0  0  1  0  0  0  0  0  0
  161.1660  202.2100  147.0140 C   0  0  0  0  0  2  0  0  0  0  0  0
  162.1520  207.8570  151.8420 C   0  0  2  0  0  3  0  0  0  0  0  0
  162.2310  205.6930  152.2950 C   0  0  0  0  0  1  0  0  0  0  0  0
  163.0250  206.7720  151.9060 O   0  0  0  0  0  0  0  0  0  0  0  0
  160.8550  207.4740  152.5520 C   0  0  0  0  0  2  0  0  0  0  0  0
  160.5010  207.4170  156.3090 C   0  0  0  0  0  3  0  0  0  0  0  0
  160.8420  207.9100  153.9740 C   0  0  0  0  0  0  0  0  0  0  0  0
  160.9020  208.6760  156.6260 N   0  0  0  0  0  0  0  0  0  0  0  0
  161.2630  209.1960  154.3210 C   0  0  0  0  0  3  0  0  0  0  0  0
  161.2780  209.5670  155.6680 C   0  0  0  0  0  3  0  0  0  0  0  0
  160.4670  207.0090  154.9740 C   0  0  0  0  0  3  0  0  0  0  0  0
  1  2  1  0  0  0  0
  1  3  1  0  0  0  0
  2  3  1  0  0  0  0
  3 24  1  0  0  0  0
  3  4  1  0  0  0  0
  5  4  1  0  0  0  0
  6  5  1  6  0  0  0
  6 16  1  0  0  0  0
  7 10  2  0  0  0  0
  8 11  1  0  0  0  0
  8  9  1  0  0  0  0
  9 10  1  0  0  0  0
 10  6  1  0  0  0  0
 11  7  1  0  0  0  0
 12  8  1  0  0  0  0
 13 15  1  0  0  0  0
 14 13  1  0  0  0  0
 14 15  1  0  0  0  0
 15 12  1  0  0  0  0
 16 18  1  0  0  0  0
 18 19  1  0  0  0  0
 18 17  2  0  0  0  0
 19 23  1  0  0  0  0
 22 23  1  0  0  0  0
 23 20  1  0  0  0  0
 23 21  1  0  0  0  0
 24 25  1  1  0  0  0
 24 36  1  0  0  0  0
 26 29  1  0  0  0  0
 26 25  1  1  0  0  0
 27 29  1  0  0  0  0
 28 27  1  0  0  0  0
 30 31  2  0  0  0  0
 31 33  1  0  0  0  0
 31 28  1  0  0  0  0
 32 26  1  0  0  0  0
 33 32  2  0  0  0  0
 35 28  1  0  0  0  0
 35 34  1  0  0  0  0
 36 38  1  0  0  0  0
 36 39  1  6  0  0  0
 38 37  1  0  0  0  0
 39 41  1  0  0  0  0
 40 42  1  0  0  0  0
 41 43  2  0  0  0  0
 41 45  1  0  0  0  0
 43 44  1  0  0  0  0
 44 42  2  0  0  0  0
 45 40  2  0  0  0  0
M  END
>  <MODEL>
8

>  <REMARK>
 VINA RESULT:      -4.9      1.496      1.955
  Name = 
  18 active torsions:
  status: ('A' for Active; 'I' for Inactive)
    1  A    between atoms: C_1  and  C_22
    2  A    between atoms: C_1  and  C_29
    3  A    between atoms: C_1  and  C_43
    4  A    between atoms: N_3  and  C_22
    5  A    between atoms: N_3  and  C_42
    6  A    between atoms: C_6  and  C_21
    7  A    between atoms: C_6  and  C_43
    8  A    between atoms: C_12  and  C_29
    9  A    between atoms: S_14  and  C_36
   10  A    between atoms: S_14  and  C_41
   11  A    between atoms: N_16  and  N_31
   12  A    between atoms: C_18  and  C_28
   13  A    between atoms: N_19  and  C_40
   14  A    between atoms: C_27  and  C_41
   15  A    between atoms: C_28  and  C_36
   16  A    between atoms: N_31  and  C_44
   17  A    between atoms: O_37  and  C_43
   18  A    between atoms: C_41  and  C_42
                            x       y       z     vdW  Elec       q    Type
                         _______ _______ _______ _____ _____    ______ ____

>  <TORSDO>
F 18

$$$$
=
 OpenBabel11052410323D

 45 49  0  0  1  0  0  0  0  0999 V2000
  161.9010  208.0370  153.2420 C   0  0  0  0  0  2  0  0  0  0  0  0
  160.4820  207.5140  153.4030 C   0  0  0  0  0  2  0  0  0  0  0  0
  160.9310  208.1110  152.0820 C   0  0  0  0  0  0  0  0  0  0  0  0
  160.5450  209.4920  151.7990 N   0  0  0  0  0  2  0  0  0  0  0  0
  159.6820  209.9780  152.8680 C   0  0  0  0  0  2  0  0  0  0  0  0
  160.0560  211.3970  153.2580 C   0  0  1  0  0  3  0  0  0  0  0  0
  158.6610  213.0900  152.1870 N   0  0  0  0  0  0  0  0  0  0  0  0
  159.9300  213.6200  150.2660 N   0  0  0  0  0  0  0  0  0  0  0  0
  160.5390  212.6410  151.0620 N   0  0  0  0  0  2  0  0  0  0  0  0
  159.7070  212.3570  152.1630 C   0  0  0  0  0  0  0  0  0  0  0  0
  158.7070  213.9530  151.0100 C   0  0  0  0  0  2  0  0  0  0  0  0
  159.5230  212.9860  149.0880 N   0  0  0  0  0  2  0  0  0  0  0  0
  158.4930  213.6750  147.0110 C   0  0  0  0  0  2  0  0  0  0  0  0
  157.4750  212.8850  147.8050 C   0  0  0  0  0  2  0  0  0  0  0  0
  158.4550  213.7890  148.5200 C   0  0  0  0  0  3  0  0  0  0  0  0
  159.2090  211.8450  154.8080 S   0  0  0  0  0  0  0  0  0  0  0  0
  159.8570  209.5170  155.8240 O   0  0  0  0  0  0  0  0  0  0  0  0
  160.1670  210.6960  155.7950 C   0  0  0  0  0  0  0  0  0  0  0  0
  161.3450  211.1900  156.5760 C   0  0  0  0  0  2  0  0  0  0  0  0
  163.7250  211.2390  156.6650 F   0  0  0  0  0  0  0  0  0  0  0  0
  162.7030  209.2340  156.4640 F   0  0  0  0  0  0  0  0  0  0  0  0
  162.7310  210.6640  154.7210 F   0  0  0  0  0  0  0  0  0  0  0  0
  162.6510  210.5680  156.1020 C   0  0  0  0  0  0  0  0  0  0  0  0
  161.3090  207.1790  150.9290 C   0  0  2  0  0  3  0  0  0  0  0  0
  161.9540  205.8690  151.3920 C   0  0  0  0  0  2  0  0  0  0  0  0
  161.2540  204.6770  150.7560 C   0  0  1  0  0  3  0  0  0  0  0  0
  160.9540  203.5780  148.5950 C   0  0  0  0  0  2  0  0  0  0  0  0
  160.8960  202.1620  148.9180 N   0  0  0  0  0  0  0  0  0  0  0  0
  161.9630  204.2850  149.4720 C   0  0  0  0  0  2  0  0  0  0  0  0
  159.8460  200.5600  150.2470 O   0  0  0  0  0  0  0  0  0  0  0  0
  160.4570  201.6620  150.1980 C   0  0  0  0  0  0  0  0  0  0  0  0
  161.2010  203.5500  151.7350 C   0  0  0  0  0  3  0  0  0  0  0  0
  160.8180  202.2930  151.4850 C   0  0  0  0  0  3  0  0  0  0  0  0
  160.6220  201.9330  146.4980 C   0  0  0  0  0  1  0  0  0  0  0  0
  161.0190  201.2460  147.7900 C   0  0  0  0  0  2  0  0  0  0  0  0
  162.0090  207.8900  149.7540 C   0  0  2  0  0  3  0  0  0  0  0  0
  162.1500  209.9920  149.0800 C   0  0  0  0  0  1  0  0  0  0  0  0
  162.4040  209.1610  150.1700 O   0  0  0  0  0  0  0  0  0  0  0  0
  161.1420  208.0400  148.5060 C   0  0  0  0  0  2  0  0  0  0  0  0
  160.7730  205.6440  145.6130 C   0  0  0  0  0  3  0  0  0  0  0  0
  161.4550  207.0130  147.4770 C   0  0  0  0  0  0  0  0  0  0  0  0
  162.0440  205.1750  145.5020 N   0  0  0  0  0  0  0  0  0  0  0  0
  162.7580  206.5280  147.3380 C   0  0  0  0  0  3  0  0  0  0  0  0
  163.0330  205.5920  146.3370 C   0  0  0  0  0  3  0  0  0  0  0  0
  160.4560  206.5760  146.6030 C   0  0  0  0  0  3  0  0  0  0  0  0
  1  2  1  0  0  0  0
  3  1  1  0  0  0  0
  3  2  1  0  0  0  0
  4  3  1  0  0  0  0
  4  5  1  0  0  0  0
  6  5  1  6  0  0  0
  6 16  1  0  0  0  0
  8 11  1  0  0  0  0
  8  9  1  0  0  0  0
  9 10  1  0  0  0  0
 10  7  2  0  0  0  0
 10  6  1  0  0  0  0
 11  7  1  0  0  0  0
 12  8  1  0  0  0  0
 13 14  1  0  0  0  0
 13 15  1  0  0  0  0
 14 15  1  0  0  0  0
 15 12  1  0  0  0  0
 16 18  1  0  0  0  0
 18 17  2  0  0  0  0
 18 19  1  0  0  0  0
 22 23  1  0  0  0  0
 23 21  1  0  0  0  0
 23 19  1  0  0  0  0
 23 20  1  0  0  0  0
 24 25  1  1  0  0  0
 24  3  1  0  0  0  0
 26 25  1  1  0  0  0
 26 32  1  0  0  0  0
 27 28  1  0  0  0  0
 27 29  1  0  0  0  0
 28 31  1  0  0  0  0
 29 26  1  0  0  0  0
 31 30  2  0  0  0  0
 31 33  1  0  0  0  0
 33 32  2  0  0  0  0
 34 35  1  0  0  0  0
 35 28  1  0  0  0  0
 36 39  1  6  0  0  0
 36 38  1  0  0  0  0
 36 24  1  0  0  0  0
 37 38  1  0  0  0  0
 40 45  1  0  0  0  0
 41 39  1  0  0  0  0
 42 40  2  0  0  0  0
 42 44  1  0  0  0  0
 43 41  1  0  0  0  0
 44 43  2  0  0  0  0
 45 41  2  0  0  0  0
M  END
>  <MODEL>
9

>  <REMARK>
 VINA RESULT:      -4.8      3.020      5.367
  Name = 
  18 active torsions:
  status: ('A' for Active; 'I' for Inactive)
    1  A    between atoms: C_1  and  C_22
    2  A    between atoms: C_1  and  C_29
    3  A    between atoms: C_1  and  C_43
    4  A    between atoms: N_3  and  C_22
    5  A    between atoms: N_3  and  C_42
    6  A    between atoms: C_6  and  C_21
    7  A    between atoms: C_6  and  C_43
    8  A    between atoms: C_12  and  C_29
    9  A    between atoms: S_14  and  C_36
   10  A    between atoms: S_14  and  C_41
   11  A    between atoms: N_16  and  N_31
   12  A    between atoms: C_18  and  C_28
   13  A    between atoms: N_19  and  C_40
   14  A    between atoms: C_27  and  C_41
   15  A    between atoms: C_28  and  C_36
   16  A    between atoms: N_31  and  C_44
   17  A    between atoms: O_37  and  C_43
   18  A    between atoms: C_41  and  C_42
                            x       y       z     vdW  Elec       q    Type
                         _______ _______ _______ _____ _____    ______ ____

>  <TORSDO>
F 18

$$$$
