=
 OpenBabel11052412133D

 41 44  0  0  1  0  0  0  0  0999 V2000
  161.1280  208.7500  152.7840 C   0  0  0  0  0  0  0  0  0  0  0  0
  161.5600  206.7180  150.5480 C   0  0  0  0  0  0  0  0  0  0  0  0
  161.9780  207.9960  150.5000 C   0  0  0  0  0  3  0  0  0  0  0  0
  161.3630  207.5760  153.6230 C   0  0  0  0  0  0  0  0  0  0  0  0
  161.3990  207.6810  154.8770 O   0  0  0  0  0  0  0  0  0  0  0  0
  160.0560  209.5160  153.0270 C   0  0  0  0  0  3  0  0  0  0  0  0
  161.0790  204.4870  149.8220 C   0  0  0  0  0  2  0  0  0  0  0  0
  162.1130  208.9500  151.6600 C   0  0  1  0  0  3  0  0  0  0  0  0
  161.0310  204.5220  151.3450 C   0  0  0  0  0  0  0  0  0  0  0  0
  160.9580  206.0010  151.7170 C   0  0  1  0  0  3  0  0  0  0  0  0
  159.7910  203.8010  151.8340 C   0  0  0  0  0  1  0  0  0  0  0  0
  161.6100  205.8380  149.3450 C   0  0  1  0  0  3  0  0  0  0  0  0
  162.2720  203.8300  151.8930 C   0  0  0  0  0  1  0  0  0  0  0  0
  161.5690  206.3060  153.0090 N   0  0  0  0  0  2  0  0  0  0  0  0
  160.7200  206.3810  148.2340 C   0  0  0  0  0  2  0  0  0  0  0  0
  160.7910  206.2650  145.7240 N   0  0  0  0  0  0  0  0  0  0  0  0
  161.9320  204.3230  145.4160 N   0  0  0  0  0  0  0  0  0  0  0  0
  161.2560  205.7400  143.3900 C   0  0  0  0  0  1  0  0  0  0  0  0
  161.0090  205.7030  146.9800 N   0  0  0  0  0  0  0  0  0  0  0  0
  161.3020  205.4700  144.8510 C   0  0  0  0  0  0  0  0  0  0  0  0
  161.7600  204.4680  146.8570 C   0  0  0  0  0  3  0  0  0  0  0  0
  162.2020  210.2730  151.2170 O   0  0  0  0  0  0  0  0  0  0  0  0
  162.1460  210.1910  149.8250 C   0  0  0  0  0  2  0  0  0  0  0  0
  162.1140  211.5880  149.2410 C   0  0  0  0  0  2  0  0  0  0  0  0
  161.5210  211.5370  147.8480 C   0  0  0  0  0  2  0  0  0  0  0  0
  162.0150  212.7190  147.0390 C   0  0  0  0  0  2  0  0  0  0  0  0
  161.0850  212.9810  145.9550 N   0  0  0  0  0  2  0  0  0  0  0  0
  161.8700  213.2250  144.7550 C   0  0  0  0  0  2  0  0  0  0  0  0
  161.2940  212.5020  143.6340 N   0  0  0  0  0  2  0  0  0  0  0  0
  162.3060  212.4720  142.5940 C   0  0  0  0  0  2  0  0  0  0  0  0
  160.4490  211.1100  140.2700 C   0  0  0  0  0  2  0  0  0  0  0  0
  160.4210  212.3710  141.1430 C   0  0  0  0  0  2  0  0  0  0  0  0
  161.7060  210.4050  140.4690 N   0  0  0  0  0  0  0  0  0  0  0  0
  162.7860  211.2030  139.8850 C   0  0  0  0  0  2  0  0  0  0  0  0
  161.6260  209.1770  139.6990 C   0  0  0  0  0  1  0  0  0  0  0  0
  162.6780  212.7010  140.2400 C   0  0  0  0  0  2  0  0  0  0  0  0
  161.7470  212.9770  141.3470 N   0  0  0  0  0  0  0  0  0  0  0  0
  159.6650  210.7140  152.2240 C   0  0  0  0  0  2  0  0  0  0  0  0
  159.2260  211.5060  154.3850 C   0  0  0  0  0  1  0  0  0  0  0  0
  159.0060  212.9240  152.5500 C   0  0  0  0  0  1  0  0  0  0  0  0
  158.7790  211.5630  153.0020 N   0  0  0  0  0  0  0  0  0  0  0  0
  1  6  2  0  0  0  0
  1  4  1  0  0  0  0
  3  2  2  0  0  0  0
  3  8  1  0  0  0  0
  4  5  2  0  0  0  0
  7  9  1  0  0  0  0
  8 22  1  6  0  0  0
  8  1  1  0  0  0  0
  9 10  1  0  0  0  0
  9 11  1  0  0  0  0
  9 13  1  0  0  0  0
 10  2  1  6  0  0  0
 10 14  1  0  0  0  0
 12 15  1  6  0  0  0
 12  7  1  0  0  0  0
 12  2  1  0  0  0  0
 14  4  1  0  0  0  0
 16 19  1  0  0  0  0
 17 21  2  0  0  0  0
 18 20  1  0  0  0  0
 19 15  1  0  0  0  0
 20 17  1  0  0  0  0
 20 16  2  0  0  0  0
 21 19  1  0  0  0  0
 23 22  1  0  0  0  0
 24 23  1  0  0  0  0
 25 24  1  0  0  0  0
 26 25  1  0  0  0  0
 27 26  1  0  0  0  0
 28 27  1  0  0  0  0
 29 28  1  0  0  0  0
 30 29  1  0  0  0  0
 31 33  1  0  0  0  0
 31 32  1  0  0  0  0
 32 37  1  0  0  0  0
 34 36  1  0  0  0  0
 34 33  1  0  0  0  0
 35 33  1  0  0  0  0
 36 37  1  0  0  0  0
 37 30  1  0  0  0  0
 38 41  1  0  0  0  0
 38  6  1  0  0  0  0
 40 41  1  0  0  0  0
 41 39  1  0  0  0  0
M  END
>  <MODEL>
1

>  <REMARK>
 VINA RESULT:      -6.8      0.000      0.000
  Name = 
  14 active torsions:
  status: ('A' for Active; 'I' for Inactive)
    1  A    between atoms: N_3  and  C_17
    2  A    between atoms: N_3  and  C_32
    3  A    between atoms: C_4  and  N_30
    4  A    between atoms: C_4  and  C_35
    5  A    between atoms: C_15  and  C_26
    6  A    between atoms: C_17  and  N_37
    7  A    between atoms: C_19  and  O_20
    8  A    between atoms: O_20  and  C_21
    9  A    between atoms: C_21  and  C_22
   10  A    between atoms: C_22  and  C_28
   11  A    between atoms: N_25  and  C_32
   12  A    between atoms: N_25  and  C_39
   13  A    between atoms: C_26  and  N_40
   14  A    between atoms: C_28  and  C_39
                            x       y       z     vdW  Elec       q    Type
                         _______ _______ _______ _____ _____    ______ ____

>  <TORSDO>
F 14

$$$$
=
 OpenBabel11052412133D

 41 44  0  0  1  0  0  0  0  0999 V2000
  159.5210  211.8930  153.6750 C   0  0  0  0  0  0  0  0  0  0  0  0
  160.8420  209.1640  153.3290 C   0  0  0  0  0  0  0  0  0  0  0  0
  160.9980  210.1930  152.4760 C   0  0  0  0  0  3  0  0  0  0  0  0
  159.7890  211.6210  155.0860 C   0  0  0  0  0  0  0  0  0  0  0  0
  159.5200  212.4780  155.9670 O   0  0  0  0  0  0  0  0  0  0  0  0
  158.2920  212.2820  153.3120 C   0  0  0  0  0  3  0  0  0  0  0  0
  160.9930  206.9440  154.2170 C   0  0  0  0  0  2  0  0  0  0  0  0
  160.6740  211.6420  152.7360 C   0  0  1  0  0  3  0  0  0  0  0  0
  160.5960  207.8910  155.3440 C   0  0  0  0  0  0  0  0  0  0  0  0
  160.1480  209.1790  154.6560 C   0  0  1  0  0  3  0  0  0  0  0  0
  159.4470  207.2950  156.1310 C   0  0  0  0  0  1  0  0  0  0  0  0
  161.3380  207.7970  152.9970 C   0  0  1  0  0  3  0  0  0  0  0  0
  161.7940  208.0930  156.2620 C   0  0  0  0  0  1  0  0  0  0  0  0
  160.3780  210.3780  155.4600 N   0  0  0  0  0  2  0  0  0  0  0  0
  160.6310  207.2450  151.7640 C   0  0  0  0  0  2  0  0  0  0  0  0
  160.4180  205.0390  150.5780 N   0  0  0  0  0  0  0  0  0  0  0  0
  162.0550  203.8410  151.6040 N   0  0  0  0  0  0  0  0  0  0  0  0
  160.7260  202.7960  149.6780 C   0  0  0  0  0  1  0  0  0  0  0  0
  160.9550  205.8390  151.5850 N   0  0  0  0  0  0  0  0  0  0  0  0
  161.0360  203.9120  150.6100 C   0  0  0  0  0  0  0  0  0  0  0  0
  162.0300  205.1400  152.2640 C   0  0  0  0  0  3  0  0  0  0  0  0
  160.5950  212.3630  151.5410 O   0  0  0  0  0  0  0  0  0  0  0  0
  161.3350  211.6180  150.6210 C   0  0  0  0  0  2  0  0  0  0  0  0
  161.1290  212.1860  149.2330 C   0  0  0  0  0  2  0  0  0  0  0  0
  161.7340  211.2470  148.2110 C   0  0  0  0  0  2  0  0  0  0  0  0
  162.3440  210.0520  148.9150 C   0  0  0  0  0  2  0  0  0  0  0  0
  161.5870  208.8590  148.5800 N   0  0  0  0  0  2  0  0  0  0  0  0
  162.5350  207.8460  148.1430 C   0  0  0  0  0  2  0  0  0  0  0  0
  161.9650  206.5220  148.3300 N   0  0  0  0  0  2  0  0  0  0  0  0
  161.1160  206.2700  147.1800 C   0  0  0  0  0  2  0  0  0  0  0  0
  160.8250  204.3810  144.5240 C   0  0  0  0  0  2  0  0  0  0  0  0
  161.0520  205.8660  144.8350 C   0  0  0  0  0  2  0  0  0  0  0  0
  160.8670  203.6110  145.7590 N   0  0  0  0  0  0  0  0  0  0  0  0
  162.2410  203.6110  146.2630 C   0  0  0  0  0  2  0  0  0  0  0  0
  160.5440  202.2400  145.4100 C   0  0  0  0  0  1  0  0  0  0  0  0
  162.8980  205.0060  146.2020 C   0  0  0  0  0  2  0  0  0  0  0  0
  161.9360  206.1000  145.9890 N   0  0  0  0  0  0  0  0  0  0  0  0
  157.8600  212.5470  151.9070 C   0  0  0  0  0  2  0  0  0  0  0  0
  157.3340  214.1840  150.3150 C   0  0  0  0  0  1  0  0  0  0  0  0
  156.3510  214.2440  152.4270 C   0  0  0  0  0  1  0  0  0  0  0  0
  157.5940  213.9650  151.7290 N   0  0  0  0  0  0  0  0  0  0  0  0
  1  4  1  0  0  0  0
  3  8  1  0  0  0  0
  3  2  2  0  0  0  0
  4 14  1  0  0  0  0
  4  5  2  0  0  0  0
  6  1  2  0  0  0  0
  7  9  1  0  0  0  0
  8 22  1  6  0  0  0
  8  1  1  0  0  0  0
  9 11  1  0  0  0  0
  9 13  1  0  0  0  0
 10  2  1  6  0  0  0
 10  9  1  0  0  0  0
 10 14  1  0  0  0  0
 12 15  1  6  0  0  0
 12  2  1  0  0  0  0
 12  7  1  0  0  0  0
 16 20  2  0  0  0  0
 16 19  1  0  0  0  0
 17 21  2  0  0  0  0
 18 20  1  0  0  0  0
 19 15  1  0  0  0  0
 19 21  1  0  0  0  0
 20 17  1  0  0  0  0
 23 22  1  0  0  0  0
 24 23  1  0  0  0  0
 25 26  1  0  0  0  0
 25 24  1  0  0  0  0
 27 26  1  0  0  0  0
 28 29  1  0  0  0  0
 28 27  1  0  0  0  0
 30 29  1  0  0  0  0
 31 32  1  0  0  0  0
 31 33  1  0  0  0  0
 32 37  1  0  0  0  0
 33 34  1  0  0  0  0
 35 33  1  0  0  0  0
 36 34  1  0  0  0  0
 37 36  1  0  0  0  0
 37 30  1  0  0  0  0
 38  6  1  0  0  0  0
 39 41  1  0  0  0  0
 41 38  1  0  0  0  0
 41 40  1  0  0  0  0
M  END
>  <MODEL>
2

>  <REMARK>
 VINA RESULT:      -6.4      3.772      5.628
  Name = 
  14 active torsions:
  status: ('A' for Active; 'I' for Inactive)
    1  A    between atoms: N_3  and  C_17
    2  A    between atoms: N_3  and  C_32
    3  A    between atoms: C_4  and  N_30
    4  A    between atoms: C_4  and  C_35
    5  A    between atoms: C_15  and  C_26
    6  A    between atoms: C_17  and  N_37
    7  A    between atoms: C_19  and  O_20
    8  A    between atoms: O_20  and  C_21
    9  A    between atoms: C_21  and  C_22
   10  A    between atoms: C_22  and  C_28
   11  A    between atoms: N_25  and  C_32
   12  A    between atoms: N_25  and  C_39
   13  A    between atoms: C_26  and  N_40
   14  A    between atoms: C_28  and  C_39
                            x       y       z     vdW  Elec       q    Type
                         _______ _______ _______ _____ _____    ______ ____

>  <TORSDO>
F 14

$$$$
=
 OpenBabel11052412133D

 41 44  0  0  1  0  0  0  0  0999 V2000
  158.8570  212.3820  154.5000 C   0  0  0  0  0  0  0  0  0  0  0  0
  160.6300  209.9850  153.8460 C   0  0  0  0  0  0  0  0  0  0  0  0
  160.5860  211.1150  153.1160 C   0  0  0  0  0  3  0  0  0  0  0  0
  159.1960  212.0030  155.8710 C   0  0  0  0  0  0  0  0  0  0  0  0
  158.7970  212.6950  156.8440 O   0  0  0  0  0  0  0  0  0  0  0  0
  157.5720  212.5870  154.1830 C   0  0  0  0  0  3  0  0  0  0  0  0
  161.1830  207.7410  154.4730 C   0  0  0  0  0  2  0  0  0  0  0  0
  160.0190  212.4460  153.5400 C   0  0  1  0  0  3  0  0  0  0  0  0
  160.6480  208.4690  155.7000 C   0  0  0  0  0  0  0  0  0  0  0  0
  159.9680  209.7270  155.1640 C   0  0  1  0  0  3  0  0  0  0  0  0
  159.6370  207.5950  156.4130 C   0  0  0  0  0  1  0  0  0  0  0  0
  161.3510  208.7730  153.3590 C   0  0  1  0  0  3  0  0  0  0  0  0
  161.8100  208.7730  156.6380 C   0  0  0  0  0  1  0  0  0  0  0  0
  160.0000  210.8490  156.1000 N   0  0  0  0  0  2  0  0  0  0  0  0
  160.7280  208.2490  152.0700 C   0  0  0  0  0  2  0  0  0  0  0  0
  160.3570  205.8550  151.3970 N   0  0  0  0  0  0  0  0  0  0  0  0
  162.5010  205.1180  151.2340 N   0  0  0  0  0  0  0  0  0  0  0  0
  160.5650  203.5550  150.6230 C   0  0  0  0  0  1  0  0  0  0  0  0
  161.1900  206.8970  151.8020 N   0  0  0  0  0  0  0  0  0  0  0  0
  161.1080  204.8560  151.0950 C   0  0  0  0  0  0  0  0  0  0  0  0
  162.5820  206.4990  151.6950 C   0  0  0  0  0  3  0  0  0  0  0  0
  159.7930  213.2720  152.4360 O   0  0  0  0  0  0  0  0  0  0  0  0
  159.9750  212.4470  151.3250 C   0  0  0  0  0  2  0  0  0  0  0  0
  159.9780  213.2910  150.0670 C   0  0  0  0  0  2  0  0  0  0  0  0
  161.1350  212.8730  149.1850 C   0  0  0  0  0  2  0  0  0  0  0  0
  161.6560  211.5220  149.6320 C   0  0  0  0  0  2  0  0  0  0  0  0
  161.9010  210.6910  148.4670 N   0  0  0  0  0  2  0  0  0  0  0  0
  162.3900  209.4050  148.9410 C   0  0  0  0  0  2  0  0  0  0  0  0
  161.4590  208.3550  148.5660 N   0  0  0  0  0  2  0  0  0  0  0  0
  162.2200  207.3710  147.8180 C   0  0  0  0  0  2  0  0  0  0  0  0
  162.1810  204.7110  145.9140 C   0  0  0  0  0  2  0  0  0  0  0  0
  162.5010  205.0490  147.3760 C   0  0  0  0  0  2  0  0  0  0  0  0
  161.6450  205.8880  145.2460 N   0  0  0  0  0  0  0  0  0  0  0  0
  160.3160  206.1690  145.7920 C   0  0  0  0  0  2  0  0  0  0  0  0
  161.4620  205.5320  143.8510 C   0  0  0  0  0  1  0  0  0  0  0  0
  160.2710  206.0690  147.3310 C   0  0  0  0  0  2  0  0  0  0  0  0
  161.6030  206.0600  147.9590 N   0  0  0  0  0  0  0  0  0  0  0  0
  157.0750  212.9290  152.8160 C   0  0  0  0  0  2  0  0  0  0  0  0
  155.8650  214.4520  151.5110 C   0  0  0  0  0  1  0  0  0  0  0  0
  155.2540  214.0620  153.7250 C   0  0  0  0  0  1  0  0  0  0  0  0
  156.3970  214.2140  152.8430 N   0  0  0  0  0  0  0  0  0  0  0  0
  1  4  1  0  0  0  0
  3  8  1  0  0  0  0
  3  2  2  0  0  0  0
  4 14  1  0  0  0  0
  4  5  2  0  0  0  0
  6  1  2  0  0  0  0
  7  9  1  0  0  0  0
  8 22  1  6  0  0  0
  8  1  1  0  0  0  0
  9 11  1  0  0  0  0
  9 13  1  0  0  0  0
 10  2  1  6  0  0  0
 10  9  1  0  0  0  0
 10 14  1  0  0  0  0
 12 15  1  6  0  0  0
 12  2  1  0  0  0  0
 12  7  1  0  0  0  0
 16 19  1  0  0  0  0
 17 21  2  0  0  0  0
 18 20  1  0  0  0  0
 19 15  1  0  0  0  0
 20 17  1  0  0  0  0
 20 16  2  0  0  0  0
 21 19  1  0  0  0  0
 23 22  1  0  0  0  0
 24 23  1  0  0  0  0
 25 26  1  0  0  0  0
 25 24  1  0  0  0  0
 27 28  1  0  0  0  0
 27 26  1  0  0  0  0
 29 28  1  0  0  0  0
 30 37  1  0  0  0  0
 30 29  1  0  0  0  0
 31 32  1  0  0  0  0
 32 37  1  0  0  0  0
 33 34  1  0  0  0  0
 33 31  1  0  0  0  0
 34 36  1  0  0  0  0
 35 33  1  0  0  0  0
 36 37  1  0  0  0  0
 38 41  1  0  0  0  0
 38  6  1  0  0  0  0
 39 41  1  0  0  0  0
 41 40  1  0  0  0  0
M  END
>  <MODEL>
3

>  <REMARK>
 VINA RESULT:      -6.2      3.709      5.834
  Name = 
  14 active torsions:
  status: ('A' for Active; 'I' for Inactive)
    1  A    between atoms: N_3  and  C_17
    2  A    between atoms: N_3  and  C_32
    3  A    between atoms: C_4  and  N_30
    4  A    between atoms: C_4  and  C_35
    5  A    between atoms: C_15  and  C_26
    6  A    between atoms: C_17  and  N_37
    7  A    between atoms: C_19  and  O_20
    8  A    between atoms: O_20  and  C_21
    9  A    between atoms: C_21  and  C_22
   10  A    between atoms: C_22  and  C_28
   11  A    between atoms: N_25  and  C_32
   12  A    between atoms: N_25  and  C_39
   13  A    between atoms: C_26  and  N_40
   14  A    between atoms: C_28  and  C_39
                            x       y       z     vdW  Elec       q    Type
                         _______ _______ _______ _____ _____    ______ ____

>  <TORSDO>
F 14

$$$$
=
 OpenBabel11052412133D

 41 44  0  0  1  0  0  0  0  0999 V2000
  161.3110  208.3380  152.5660 C   0  0  0  0  0  0  0  0  0  0  0  0
  161.5630  206.1600  150.4430 C   0  0  0  0  0  0  0  0  0  0  0  0
  161.9870  207.4270  150.2800 C   0  0  0  0  0  3  0  0  0  0  0  0
  161.5980  207.2180  153.4610 C   0  0  0  0  0  0  0  0  0  0  0  0
  161.7260  207.4040  154.6990 O   0  0  0  0  0  0  0  0  0  0  0  0
  160.2660  209.1310  152.8340 C   0  0  0  0  0  3  0  0  0  0  0  0
  161.0150  203.8920  149.9020 C   0  0  0  0  0  2  0  0  0  0  0  0
  162.2130  208.4530  151.3630 C   0  0  1  0  0  3  0  0  0  0  0  0
  161.0790  204.0270  151.4190 C   0  0  0  0  0  0  0  0  0  0  0  0
  161.0440  205.5280  151.6970 C   0  0  1  0  0  3  0  0  0  0  0  0
  159.8720  203.3550  152.0430 C   0  0  0  0  0  1  0  0  0  0  0  0
  161.5200  205.2020  149.3000 C   0  0  1  0  0  3  0  0  0  0  0  0
  162.3520  203.3570  151.9200 C   0  0  0  0  0  1  0  0  0  0  0  0
  161.7500  205.9090  152.9190 N   0  0  0  0  0  2  0  0  0  0  0  0
  160.5540  205.6830  148.2230 C   0  0  0  0  0  2  0  0  0  0  0  0
  160.7080  205.9150  145.7250 N   0  0  0  0  0  0  0  0  0  0  0  0
  162.2290  204.2980  145.2370 N   0  0  0  0  0  0  0  0  0  0  0  0
  161.3270  205.8050  143.3710 C   0  0  0  0  0  1  0  0  0  0  0  0
  161.0060  205.2480  146.9120 N   0  0  0  0  0  0  0  0  0  0  0  0
  161.3930  205.3600  144.7880 C   0  0  0  0  0  0  0  0  0  0  0  0
  161.9970  204.2150  146.6740 C   0  0  0  0  0  3  0  0  0  0  0  0
  162.2790  209.7430  150.8280 O   0  0  0  0  0  0  0  0  0  0  0  0
  162.5050  209.5560  149.4640 C   0  0  0  0  0  2  0  0  0  0  0  0
  161.7500  210.6100  148.6810 C   0  0  0  0  0  2  0  0  0  0  0  0
  161.6850  211.8870  149.4930 C   0  0  0  0  0  2  0  0  0  0  0  0
  161.7030  213.0840  148.5640 C   0  0  0  0  0  2  0  0  0  0  0  0
  162.9240  213.0630  147.7780 N   0  0  0  0  0  2  0  0  0  0  0  0
  162.6100  213.6080  146.4660 C   0  0  0  0  0  2  0  0  0  0  0  0
  161.4650  212.9130  145.9040 N   0  0  0  0  0  2  0  0  0  0  0  0
  160.4590  213.9220  145.6270 C   0  0  0  0  0  2  0  0  0  0  0  0
  157.2440  214.4370  145.3060 C   0  0  0  0  0  2  0  0  0  0  0  0
  158.4850  214.4430  144.4030 C   0  0  0  0  0  2  0  0  0  0  0  0
  157.6070  213.9610  146.6320 N   0  0  0  0  0  0  0  0  0  0  0  0
  157.9280  212.5350  146.5450 C   0  0  0  0  0  2  0  0  0  0  0  0
  156.4200  214.0770  147.4600 C   0  0  0  0  0  1  0  0  0  0  0  0
  158.8230  212.1990  145.3340 C   0  0  0  0  0  2  0  0  0  0  0  0
  159.4540  213.3810  144.7230 N   0  0  0  0  0  0  0  0  0  0  0  0
  159.8250  210.2790  151.9850 C   0  0  0  0  0  2  0  0  0  0  0  0
  159.0240  212.4800  152.0050 C   0  0  0  0  0  1  0  0  0  0  0  0
  158.8910  211.1670  153.9250 C   0  0  0  0  0  1  0  0  0  0  0  0
  159.7380  211.4860  152.7900 N   0  0  0  0  0  0  0  0  0  0  0  0
  1  6  2  0  0  0  0
  1  4  1  0  0  0  0
  3  2  2  0  0  0  0
  3  8  1  0  0  0  0
  4  5  2  0  0  0  0
  7  9  1  0  0  0  0
  8 22  1  6  0  0  0
  8  1  1  0  0  0  0
  9 10  1  0  0  0  0
  9 13  1  0  0  0  0
  9 11  1  0  0  0  0
 10  2  1  6  0  0  0
 10 14  1  0  0  0  0
 12 15  1  6  0  0  0
 12  7  1  0  0  0  0
 12  2  1  0  0  0  0
 14  4  1  0  0  0  0
 16 19  1  0  0  0  0
 17 21  2  0  0  0  0
 18 20  1  0  0  0  0
 19 15  1  0  0  0  0
 20 17  1  0  0  0  0
 20 16  2  0  0  0  0
 21 19  1  0  0  0  0
 23 22  1  0  0  0  0
 24 23  1  0  0  0  0
 24 25  1  0  0  0  0
 26 25  1  0  0  0  0
 27 26  1  0  0  0  0
 28 27  1  0  0  0  0
 29 28  1  0  0  0  0
 30 29  1  0  0  0  0
 31 33  1  0  0  0  0
 32 37  1  0  0  0  0
 32 31  1  0  0  0  0
 33 35  1  0  0  0  0
 34 33  1  0  0  0  0
 36 34  1  0  0  0  0
 37 36  1  0  0  0  0
 37 30  1  0  0  0  0
 38 41  1  0  0  0  0
 38  6  1  0  0  0  0
 39 41  1  0  0  0  0
 41 40  1  0  0  0  0
M  END
>  <MODEL>
4

>  <REMARK>
 VINA RESULT:      -5.6      2.399      3.231
  Name = 
  14 active torsions:
  status: ('A' for Active; 'I' for Inactive)
    1  A    between atoms: N_3  and  C_17
    2  A    between atoms: N_3  and  C_32
    3  A    between atoms: C_4  and  N_30
    4  A    between atoms: C_4  and  C_35
    5  A    between atoms: C_15  and  C_26
    6  A    between atoms: C_17  and  N_37
    7  A    between atoms: C_19  and  O_20
    8  A    between atoms: O_20  and  C_21
    9  A    between atoms: C_21  and  C_22
   10  A    between atoms: C_22  and  C_28
   11  A    between atoms: N_25  and  C_32
   12  A    between atoms: N_25  and  C_39
   13  A    between atoms: C_26  and  N_40
   14  A    between atoms: C_28  and  C_39
                            x       y       z     vdW  Elec       q    Type
                         _______ _______ _______ _____ _____    ______ ____

>  <TORSDO>
F 14

$$$$
=
 OpenBabel11052412133D

 41 44  0  0  1  0  0  0  0  0999 V2000
  161.9790  209.6310  149.5390 C   0  0  0  0  0  0  0  0  0  0  0  0
  160.4850  211.3050  151.6090 C   0  0  0  0  0  0  0  0  0  0  0  0
  161.2240  210.2190  151.9050 C   0  0  0  0  0  3  0  0  0  0  0  0
  162.1970  210.9420  148.9310 C   0  0  0  0  0  0  0  0  0  0  0  0
  162.9030  211.0600  147.8960 O   0  0  0  0  0  0  0  0  0  0  0  0
  161.5170  208.6310  148.7770 C   0  0  0  0  0  3  0  0  0  0  0  0
  158.9780  213.1420  151.9110 C   0  0  0  0  0  2  0  0  0  0  0  0
  162.2470  209.5520  151.0210 C   0  0  1  0  0  3  0  0  0  0  0  0
  159.7330  213.3440  150.6020 C   0  0  0  0  0  0  0  0  0  0  0  0
  160.3670  211.9910  150.2840 C   0  0  1  0  0  3  0  0  0  0  0  0
  158.7610  213.7330  149.5060 C   0  0  0  0  0  1  0  0  0  0  0  0
  159.6100  211.9510  152.6300 C   0  0  1  0  0  3  0  0  0  0  0  0
  160.7590  214.4530  150.7910 C   0  0  0  0  0  1  0  0  0  0  0  0
  161.6150  212.0980  149.5300 N   0  0  0  0  0  2  0  0  0  0  0  0
  158.5220  210.9940  153.1000 C   0  0  0  0  0  2  0  0  0  0  0  0
  156.8450  212.0750  154.6290 N   0  0  0  0  0  0  0  0  0  0  0  0
  157.6510  211.4510  156.6600 N   0  0  0  0  0  0  0  0  0  0  0  0
  155.4660  212.7810  156.5100 C   0  0  0  0  0  1  0  0  0  0  0  0
  158.0380  211.3880  154.4130 N   0  0  0  0  0  0  0  0  0  0  0  0
  156.6470  212.1160  155.8990 C   0  0  0  0  0  0  0  0  0  0  0  0
  158.5940  210.9350  155.6750 C   0  0  0  0  0  3  0  0  0  0  0  0
  162.5390  208.2620  151.4740 O   0  0  0  0  0  0  0  0  0  0  0  0
  161.8740  208.1500  152.6960 C   0  0  0  0  0  2  0  0  0  0  0  0
  161.0250  206.8950  152.6920 C   0  0  0  0  0  2  0  0  0  0  0  0
  161.9140  205.6880  152.4780 C   0  0  0  0  0  2  0  0  0  0  0  0
  161.2330  204.7130  151.5380 C   0  0  0  0  0  2  0  0  0  0  0  0
  161.8560  203.4070  151.6680 N   0  0  0  0  0  2  0  0  0  0  0  0
  160.8660  202.4110  151.2870 C   0  0  0  0  0  2  0  0  0  0  0  0
  160.1020  202.8850  150.1450 N   0  0  0  0  0  2  0  0  0  0  0  0
  160.1570  201.8360  149.1440 C   0  0  0  0  0  2  0  0  0  0  0  0
  161.2420  202.6790  146.1750 C   0  0  0  0  0  2  0  0  0  0  0  0
  161.6020  202.9780  147.6360 C   0  0  0  0  0  2  0  0  0  0  0  0
  160.2090  201.6550  146.1250 N   0  0  0  0  0  0  0  0  0  0  0  0
  160.7900  200.3840  146.5620 C   0  0  0  0  0  2  0  0  0  0  0  0
  159.8430  201.4950  144.7300 C   0  0  0  0  0  1  0  0  0  0  0  0
  161.6680  200.5330  147.8220 C   0  0  0  0  0  2  0  0  0  0  0  0
  161.4750  201.8120  148.5260 N   0  0  0  0  0  0  0  0  0  0  0  0
  161.2020  207.2570  149.2710 C   0  0  0  0  0  2  0  0  0  0  0  0
  160.3810  206.4860  147.2170 C   0  0  0  0  0  1  0  0  0  0  0  0
  162.6780  206.6460  147.5750 C   0  0  0  0  0  1  0  0  0  0  0  0
  161.4230  206.2870  148.2120 N   0  0  0  0  0  0  0  0  0  0  0  0
  1  8  1  0  0  0  0
  2  3  2  0  0  0  0
  2 12  1  0  0  0  0
  4 14  1  0  0  0  0
  4  1  1  0  0  0  0
  5  4  2  0  0  0  0
  6 38  1  0  0  0  0
  6  1  2  0  0  0  0
  7 12  1  0  0  0  0
  8 22  1  1  0  0  0
  8  3  1  0  0  0  0
  9 13  1  0  0  0  0
  9  7  1  0  0  0  0
 10 14  1  1  0  0  0
 10  9  1  0  0  0  0
 10  2  1  0  0  0  0
 11  9  1  0  0  0  0
 12 15  1  6  0  0  0
 15 19  1  0  0  0  0
 16 20  2  0  0  0  0
 19 16  1  0  0  0  0
 19 21  1  0  0  0  0
 20 18  1  0  0  0  0
 20 17  1  0  0  0  0
 21 17  2  0  0  0  0
 22 23  1  0  0  0  0
 24 23  1  0  0  0  0
 25 24  1  0  0  0  0
 26 27  1  0  0  0  0
 26 25  1  0  0  0  0
 28 27  1  0  0  0  0
 29 28  1  0  0  0  0
 30 29  1  0  0  0  0
 31 32  1  0  0  0  0
 32 37  1  0  0  0  0
 33 31  1  0  0  0  0
 33 34  1  0  0  0  0
 34 36  1  0  0  0  0
 35 33  1  0  0  0  0
 36 37  1  0  0  0  0
 37 30  1  0  0  0  0
 39 41  1  0  0  0  0
 40 41  1  0  0  0  0
 41 38  1  0  0  0  0
M  END
>  <MODEL>
5

>  <REMARK>
 VINA RESULT:      -5.2      4.226      9.528
  Name = 
  14 active torsions:
  status: ('A' for Active; 'I' for Inactive)
    1  A    between atoms: N_3  and  C_17
    2  A    between atoms: N_3  and  C_32
    3  A    between atoms: C_4  and  N_30
    4  A    between atoms: C_4  and  C_35
    5  A    between atoms: C_15  and  C_26
    6  A    between atoms: C_17  and  N_37
    7  A    between atoms: C_19  and  O_20
    8  A    between atoms: O_20  and  C_21
    9  A    between atoms: C_21  and  C_22
   10  A    between atoms: C_22  and  C_28
   11  A    between atoms: N_25  and  C_32
   12  A    between atoms: N_25  and  C_39
   13  A    between atoms: C_26  and  N_40
   14  A    between atoms: C_28  and  C_39
                            x       y       z     vdW  Elec       q    Type
                         _______ _______ _______ _____ _____    ______ ____

>  <TORSDO>
F 14

$$$$
=
 OpenBabel11052412133D

 41 44  0  0  1  0  0  0  0  0999 V2000
  159.6280  210.1400  155.1760 C   0  0  0  0  0  0  0  0  0  0  0  0
  158.6780  212.2440  153.1790 C   0  0  0  0  0  0  0  0  0  0  0  0
  159.5130  211.2330  152.8730 C   0  0  0  0  0  3  0  0  0  0  0  0
  158.2630  210.2880  155.6760 C   0  0  0  0  0  0  0  0  0  0  0  0
  157.8450  209.5690  156.6200 O   0  0  0  0  0  0  0  0  0  0  0  0
  160.6470  210.2050  156.0420 C   0  0  0  0  0  3  0  0  0  0  0  0
  157.4170  214.2640  152.9290 C   0  0  0  0  0  2  0  0  0  0  0  0
  159.7570  209.9840  153.6810 C   0  0  1  0  0  3  0  0  0  0  0  0
  156.8790  213.5030  154.1350 C   0  0  0  0  0  0  0  0  0  0  0  0
  157.9420  212.4580  154.4650 C   0  0  1  0  0  3  0  0  0  0  0  0
  156.7030  214.4530  155.3020 C   0  0  0  0  0  1  0  0  0  0  0  0
  158.4210  213.3570  152.2210 C   0  0  1  0  0  3  0  0  0  0  0  0
  155.5330  212.8890  153.7700 C   0  0  0  0  0  1  0  0  0  0  0  0
  157.3960  211.2460  155.0730 N   0  0  0  0  0  2  0  0  0  0  0  0
  159.7010  214.1320  151.9280 C   0  0  0  0  0  2  0  0  0  0  0  0
  161.1810  214.2560  149.9000 N   0  0  0  0  0  0  0  0  0  0  0  0
  159.6490  214.0340  148.2360 N   0  0  0  0  0  0  0  0  0  0  0  0
  162.1420  214.1810  147.6630 C   0  0  0  0  0  1  0  0  0  0  0  0
  159.9210  214.2180  150.4940 N   0  0  0  0  0  0  0  0  0  0  0  0
  161.0120  214.1670  148.6280 C   0  0  0  0  0  0  0  0  0  0  0  0
  158.8930  214.0490  149.4830 C   0  0  0  0  0  3  0  0  0  0  0  0
  160.9350  209.3470  153.2790 O   0  0  0  0  0  0  0  0  0  0  0  0
  160.5770  208.0100  153.0980 C   0  0  0  0  0  2  0  0  0  0  0  0
  161.8270  207.1560  153.0660 C   0  0  0  0  0  2  0  0  0  0  0  0
  162.1470  206.7860  151.6330 C   0  0  0  0  0  2  0  0  0  0  0  0
  162.1220  208.0310  150.7680 C   0  0  0  0  0  2  0  0  0  0  0  0
  162.6780  207.7190  149.4630 N   0  0  0  0  0  2  0  0  0  0  0  0
  161.5790  207.7150  148.5090 C   0  0  0  0  0  2  0  0  0  0  0  0
  161.0340  206.3740  148.3890 N   0  0  0  0  0  2  0  0  0  0  0  0
  160.6880  206.1880  146.9920 C   0  0  0  0  0  2  0  0  0  0  0  0
  161.2760  203.9520  144.6780 C   0  0  0  0  0  2  0  0  0  0  0  0
  161.4740  205.4610  144.8660 C   0  0  0  0  0  2  0  0  0  0  0  0
  160.8000  203.3620  145.9200 N   0  0  0  0  0  0  0  0  0  0  0  0
  161.8840  203.4070  146.9030 C   0  0  0  0  0  2  0  0  0  0  0  0
  160.5350  201.9620  145.6470 C   0  0  0  0  0  1  0  0  0  0  0  0
  162.6130  204.7670  146.9250 C   0  0  0  0  0  2  0  0  0  0  0  0
  161.8790  205.8380  146.2310 N   0  0  0  0  0  0  0  0  0  0  0  0
  162.0920  210.1190  155.6690 C   0  0  0  0  0  2  0  0  0  0  0  0
  161.9070  211.8840  157.1990 C   0  0  0  0  0  1  0  0  0  0  0  0
  163.7750  210.4920  157.2350 C   0  0  0  0  0  1  0  0  0  0  0  0
  162.8410  211.1630  156.3490 N   0  0  0  0  0  0  0  0  0  0  0  0
  1  4  1  0  0  0  0
  1  6  2  0  0  0  0
  3  2  2  0  0  0  0
  3  8  1  0  0  0  0
  4  5  2  0  0  0  0
  7  9  1  0  0  0  0
  8 22  1  1  0  0  0
  8  1  1  0  0  0  0
  9 10  1  0  0  0  0
  9 11  1  0  0  0  0
 10  2  1  6  0  0  0
 10 14  1  0  0  0  0
 12 15  1  1  0  0  0
 12  7  1  0  0  0  0
 12  2  1  0  0  0  0
 13  9  1  0  0  0  0
 14  4  1  0  0  0  0
 16 19  1  0  0  0  0
 17 20  1  0  0  0  0
 17 21  2  0  0  0  0
 18 20  1  0  0  0  0
 19 15  1  0  0  0  0
 20 16  2  0  0  0  0
 21 19  1  0  0  0  0
 23 22  1  0  0  0  0
 24 23  1  0  0  0  0
 25 24  1  0  0  0  0
 26 25  1  0  0  0  0
 27 26  1  0  0  0  0
 28 27  1  0  0  0  0
 29 28  1  0  0  0  0
 30 29  1  0  0  0  0
 31 32  1  0  0  0  0
 31 33  1  0  0  0  0
 32 37  1  0  0  0  0
 33 34  1  0  0  0  0
 34 36  1  0  0  0  0
 35 33  1  0  0  0  0
 37 36  1  0  0  0  0
 37 30  1  0  0  0  0
 38  6  1  0  0  0  0
 38 41  1  0  0  0  0
 41 39  1  0  0  0  0
 41 40  1  0  0  0  0
M  END
>  <MODEL>
6

>  <REMARK>
 VINA RESULT:      -4.2      3.707      7.800
  Name = 
  14 active torsions:
  status: ('A' for Active; 'I' for Inactive)
    1  A    between atoms: N_3  and  C_17
    2  A    between atoms: N_3  and  C_32
    3  A    between atoms: C_4  and  N_30
    4  A    between atoms: C_4  and  C_35
    5  A    between atoms: C_15  and  C_26
    6  A    between atoms: C_17  and  N_37
    7  A    between atoms: C_19  and  O_20
    8  A    between atoms: O_20  and  C_21
    9  A    between atoms: C_21  and  C_22
   10  A    between atoms: C_22  and  C_28
   11  A    between atoms: N_25  and  C_32
   12  A    between atoms: N_25  and  C_39
   13  A    between atoms: C_26  and  N_40
   14  A    between atoms: C_28  and  C_39
                            x       y       z     vdW  Elec       q    Type
                         _______ _______ _______ _____ _____    ______ ____

>  <TORSDO>
F 14

$$$$
=
 OpenBabel11052412133D

 41 44  0  0  1  0  0  0  0  0999 V2000
  161.8060  209.8180  153.0270 C   0  0  0  0  0  0  0  0  0  0  0  0
  159.2770  210.5560  154.5670 C   0  0  0  0  0  0  0  0  0  0  0  0
  159.4610  209.3820  153.9350 C   0  0  0  0  0  3  0  0  0  0  0  0
  162.4420  210.5620  154.1120 C   0  0  0  0  0  0  0  0  0  0  0  0
  163.6960  210.6460  154.1830 O   0  0  0  0  0  0  0  0  0  0  0  0
  162.1330  210.1090  151.7620 C   0  0  0  0  0  3  0  0  0  0  0  0
  158.1650  212.3060  155.7670 C   0  0  0  0  0  2  0  0  0  0  0  0
  160.7700  208.8080  153.4550 C   0  0  1  0  0  3  0  0  0  0  0  0
  159.6700  212.5370  155.8550 C   0  0  0  0  0  0  0  0  0  0  0  0
  160.2830  211.6430  154.7790 C   0  0  1  0  0  3  0  0  0  0  0  0
  159.9810  213.9910  155.5640 C   0  0  0  0  0  1  0  0  0  0  0  0
  157.9450  210.9410  155.1180 C   0  0  1  0  0  3  0  0  0  0  0  0
  160.1400  212.1860  157.2610 C   0  0  0  0  0  1  0  0  0  0  0  0
  161.6310  211.1820  155.1070 N   0  0  0  0  0  2  0  0  0  0  0  0
  156.9080  211.0570  154.0070 C   0  0  0  0  0  2  0  0  0  0  0  0
  157.8630  212.6200  152.2860 N   0  0  0  0  0  0  0  0  0  0  0  0
  156.5190  214.4320  152.5580 N   0  0  0  0  0  0  0  0  0  0  0  0
  158.3000  214.4320  150.7160 C   0  0  0  0  0  1  0  0  0  0  0  0
  157.0120  212.3530  153.3560 N   0  0  0  0  0  0  0  0  0  0  0  0
  157.5850  213.8000  151.8560 C   0  0  0  0  0  0  0  0  0  0  0  0
  156.1040  213.4650  153.5670 C   0  0  0  0  0  3  0  0  0  0  0  0
  160.5610  207.7860  152.5250 O   0  0  0  0  0  0  0  0  0  0  0  0
  160.9280  206.6140  153.1890 C   0  0  0  0  0  2  0  0  0  0  0  0
  161.7230  205.7320  152.2490 C   0  0  0  0  0  2  0  0  0  0  0  0
  160.8120  204.6720  151.6650 C   0  0  0  0  0  2  0  0  0  0  0  0
  161.3000  203.2980  152.0770 C   0  0  0  0  0  2  0  0  0  0  0  0
  160.9360  202.3320  151.0550 N   0  0  0  0  0  2  0  0  0  0  0  0
  161.5370  202.7710  149.8050 C   0  0  0  0  0  2  0  0  0  0  0  0
  160.5040  202.9660  148.8020 N   0  0  0  0  0  2  0  0  0  0  0  0
  161.1810  203.3390  147.5740 C   0  0  0  0  0  2  0  0  0  0  0  0
  160.8110  206.1300  145.9080 C   0  0  0  0  0  2  0  0  0  0  0  0
  160.7490  205.6720  147.3710 C   0  0  0  0  0  2  0  0  0  0  0  0
  161.2690  205.0330  145.0700 N   0  0  0  0  0  0  0  0  0  0  0  0
  162.6790  204.7750  145.3670 C   0  0  0  0  0  2  0  0  0  0  0  0
  161.2060  205.4980  143.6960 C   0  0  0  0  0  1  0  0  0  0  0  0
  162.9750  204.7630  146.8820 C   0  0  0  0  0  2  0  0  0  0  0  0
  161.7670  204.6640  147.7170 N   0  0  0  0  0  0  0  0  0  0  0  0
  161.5300  209.4670  150.5550 C   0  0  0  0  0  2  0  0  0  0  0  0
  162.4900  208.6030  148.6000 C   0  0  0  0  0  1  0  0  0  0  0  0
  161.4470  210.6860  148.5720 C   0  0  0  0  0  1  0  0  0  0  0  0
  162.2950  209.8210  149.3710 N   0  0  0  0  0  0  0  0  0  0  0  0
  1  8  1  0  0  0  0
  1  4  1  0  0  0  0
  2 12  1  0  0  0  0
  3  2  2  0  0  0  0
  4  5  2  0  0  0  0
  4 14  1  0  0  0  0
  6  1  2  0  0  0  0
  7  9  1  0  0  0  0
  8 22  1  6  0  0  0
  8  3  1  0  0  0  0
  9 13  1  0  0  0  0
 10  2  1  1  0  0  0
 10 14  1  0  0  0  0
 10  9  1  0  0  0  0
 11  9  1  0  0  0  0
 12 15  1  6  0  0  0
 12  7  1  0  0  0  0
 16 19  1  0  0  0  0
 17 21  2  0  0  0  0
 18 20  1  0  0  0  0
 19 21  1  0  0  0  0
 19 15  1  0  0  0  0
 20 16  2  0  0  0  0
 20 17  1  0  0  0  0
 22 23  1  0  0  0  0
 24 23  1  0  0  0  0
 25 26  1  0  0  0  0
 25 24  1  0  0  0  0
 27 26  1  0  0  0  0
 28 27  1  0  0  0  0
 29 28  1  0  0  0  0
 30 37  1  0  0  0  0
 30 29  1  0  0  0  0
 31 32  1  0  0  0  0
 32 37  1  0  0  0  0
 33 34  1  0  0  0  0
 33 31  1  0  0  0  0
 34 36  1  0  0  0  0
 35 33  1  0  0  0  0
 36 37  1  0  0  0  0
 38  6  1  0  0  0  0
 39 41  1  0  0  0  0
 40 41  1  0  0  0  0
 41 38  1  0  0  0  0
M  END
>  <MODEL>
7

>  <REMARK>
 VINA RESULT:      -4.1      3.778      8.418
  Name = 
  14 active torsions:
  status: ('A' for Active; 'I' for Inactive)
    1  A    between atoms: N_3  and  C_17
    2  A    between atoms: N_3  and  C_32
    3  A    between atoms: C_4  and  N_30
    4  A    between atoms: C_4  and  C_35
    5  A    between atoms: C_15  and  C_26
    6  A    between atoms: C_17  and  N_37
    7  A    between atoms: C_19  and  O_20
    8  A    between atoms: O_20  and  C_21
    9  A    between atoms: C_21  and  C_22
   10  A    between atoms: C_22  and  C_28
   11  A    between atoms: N_25  and  C_32
   12  A    between atoms: N_25  and  C_39
   13  A    between atoms: C_26  and  N_40
   14  A    between atoms: C_28  and  C_39
                            x       y       z     vdW  Elec       q    Type
                         _______ _______ _______ _____ _____    ______ ____

>  <TORSDO>
F 14

$$$$
=
 OpenBabel11052412133D

 41 44  0  0  1  0  0  0  0  0999 V2000
  161.1940  204.1390  147.6230 C   0  0  0  0  0  0  0  0  0  0  0  0
  161.0110  204.9770  150.5520 C   0  0  0  0  0  0  0  0  0  0  0  0
  160.6780  205.7700  149.5170 C   0  0  0  0  0  3  0  0  0  0  0  0
  160.7620  202.8540  148.1720 C   0  0  0  0  0  0  0  0  0  0  0  0
  160.5320  201.8770  147.4130 O   0  0  0  0  0  0  0  0  0  0  0  0
  162.2540  204.1710  146.8060 C   0  0  0  0  0  3  0  0  0  0  0  0
  161.4750  204.3070  152.8040 C   0  0  0  0  0  2  0  0  0  0  0  0
  160.4140  205.3400  148.0960 C   0  0  1  0  0  3  0  0  0  0  0  0
  161.2810  203.0550  151.9560 C   0  0  0  0  0  0  0  0  0  0  0  0
  161.3770  203.5260  150.5060 C   0  0  1  0  0  3  0  0  0  0  0  0
  162.3840  202.0600  152.2540 C   0  0  0  0  0  1  0  0  0  0  0  0
  161.1030  205.5110  151.9420 C   0  0  1  0  0  3  0  0  0  0  0  0
  159.9310  202.4360  152.2940 C   0  0  0  0  0  1  0  0  0  0  0  0
  160.5850  202.7180  149.5800 N   0  0  0  0  0  2  0  0  0  0  0  0
  162.1890  206.5760  152.0450 C   0  0  0  0  0  2  0  0  0  0  0  0
  160.9870  207.8500  153.8480 N   0  0  0  0  0  0  0  0  0  0  0  0
  161.3020  209.9880  153.1460 N   0  0  0  0  0  0  0  0  0  0  0  0
  160.0970  209.5390  155.3630 C   0  0  0  0  0  1  0  0  0  0  0  0
  161.6450  207.7950  152.6210 N   0  0  0  0  0  0  0  0  0  0  0  0
  160.7860  209.0900  154.1240 C   0  0  0  0  0  0  0  0  0  0  0  0
  161.9030  209.1350  152.1280 C   0  0  0  0  0  3  0  0  0  0  0  0
  160.4710  206.4290  147.2210 O   0  0  0  0  0  0  0  0  0  0  0  0
  160.7510  207.5290  148.0340 C   0  0  0  0  0  2  0  0  0  0  0  0
  162.2350  207.8240  147.9840 C   0  0  0  0  0  2  0  0  0  0  0  0
  162.5420  209.0080  148.8780 C   0  0  0  0  0  2  0  0  0  0  0  0
  161.6200  210.1600  148.5330 C   0  0  0  0  0  2  0  0  0  0  0  0
  162.1840  211.3960  149.0470 N   0  0  0  0  0  2  0  0  0  0  0  0
  162.8010  212.0940  147.9280 C   0  0  0  0  0  2  0  0  0  0  0  0
  162.0390  213.2900  147.6120 N   0  0  0  0  0  2  0  0  0  0  0  0
  161.3970  213.0490  146.3340 C   0  0  0  0  0  2  0  0  0  0  0  0
  160.7680  213.6420  143.1780 C   0  0  0  0  0  2  0  0  0  0  0  0
  160.3460  214.2090  144.5400 C   0  0  0  0  0  2  0  0  0  0  0  0
  161.8150  212.6490  143.3650 N   0  0  0  0  0  0  0  0  0  0  0  0
  163.0340  213.3320  143.8010 C   0  0  0  0  0  2  0  0  0  0  0  0
  162.0930  212.0800  142.0590 C   0  0  0  0  0  1  0  0  0  0  0  0
  162.7670  214.3860  144.8960 C   0  0  0  0  0  2  0  0  0  0  0  0
  161.4410  214.2580  145.5240 N   0  0  0  0  0  0  0  0  0  0  0  0
  162.8360  205.4120  146.2110 C   0  0  0  0  0  2  0  0  0  0  0  0
  162.4420  204.0200  144.3690 C   0  0  0  0  0  1  0  0  0  0  0  0
  161.4170  206.1080  144.5000 C   0  0  0  0  0  1  0  0  0  0  0  0
  162.6570  205.4020  144.7690 N   0  0  0  0  0  0  0  0  0  0  0  0
  1  8  1  0  0  0  0
  1  4  1  0  0  0  0
  2 12  1  0  0  0  0
  3  2  2  0  0  0  0
  4 14  1  0  0  0  0
  5  4  2  0  0  0  0
  6  1  2  0  0  0  0
  8 22  1  6  0  0  0
  8  3  1  0  0  0  0
  9 11  1  0  0  0  0
  9 13  1  0  0  0  0
  9  7  1  0  0  0  0
 10 14  1  6  0  0  0
 10  2  1  0  0  0  0
 10  9  1  0  0  0  0
 12 15  1  6  0  0  0
 12  7  1  0  0  0  0
 15 19  1  0  0  0  0
 16 20  2  0  0  0  0
 17 20  1  0  0  0  0
 19 16  1  0  0  0  0
 20 18  1  0  0  0  0
 21 19  1  0  0  0  0
 21 17  2  0  0  0  0
 22 23  1  0  0  0  0
 24 23  1  0  0  0  0
 24 25  1  0  0  0  0
 26 25  1  0  0  0  0
 26 27  1  0  0  0  0
 28 27  1  0  0  0  0
 29 28  1  0  0  0  0
 30 29  1  0  0  0  0
 31 33  1  0  0  0  0
 31 32  1  0  0  0  0
 32 37  1  0  0  0  0
 33 34  1  0  0  0  0
 34 36  1  0  0  0  0
 35 33  1  0  0  0  0
 36 37  1  0  0  0  0
 37 30  1  0  0  0  0
 38  6  1  0  0  0  0
 39 41  1  0  0  0  0
 40 41  1  0  0  0  0
 41 38  1  0  0  0  0
M  END
>  <MODEL>
8

>  <REMARK>
 VINA RESULT:      -4.1      2.429      6.307
  Name = 
  14 active torsions:
  status: ('A' for Active; 'I' for Inactive)
    1  A    between atoms: N_3  and  C_17
    2  A    between atoms: N_3  and  C_32
    3  A    between atoms: C_4  and  N_30
    4  A    between atoms: C_4  and  C_35
    5  A    between atoms: C_15  and  C_26
    6  A    between atoms: C_17  and  N_37
    7  A    between atoms: C_19  and  O_20
    8  A    between atoms: O_20  and  C_21
    9  A    between atoms: C_21  and  C_22
   10  A    between atoms: C_22  and  C_28
   11  A    between atoms: N_25  and  C_32
   12  A    between atoms: N_25  and  C_39
   13  A    between atoms: C_26  and  N_40
   14  A    between atoms: C_28  and  C_39
                            x       y       z     vdW  Elec       q    Type
                         _______ _______ _______ _____ _____    ______ ____

>  <TORSDO>
F 14

$$$$
=
 OpenBabel11052412133D

 41 44  0  0  1  0  0  0  0  0999 V2000
  160.0000  211.6470  153.7020 C   0  0  0  0  0  0  0  0  0  0  0  0
  160.9790  208.7790  153.3410 C   0  0  0  0  0  0  0  0  0  0  0  0
  161.0890  209.7390  152.4040 C   0  0  0  0  0  3  0  0  0  0  0  0
  160.4700  211.4230  155.0680 C   0  0  0  0  0  0  0  0  0  0  0  0
  160.4330  212.3490  155.9190 O   0  0  0  0  0  0  0  0  0  0  0  0
  158.7710  212.1440  153.5120 C   0  0  0  0  0  3  0  0  0  0  0  0
  161.0600  206.6060  154.3450 C   0  0  0  0  0  2  0  0  0  0  0  0
  160.9530  211.2260  152.6110 C   0  0  1  0  0  3  0  0  0  0  0  0
  160.9470  207.6480  155.4520 C   0  0  0  0  0  0  0  0  0  0  0  0
  160.5170  208.9370  154.7560 C   0  0  1  0  0  3  0  0  0  0  0  0
  159.8910  207.2190  156.4510 C   0  0  0  0  0  1  0  0  0  0  0  0
  161.2790  207.3510  153.0300 C   0  0  1  0  0  3  0  0  0  0  0  0
  162.2940  207.7690  156.1530 C   0  0  0  0  0  1  0  0  0  0  0  0
  160.9900  210.1460  155.4290 N   0  0  0  0  0  2  0  0  0  0  0  0
  160.3300  206.8130  151.9660 C   0  0  0  0  0  2  0  0  0  0  0  0
  160.7120  205.5790  149.8100 N   0  0  0  0  0  0  0  0  0  0  0  0
  162.3080  206.8800  148.8480 N   0  0  0  0  0  0  0  0  0  0  0  0
  161.3620  204.8690  147.5720 C   0  0  0  0  0  1  0  0  0  0  0  0
  161.0480  206.5750  150.7240 N   0  0  0  0  0  0  0  0  0  0  0  0
  161.4400  205.7530  148.7640 C   0  0  0  0  0  0  0  0  0  0  0  0
  162.0480  207.4610  150.1590 C   0  0  0  0  0  3  0  0  0  0  0  0
  160.7490  211.8870  151.3970 O   0  0  0  0  0  0  0  0  0  0  0  0
  161.8800  211.5950  150.6330 C   0  0  0  0  0  2  0  0  0  0  0  0
  161.4500  211.1250  149.2590 C   0  0  0  0  0  2  0  0  0  0  0  0
  162.2130  211.8960  148.2030 C   0  0  0  0  0  2  0  0  0  0  0  0
  162.0560  213.3840  148.4440 C   0  0  0  0  0  2  0  0  0  0  0  0
  161.5680  214.0170  147.2310 N   0  0  0  0  0  2  0  0  0  0  0  0
  161.4650  212.9860  146.2100 C   0  0  0  0  0  2  0  0  0  0  0  0
  162.5150  213.1630  145.2220 N   0  0  0  0  0  2  0  0  0  0  0  0
  161.8610  213.5280  143.9790 C   0  0  0  0  0  2  0  0  0  0  0  0
  159.9410  212.1040  141.7450 C   0  0  0  0  0  2  0  0  0  0  0  0
  160.3600  211.8530  143.1990 C   0  0  0  0  0  2  0  0  0  0  0  0
  160.4630  213.3880  141.3000 N   0  0  0  0  0  0  0  0  0  0  0  0
  159.7510  214.4520  142.0110 C   0  0  0  0  0  2  0  0  0  0  0  0
  160.1210  213.5170  139.8960 C   0  0  0  0  0  1  0  0  0  0  0  0
  159.5990  214.1630  143.5190 C   0  0  0  0  0  2  0  0  0  0  0  0
  160.4750  213.0820  144.0010 N   0  0  0  0  0  0  0  0  0  0  0  0
  158.1420  212.3790  152.1780 C   0  0  0  0  0  2  0  0  0  0  0  0
  157.2170  214.0630  153.5170 C   0  0  0  0  0  1  0  0  0  0  0  0
  157.0600  214.1940  151.1970 C   0  0  0  0  0  1  0  0  0  0  0  0
  157.0040  213.2710  152.3170 N   0  0  0  0  0  0  0  0  0  0  0  0
  1  4  1  0  0  0  0
  3  8  1  0  0  0  0
  3  2  2  0  0  0  0
  4 14  1  0  0  0  0
  4  5  2  0  0  0  0
  6  1  2  0  0  0  0
  7  9  1  0  0  0  0
  8 22  1  6  0  0  0
  8  1  1  0  0  0  0
  9 13  1  0  0  0  0
  9 11  1  0  0  0  0
 10  2  1  6  0  0  0
 10 14  1  0  0  0  0
 10  9  1  0  0  0  0
 12 15  1  6  0  0  0
 12  2  1  0  0  0  0
 12  7  1  0  0  0  0
 16 19  1  0  0  0  0
 17 21  2  0  0  0  0
 18 20  1  0  0  0  0
 19 15  1  0  0  0  0
 20 17  1  0  0  0  0
 20 16  2  0  0  0  0
 21 19  1  0  0  0  0
 23 22  1  0  0  0  0
 24 23  1  0  0  0  0
 25 26  1  0  0  0  0
 25 24  1  0  0  0  0
 27 26  1  0  0  0  0
 28 27  1  0  0  0  0
 29 28  1  0  0  0  0
 30 37  1  0  0  0  0
 30 29  1  0  0  0  0
 31 32  1  0  0  0  0
 32 37  1  0  0  0  0
 33 31  1  0  0  0  0
 33 34  1  0  0  0  0
 34 36  1  0  0  0  0
 35 33  1  0  0  0  0
 36 37  1  0  0  0  0
 38 41  1  0  0  0  0
 38  6  1  0  0  0  0
 40 41  1  0  0  0  0
 41 39  1  0  0  0  0
M  END
>  <MODEL>
9

>  <REMARK>
 VINA RESULT:      -4.1      2.279      3.594
  Name = 
  14 active torsions:
  status: ('A' for Active; 'I' for Inactive)
    1  A    between atoms: N_3  and  C_17
    2  A    between atoms: N_3  and  C_32
    3  A    between atoms: C_4  and  N_30
    4  A    between atoms: C_4  and  C_35
    5  A    between atoms: C_15  and  C_26
    6  A    between atoms: C_17  and  N_37
    7  A    between atoms: C_19  and  O_20
    8  A    between atoms: O_20  and  C_21
    9  A    between atoms: C_21  and  C_22
   10  A    between atoms: C_22  and  C_28
   11  A    between atoms: N_25  and  C_32
   12  A    between atoms: N_25  and  C_39
   13  A    between atoms: C_26  and  N_40
   14  A    between atoms: C_28  and  C_39
                            x       y       z     vdW  Elec       q    Type
                         _______ _______ _______ _____ _____    ______ ____

>  <TORSDO>
F 14

$$$$
