=
 OpenBabel11042422333D

 60 65  0  0  1  0  0  0  0  0999 V2000
  160.9640  204.8170  151.4360 C   0  0  0  0  0  0  0  0  0  0  0  0
  160.4070  204.8210  152.8220 C   0  0  1  0  0  3  0  0  0  0  0  0
  160.9940  203.6550  153.6030 C   0  0  0  0  0  1  0  0  0  0  0  0
  162.0140  210.2450  149.7580 C   0  0  0  0  0  0  0  0  0  0  0  0
  160.3600  206.2250  154.9790 C   0  0  0  0  0  3  0  0  0  0  0  0
  161.1480  209.4910  154.0410 N   0  0  0  0  0  0  0  0  0  0  0  0
  161.5920  209.5700  152.6980 N   0  0  2  0  0  0  0  0  0  0  0  0
  162.0610  211.1230  150.9840 C   0  0  0  0  0  2  0  0  0  0  0  0
  161.5490  206.7560  150.3150 O   0  0  0  0  0  0  0  0  0  0  0  0
  160.4350  204.0250  150.5560 N   0  0  0  0  0  0  0  0  0  0  0  0
  161.0480  210.7320  152.0370 C   0  0  0  0  0  2  0  0  0  0  0  0
  160.5360  206.1160  153.5900 C   0  0  0  0  0  0  0  0  0  0  0  0
  162.0940  205.7170  151.0610 C   0  0  0  0  0  2  0  0  0  0  0  0
  161.9900  207.9540  150.8850 C   0  0  2  0  0  3  0  0  0  0  0  0
  160.5350  207.4820  155.3520 O   0  0  0  0  0  0  0  0  0  0  0  0
  160.7970  207.4160  153.1620 C   0  0  0  0  0  0  0  0  0  0  0  0
  161.0410  208.3730  152.0230 C   0  0  1  0  0  3  0  0  0  0  0  0
  160.7860  208.1500  154.2610 C   0  0  0  0  0  0  0  0  0  0  0  0
  161.9840  208.9390  149.7930 N   0  0  0  0  0  0  0  0  0  0  0  0
  160.6410  211.2890  155.6580 C   0  0  0  0  0  3  0  0  0  0  0  0
  162.3730  212.1820  157.0940 C   0  0  0  0  0  3  0  0  0  0  0  0
  163.2990  211.3090  156.5180 C   0  0  0  0  0  3  0  0  0  0  0  0
  161.0440  212.1720  156.6640 C   0  0  0  0  0  3  0  0  0  0  0  0
  161.5620  210.4040  155.0750 C   0  0  0  0  0  0  0  0  0  0  0  0
  162.8950  210.4240  155.5140 C   0  0  0  0  0  3  0  0  0  0  0  0
  162.0280  210.8430  148.4950 O   0  0  0  0  0  0  0  0  0  0  0  0
  162.4970  212.1640  148.2460 C   0  0  1  0  0  3  0  0  0  0  0  0
  163.8830  212.1590  148.0730 O   0  0  0  0  0  1  0  0  0  0  0  0
  161.8190  212.7200  146.9990 C   0  0  0  0  0  2  0  0  0  0  0  0
  160.3170  212.4540  147.0290 C   0  0  0  0  0  2  0  0  0  0  0  0
  159.6430  213.2490  146.0060 N   0  0  0  0  0  0  0  0  0  0  0  0
  159.3750  212.5890  143.6960 C   0  0  0  0  0  3  0  0  0  0  0  0
  160.0670  213.2310  144.6350 C   0  0  0  0  0  3  0  0  0  0  0  0
  159.8270  212.5570  142.2750 C   0  0  1  0  0  3  0  0  0  0  0  0
  158.7810  213.1720  141.3910 C   0  0  0  0  0  0  0  0  0  0  0  0
  158.4330  214.4440  141.5810 C   0  0  0  0  0  2  0  0  0  0  0  0
  158.3020  212.4650  140.1660 C   0  0  0  0  0  1  0  0  0  0  0  0
  161.0940  213.2620  142.1290 N   0  0  0  0  0  2  0  0  0  0  0  0
  162.7820  211.1480  139.7740 O   0  0  0  0  0  0  0  0  0  0  0  0
  162.2760  211.5430  140.8570 C   0  0  0  0  0  3  0  0  0  0  0  0
  161.6640  212.8250  140.9270 N   0  0  0  0  0  2  0  0  0  0  0  0
  158.7110  214.2740  146.4410 C   0  0  0  0  0  2  0  0  0  0  0  0
  157.7970  213.7410  147.5340 C   0  0  0  0  0  2  0  0  0  0  0  0
  156.4780  214.1100  147.2760 O   0  0  0  0  0  1  0  0  0  0  0  0
  160.8670  203.9920  149.2460 O   0  0  0  0  0  0  0  0  0  0  0  0
  160.8980  202.7960  148.5290 C   0  0  0  0  0  0  0  0  0  0  0  0
  161.6270  201.7860  148.9800 C   0  0  0  0  0  2  0  0  0  0  0  0
  160.1270  202.6330  147.2590 C   0  0  0  0  0  2  0  0  0  0  0  0
  161.0410  202.1830  146.1230 C   0  0  2  0  0  3  0  0  0  0  0  0
  162.8660  203.9570  145.9680 C   0  0  0  0  0  2  0  0  0  0  0  0
  159.4570  204.0210  144.4280 O   0  0  0  0  0  1  0  0  0  0  0  0
  160.5360  204.4900  145.1810 C   0  0  1  0  0  3  0  0  0  0  0  0
  161.5890  203.3880  145.3490 C   0  0  2  0  0  3  0  0  0  0  0  0
  161.4460  205.4970  143.1620 O   0  0  0  0  0  1  0  0  0  0  0  0
  161.1550  205.7270  144.5130 C   0  0  2  0  0  3  0  0  0  0  0  0
  163.2980  205.1840  145.1690 C   0  0  0  0  0  2  0  0  0  0  0  0
  162.2990  206.1810  145.2140 O   0  0  0  0  0  0  0  0  0  0  0  0
  159.2810  201.5030  144.4840 O   0  0  0  0  0  0  0  0  0  0  0  0
  160.8100  199.9650  145.2240 O   0  0  0  0  0  1  0  0  0  0  0  0
  160.3890  201.1520  145.2460 C   0  0  0  0  0  0  0  0  0  0  0  0
  1  2  1  0  0  0  0
  2 12  1  0  0  0  0
  2  3  1  1  0  0  0
  4 19  2  0  0  0  0
  4  8  1  0  0  0  0
  5 15  1  0  0  0  0
  6 18  1  0  0  0  0
  6 24  1  0  0  0  0
  7 11  1  6  0  0  0
  7  6  1  0  0  0  0
  8 11  1  0  0  0  0
  9 14  1  0  0  0  0
  9 13  1  0  0  0  0
 10  1  2  0  0  0  0
 12  5  2  0  0  0  0
 13  1  1  0  0  0  0
 14 19  1  6  0  0  0
 14 17  1  0  0  0  0
 16 12  1  0  0  0  0
 16 18  2  0  0  0  0
 17  7  1  0  0  0  0
 17 16  1  1  0  0  0
 18 15  1  0  0  0  0
 20 23  1  0  0  0  0
 22 21  1  0  0  0  0
 23 21  2  0  0  0  0
 24 25  1  0  0  0  0
 24 20  2  0  0  0  0
 25 22  2  0  0  0  0
 26  4  1  0  0  0  0
 27 28  1  6  0  0  0
 27 26  1  0  0  0  0
 29 30  1  0  0  0  0
 29 27  1  0  0  0  0
 31 42  1  0  0  0  0
 31 30  1  0  0  0  0
 32 33  2  0  0  0  0
 33 31  1  0  0  0  0
 34 32  1  1  0  0  0
 35 36  2  0  0  0  0
 35 34  1  0  0  0  0
 37 35  1  0  0  0  0
 38 34  1  0  0  0  0
 39 40  2  0  0  0  0
 40 41  1  0  0  0  0
 41 38  1  0  0  0  0
 42 43  1  0  0  0  0
 44 43  1  0  0  0  0
 45 10  1  0  0  0  0
 46 47  2  0  0  0  0
 46 45  1  0  0  0  0
 48 46  1  0  0  0  0
 49 48  1  1  0  0  0
 52 51  1  6  0  0  0
 52 53  1  0  0  0  0
 53 50  1  0  0  0  0
 53 49  1  1  0  0  0
 55 54  1  6  0  0  0
 55 52  1  0  0  0  0
 55 57  1  0  0  0  0
 56 57  1  0  0  0  0
 56 50  1  0  0  0  0
 58 60  2  0  0  0  0
 59 60  1  0  0  0  0
 60 49  1  0  0  0  0
M  END
>  <MODEL>
1

>  <REMARK>
 VINA RESULT:      -4.0      0.000      0.000
  Name = 
  19 active torsions:
  status: ('A' for Active; 'I' for Inactive)
    1  A    between atoms: C_1  and  C_12
    2  A    between atoms: N_5  and  C_12
    3  A    between atoms: N_5  and  N_58
    4  A    between atoms: C_8  and  C_32
    5  A    between atoms: C_8  and  C_50
    6  A    between atoms: C_9  and  C_12
    7  A    between atoms: C_10  and  O_57
    8  A    between atoms: N_15  and  C_51
    9  A    between atoms: C_16  and  C_42
   10  A    between atoms: O_18  and  N_27
   11  A    between atoms: O_18  and  C_32
   12  A    between atoms: C_19  and  C_49
   13  A    between atoms: C_19  and  O_57
   14  A    between atoms: N_24  and  C_37
   15  A    between atoms: N_24  and  C_38
   16  A    between atoms: N_24  and  C_42
   17  A    between atoms: C_28  and  C_50
   18  A    between atoms: C_36  and  C_50
   19  A    between atoms: C_37  and  C_49
                            x       y       z     vdW  Elec       q    Type
                         _______ _______ _______ _____ _____    ______ ____

>  <TORSDO>
F 19

$$$$
=
 OpenBabel11042422333D

 60 65  0  0  1  0  0  0  0  0999 V2000
  161.5240  207.6000  153.0980 C   0  0  0  0  0  0  0  0  0  0  0  0
  160.5160  207.2730  154.1520 C   0  0  1  0  0  3  0  0  0  0  0  0
  161.2110  206.5780  155.3120 C   0  0  0  0  0  1  0  0  0  0  0  0
  160.3630  212.7970  150.8570 C   0  0  0  0  0  0  0  0  0  0  0  0
  158.8900  208.3860  155.8090 C   0  0  0  0  0  3  0  0  0  0  0  0
  158.2820  211.5940  154.5820 N   0  0  0  0  0  0  0  0  0  0  0  0
  159.1440  211.9290  153.5100 N   0  0  2  0  0  0  0  0  0  0  0  0
  159.4570  213.5360  151.8090 C   0  0  0  0  0  2  0  0  0  0  0  0
  161.4870  209.5800  151.9000 O   0  0  0  0  0  0  0  0  0  0  0  0
  161.8760  206.6690  152.2660 N   0  0  0  0  0  0  0  0  0  0  0  0
  158.4340  212.6410  152.4730 C   0  0  0  0  0  2  0  0  0  0  0  0
  159.6580  208.4210  154.6340 C   0  0  0  0  0  0  0  0  0  0  0  0
  162.1020  208.9700  152.9880 C   0  0  0  0  0  2  0  0  0  0  0  0
  160.9990  210.8150  152.3370 C   0  0  2  0  0  3  0  0  0  0  0  0
  158.2520  209.5340  155.9560 O   0  0  0  0  0  0  0  0  0  0  0  0
  159.3990  209.6710  154.0770 C   0  0  0  0  0  0  0  0  0  0  0  0
  159.5920  210.6390  152.9370 C   0  0  1  0  0  3  0  0  0  0  0  0
  158.5710  210.2610  154.9220 C   0  0  0  0  0  0  0  0  0  0  0  0
  160.9670  211.6740  151.1420 N   0  0  0  0  0  0  0  0  0  0  0  0
  156.3320  212.7790  155.5300 C   0  0  0  0  0  3  0  0  0  0  0  0
  156.6220  214.4500  157.2570 C   0  0  0  0  0  3  0  0  0  0  0  0
  158.0030  214.2440  157.2210 C   0  0  0  0  0  3  0  0  0  0  0  0
  155.7860  213.7160  156.4120 C   0  0  0  0  0  3  0  0  0  0  0  0
  157.7180  212.5610  155.4880 C   0  0  0  0  0  0  0  0  0  0  0  0
  158.5480  213.3060  156.3400 C   0  0  0  0  0  3  0  0  0  0  0  0
  160.6090  213.3420  149.5930 O   0  0  0  0  0  0  0  0  0  0  0  0
  161.4780  212.7570  148.6300 C   0  0  1  0  0  3  0  0  0  0  0  0
  161.9450  211.5230  149.0880 O   0  0  0  0  0  1  0  0  0  0  0  0
  160.7340  212.5750  147.3120 C   0  0  0  0  0  2  0  0  0  0  0  0
  160.2730  213.9190  146.7560 C   0  0  0  0  0  2  0  0  0  0  0  0
  159.4480  213.7170  145.5680 N   0  0  0  0  0  0  0  0  0  0  0  0
  160.3320  213.3480  143.3480 C   0  0  0  0  0  3  0  0  0  0  0  0
  159.8600  214.1810  144.2740 C   0  0  0  0  0  3  0  0  0  0  0  0
  160.7770  213.8360  142.0100 C   0  0  1  0  0  3  0  0  0  0  0  0
  162.2710  213.9780  141.9870 C   0  0  0  0  0  0  0  0  0  0  0  0
  162.8640  214.4530  140.8930 C   0  0  0  0  0  2  0  0  0  0  0  0
  163.0740  213.8220  143.2370 C   0  0  0  0  0  1  0  0  0  0  0  0
  160.3370  212.9200  140.9650 N   0  0  0  0  0  2  0  0  0  0  0  0
  156.9920  212.9890  139.6730 O   0  0  0  0  0  0  0  0  0  0  0  0
  158.0790  212.5330  140.1150 C   0  0  0  0  0  3  0  0  0  0  0  0
  159.1300  213.4260  140.4650 N   0  0  0  0  0  2  0  0  0  0  0  0
  158.0740  213.2840  145.7550 C   0  0  0  0  0  2  0  0  0  0  0  0
  157.1070  214.2980  145.1630 C   0  0  0  0  0  2  0  0  0  0  0  0
  155.9910  214.4300  145.9880 O   0  0  0  0  0  1  0  0  0  0  0  0
  162.7690  206.9020  151.2410 O   0  0  0  0  0  0  0  0  0  0  0  0
  162.3670  206.8420  149.9080 C   0  0  0  0  0  0  0  0  0  0  0  0
  161.7390  207.8780  149.3700 C   0  0  0  0  0  2  0  0  0  0  0  0
  162.6270  205.6300  149.0720 C   0  0  0  0  0  2  0  0  0  0  0  0
  161.3440  205.1470  148.4040 C   0  0  2  0  0  3  0  0  0  0  0  0
  160.7650  202.9940  147.1650 C   0  0  0  0  0  2  0  0  0  0  0  0
  160.8560  203.5700  150.8610 O   0  0  0  0  0  1  0  0  0  0  0  0
  160.3170  203.1730  149.6350 C   0  0  1  0  0  3  0  0  0  0  0  0
  161.2250  203.6190  148.4830 C   0  0  2  0  0  3  0  0  0  0  0  0
  161.2910  200.9700  149.9730 O   0  0  0  0  0  1  0  0  0  0  0  0
  160.1230  201.6500  149.6060 C   0  0  2  0  0  3  0  0  0  0  0  0
  160.6180  201.4870  147.3600 C   0  0  0  0  0  2  0  0  0  0  0  0
  159.6470  201.2080  148.3470 O   0  0  0  0  0  0  0  0  0  0  0  0
  159.9510  206.1470  146.5860 O   0  0  0  0  0  1  0  0  0  0  0  0
  162.1640  205.6910  146.2110 O   0  0  0  0  0  0  0  0  0  0  0  0
  161.1910  205.6880  147.0100 C   0  0  0  0  0  0  0  0  0  0  0  0
  1  2  1  0  0  0  0
  2 12  1  0  0  0  0
  2  3  1  1  0  0  0
  4 19  2  0  0  0  0
  4  8  1  0  0  0  0
  5 15  1  0  0  0  0
  6 18  1  0  0  0  0
  6 24  1  0  0  0  0
  7 11  1  6  0  0  0
  7  6  1  0  0  0  0
  8 11  1  0  0  0  0
  9 14  1  0  0  0  0
  9 13  1  0  0  0  0
 10  1  2  0  0  0  0
 12  5  2  0  0  0  0
 13  1  1  0  0  0  0
 14 19  1  6  0  0  0
 14 17  1  0  0  0  0
 16 12  1  0  0  0  0
 16 18  2  0  0  0  0
 17  7  1  0  0  0  0
 17 16  1  1  0  0  0
 18 15  1  0  0  0  0
 20 23  1  0  0  0  0
 22 21  1  0  0  0  0
 23 21  2  0  0  0  0
 24 20  2  0  0  0  0
 24 25  1  0  0  0  0
 25 22  2  0  0  0  0
 26  4  1  0  0  0  0
 27 28  1  1  0  0  0
 27 26  1  0  0  0  0
 29 27  1  0  0  0  0
 30 29  1  0  0  0  0
 31 42  1  0  0  0  0
 31 30  1  0  0  0  0
 32 33  2  0  0  0  0
 33 31  1  0  0  0  0
 34 32  1  1  0  0  0
 35 34  1  0  0  0  0
 35 37  1  0  0  0  0
 36 35  2  0  0  0  0
 38 34  1  0  0  0  0
 39 40  2  0  0  0  0
 40 41  1  0  0  0  0
 41 38  1  0  0  0  0
 43 42  1  0  0  0  0
 43 44  1  0  0  0  0
 45 10  1  0  0  0  0
 46 45  1  0  0  0  0
 47 46  2  0  0  0  0
 48 46  1  0  0  0  0
 49 48  1  6  0  0  0
 50 56  1  0  0  0  0
 50 53  1  0  0  0  0
 52 51  1  1  0  0  0
 53 49  1  6  0  0  0
 53 52  1  0  0  0  0
 55 52  1  0  0  0  0
 55 54  1  6  0  0  0
 56 57  1  0  0  0  0
 57 55  1  0  0  0  0
 58 60  1  0  0  0  0
 59 60  2  0  0  0  0
 60 49  1  0  0  0  0
M  END
>  <MODEL>
2

>  <REMARK>
 VINA RESULT:      -3.6      2.520      4.067
  Name = 
  19 active torsions:
  status: ('A' for Active; 'I' for Inactive)
    1  A    between atoms: C_1  and  C_12
    2  A    between atoms: N_5  and  C_12
    3  A    between atoms: N_5  and  N_58
    4  A    between atoms: C_8  and  C_32
    5  A    between atoms: C_8  and  C_50
    6  A    between atoms: C_9  and  C_12
    7  A    between atoms: C_10  and  O_57
    8  A    between atoms: N_15  and  C_51
    9  A    between atoms: C_16  and  C_42
   10  A    between atoms: O_18  and  N_27
   11  A    between atoms: O_18  and  C_32
   12  A    between atoms: C_19  and  C_49
   13  A    between atoms: C_19  and  O_57
   14  A    between atoms: N_24  and  C_37
   15  A    between atoms: N_24  and  C_38
   16  A    between atoms: N_24  and  C_42
   17  A    between atoms: C_28  and  C_50
   18  A    between atoms: C_36  and  C_50
   19  A    between atoms: C_37  and  C_49
                            x       y       z     vdW  Elec       q    Type
                         _______ _______ _______ _____ _____    ______ ____

>  <TORSDO>
F 19

$$$$
=
 OpenBabel11042422333D

 60 65  0  0  1  0  0  0  0  0999 V2000
  161.0480  206.0860  150.3340 C   0  0  0  0  0  0  0  0  0  0  0  0
  161.4030  204.7490  150.8990 C   0  0  1  0  0  3  0  0  0  0  0  0
  160.5090  204.4550  152.0930 C   0  0  0  0  0  1  0  0  0  0  0  0
  161.2680  205.8660  144.5650 C   0  0  0  0  0  0  0  0  0  0  0  0
  161.4180  202.2430  150.3090 C   0  0  0  0  0  3  0  0  0  0  0  0
  161.3880  202.0550  146.8260 N   0  0  0  0  0  0  0  0  0  0  0  0
  161.1530  203.3150  146.2240 N   0  0  2  0  0  0  0  0  0  0  0  0
  161.2180  204.4200  144.1400 C   0  0  0  0  0  2  0  0  0  0  0  0
  160.9940  206.5100  148.0600 O   0  0  0  0  0  0  0  0  0  0  0  0
  161.5350  207.1470  150.8980 N   0  0  0  0  0  0  0  0  0  0  0  0
  161.9890  203.5020  145.0630 C   0  0  0  0  0  2  0  0  0  0  0  0
  161.4150  203.5930  149.9250 C   0  0  0  0  0  0  0  0  0  0  0  0
  160.1680  206.2020  149.1350 C   0  0  0  0  0  2  0  0  0  0  0  0
  160.7100  205.5940  147.0420 C   0  0  2  0  0  3  0  0  0  0  0  0
  161.4310  201.4750  149.2330 O   0  0  0  0  0  0  0  0  0  0  0  0
  161.4620  203.5660  148.5330 C   0  0  0  0  0  0  0  0  0  0  0  0
  161.5570  204.3220  147.2310 C   0  0  1  0  0  3  0  0  0  0  0  0
  161.4600  202.2840  148.2120 C   0  0  0  0  0  0  0  0  0  0  0  0
  161.0480  206.2800  145.7850 N   0  0  0  0  0  0  0  0  0  0  0  0
  161.6600  199.6100  146.6000 C   0  0  0  0  0  3  0  0  0  0  0  0
  160.2840  198.3520  145.0550 C   0  0  0  0  0  3  0  0  0  0  0  0
  159.6390  199.5310  144.6730 C   0  0  0  0  0  3  0  0  0  0  0  0
  161.2940  198.3920  146.0190 C   0  0  0  0  0  3  0  0  0  0  0  0
  161.0150  200.8000  146.2270 C   0  0  0  0  0  0  0  0  0  0  0  0
  160.0030  200.7480  145.2560 C   0  0  0  0  0  3  0  0  0  0  0  0
  161.5370  206.8470  143.6050 O   0  0  0  0  0  0  0  0  0  0  0  0
  162.0020  206.5650  142.2890 C   0  0  1  0  0  3  0  0  0  0  0  0
  161.3880  205.4100  141.7980 O   0  0  0  0  0  1  0  0  0  0  0  0
  161.6950  207.7450  141.3750 C   0  0  0  0  0  2  0  0  0  0  0  0
  161.7840  207.3370  139.9080 C   0  0  0  0  0  2  0  0  0  0  0  0
  162.0880  208.4980  139.0780 N   0  0  0  0  0  0  0  0  0  0  0  0
  162.2040  210.9130  139.0400 C   0  0  0  0  0  3  0  0  0  0  0  0
  162.4630  209.7600  139.6520 C   0  0  0  0  0  3  0  0  0  0  0  0
  162.6100  212.2210  139.6310 C   0  0  1  0  0  3  0  0  0  0  0  0
  163.2960  213.0620  138.5940 C   0  0  0  0  0  0  0  0  0  0  0  0
  162.5720  213.6250  137.6280 C   0  0  0  0  0  2  0  0  0  0  0  0
  164.7240  213.4670  138.7590 C   0  0  0  0  0  1  0  0  0  0  0  0
  161.4480  212.9200  140.1640 N   0  0  0  0  0  2  0  0  0  0  0  0
  162.2440  212.6730  143.6520 O   0  0  0  0  0  0  0  0  0  0  0  0
  162.3410  212.9870  142.4370 C   0  0  0  0  0  3  0  0  0  0  0  0
  161.3440  212.5640  141.5150 N   0  0  0  0  0  2  0  0  0  0  0  0
  161.7400  208.4430  137.6690 C   0  0  0  0  0  2  0  0  0  0  0  0
  160.2420  208.6250  137.4790 C   0  0  0  0  0  2  0  0  0  0  0  0
  159.6300  208.8610  138.7100 O   0  0  0  0  0  1  0  0  0  0  0  0
  161.2860  208.4140  150.4120 O   0  0  0  0  0  0  0  0  0  0  0  0
  161.6400  209.5470  151.1440 C   0  0  0  0  0  0  0  0  0  0  0  0
  161.8130  210.7000  150.5140 C   0  0  0  0  0  2  0  0  0  0  0  0
  161.8310  209.4880  152.6250 C   0  0  0  0  0  2  0  0  0  0  0  0
  160.5380  209.0780  153.3230 C   0  0  2  0  0  3  0  0  0  0  0  0
  158.8790  210.9670  152.8950 C   0  0  0  0  0  2  0  0  0  0  0  0
  161.5050  210.7670  155.5520 O   0  0  0  0  0  1  0  0  0  0  0  0
  160.7960  211.3250  154.4850 C   0  0  1  0  0  3  0  0  0  0  0  0
  159.8150  210.3000  153.9030 C   0  0  2  0  0  3  0  0  0  0  0  0
  159.2780  212.3450  156.0890 O   0  0  0  0  0  1  0  0  0  0  0  0
  160.0480  212.5850  154.9430 C   0  0  2  0  0  3  0  0  0  0  0  0
  158.2580  212.2020  153.5410 C   0  0  0  0  0  2  0  0  0  0  0  0
  159.2600  213.1310  153.9010 O   0  0  0  0  0  0  0  0  0  0  0  0
  161.7120  207.0020  154.0700 O   0  0  0  0  0  0  0  0  0  0  0  0
  160.0590  207.9120  155.3700 O   0  0  0  0  0  1  0  0  0  0  0  0
  160.7580  207.9800  154.3240 C   0  0  0  0  0  0  0  0  0  0  0  0
  1 10  2  0  0  0  0
  1  2  1  0  0  0  0
  2  3  1  1  0  0  0
  4 19  2  0  0  0  0
  6 18  1  0  0  0  0
  7 11  1  6  0  0  0
  7  6  1  0  0  0  0
  7 17  1  0  0  0  0
  8  4  1  0  0  0  0
  8 11  1  0  0  0  0
  9 13  1  0  0  0  0
 12  5  2  0  0  0  0
 12  2  1  0  0  0  0
 13  1  1  0  0  0  0
 14 19  1  6  0  0  0
 14 17  1  0  0  0  0
 14  9  1  0  0  0  0
 15  5  1  0  0  0  0
 16 12  1  0  0  0  0
 17 16  1  1  0  0  0
 18 16  2  0  0  0  0
 18 15  1  0  0  0  0
 21 23  1  0  0  0  0
 22 21  2  0  0  0  0
 22 25  1  0  0  0  0
 23 20  2  0  0  0  0
 24 20  1  0  0  0  0
 24  6  1  0  0  0  0
 25 24  2  0  0  0  0
 26  4  1  0  0  0  0
 27 28  1  6  0  0  0
 27 26  1  0  0  0  0
 29 27  1  0  0  0  0
 30 29  1  0  0  0  0
 31 33  1  0  0  0  0
 31 30  1  0  0  0  0
 32 33  2  0  0  0  0
 34 32  1  6  0  0  0
 34 38  1  0  0  0  0
 35 37  1  0  0  0  0
 35 34  1  0  0  0  0
 36 35  2  0  0  0  0
 38 41  1  0  0  0  0
 40 39  2  0  0  0  0
 41 40  1  0  0  0  0
 42 31  1  0  0  0  0
 43 42  1  0  0  0  0
 43 44  1  0  0  0  0
 45 10  1  0  0  0  0
 45 46  1  0  0  0  0
 46 48  1  0  0  0  0
 47 46  2  0  0  0  0
 49 48  1  1  0  0  0
 49 60  1  0  0  0  0
 50 56  1  0  0  0  0
 50 53  1  0  0  0  0
 52 55  1  0  0  0  0
 52 51  1  1  0  0  0
 53 49  1  6  0  0  0
 53 52  1  0  0  0  0
 55 54  1  1  0  0  0
 56 57  1  0  0  0  0
 57 55  1  0  0  0  0
 58 60  2  0  0  0  0
 60 59  1  0  0  0  0
M  END
>  <MODEL>
3

>  <REMARK>
 VINA RESULT:      -2.1      2.875      9.379
  Name = 
  19 active torsions:
  status: ('A' for Active; 'I' for Inactive)
    1  A    between atoms: C_1  and  C_12
    2  A    between atoms: N_5  and  C_12
    3  A    between atoms: N_5  and  N_58
    4  A    between atoms: C_8  and  C_32
    5  A    between atoms: C_8  and  C_50
    6  A    between atoms: C_9  and  C_12
    7  A    between atoms: C_10  and  O_57
    8  A    between atoms: N_15  and  C_51
    9  A    between atoms: C_16  and  C_42
   10  A    between atoms: O_18  and  N_27
   11  A    between atoms: O_18  and  C_32
   12  A    between atoms: C_19  and  C_49
   13  A    between atoms: C_19  and  O_57
   14  A    between atoms: N_24  and  C_37
   15  A    between atoms: N_24  and  C_38
   16  A    between atoms: N_24  and  C_42
   17  A    between atoms: C_28  and  C_50
   18  A    between atoms: C_36  and  C_50
   19  A    between atoms: C_37  and  C_49
                            x       y       z     vdW  Elec       q    Type
                         _______ _______ _______ _____ _____    ______ ____

>  <TORSDO>
F 19

$$$$
=
 OpenBabel11042422333D

 60 65  0  0  1  0  0  0  0  0999 V2000
  160.9790  205.9710  150.3690 C   0  0  0  0  0  0  0  0  0  0  0  0
  161.3410  204.6330  150.9270 C   0  0  1  0  0  3  0  0  0  0  0  0
  160.4420  204.3240  152.1140 C   0  0  0  0  0  1  0  0  0  0  0  0
  161.2340  205.7940  144.6000 C   0  0  0  0  0  0  0  0  0  0  0  0
  161.3800  202.1320  150.3200 C   0  0  0  0  0  3  0  0  0  0  0  0
  161.3720  201.9680  146.8350 N   0  0  0  0  0  0  0  0  0  0  0  0
  161.1300  203.2300  146.2410 N   0  0  2  0  0  0  0  0  0  0  0  0
  161.1990  204.3510  144.1650 C   0  0  0  0  0  2  0  0  0  0  0  0
  160.9340  206.4110  148.0980 O   0  0  0  0  0  0  0  0  0  0  0  0
  161.4540  207.0330  150.9440 N   0  0  0  0  0  0  0  0  0  0  0  0
  161.9720  203.4320  145.0860 C   0  0  0  0  0  2  0  0  0  0  0  0
  161.3690  203.4850  149.9450 C   0  0  0  0  0  0  0  0  0  0  0  0
  160.1050  206.0890  149.1660 C   0  0  0  0  0  2  0  0  0  0  0  0
  160.6650  205.5000  147.0720 C   0  0  2  0  0  3  0  0  0  0  0  0
  161.4060  201.3710  149.2390 O   0  0  0  0  0  0  0  0  0  0  0  0
  161.4240  203.4680  148.5530 C   0  0  0  0  0  0  0  0  0  0  0  0
  161.5200  204.2340  147.2570 C   0  0  1  0  0  3  0  0  0  0  0  0
  161.4340  202.1880  148.2230 C   0  0  0  0  0  0  0  0  0  0  0  0
  161.0040  206.1970  145.8220 N   0  0  0  0  0  0  0  0  0  0  0  0
  161.6870  199.5320  146.5700 C   0  0  0  0  0  3  0  0  0  0  0  0
  160.3090  198.2690  145.0320 C   0  0  0  0  0  3  0  0  0  0  0  0
  159.6340  199.4400  144.6780 C   0  0  0  0  0  3  0  0  0  0  0  0
  161.3350  198.3150  145.9790 C   0  0  0  0  0  3  0  0  0  0  0  0
  161.0130  200.7140  146.2250 C   0  0  0  0  0  0  0  0  0  0  0  0
  159.9850  200.6560  145.2720 C   0  0  0  0  0  3  0  0  0  0  0  0
  161.5010  206.7830  143.6490 O   0  0  0  0  0  0  0  0  0  0  0  0
  162.0410  206.5210  142.3580 C   0  0  1  0  0  3  0  0  0  0  0  0
  161.3850  205.4350  141.7730 O   0  0  0  0  0  1  0  0  0  0  0  0
  161.8890  207.7560  141.4790 C   0  0  0  0  0  2  0  0  0  0  0  0
  161.7550  207.3670  140.0100 C   0  0  0  0  0  2  0  0  0  0  0  0
  161.9550  208.5350  139.1580 N   0  0  0  0  0  0  0  0  0  0  0  0
  161.1540  210.5840  140.1610 C   0  0  0  0  0  3  0  0  0  0  0  0
  162.1640  209.8440  139.7090 C   0  0  0  0  0  3  0  0  0  0  0  0
  161.3730  211.9520  140.7160 C   0  0  1  0  0  3  0  0  0  0  0  0
  161.0380  212.9850  139.6800 C   0  0  0  0  0  0  0  0  0  0  0  0
  159.9950  213.7910  139.8760 C   0  0  0  0  0  2  0  0  0  0  0  0
  161.9810  213.2800  138.5610 C   0  0  0  0  0  1  0  0  0  0  0  0
  160.5620  212.1490  141.9120 N   0  0  0  0  0  2  0  0  0  0  0  0
  163.2710  213.0270  144.0910 O   0  0  0  0  0  0  0  0  0  0  0  0
  162.4900  213.0600  143.1050 C   0  0  0  0  0  3  0  0  0  0  0  0
  161.4370  212.1090  143.0050 N   0  0  0  0  0  2  0  0  0  0  0  0
  161.6660  208.4070  137.7410 C   0  0  0  0  0  2  0  0  0  0  0  0
  160.4630  209.2570  137.3590 C   0  0  0  0  0  2  0  0  0  0  0  0
  159.2850  208.6030  137.7180 O   0  0  0  0  0  1  0  0  0  0  0  0
  161.1970  208.3010  150.4650 O   0  0  0  0  0  0  0  0  0  0  0  0
  161.2760  209.4150  151.3010 C   0  0  0  0  0  0  0  0  0  0  0  0
  162.1910  210.3430  151.0630 C   0  0  0  0  0  2  0  0  0  0  0  0
  160.3490  209.5810  152.4620 C   0  0  0  0  0  2  0  0  0  0  0  0
  160.8580  210.6630  153.4100 C   0  0  2  0  0  3  0  0  0  0  0  0
  162.0610  210.8630  155.6500 C   0  0  0  0  0  2  0  0  0  0  0  0
  160.1930  207.9170  154.2950 O   0  0  0  0  0  1  0  0  0  0  0  0
  161.2700  208.6100  154.8540 C   0  0  1  0  0  3  0  0  0  0  0  0
  160.9990  210.1190  154.8380 C   0  0  2  0  0  3  0  0  0  0  0  0
  160.3620  208.1470  157.0620 O   0  0  0  0  0  1  0  0  0  0  0  0
  161.5290  208.1270  156.2880 C   0  0  2  0  0  3  0  0  0  0  0  0
  162.1720  210.2140  157.0270 C   0  0  0  0  0  2  0  0  0  0  0  0
  162.5680  208.8630  156.9080 O   0  0  0  0  0  0  0  0  0  0  0  0
  159.6160  212.3800  152.0860 O   0  0  0  0  0  0  0  0  0  0  0  0
  159.7700  212.5840  154.3630 O   0  0  0  0  0  1  0  0  0  0  0  0
  160.0390  211.9200  153.3270 C   0  0  0  0  0  0  0  0  0  0  0  0
  1  2  1  0  0  0  0
  1 10  2  0  0  0  0
  2  3  1  1  0  0  0
  4 19  2  0  0  0  0
  6 18  1  0  0  0  0
  7 11  1  6  0  0  0
  7  6  1  0  0  0  0
  7 17  1  0  0  0  0
  8  4  1  0  0  0  0
  8 11  1  0  0  0  0
  9 13  1  0  0  0  0
 12  5  2  0  0  0  0
 12  2  1  0  0  0  0
 13  1  1  0  0  0  0
 14 19  1  6  0  0  0
 14 17  1  0  0  0  0
 14  9  1  0  0  0  0
 15  5  1  0  0  0  0
 16 12  1  0  0  0  0
 17 16  1  1  0  0  0
 18 16  2  0  0  0  0
 18 15  1  0  0  0  0
 21 23  1  0  0  0  0
 22 21  2  0  0  0  0
 22 25  1  0  0  0  0
 23 20  2  0  0  0  0
 24 20  1  0  0  0  0
 24  6  1  0  0  0  0
 25 24  2  0  0  0  0
 26  4  1  0  0  0  0
 27 28  1  6  0  0  0
 27 26  1  0  0  0  0
 29 27  1  0  0  0  0
 30 29  1  0  0  0  0
 31 33  1  0  0  0  0
 31 30  1  0  0  0  0
 33 32  2  0  0  0  0
 34 32  1  6  0  0  0
 34 38  1  0  0  0  0
 35 36  2  0  0  0  0
 35 34  1  0  0  0  0
 37 35  1  0  0  0  0
 38 41  1  0  0  0  0
 40 39  2  0  0  0  0
 41 40  1  0  0  0  0
 42 31  1  0  0  0  0
 43 44  1  0  0  0  0
 43 42  1  0  0  0  0
 45 10  1  0  0  0  0
 45 46  1  0  0  0  0
 46 48  1  0  0  0  0
 47 46  2  0  0  0  0
 49 48  1  6  0  0  0
 50 56  1  0  0  0  0
 52 51  1  1  0  0  0
 52 55  1  0  0  0  0
 53 49  1  6  0  0  0
 53 52  1  0  0  0  0
 53 50  1  0  0  0  0
 55 57  1  0  0  0  0
 55 54  1  1  0  0  0
 57 56  1  0  0  0  0
 58 60  2  0  0  0  0
 60 49  1  0  0  0  0
 60 59  1  0  0  0  0
M  END
>  <MODEL>
4

>  <REMARK>
 VINA RESULT:      -2.0      2.696      9.463
  Name = 
  19 active torsions:
  status: ('A' for Active; 'I' for Inactive)
    1  A    between atoms: C_1  and  C_12
    2  A    between atoms: N_5  and  C_12
    3  A    between atoms: N_5  and  N_58
    4  A    between atoms: C_8  and  C_32
    5  A    between atoms: C_8  and  C_50
    6  A    between atoms: C_9  and  C_12
    7  A    between atoms: C_10  and  O_57
    8  A    between atoms: N_15  and  C_51
    9  A    between atoms: C_16  and  C_42
   10  A    between atoms: O_18  and  N_27
   11  A    between atoms: O_18  and  C_32
   12  A    between atoms: C_19  and  C_49
   13  A    between atoms: C_19  and  O_57
   14  A    between atoms: N_24  and  C_37
   15  A    between atoms: N_24  and  C_38
   16  A    between atoms: N_24  and  C_42
   17  A    between atoms: C_28  and  C_50
   18  A    between atoms: C_36  and  C_50
   19  A    between atoms: C_37  and  C_49
                            x       y       z     vdW  Elec       q    Type
                         _______ _______ _______ _____ _____    ______ ____

>  <TORSDO>
F 19

$$$$
=
 OpenBabel11042422333D

 60 65  0  0  1  0  0  0  0  0999 V2000
  161.0460  205.6170  150.6200 C   0  0  0  0  0  0  0  0  0  0  0  0
  160.5350  205.3910  152.0060 C   0  0  1  0  0  3  0  0  0  0  0  0
  161.1990  204.1550  152.5920 C   0  0  0  0  0  1  0  0  0  0  0  0
  161.7930  211.2770  149.7320 C   0  0  0  0  0  0  0  0  0  0  0  0
  160.4950  206.4630  154.3470 C   0  0  0  0  0  3  0  0  0  0  0  0
  161.1030  209.8660  153.8780 N   0  0  0  0  0  0  0  0  0  0  0  0
  161.4990  210.1610  152.5510 N   0  0  2  0  0  0  0  0  0  0  0  0
  161.8410  211.9680  151.0710 C   0  0  0  0  0  2  0  0  0  0  0  0
  161.5040  207.7250  149.7820 O   0  0  0  0  0  0  0  0  0  0  0  0
  160.5240  204.9360  149.6470 N   0  0  0  0  0  0  0  0  0  0  0  0
  160.8810  211.3780  152.0810 C   0  0  0  0  0  2  0  0  0  0  0  0
  160.6300  206.5660  152.9530 C   0  0  0  0  0  0  0  0  0  0  0  0
  162.1200  206.6170  150.3530 C   0  0  0  0  0  2  0  0  0  0  0  0
  161.9090  208.8470  150.5100 C   0  0  2  0  0  3  0  0  0  0  0  0
  160.6250  207.6590  154.8950 O   0  0  0  0  0  0  0  0  0  0  0  0
  160.8170  207.9260  152.7140 C   0  0  0  0  0  0  0  0  0  0  0  0
  160.9810  209.0490  151.7210 C   0  0  1  0  0  3  0  0  0  0  0  0
  160.8100  208.4910  153.9080 C   0  0  0  0  0  0  0  0  0  0  0  0
  161.8230  209.9800  149.5750 N   0  0  0  0  0  0  0  0  0  0  0  0
  160.5680  211.3750  155.7590 C   0  0  0  0  0  3  0  0  0  0  0  0
  162.3050  212.1420  157.2610 C   0  0  0  0  0  3  0  0  0  0  0  0
  163.2510  211.4150  156.5340 C   0  0  0  0  0  3  0  0  0  0  0  0
  160.9630  212.1210  156.8740 C   0  0  0  0  0  3  0  0  0  0  0  0
  161.5090  210.6380  155.0240 C   0  0  0  0  0  0  0  0  0  0  0  0
  162.8550  210.6670  155.4210 C   0  0  0  0  0  3  0  0  0  0  0  0
  161.7380  212.0520  148.5700 O   0  0  0  0  0  0  0  0  0  0  0  0
  160.9140  213.2030  148.4190 C   0  0  1  0  0  3  0  0  0  0  0  0
  161.5080  214.3060  149.0380 O   0  0  0  0  0  1  0  0  0  0  0  0
  160.7020  213.4900  146.9380 C   0  0  0  0  0  2  0  0  0  0  0  0
  159.6100  212.5940  146.3590 C   0  0  0  0  0  2  0  0  0  0  0  0
  158.8100  213.3360  145.3890 N   0  0  0  0  0  0  0  0  0  0  0  0
  160.1680  213.3770  143.3890 C   0  0  0  0  0  3  0  0  0  0  0  0
  158.9910  213.1690  143.9750 C   0  0  0  0  0  3  0  0  0  0  0  0
  160.3480  213.2200  141.9170 C   0  0  1  0  0  3  0  0  0  0  0  0
  161.7640  212.8220  141.6140 C   0  0  0  0  0  0  0  0  0  0  0  0
  162.0050  211.6240  141.0830 C   0  0  0  0  0  2  0  0  0  0  0  0
  162.8700  213.8240  141.6740 C   0  0  0  0  0  1  0  0  0  0  0  0
  159.4180  212.2260  141.3950 N   0  0  0  0  0  2  0  0  0  0  0  0
  158.0540  212.8230  138.1320 O   0  0  0  0  0  0  0  0  0  0  0  0
  158.7030  212.2720  139.0590 C   0  0  0  0  0  3  0  0  0  0  0  0
  158.7030  212.8440  140.3620 N   0  0  0  0  0  2  0  0  0  0  0  0
  158.0160  214.4530  145.8690 C   0  0  0  0  0  2  0  0  0  0  0  0
  156.6970  213.9640  146.4490 C   0  0  0  0  0  2  0  0  0  0  0  0
  156.7730  213.9270  147.8410 O   0  0  0  0  0  1  0  0  0  0  0  0
  160.9140  205.1150  148.3370 O   0  0  0  0  0  0  0  0  0  0  0  0
  161.8330  204.2560  147.7360 C   0  0  0  0  0  0  0  0  0  0  0  0
  162.9050  204.7610  147.1430 C   0  0  0  0  0  2  0  0  0  0  0  0
  161.6320  202.7740  147.7440 C   0  0  0  0  0  2  0  0  0  0  0  0
  160.6900  202.3490  146.6220 C   0  0  2  0  0  3  0  0  0  0  0  0
  161.8630  200.1550  147.1850 C   0  0  0  0  0  2  0  0  0  0  0  0
  159.5640  200.8670  144.3200 O   0  0  0  0  0  1  0  0  0  0  0  0
  160.7290  200.4290  144.9550 C   0  0  1  0  0  3  0  0  0  0  0  0
  160.7110  200.8260  146.4360 C   0  0  2  0  0  3  0  0  0  0  0  0
  159.7100  198.2330  145.2020 O   0  0  0  0  0  1  0  0  0  0  0  0
  160.8740  198.9070  144.8100 C   0  0  2  0  0  3  0  0  0  0  0  0
  161.8370  198.6580  146.8900 C   0  0  0  0  0  2  0  0  0  0  0  0
  162.0070  198.4220  145.5080 O   0  0  0  0  0  0  0  0  0  0  0  0
  162.2430  203.4440  144.9990 O   0  0  0  0  0  1  0  0  0  0  0  0
  159.9820  203.4880  144.6270 O   0  0  0  0  0  0  0  0  0  0  0  0
  160.9410  203.1110  145.3520 C   0  0  0  0  0  0  0  0  0  0  0  0
  1  2  1  0  0  0  0
  2  3  1  1  0  0  0
  2 12  1  0  0  0  0
  4  8  1  0  0  0  0
  5 15  1  0  0  0  0
  6 18  1  0  0  0  0
  6 24  1  0  0  0  0
  7 11  1  6  0  0  0
  7  6  1  0  0  0  0
  8 11  1  0  0  0  0
  9 13  1  0  0  0  0
  9 14  1  0  0  0  0
 10  1  2  0  0  0  0
 12  5  2  0  0  0  0
 13  1  1  0  0  0  0
 14 19  1  6  0  0  0
 14 17  1  0  0  0  0
 16 12  1  0  0  0  0
 16 18  2  0  0  0  0
 17  7  1  0  0  0  0
 17 16  1  1  0  0  0
 18 15  1  0  0  0  0
 19  4  2  0  0  0  0
 20 23  1  0  0  0  0
 22 21  1  0  0  0  0
 23 21  2  0  0  0  0
 24 25  1  0  0  0  0
 24 20  2  0  0  0  0
 25 22  2  0  0  0  0
 26  4  1  0  0  0  0
 27 26  1  0  0  0  0
 27 28  1  6  0  0  0
 29 27  1  0  0  0  0
 30 29  1  0  0  0  0
 31 42  1  0  0  0  0
 31 30  1  0  0  0  0
 32 33  2  0  0  0  0
 33 31  1  0  0  0  0
 34 32  1  1  0  0  0
 35 37  1  0  0  0  0
 35 34  1  0  0  0  0
 36 35  2  0  0  0  0
 38 34  1  0  0  0  0
 39 40  2  0  0  0  0
 40 41  1  0  0  0  0
 41 38  1  0  0  0  0
 42 43  1  0  0  0  0
 43 44  1  0  0  0  0
 45 10  1  0  0  0  0
 46 48  1  0  0  0  0
 46 45  1  0  0  0  0
 47 46  2  0  0  0  0
 49 48  1  1  0  0  0
 52 51  1  1  0  0  0
 52 53  1  0  0  0  0
 53 49  1  6  0  0  0
 53 50  1  0  0  0  0
 55 52  1  0  0  0  0
 55 54  1  1  0  0  0
 55 57  1  0  0  0  0
 56 50  1  0  0  0  0
 57 56  1  0  0  0  0
 58 60  1  0  0  0  0
 59 60  2  0  0  0  0
 60 49  1  0  0  0  0
M  END
>  <MODEL>
5

>  <REMARK>
 VINA RESULT:      -1.8      1.546      2.816
  Name = 
  19 active torsions:
  status: ('A' for Active; 'I' for Inactive)
    1  A    between atoms: C_1  and  C_12
    2  A    between atoms: N_5  and  C_12
    3  A    between atoms: N_5  and  N_58
    4  A    between atoms: C_8  and  C_32
    5  A    between atoms: C_8  and  C_50
    6  A    between atoms: C_9  and  C_12
    7  A    between atoms: C_10  and  O_57
    8  A    between atoms: N_15  and  C_51
    9  A    between atoms: C_16  and  C_42
   10  A    between atoms: O_18  and  N_27
   11  A    between atoms: O_18  and  C_32
   12  A    between atoms: C_19  and  C_49
   13  A    between atoms: C_19  and  O_57
   14  A    between atoms: N_24  and  C_37
   15  A    between atoms: N_24  and  C_38
   16  A    between atoms: N_24  and  C_42
   17  A    between atoms: C_28  and  C_50
   18  A    between atoms: C_36  and  C_50
   19  A    between atoms: C_37  and  C_49
                            x       y       z     vdW  Elec       q    Type
                         _______ _______ _______ _____ _____    ______ ____

>  <TORSDO>
F 19

$$$$
=
 OpenBabel11042422333D

 60 65  0  0  1  0  0  0  0  0999 V2000
  161.0000  206.0240  150.3840 C   0  0  0  0  0  0  0  0  0  0  0  0
  161.3360  204.6640  150.9050 C   0  0  1  0  0  3  0  0  0  0  0  0
  160.4400  204.3460  152.0920 C   0  0  0  0  0  1  0  0  0  0  0  0
  161.2010  205.9880  144.6110 C   0  0  0  0  0  0  0  0  0  0  0  0
  161.3110  202.1790  150.2350 C   0  0  0  0  0  3  0  0  0  0  0  0
  161.2690  202.1040  146.7470 N   0  0  0  0  0  0  0  0  0  0  0  0
  161.0520  203.3860  146.1870 N   0  0  2  0  0  0  0  0  0  0  0  0
  161.1290  204.5570  144.1390 C   0  0  0  0  0  2  0  0  0  0  0  0
  160.9460  206.5220  148.1250 O   0  0  0  0  0  0  0  0  0  0  0  0
  161.5040  207.0600  150.9810 N   0  0  0  0  0  0  0  0  0  0  0  0
  161.8880  203.5980  145.0300 C   0  0  0  0  0  2  0  0  0  0  0  0
  161.3280  203.5410  149.8940 C   0  0  0  0  0  0  0  0  0  0  0  0
  160.1190  206.1930  149.1930 C   0  0  0  0  0  2  0  0  0  0  0  0
  160.6460  205.6440  147.0790 C   0  0  2  0  0  3  0  0  0  0  0  0
  161.3100  201.4460  149.1340 O   0  0  0  0  0  0  0  0  0  0  0  0
  161.3710  203.5580  148.5020 C   0  0  0  0  0  0  0  0  0  0  0  0
  161.4740  204.3540  147.2250 C   0  0  1  0  0  3  0  0  0  0  0  0
  161.3480  202.2880  148.1390 C   0  0  0  0  0  0  0  0  0  0  0  0
  160.9910  206.3650  145.8440 N   0  0  0  0  0  0  0  0  0  0  0  0
  159.7790  200.8430  145.2340 C   0  0  0  0  0  3  0  0  0  0  0  0
  160.1120  198.4730  144.8650 C   0  0  0  0  0  3  0  0  0  0  0  0
  161.2020  198.4930  145.7380 C   0  0  0  0  0  3  0  0  0  0  0  0
  159.4010  199.6490  144.6120 C   0  0  0  0  0  3  0  0  0  0  0  0
  160.8760  200.8750  146.1090 C   0  0  0  0  0  0  0  0  0  0  0  0
  161.5820  199.6870  146.3570 C   0  0  0  0  0  3  0  0  0  0  0  0
  161.4830  206.9940  143.6820 O   0  0  0  0  0  0  0  0  0  0  0  0
  161.9380  206.7480  142.3560 C   0  0  1  0  0  3  0  0  0  0  0  0
  161.5940  205.4530  141.9610 O   0  0  0  0  0  1  0  0  0  0  0  0
  161.3150  207.7640  141.4050 C   0  0  0  0  0  2  0  0  0  0  0  0
  162.3300  208.2310  140.3660 C   0  0  0  0  0  2  0  0  0  0  0  0
  161.9110  209.5050  139.7890 N   0  0  0  0  0  0  0  0  0  0  0  0
  159.7870  210.3630  139.0150 C   0  0  0  0  0  3  0  0  0  0  0  0
  160.6000  210.0440  140.0190 C   0  0  0  0  0  3  0  0  0  0  0  0
  158.4330  210.9400  139.2580 C   0  0  1  0  0  3  0  0  0  0  0  0
  158.5220  212.4350  139.3550 C   0  0  0  0  0  0  0  0  0  0  0  0
  158.0280  213.0490  140.4290 C   0  0  0  0  0  2  0  0  0  0  0  0
  159.3570  213.2160  138.3940 C   0  0  0  0  0  1  0  0  0  0  0  0
  157.5180  210.5540  138.1900 N   0  0  0  0  0  2  0  0  0  0  0  0
  154.6170  209.1040  139.7200 O   0  0  0  0  0  0  0  0  0  0  0  0
  155.7580  209.1910  139.1970 C   0  0  0  0  0  3  0  0  0  0  0  0
  156.2450  210.4560  138.7640 N   0  0  0  0  0  2  0  0  0  0  0  0
  162.7390  210.0920  138.7500 C   0  0  0  0  0  2  0  0  0  0  0  0
  163.4310  211.3470  139.2610 C   0  0  0  0  0  2  0  0  0  0  0  0
  162.8420  212.4780  138.6970 O   0  0  0  0  0  1  0  0  0  0  0  0
  161.2730  208.3450  150.5370 O   0  0  0  0  0  0  0  0  0  0  0  0
  161.3560  209.4320  151.4060 C   0  0  0  0  0  0  0  0  0  0  0  0
  162.3400  210.3080  151.2610 C   0  0  0  0  0  2  0  0  0  0  0  0
  160.3570  209.6290  152.5010 C   0  0  0  0  0  2  0  0  0  0  0  0
  160.8390  210.6850  153.4910 C   0  0  2  0  0  3  0  0  0  0  0  0
  161.9140  210.8660  155.7970 C   0  0  0  0  0  2  0  0  0  0  0  0
  160.2240  207.8970  154.2720 O   0  0  0  0  0  1  0  0  0  0  0  0
  161.2460  208.6100  154.9050 C   0  0  1  0  0  3  0  0  0  0  0  0
  160.9240  210.1090  154.9110 C   0  0  2  0  0  3  0  0  0  0  0  0
  160.2370  208.0590  157.0490 O   0  0  0  0  0  1  0  0  0  0  0  0
  161.4440  208.0980  156.3390 C   0  0  2  0  0  3  0  0  0  0  0  0
  161.9740  210.1860  157.1610 C   0  0  0  0  0  2  0  0  0  0  0  0
  162.4220  208.8520  157.0310 O   0  0  0  0  0  0  0  0  0  0  0  0
  159.9580  212.6330  152.1970 O   0  0  0  0  0  0  0  0  0  0  0  0
  159.4660  212.4240  154.4250 O   0  0  0  0  0  1  0  0  0  0  0  0
  160.0350  211.9510  153.4050 C   0  0  0  0  0  0  0  0  0  0  0  0
  1  2  1  0  0  0  0
  1 10  2  0  0  0  0
  2  3  1  1  0  0  0
  4 19  2  0  0  0  0
  6 18  1  0  0  0  0
  7 11  1  6  0  0  0
  7  6  1  0  0  0  0
  7 17  1  0  0  0  0
  8  4  1  0  0  0  0
  8 11  1  0  0  0  0
  9 13  1  0  0  0  0
 12  5  2  0  0  0  0
 12  2  1  0  0  0  0
 13  1  1  0  0  0  0
 14 19  1  6  0  0  0
 14 17  1  0  0  0  0
 14  9  1  0  0  0  0
 15  5  1  0  0  0  0
 16 12  1  0  0  0  0
 17 16  1  1  0  0  0
 18 16  2  0  0  0  0
 18 15  1  0  0  0  0
 20 24  1  0  0  0  0
 21 22  2  0  0  0  0
 22 25  1  0  0  0  0
 23 21  1  0  0  0  0
 23 20  2  0  0  0  0
 24 25  2  0  0  0  0
 24  6  1  0  0  0  0
 26  4  1  0  0  0  0
 27 28  1  6  0  0  0
 27 26  1  0  0  0  0
 29 27  1  0  0  0  0
 30 29  1  0  0  0  0
 31 33  1  0  0  0  0
 31 30  1  0  0  0  0
 32 33  2  0  0  0  0
 34 32  1  6  0  0  0
 34 35  1  0  0  0  0
 35 36  2  0  0  0  0
 37 35  1  0  0  0  0
 38 41  1  0  0  0  0
 38 34  1  0  0  0  0
 40 39  2  0  0  0  0
 41 40  1  0  0  0  0
 42 43  1  0  0  0  0
 42 31  1  0  0  0  0
 44 43  1  0  0  0  0
 45 10  1  0  0  0  0
 45 46  1  0  0  0  0
 46 48  1  0  0  0  0
 47 46  2  0  0  0  0
 49 48  1  6  0  0  0
 50 56  1  0  0  0  0
 52 51  1  1  0  0  0
 52 53  1  0  0  0  0
 52 55  1  0  0  0  0
 53 49  1  6  0  0  0
 53 50  1  0  0  0  0
 55 57  1  0  0  0  0
 55 54  1  1  0  0  0
 57 56  1  0  0  0  0
 58 60  2  0  0  0  0
 60 49  1  0  0  0  0
 60 59  1  0  0  0  0
M  END
>  <MODEL>
6

>  <REMARK>
 VINA RESULT:      -1.2      2.971      9.500
  Name = 
  19 active torsions:
  status: ('A' for Active; 'I' for Inactive)
    1  A    between atoms: C_1  and  C_12
    2  A    between atoms: N_5  and  C_12
    3  A    between atoms: N_5  and  N_58
    4  A    between atoms: C_8  and  C_32
    5  A    between atoms: C_8  and  C_50
    6  A    between atoms: C_9  and  C_12
    7  A    between atoms: C_10  and  O_57
    8  A    between atoms: N_15  and  C_51
    9  A    between atoms: C_16  and  C_42
   10  A    between atoms: O_18  and  N_27
   11  A    between atoms: O_18  and  C_32
   12  A    between atoms: C_19  and  C_49
   13  A    between atoms: C_19  and  O_57
   14  A    between atoms: N_24  and  C_37
   15  A    between atoms: N_24  and  C_38
   16  A    between atoms: N_24  and  C_42
   17  A    between atoms: C_28  and  C_50
   18  A    between atoms: C_36  and  C_50
   19  A    between atoms: C_37  and  C_49
                            x       y       z     vdW  Elec       q    Type
                         _______ _______ _______ _____ _____    ______ ____

>  <TORSDO>
F 19

$$$$
