=
 OpenBabel11042422493D

 38 42  0  0  1  0  0  0  0  0999 V2000
  161.3900  204.8290  151.4580 C   0  0  0  0  0  3  0  0  0  0  0  0
  161.5660  211.1240  151.1430 C   0  0  0  0  0  3  0  0  0  0  0  0
  161.7060  211.9420  148.8410 C   0  0  0  0  0  0  0  0  0  0  0  0
  161.6120  209.7380  150.6230 C   0  0  0  0  0  0  0  0  0  0  0  0
  161.3330  207.2110  149.4510 C   0  0  0  0  0  0  0  0  0  0  0  0
  161.3170  208.6580  151.3780 C   0  0  0  0  0  0  0  0  0  0  0  0
  160.9980  206.0110  148.6370 C   0  0  0  0  0  0  0  0  0  0  0  0
  161.6230  212.1570  150.2980 C   0  0  0  0  0  3  0  0  0  0  0  0
  161.5900  208.3560  148.6800 O   0  0  0  0  0  0  0  0  0  0  0  0
  161.1250  206.2430  151.7240 C   0  0  0  0  0  0  0  0  0  0  0  0
  161.3860  204.1830  150.3080 C   0  0  0  0  0  3  0  0  0  0  0  0
  161.0320  208.8490  152.7370 C   0  0  0  0  0  3  0  0  0  0  0  0
  161.0670  204.7390  149.0060 C   0  0  0  0  0  3  0  0  0  0  0  0
  161.5590  213.0200  147.9790 O   0  0  0  0  0  1  0  0  0  0  0  0
  160.7870  207.7780  153.5780 C   0  0  0  0  0  0  0  0  0  0  0  0
  161.2860  207.3330  150.8160 C   0  0  0  0  0  0  0  0  0  0  0  0
  161.8940  210.7150  148.3400 C   0  0  0  0  0  3  0  0  0  0  0  0
  160.8740  206.4880  153.0730 C   0  0  0  0  0  3  0  0  0  0  0  0
  162.1410  209.5330  149.2370 C   0  0  1  0  0  3  0  0  0  0  0  0
  160.6040  206.2170  147.2050 C   0  0  0  0  0  2  0  0  0  0  0  0
  161.6390  204.3420  145.8450 C   0  0  0  0  0  0  0  0  0  0  0  0
  160.5250  204.9390  146.5090 N   0  0  0  0  0  2  0  0  0  0  0  0
  162.7260  204.9680  145.7310 O   0  0  0  0  0  0  0  0  0  0  0  0
  161.5280  202.9410  145.3160 C   0  0  0  0  0  2  0  0  0  0  0  0
  160.4720  202.1400  145.9560 N   0  0  0  0  0  0  0  0  0  0  0  0
  159.9860  201.1160  145.0400 C   0  0  0  0  0  1  0  0  0  0  0  0
  160.9930  201.4790  147.1420 C   0  0  0  0  0  1  0  0  0  0  0  0
  160.5300  208.0170  154.9640 N   0  0  0  0  0  2  0  0  0  0  0  0
  161.5270  207.7870  156.0040 C   0  0  1  0  0  3  0  0  0  0  0  0
  161.9510  209.0290  156.7220 C   0  0  2  0  0  3  0  0  0  0  0  0
  160.9940  208.1440  157.2560 O   0  0  0  0  0  0  0  0  0  0  0  0
  161.4510  211.6410  157.2600 O   0  0  0  0  0  0  0  0  0  0  0  0
  161.1520  210.5700  156.2460 S   0  0  0  0  0  0  0  0  0  0  0  0
  161.6280  211.0140  154.8910 O   0  0  0  0  0  0  0  0  0  0  0  0
  159.3870  210.3160  156.1610 C   0  0  0  0  0  2  0  0  0  0  0  0
  157.3030  211.6740  156.0810 C   0  0  0  0  0  1  0  0  0  0  0  0
  158.6010  211.2750  154.0190 C   0  0  0  0  0  1  0  0  0  0  0  0
  158.6980  211.5020  155.5120 C   0  0  0  0  0  3  0  0  0  0  0  0
  1 10  1  0  0  0  0
  3  8  1  0  0  0  0
  4  2  1  0  0  0  0
  4  6  2  0  0  0  0
  5 16  2  0  0  0  0
  6 12  1  0  0  0  0
  7 13  2  0  0  0  0
  7  5  1  0  0  0  0
  8  2  2  0  0  0  0
  9 19  1  0  0  0  0
  9  5  1  0  0  0  0
 10 18  2  0  0  0  0
 11  1  2  0  0  0  0
 12 15  2  0  0  0  0
 13 11  1  0  0  0  0
 14  3  1  0  0  0  0
 15 28  1  0  0  0  0
 16  6  1  0  0  0  0
 16 10  1  0  0  0  0
 17  3  2  0  0  0  0
 18 15  1  0  0  0  0
 19 17  1  6  0  0  0
 19  4  1  0  0  0  0
 20  7  1  0  0  0  0
 21 22  1  0  0  0  0
 22 20  1  0  0  0  0
 23 21  2  0  0  0  0
 24 21  1  0  0  0  0
 24 25  1  0  0  0  0
 25 27  1  0  0  0  0
 26 25  1  0  0  0  0
 29 28  1  6  0  0  0
 29 30  1  0  0  0  0
 29 31  1  0  0  0  0
 30 33  1  6  0  0  0
 30 31  1  0  0  0  0
 33 32  2  0  0  0  0
 34 33  2  0  0  0  0
 35 33  1  0  0  0  0
 37 38  1  0  0  0  0
 38 36  1  0  0  0  0
 38 35  1  0  0  0  0
M  END
>  <MODEL>
1

>  <REMARK>
 VINA RESULT:      -7.8      0.000      0.000
  Name = 
  9 active torsions:
  status: ('A' for Active; 'I' for Inactive)
    1  A    between atoms: N_6  and  C_14
    2  A    between atoms: C_9  and  C_17
    3  A    between atoms: S_10  and  C_31
    4  A    between atoms: S_10  and  C_33
    5  A    between atoms: C_11  and  C_14
    6  A    between atoms: N_15  and  C_17
    7  A    between atoms: C_16  and  N_28
    8  A    between atoms: N_28  and  C_29
    9  A    between atoms: C_33  and  C_34
                            x       y       z     vdW  Elec       q    Type
                         _______ _______ _______ _____ _____    ______ ____

>  <TORSDO>
F 9

$$$$
=
 OpenBabel11042422493D

 38 42  0  0  1  0  0  0  0  0999 V2000
  160.4220  206.3880  154.8470 C   0  0  0  0  0  3  0  0  0  0  0  0
  161.8410  208.5210  149.0860 C   0  0  0  0  0  3  0  0  0  0  0  0
  162.2590  210.9320  149.0570 C   0  0  0  0  0  0  0  0  0  0  0  0
  161.5370  208.6200  150.5310 C   0  0  2  0  0  3  0  0  0  0  0  0
  161.3670  208.9280  153.3090 C   0  0  0  0  0  0  0  0  0  0  0  0
  161.4400  207.5420  151.3390 C   0  0  0  0  0  0  0  0  0  0  0  0
  161.5190  209.2690  154.7490 C   0  0  0  0  0  0  0  0  0  0  0  0
  162.1680  209.6170  148.3950 C   0  0  0  0  0  3  0  0  0  0  0  0
  161.5180  210.0310  152.4530 O   0  0  0  0  0  0  0  0  0  0  0  0
  160.9820  206.4860  153.4980 C   0  0  0  0  0  0  0  0  0  0  0  0
  160.4450  207.2750  155.8230 C   0  0  0  0  0  2  0  0  0  0  0  0
  161.5520  206.2660  150.7680 C   0  0  0  0  0  3  0  0  0  0  0  0
  161.0850  208.5770  155.7940 C   0  0  0  0  0  3  0  0  0  0  0  0
  162.7950  212.0110  148.3670 O   0  0  0  0  0  1  0  0  0  0  0  0
  161.3970  205.1210  151.5300 C   0  0  0  0  0  0  0  0  0  0  0  0
  161.2330  207.6800  152.7560 C   0  0  0  0  0  0  0  0  0  0  0  0
  161.8550  211.0900  150.3230 C   0  0  0  0  0  3  0  0  0  0  0  0
  161.0750  205.2430  152.8750 C   0  0  0  0  0  3  0  0  0  0  0  0
  161.1930  209.9700  151.0790 C   0  0  1  0  0  3  0  0  0  0  0  0
  162.1650  210.5750  155.1000 C   0  0  0  0  0  2  0  0  0  0  0  0
  160.2140  212.1700  155.3960 C   0  0  0  0  0  0  0  0  0  0  0  0
  161.2750  211.3780  155.9300 N   0  0  0  0  0  2  0  0  0  0  0  0
  160.0790  212.3030  154.1510 O   0  0  0  0  0  0  0  0  0  0  0  0
  159.2260  212.8150  156.3250 C   0  0  0  0  0  2  0  0  0  0  0  0
  157.8370  212.7810  155.8430 N   0  0  0  0  0  0  0  0  0  0  0  0
  157.2390  211.4790  156.1080 C   0  0  0  0  0  1  0  0  0  0  0  0
  157.0440  213.7930  156.5230 C   0  0  0  0  0  1  0  0  0  0  0  0
  161.4890  203.8400  150.9010 N   0  0  0  0  0  2  0  0  0  0  0  0
  160.4030  202.8660  150.9310 C   0  0  1  0  0  3  0  0  0  0  0  0
  160.0990  202.2580  149.5990 C   0  0  2  0  0  3  0  0  0  0  0  0
  160.8950  201.6020  150.5570 O   0  0  0  0  0  0  0  0  0  0  0  0
  162.5620  202.4350  148.4760 O   0  0  0  0  0  0  0  0  0  0  0  0
  161.1200  202.7660  148.2060 S   0  0  0  0  0  0  0  0  0  0  0  0
  160.6720  202.0790  146.9470 O   0  0  0  0  0  0  0  0  0  0  0  0
  160.9540  204.5290  147.9680 C   0  0  0  0  0  2  0  0  0  0  0  0
  162.8460  205.0570  146.4400 C   0  0  0  0  0  1  0  0  0  0  0  0
  160.6950  206.2480  146.2080 C   0  0  0  0  0  1  0  0  0  0  0  0
  161.3390  204.9240  146.5540 C   0  0  0  0  0  3  0  0  0  0  0  0
  1 11  1  0  0  0  0
  3 17  2  0  0  0  0
  4  2  1  6  0  0  0
  4 19  1  0  0  0  0
  4  6  1  0  0  0  0
  5  7  1  0  0  0  0
  6 16  1  0  0  0  0
  7 20  1  0  0  0  0
  7 13  2  0  0  0  0
  8  3  1  0  0  0  0
  8  2  2  0  0  0  0
  9  5  1  0  0  0  0
 10  1  2  0  0  0  0
 12  6  2  0  0  0  0
 12 15  1  0  0  0  0
 13 11  1  0  0  0  0
 14  3  1  0  0  0  0
 15 18  2  0  0  0  0
 16  5  2  0  0  0  0
 16 10  1  0  0  0  0
 18 10  1  0  0  0  0
 19 17  1  6  0  0  0
 19  9  1  0  0  0  0
 20 22  1  0  0  0  0
 21 22  1  0  0  0  0
 21 24  1  0  0  0  0
 23 21  2  0  0  0  0
 25 26  1  0  0  0  0
 25 24  1  0  0  0  0
 25 27  1  0  0  0  0
 28 15  1  0  0  0  0
 29 28  1  6  0  0  0
 30 33  1  6  0  0  0
 30 31  1  0  0  0  0
 30 29  1  0  0  0  0
 31 29  1  0  0  0  0
 33 32  2  0  0  0  0
 34 33  2  0  0  0  0
 35 33  1  0  0  0  0
 36 38  1  0  0  0  0
 37 38  1  0  0  0  0
 38 35  1  0  0  0  0
M  END
>  <MODEL>
2

>  <REMARK>
 VINA RESULT:      -7.6      2.943      8.737
  Name = 
  9 active torsions:
  status: ('A' for Active; 'I' for Inactive)
    1  A    between atoms: N_6  and  C_14
    2  A    between atoms: C_9  and  C_17
    3  A    between atoms: S_10  and  C_31
    4  A    between atoms: S_10  and  C_33
    5  A    between atoms: C_11  and  C_14
    6  A    between atoms: N_15  and  C_17
    7  A    between atoms: C_16  and  N_28
    8  A    between atoms: N_28  and  C_29
    9  A    between atoms: C_33  and  C_34
                            x       y       z     vdW  Elec       q    Type
                         _______ _______ _______ _____ _____    ______ ____

>  <TORSDO>
F 9

$$$$
=
 OpenBabel11042422493D

 38 42  0  0  1  0  0  0  0  0999 V2000
  161.5140  205.6620  152.6370 C   0  0  0  0  0  3  0  0  0  0  0  0
  161.5180  211.6610  150.6940 C   0  0  0  0  0  3  0  0  0  0  0  0
  161.6700  211.8560  148.2590 C   0  0  0  0  0  0  0  0  0  0  0  0
  161.6120  210.1900  150.5540 C   0  0  0  0  0  0  0  0  0  0  0  0
  161.4210  207.4380  150.0780 C   0  0  0  0  0  0  0  0  0  0  0  0
  161.3360  209.3350  151.5610 C   0  0  0  0  0  0  0  0  0  0  0  0
  161.1320  206.0580  149.6020 C   0  0  0  0  0  0  0  0  0  0  0  0
  161.5600  212.4400  149.6100 C   0  0  0  0  0  3  0  0  0  0  0  0
  161.6570  208.3500  149.0380 O   0  0  0  0  0  0  0  0  0  0  0  0
  161.2050  207.0880  152.5230 C   0  0  0  0  0  0  0  0  0  0  0  0
  161.5460  204.7400  151.6940 C   0  0  0  0  0  3  0  0  0  0  0  0
  161.0250  209.8640  152.8220 C   0  0  0  0  0  3  0  0  0  0  0  0
  161.2310  204.9280  150.2900 C   0  0  0  0  0  3  0  0  0  0  0  0
  161.5070  212.6680  147.1460 O   0  0  0  0  0  1  0  0  0  0  0  0
  160.7960  209.0420  153.9110 C   0  0  0  0  0  0  0  0  0  0  0  0
  161.3500  207.9090  151.3630 C   0  0  0  0  0  0  0  0  0  0  0  0
  161.9010  210.5480  148.0970 C   0  0  0  0  0  3  0  0  0  0  0  0
  160.9280  207.6680  153.7600 C   0  0  0  0  0  3  0  0  0  0  0  0
  162.1670  209.6480  149.2730 C   0  0  1  0  0  3  0  0  0  0  0  0
  160.7540  205.8720  148.1630 C   0  0  0  0  0  2  0  0  0  0  0  0
  161.1530  204.1180  146.3740 C   0  0  0  0  0  0  0  0  0  0  0  0
  161.0100  204.5000  147.7420 N   0  0  0  0  0  2  0  0  0  0  0  0
  160.9390  204.9490  145.4520 O   0  0  0  0  0  0  0  0  0  0  0  0
  161.6010  202.7260  146.0320 C   0  0  0  0  0  2  0  0  0  0  0  0
  160.5780  201.6930  146.2580 N   0  0  0  0  0  0  0  0  0  0  0  0
  160.0210  201.2440  144.9890 C   0  0  0  0  0  1  0  0  0  0  0  0
  161.1660  200.5450  146.9290 C   0  0  0  0  0  1  0  0  0  0  0  0
  160.5120  209.6250  155.1850 N   0  0  0  0  0  2  0  0  0  0  0  0
  161.4930  210.4000  155.9360 C   0  0  1  0  0  3  0  0  0  0  0  0
  160.9730  211.7090  156.4400 C   0  0  2  0  0  3  0  0  0  0  0  0
  161.0490  210.5660  157.2610 O   0  0  0  0  0  0  0  0  0  0  0  0
  158.3560  211.0270  156.6620 O   0  0  0  0  0  0  0  0  0  0  0  0
  159.2490  212.0990  156.1000 S   0  0  0  0  0  0  0  0  0  0  0  0
  158.8810  213.4270  156.7000 O   0  0  0  0  0  0  0  0  0  0  0  0
  159.0080  212.2010  154.3330 C   0  0  0  0  0  2  0  0  0  0  0  0
  156.6810  213.0470  154.0810 C   0  0  0  0  0  1  0  0  0  0  0  0
  158.4550  213.8260  152.5510 C   0  0  0  0  0  1  0  0  0  0  0  0
  158.1520  213.4000  153.9710 C   0  0  0  0  0  3  0  0  0  0  0  0
  3  8  1  0  0  0  0
  4  2  1  0  0  0  0
  4  6  2  0  0  0  0
  5 16  2  0  0  0  0
  6 12  1  0  0  0  0
  7  5  1  0  0  0  0
  7 13  2  0  0  0  0
  8  2  2  0  0  0  0
  9 19  1  0  0  0  0
  9  5  1  0  0  0  0
 10  1  1  0  0  0  0
 10 18  2  0  0  0  0
 11  1  2  0  0  0  0
 12 15  2  0  0  0  0
 13 11  1  0  0  0  0
 14  3  1  0  0  0  0
 15 28  1  0  0  0  0
 16  6  1  0  0  0  0
 16 10  1  0  0  0  0
 17  3  2  0  0  0  0
 18 15  1  0  0  0  0
 19 17  1  6  0  0  0
 19  4  1  0  0  0  0
 20  7  1  0  0  0  0
 21 22  1  0  0  0  0
 22 20  1  0  0  0  0
 23 21  2  0  0  0  0
 24 25  1  0  0  0  0
 24 21  1  0  0  0  0
 25 27  1  0  0  0  0
 26 25  1  0  0  0  0
 29 28  1  6  0  0  0
 29 30  1  0  0  0  0
 29 31  1  0  0  0  0
 30 33  1  6  0  0  0
 30 31  1  0  0  0  0
 33 32  2  0  0  0  0
 33 34  2  0  0  0  0
 35 33  1  0  0  0  0
 37 38  1  0  0  0  0
 38 36  1  0  0  0  0
 38 35  1  0  0  0  0
M  END
>  <MODEL>
3

>  <REMARK>
 VINA RESULT:      -7.6      1.420      1.707
  Name = 
  9 active torsions:
  status: ('A' for Active; 'I' for Inactive)
    1  A    between atoms: N_6  and  C_14
    2  A    between atoms: C_9  and  C_17
    3  A    between atoms: S_10  and  C_31
    4  A    between atoms: S_10  and  C_33
    5  A    between atoms: C_11  and  C_14
    6  A    between atoms: N_15  and  C_17
    7  A    between atoms: C_16  and  N_28
    8  A    between atoms: N_28  and  C_29
    9  A    between atoms: C_33  and  C_34
                            x       y       z     vdW  Elec       q    Type
                         _______ _______ _______ _____ _____    ______ ____

>  <TORSDO>
F 9

$$$$
=
 OpenBabel11042422493D

 38 42  0  0  1  0  0  0  0  0999 V2000
  160.9700  207.1610  148.0090 C   0  0  0  0  0  3  0  0  0  0  0  0
  161.4060  209.7600  153.7370 C   0  0  0  0  0  3  0  0  0  0  0  0
  161.1820  208.1110  155.5320 C   0  0  0  0  0  0  0  0  0  0  0  0
  161.1830  208.6760  152.7530 C   0  0  2  0  0  3  0  0  0  0  0  0
  161.1200  206.4610  151.0410 C   0  0  0  0  0  0  0  0  0  0  0  0
  161.4210  208.8200  151.4320 C   0  0  0  0  0  0  0  0  0  0  0  0
  161.2730  205.1600  150.3360 C   0  0  0  0  0  0  0  0  0  0  0  0
  161.3910  209.4880  155.0450 C   0  0  0  0  0  3  0  0  0  0  0  0
  160.9250  206.3290  152.4250 O   0  0  0  0  0  0  0  0  0  0  0  0
  161.3950  208.0090  149.1230 C   0  0  2  0  0  3  0  0  0  0  0  0
  160.8260  205.8500  147.9680 C   0  0  0  0  0  3  0  0  0  0  0  0
  161.8220  210.0770  150.9570 C   0  0  0  0  0  3  0  0  0  0  0  0
  161.1030  204.9160  149.0430 C   0  0  0  0  0  3  0  0  0  0  0  0
  161.3730  207.8230  156.8760 O   0  0  0  0  0  1  0  0  0  0  0  0
  162.0190  210.3080  149.6070 C   0  0  0  0  0  0  0  0  0  0  0  0
  161.2790  207.7180  150.5170 C   0  0  0  0  0  0  0  0  0  0  0  0
  160.8350  207.1320  154.6880 C   0  0  0  0  0  3  0  0  0  0  0  0
  161.7660  209.2850  148.7030 C   0  0  0  0  0  3  0  0  0  0  0  0
  160.5370  207.4160  153.2410 C   0  0  1  0  0  3  0  0  0  0  0  0
  161.5800  203.9440  151.1570 C   0  0  0  0  0  2  0  0  0  0  0  0
  161.0040  201.8790  149.8010 C   0  0  0  0  0  0  0  0  0  0  0  0
  161.9500  202.8270  150.2970 N   0  0  0  0  0  2  0  0  0  0  0  0
  159.8090  201.9020  150.1960 O   0  0  0  0  0  0  0  0  0  0  0  0
  161.4290  200.8720  148.7710 C   0  0  0  0  0  2  0  0  0  0  0  0
  160.8000  201.0580  147.4540 N   0  0  0  0  0  0  0  0  0  0  0  0
  161.2060  202.3300  146.8720 C   0  0  0  0  0  1  0  0  0  0  0  0
  161.2050  199.9940  146.5500 C   0  0  0  0  0  1  0  0  0  0  0  0
  162.3990  211.6130  149.1640 N   0  0  0  0  0  2  0  0  0  0  0  0
  163.2590  211.8350  148.0070 C   0  0  1  0  0  3  0  0  0  0  0  0
  162.6380  212.6860  146.9460 C   0  0  2  0  0  3  0  0  0  0  0  0
  163.5450  213.2080  147.8890 O   0  0  0  0  0  0  0  0  0  0  0  0
  160.0060  212.2030  147.3950 O   0  0  0  0  0  0  0  0  0  0  0  0
  160.9900  213.3340  147.2660 S   0  0  0  0  0  0  0  0  0  0  0  0
  160.9820  214.1540  148.5260 O   0  0  0  0  0  0  0  0  0  0  0  0
  160.5000  214.3900  145.9110 C   0  0  0  0  0  2  0  0  0  0  0  0
  161.0070  213.6270  143.5970 C   0  0  0  0  0  1  0  0  0  0  0  0
  158.6790  214.1170  144.2580 C   0  0  0  0  0  1  0  0  0  0  0  0
  160.0050  213.5680  144.7350 C   0  0  0  0  0  3  0  0  0  0  0  0
  2  8  2  0  0  0  0
  3 14  1  0  0  0  0
  4 19  1  0  0  0  0
  4  2  1  6  0  0  0
  5  9  1  0  0  0  0
  6  4  1  0  0  0  0
  7  5  1  0  0  0  0
  7 20  1  0  0  0  0
  8  3  1  0  0  0  0
  9 19  1  0  0  0  0
 10  1  1  6  0  0  0
 10 16  1  0  0  0  0
 11  1  2  0  0  0  0
 11 13  1  0  0  0  0
 12  6  2  0  0  0  0
 13  7  2  0  0  0  0
 15 12  1  0  0  0  0
 16  5  2  0  0  0  0
 16  6  1  0  0  0  0
 17  3  2  0  0  0  0
 18 10  1  0  0  0  0
 18 15  2  0  0  0  0
 19 17  1  1  0  0  0
 21 23  2  0  0  0  0
 21 22  1  0  0  0  0
 22 20  1  0  0  0  0
 24 21  1  0  0  0  0
 25 24  1  0  0  0  0
 26 25  1  0  0  0  0
 27 25  1  0  0  0  0
 28 15  1  0  0  0  0
 29 28  1  1  0  0  0
 30 33  1  1  0  0  0
 30 31  1  0  0  0  0
 30 29  1  0  0  0  0
 31 29  1  0  0  0  0
 33 32  2  0  0  0  0
 33 34  2  0  0  0  0
 35 33  1  0  0  0  0
 36 38  1  0  0  0  0
 37 38  1  0  0  0  0
 38 35  1  0  0  0  0
M  END
>  <MODEL>
4

>  <REMARK>
 VINA RESULT:      -7.5      3.113      6.610
  Name = 
  9 active torsions:
  status: ('A' for Active; 'I' for Inactive)
    1  A    between atoms: N_6  and  C_14
    2  A    between atoms: C_9  and  C_17
    3  A    between atoms: S_10  and  C_31
    4  A    between atoms: S_10  and  C_33
    5  A    between atoms: C_11  and  C_14
    6  A    between atoms: N_15  and  C_17
    7  A    between atoms: C_16  and  N_28
    8  A    between atoms: N_28  and  C_29
    9  A    between atoms: C_33  and  C_34
                            x       y       z     vdW  Elec       q    Type
                         _______ _______ _______ _____ _____    ______ ____

>  <TORSDO>
F 9

$$$$
=
 OpenBabel11042422493D

 38 42  0  0  1  0  0  0  0  0999 V2000
  161.4480  206.0030  153.4810 C   0  0  0  0  0  3  0  0  0  0  0  0
  161.6170  211.6290  150.6410 C   0  0  0  0  0  3  0  0  0  0  0  0
  161.5340  211.4490  148.2010 C   0  0  0  0  0  0  0  0  0  0  0  0
  161.6070  210.1510  150.7220 C   0  0  0  0  0  0  0  0  0  0  0  0
  161.2040  207.3800  150.6970 C   0  0  0  0  0  0  0  0  0  0  0  0
  161.3830  209.4780  151.8700 C   0  0  0  0  0  0  0  0  0  0  0  0
  160.7860  205.9710  150.4700 C   0  0  0  0  0  0  0  0  0  0  0  0
  161.5960  212.2340  149.4490 C   0  0  0  0  0  3  0  0  0  0  0  0
  161.3890  208.1080  149.5120 O   0  0  0  0  0  0  0  0  0  0  0  0
  161.2150  207.4150  153.1770 C   0  0  0  0  0  0  0  0  0  0  0  0
  161.3280  204.9510  152.6940 C   0  0  0  0  0  3  0  0  0  0  0  0
  161.2330  210.2100  153.0570 C   0  0  0  0  0  3  0  0  0  0  0  0
  160.8860  204.9520  151.3120 C   0  0  0  0  0  3  0  0  0  0  0  0
  161.3090  212.0970  146.9950 O   0  0  0  0  0  1  0  0  0  0  0  0
  161.0660  209.5780  154.2760 C   0  0  0  0  0  0  0  0  0  0  0  0
  161.2910  208.0420  151.8960 C   0  0  0  0  0  0  0  0  0  0  0  0
  161.6680  210.1180  148.2230 C   0  0  0  0  0  3  0  0  0  0  0  0
  161.0990  208.1910  154.3290 C   0  0  0  0  0  3  0  0  0  0  0  0
  161.9960  209.3850  149.4960 C   0  0  1  0  0  3  0  0  0  0  0  0
  160.2550  205.6020  149.1170 C   0  0  0  0  0  2  0  0  0  0  0  0
  161.9090  204.3520  147.6540 C   0  0  0  0  0  0  0  0  0  0  0  0
  161.3350  205.5660  148.1370 N   0  0  0  0  0  2  0  0  0  0  0  0
  161.5810  203.2450  148.1560 O   0  0  0  0  0  0  0  0  0  0  0  0
  162.8820  204.3920  146.5100 C   0  0  0  0  0  2  0  0  0  0  0  0
  162.2630  204.2040  145.1890 N   0  0  0  0  0  0  0  0  0  0  0  0
  161.2060  203.2040  145.2610 C   0  0  0  0  0  1  0  0  0  0  0  0
  161.6760  205.4530  144.7280 C   0  0  0  0  0  1  0  0  0  0  0  0
  160.9470  210.3630  155.4650 N   0  0  0  0  0  2  0  0  0  0  0  0
  160.1160  209.9630  156.5960 C   0  0  1  0  0  3  0  0  0  0  0  0
  158.9950  210.9100  156.8880 C   0  0  2  0  0  3  0  0  0  0  0  0
  158.8020  209.7230  156.1540 O   0  0  0  0  0  0  0  0  0  0  0  0
  160.0810  213.1400  155.7880 O   0  0  0  0  0  0  0  0  0  0  0  0
  158.8120  212.3330  155.8020 S   0  0  0  0  0  0  0  0  0  0  0  0
  158.4820  211.8890  154.4040 O   0  0  0  0  0  0  0  0  0  0  0  0
  157.4700  213.3540  156.3930 C   0  0  0  0  0  2  0  0  0  0  0  0
  155.1950  214.1010  155.7160 C   0  0  0  0  0  1  0  0  0  0  0  0
  155.5350  211.8290  156.6210 C   0  0  0  0  0  1  0  0  0  0  0  0
  156.1500  212.9250  155.7790 C   0  0  0  0  0  3  0  0  0  0  0  0
  2  4  1  0  0  0  0
  3 17  2  0  0  0  0
  3  8  1  0  0  0  0
  4  6  2  0  0  0  0
  5 16  2  0  0  0  0
  6 16  1  0  0  0  0
  6 12  1  0  0  0  0
  7  5  1  0  0  0  0
  7 13  2  0  0  0  0
  8  2  2  0  0  0  0
  9  5  1  0  0  0  0
 10  1  1  0  0  0  0
 10 18  2  0  0  0  0
 11  1  2  0  0  0  0
 12 15  2  0  0  0  0
 13 11  1  0  0  0  0
 14  3  1  0  0  0  0
 15 18  1  0  0  0  0
 15 28  1  0  0  0  0
 16 10  1  0  0  0  0
 19 17  1  6  0  0  0
 19  9  1  0  0  0  0
 19  4  1  0  0  0  0
 20  7  1  0  0  0  0
 21 22  1  0  0  0  0
 21 23  2  0  0  0  0
 22 20  1  0  0  0  0
 24 21  1  0  0  0  0
 25 26  1  0  0  0  0
 25 24  1  0  0  0  0
 27 25  1  0  0  0  0
 29 28  1  6  0  0  0
 29 30  1  0  0  0  0
 30 33  1  6  0  0  0
 31 29  1  0  0  0  0
 31 30  1  0  0  0  0
 32 33  2  0  0  0  0
 33 35  1  0  0  0  0
 34 33  2  0  0  0  0
 36 38  1  0  0  0  0
 38 35  1  0  0  0  0
 38 37  1  0  0  0  0
M  END
>  <MODEL>
5

>  <REMARK>
 VINA RESULT:      -7.3      1.744      2.378
  Name = 
  9 active torsions:
  status: ('A' for Active; 'I' for Inactive)
    1  A    between atoms: N_6  and  C_14
    2  A    between atoms: C_9  and  C_17
    3  A    between atoms: S_10  and  C_31
    4  A    between atoms: S_10  and  C_33
    5  A    between atoms: C_11  and  C_14
    6  A    between atoms: N_15  and  C_17
    7  A    between atoms: C_16  and  N_28
    8  A    between atoms: N_28  and  C_29
    9  A    between atoms: C_33  and  C_34
                            x       y       z     vdW  Elec       q    Type
                         _______ _______ _______ _____ _____    ______ ____

>  <TORSDO>
F 9

$$$$
=
 OpenBabel11042422493D

 38 42  0  0  1  0  0  0  0  0999 V2000
  161.9670  211.4750  148.6440 C   0  0  0  0  0  3  0  0  0  0  0  0
  161.5230  206.6520  152.6810 C   0  0  0  0  0  3  0  0  0  0  0  0
  160.7870  207.3590  154.9050 C   0  0  0  0  0  0  0  0  0  0  0  0
  161.4950  208.0690  152.2520 C   0  0  2  0  0  3  0  0  0  0  0  0
  161.0260  210.7300  151.5190 C   0  0  0  0  0  0  0  0  0  0  0  0
  161.5680  208.4490  150.9600 C   0  0  0  0  0  0  0  0  0  0  0  0
  160.5250  212.1120  151.2930 C   0  0  0  0  0  0  0  0  0  0  0  0
  161.2010  206.3260  153.9360 C   0  0  0  0  0  3  0  0  0  0  0  0
  160.9070  210.3010  152.8500 O   0  0  0  0  0  0  0  0  0  0  0  0
  161.7000  210.1500  149.2040 C   0  0  2  0  0  3  0  0  0  0  0  0
  161.6140  212.6600  149.1030 C   0  0  0  0  0  3  0  0  0  0  0  0
  161.7610  207.4630  149.9820 C   0  0  0  0  0  3  0  0  0  0  0  0
  160.8180  212.9250  150.2870 C   0  0  0  0  0  3  0  0  0  0  0  0
  160.2650  206.9760  156.1330 O   0  0  0  0  0  1  0  0  0  0  0  0
  161.9090  207.7930  148.6460 C   0  0  0  0  0  0  0  0  0  0  0  0
  161.4480  209.8310  150.5730 C   0  0  0  0  0  0  0  0  0  0  0  0
  160.8860  208.6590  154.6040 C   0  0  0  0  0  3  0  0  0  0  0  0
  161.9170  209.1310  148.2770 C   0  0  0  0  0  3  0  0  0  0  0  0
  161.5230  209.1190  153.3210 C   0  0  1  0  0  3  0  0  0  0  0  0
  159.6420  212.7220  152.3410 C   0  0  0  0  0  2  0  0  0  0  0  0
  158.5240  211.7360  154.3930 C   0  0  0  0  0  0  0  0  0  0  0  0
  158.8510  211.6930  153.0040 N   0  0  0  0  0  2  0  0  0  0  0  0
  159.0190  212.6200  155.1400 O   0  0  0  0  0  0  0  0  0  0  0  0
  157.5510  210.7420  154.9600 C   0  0  0  0  0  2  0  0  0  0  0  0
  156.1920  211.2750  155.1500 N   0  0  0  0  0  0  0  0  0  0  0  0
  155.2060  210.2100  155.0130 C   0  0  0  0  0  1  0  0  0  0  0  0
  156.0600  211.8500  156.4780 C   0  0  0  0  0  1  0  0  0  0  0  0
  162.1330  206.7580  147.6860 N   0  0  0  0  0  2  0  0  0  0  0  0
  161.5050  206.7520  146.3690 C   0  0  1  0  0  3  0  0  0  0  0  0
  161.2280  205.3820  145.8360 C   0  0  2  0  0  3  0  0  0  0  0  0
  160.2310  206.1610  146.4570 O   0  0  0  0  0  0  0  0  0  0  0  0
  161.2050  202.7000  146.2470 O   0  0  0  0  0  0  0  0  0  0  0  0
  161.6500  203.9850  146.8900 S   0  0  0  0  0  0  0  0  0  0  0  0
  163.1320  203.9390  147.1350 O   0  0  0  0  0  0  0  0  0  0  0  0
  160.8300  204.1700  148.4670 C   0  0  0  0  0  2  0  0  0  0  0  0
  160.2200  201.8960  149.2730 C   0  0  0  0  0  1  0  0  0  0  0  0
  161.1870  203.5460  150.8350 C   0  0  0  0  0  1  0  0  0  0  0  0
  161.2060  203.0410  149.4090 C   0  0  0  0  0  3  0  0  0  0  0  0
  1 11  2  0  0  0  0
  1 10  1  0  0  0  0
  2  8  2  0  0  0  0
  3 14  1  0  0  0  0
  4  2  1  1  0  0  0
  4 19  1  0  0  0  0
  5  9  1  0  0  0  0
  6  4  1  0  0  0  0
  7  5  1  0  0  0  0
  7 20  1  0  0  0  0
  8  3  1  0  0  0  0
  9 19  1  0  0  0  0
 10 18  1  1  0  0  0
 10 16  1  0  0  0  0
 11 13  1  0  0  0  0
 12  6  2  0  0  0  0
 13  7  2  0  0  0  0
 15 12  1  0  0  0  0
 16  6  1  0  0  0  0
 16  5  2  0  0  0  0
 17  3  2  0  0  0  0
 18 15  2  0  0  0  0
 19 17  1  1  0  0  0
 20 22  1  0  0  0  0
 21 24  1  0  0  0  0
 21 23  2  0  0  0  0
 22 21  1  0  0  0  0
 24 25  1  0  0  0  0
 25 27  1  0  0  0  0
 26 25  1  0  0  0  0
 28 15  1  0  0  0  0
 29 31  1  0  0  0  0
 29 28  1  1  0  0  0
 30 29  1  0  0  0  0
 30 31  1  0  0  0  0
 30 33  1  1  0  0  0
 32 33  2  0  0  0  0
 33 34  2  0  0  0  0
 33 35  1  0  0  0  0
 35 38  1  0  0  0  0
 36 38  1  0  0  0  0
 38 37  1  0  0  0  0
M  END
>  <MODEL>
6

>  <REMARK>
 VINA RESULT:      -7.1      2.891      9.180
  Name = 
  9 active torsions:
  status: ('A' for Active; 'I' for Inactive)
    1  A    between atoms: N_6  and  C_14
    2  A    between atoms: C_9  and  C_17
    3  A    between atoms: S_10  and  C_31
    4  A    between atoms: S_10  and  C_33
    5  A    between atoms: C_11  and  C_14
    6  A    between atoms: N_15  and  C_17
    7  A    between atoms: C_16  and  N_28
    8  A    between atoms: N_28  and  C_29
    9  A    between atoms: C_33  and  C_34
                            x       y       z     vdW  Elec       q    Type
                         _______ _______ _______ _____ _____    ______ ____

>  <TORSDO>
F 9

$$$$
=
 OpenBabel11042422493D

 38 42  0  0  1  0  0  0  0  0999 V2000
  162.3990  207.4230  148.6290 C   0  0  0  0  0  3  0  0  0  0  0  0
  160.7370  207.3930  154.7120 C   0  0  0  0  0  3  0  0  0  0  0  0
  160.8160  209.6240  155.7140 C   0  0  0  0  0  0  0  0  0  0  0  0
  161.2320  207.9760  153.4440 C   0  0  2  0  0  3  0  0  0  0  0  0
  161.8050  209.3000  151.0450 C   0  0  0  0  0  0  0  0  0  0  0  0
  161.2080  207.3120  152.2690 C   0  0  0  0  0  0  0  0  0  0  0  0
  161.9060  210.2040  149.8680 C   0  0  0  0  0  0  0  0  0  0  0  0
  160.5560  208.1730  155.7810 C   0  0  0  0  0  3  0  0  0  0  0  0
  161.7750  209.9800  152.2720 O   0  0  0  0  0  0  0  0  0  0  0  0
  161.7080  207.1120  149.8820 C   0  0  2  0  0  3  0  0  0  0  0  0
  162.6790  208.6000  148.1030 C   0  0  0  0  0  3  0  0  0  0  0  0
  160.7700  205.9800  152.2610 C   0  0  0  0  0  3  0  0  0  0  0  0
  162.3170  209.8970  148.6440 C   0  0  0  0  0  3  0  0  0  0  0  0
  160.4280  210.4380  156.7690 O   0  0  0  0  0  1  0  0  0  0  0  0
  160.7830  205.2240  151.1030 C   0  0  0  0  0  0  0  0  0  0  0  0
  161.6140  207.9420  151.0400 C   0  0  0  0  0  0  0  0  0  0  0  0
  161.3980  210.1660  154.6380 C   0  0  0  0  0  3  0  0  0  0  0  0
  161.2880  205.7840  149.9370 C   0  0  0  0  0  3  0  0  0  0  0  0
  161.9080  209.3110  153.5100 C   0  0  1  0  0  3  0  0  0  0  0  0
  161.5860  211.6560  150.0630 C   0  0  0  0  0  2  0  0  0  0  0  0
  160.6980  213.3070  148.3550 C   0  0  0  0  0  0  0  0  0  0  0  0
  161.6840  212.3750  148.7990 N   0  0  0  0  0  2  0  0  0  0  0  0
  159.6250  213.4570  148.9950 O   0  0  0  0  0  0  0  0  0  0  0  0
  160.9620  214.1460  147.1370 C   0  0  0  0  0  2  0  0  0  0  0  0
  161.2550  213.3670  145.9240 N   0  0  0  0  0  0  0  0  0  0  0  0
  160.0880  212.5940  145.5220 C   0  0  0  0  0  1  0  0  0  0  0  0
  161.6110  214.2570  144.8300 C   0  0  0  0  0  1  0  0  0  0  0  0
  160.3560  203.8610  151.1460 N   0  0  0  0  0  2  0  0  0  0  0  0
  161.0830  202.8280  151.8770 C   0  0  1  0  0  3  0  0  0  0  0  0
  161.3580  201.5970  151.0730 C   0  0  2  0  0  3  0  0  0  0  0  0
  162.3270  202.6020  151.2600 O   0  0  0  0  0  0  0  0  0  0  0  0
  161.5120  200.5000  148.5960 O   0  0  0  0  0  0  0  0  0  0  0  0
  160.8120  201.5930  149.3570 S   0  0  0  0  0  0  0  0  0  0  0  0
  159.3250  201.3890  149.2780 O   0  0  0  0  0  0  0  0  0  0  0  0
  161.1990  203.1700  148.6140 C   0  0  0  0  0  2  0  0  0  0  0  0
  162.2070  204.3300  146.6560 C   0  0  0  0  0  1  0  0  0  0  0  0
  160.8310  202.3060  146.3240 C   0  0  0  0  0  1  0  0  0  0  0  0
  161.8240  202.9850  147.2430 C   0  0  0  0  0  3  0  0  0  0  0  0
  2  8  2  0  0  0  0
  3  8  1  0  0  0  0
  3 14  1  0  0  0  0
  4 19  1  0  0  0  0
  4  2  1  1  0  0  0
  5  9  1  0  0  0  0
  6  4  1  0  0  0  0
  7 20  1  0  0  0  0
  7  5  1  0  0  0  0
  9 19  1  0  0  0  0
 10  1  1  1  0  0  0
 10 18  1  0  0  0  0
 10 16  1  0  0  0  0
 11  1  2  0  0  0  0
 11 13  1  0  0  0  0
 12  6  2  0  0  0  0
 13  7  2  0  0  0  0
 15 28  1  0  0  0  0
 15 12  1  0  0  0  0
 16  5  2  0  0  0  0
 16  6  1  0  0  0  0
 17  3  2  0  0  0  0
 18 15  2  0  0  0  0
 19 17  1  1  0  0  0
 21 22  1  0  0  0  0
 21 23  2  0  0  0  0
 22 20  1  0  0  0  0
 24 21  1  0  0  0  0
 25 24  1  0  0  0  0
 26 25  1  0  0  0  0
 27 25  1  0  0  0  0
 29 28  1  6  0  0  0
 30 33  1  6  0  0  0
 30 31  1  0  0  0  0
 30 29  1  0  0  0  0
 31 29  1  0  0  0  0
 32 33  2  0  0  0  0
 34 33  2  0  0  0  0
 35 33  1  0  0  0  0
 36 38  1  0  0  0  0
 37 38  1  0  0  0  0
 38 35  1  0  0  0  0
M  END
>  <MODEL>
7

>  <REMARK>
 VINA RESULT:      -7.1      3.592      8.163
  Name = 
  9 active torsions:
  status: ('A' for Active; 'I' for Inactive)
    1  A    between atoms: N_6  and  C_14
    2  A    between atoms: C_9  and  C_17
    3  A    between atoms: S_10  and  C_31
    4  A    between atoms: S_10  and  C_33
    5  A    between atoms: C_11  and  C_14
    6  A    between atoms: N_15  and  C_17
    7  A    between atoms: C_16  and  N_28
    8  A    between atoms: N_28  and  C_29
    9  A    between atoms: C_33  and  C_34
                            x       y       z     vdW  Elec       q    Type
                         _______ _______ _______ _____ _____    ______ ____

>  <TORSDO>
F 9

$$$$
=
 OpenBabel11042422493D

 38 42  0  0  1  0  0  0  0  0999 V2000
  162.1970  210.7190  148.6360 C   0  0  0  0  0  3  0  0  0  0  0  0
  161.1450  207.4190  153.9050 C   0  0  0  0  0  3  0  0  0  0  0  0
  160.4280  208.8350  155.7680 C   0  0  0  0  0  0  0  0  0  0  0  0
  161.2760  208.6350  153.0690 C   0  0  2  0  0  3  0  0  0  0  0  0
  161.1070  210.9760  151.5440 C   0  0  0  0  0  0  0  0  0  0  0  0
  161.4230  208.5940  151.7280 C   0  0  0  0  0  0  0  0  0  0  0  0
  160.7590  212.2630  150.8840 C   0  0  0  0  0  0  0  0  0  0  0  0
  160.7570  207.5230  155.1790 C   0  0  0  0  0  3  0  0  0  0  0  0
  160.9090  210.9860  152.9330 O   0  0  0  0  0  0  0  0  0  0  0  0
  161.7780  209.6580  149.5530 C   0  0  2  0  0  3  0  0  0  0  0  0
  161.9560  212.0150  148.6970 C   0  0  0  0  0  3  0  0  0  0  0  0
  161.5370  207.3430  151.1050 C   0  0  0  0  0  3  0  0  0  0  0  0
  161.1620  212.7000  149.6990 C   0  0  0  0  0  3  0  0  0  0  0  0
  159.8360  208.8940  157.0220 O   0  0  0  0  0  1  0  0  0  0  0  0
  161.7540  207.2350  149.7430 C   0  0  0  0  0  0  0  0  0  0  0  0
  161.4570  209.7960  150.9380 C   0  0  0  0  0  0  0  0  0  0  0  0
  160.6700  209.9660  155.0960 C   0  0  0  0  0  3  0  0  0  0  0  0
  161.9110  208.3900  148.9890 C   0  0  0  0  0  3  0  0  0  0  0  0
  161.3850  209.9530  153.7720 C   0  0  1  0  0  3  0  0  0  0  0  0
  159.9170  213.2420  151.6480 C   0  0  0  0  0  2  0  0  0  0  0  0
  158.3690  212.7790  153.6040 C   0  0  0  0  0  0  0  0  0  0  0  0
  158.7720  212.5690  152.2500 N   0  0  0  0  0  2  0  0  0  0  0  0
  159.0730  213.4760  154.3810 O   0  0  0  0  0  0  0  0  0  0  0  0
  157.0730  212.1980  154.0930 C   0  0  0  0  0  2  0  0  0  0  0  0
  156.2460  213.1390  154.8650 N   0  0  0  0  0  0  0  0  0  0  0  0
  155.2060  213.7110  154.0200 C   0  0  0  0  0  1  0  0  0  0  0  0
  155.6060  212.4500  155.9730 C   0  0  0  0  0  1  0  0  0  0  0  0
  161.8940  205.9400  149.1530 N   0  0  0  0  0  2  0  0  0  0  0  0
  160.9460  204.8570  149.3900 C   0  0  1  0  0  3  0  0  0  0  0  0
  160.6900  204.0020  148.1900 C   0  0  2  0  0  3  0  0  0  0  0  0
  161.5880  203.6190  149.2060 O   0  0  0  0  0  0  0  0  0  0  0  0
  161.1790  205.7360  146.1610 O   0  0  0  0  0  0  0  0  0  0  0  0
  161.6030  204.3930  146.6890 S   0  0  0  0  0  0  0  0  0  0  0  0
  163.0820  204.4010  146.9580 O   0  0  0  0  0  0  0  0  0  0  0  0
  161.2690  203.1430  145.4560 C   0  0  0  0  0  2  0  0  0  0  0  0
  161.2100  201.0680  146.8280 C   0  0  0  0  0  1  0  0  0  0  0  0
  159.7060  201.3110  144.8850 C   0  0  0  0  0  1  0  0  0  0  0  0
  160.3820  202.0490  146.0210 C   0  0  0  0  0  3  0  0  0  0  0  0
  1 11  2  0  0  0  0
  2  8  2  0  0  0  0
  3 14  1  0  0  0  0
  4 19  1  0  0  0  0
  4  2  1  1  0  0  0
  5  9  1  0  0  0  0
  6  4  1  0  0  0  0
  7  5  1  0  0  0  0
  7 20  1  0  0  0  0
  8  3  1  0  0  0  0
  9 19  1  0  0  0  0
 10  1  1  1  0  0  0
 10 16  1  0  0  0  0
 11 13  1  0  0  0  0
 12  6  2  0  0  0  0
 13  7  2  0  0  0  0
 15 12  1  0  0  0  0
 16  5  2  0  0  0  0
 16  6  1  0  0  0  0
 17  3  2  0  0  0  0
 18 10  1  0  0  0  0
 18 15  2  0  0  0  0
 19 17  1  1  0  0  0
 20 22  1  0  0  0  0
 21 24  1  0  0  0  0
 21 23  2  0  0  0  0
 22 21  1  0  0  0  0
 24 25  1  0  0  0  0
 25 27  1  0  0  0  0
 26 25  1  0  0  0  0
 28 15  1  0  0  0  0
 29 28  1  6  0  0  0
 30 33  1  6  0  0  0
 30 31  1  0  0  0  0
 30 29  1  0  0  0  0
 31 29  1  0  0  0  0
 32 33  2  0  0  0  0
 33 34  2  0  0  0  0
 35 38  1  0  0  0  0
 35 33  1  0  0  0  0
 37 38  1  0  0  0  0
 38 36  1  0  0  0  0
M  END
>  <MODEL>
8

>  <REMARK>
 VINA RESULT:      -7.0      2.816      9.474
  Name = 
  9 active torsions:
  status: ('A' for Active; 'I' for Inactive)
    1  A    between atoms: N_6  and  C_14
    2  A    between atoms: C_9  and  C_17
    3  A    between atoms: S_10  and  C_31
    4  A    between atoms: S_10  and  C_33
    5  A    between atoms: C_11  and  C_14
    6  A    between atoms: N_15  and  C_17
    7  A    between atoms: C_16  and  N_28
    8  A    between atoms: N_28  and  C_29
    9  A    between atoms: C_33  and  C_34
                            x       y       z     vdW  Elec       q    Type
                         _______ _______ _______ _____ _____    ______ ____

>  <TORSDO>
F 9

$$$$
=
 OpenBabel11042422493D

 38 42  0  0  1  0  0  0  0  0999 V2000
  162.1590  208.0460  148.7910 C   0  0  0  0  0  3  0  0  0  0  0  0
  160.7810  207.3480  154.9040 C   0  0  0  0  0  3  0  0  0  0  0  0
  160.8010  209.4730  156.1160 C   0  0  0  0  0  0  0  0  0  0  0  0
  161.1890  208.0740  153.6800 C   0  0  2  0  0  3  0  0  0  0  0  0
  161.5890  209.6500  151.4010 C   0  0  0  0  0  0  0  0  0  0  0  0
  161.1430  207.5260  152.4480 C   0  0  0  0  0  0  0  0  0  0  0  0
  161.5920  210.6660  150.3150 C   0  0  0  0  0  0  0  0  0  0  0  0
  160.6130  208.0110  156.0510 C   0  0  0  0  0  3  0  0  0  0  0  0
  161.5830  210.2070  152.6890 O   0  0  0  0  0  0  0  0  0  0  0  0
  161.5420  207.5810  150.0340 C   0  0  2  0  0  3  0  0  0  0  0  0
  162.3580  209.2810  148.3710 C   0  0  0  0  0  3  0  0  0  0  0  0
  160.7690  206.1800  152.3280 C   0  0  0  0  0  3  0  0  0  0  0  0
  161.9610  210.4990  149.0510 C   0  0  0  0  0  3  0  0  0  0  0  0
  160.4240  210.1620  157.2610 O   0  0  0  0  0  1  0  0  0  0  0  0
  160.7650  205.5400  151.1010 C   0  0  0  0  0  0  0  0  0  0  0  0
  161.4620  208.2910  151.2710 C   0  0  0  0  0  0  0  0  0  0  0  0
  161.3060  210.1450  155.0750 C   0  0  0  0  0  3  0  0  0  0  0  0
  161.1880  206.2340  149.9760 C   0  0  0  0  0  3  0  0  0  0  0  0
  161.8040  209.4300  153.8490 C   0  0  1  0  0  3  0  0  0  0  0  0
  161.2140  212.0740  150.6650 C   0  0  0  0  0  2  0  0  0  0  0  0
  159.2310  213.3130  151.6480 C   0  0  0  0  0  0  0  0  0  0  0  0
  159.9230  212.1030  151.3410 N   0  0  0  0  0  2  0  0  0  0  0  0
  159.7770  214.4300  151.4510 O   0  0  0  0  0  0  0  0  0  0  0  0
  157.8240  213.2540  152.1720 C   0  0  0  0  0  2  0  0  0  0  0  0
  157.7310  213.2270  153.6400 N   0  0  0  0  0  0  0  0  0  0  0  0
  156.3610  213.4770  154.0660 C   0  0  0  0  0  1  0  0  0  0  0  0
  158.1330  211.9230  154.1440 C   0  0  0  0  0  1  0  0  0  0  0  0
  160.4050  204.1580  151.0290 N   0  0  0  0  0  2  0  0  0  0  0  0
  161.0610  203.1280  151.8270 C   0  0  1  0  0  3  0  0  0  0  0  0
  161.3030  201.8510  151.0870 C   0  0  2  0  0  3  0  0  0  0  0  0
  162.3110  202.8190  151.2610 O   0  0  0  0  0  0  0  0  0  0  0  0
  161.5780  200.7190  148.6360 O   0  0  0  0  0  0  0  0  0  0  0  0
  160.8100  201.7940  149.3560 S   0  0  0  0  0  0  0  0  0  0  0  0
  159.3360  201.5260  149.2370 O   0  0  0  0  0  0  0  0  0  0  0  0
  161.1520  203.3730  148.5950 C   0  0  0  0  0  2  0  0  0  0  0  0
  162.1240  204.5400  146.6240 C   0  0  0  0  0  1  0  0  0  0  0  0
  160.8300  202.4600  146.3180 C   0  0  0  0  0  1  0  0  0  0  0  0
  161.7900  203.1910  147.2300 C   0  0  0  0  0  3  0  0  0  0  0  0
  2  8  2  0  0  0  0
  3 14  1  0  0  0  0
  4 19  1  0  0  0  0
  4  2  1  1  0  0  0
  5  9  1  0  0  0  0
  6  4  1  0  0  0  0
  7 20  1  0  0  0  0
  7  5  1  0  0  0  0
  8  3  1  0  0  0  0
  9 19  1  0  0  0  0
 10  1  1  1  0  0  0
 10 16  1  0  0  0  0
 11  1  2  0  0  0  0
 11 13  1  0  0  0  0
 12  6  2  0  0  0  0
 13  7  2  0  0  0  0
 15 12  1  0  0  0  0
 16  5  2  0  0  0  0
 16  6  1  0  0  0  0
 17  3  2  0  0  0  0
 18 10  1  0  0  0  0
 18 15  2  0  0  0  0
 19 17  1  1  0  0  0
 20 22  1  0  0  0  0
 21 24  1  0  0  0  0
 22 21  1  0  0  0  0
 23 21  2  0  0  0  0
 24 25  1  0  0  0  0
 25 26  1  0  0  0  0
 25 27  1  0  0  0  0
 28 15  1  0  0  0  0
 29 28  1  6  0  0  0
 30 33  1  6  0  0  0
 30 31  1  0  0  0  0
 30 29  1  0  0  0  0
 31 29  1  0  0  0  0
 32 33  2  0  0  0  0
 34 33  2  0  0  0  0
 35 33  1  0  0  0  0
 36 38  1  0  0  0  0
 37 38  1  0  0  0  0
 38 35  1  0  0  0  0
M  END
>  <MODEL>
9

>  <REMARK>
 VINA RESULT:      -6.6      3.251      8.673
  Name = 
  9 active torsions:
  status: ('A' for Active; 'I' for Inactive)
    1  A    between atoms: N_6  and  C_14
    2  A    between atoms: C_9  and  C_17
    3  A    between atoms: S_10  and  C_31
    4  A    between atoms: S_10  and  C_33
    5  A    between atoms: C_11  and  C_14
    6  A    between atoms: N_15  and  C_17
    7  A    between atoms: C_16  and  N_28
    8  A    between atoms: N_28  and  C_29
    9  A    between atoms: C_33  and  C_34
                            x       y       z     vdW  Elec       q    Type
                         _______ _______ _______ _____ _____    ______ ____

>  <TORSDO>
F 9

$$$$
