=
 OpenBabel11042422303D

 34 37  0  0  1  0  0  0  0  0999 V2000
  161.2680  208.2830  151.3640 C   0  0  1  0  0  3  0  0  0  0  0  0
  160.8090  211.3290  153.1120 N   0  0  0  0  0  0  0  0  0  0  0  0
  160.7840  210.3660  154.0280 N   0  0  0  0  0  0  0  0  0  0  0  0
  160.8170  207.2920  152.4220 C   0  0  0  0  0  3  0  0  0  0  0  0
  160.8340  207.8910  153.6140 C   0  0  0  0  0  0  0  0  0  0  0  0
  161.2600  209.2630  153.4200 C   0  0  0  0  0  0  0  0  0  0  0  0
  161.2350  210.7680  151.9590 C   0  0  0  0  0  0  0  0  0  0  0  0
  161.5570  209.4770  152.1490 N   0  0  0  0  0  0  0  0  0  0  0  0
  162.1450  211.1280  149.5140 C   0  0  0  0  0  2  0  0  0  0  0  0
  161.8750  213.2960  146.2710 C   0  0  0  0  0  0  0  0  0  0  0  0
  161.2430  211.4550  150.6560 C   0  0  0  0  0  0  0  0  0  0  0  0
  160.7520  212.9290  148.9970 N   0  0  0  0  0  0  0  0  0  0  0  0
  162.2630  212.3130  147.2370 N   0  0  0  0  0  2  0  0  0  0  0  0
  162.5810  213.3550  144.9660 C   0  0  0  0  0  1  0  0  0  0  0  0
  161.6920  212.1670  148.5420 C   0  0  0  0  0  0  0  0  0  0  0  0
  160.4780  212.4800  150.3130 C   0  0  0  0  0  0  0  0  0  0  0  0
  159.5450  213.0540  151.1120 F   0  0  0  0  0  0  0  0  0  0  0  0
  160.9540  214.1210  146.5150 O   0  0  0  0  0  0  0  0  0  0  0  0
  160.3760  207.2730  154.8220 N   0  0  0  0  0  2  0  0  0  0  0  0
  160.2410  206.9460  157.2590 N   0  0  0  0  0  1  0  0  0  0  0  0
  160.8940  207.5180  156.1320 C   0  0  0  0  0  0  0  0  0  0  0  0
  161.9360  208.2040  156.3020 O   0  0  0  0  0  0  0  0  0  0  0  0
  162.5090  207.7980  150.6130 C   0  0  0  0  0  2  0  0  0  0  0  0
  162.2080  207.3820  149.1820 C   0  0  0  0  0  2  0  0  0  0  0  0
  160.7460  207.0070  149.0610 C   0  0  0  0  0  2  0  0  0  0  0  0
  160.5940  205.9320  148.0040 C   0  0  0  0  0  2  0  0  0  0  0  0
  161.4730  204.8030  148.3030 N   0  0  0  0  0  0  0  0  0  0  0  0
  160.7380  202.4420  148.7530 C   0  0  0  0  0  1  0  0  0  0  0  0
  160.8190  203.8830  149.2500 C   0  0  1  0  0  3  0  0  0  0  0  0
  160.4280  203.9800  151.6600 N   0  0  0  0  0  2  0  0  0  0  0  0
  161.4730  203.9470  150.6240 C   0  0  1  0  0  3  0  0  0  0  0  0
  161.1650  202.7380  151.3790 C   0  0  0  0  0  2  0  0  0  0  0  0
  161.9760  204.1370  147.0860 C   0  0  0  0  0  2  0  0  0  0  0  0
  163.0680  204.9200  146.3550 C   0  0  0  0  0  1  0  0  0  0  0  0
  1 23  1  1  0  0  0
  1  8  1  0  0  0  0
  1  4  1  0  0  0  0
  2  3  1  0  0  0  0
  4  5  2  0  0  0  0
  5 19  1  0  0  0  0
  6  5  1  0  0  0  0
  6  3  2  0  0  0  0
  7  8  1  0  0  0  0
  7  2  2  0  0  0  0
  8  6  1  0  0  0  0
  9 11  1  0  0  0  0
 10 18  2  0  0  0  0
 10 13  1  0  0  0  0
 11  7  1  0  0  0  0
 12 16  1  0  0  0  0
 13 15  1  0  0  0  0
 14 10  1  0  0  0  0
 15 12  2  0  0  0  0
 15  9  1  0  0  0  0
 16 11  2  0  0  0  0
 16 17  1  0  0  0  0
 19 21  1  0  0  0  0
 21 22  2  0  0  0  0
 21 20  1  0  0  0  0
 24 23  1  0  0  0  0
 25 24  1  0  0  0  0
 26 27  1  0  0  0  0
 26 25  1  0  0  0  0
 27 29  1  0  0  0  0
 29 28  1  6  0  0  0
 31 29  1  6  0  0  0
 31 32  1  0  0  0  0
 31 30  1  0  0  0  0
 32 30  1  0  0  0  0
 33 27  1  0  0  0  0
 34 33  1  0  0  0  0
M  END
>  <MODEL>
1

>  <REMARK>
 VINA RESULT:      -7.4      0.000      0.000
  Name = 
  10 active torsions:
  status: ('A' for Active; 'I' for Inactive)
    1  A    between atoms: C_1  and  C_2
    2  A    between atoms: C_1  and  C_24
    3  A    between atoms: C_6  and  C_11
    4  A    between atoms: C_6  and  N_15
    5  A    between atoms: N_8  and  C_17
    6  A    between atoms: C_9  and  C_31
    7  A    between atoms: C_11  and  C_24
    8  A    between atoms: N_15  and  C_16
    9  A    between atoms: N_15  and  C_30
   10  A    between atoms: C_27  and  C_30
                            x       y       z     vdW  Elec       q    Type
                         _______ _______ _______ _____ _____    ______ ____

>  <TORSDO>
F 10

$$$$
=
 OpenBabel11042422303D

 34 37  0  0  1  0  0  0  0  0999 V2000
  161.2070  207.6140  149.4480 C   0  0  1  0  0  3  0  0  0  0  0  0
  161.0340  204.8010  151.5930 N   0  0  0  0  0  0  0  0  0  0  0  0
  161.1510  204.3210  150.3590 N   0  0  0  0  0  0  0  0  0  0  0  0
  160.9280  206.9530  148.1100 C   0  0  0  0  0  3  0  0  0  0  0  0
  161.1320  205.6390  148.2220 C   0  0  0  0  0  0  0  0  0  0  0  0
  161.5240  205.3620  149.5910 C   0  0  0  0  0  0  0  0  0  0  0  0
  161.2730  206.1290  151.5270 C   0  0  0  0  0  0  0  0  0  0  0  0
  161.6180  206.4880  150.2790 N   0  0  0  0  0  0  0  0  0  0  0  0
  160.9160  208.5410  152.5210 C   0  0  0  0  0  2  0  0  0  0  0  0
  160.5210  210.6420  155.7950 C   0  0  0  0  0  0  0  0  0  0  0  0
  161.0760  207.0640  152.6480 C   0  0  0  0  0  0  0  0  0  0  0  0
  160.8700  207.8790  154.7590 N   0  0  0  0  0  0  0  0  0  0  0  0
  160.6310  210.2440  154.4240 N   0  0  0  0  0  2  0  0  0  0  0  0
  160.3910  212.0840  156.1280 C   0  0  0  0  0  1  0  0  0  0  0  0
  160.7950  208.8980  153.9660 C   0  0  0  0  0  0  0  0  0  0  0  0
  161.0450  206.7420  153.9320 C   0  0  0  0  0  0  0  0  0  0  0  0
  161.1740  205.4840  154.4210 F   0  0  0  0  0  0  0  0  0  0  0  0
  160.5460  209.7920  156.7240 O   0  0  0  0  0  0  0  0  0  0  0  0
  160.8680  204.7000  147.1750 N   0  0  0  0  0  2  0  0  0  0  0  0
  161.4590  203.1630  145.3420 N   0  0  0  0  0  1  0  0  0  0  0  0
  161.8270  204.2090  146.2340 C   0  0  0  0  0  0  0  0  0  0  0  0
  162.9810  204.7080  146.1610 O   0  0  0  0  0  0  0  0  0  0  0  0
  162.3150  208.6640  149.3490 C   0  0  0  0  0  2  0  0  0  0  0  0
  161.9610  209.8080  148.4120 C   0  0  0  0  0  2  0  0  0  0  0  0
  162.0580  211.1210  149.1600 C   0  0  0  0  0  2  0  0  0  0  0  0
  162.6310  212.1780  148.2370 C   0  0  0  0  0  2  0  0  0  0  0  0
  161.6850  213.2830  148.0890 N   0  0  0  0  0  0  0  0  0  0  0  0
  162.3690  213.2900  145.6700 C   0  0  0  0  0  1  0  0  0  0  0  0
  161.2360  213.3870  146.6890 C   0  0  1  0  0  3  0  0  0  0  0  0
  158.9670  213.0720  145.8420 N   0  0  0  0  0  2  0  0  0  0  0  0
  160.1420  212.3720  146.3830 C   0  0  1  0  0  3  0  0  0  0  0  0
  159.8800  212.3410  144.9490 C   0  0  0  0  0  2  0  0  0  0  0  0
  160.5750  213.2150  149.0600 C   0  0  0  0  0  2  0  0  0  0  0  0
  160.4490  214.4530  149.9490 C   0  0  0  0  0  1  0  0  0  0  0  0
  1 23  1  6  0  0  0
  1  8  1  0  0  0  0
  3  2  1  0  0  0  0
  4  5  2  0  0  0  0
  4  1  1  0  0  0  0
  5  6  1  0  0  0  0
  6  8  1  0  0  0  0
  6  3  2  0  0  0  0
  7  2  2  0  0  0  0
  7 11  1  0  0  0  0
  8  7  1  0  0  0  0
  9 11  1  0  0  0  0
  9 15  1  0  0  0  0
 10 14  1  0  0  0  0
 10 18  2  0  0  0  0
 11 16  2  0  0  0  0
 13 10  1  0  0  0  0
 15 13  1  0  0  0  0
 15 12  2  0  0  0  0
 16 17  1  0  0  0  0
 16 12  1  0  0  0  0
 19  5  1  0  0  0  0
 20 21  1  0  0  0  0
 21 19  1  0  0  0  0
 22 21  2  0  0  0  0
 24 25  1  0  0  0  0
 24 23  1  0  0  0  0
 26 25  1  0  0  0  0
 27 26  1  0  0  0  0
 27 33  1  0  0  0  0
 29 28  1  6  0  0  0
 29 27  1  0  0  0  0
 30 31  1  0  0  0  0
 31 29  1  6  0  0  0
 32 30  1  0  0  0  0
 32 31  1  0  0  0  0
 33 34  1  0  0  0  0
M  END
>  <MODEL>
2

>  <REMARK>
 VINA RESULT:      -7.2      2.802      8.132
  Name = 
  10 active torsions:
  status: ('A' for Active; 'I' for Inactive)
    1  A    between atoms: C_1  and  C_2
    2  A    between atoms: C_1  and  C_24
    3  A    between atoms: C_6  and  C_11
    4  A    between atoms: C_6  and  N_15
    5  A    between atoms: N_8  and  C_17
    6  A    between atoms: C_9  and  C_31
    7  A    between atoms: C_11  and  C_24
    8  A    between atoms: N_15  and  C_16
    9  A    between atoms: N_15  and  C_30
   10  A    between atoms: C_27  and  C_30
                            x       y       z     vdW  Elec       q    Type
                         _______ _______ _______ _____ _____    ______ ____

>  <TORSDO>
F 10

$$$$
=
 OpenBabel11042422303D

 34 37  0  0  1  0  0  0  0  0999 V2000
  161.6510  208.6320  149.0940 C   0  0  1  0  0  3  0  0  0  0  0  0
  161.5810  211.6810  150.8970 N   0  0  0  0  0  0  0  0  0  0  0  0
  161.5170  210.7110  151.8030 N   0  0  0  0  0  0  0  0  0  0  0  0
  161.1700  207.6720  150.1680 C   0  0  0  0  0  3  0  0  0  0  0  0
  161.3100  208.2480  151.3630 C   0  0  0  0  0  0  0  0  0  0  0  0
  161.8520  209.5780  151.1580 C   0  0  0  0  0  0  0  0  0  0  0  0
  161.8860  211.1000  149.7150 C   0  0  0  0  0  0  0  0  0  0  0  0
  162.0950  209.7820  149.8730 N   0  0  0  0  0  0  0  0  0  0  0  0
  160.7160  211.9090  147.4990 C   0  0  0  0  0  2  0  0  0  0  0  0
  161.2080  213.7920  144.1080 C   0  0  0  0  0  0  0  0  0  0  0  0
  161.8840  211.8030  148.4200 C   0  0  0  0  0  0  0  0  0  0  0  0
  162.5950  212.9660  146.6020 N   0  0  0  0  0  0  0  0  0  0  0  0
  160.6470  213.0600  145.2020 N   0  0  0  0  0  2  0  0  0  0  0  0
  160.3680  214.0810  142.9170 C   0  0  0  0  0  1  0  0  0  0  0  0
  161.3500  212.6840  146.3910 C   0  0  0  0  0  0  0  0  0  0  0  0
  162.9190  212.4140  147.8660 C   0  0  0  0  0  0  0  0  0  0  0  0
  164.1550  212.5050  148.4180 F   0  0  0  0  0  0  0  0  0  0  0  0
  162.4050  214.1830  144.1310 O   0  0  0  0  0  0  0  0  0  0  0  0
  160.8660  207.6580  152.5880 N   0  0  0  0  0  2  0  0  0  0  0  0
  161.0190  206.1620  154.5400 N   0  0  0  0  0  1  0  0  0  0  0  0
  161.4790  206.5470  153.2500 C   0  0  0  0  0  0  0  0  0  0  0  0
  162.3960  205.8860  152.6960 O   0  0  0  0  0  0  0  0  0  0  0  0
  162.7960  208.0450  148.2690 C   0  0  0  0  0  2  0  0  0  0  0  0
  162.5260  206.6180  147.8160 C   0  0  0  0  0  2  0  0  0  0  0  0
  161.1750  206.5530  147.1340 C   0  0  0  0  0  2  0  0  0  0  0  0
  160.5340  205.2110  147.4270 C   0  0  0  0  0  2  0  0  0  0  0  0
  161.5400  204.1510  147.3740 N   0  0  0  0  0  0  0  0  0  0  0  0
  160.8030  203.8950  149.7640 C   0  0  0  0  0  1  0  0  0  0  0  0
  161.3710  203.2310  148.5130 C   0  0  1  0  0  3  0  0  0  0  0  0
  161.2110  200.7950  148.6060 N   0  0  0  0  0  2  0  0  0  0  0  0
  160.5440  202.0130  148.1210 C   0  0  1  0  0  3  0  0  0  0  0  0
  160.0470  201.3440  149.3180 C   0  0  0  0  0  2  0  0  0  0  0  0
  161.5770  203.4690  146.0660 C   0  0  0  0  0  2  0  0  0  0  0  0
  160.9610  204.2790  144.9240 C   0  0  0  0  0  1  0  0  0  0  0  0
  1 23  1  1  0  0  0
  1  8  1  0  0  0  0
  1  4  1  0  0  0  0
  2  3  1  0  0  0  0
  4  5  2  0  0  0  0
  5 19  1  0  0  0  0
  6  5  1  0  0  0  0
  6  3  2  0  0  0  0
  7  8  1  0  0  0  0
  7  2  2  0  0  0  0
  8  6  1  0  0  0  0
  9 11  1  0  0  0  0
 10 18  2  0  0  0  0
 10 13  1  0  0  0  0
 11  7  1  0  0  0  0
 12 16  1  0  0  0  0
 13 15  1  0  0  0  0
 14 10  1  0  0  0  0
 15 12  2  0  0  0  0
 15  9  1  0  0  0  0
 16 17  1  0  0  0  0
 16 11  2  0  0  0  0
 19 21  1  0  0  0  0
 21 20  1  0  0  0  0
 22 21  2  0  0  0  0
 24 23  1  0  0  0  0
 25 26  1  0  0  0  0
 25 24  1  0  0  0  0
 27 26  1  0  0  0  0
 27 29  1  0  0  0  0
 29 28  1  1  0  0  0
 30 32  1  0  0  0  0
 31 29  1  1  0  0  0
 31 30  1  0  0  0  0
 31 32  1  0  0  0  0
 33 27  1  0  0  0  0
 34 33  1  0  0  0  0
M  END
>  <MODEL>
3

>  <REMARK>
 VINA RESULT:      -6.8      2.074      2.708
  Name = 
  10 active torsions:
  status: ('A' for Active; 'I' for Inactive)
    1  A    between atoms: C_1  and  C_2
    2  A    between atoms: C_1  and  C_24
    3  A    between atoms: C_6  and  C_11
    4  A    between atoms: C_6  and  N_15
    5  A    between atoms: N_8  and  C_17
    6  A    between atoms: C_9  and  C_31
    7  A    between atoms: C_11  and  C_24
    8  A    between atoms: N_15  and  C_16
    9  A    between atoms: N_15  and  C_30
   10  A    between atoms: C_27  and  C_30
                            x       y       z     vdW  Elec       q    Type
                         _______ _______ _______ _____ _____    ______ ____

>  <TORSDO>
F 10

$$$$
=
 OpenBabel11042422303D

 34 37  0  0  1  0  0  0  0  0999 V2000
  162.1690  208.8900  151.2520 C   0  0  1  0  0  3  0  0  0  0  0  0
  160.6610  206.5930  153.4860 N   0  0  0  0  0  0  0  0  0  0  0  0
  160.8070  207.7280  154.1620 N   0  0  0  0  0  0  0  0  0  0  0  0
  162.6380  209.9530  152.2300 C   0  0  0  0  0  3  0  0  0  0  0  0
  161.9790  209.8070  153.3810 C   0  0  0  0  0  0  0  0  0  0  0  0
  161.0840  208.6730  153.2440 C   0  0  0  0  0  0  0  0  0  0  0  0
  160.9200  206.8670  152.1890 C   0  0  0  0  0  0  0  0  0  0  0  0
  161.1520  208.1800  152.0180 N   0  0  0  0  0  0  0  0  0  0  0  0
  161.0090  206.1180  149.6660 C   0  0  0  0  0  2  0  0  0  0  0  0
  161.2450  203.0740  147.2240 C   0  0  0  0  0  0  0  0  0  0  0  0
  161.0350  205.8480  151.1320 C   0  0  0  0  0  0  0  0  0  0  0  0
  161.2050  203.8320  150.0960 N   0  0  0  0  0  0  0  0  0  0  0  0
  161.1410  204.3950  147.7640 N   0  0  0  0  0  2  0  0  0  0  0  0
  161.2070  202.8820  145.7510 C   0  0  0  0  0  1  0  0  0  0  0  0
  161.1300  204.7190  149.1580 C   0  0  0  0  0  0  0  0  0  0  0  0
  161.1450  204.5410  151.3210 C   0  0  0  0  0  0  0  0  0  0  0  0
  161.1860  203.9330  152.5320 F   0  0  0  0  0  0  0  0  0  0  0  0
  161.3520  202.0690  147.9760 O   0  0  0  0  0  0  0  0  0  0  0  0
  162.2430  210.5830  154.5540 N   0  0  0  0  0  2  0  0  0  0  0  0
  161.6950  211.6470  156.7070 N   0  0  0  0  0  1  0  0  0  0  0  0
  161.2670  211.0100  155.5090 C   0  0  0  0  0  0  0  0  0  0  0  0
  160.0360  210.8620  155.2910 O   0  0  0  0  0  0  0  0  0  0  0  0
  161.5810  209.5010  149.9790 C   0  0  0  0  0  2  0  0  0  0  0  0
  161.9640  210.9610  149.7940 C   0  0  0  0  0  2  0  0  0  0  0  0
  162.3300  211.2060  148.3450 C   0  0  0  0  0  2  0  0  0  0  0  0
  162.1120  212.6700  148.0170 C   0  0  0  0  0  2  0  0  0  0  0  0
  161.2320  212.8000  146.8570 N   0  0  0  0  0  0  0  0  0  0  0  0
  159.6970  213.7710  148.5960 C   0  0  0  0  0  1  0  0  0  0  0  0
  159.8360  212.9860  147.2940 C   0  0  1  0  0  3  0  0  0  0  0  0
  158.1220  212.5790  145.6020 N   0  0  0  0  0  2  0  0  0  0  0  0
  158.9910  213.6090  146.1910 C   0  0  1  0  0  3  0  0  0  0  0  0
  157.5800  213.5580  146.5570 C   0  0  0  0  0  2  0  0  0  0  0  0
  161.6940  213.8290  145.9060 C   0  0  0  0  0  2  0  0  0  0  0  0
  162.7450  213.3310  144.9130 C   0  0  0  0  0  1  0  0  0  0  0  0
  1 23  1  6  0  0  0
  1  8  1  0  0  0  0
  1  4  1  0  0  0  0
  2  3  1  0  0  0  0
  4  5  2  0  0  0  0
  5 19  1  0  0  0  0
  6  5  1  0  0  0  0
  6  3  2  0  0  0  0
  7  2  2  0  0  0  0
  8  7  1  0  0  0  0
  8  6  1  0  0  0  0
  9 11  1  0  0  0  0
 10 13  1  0  0  0  0
 10 18  2  0  0  0  0
 11 16  2  0  0  0  0
 11  7  1  0  0  0  0
 12 16  1  0  0  0  0
 13 15  1  0  0  0  0
 14 10  1  0  0  0  0
 15  9  1  0  0  0  0
 15 12  2  0  0  0  0
 16 17  1  0  0  0  0
 19 21  1  0  0  0  0
 21 20  1  0  0  0  0
 22 21  2  0  0  0  0
 24 23  1  0  0  0  0
 25 24  1  0  0  0  0
 26 25  1  0  0  0  0
 27 29  1  0  0  0  0
 27 26  1  0  0  0  0
 29 28  1  1  0  0  0
 30 31  1  0  0  0  0
 30 32  1  0  0  0  0
 31 32  1  0  0  0  0
 31 29  1  1  0  0  0
 33 27  1  0  0  0  0
 34 33  1  0  0  0  0
M  END
>  <MODEL>
4

>  <REMARK>
 VINA RESULT:      -6.7      3.050      7.344
  Name = 
  10 active torsions:
  status: ('A' for Active; 'I' for Inactive)
    1  A    between atoms: C_1  and  C_2
    2  A    between atoms: C_1  and  C_24
    3  A    between atoms: C_6  and  C_11
    4  A    between atoms: C_6  and  N_15
    5  A    between atoms: N_8  and  C_17
    6  A    between atoms: C_9  and  C_31
    7  A    between atoms: C_11  and  C_24
    8  A    between atoms: N_15  and  C_16
    9  A    between atoms: N_15  and  C_30
   10  A    between atoms: C_27  and  C_30
                            x       y       z     vdW  Elec       q    Type
                         _______ _______ _______ _____ _____    ______ ____

>  <TORSDO>
F 10

$$$$
=
 OpenBabel11042422303D

 34 37  0  0  1  0  0  0  0  0999 V2000
  158.9570  211.6750  152.9550 C   0  0  1  0  0  3  0  0  0  0  0  0
  156.8800  214.3700  151.9730 N   0  0  0  0  0  0  0  0  0  0  0  0
  156.5990  214.1300  153.2490 N   0  0  0  0  0  0  0  0  0  0  0  0
  158.2650  211.2530  154.2390 C   0  0  0  0  0  3  0  0  0  0  0  0
  157.4790  212.2470  154.6570 C   0  0  0  0  0  0  0  0  0  0  0  0
  157.5850  213.3330  153.7030 C   0  0  0  0  0  0  0  0  0  0  0  0
  157.9900  213.6610  151.6700 C   0  0  0  0  0  0  0  0  0  0  0  0
  158.4630  213.0320  152.7600 N   0  0  0  0  0  0  0  0  0  0  0  0
  159.9770  213.6280  149.9440 C   0  0  0  0  0  2  0  0  0  0  0  0
  160.9550  213.2680  146.1750 C   0  0  0  0  0  0  0  0  0  0  0  0
  158.5370  213.5150  150.3100 C   0  0  0  0  0  0  0  0  0  0  0  0
  158.6580  213.2370  148.0580 N   0  0  0  0  0  0  0  0  0  0  0  0
  161.0030  213.4490  147.5940 N   0  0  0  0  0  2  0  0  0  0  0  0
  162.2110  213.3580  145.3860 C   0  0  0  0  0  1  0  0  0  0  0  0
  159.8700  213.4220  148.4690 C   0  0  0  0  0  0  0  0  0  0  0  0
  157.8340  213.2960  149.2100 C   0  0  0  0  0  0  0  0  0  0  0  0
  156.4860  213.1520  149.1640 F   0  0  0  0  0  0  0  0  0  0  0  0
  159.8650  213.0490  145.5820 O   0  0  0  0  0  0  0  0  0  0  0  0
  156.6070  212.1500  155.7880 N   0  0  0  0  0  2  0  0  0  0  0  0
  154.8960  211.0990  157.2150 N   0  0  0  0  0  1  0  0  0  0  0  0
  155.5860  211.1650  155.9730 C   0  0  0  0  0  0  0  0  0  0  0  0
  155.2660  210.3780  155.0430 O   0  0  0  0  0  0  0  0  0  0  0  0
  160.4800  211.6510  153.0900 C   0  0  0  0  0  2  0  0  0  0  0  0
  161.0370  210.2450  153.2530 C   0  0  0  0  0  2  0  0  0  0  0  0
  160.6300  209.4010  152.0630 C   0  0  0  0  0  2  0  0  0  0  0  0
  161.6890  208.3460  151.8170 C   0  0  0  0  0  2  0  0  0  0  0  0
  161.1210  207.0100  151.9950 N   0  0  0  0  0  0  0  0  0  0  0  0
  160.9140  204.7350  150.9470 C   0  0  0  0  0  1  0  0  0  0  0  0
  161.3810  206.1810  150.8050 C   0  0  1  0  0  3  0  0  0  0  0  0
  161.8570  206.9600  148.5390 N   0  0  0  0  0  2  0  0  0  0  0  0
  160.7980  206.8190  149.5500 C   0  0  1  0  0  3  0  0  0  0  0  0
  160.8650  205.8790  148.4370 C   0  0  0  0  0  2  0  0  0  0  0  0
  161.5460  206.3770  153.2590 C   0  0  0  0  0  2  0  0  0  0  0  0
  160.6910  206.7630  154.4670 C   0  0  0  0  0  1  0  0  0  0  0  0
  1 23  1  1  0  0  0
  1  4  1  0  0  0  0
  2  3  1  0  0  0  0
  3  6  2  0  0  0  0
  4  5  2  0  0  0  0
  5 19  1  0  0  0  0
  6  5  1  0  0  0  0
  7  2  2  0  0  0  0
  7  8  1  0  0  0  0
  8  1  1  0  0  0  0
  8  6  1  0  0  0  0
  9 11  1  0  0  0  0
 10 13  1  0  0  0  0
 11  7  1  0  0  0  0
 12 15  2  0  0  0  0
 12 16  1  0  0  0  0
 13 15  1  0  0  0  0
 14 10  1  0  0  0  0
 15  9  1  0  0  0  0
 16 11  2  0  0  0  0
 17 16  1  0  0  0  0
 18 10  2  0  0  0  0
 19 21  1  0  0  0  0
 21 20  1  0  0  0  0
 22 21  2  0  0  0  0
 23 24  1  0  0  0  0
 25 24  1  0  0  0  0
 26 27  1  0  0  0  0
 26 25  1  0  0  0  0
 27 33  1  0  0  0  0
 29 28  1  1  0  0  0
 29 27  1  0  0  0  0
 30 31  1  0  0  0  0
 31 29  1  1  0  0  0
 32 30  1  0  0  0  0
 32 31  1  0  0  0  0
 33 34  1  0  0  0  0
M  END
>  <MODEL>
5

>  <REMARK>
 VINA RESULT:      -6.7      3.289      4.657
  Name = 
  10 active torsions:
  status: ('A' for Active; 'I' for Inactive)
    1  A    between atoms: C_1  and  C_2
    2  A    between atoms: C_1  and  C_24
    3  A    between atoms: C_6  and  C_11
    4  A    between atoms: C_6  and  N_15
    5  A    between atoms: N_8  and  C_17
    6  A    between atoms: C_9  and  C_31
    7  A    between atoms: C_11  and  C_24
    8  A    between atoms: N_15  and  C_16
    9  A    between atoms: N_15  and  C_30
   10  A    between atoms: C_27  and  C_30
                            x       y       z     vdW  Elec       q    Type
                         _______ _______ _______ _____ _____    ______ ____

>  <TORSDO>
F 10

$$$$
=
 OpenBabel11042422303D

 34 37  0  0  1  0  0  0  0  0999 V2000
  160.1330  211.1260  152.0490 C   0  0  1  0  0  3  0  0  0  0  0  0
  158.7790  214.3750  151.6560 N   0  0  0  0  0  0  0  0  0  0  0  0
  158.5490  214.0260  152.9180 N   0  0  0  0  0  0  0  0  0  0  0  0
  159.4610  210.7070  153.3440 C   0  0  0  0  0  3  0  0  0  0  0  0
  159.0060  211.7940  153.9710 C   0  0  0  0  0  0  0  0  0  0  0  0
  159.3210  212.9480  153.1500 C   0  0  0  0  0  0  0  0  0  0  0  0
  159.6300  213.4610  151.1400 C   0  0  0  0  0  0  0  0  0  0  0  0
  160.0060  212.5780  152.0810 N   0  0  0  0  0  0  0  0  0  0  0  0
  161.3990  213.4040  149.1910 C   0  0  0  0  0  2  0  0  0  0  0  0
  161.9100  213.2860  145.3160 C   0  0  0  0  0  0  0  0  0  0  0  0
  160.0040  213.3860  149.7170 C   0  0  0  0  0  0  0  0  0  0  0  0
  159.8450  213.2930  147.4520 N   0  0  0  0  0  0  0  0  0  0  0  0
  162.1330  213.3380  146.7290 N   0  0  0  0  0  2  0  0  0  0  0  0
  163.0720  213.3330  144.3910 C   0  0  0  0  0  1  0  0  0  0  0  0
  161.1080  213.3360  147.7280 C   0  0  0  0  0  0  0  0  0  0  0  0
  159.1650  213.3250  148.6950 C   0  0  0  0  0  0  0  0  0  0  0  0
  157.8130  213.3040  148.8000 F   0  0  0  0  0  0  0  0  0  0  0  0
  160.7440  213.2150  144.8430 O   0  0  0  0  0  0  0  0  0  0  0  0
  158.2360  211.7540  155.1760 N   0  0  0  0  0  2  0  0  0  0  0  0
  156.1700  211.6270  156.5120 N   0  0  0  0  0  1  0  0  0  0  0  0
  156.8090  211.8310  155.2580 C   0  0  0  0  0  0  0  0  0  0  0  0
  156.1140  212.1090  154.2450 O   0  0  0  0  0  0  0  0  0  0  0  0
  161.6000  210.6970  151.9980 C   0  0  0  0  0  2  0  0  0  0  0  0
  161.9560  209.9610  150.7160 C   0  0  0  0  0  2  0  0  0  0  0  0
  162.3040  208.5240  151.0400 C   0  0  0  0  0  2  0  0  0  0  0  0
  161.7160  207.6180  149.9770 C   0  0  0  0  0  2  0  0  0  0  0  0
  161.0630  206.4680  150.6000 N   0  0  0  0  0  0  0  0  0  0  0  0
  160.5390  206.1210  148.1670 C   0  0  0  0  0  1  0  0  0  0  0  0
  160.6010  205.5220  149.5690 C   0  0  1  0  0  3  0  0  0  0  0  0
  160.5350  203.0800  149.5940 N   0  0  0  0  0  2  0  0  0  0  0  0
  161.4330  204.2460  149.5780 C   0  0  1  0  0  3  0  0  0  0  0  0
  161.2030  203.4930  148.3500 C   0  0  0  0  0  2  0  0  0  0  0  0
  161.8950  205.8400  151.6450 C   0  0  0  0  0  2  0  0  0  0  0  0
  161.2500  205.8300  153.0320 C   0  0  0  0  0  1  0  0  0  0  0  0
  1 23  1  1  0  0  0
  1  8  1  0  0  0  0
  1  4  1  0  0  0  0
  2  3  1  0  0  0  0
  3  6  2  0  0  0  0
  4  5  2  0  0  0  0
  5 19  1  0  0  0  0
  6  5  1  0  0  0  0
  7  2  2  0  0  0  0
  7  8  1  0  0  0  0
  8  6  1  0  0  0  0
  9 11  1  0  0  0  0
 10 13  1  0  0  0  0
 11  7  1  0  0  0  0
 12 15  2  0  0  0  0
 12 16  1  0  0  0  0
 13 15  1  0  0  0  0
 14 10  1  0  0  0  0
 15  9  1  0  0  0  0
 16 17  1  0  0  0  0
 16 11  2  0  0  0  0
 18 10  2  0  0  0  0
 19 21  1  0  0  0  0
 21 20  1  0  0  0  0
 22 21  2  0  0  0  0
 24 25  1  0  0  0  0
 24 23  1  0  0  0  0
 26 27  1  0  0  0  0
 26 25  1  0  0  0  0
 27 33  1  0  0  0  0
 29 28  1  6  0  0  0
 29 27  1  0  0  0  0
 31 29  1  6  0  0  0
 31 30  1  0  0  0  0
 32 31  1  0  0  0  0
 32 30  1  0  0  0  0
 33 34  1  0  0  0  0
M  END
>  <MODEL>
6

>  <REMARK>
 VINA RESULT:      -6.6      2.635      3.675
  Name = 
  10 active torsions:
  status: ('A' for Active; 'I' for Inactive)
    1  A    between atoms: C_1  and  C_2
    2  A    between atoms: C_1  and  C_24
    3  A    between atoms: C_6  and  C_11
    4  A    between atoms: C_6  and  N_15
    5  A    between atoms: N_8  and  C_17
    6  A    between atoms: C_9  and  C_31
    7  A    between atoms: C_11  and  C_24
    8  A    between atoms: N_15  and  C_16
    9  A    between atoms: N_15  and  C_30
   10  A    between atoms: C_27  and  C_30
                            x       y       z     vdW  Elec       q    Type
                         _______ _______ _______ _____ _____    ______ ____

>  <TORSDO>
F 10

$$$$
=
 OpenBabel11042422303D

 34 37  0  0  1  0  0  0  0  0999 V2000
  161.1270  206.1270  152.2080 C   0  0  1  0  0  3  0  0  0  0  0  0
  162.0940  209.1820  150.6990 N   0  0  0  0  0  0  0  0  0  0  0  0
  162.1850  209.3700  152.0110 N   0  0  0  0  0  0  0  0  0  0  0  0
  160.8830  206.5930  153.6320 C   0  0  0  0  0  3  0  0  0  0  0  0
  161.4860  207.7700  153.8150 C   0  0  0  0  0  0  0  0  0  0  0  0
  162.1220  208.1450  152.5670 C   0  0  0  0  0  0  0  0  0  0  0  0
  161.9120  207.8580  150.4990 C   0  0  0  0  0  0  0  0  0  0  0  0
  161.9630  207.1910  151.6650 N   0  0  0  0  0  0  0  0  0  0  0  0
  162.4630  207.3070  147.9840 C   0  0  0  0  0  2  0  0  0  0  0  0
  161.1570  205.6340  144.7000 C   0  0  0  0  0  0  0  0  0  0  0  0
  161.5940  207.2510  149.1950 C   0  0  0  0  0  0  0  0  0  0  0  0
  160.4750  206.1650  147.5420 N   0  0  0  0  0  0  0  0  0  0  0  0
  161.9570  206.3310  145.6610 N   0  0  0  0  0  2  0  0  0  0  0  0
  161.6470  205.5000  143.3040 C   0  0  0  0  0  1  0  0  0  0  0  0
  161.5920  206.5630  147.0260 C   0  0  0  0  0  0  0  0  0  0  0  0
  160.4840  206.5970  148.8920 C   0  0  0  0  0  0  0  0  0  0  0  0
  159.4590  206.3660  149.7500 F   0  0  0  0  0  0  0  0  0  0  0  0
  160.0390  205.1450  145.0140 O   0  0  0  0  0  0  0  0  0  0  0  0
  161.3790  208.5410  155.0160 N   0  0  0  0  0  2  0  0  0  0  0  0
  160.3270  210.1410  156.5660 N   0  0  0  0  0  1  0  0  0  0  0  0
  160.4100  209.5620  155.2690 C   0  0  0  0  0  0  0  0  0  0  0  0
  159.6510  209.9790  154.3540 O   0  0  0  0  0  0  0  0  0  0  0  0
  161.8430  204.7770  152.1600 C   0  0  0  0  0  2  0  0  0  0  0  0
  160.8960  203.5990  152.3270 C   0  0  0  0  0  2  0  0  0  0  0  0
  161.2150  202.5440  151.2900 C   0  0  0  0  0  2  0  0  0  0  0  0
  161.1510  203.1680  149.9100 C   0  0  0  0  0  2  0  0  0  0  0  0
  160.3000  202.3640  149.0330 N   0  0  0  0  0  0  0  0  0  0  0  0
  161.5820  200.4680  147.9940 C   0  0  0  0  0  1  0  0  0  0  0  0
  161.0670  201.8990  147.8640 C   0  0  1  0  0  3  0  0  0  0  0  0
  161.1970  202.3460  145.4660 N   0  0  0  0  0  2  0  0  0  0  0  0
  160.2720  202.0750  146.5770 C   0  0  1  0  0  3  0  0  0  0  0  0
  160.6040  201.0110  145.6370 C   0  0  0  0  0  2  0  0  0  0  0  0
  159.6080  201.2780  149.7540 C   0  0  0  0  0  2  0  0  0  0  0  0
  158.1850  201.0120  149.2610 C   0  0  0  0  0  1  0  0  0  0  0  0
  1 23  1  1  0  0  0
  1  4  1  0  0  0  0
  2  3  1  0  0  0  0
  3  6  2  0  0  0  0
  4  5  2  0  0  0  0
  5 19  1  0  0  0  0
  6  5  1  0  0  0  0
  7  2  2  0  0  0  0
  7  8  1  0  0  0  0
  8  1  1  0  0  0  0
  8  6  1  0  0  0  0
  9 11  1  0  0  0  0
 10 18  2  0  0  0  0
 10 13  1  0  0  0  0
 11  7  1  0  0  0  0
 12 16  1  0  0  0  0
 13 15  1  0  0  0  0
 14 10  1  0  0  0  0
 15 12  2  0  0  0  0
 15  9  1  0  0  0  0
 16 11  2  0  0  0  0
 16 17  1  0  0  0  0
 19 21  1  0  0  0  0
 21 20  1  0  0  0  0
 22 21  2  0  0  0  0
 23 24  1  0  0  0  0
 25 24  1  0  0  0  0
 26 25  1  0  0  0  0
 27 33  1  0  0  0  0
 27 26  1  0  0  0  0
 29 28  1  1  0  0  0
 29 27  1  0  0  0  0
 30 32  1  0  0  0  0
 30 31  1  0  0  0  0
 31 29  1  1  0  0  0
 32 31  1  0  0  0  0
 34 33  1  0  0  0  0
M  END
>  <MODEL>
7

>  <REMARK>
 VINA RESULT:      -6.5      3.465      4.818
  Name = 
  10 active torsions:
  status: ('A' for Active; 'I' for Inactive)
    1  A    between atoms: C_1  and  C_2
    2  A    between atoms: C_1  and  C_24
    3  A    between atoms: C_6  and  C_11
    4  A    between atoms: C_6  and  N_15
    5  A    between atoms: N_8  and  C_17
    6  A    between atoms: C_9  and  C_31
    7  A    between atoms: C_11  and  C_24
    8  A    between atoms: N_15  and  C_16
    9  A    between atoms: N_15  and  C_30
   10  A    between atoms: C_27  and  C_30
                            x       y       z     vdW  Elec       q    Type
                         _______ _______ _______ _____ _____    ______ ____

>  <TORSDO>
F 10

$$$$
=
 OpenBabel11042422303D

 34 37  0  0  1  0  0  0  0  0999 V2000
  158.9440  211.6880  152.5760 C   0  0  1  0  0  3  0  0  0  0  0  0
  156.8890  214.4410  151.7180 N   0  0  0  0  0  0  0  0  0  0  0  0
  156.6140  214.1540  152.9850 N   0  0  0  0  0  0  0  0  0  0  0  0
  158.2560  211.2230  153.8480 C   0  0  0  0  0  3  0  0  0  0  0  0
  157.4840  212.2070  154.3110 C   0  0  0  0  0  0  0  0  0  0  0  0
  157.5950  213.3300  153.3990 C   0  0  0  0  0  0  0  0  0  0  0  0
  157.9880  213.7330  151.3790 C   0  0  0  0  0  0  0  0  0  0  0  0
  158.4630  213.0570  152.4390 N   0  0  0  0  0  0  0  0  0  0  0  0
  157.7340  213.2660  148.8000 C   0  0  0  0  0  2  0  0  0  0  0  0
  159.6080  213.0340  145.3760 C   0  0  0  0  0  0  0  0  0  0  0  0
  158.5230  213.6360  150.0100 C   0  0  0  0  0  0  0  0  0  0  0  0
  159.9770  213.6280  148.2630 N   0  0  0  0  0  0  0  0  0  0  0  0
  158.6020  213.0150  146.3940 N   0  0  0  0  0  2  0  0  0  0  0  0
  159.2430  212.6660  143.9830 C   0  0  0  0  0  1  0  0  0  0  0  0
  158.8210  213.3120  147.7770 C   0  0  0  0  0  0  0  0  0  0  0  0
  159.7840  213.8280  149.6530 C   0  0  0  0  0  0  0  0  0  0  0  0
  160.7880  214.1650  150.4990 F   0  0  0  0  0  0  0  0  0  0  0  0
  160.8000  213.3430  145.6430 O   0  0  0  0  0  0  0  0  0  0  0  0
  156.6190  212.0750  155.4440 N   0  0  0  0  0  2  0  0  0  0  0  0
  154.8920  210.9970  156.8310 N   0  0  0  0  0  1  0  0  0  0  0  0
  155.5730  211.1100  155.5870 C   0  0  0  0  0  0  0  0  0  0  0  0
  155.2230  210.3820  154.6200 O   0  0  0  0  0  0  0  0  0  0  0  0
  160.4670  211.6420  152.6980 C   0  0  0  0  0  2  0  0  0  0  0  0
  160.9860  210.2780  153.1250 C   0  0  0  0  0  2  0  0  0  0  0  0
  160.7870  209.2880  151.9980 C   0  0  0  0  0  2  0  0  0  0  0  0
  161.3160  207.9340  152.4260 C   0  0  0  0  0  2  0  0  0  0  0  0
  161.7900  207.1870  151.2610 N   0  0  0  0  0  0  0  0  0  0  0  0
  161.3080  205.3680  152.9280 C   0  0  0  0  0  1  0  0  0  0  0  0
  161.6270  205.7390  151.4820 C   0  0  1  0  0  3  0  0  0  0  0  0
  161.2610  204.2160  149.6070 N   0  0  0  0  0  2  0  0  0  0  0  0
  160.5950  205.1490  150.5300 C   0  0  1  0  0  3  0  0  0  0  0  0
  160.4820  203.7110  150.7480 C   0  0  0  0  0  2  0  0  0  0  0  0
  161.1900  207.6630  150.0000 C   0  0  0  0  0  2  0  0  0  0  0  0
  162.2060  207.9260  148.8870 C   0  0  0  0  0  1  0  0  0  0  0  0
  1 23  1  1  0  0  0
  1  4  1  0  0  0  0
  2  3  1  0  0  0  0
  3  6  2  0  0  0  0
  4  5  2  0  0  0  0
  5 19  1  0  0  0  0
  6  5  1  0  0  0  0
  7  2  2  0  0  0  0
  7  8  1  0  0  0  0
  8  1  1  0  0  0  0
  8  6  1  0  0  0  0
  9 11  1  0  0  0  0
 10 18  2  0  0  0  0
 10 13  1  0  0  0  0
 11  7  1  0  0  0  0
 12 16  1  0  0  0  0
 13 15  1  0  0  0  0
 14 10  1  0  0  0  0
 15 12  2  0  0  0  0
 15  9  1  0  0  0  0
 16 11  2  0  0  0  0
 16 17  1  0  0  0  0
 19 21  1  0  0  0  0
 21 20  1  0  0  0  0
 22 21  2  0  0  0  0
 23 24  1  0  0  0  0
 25 26  1  0  0  0  0
 25 24  1  0  0  0  0
 27 29  1  0  0  0  0
 27 26  1  0  0  0  0
 29 28  1  1  0  0  0
 30 31  1  0  0  0  0
 30 32  1  0  0  0  0
 31 32  1  0  0  0  0
 31 29  1  1  0  0  0
 33 27  1  0  0  0  0
 34 33  1  0  0  0  0
M  END
>  <MODEL>
8

>  <REMARK>
 VINA RESULT:      -6.4      3.330      4.387
  Name = 
  10 active torsions:
  status: ('A' for Active; 'I' for Inactive)
    1  A    between atoms: C_1  and  C_2
    2  A    between atoms: C_1  and  C_24
    3  A    between atoms: C_6  and  C_11
    4  A    between atoms: C_6  and  N_15
    5  A    between atoms: N_8  and  C_17
    6  A    between atoms: C_9  and  C_31
    7  A    between atoms: C_11  and  C_24
    8  A    between atoms: N_15  and  C_16
    9  A    between atoms: N_15  and  C_30
   10  A    between atoms: C_27  and  C_30
                            x       y       z     vdW  Elec       q    Type
                         _______ _______ _______ _____ _____    ______ ____

>  <TORSDO>
F 10

$$$$
=
 OpenBabel11042422303D

 34 37  0  0  1  0  0  0  0  0999 V2000
  161.8600  212.3370  148.6580 C   0  0  1  0  0  3  0  0  0  0  0  0
  159.2670  214.4510  147.4950 N   0  0  0  0  0  0  0  0  0  0  0  0
  160.1060  214.2960  146.4760 N   0  0  0  0  0  0  0  0  0  0  0  0
  162.9070  212.5770  147.5840 C   0  0  0  0  0  3  0  0  0  0  0  0
  162.3180  213.1100  146.5120 C   0  0  0  0  0  0  0  0  0  0  0  0
  160.9070  213.2660  146.8080 C   0  0  0  0  0  0  0  0  0  0  0  0
  159.6250  213.5570  148.4430 C   0  0  0  0  0  0  0  0  0  0  0  0
  160.6330  212.7820  148.0080 N   0  0  0  0  0  0  0  0  0  0  0  0
  159.8330  213.6570  151.0660 C   0  0  0  0  0  2  0  0  0  0  0  0
  157.9050  213.3780  154.4560 C   0  0  0  0  0  0  0  0  0  0  0  0
  159.0560  213.5160  149.8010 C   0  0  0  0  0  0  0  0  0  0  0  0
  157.5680  213.3030  151.5050 N   0  0  0  0  0  0  0  0  0  0  0  0
  158.9290  213.5350  153.4690 N   0  0  0  0  0  2  0  0  0  0  0  0
  158.2700  213.4030  155.8960 C   0  0  0  0  0  1  0  0  0  0  0  0
  158.7240  213.4960  152.0520 C   0  0  0  0  0  0  0  0  0  0  0  0
  157.7830  213.3160  150.1050 C   0  0  0  0  0  0  0  0  0  0  0  0
  156.7880  213.1330  149.2010 F   0  0  0  0  0  0  0  0  0  0  0  0
  156.7020  213.2020  154.1250 O   0  0  0  0  0  0  0  0  0  0  0  0
  163.0280  213.5500  145.3500 N   0  0  0  0  0  2  0  0  0  0  0  0
  163.3510  213.9550  142.9420 N   0  0  0  0  0  1  0  0  0  0  0  0
  162.6270  213.3300  143.9950 C   0  0  0  0  0  0  0  0  0  0  0  0
  161.6640  212.5670  143.7170 O   0  0  0  0  0  0  0  0  0  0  0  0
  161.7750  210.8640  149.0580 C   0  0  0  0  0  2  0  0  0  0  0  0
  161.8220  210.6580  150.5640 C   0  0  0  0  0  2  0  0  0  0  0  0
  162.3310  209.2640  150.8670 C   0  0  0  0  0  2  0  0  0  0  0  0
  161.8230  208.3080  149.8070 C   0  0  0  0  0  2  0  0  0  0  0  0
  161.4580  207.0290  150.4160 N   0  0  0  0  0  0  0  0  0  0  0  0
  160.8310  204.6680  149.8250 C   0  0  0  0  0  1  0  0  0  0  0  0
  161.5700  205.9420  149.4270 C   0  0  1  0  0  3  0  0  0  0  0  0
  162.2970  206.3750  147.1350 N   0  0  0  0  0  2  0  0  0  0  0  0
  161.1390  206.4100  148.0420 C   0  0  1  0  0  3  0  0  0  0  0  0
  161.2750  205.3180  147.0850 C   0  0  0  0  0  2  0  0  0  0  0  0
  162.1950  206.7660  151.6670 C   0  0  0  0  0  2  0  0  0  0  0  0
  161.3310  206.1870  152.7880 C   0  0  0  0  0  1  0  0  0  0  0  0
  1 23  1  6  0  0  0
  2  7  2  0  0  0  0
  3  6  2  0  0  0  0
  3  2  1  0  0  0  0
  4  1  1  0  0  0  0
  5  6  1  0  0  0  0
  5  4  2  0  0  0  0
  6  8  1  0  0  0  0
  7 11  1  0  0  0  0
  8  7  1  0  0  0  0
  8  1  1  0  0  0  0
  9 15  1  0  0  0  0
 10 14  1  0  0  0  0
 11 16  2  0  0  0  0
 11  9  1  0  0  0  0
 12 15  2  0  0  0  0
 13 10  1  0  0  0  0
 15 13  1  0  0  0  0
 16 12  1  0  0  0  0
 17 16  1  0  0  0  0
 18 10  2  0  0  0  0
 19  5  1  0  0  0  0
 20 21  1  0  0  0  0
 21 19  1  0  0  0  0
 22 21  2  0  0  0  0
 23 24  1  0  0  0  0
 24 25  1  0  0  0  0
 26 27  1  0  0  0  0
 26 25  1  0  0  0  0
 27 33  1  0  0  0  0
 29 28  1  1  0  0  0
 29 27  1  0  0  0  0
 30 31  1  0  0  0  0
 31 29  1  1  0  0  0
 32 30  1  0  0  0  0
 32 31  1  0  0  0  0
 33 34  1  0  0  0  0
M  END
>  <MODEL>
9

>  <REMARK>
 VINA RESULT:      -6.4      2.781      7.255
  Name = 
  10 active torsions:
  status: ('A' for Active; 'I' for Inactive)
    1  A    between atoms: C_1  and  C_2
    2  A    between atoms: C_1  and  C_24
    3  A    between atoms: C_6  and  C_11
    4  A    between atoms: C_6  and  N_15
    5  A    between atoms: N_8  and  C_17
    6  A    between atoms: C_9  and  C_31
    7  A    between atoms: C_11  and  C_24
    8  A    between atoms: N_15  and  C_16
    9  A    between atoms: N_15  and  C_30
   10  A    between atoms: C_27  and  C_30
                            x       y       z     vdW  Elec       q    Type
                         _______ _______ _______ _____ _____    ______ ____

>  <TORSDO>
F 10

$$$$
