=
 OpenBabel11042420573D

 46 50  0  0  1  0  0  0  0  0999 V2000
  159.9910  211.6930  153.9650 C   0  0  0  0  0  1  0  0  0  0  0  0
  160.1030  209.6510  152.5410 C   0  0  0  0  0  2  0  0  0  0  0  0
  161.7250  209.6110  150.6110 C   0  0  0  0  0  0  0  0  0  0  0  0
  162.0440  207.5970  149.2920 C   0  0  0  0  0  0  0  0  0  0  0  0
  160.8100  208.9320  151.4290 C   0  0  0  0  0  0  0  0  0  0  0  0
  162.6750  206.9800  148.0920 C   0  0  0  0  0  1  0  0  0  0  0  0
  161.1300  206.8980  150.1220 C   0  0  0  0  0  0  0  0  0  0  0  0
  161.3310  211.7400  151.8210 C   0  0  2  0  0  3  0  0  0  0  0  0
  162.0460  210.9510  150.8630 O   0  0  0  0  0  0  0  0  0  0  0  0
  160.8830  210.8830  153.0330 C   0  0  1  0  0  0  0  0  0  0  0  0
  162.3320  208.9420  149.5490 C   0  0  0  0  0  3  0  0  0  0  0  0
  160.5120  207.5930  151.1770 C   0  0  0  0  0  3  0  0  0  0  0  0
  158.2620  213.8840  149.1770 N   0  0  0  0  0  0  0  0  0  0  0  0
  157.4440  213.1070  150.1000 C   0  0  0  0  0  2  0  0  0  0  0  0
  159.0710  212.9480  151.9610 C   0  0  0  0  0  3  0  0  0  0  0  0
  161.6820  213.6310  148.0340 N   0  0  0  0  0  2  0  0  0  0  0  0
  160.3670  214.3010  147.9530 C   0  0  2  0  0  3  0  0  0  0  0  0
  160.2220  212.5090  151.1370 C   0  0  1  0  0  3  0  0  0  0  0  0
  160.4000  212.9080  149.8650 C   0  0  0  0  0  0  0  0  0  0  0  0
  156.8430  213.7360  152.5070 C   0  0  0  0  0  1  0  0  0  0  0  0
  159.5510  213.7620  149.0790 C   0  0  0  0  0  0  0  0  0  0  0  0
  161.6370  212.8200  149.1850 N   0  0  0  0  0  0  0  0  0  0  0  0
  157.8620  213.2980  151.5180 C   0  0  0  0  0  0  0  0  0  0  0  0
  158.6150  212.8840  144.1930 O   0  0  0  0  0  0  0  0  0  0  0  0
  160.4090  213.1990  145.6680 N   0  0  0  0  0  2  0  0  0  0  0  0
  158.5700  214.4530  146.4030 O   0  0  0  0  0  0  0  0  0  0  0  0
  159.8350  212.7120  144.4500 C   0  0  0  0  0  0  0  0  0  0  0  0
  159.7250  214.0070  146.6350 C   0  0  0  0  0  0  0  0  0  0  0  0
  160.6850  211.9430  143.4970 C   0  0  0  0  0  2  0  0  0  0  0  0
  162.0030  212.2740  141.4120 C   0  0  0  0  0  1  0  0  0  0  0  0
  162.9140  213.0160  143.5880 C   0  0  0  0  0  1  0  0  0  0  0  0
  161.6490  212.8610  142.7670 C   0  0  0  0  0  3  0  0  0  0  0  0
  160.5770  204.6400  151.0890 C   0  0  0  0  0  2  0  0  0  0  0  0
  160.8270  202.7420  149.6410 O   0  0  0  0  0  0  0  0  0  0  0  0
  161.4060  203.5240  148.6260 C   0  0  0  0  0  2  0  0  0  0  0  0
  160.8100  205.5050  149.9290 N   0  0  0  0  0  0  0  0  0  0  0  0
  160.7450  204.9030  148.5950 C   0  0  0  0  0  2  0  0  0  0  0  0
  161.2550  203.2900  150.8630 C   0  0  0  0  0  2  0  0  0  0  0  0
  162.1380  210.4570  153.8090 C   0  0  0  0  0  2  0  0  0  0  0  0
  162.0380  210.7500  155.3000 C   0  0  0  0  0  2  0  0  0  0  0  0
  162.2640  209.5330  156.0570 N   0  0  0  0  0  2  0  0  0  0  0  0
  160.9570  209.0720  156.4880 C   0  0  0  0  0  2  0  0  0  0  0  0
  159.9730  207.0550  157.2610 O   0  0  0  0  0  1  0  0  0  0  0  0
  160.8500  207.5700  156.3070 C   0  0  1  0  0  3  0  0  0  0  0  0
  161.2500  206.4140  154.2600 O   0  0  0  0  0  1  0  0  0  0  0  0
  160.3390  207.2430  154.9140 C   0  0  0  0  0  2  0  0  0  0  0  0
  2 10  1  0  0  0  0
  3  9  1  0  0  0  0
  3  5  1  0  0  0  0
  4 11  1  0  0  0  0
  4  7  2  0  0  0  0
  5  2  1  0  0  0  0
  6  4  1  0  0  0  0
  7 12  1  0  0  0  0
  8  9  1  6  0  0  0
  8 10  1  0  0  0  0
 10 39  1  0  0  0  0
 10  1  1  1  0  0  0
 11  3  2  0  0  0  0
 12  5  2  0  0  0  0
 13 14  1  0  0  0  0
 14 23  1  0  0  0  0
 16 22  1  0  0  0  0
 17 28  1  6  0  0  0
 17 16  1  0  0  0  0
 17 21  1  0  0  0  0
 18  8  1  0  0  0  0
 18 15  1  1  0  0  0
 19 18  1  0  0  0  0
 21 13  2  0  0  0  0
 21 19  1  0  0  0  0
 22 19  2  0  0  0  0
 23 15  2  0  0  0  0
 23 20  1  0  0  0  0
 24 27  2  0  0  0  0
 25 28  1  0  0  0  0
 26 28  2  0  0  0  0
 27 25  1  0  0  0  0
 29 27  1  0  0  0  0
 30 32  1  0  0  0  0
 32 29  1  0  0  0  0
 32 31  1  0  0  0  0
 34 38  1  0  0  0  0
 35 34  1  0  0  0  0
 36  7  1  0  0  0  0
 36 33  1  0  0  0  0
 37 35  1  0  0  0  0
 37 36  1  0  0  0  0
 38 33  1  0  0  0  0
 39 40  1  0  0  0  0
 40 41  1  0  0  0  0
 41 42  1  0  0  0  0
 44 42  1  0  0  0  0
 44 43  1  1  0  0  0
 45 46  1  0  0  0  0
 46 44  1  0  0  0  0
M  END
>  <MODEL>
1

>  <REMARK>
 VINA RESULT:      -6.1      0.000      0.000
  Name = 
  11 active torsions:
  status: ('A' for Active; 'I' for Inactive)
    1  A    between atoms: C_4  and  C_34
    2  A    between atoms: C_4  and  C_42
    3  A    between atoms: N_6  and  C_42
    4  A    between atoms: N_6  and  C_44
    5  A    between atoms: N_18  and  C_22
    6  A    between atoms: C_23  and  C_40
    7  A    between atoms: C_24  and  C_46
    8  A    between atoms: C_25  and  C_33
    9  A    between atoms: C_25  and  C_44
   10  A    between atoms: C_27  and  C_29
   11  A    between atoms: C_37  and  C_46
                            x       y       z     vdW  Elec       q    Type
                         _______ _______ _______ _____ _____    ______ ____

>  <TORSDO>
F 11

$$$$
=
 OpenBabel11042420573D

 46 50  0  0  1  0  0  0  0  0999 V2000
  159.9210  211.6030  153.7350 C   0  0  0  0  0  1  0  0  0  0  0  0
  160.0660  209.5300  152.3600 C   0  0  0  0  0  2  0  0  0  0  0  0
  161.8390  209.3860  150.5730 C   0  0  0  0  0  0  0  0  0  0  0  0
  162.1820  207.3340  149.3200 C   0  0  0  0  0  0  0  0  0  0  0  0
  160.8320  208.7610  151.3240 C   0  0  0  0  0  0  0  0  0  0  0  0
  162.8840  206.6690  148.1880 C   0  0  0  0  0  1  0  0  0  0  0  0
  161.1740  206.6890  150.0830 C   0  0  0  0  0  0  0  0  0  0  0  0
  161.4350  211.5530  151.7100 C   0  0  2  0  0  3  0  0  0  0  0  0
  162.1930  210.7160  150.8290 O   0  0  0  0  0  0  0  0  0  0  0  0
  160.8530  210.7400  152.8950 C   0  0  1  0  0  0  0  0  0  0  0  0
  162.5040  208.6720  149.5770 C   0  0  0  0  0  3  0  0  0  0  0  0
  160.5010  207.4300  151.0700 C   0  0  0  0  0  3  0  0  0  0  0  0
  158.6480  213.7140  148.7820 N   0  0  0  0  0  0  0  0  0  0  0  0
  157.7380  213.0930  149.7350 C   0  0  0  0  0  2  0  0  0  0  0  0
  159.2880  212.9580  151.6630 C   0  0  0  0  0  3  0  0  0  0  0  0
  162.0650  213.0700  147.7940 N   0  0  0  0  0  2  0  0  0  0  0  0
  160.8180  213.8400  147.6070 C   0  0  2  0  0  3  0  0  0  0  0  0
  160.4200  212.3520  150.9230 C   0  0  1  0  0  3  0  0  0  0  0  0
  160.6700  212.6220  149.6290 C   0  0  0  0  0  0  0  0  0  0  0  0
  157.1230  213.9790  152.0570 C   0  0  0  0  0  1  0  0  0  0  0  0
  159.9240  213.4730  148.7430 C   0  0  0  0  0  0  0  0  0  0  0  0
  161.9140  212.3690  149.0060 N   0  0  0  0  0  0  0  0  0  0  0  0
  158.1280  213.3710  151.1480 C   0  0  0  0  0  0  0  0  0  0  0  0
  159.3070  212.3290  143.7800 O   0  0  0  0  0  0  0  0  0  0  0  0
  161.0160  213.0900  145.1920 N   0  0  0  0  0  2  0  0  0  0  0  0
  158.9370  213.5190  146.1870 O   0  0  0  0  0  0  0  0  0  0  0  0
  160.5300  212.5720  143.9480 C   0  0  0  0  0  0  0  0  0  0  0  0
  160.1930  213.4890  146.2950 C   0  0  0  0  0  0  0  0  0  0  0  0
  161.4970  212.2680  142.8550 C   0  0  0  0  0  2  0  0  0  0  0  0
  160.7150  211.2310  140.7320 C   0  0  0  0  0  1  0  0  0  0  0  0
  161.7830  213.4610  140.7040 C   0  0  0  0  0  1  0  0  0  0  0  0
  160.8790  212.5340  141.4940 C   0  0  0  0  0  3  0  0  0  0  0  0
  160.4960  204.4630  151.0430 C   0  0  0  0  0  2  0  0  0  0  0  0
  160.7450  202.5420  149.6240 O   0  0  0  0  0  0  0  0  0  0  0  0
  161.3970  203.2930  148.6300 C   0  0  0  0  0  2  0  0  0  0  0  0
  160.8130  205.3070  149.8870 N   0  0  0  0  0  0  0  0  0  0  0  0
  160.7890  204.6940  148.5570 C   0  0  0  0  0  2  0  0  0  0  0  0
  161.1360  203.0870  150.8590 C   0  0  0  0  0  2  0  0  0  0  0  0
  162.0200  210.2790  153.7800 C   0  0  0  0  0  2  0  0  0  0  0  0
  161.8080  208.8860  154.3580 C   0  0  0  0  0  2  0  0  0  0  0  0
  161.3580  208.9880  155.7330 N   0  0  0  0  0  2  0  0  0  0  0  0
  162.0850  210.1000  156.3200 C   0  0  0  0  0  2  0  0  0  0  0  0
  161.2250  212.2500  156.8390 O   0  0  0  0  0  1  0  0  0  0  0  0
  161.1640  210.9080  157.2130 C   0  0  1  0  0  3  0  0  0  0  0  0
  158.8470  211.4700  157.2610 O   0  0  0  0  0  1  0  0  0  0  0  0
  159.7350  210.4080  157.0860 C   0  0  0  0  0  2  0  0  0  0  0  0
  2 10  1  0  0  0  0
  3  9  1  0  0  0  0
  3  5  1  0  0  0  0
  4 11  1  0  0  0  0
  4  7  2  0  0  0  0
  5  2  1  0  0  0  0
  6  4  1  0  0  0  0
  7 12  1  0  0  0  0
  8  9  1  6  0  0  0
  8 10  1  0  0  0  0
 10  1  1  1  0  0  0
 10 39  1  0  0  0  0
 11  3  2  0  0  0  0
 12  5  2  0  0  0  0
 13 14  1  0  0  0  0
 14 23  1  0  0  0  0
 16 22  1  0  0  0  0
 17 28  1  6  0  0  0
 17 16  1  0  0  0  0
 17 21  1  0  0  0  0
 18 15  1  1  0  0  0
 18  8  1  0  0  0  0
 19 18  1  0  0  0  0
 21 13  2  0  0  0  0
 21 19  1  0  0  0  0
 22 19  2  0  0  0  0
 23 15  2  0  0  0  0
 23 20  1  0  0  0  0
 24 27  2  0  0  0  0
 25 28  1  0  0  0  0
 26 28  2  0  0  0  0
 27 25  1  0  0  0  0
 29 27  1  0  0  0  0
 30 32  1  0  0  0  0
 31 32  1  0  0  0  0
 32 29  1  0  0  0  0
 34 38  1  0  0  0  0
 35 34  1  0  0  0  0
 36  7  1  0  0  0  0
 36 33  1  0  0  0  0
 37 35  1  0  0  0  0
 37 36  1  0  0  0  0
 38 33  1  0  0  0  0
 39 40  1  0  0  0  0
 40 41  1  0  0  0  0
 41 42  1  0  0  0  0
 42 44  1  0  0  0  0
 44 43  1  6  0  0  0
 46 44  1  0  0  0  0
 46 45  1  0  0  0  0
M  END
>  <MODEL>
2

>  <REMARK>
 VINA RESULT:      -4.9      1.339      1.676
  Name = 
  11 active torsions:
  status: ('A' for Active; 'I' for Inactive)
    1  A    between atoms: C_4  and  C_34
    2  A    between atoms: C_4  and  C_42
    3  A    between atoms: N_6  and  C_42
    4  A    between atoms: N_6  and  C_44
    5  A    between atoms: N_18  and  C_22
    6  A    between atoms: C_23  and  C_40
    7  A    between atoms: C_24  and  C_46
    8  A    between atoms: C_25  and  C_33
    9  A    between atoms: C_25  and  C_44
   10  A    between atoms: C_27  and  C_29
   11  A    between atoms: C_37  and  C_46
                            x       y       z     vdW  Elec       q    Type
                         _______ _______ _______ _____ _____    ______ ____

>  <TORSDO>
F 11

$$$$
=
 OpenBabel11042420573D

 46 50  0  0  1  0  0  0  0  0999 V2000
  160.2760  208.3700  153.5220 C   0  0  0  0  0  1  0  0  0  0  0  0
  160.2700  207.3740  151.2380 C   0  0  0  0  0  2  0  0  0  0  0  0
  162.2650  207.7620  149.7450 C   0  0  0  0  0  0  0  0  0  0  0  0
  162.4330  206.6710  147.5810 C   0  0  0  0  0  0  0  0  0  0  0  0
  161.0470  207.1070  149.9820 C   0  0  0  0  0  0  0  0  0  0  0  0
  163.1840  206.5540  146.3000 C   0  0  0  0  0  1  0  0  0  0  0  0
  161.2090  205.9940  147.8180 C   0  0  0  0  0  0  0  0  0  0  0  0
  162.0770  209.0240  151.8720 C   0  0  2  0  0  3  0  0  0  0  0  0
  162.8080  208.6210  150.7080 O   0  0  0  0  0  0  0  0  0  0  0  0
  161.1630  207.8810  152.3840 C   0  0  1  0  0  0  0  0  0  0  0  0
  162.9460  207.5430  148.5480 C   0  0  0  0  0  3  0  0  0  0  0  0
  160.5250  206.2410  149.0210 C   0  0  0  0  0  3  0  0  0  0  0  0
  159.9890  212.8480  150.4510 N   0  0  0  0  0  0  0  0  0  0  0  0
  159.1020  212.3310  151.4850 C   0  0  0  0  0  2  0  0  0  0  0  0
  160.7820  211.0470  152.7760 C   0  0  0  0  0  3  0  0  0  0  0  0
  162.5310  211.3610  148.3550 N   0  0  0  0  0  2  0  0  0  0  0  0
  161.7280  212.5450  148.7220 C   0  0  2  0  0  3  0  0  0  0  0  0
  161.3750  210.3390  151.6160 C   0  0  1  0  0  3  0  0  0  0  0  0
  161.4630  210.8930  150.3930 C   0  0  0  0  0  0  0  0  0  0  0  0
  159.3920  212.6000  154.0150 C   0  0  0  0  0  1  0  0  0  0  0  0
  161.0010  212.1890  149.9740 C   0  0  0  0  0  0  0  0  0  0  0  0
  162.3290  210.4190  149.3820 N   0  0  0  0  0  0  0  0  0  0  0  0
  159.8390  211.9900  152.7360 C   0  0  0  0  0  0  0  0  0  0  0  0
  159.2130  213.1210  145.1780 O   0  0  0  0  0  0  0  0  0  0  0  0
  161.2650  213.1790  146.3100 N   0  0  0  0  0  2  0  0  0  0  0  0
  159.5340  212.8520  147.8560 O   0  0  0  0  0  0  0  0  0  0  0  0
  160.4520  213.3440  145.1430 C   0  0  0  0  0  0  0  0  0  0  0  0
  160.7720  212.8760  147.6210 C   0  0  0  0  0  0  0  0  0  0  0  0
  161.0910  213.7350  143.8540 C   0  0  0  0  0  2  0  0  0  0  0  0
  163.5730  213.7790  143.6710 C   0  0  0  0  0  1  0  0  0  0  0  0
  162.2460  212.2920  142.2060 C   0  0  0  0  0  1  0  0  0  0  0  0
  162.3350  212.9040  143.5910 C   0  0  0  0  0  3  0  0  0  0  0  0
  160.7780  203.6200  147.0980 C   0  0  0  0  0  2  0  0  0  0  0  0
  160.1370  203.2730  144.8100 O   0  0  0  0  0  0  0  0  0  0  0  0
  160.3580  204.6240  144.4870 C   0  0  0  0  0  2  0  0  0  0  0  0
  160.6390  205.0620  146.8750 N   0  0  0  0  0  0  0  0  0  0  0  0
  159.9490  205.5110  145.6640 C   0  0  0  0  0  2  0  0  0  0  0  0
  161.1010  202.9300  145.7730 C   0  0  0  0  0  2  0  0  0  0  0  0
  162.0580  206.7520  152.9140 C   0  0  0  0  0  2  0  0  0  0  0  0
  161.3170  205.4280  153.0520 C   0  0  0  0  0  2  0  0  0  0  0  0
  161.9300  204.4300  152.1960 N   0  0  0  0  0  2  0  0  0  0  0  0
  160.8400  203.6900  151.5870 C   0  0  0  0  0  2  0  0  0  0  0  0
  162.1390  201.7050  151.6520 O   0  0  0  0  0  1  0  0  0  0  0  0
  161.3860  202.5130  150.8020 C   0  0  1  0  0  3  0  0  0  0  0  0
  160.7200  200.9350  149.1420 O   0  0  0  0  0  1  0  0  0  0  0  0
  160.2460  201.7030  150.2050 C   0  0  0  0  0  2  0  0  0  0  0  0
  2 10  1  0  0  0  0
  3  5  1  0  0  0  0
  3  9  1  0  0  0  0
  4  7  2  0  0  0  0
  4 11  1  0  0  0  0
  5  2  1  0  0  0  0
  6  4  1  0  0  0  0
  7 12  1  0  0  0  0
  8  9  1  6  0  0  0
  8 10  1  0  0  0  0
 10 39  1  0  0  0  0
 10  1  1  1  0  0  0
 11  3  2  0  0  0  0
 12  5  2  0  0  0  0
 13 14  1  0  0  0  0
 14 23  1  0  0  0  0
 16 17  1  0  0  0  0
 16 22  1  0  0  0  0
 17 28  1  6  0  0  0
 17 21  1  0  0  0  0
 18  8  1  0  0  0  0
 18 15  1  1  0  0  0
 19 18  1  0  0  0  0
 21 19  1  0  0  0  0
 21 13  2  0  0  0  0
 22 19  2  0  0  0  0
 23 15  2  0  0  0  0
 23 20  1  0  0  0  0
 25 28  1  0  0  0  0
 27 24  2  0  0  0  0
 27 25  1  0  0  0  0
 28 26  2  0  0  0  0
 29 27  1  0  0  0  0
 31 32  1  0  0  0  0
 32 30  1  0  0  0  0
 32 29  1  0  0  0  0
 34 38  1  0  0  0  0
 35 34  1  0  0  0  0
 35 37  1  0  0  0  0
 36 33  1  0  0  0  0
 36  7  1  0  0  0  0
 37 36  1  0  0  0  0
 38 33  1  0  0  0  0
 39 40  1  0  0  0  0
 41 40  1  0  0  0  0
 42 41  1  0  0  0  0
 44 42  1  0  0  0  0
 44 43  1  1  0  0  0
 45 46  1  0  0  0  0
 46 44  1  0  0  0  0
M  END
>  <MODEL>
3

>  <REMARK>
 VINA RESULT:      -4.4      2.268      3.771
  Name = 
  11 active torsions:
  status: ('A' for Active; 'I' for Inactive)
    1  A    between atoms: C_4  and  C_34
    2  A    between atoms: C_4  and  C_42
    3  A    between atoms: N_6  and  C_42
    4  A    between atoms: N_6  and  C_44
    5  A    between atoms: N_18  and  C_22
    6  A    between atoms: C_23  and  C_40
    7  A    between atoms: C_24  and  C_46
    8  A    between atoms: C_25  and  C_33
    9  A    between atoms: C_25  and  C_44
   10  A    between atoms: C_27  and  C_29
   11  A    between atoms: C_37  and  C_46
                            x       y       z     vdW  Elec       q    Type
                         _______ _______ _______ _____ _____    ______ ____

>  <TORSDO>
F 11

$$$$
=
 OpenBabel11042420573D

 46 50  0  0  1  0  0  0  0  0999 V2000
  161.2660  210.0640  148.9670 C   0  0  0  0  0  1  0  0  0  0  0  0
  160.4510  210.8200  151.1970 C   0  0  0  0  0  2  0  0  0  0  0  0
  161.9280  210.4620  153.2090 C   0  0  0  0  0  0  0  0  0  0  0  0
  161.3040  211.3410  155.3860 C   0  0  0  0  0  0  0  0  0  0  0  0
  160.7730  211.0270  152.6480 C   0  0  0  0  0  0  0  0  0  0  0  0
  161.6110  211.3950  156.8420 C   0  0  0  0  0  1  0  0  0  0  0  0
  160.1400  211.9280  154.8250 C   0  0  0  0  0  0  0  0  0  0  0  0
  162.5430  209.4090  151.0500 C   0  0  2  0  0  3  0  0  0  0  0  0
  162.8340  209.7560  152.4080 O   0  0  0  0  0  0  0  0  0  0  0  0
  161.7020  210.5130  150.3560 C   0  0  1  0  0  0  0  0  0  0  0  0
  162.1840  210.6200  154.5710 C   0  0  0  0  0  3  0  0  0  0  0  0
  159.8870  211.7420  153.4540 C   0  0  0  0  0  3  0  0  0  0  0  0
  161.0160  205.1670  150.2320 N   0  0  0  0  0  0  0  0  0  0  0  0
  161.6770  205.0550  151.5260 C   0  0  0  0  0  2  0  0  0  0  0  0
  161.4490  207.4160  152.2400 C   0  0  0  0  0  3  0  0  0  0  0  0
  161.2680  207.4960  147.4790 N   0  0  0  0  0  2  0  0  0  0  0  0
  160.6910  206.2560  148.0380 C   0  0  2  0  0  3  0  0  0  0  0  0
  161.9540  208.0190  150.9820 C   0  0  1  0  0  3  0  0  0  0  0  0
  161.7550  207.4570  149.7770 C   0  0  0  0  0  0  0  0  0  0  0  0
  160.7030  205.7150  153.7990 C   0  0  0  0  0  1  0  0  0  0  0  0
  161.0840  206.2210  149.4760 C   0  0  0  0  0  0  0  0  0  0  0  0
  161.8850  208.1600  148.5570 N   0  0  0  0  0  0  0  0  0  0  0  0
  161.2390  206.1200  152.4740 C   0  0  0  0  0  0  0  0  0  0  0  0
  161.7180  202.5600  145.9170 O   0  0  0  0  0  0  0  0  0  0  0  0
  160.9620  203.7460  147.7920 N   0  0  0  0  0  2  0  0  0  0  0  0
  161.8800  205.2460  146.2430 O   0  0  0  0  0  0  0  0  0  0  0  0
  161.2710  202.5350  147.0940 C   0  0  0  0  0  0  0  0  0  0  0  0
  161.2250  205.0680  147.3050 C   0  0  0  0  0  0  0  0  0  0  0  0
  161.0110  201.2230  147.7530 C   0  0  0  0  0  2  0  0  0  0  0  0
  161.1540  200.5770  150.1510 C   0  0  0  0  0  1  0  0  0  0  0  0
  158.9510  200.9940  149.1070 C   0  0  0  0  0  1  0  0  0  0  0  0
  160.4070  201.4190  149.1320 C   0  0  0  0  0  3  0  0  0  0  0  0
  158.4080  212.0560  156.6470 C   0  0  0  0  0  2  0  0  0  0  0  0
  156.9850  213.9910  156.6660 O   0  0  0  0  0  0  0  0  0  0  0  0
  157.5020  214.4490  155.4420 C   0  0  0  0  0  2  0  0  0  0  0  0
  159.2070  212.7050  155.6030 N   0  0  0  0  0  0  0  0  0  0  0  0
  158.9960  214.1340  155.3600 C   0  0  0  0  0  2  0  0  0  0  0  0
  156.9760  212.5870  156.5950 C   0  0  0  0  0  2  0  0  0  0  0  0
  162.5790  211.7640  150.2100 C   0  0  0  0  0  2  0  0  0  0  0  0
  162.4200  212.4420  148.8560 C   0  0  0  0  0  2  0  0  0  0  0  0
  161.4130  213.4840  148.9420 N   0  0  0  0  0  2  0  0  0  0  0  0
  161.2110  213.9690  147.5890 C   0  0  0  0  0  2  0  0  0  0  0  0
  159.8190  212.3500  146.5520 O   0  0  0  0  0  1  0  0  0  0  0  0
  161.1370  212.8020  146.6250 C   0  0  1  0  0  3  0  0  0  0  0  0
  160.7030  212.7800  144.2800 O   0  0  0  0  0  1  0  0  0  0  0  0
  161.6060  213.2280  145.2430 C   0  0  0  0  0  2  0  0  0  0  0  0
  2  5  1  0  0  0  0
  3 11  1  0  0  0  0
  4  6  1  0  0  0  0
  5  3  2  0  0  0  0
  5 12  1  0  0  0  0
  7  4  1  0  0  0  0
  7 36  1  0  0  0  0
  8  9  1  1  0  0  0
  9  3  1  0  0  0  0
 10  1  1  6  0  0  0
 10  8  1  0  0  0  0
 10  2  1  0  0  0  0
 11  4  2  0  0  0  0
 12  7  2  0  0  0  0
 13 14  1  0  0  0  0
 14 23  1  0  0  0  0
 15 23  2  0  0  0  0
 16 17  1  0  0  0  0
 16 22  1  0  0  0  0
 17 28  1  6  0  0  0
 17 21  1  0  0  0  0
 18  8  1  0  0  0  0
 18 15  1  6  0  0  0
 19 18  1  0  0  0  0
 21 19  1  0  0  0  0
 21 13  2  0  0  0  0
 22 19  2  0  0  0  0
 23 20  1  0  0  0  0
 24 27  2  0  0  0  0
 26 28  2  0  0  0  0
 27 29  1  0  0  0  0
 27 25  1  0  0  0  0
 28 25  1  0  0  0  0
 29 32  1  0  0  0  0
 31 32  1  0  0  0  0
 32 30  1  0  0  0  0
 35 34  1  0  0  0  0
 36 33  1  0  0  0  0
 37 35  1  0  0  0  0
 37 36  1  0  0  0  0
 38 33  1  0  0  0  0
 38 34  1  0  0  0  0
 39 10  1  0  0  0  0
 40 41  1  0  0  0  0
 40 39  1  0  0  0  0
 42 41  1  0  0  0  0
 44 43  1  6  0  0  0
 44 42  1  0  0  0  0
 45 46  1  0  0  0  0
 46 44  1  0  0  0  0
M  END
>  <MODEL>
4

>  <REMARK>
 VINA RESULT:      -3.5      2.489      8.974
  Name = 
  11 active torsions:
  status: ('A' for Active; 'I' for Inactive)
    1  A    between atoms: C_4  and  C_34
    2  A    between atoms: C_4  and  C_42
    3  A    between atoms: N_6  and  C_42
    4  A    between atoms: N_6  and  C_44
    5  A    between atoms: N_18  and  C_22
    6  A    between atoms: C_23  and  C_40
    7  A    between atoms: C_24  and  C_46
    8  A    between atoms: C_25  and  C_33
    9  A    between atoms: C_25  and  C_44
   10  A    between atoms: C_27  and  C_29
   11  A    between atoms: C_37  and  C_46
                            x       y       z     vdW  Elec       q    Type
                         _______ _______ _______ _____ _____    ______ ____

>  <TORSDO>
F 11

$$$$
=
 OpenBabel11042420573D

 46 50  0  0  1  0  0  0  0  0999 V2000
  163.5020  211.0600  154.2260 C   0  0  0  0  0  1  0  0  0  0  0  0
  161.0960  211.7050  154.2810 C   0  0  0  0  0  2  0  0  0  0  0  0
  159.3970  209.9750  154.9730 C   0  0  0  0  0  0  0  0  0  0  0  0
  157.0570  210.5660  155.2450 C   0  0  0  0  0  0  0  0  0  0  0  0
  159.6980  211.3080  154.6520 C   0  0  0  0  0  0  0  0  0  0  0  0
  155.6700  210.0820  155.4890 C   0  0  0  0  0  1  0  0  0  0  0  0
  157.3530  211.9190  154.9340 C   0  0  0  0  0  0  0  0  0  0  0  0
  161.7410  209.2770  154.5630 C   0  0  2  0  0  3  0  0  0  0  0  0
  160.4100  209.0100  155.0200 O   0  0  0  0  0  0  0  0  0  0  0  0
  162.1520  210.7430  154.8550 C   0  0  1  0  0  0  0  0  0  0  0  0
  158.0820  209.6140  155.2630 C   0  0  0  0  0  3  0  0  0  0  0  0
  158.6810  212.2620  154.6250 C   0  0  0  0  0  3  0  0  0  0  0  0
  161.9170  207.3960  150.3870 N   0  0  0  0  0  0  0  0  0  0  0  0
  161.3080  208.7000  150.1560 C   0  0  0  0  0  2  0  0  0  0  0  0
  162.2510  209.8790  152.1200 C   0  0  0  0  0  3  0  0  0  0  0  0
  162.2410  205.2580  153.2840 N   0  0  0  0  0  0  0  0  0  0  0  0
  162.4520  205.4680  151.8370 C   0  0  2  0  0  3  0  0  0  0  0  0
  161.8920  208.8450  153.1210 C   0  0  0  0  0  0  0  0  0  0  0  0
  161.8640  207.5320  152.8320 C   0  0  0  0  0  0  0  0  0  0  0  0
  162.5320  210.9400  149.9580 C   0  0  0  0  0  1  0  0  0  0  0  0
  162.1280  206.8990  151.5680 C   0  0  0  0  0  0  0  0  0  0  0  0
  161.8940  206.5160  153.8140 N   0  0  0  0  0  0  0  0  0  0  0  0
  162.0810  209.8020  150.7990 C   0  0  0  0  0  0  0  0  0  0  0  0
  160.3190  202.6370  149.2580 O   0  0  0  0  0  0  0  0  0  0  0  0
  161.6270  204.5470  149.6220 N   0  0  0  0  0  2  0  0  0  0  0  0
  160.7790  203.7860  151.6690 O   0  0  0  0  0  0  0  0  0  0  0  0
  160.9530  203.6100  148.7740 C   0  0  0  0  0  0  0  0  0  0  0  0
  161.5610  204.5590  151.0530 C   0  0  0  0  0  0  0  0  0  0  0  0
  161.0500  203.7620  147.2940 C   0  0  0  0  0  2  0  0  0  0  0  0
  161.4650  206.1470  146.7200 C   0  0  0  0  0  1  0  0  0  0  0  0
  162.7840  204.3600  145.6320 C   0  0  0  0  0  1  0  0  0  0  0  0
  162.1070  204.7850  146.9200 C   0  0  0  0  0  3  0  0  0  0  0  0
  155.7820  213.4350  156.1880 C   0  0  0  0  0  2  0  0  0  0  0  0
  154.0070  214.4490  154.9280 O   0  0  0  0  0  0  0  0  0  0  0  0
  154.3220  213.7010  153.7800 C   0  0  0  0  0  2  0  0  0  0  0  0
  156.3490  212.9540  154.9240 N   0  0  0  0  0  0  0  0  0  0  0  0
  155.8380  213.5250  153.6760 C   0  0  0  0  0  2  0  0  0  0  0  0
  154.2730  213.6190  156.0320 C   0  0  0  0  0  2  0  0  0  0  0  0
  162.2710  210.9150  156.3760 C   0  0  0  0  0  2  0  0  0  0  0  0
  163.6980  210.7420  156.8790 C   0  0  0  0  0  2  0  0  0  0  0  0
  164.2860  212.0410  157.1450 N   0  0  0  0  0  2  0  0  0  0  0  0
  165.7240  211.8380  157.1850 C   0  0  0  0  0  2  0  0  0  0  0  0
  166.1610  214.1480  156.8630 O   0  0  0  0  0  1  0  0  0  0  0  0
  166.4190  212.8830  156.3350 C   0  0  1  0  0  3  0  0  0  0  0  0
  168.5910  213.7800  156.7460 O   0  0  0  0  0  1  0  0  0  0  0  0
  167.9190  212.6350  156.3170 C   0  0  0  0  0  2  0  0  0  0  0  0
  2  5  1  0  0  0  0
  2 10  1  0  0  0  0
  3  9  1  0  0  0  0
  3 11  1  0  0  0  0
  4 11  2  0  0  0  0
  4  6  1  0  0  0  0
  5  3  2  0  0  0  0
  7  4  1  0  0  0  0
  8 18  1  6  0  0  0
  8 10  1  0  0  0  0
  8  9  1  0  0  0  0
 10  1  1  6  0  0  0
 10 39  1  0  0  0  0
 12  5  1  0  0  0  0
 12  7  2  0  0  0  0
 13 21  2  0  0  0  0
 14 13  1  0  0  0  0
 14 23  1  0  0  0  0
 15 18  1  0  0  0  0
 16 22  2  0  0  0  0
 17 28  1  6  0  0  0
 17 16  1  0  0  0  0
 19 18  2  0  0  0  0
 19 22  1  0  0  0  0
 20 23  1  0  0  0  0
 21 17  1  0  0  0  0
 21 19  1  0  0  0  0
 23 15  2  0  0  0  0
 25 28  1  0  0  0  0
 27 24  2  0  0  0  0
 27 25  1  0  0  0  0
 28 26  2  0  0  0  0
 29 27  1  0  0  0  0
 30 32  1  0  0  0  0
 31 32  1  0  0  0  0
 32 29  1  0  0  0  0
 34 38  1  0  0  0  0
 35 34  1  0  0  0  0
 36  7  1  0  0  0  0
 36 33  1  0  0  0  0
 37 35  1  0  0  0  0
 37 36  1  0  0  0  0
 38 33  1  0  0  0  0
 39 40  1  0  0  0  0
 40 41  1  0  0  0  0
 41 42  1  0  0  0  0
 44 43  1  1  0  0  0
 44 42  1  0  0  0  0
 46 44  1  0  0  0  0
 46 45  1  0  0  0  0
M  END
>  <MODEL>
5

>  <REMARK>
 VINA RESULT:      -3.3      4.360      8.379
  Name = 
  11 active torsions:
  status: ('A' for Active; 'I' for Inactive)
    1  A    between atoms: C_4  and  C_34
    2  A    between atoms: C_4  and  C_42
    3  A    between atoms: N_6  and  C_42
    4  A    between atoms: N_6  and  C_44
    5  A    between atoms: N_18  and  C_22
    6  A    between atoms: C_23  and  C_40
    7  A    between atoms: C_24  and  C_46
    8  A    between atoms: C_25  and  C_33
    9  A    between atoms: C_25  and  C_44
   10  A    between atoms: C_27  and  C_29
   11  A    between atoms: C_37  and  C_46
                            x       y       z     vdW  Elec       q    Type
                         _______ _______ _______ _____ _____    ______ ____

>  <TORSDO>
F 11

$$$$
=
 OpenBabel11042420573D

 46 50  0  0  1  0  0  0  0  0999 V2000
  160.4670  207.8550  153.2070 C   0  0  0  0  0  1  0  0  0  0  0  0
  160.3540  206.9690  150.8810 C   0  0  0  0  0  2  0  0  0  0  0  0
  162.3370  207.3090  149.3610 C   0  0  0  0  0  0  0  0  0  0  0  0
  162.3950  206.3120  147.1470 C   0  0  0  0  0  0  0  0  0  0  0  0
  161.0870  206.7160  149.5970 C   0  0  0  0  0  0  0  0  0  0  0  0
  163.1100  206.2110  145.8440 C   0  0  0  0  0  1  0  0  0  0  0  0
  161.1370  205.6970  147.3810 C   0  0  0  0  0  0  0  0  0  0  0  0
  162.2700  208.4780  151.5470 C   0  0  2  0  0  3  0  0  0  0  0  0
  162.9500  208.0880  150.3490 O   0  0  0  0  0  0  0  0  0  0  0  0
  161.2990  207.3680  152.0280 C   0  0  1  0  0  0  0  0  0  0  0  0
  162.9790  207.1060  148.1400 C   0  0  0  0  0  3  0  0  0  0  0  0
  160.4950  205.9280  148.6100 C   0  0  0  0  0  3  0  0  0  0  0  0
  160.4180  212.4960  150.3490 N   0  0  0  0  0  0  0  0  0  0  0  0
  159.4780  211.9560  151.3230 C   0  0  0  0  0  2  0  0  0  0  0  0
  161.0530  210.4980  152.5600 C   0  0  0  0  0  3  0  0  0  0  0  0
  162.9400  211.0270  148.2170 N   0  0  0  0  0  2  0  0  0  0  0  0
  162.1880  212.2240  148.6470 C   0  0  2  0  0  3  0  0  0  0  0  0
  161.6430  209.8430  151.3680 C   0  0  1  0  0  3  0  0  0  0  0  0
  161.7920  210.4750  150.1900 C   0  0  0  0  0  0  0  0  0  0  0  0
  159.7080  212.0320  153.8710 C   0  0  0  0  0  1  0  0  0  0  0  0
  161.4090  211.8190  149.8520 C   0  0  0  0  0  0  0  0  0  0  0  0
  162.6620  210.0280  149.1690 N   0  0  0  0  0  0  0  0  0  0  0  0
  160.1610  211.4900  152.5640 C   0  0  0  0  0  0  0  0  0  0  0  0
  159.2670  213.8830  145.8320 O   0  0  0  0  0  0  0  0  0  0  0  0
  159.8600  212.6450  147.7310 N   0  0  0  0  0  2  0  0  0  0  0  0
  161.7850  213.1210  146.4810 O   0  0  0  0  0  0  0  0  0  0  0  0
  158.9010  213.2070  146.8290 C   0  0  0  0  0  0  0  0  0  0  0  0
  161.2820  212.6790  147.5490 C   0  0  0  0  0  0  0  0  0  0  0  0
  157.4460  213.0320  147.1040 C   0  0  0  0  0  2  0  0  0  0  0  0
  156.6450  214.4350  148.9960 C   0  0  0  0  0  1  0  0  0  0  0  0
  155.4370  214.4530  146.8380 C   0  0  0  0  0  1  0  0  0  0  0  0
  156.8040  214.3520  147.4880 C   0  0  0  0  0  3  0  0  0  0  0  0
  160.4280  203.3990  146.6370 C   0  0  0  0  0  2  0  0  0  0  0  0
  159.8540  203.1310  144.3210 O   0  0  0  0  0  0  0  0  0  0  0  0
  160.2680  204.4390  144.0110 C   0  0  0  0  0  2  0  0  0  0  0  0
  160.4930  204.8460  146.4100 N   0  0  0  0  0  0  0  0  0  0  0  0
  159.9270  205.3780  145.1690 C   0  0  0  0  0  2  0  0  0  0  0  0
  160.7170  202.6660  145.3280 C   0  0  0  0  0  2  0  0  0  0  0  0
  162.1360  206.1650  152.4850 C   0  0  0  0  0  2  0  0  0  0  0  0
  161.3440  204.8640  152.4910 C   0  0  0  0  0  2  0  0  0  0  0  0
  161.9160  203.9350  151.5350 N   0  0  0  0  0  2  0  0  0  0  0  0
  161.3250  202.6400  151.8210 C   0  0  0  0  0  2  0  0  0  0  0  0
  160.4760  203.1790  149.6710 O   0  0  0  0  0  1  0  0  0  0  0  0
  160.3990  202.2320  150.6930 C   0  0  1  0  0  3  0  0  0  0  0  0
  161.6140  201.0220  149.0350 O   0  0  0  0  0  1  0  0  0  0  0  0
  160.7950  200.8670  150.1530 C   0  0  0  0  0  2  0  0  0  0  0  0
  2 10  1  0  0  0  0
  3  5  1  0  0  0  0
  3  9  1  0  0  0  0
  4  7  2  0  0  0  0
  4 11  1  0  0  0  0
  5  2  1  0  0  0  0
  6  4  1  0  0  0  0
  7 12  1  0  0  0  0
  8  9  1  6  0  0  0
  8 10  1  0  0  0  0
 10 39  1  0  0  0  0
 10  1  1  1  0  0  0
 11  3  2  0  0  0  0
 12  5  2  0  0  0  0
 13 14  1  0  0  0  0
 14 23  1  0  0  0  0
 15 23  2  0  0  0  0
 16 17  1  0  0  0  0
 16 22  1  0  0  0  0
 17 28  1  6  0  0  0
 17 21  1  0  0  0  0
 18  8  1  0  0  0  0
 18 15  1  1  0  0  0
 19 18  1  0  0  0  0
 21 19  1  0  0  0  0
 21 13  2  0  0  0  0
 22 19  2  0  0  0  0
 23 20  1  0  0  0  0
 24 27  2  0  0  0  0
 26 28  2  0  0  0  0
 27 29  1  0  0  0  0
 27 25  1  0  0  0  0
 28 25  1  0  0  0  0
 29 32  1  0  0  0  0
 31 32  1  0  0  0  0
 32 30  1  0  0  0  0
 34 38  1  0  0  0  0
 35 34  1  0  0  0  0
 35 37  1  0  0  0  0
 36 33  1  0  0  0  0
 36  7  1  0  0  0  0
 37 36  1  0  0  0  0
 38 33  1  0  0  0  0
 39 40  1  0  0  0  0
 41 42  1  0  0  0  0
 41 40  1  0  0  0  0
 44 43  1  6  0  0  0
 44 42  1  0  0  0  0
 45 46  1  0  0  0  0
 46 44  1  0  0  0  0
M  END
>  <MODEL>
6

>  <REMARK>
 VINA RESULT:      -3.3      2.788      4.749
  Name = 
  11 active torsions:
  status: ('A' for Active; 'I' for Inactive)
    1  A    between atoms: C_4  and  C_34
    2  A    between atoms: C_4  and  C_42
    3  A    between atoms: N_6  and  C_42
    4  A    between atoms: N_6  and  C_44
    5  A    between atoms: N_18  and  C_22
    6  A    between atoms: C_23  and  C_40
    7  A    between atoms: C_24  and  C_46
    8  A    between atoms: C_25  and  C_33
    9  A    between atoms: C_25  and  C_44
   10  A    between atoms: C_27  and  C_29
   11  A    between atoms: C_37  and  C_46
                            x       y       z     vdW  Elec       q    Type
                         _______ _______ _______ _____ _____    ______ ____

>  <TORSDO>
F 11

$$$$
