=
 OpenBabel11052409573D

 29 31  0  0  1  0  0  0  0  0999 V2000
  162.5410  206.4070  153.0590 O   0  0  0  0  0  1  0  0  0  0  0  0
  161.3030  206.3990  152.4100 C   0  0  2  0  0  3  0  0  0  0  0  0
  161.1600  203.7240  148.1380 C   0  0  0  0  0  0  0  0  0  0  0  0
  160.7700  202.7340  151.4970 C   0  0  0  0  0  3  0  0  0  0  0  0
  160.7610  201.8310  149.2400 O   0  0  0  0  0  0  0  0  0  0  0  0
  160.9330  202.3660  148.0470 C   0  0  0  0  0  0  0  0  0  0  0  0
  160.9050  201.7160  146.8140 C   0  0  0  0  0  3  0  0  0  0  0  0
  161.1770  205.1540  151.5840 C   0  0  0  0  0  0  0  0  0  0  0  0
  161.1210  202.4940  145.6610 C   0  0  0  0  0  3  0  0  0  0  0  0
  160.9240  203.9230  152.2330 C   0  0  0  0  0  3  0  0  0  0  0  0
  160.8730  202.8150  150.1110 C   0  0  0  0  0  0  0  0  0  0  0  0
  161.2730  205.2090  150.1770 C   0  0  0  0  0  3  0  0  0  0  0  0
  161.1210  204.0140  149.4780 C   0  0  0  0  0  0  0  0  0  0  0  0
  161.3820  204.5190  147.0160 C   0  0  0  0  0  3  0  0  0  0  0  0
  161.3560  203.8840  145.7610 C   0  0  0  0  0  3  0  0  0  0  0  0
  161.1140  207.6660  151.5590 C   0  0  2  0  0  3  0  0  0  0  0  0
  162.1570  208.3950  149.4770 N   0  0  0  0  0  1  0  0  0  0  0  0
  162.4050  208.1090  150.8790 C   0  0  0  0  0  2  0  0  0  0  0  0
  160.5080  208.8240  152.3650 C   0  0  0  0  0  2  0  0  0  0  0  0
  161.3920  210.0690  152.3900 C   0  0  0  0  0  2  0  0  0  0  0  0
  161.7510  210.4050  153.7580 N   0  0  0  0  0  2  0  0  0  0  0  0
  160.8760  211.4160  154.1820 N   0  0  0  0  0  2  0  0  0  0  0  0
  160.0230  211.2740  155.3250 C   0  0  0  0  0  0  0  0  0  0  0  0
  158.4680  211.8090  155.2750 S   0  0  0  0  0  0  0  0  0  0  0  0
  160.5510  210.6290  156.4940 N   0  0  0  0  0  2  0  0  0  0  0  0
  161.8800  208.5950  156.8430 C   0  0  0  0  0  1  0  0  0  0  0  0
  160.4880  209.2020  156.7990 C   0  0  2  0  0  3  0  0  0  0  0  0
  160.1550  207.2190  155.8730 C   0  0  0  0  0  1  0  0  0  0  0  0
  159.6930  208.5360  155.8630 O   0  0  0  0  0  0  0  0  0  0  0  0
  2  1  1  6  0  0  0
  3 13  1  0  0  0  0
  4 10  1  0  0  0  0
  5 11  1  0  0  0  0
  6  3  1  0  0  0  0
  6  5  1  0  0  0  0
  7  6  2  0  0  0  0
  8 10  2  0  0  0  0
  8  2  1  0  0  0  0
  9 15  2  0  0  0  0
  9  7  1  0  0  0  0
 11  4  2  0  0  0  0
 12  8  1  0  0  0  0
 13 11  1  0  0  0  0
 13 12  2  0  0  0  0
 14  3  2  0  0  0  0
 15 14  1  0  0  0  0
 16 18  1  1  0  0  0
 16 19  1  0  0  0  0
 16  2  1  0  0  0  0
 17 18  1  0  0  0  0
 19 20  1  0  0  0  0
 20 21  1  0  0  0  0
 21 22  1  0  0  0  0
 22 23  1  0  0  0  0
 23 25  1  0  0  0  0
 24 23  2  0  0  0  0
 25 27  1  0  0  0  0
 27 26  1  6  0  0  0
 29 28  1  0  0  0  0
 29 27  1  0  0  0  0
M  END
>  <MODEL>
1

>  <REMARK>
 VINA RESULT:      -7.8      0.000      0.000
  Name = 
  11 active torsions:
  status: ('A' for Active; 'I' for Inactive)
    1  A    between atoms: C_4  and  N_12
    2  A    between atoms: C_4  and  N_13
    3  A    between atoms: C_10  and  C_14
    4  A    between atoms: C_10  and  C_29
    5  A    between atoms: N_12  and  N_20
    6  A    between atoms: N_13  and  C_22
    7  A    between atoms: C_19  and  C_23
    8  A    between atoms: C_19  and  C_29
    9  A    between atoms: N_20  and  C_23
   10  A    between atoms: C_22  and  O_27
   11  A    between atoms: C_28  and  C_29
                            x       y       z     vdW  Elec       q    Type
                         _______ _______ _______ _____ _____    ______ ____

>  <TORSDO>
F 11

$$$$
=
 OpenBabel11052409573D

 29 31  0  0  1  0  0  0  0  0999 V2000
  161.7550  208.3290  150.3840 O   0  0  0  0  0  1  0  0  0  0  0  0
  161.8350  207.4870  151.4960 C   0  0  2  0  0  3  0  0  0  0  0  0
  161.2160  203.7020  148.2230 C   0  0  0  0  0  0  0  0  0  0  0  0
  160.8610  203.8070  151.7270 C   0  0  0  0  0  3  0  0  0  0  0  0
  160.6570  202.2820  149.8450 O   0  0  0  0  0  0  0  0  0  0  0  0
  160.8370  202.4150  148.5450 C   0  0  0  0  0  0  0  0  0  0  0  0
  160.6840  201.4360  147.5650 C   0  0  0  0  0  3  0  0  0  0  0  0
  161.5370  206.0770  151.0830 C   0  0  0  0  0  0  0  0  0  0  0  0
  160.9370  201.8060  146.2290 C   0  0  0  0  0  3  0  0  0  0  0  0
  161.1770  205.1340  152.0720 C   0  0  0  0  0  3  0  0  0  0  0  0
  160.9140  203.4600  150.3800 C   0  0  0  0  0  0  0  0  0  0  0  0
  161.5790  205.7010  149.7230 C   0  0  0  0  0  3  0  0  0  0  0  0
  161.2670  204.3790  149.4150 C   0  0  0  0  0  0  0  0  0  0  0  0
  161.4770  204.0960  146.9140 C   0  0  0  0  0  3  0  0  0  0  0  0
  161.3280  203.1240  145.9070 C   0  0  0  0  0  3  0  0  0  0  0  0
  160.8950  207.9590  152.6200 C   0  0  2  0  0  3  0  0  0  0  0  0
  161.4370  210.2870  153.1120 N   0  0  0  0  0  1  0  0  0  0  0  0
  160.4780  209.4170  152.4540 C   0  0  0  0  0  2  0  0  0  0  0  0
  161.4930  207.7280  154.0150 C   0  0  0  0  0  2  0  0  0  0  0  0
  160.4500  207.3400  155.0610 C   0  0  0  0  0  2  0  0  0  0  0  0
  160.4680  208.2850  156.1650 N   0  0  0  0  0  2  0  0  0  0  0  0
  159.4010  209.1740  155.9710 N   0  0  0  0  0  2  0  0  0  0  0  0
  159.5360  210.5920  156.1310 C   0  0  0  0  0  0  0  0  0  0  0  0
  160.9440  211.2370  156.6850 S   0  0  0  0  0  0  0  0  0  0  0  0
  158.4250  211.4270  155.7700 N   0  0  0  0  0  2  0  0  0  0  0  0
  158.8500  212.7660  153.7570 C   0  0  0  0  0  1  0  0  0  0  0  0
  157.9670  211.7200  154.4150 C   0  0  2  0  0  3  0  0  0  0  0  0
  155.9250  211.0730  154.9780 C   0  0  0  0  0  1  0  0  0  0  0  0
  156.6350  212.1420  154.4290 O   0  0  0  0  0  0  0  0  0  0  0  0
  2  1  1  6  0  0  0
  2 16  1  0  0  0  0
  3  6  1  0  0  0  0
  3 13  1  0  0  0  0
  4 10  1  0  0  0  0
  5 11  1  0  0  0  0
  6  5  1  0  0  0  0
  7  6  2  0  0  0  0
  8  2  1  0  0  0  0
  8 10  2  0  0  0  0
  9  7  1  0  0  0  0
 11  4  2  0  0  0  0
 12  8  1  0  0  0  0
 13 12  2  0  0  0  0
 13 11  1  0  0  0  0
 14  3  2  0  0  0  0
 15  9  2  0  0  0  0
 15 14  1  0  0  0  0
 16 18  1  6  0  0  0
 16 19  1  0  0  0  0
 18 17  1  0  0  0  0
 19 20  1  0  0  0  0
 20 21  1  0  0  0  0
 22 23  1  0  0  0  0
 22 21  1  0  0  0  0
 23 24  2  0  0  0  0
 25 23  1  0  0  0  0
 27 26  1  1  0  0  0
 27 29  1  0  0  0  0
 27 25  1  0  0  0  0
 29 28  1  0  0  0  0
M  END
>  <MODEL>
2

>  <REMARK>
 VINA RESULT:      -7.6      1.876      2.749
  Name = 
  11 active torsions:
  status: ('A' for Active; 'I' for Inactive)
    1  A    between atoms: C_4  and  N_12
    2  A    between atoms: C_4  and  N_13
    3  A    between atoms: C_10  and  C_14
    4  A    between atoms: C_10  and  C_29
    5  A    between atoms: N_12  and  N_20
    6  A    between atoms: N_13  and  C_22
    7  A    between atoms: C_19  and  C_23
    8  A    between atoms: C_19  and  C_29
    9  A    between atoms: N_20  and  C_23
   10  A    between atoms: C_22  and  O_27
   11  A    between atoms: C_28  and  C_29
                            x       y       z     vdW  Elec       q    Type
                         _______ _______ _______ _____ _____    ______ ____

>  <TORSDO>
F 11

$$$$
=
 OpenBabel11052409573D

 29 31  0  0  1  0  0  0  0  0999 V2000
  162.1950  206.4700  153.1370 O   0  0  0  0  0  1  0  0  0  0  0  0
  161.0660  206.6130  152.3250 C   0  0  2  0  0  3  0  0  0  0  0  0
  161.4200  204.9300  147.5850 C   0  0  0  0  0  0  0  0  0  0  0  0
  160.8610  203.2120  150.6100 C   0  0  0  0  0  3  0  0  0  0  0  0
  161.0780  202.8230  148.2200 O   0  0  0  0  0  0  0  0  0  0  0  0
  161.2970  203.6140  147.1880 C   0  0  0  0  0  0  0  0  0  0  0  0
  161.4030  203.2480  145.8480 C   0  0  0  0  0  3  0  0  0  0  0  0
  161.0880  205.5730  151.2460 C   0  0  0  0  0  0  0  0  0  0  0  0
  161.6460  204.2690  144.9090 C   0  0  0  0  0  3  0  0  0  0  0  0
  160.8770  204.2190  151.5930 C   0  0  0  0  0  3  0  0  0  0  0  0
  161.0570  203.5980  149.2880 C   0  0  0  0  0  0  0  0  0  0  0  0
  161.2810  205.9390  149.8960 C   0  0  0  0  0  3  0  0  0  0  0  0
  161.2650  204.9190  148.9480 C   0  0  0  0  0  0  0  0  0  0  0  0
  161.6640  205.9610  146.6820 C   0  0  0  0  0  3  0  0  0  0  0  0
  161.7740  205.6140  145.3230 C   0  0  0  0  0  3  0  0  0  0  0  0
  160.9780  208.0350  151.7430 C   0  0  2  0  0  3  0  0  0  0  0  0
  162.1670  209.3590  150.0740 N   0  0  0  0  0  1  0  0  0  0  0  0
  162.3320  208.5550  151.2720 C   0  0  0  0  0  2  0  0  0  0  0  0
  160.3330  209.0260  152.7210 C   0  0  0  0  0  2  0  0  0  0  0  0
  161.3510  209.7950  153.5600 C   0  0  0  0  0  2  0  0  0  0  0  0
  161.3160  209.3380  154.9390 N   0  0  0  0  0  2  0  0  0  0  0  0
  160.0460  209.6450  155.4490 N   0  0  0  0  0  2  0  0  0  0  0  0
  159.7170  210.9330  155.9840 C   0  0  0  0  0  0  0  0  0  0  0  0
  160.8100  211.7600  156.8950 S   0  0  0  0  0  0  0  0  0  0  0  0
  158.4280  211.4880  155.6810 N   0  0  0  0  0  2  0  0  0  0  0  0
  158.4100  212.2200  153.3390 C   0  0  0  0  0  1  0  0  0  0  0  0
  157.7200  211.3900  154.4070 C   0  0  2  0  0  3  0  0  0  0  0  0
  155.7820  210.7550  155.2680 C   0  0  0  0  0  1  0  0  0  0  0  0
  156.3900  211.7890  154.5540 O   0  0  0  0  0  0  0  0  0  0  0  0
  2  1  1  6  0  0  0
  3 13  1  0  0  0  0
  4 10  1  0  0  0  0
  5 11  1  0  0  0  0
  6  3  1  0  0  0  0
  6  5  1  0  0  0  0
  7  6  2  0  0  0  0
  8 10  2  0  0  0  0
  8  2  1  0  0  0  0
  9 15  2  0  0  0  0
  9  7  1  0  0  0  0
 11  4  2  0  0  0  0
 12  8  1  0  0  0  0
 13 11  1  0  0  0  0
 13 12  2  0  0  0  0
 14  3  2  0  0  0  0
 15 14  1  0  0  0  0
 16 18  1  1  0  0  0
 16  2  1  0  0  0  0
 16 19  1  0  0  0  0
 17 18  1  0  0  0  0
 19 20  1  0  0  0  0
 20 21  1  0  0  0  0
 21 22  1  0  0  0  0
 22 23  1  0  0  0  0
 23 24  2  0  0  0  0
 25 23  1  0  0  0  0
 27 26  1  6  0  0  0
 27 29  1  0  0  0  0
 27 25  1  0  0  0  0
 29 28  1  0  0  0  0
M  END
>  <MODEL>
3

>  <REMARK>
 VINA RESULT:      -7.5      1.782      2.362
  Name = 
  11 active torsions:
  status: ('A' for Active; 'I' for Inactive)
    1  A    between atoms: C_4  and  N_12
    2  A    between atoms: C_4  and  N_13
    3  A    between atoms: C_10  and  C_14
    4  A    between atoms: C_10  and  C_29
    5  A    between atoms: N_12  and  N_20
    6  A    between atoms: N_13  and  C_22
    7  A    between atoms: C_19  and  C_23
    8  A    between atoms: C_19  and  C_29
    9  A    between atoms: N_20  and  C_23
   10  A    between atoms: C_22  and  O_27
   11  A    between atoms: C_28  and  C_29
                            x       y       z     vdW  Elec       q    Type
                         _______ _______ _______ _____ _____    ______ ____

>  <TORSDO>
F 11

$$$$
=
 OpenBabel11052409573D

 29 31  0  0  1  0  0  0  0  0999 V2000
  162.5310  206.3890  153.0640 O   0  0  0  0  0  1  0  0  0  0  0  0
  161.2960  206.3930  152.4090 C   0  0  2  0  0  3  0  0  0  0  0  0
  161.1660  203.8130  148.0780 C   0  0  0  0  0  0  0  0  0  0  0  0
  160.7790  202.7470  151.4140 C   0  0  0  0  0  3  0  0  0  0  0  0
  160.7750  201.8940  149.1380 O   0  0  0  0  0  0  0  0  0  0  0  0
  160.9450  202.4560  147.9570 C   0  0  0  0  0  0  0  0  0  0  0  0
  160.9200  201.8330  146.7110 C   0  0  0  0  0  3  0  0  0  0  0  0
  161.1760  205.1660  151.5550 C   0  0  0  0  0  0  0  0  0  0  0  0
  161.1330  202.6380  145.5750 C   0  0  0  0  0  3  0  0  0  0  0  0
  160.9280  203.9200  152.1770 C   0  0  0  0  0  3  0  0  0  0  0  0
  160.8820  202.8590  150.0310 C   0  0  0  0  0  0  0  0  0  0  0  0
  161.2710  205.2530  150.1500 C   0  0  0  0  0  3  0  0  0  0  0  0
  161.1250  204.0730  149.4240 C   0  0  0  0  0  0  0  0  0  0  0  0
  161.3830  204.6330  146.9740 C   0  0  0  0  0  3  0  0  0  0  0  0
  161.3610  204.0260  145.7060 C   0  0  0  0  0  3  0  0  0  0  0  0
  161.1090  207.6780  151.5840 C   0  0  2  0  0  3  0  0  0  0  0  0
  162.1270  209.1310  149.9080 N   0  0  0  0  0  1  0  0  0  0  0  0
  162.4100  208.1530  150.9440 C   0  0  0  0  0  2  0  0  0  0  0  0
  160.4710  208.8090  152.4030 C   0  0  0  0  0  2  0  0  0  0  0  0
  161.4330  209.4480  153.4010 C   0  0  0  0  0  2  0  0  0  0  0  0
  161.1840  210.8770  153.4970 N   0  0  0  0  0  2  0  0  0  0  0  0
  160.2000  211.1940  152.5480 N   0  0  0  0  0  2  0  0  0  0  0  0
  159.4020  212.3810  152.6270 C   0  0  0  0  0  0  0  0  0  0  0  0
  159.5110  213.5370  151.4620 S   0  0  0  0  0  0  0  0  0  0  0  0
  158.4910  212.5180  153.7290 N   0  0  0  0  0  2  0  0  0  0  0  0
  156.2780  212.0070  154.6610 C   0  0  0  0  0  1  0  0  0  0  0  0
  157.6490  211.4650  154.2920 C   0  0  2  0  0  3  0  0  0  0  0  0
  158.7030  211.9710  156.1720 C   0  0  0  0  0  1  0  0  0  0  0  0
  158.2650  210.8900  155.4060 O   0  0  0  0  0  0  0  0  0  0  0  0
  2  1  1  6  0  0  0
  3 13  1  0  0  0  0
  4 10  1  0  0  0  0
  5 11  1  0  0  0  0
  6  3  1  0  0  0  0
  6  5  1  0  0  0  0
  7  6  2  0  0  0  0
  8 10  2  0  0  0  0
  8  2  1  0  0  0  0
  9 15  2  0  0  0  0
  9  7  1  0  0  0  0
 11  4  2  0  0  0  0
 12  8  1  0  0  0  0
 13 11  1  0  0  0  0
 13 12  2  0  0  0  0
 14  3  2  0  0  0  0
 15 14  1  0  0  0  0
 16 18  1  1  0  0  0
 16 19  1  0  0  0  0
 16  2  1  0  0  0  0
 17 18  1  0  0  0  0
 19 20  1  0  0  0  0
 20 21  1  0  0  0  0
 22 23  1  0  0  0  0
 22 21  1  0  0  0  0
 23 25  1  0  0  0  0
 24 23  2  0  0  0  0
 25 27  1  0  0  0  0
 27 26  1  1  0  0  0
 27 29  1  0  0  0  0
 29 28  1  0  0  0  0
M  END
>  <MODEL>
4

>  <REMARK>
 VINA RESULT:      -7.5      1.654      2.266
  Name = 
  11 active torsions:
  status: ('A' for Active; 'I' for Inactive)
    1  A    between atoms: C_4  and  N_12
    2  A    between atoms: C_4  and  N_13
    3  A    between atoms: C_10  and  C_14
    4  A    between atoms: C_10  and  C_29
    5  A    between atoms: N_12  and  N_20
    6  A    between atoms: N_13  and  C_22
    7  A    between atoms: C_19  and  C_23
    8  A    between atoms: C_19  and  C_29
    9  A    between atoms: N_20  and  C_23
   10  A    between atoms: C_22  and  O_27
   11  A    between atoms: C_28  and  C_29
                            x       y       z     vdW  Elec       q    Type
                         _______ _______ _______ _____ _____    ______ ____

>  <TORSDO>
F 11

$$$$
=
 OpenBabel11052409573D

 29 31  0  0  1  0  0  0  0  0999 V2000
  161.6080  207.0490  154.1800 O   0  0  0  0  0  1  0  0  0  0  0  0
  160.8260  207.7490  153.2560 C   0  0  2  0  0  3  0  0  0  0  0  0
  161.0070  203.9490  149.9450 C   0  0  0  0  0  0  0  0  0  0  0  0
  161.4310  207.4190  149.5050 C   0  0  0  0  0  3  0  0  0  0  0  0
  161.4500  205.3320  148.2580 O   0  0  0  0  0  0  0  0  0  0  0  0
  161.2620  204.0710  148.5950 C   0  0  0  0  0  0  0  0  0  0  0  0
  161.2980  202.9570  147.7600 C   0  0  0  0  0  3  0  0  0  0  0  0
  160.9740  207.1280  151.8990 C   0  0  0  0  0  0  0  0  0  0  0  0
  161.0610  201.6970  148.3420 C   0  0  0  0  0  3  0  0  0  0  0  0
  161.2550  207.9600  150.7910 C   0  0  0  0  0  3  0  0  0  0  0  0
  161.3210  206.0390  149.3640 C   0  0  0  0  0  0  0  0  0  0  0  0
  160.8720  205.7300  151.7310 C   0  0  0  0  0  3  0  0  0  0  0  0
  161.0450  205.2270  150.4440 C   0  0  0  0  0  0  0  0  0  0  0  0
  160.7650  202.7180  150.5500 C   0  0  0  0  0  3  0  0  0  0  0  0
  160.7980  201.5790  149.7250 C   0  0  0  0  0  3  0  0  0  0  0  0
  161.1910  209.2430  153.2390 C   0  0  2  0  0  3  0  0  0  0  0  0
  160.5120  210.0020  155.4570 N   0  0  0  0  0  1  0  0  0  0  0  0
  161.6580  209.7430  154.6020 C   0  0  0  0  0  2  0  0  0  0  0  0
  160.0450  210.1170  152.7110 C   0  0  0  0  0  2  0  0  0  0  0  0
  160.5160  211.4550  152.1480 C   0  0  0  0  0  2  0  0  0  0  0  0
  159.4200  212.4100  152.1300 N   0  0  0  0  0  2  0  0  0  0  0  0
  159.8190  213.4880  151.3260 N   0  0  0  0  0  2  0  0  0  0  0  0
  159.5360  213.5530  149.9230 C   0  0  0  0  0  0  0  0  0  0  0  0
  157.9880  213.7240  149.3920 S   0  0  0  0  0  0  0  0  0  0  0  0
  160.6360  213.4950  149.0020 N   0  0  0  0  0  2  0  0  0  0  0  0
  162.2240  211.6380  148.7630 C   0  0  0  0  0  1  0  0  0  0  0  0
  161.0160  212.3500  148.1780 C   0  0  2  0  0  3  0  0  0  0  0  0
  160.1300  212.3970  146.1500 C   0  0  0  0  0  1  0  0  0  0  0  0
  161.2730  212.7540  146.8660 O   0  0  0  0  0  0  0  0  0  0  0  0
  2  1  1  1  0  0  0
  3 13  1  0  0  0  0
  3 14  1  0  0  0  0
  4 10  1  0  0  0  0
  5  6  1  0  0  0  0
  5 11  1  0  0  0  0
  6  3  2  0  0  0  0
  7  9  2  0  0  0  0
  7  6  1  0  0  0  0
  8  2  1  0  0  0  0
  9 15  1  0  0  0  0
 10  8  2  0  0  0  0
 11  4  2  0  0  0  0
 11 13  1  0  0  0  0
 12  8  1  0  0  0  0
 13 12  2  0  0  0  0
 15 14  2  0  0  0  0
 16 19  1  1  0  0  0
 16  2  1  0  0  0  0
 16 18  1  0  0  0  0
 18 17  1  0  0  0  0
 20 19  1  0  0  0  0
 21 20  1  0  0  0  0
 22 21  1  0  0  0  0
 23 22  1  0  0  0  0
 24 23  2  0  0  0  0
 25 23  1  0  0  0  0
 27 26  1  1  0  0  0
 27 25  1  0  0  0  0
 28 29  1  0  0  0  0
 29 27  1  0  0  0  0
M  END
>  <MODEL>
5

>  <REMARK>
 VINA RESULT:      -7.5      3.301      5.092
  Name = 
  11 active torsions:
  status: ('A' for Active; 'I' for Inactive)
    1  A    between atoms: C_4  and  N_12
    2  A    between atoms: C_4  and  N_13
    3  A    between atoms: C_10  and  C_14
    4  A    between atoms: C_10  and  C_29
    5  A    between atoms: N_12  and  N_20
    6  A    between atoms: N_13  and  C_22
    7  A    between atoms: C_19  and  C_23
    8  A    between atoms: C_19  and  C_29
    9  A    between atoms: N_20  and  C_23
   10  A    between atoms: C_22  and  O_27
   11  A    between atoms: C_28  and  C_29
                            x       y       z     vdW  Elec       q    Type
                         _______ _______ _______ _____ _____    ______ ____

>  <TORSDO>
F 11

$$$$
=
 OpenBabel11052409573D

 29 31  0  0  1  0  0  0  0  0999 V2000
  163.1730  206.0040  151.6920 O   0  0  0  0  0  1  0  0  0  0  0  0
  161.9480  206.5660  151.3220 C   0  0  2  0  0  3  0  0  0  0  0  0
  159.9850  210.6030  153.6200 C   0  0  0  0  0  0  0  0  0  0  0  0
  160.7990  207.4070  154.8600 C   0  0  0  0  0  3  0  0  0  0  0  0
  159.8960  209.5470  155.5780 O   0  0  0  0  0  0  0  0  0  0  0  0
  159.6470  210.6820  154.9550 C   0  0  0  0  0  0  0  0  0  0  0  0
  159.1150  211.8490  155.5010 C   0  0  0  0  0  3  0  0  0  0  0  0
  161.3790  207.3360  152.4750 C   0  0  0  0  0  0  0  0  0  0  0  0
  158.9300  212.9470  154.6390 C   0  0  0  0  0  3  0  0  0  0  0  0
  161.2990  206.7130  153.7420 C   0  0  0  0  0  3  0  0  0  0  0  0
  160.3900  208.7240  154.6730 C   0  0  0  0  0  0  0  0  0  0  0  0
  160.9620  208.6750  152.3130 C   0  0  0  0  0  3  0  0  0  0  0  0
  160.4660  209.3310  153.4370 C   0  0  0  0  0  0  0  0  0  0  0  0
  159.8090  211.6690  152.7420 C   0  0  0  0  0  3  0  0  0  0  0  0
  159.2750  212.8580  153.2720 C   0  0  0  0  0  3  0  0  0  0  0  0
  160.9710  205.4880  150.8210 C   0  0  2  0  0  3  0  0  0  0  0  0
  160.7990  203.5680  152.3170 N   0  0  0  0  0  1  0  0  0  0  0  0
  161.4580  204.0760  151.1250 C   0  0  0  0  0  2  0  0  0  0  0  0
  160.6550  205.6370  149.3260 C   0  0  0  0  0  2  0  0  0  0  0  0
  161.1110  206.9720  148.7430 C   0  0  0  0  0  2  0  0  0  0  0  0
  161.8030  206.7630  147.4820 N   0  0  0  0  0  2  0  0  0  0  0  0
  161.9850  205.3800  147.3310 N   0  0  0  0  0  2  0  0  0  0  0  0
  161.5290  204.6600  146.1790 C   0  0  0  0  0  0  0  0  0  0  0  0
  160.8330  205.4580  144.9200 S   0  0  0  0  0  0  0  0  0  0  0  0
  161.7210  203.2370  146.1440 N   0  0  0  0  0  2  0  0  0  0  0  0
  161.1640  201.8850  148.1150 C   0  0  0  0  0  1  0  0  0  0  0  0
  160.8100  202.2270  146.6780 C   0  0  2  0  0  3  0  0  0  0  0  0
  159.8830  201.3170  144.8860 C   0  0  0  0  0  1  0  0  0  0  0  0
  160.8310  201.0800  145.8820 O   0  0  0  0  0  0  0  0  0  0  0  0
  2  1  1  1  0  0  0
  2  8  1  0  0  0  0
  3  6  1  0  0  0  0
  6  7  2  0  0  0  0
  6  5  1  0  0  0  0
  8 10  1  0  0  0  0
  9  7  1  0  0  0  0
 10  4  2  0  0  0  0
 11  4  1  0  0  0  0
 11  5  1  0  0  0  0
 12  8  2  0  0  0  0
 12 13  1  0  0  0  0
 13  3  1  0  0  0  0
 13 11  2  0  0  0  0
 14 15  1  0  0  0  0
 14  3  2  0  0  0  0
 15  9  2  0  0  0  0
 16 19  1  6  0  0  0
 16 18  1  0  0  0  0
 16  2  1  0  0  0  0
 18 17  1  0  0  0  0
 20 19  1  0  0  0  0
 21 20  1  0  0  0  0
 22 21  1  0  0  0  0
 23 22  1  0  0  0  0
 24 23  2  0  0  0  0
 25 23  1  0  0  0  0
 25 27  1  0  0  0  0
 27 26  1  1  0  0  0
 28 29  1  0  0  0  0
 29 27  1  0  0  0  0
M  END
>  <MODEL>
6

>  <REMARK>
 VINA RESULT:      -7.4      3.694      8.978
  Name = 
  11 active torsions:
  status: ('A' for Active; 'I' for Inactive)
    1  A    between atoms: C_4  and  N_12
    2  A    between atoms: C_4  and  N_13
    3  A    between atoms: C_10  and  C_14
    4  A    between atoms: C_10  and  C_29
    5  A    between atoms: N_12  and  N_20
    6  A    between atoms: N_13  and  C_22
    7  A    between atoms: C_19  and  C_23
    8  A    between atoms: C_19  and  C_29
    9  A    between atoms: N_20  and  C_23
   10  A    between atoms: C_22  and  O_27
   11  A    between atoms: C_28  and  C_29
                            x       y       z     vdW  Elec       q    Type
                         _______ _______ _______ _____ _____    ______ ____

>  <TORSDO>
F 11

$$$$
=
 OpenBabel11052409573D

 29 31  0  0  1  0  0  0  0  0999 V2000
  161.9800  206.9530  153.3870 O   0  0  0  0  0  1  0  0  0  0  0  0
  160.9310  207.0660  152.4700 C   0  0  2  0  0  3  0  0  0  0  0  0
  161.1520  205.2020  147.7900 C   0  0  0  0  0  0  0  0  0  0  0  0
  161.2120  203.5910  150.9230 C   0  0  0  0  0  3  0  0  0  0  0  0
  161.2740  203.1100  148.5410 O   0  0  0  0  0  0  0  0  0  0  0  0
  161.2430  203.8660  147.4610 C   0  0  0  0  0  0  0  0  0  0  0  0
  161.2910  203.4470  146.1320 C   0  0  0  0  0  3  0  0  0  0  0  0
  161.0480  205.9870  151.4370 C   0  0  0  0  0  0  0  0  0  0  0  0
  161.2470  204.4390  145.1340 C   0  0  0  0  0  3  0  0  0  0  0  0
  161.1300  204.6390  151.8580 C   0  0  0  0  0  3  0  0  0  0  0  0
  161.2070  203.9290  149.5730 C   0  0  0  0  0  0  0  0  0  0  0  0
  161.0410  206.3020  150.0610 C   0  0  0  0  0  3  0  0  0  0  0  0
  161.1290  205.2420  149.1610 C   0  0  0  0  0  0  0  0  0  0  0  0
  161.1110  206.2060  146.8260 C   0  0  0  0  0  3  0  0  0  0  0  0
  161.1570  205.8060  145.4780 C   0  0  0  0  0  3  0  0  0  0  0  0
  160.9000  208.4650  151.8300 C   0  0  2  0  0  3  0  0  0  0  0  0
  162.3300  209.5710  150.1910 N   0  0  0  0  0  1  0  0  0  0  0  0
  162.2970  208.9940  151.5230 C   0  0  0  0  0  2  0  0  0  0  0  0
  160.1170  209.4770  152.6770 C   0  0  0  0  0  2  0  0  0  0  0  0
  161.0050  210.5370  153.3240 C   0  0  0  0  0  2  0  0  0  0  0  0
  160.3940  211.8500  153.2010 N   0  0  0  0  0  2  0  0  0  0  0  0
  160.0780  212.0380  151.8470 N   0  0  0  0  0  2  0  0  0  0  0  0
  159.6250  213.2930  151.3250 C   0  0  0  0  0  0  0  0  0  0  0  0
  158.2010  213.9420  151.8340 S   0  0  0  0  0  0  0  0  0  0  0  0
  160.4560  213.9760  150.3740 N   0  0  0  0  0  2  0  0  0  0  0  0
  159.2500  213.3310  148.3370 C   0  0  0  0  0  1  0  0  0  0  0  0
  160.5980  213.6510  148.9570 C   0  0  2  0  0  3  0  0  0  0  0  0
  162.4210  213.0390  147.8590 C   0  0  0  0  0  1  0  0  0  0  0  0
  161.4830  212.5830  148.7860 O   0  0  0  0  0  0  0  0  0  0  0  0
  2  1  1  1  0  0  0
  3 13  1  0  0  0  0
  4 10  1  0  0  0  0
  5 11  1  0  0  0  0
  6  3  1  0  0  0  0
  6  5  1  0  0  0  0
  7  6  2  0  0  0  0
  8 10  2  0  0  0  0
  8  2  1  0  0  0  0
  9 15  2  0  0  0  0
  9  7  1  0  0  0  0
 11  4  2  0  0  0  0
 12  8  1  0  0  0  0
 13 11  1  0  0  0  0
 13 12  2  0  0  0  0
 14  3  2  0  0  0  0
 15 14  1  0  0  0  0
 16 18  1  1  0  0  0
 16  2  1  0  0  0  0
 16 19  1  0  0  0  0
 17 18  1  0  0  0  0
 19 20  1  0  0  0  0
 21 20  1  0  0  0  0
 22 21  1  0  0  0  0
 23 24  2  0  0  0  0
 23 22  1  0  0  0  0
 25 23  1  0  0  0  0
 27 26  1  1  0  0  0
 27 25  1  0  0  0  0
 28 29  1  0  0  0  0
 29 27  1  0  0  0  0
M  END
>  <MODEL>
7

>  <REMARK>
 VINA RESULT:      -7.3      2.807      4.103
  Name = 
  11 active torsions:
  status: ('A' for Active; 'I' for Inactive)
    1  A    between atoms: C_4  and  N_12
    2  A    between atoms: C_4  and  N_13
    3  A    between atoms: C_10  and  C_14
    4  A    between atoms: C_10  and  C_29
    5  A    between atoms: N_12  and  N_20
    6  A    between atoms: N_13  and  C_22
    7  A    between atoms: C_19  and  C_23
    8  A    between atoms: C_19  and  C_29
    9  A    between atoms: N_20  and  C_23
   10  A    between atoms: C_22  and  O_27
   11  A    between atoms: C_28  and  C_29
                            x       y       z     vdW  Elec       q    Type
                         _______ _______ _______ _____ _____    ______ ____

>  <TORSDO>
F 11

$$$$
=
 OpenBabel11052409573D

 29 31  0  0  1  0  0  0  0  0999 V2000
  160.9130  204.1990  153.2610 O   0  0  0  0  0  1  0  0  0  0  0  0
  160.7080  205.0930  152.2060 C   0  0  2  0  0  3  0  0  0  0  0  0
  161.1400  204.7280  147.1950 C   0  0  0  0  0  0  0  0  0  0  0  0
  161.0400  202.2440  149.6920 C   0  0  0  0  0  3  0  0  0  0  0  0
  161.2130  202.5040  147.2810 O   0  0  0  0  0  0  0  0  0  0  0  0
  161.2380  203.5520  146.4810 C   0  0  0  0  0  0  0  0  0  0  0  0
  161.3470  203.5530  145.0910 C   0  0  0  0  0  3  0  0  0  0  0  0
  160.8670  204.3740  150.9000 C   0  0  0  0  0  0  0  0  0  0  0  0
  161.3580  204.8010  144.4390 C   0  0  0  0  0  3  0  0  0  0  0  0
  160.9200  202.9610  150.8960 C   0  0  0  0  0  3  0  0  0  0  0  0
  161.1020  202.9740  148.5090 C   0  0  0  0  0  0  0  0  0  0  0  0
  160.9280  205.0910  149.6850 C   0  0  0  0  0  3  0  0  0  0  0  0
  161.0530  204.3520  148.5120 C   0  0  0  0  0  0  0  0  0  0  0  0
  161.1530  205.9770  146.5800 C   0  0  0  0  0  3  0  0  0  0  0  0
  161.2610  206.0020  145.1770 C   0  0  0  0  0  3  0  0  0  0  0  0
  161.6560  206.3000  152.3090 C   0  0  2  0  0  3  0  0  0  0  0  0
  160.9670  207.4750  154.3340 N   0  0  0  0  0  1  0  0  0  0  0  0
  162.0070  206.6420  153.7540 C   0  0  0  0  0  2  0  0  0  0  0  0
  161.1070  207.5360  151.5830 C   0  0  0  0  0  2  0  0  0  0  0  0
  162.1960  208.3920  150.9410 C   0  0  0  0  0  2  0  0  0  0  0  0
  162.2690  209.6890  151.5930 N   0  0  0  0  0  2  0  0  0  0  0  0
  160.9590  210.0600  151.9330 N   0  0  0  0  0  2  0  0  0  0  0  0
  160.6680  211.1150  152.8570 C   0  0  0  0  0  0  0  0  0  0  0  0
  159.7240  212.3830  152.4030 S   0  0  0  0  0  0  0  0  0  0  0  0
  161.1950  211.0180  154.1900 N   0  0  0  0  0  2  0  0  0  0  0  0
  161.3760  211.1370  156.6340 C   0  0  0  0  0  1  0  0  0  0  0  0
  160.4530  211.2190  155.4310 C   0  0  2  0  0  3  0  0  0  0  0  0
  158.2850  211.0360  155.8450 C   0  0  0  0  0  1  0  0  0  0  0  0
  159.4210  210.2830  155.5410 O   0  0  0  0  0  0  0  0  0  0  0  0
  2 16  1  0  0  0  0
  2  1  1  1  0  0  0
  3 13  1  0  0  0  0
  4 10  1  0  0  0  0
  5 11  1  0  0  0  0
  6  3  2  0  0  0  0
  6  5  1  0  0  0  0
  7  6  1  0  0  0  0
  8  2  1  0  0  0  0
  9  7  2  0  0  0  0
  9 15  1  0  0  0  0
 10  8  2  0  0  0  0
 11 13  1  0  0  0  0
 11  4  2  0  0  0  0
 12  8  1  0  0  0  0
 13 12  2  0  0  0  0
 14  3  1  0  0  0  0
 15 14  2  0  0  0  0
 16 19  1  1  0  0  0
 16 18  1  0  0  0  0
 18 17  1  0  0  0  0
 20 19  1  0  0  0  0
 20 21  1  0  0  0  0
 21 22  1  0  0  0  0
 22 23  1  0  0  0  0
 23 25  1  0  0  0  0
 24 23  2  0  0  0  0
 25 27  1  0  0  0  0
 27 29  1  0  0  0  0
 27 26  1  1  0  0  0
 29 28  1  0  0  0  0
M  END
>  <MODEL>
8

>  <REMARK>
 VINA RESULT:      -7.2      1.603      2.410
  Name = 
  11 active torsions:
  status: ('A' for Active; 'I' for Inactive)
    1  A    between atoms: C_4  and  N_12
    2  A    between atoms: C_4  and  N_13
    3  A    between atoms: C_10  and  C_14
    4  A    between atoms: C_10  and  C_29
    5  A    between atoms: N_12  and  N_20
    6  A    between atoms: N_13  and  C_22
    7  A    between atoms: C_19  and  C_23
    8  A    between atoms: C_19  and  C_29
    9  A    between atoms: N_20  and  C_23
   10  A    between atoms: C_22  and  O_27
   11  A    between atoms: C_28  and  C_29
                            x       y       z     vdW  Elec       q    Type
                         _______ _______ _______ _____ _____    ______ ____

>  <TORSDO>
F 11

$$$$
=
 OpenBabel11052409573D

 29 31  0  0  1  0  0  0  0  0999 V2000
  160.8360  202.2300  145.8720 O   0  0  0  0  0  1  0  0  0  0  0  0
  161.5600  203.2240  146.5350 C   0  0  2  0  0  3  0  0  0  0  0  0
  161.2060  204.9910  151.2450 C   0  0  0  0  0  0  0  0  0  0  0  0
  160.7550  201.7420  149.9570 C   0  0  0  0  0  3  0  0  0  0  0  0
  160.7030  202.9760  152.0510 O   0  0  0  0  0  0  0  0  0  0  0  0
  160.9030  204.2420  152.3640 C   0  0  0  0  0  0  0  0  0  0  0  0
  160.8360  204.8220  153.6290 C   0  0  0  0  0  3  0  0  0  0  0  0
  161.3020  203.1350  148.0090 C   0  0  0  0  0  0  0  0  0  0  0  0
  161.0840  206.2040  153.7270 C   0  0  0  0  0  3  0  0  0  0  0  0
  160.9770  201.8800  148.5740 C   0  0  0  0  0  3  0  0  0  0  0  0
  160.8680  202.8840  150.7450 C   0  0  0  0  0  0  0  0  0  0  0  0
  161.4140  204.2760  148.8320 C   0  0  0  0  0  3  0  0  0  0  0  0
  161.1830  204.1080  150.1950 C   0  0  0  0  0  0  0  0  0  0  0  0
  161.4520  206.3600  151.3090 C   0  0  0  0  0  3  0  0  0  0  0  0
  161.3900  206.9660  152.5770 C   0  0  0  0  0  3  0  0  0  0  0  0
  161.2220  204.6200  145.9840 C   0  0  2  0  0  3  0  0  0  0  0  0
  161.2050  206.0400  143.9990 N   0  0  0  0  0  1  0  0  0  0  0  0
  161.2400  204.6630  144.4590 C   0  0  0  0  0  2  0  0  0  0  0  0
  162.1340  205.7120  146.5610 C   0  0  0  0  0  2  0  0  0  0  0  0
  161.3670  206.8280  147.2650 C   0  0  0  0  0  2  0  0  0  0  0  0
  162.2870  207.7010  147.9760 N   0  0  0  0  0  2  0  0  0  0  0  0
  161.5190  208.6940  148.6030 N   0  0  0  0  0  2  0  0  0  0  0  0
  162.1010  209.8470  149.2230 C   0  0  0  0  0  0  0  0  0  0  0  0
  162.0780  210.0120  150.8600 S   0  0  0  0  0  0  0  0  0  0  0  0
  162.7260  210.8310  148.3840 N   0  0  0  0  0  2  0  0  0  0  0  0
  160.7340  212.1990  147.9550 C   0  0  0  0  0  1  0  0  0  0  0  0
  162.2420  212.1860  148.1320 C   0  0  2  0  0  3  0  0  0  0  0  0
  161.8340  213.0190  146.1210 C   0  0  0  0  0  1  0  0  0  0  0  0
  162.8720  212.7280  147.0090 O   0  0  0  0  0  0  0  0  0  0  0  0
  2  1  1  6  0  0  0
  2  8  1  0  0  0  0
  3 14  2  0  0  0  0
  3  6  1  0  0  0  0
  4 11  1  0  0  0  0
  5  6  1  0  0  0  0
  6  7  2  0  0  0  0
  7  9  1  0  0  0  0
  8 10  1  0  0  0  0
  8 12  2  0  0  0  0
 10  4  2  0  0  0  0
 11  5  1  0  0  0  0
 12 13  1  0  0  0  0
 13 11  2  0  0  0  0
 13  3  1  0  0  0  0
 14 15  1  0  0  0  0
 15  9  2  0  0  0  0
 16 18  1  6  0  0  0
 16  2  1  0  0  0  0
 16 19  1  0  0  0  0
 17 18  1  0  0  0  0
 19 20  1  0  0  0  0
 20 21  1  0  0  0  0
 21 22  1  0  0  0  0
 22 23  1  0  0  0  0
 23 24  2  0  0  0  0
 25 23  1  0  0  0  0
 27 26  1  6  0  0  0
 27 25  1  0  0  0  0
 28 29  1  0  0  0  0
 29 27  1  0  0  0  0
M  END
>  <MODEL>
9

>  <REMARK>
 VINA RESULT:      -7.0      3.434      6.632
  Name = 
  11 active torsions:
  status: ('A' for Active; 'I' for Inactive)
    1  A    between atoms: C_4  and  N_12
    2  A    between atoms: C_4  and  N_13
    3  A    between atoms: C_10  and  C_14
    4  A    between atoms: C_10  and  C_29
    5  A    between atoms: N_12  and  N_20
    6  A    between atoms: N_13  and  C_22
    7  A    between atoms: C_19  and  C_23
    8  A    between atoms: C_19  and  C_29
    9  A    between atoms: N_20  and  C_23
   10  A    between atoms: C_22  and  O_27
   11  A    between atoms: C_28  and  C_29
                            x       y       z     vdW  Elec       q    Type
                         _______ _______ _______ _____ _____    ______ ____

>  <TORSDO>
F 11

$$$$
