=
 OpenBabel11052412143D

 41 46  0  0  1  0  0  0  0  0999 V2000
  161.4180  207.3840  147.8170 C   0  0  0  0  0  3  0  0  0  0  0  0
  161.3500  206.1450  152.8990 C   0  0  0  0  0  0  0  0  0  0  0  0
  161.2240  208.0310  151.3700 C   0  0  0  0  0  0  0  0  0  0  0  0
  160.9040  207.1550  150.3000 C   0  0  0  0  0  0  0  0  0  0  0  0
  160.7170  207.7630  149.0020 N   0  0  0  0  0  2  0  0  0  0  0  0
  160.8300  204.3040  148.5680 N   0  0  0  0  0  0  0  0  0  0  0  0
  161.8370  206.1700  147.7520 C   0  0  0  0  0  0  0  0  0  0  0  0
  161.4850  205.5680  154.2660 C   0  0  0  0  0  1  0  0  0  0  0  0
  160.8180  205.7430  150.5540 C   0  0  0  0  0  0  0  0  0  0  0  0
  161.4420  207.5260  152.6680 C   0  0  0  0  0  0  0  0  0  0  0  0
  160.3000  204.7370  149.6510 N   0  0  0  0  0  0  0  0  0  0  0  0
  161.9520  204.9000  147.9190 C   0  0  0  0  0  0  0  0  0  0  0  0
  161.0270  205.2880  151.8560 C   0  0  0  0  0  3  0  0  0  0  0  0
  163.0280  204.9040  145.7110 C   0  0  0  0  0  2  0  0  0  0  0  0
  162.7680  204.0910  146.9640 C   0  0  0  0  0  3  0  0  0  0  0  0
  161.9770  203.8170  145.6960 C   0  0  0  0  0  2  0  0  0  0  0  0
  162.3200  209.8420  150.1060 C   0  0  1  0  0  3  0  0  0  0  0  0
  162.5670  210.0220  151.4740 O   0  0  0  0  0  0  0  0  0  0  0  0
  161.2940  209.5210  151.1290 C   0  0  2  0  0  3  0  0  0  0  0  0
  162.0120  211.1600  149.4860 C   0  0  0  0  0  3  0  0  0  0  0  0
  161.6220  211.2250  148.2160 C   0  0  0  0  0  3  0  0  0  0  0  0
  162.5230  213.7940  145.7510 O   0  0  0  0  0  0  0  0  0  0  0  0
  161.5440  213.4900  144.8180 N   0  0  0  0  0  2  0  0  0  0  0  0
  160.2490  212.3210  146.4950 C   0  0  0  0  0  2  0  0  0  0  0  0
  162.5480  213.2050  147.0200 C   0  0  0  0  0  0  0  0  0  0  0  0
  161.3100  212.5390  147.5730 C   0  0  2  0  0  3  0  0  0  0  0  0
  160.2470  213.4610  145.4880 C   0  0  0  0  0  2  0  0  0  0  0  0
  163.5700  213.3410  147.7430 O   0  0  0  0  0  0  0  0  0  0  0  0
  161.7040  208.4170  153.7190 O   0  0  0  0  0  0  0  0  0  0  0  0
  160.7070  209.0330  154.4820 C   0  0  0  0  0  0  0  0  0  0  0  0
  159.9140  208.3510  155.1870 O   0  0  0  0  0  0  0  0  0  0  0  0
  160.5860  210.5130  154.4660 C   0  0  0  0  0  2  0  0  0  0  0  0
  159.1600  210.9120  154.7990 C   0  0  0  0  0  2  0  0  0  0  0  0
  158.6300  211.8560  153.7740 C   0  0  0  0  0  0  0  0  0  0  0  0
  157.6540  212.7240  153.9800 C   0  0  0  0  0  2  0  0  0  0  0  0
  159.0800  211.9110  152.3590 C   0  0  0  0  0  3  0  0  0  0  0  0
  157.3750  213.4340  152.7820 N   0  0  0  0  0  0  0  0  0  0  0  0
  158.1700  212.9850  151.8670 C   0  0  0  0  0  0  0  0  0  0  0  0
  159.1920  214.0360  150.0080 O   0  0  0  0  0  1  0  0  0  0  0  0
  158.1640  213.4920  150.4920 C   0  0  0  0  0  0  0  0  0  0  0  0
  157.0190  213.3760  149.7140 O   0  0  0  0  0  0  0  0  0  0  0  0
  1  5  1  0  0  0  0
  2  8  1  0  0  0  0
  3 10  2  0  0  0  0
  4  9  2  0  0  0  0
  4  3  1  0  0  0  0
  5  4  1  0  0  0  0
  6 11  2  0  0  0  0
  7  1  2  0  0  0  0
  7 12  2  0  0  0  0
  9 13  1  0  0  0  0
 10  2  1  0  0  0  0
 10 29  1  0  0  0  0
 11  9  1  0  0  0  0
 12  6  1  0  0  0  0
 13  2  2  0  0  0  0
 14 15  1  0  0  0  0
 15 12  1  0  0  0  0
 16 14  1  0  0  0  0
 16 15  1  0  0  0  0
 17 20  1  6  0  0  0
 17 19  1  0  0  0  0
 17 18  1  0  0  0  0
 19  3  1  1  0  0  0
 19 18  1  0  0  0  0
 21 20  2  0  0  0  0
 22 25  1  0  0  0  0
 23 27  1  0  0  0  0
 23 22  1  0  0  0  0
 24 26  1  0  0  0  0
 25 26  1  0  0  0  0
 25 28  2  0  0  0  0
 26 21  1  6  0  0  0
 27 24  1  0  0  0  0
 29 30  1  0  0  0  0
 30 31  2  0  0  0  0
 32 30  1  0  0  0  0
 32 33  1  0  0  0  0
 34 35  1  0  0  0  0
 34 33  1  0  0  0  0
 36 34  2  0  0  0  0
 37 35  1  0  0  0  0
 38 36  1  0  0  0  0
 38 37  2  0  0  0  0
 39 40  1  0  0  0  0
 40 38  1  0  0  0  0
 41 40  2  0  0  0  0
M  END
>  <MODEL>
1

>  <REMARK>
 VINA RESULT:      -6.8      0.000      0.000
  Name = 
  10 active torsions:
  status: ('A' for Active; 'I' for Inactive)
    1  A    between atoms: C_3  and  C_4
    2  A    between atoms: C_3  and  C_28
    3  A    between atoms: C_7  and  C_28
    4  A    between atoms: C_7  and  O_40
    5  A    between atoms: C_10  and  C_39
    6  A    between atoms: C_20  and  C_33
    7  A    between atoms: CA_21  and  C_36
    8  A    between atoms: C_22  and  C_30
    9  A    between atoms: C_25  and  C_35
   10  A    between atoms: C_27  and  O_40
                            x       y       z     vdW  Elec       q    Type
                         _______ _______ _______ _____ _____    ______ ____

>  <TORSDO>
F 10

$$$$
=
 OpenBabel11052412143D

 41 46  0  0  1  0  0  0  0  0999 V2000
  160.3800  211.9780  147.0690 C   0  0  0  0  0  3  0  0  0  0  0  0
  160.8920  211.4330  152.2470 C   0  0  0  0  0  0  0  0  0  0  0  0
  161.7290  210.5930  150.1250 C   0  0  0  0  0  0  0  0  0  0  0  0
  161.2230  211.7390  149.4590 C   0  0  0  0  0  0  0  0  0  0  0  0
  161.4220  211.7940  148.0290 N   0  0  0  0  0  2  0  0  0  0  0  0
  159.2280  214.3570  148.9140 N   0  0  0  0  0  0  0  0  0  0  0  0
  159.3340  212.6140  147.4600 C   0  0  0  0  0  0  0  0  0  0  0  0
  160.7680  211.3670  153.7300 C   0  0  0  0  0  1  0  0  0  0  0  0
  160.5310  212.7420  150.2210 C   0  0  0  0  0  0  0  0  0  0  0  0
  161.5670  210.4430  151.5180 C   0  0  0  0  0  0  0  0  0  0  0  0
  160.1440  214.0580  149.7590 N   0  0  0  0  0  0  0  0  0  0  0  0
  158.5460  213.4150  148.0890 C   0  0  0  0  0  0  0  0  0  0  0  0
  160.4050  212.5610  151.5990 C   0  0  0  0  0  3  0  0  0  0  0  0
  157.0120  212.9940  146.2170 C   0  0  0  0  0  2  0  0  0  0  0  0
  157.2190  213.7710  147.5030 C   0  0  0  0  0  3  0  0  0  0  0  0
  157.4020  214.4530  146.1580 C   0  0  0  0  0  2  0  0  0  0  0  0
  161.6370  208.3390  149.1300 C   0  0  1  0  0  3  0  0  0  0  0  0
  162.6350  208.3660  150.1150 O   0  0  0  0  0  0  0  0  0  0  0  0
  162.4820  209.5390  149.3460 C   0  0  2  0  0  3  0  0  0  0  0  0
  162.1350  207.5820  147.9490 C   0  0  0  0  0  3  0  0  0  0  0  0
  161.3440  206.7050  147.3360 C   0  0  0  0  0  3  0  0  0  0  0  0
  161.5750  203.4880  145.5800 O   0  0  0  0  0  0  0  0  0  0  0  0
  160.6340  203.7600  144.5980 N   0  0  0  0  0  2  0  0  0  0  0  0
  160.8400  206.1370  144.9970 C   0  0  0  0  0  2  0  0  0  0  0  0
  162.0240  204.4710  146.4690 C   0  0  0  0  0  0  0  0  0  0  0  0
  161.8250  205.9340  146.1480 C   0  0  2  0  0  3  0  0  0  0  0  0
  160.9700  205.0300  143.9620 C   0  0  0  0  0  2  0  0  0  0  0  0
  162.7010  204.1300  147.4740 O   0  0  0  0  0  0  0  0  0  0  0  0
  162.1210  209.3270  152.1600 O   0  0  0  0  0  0  0  0  0  0  0  0
  161.3720  208.2300  152.5960 C   0  0  0  0  0  0  0  0  0  0  0  0
  160.1260  208.3220  152.7710 O   0  0  0  0  0  0  0  0  0  0  0  0
  162.0550  206.9360  152.8540 C   0  0  0  0  0  2  0  0  0  0  0  0
  161.0210  205.8570  153.1220 C   0  0  0  0  0  2  0  0  0  0  0  0
  160.8940  204.9530  151.9440 C   0  0  0  0  0  0  0  0  0  0  0  0
  160.7440  205.3580  150.6950 C   0  0  0  0  0  3  0  0  0  0  0  0
  160.8540  203.4690  152.0140 C   0  0  0  0  0  2  0  0  0  0  0  0
  160.6140  204.2360  149.8330 N   0  0  0  0  0  0  0  0  0  0  0  0
  160.6750  203.1720  150.5650 C   0  0  0  0  0  0  0  0  0  0  0  0
  161.4580  200.9590  150.2630 O   0  0  0  0  0  1  0  0  0  0  0  0
  160.5760  201.8210  150.0070 C   0  0  0  0  0  0  0  0  0  0  0  0
  159.5050  201.4820  149.1910 O   0  0  0  0  0  0  0  0  0  0  0  0
  1  7  2  0  0  0  0
  1  5  1  0  0  0  0
  2  8  1  0  0  0  0
  3 10  1  0  0  0  0
  4  3  2  0  0  0  0
  4  9  1  0  0  0  0
  5  4  1  0  0  0  0
  6 11  2  0  0  0  0
  7 12  2  0  0  0  0
  9 13  2  0  0  0  0
 10 29  1  0  0  0  0
 10  2  2  0  0  0  0
 11  9  1  0  0  0  0
 12  6  1  0  0  0  0
 13  2  1  0  0  0  0
 14 15  1  0  0  0  0
 15 12  1  0  0  0  0
 16 14  1  0  0  0  0
 16 15  1  0  0  0  0
 17 20  1  6  0  0  0
 17 19  1  0  0  0  0
 17 18  1  0  0  0  0
 19 18  1  0  0  0  0
 19  3  1  1  0  0  0
 21 20  2  0  0  0  0
 22 25  1  0  0  0  0
 23 22  1  0  0  0  0
 24 26  1  0  0  0  0
 25 28  2  0  0  0  0
 26 25  1  0  0  0  0
 26 21  1  1  0  0  0
 27 23  1  0  0  0  0
 27 24  1  0  0  0  0
 29 30  1  0  0  0  0
 30 31  2  0  0  0  0
 30 32  1  0  0  0  0
 32 33  1  0  0  0  0
 34 36  1  0  0  0  0
 34 33  1  0  0  0  0
 35 34  2  0  0  0  0
 37 38  2  0  0  0  0
 37 35  1  0  0  0  0
 38 36  1  0  0  0  0
 40 39  1  0  0  0  0
 40 38  1  0  0  0  0
 41 40  2  0  0  0  0
M  END
>  <MODEL>
2

>  <REMARK>
 VINA RESULT:      -6.7      3.303      7.727
  Name = 
  10 active torsions:
  status: ('A' for Active; 'I' for Inactive)
    1  A    between atoms: C_3  and  C_4
    2  A    between atoms: C_3  and  C_28
    3  A    between atoms: C_7  and  C_28
    4  A    between atoms: C_7  and  O_40
    5  A    between atoms: C_10  and  C_39
    6  A    between atoms: C_20  and  C_33
    7  A    between atoms: CA_21  and  C_36
    8  A    between atoms: C_22  and  C_30
    9  A    between atoms: C_25  and  C_35
   10  A    between atoms: C_27  and  O_40
                            x       y       z     vdW  Elec       q    Type
                         _______ _______ _______ _____ _____    ______ ____

>  <TORSDO>
F 10

$$$$
=
 OpenBabel11052412143D

 41 46  0  0  1  0  0  0  0  0999 V2000
  161.6300  207.8110  147.7390 C   0  0  0  0  0  3  0  0  0  0  0  0
  161.3310  205.8770  152.5920 C   0  0  0  0  0  0  0  0  0  0  0  0
  161.2530  207.9560  151.3340 C   0  0  0  0  0  0  0  0  0  0  0  0
  160.9990  207.2360  150.1380 C   0  0  0  0  0  0  0  0  0  0  0  0
  160.8670  208.0170  148.9290 N   0  0  0  0  0  2  0  0  0  0  0  0
  161.0500  204.6530  148.0260 N   0  0  0  0  0  0  0  0  0  0  0  0
  162.0700  206.6220  147.5290 C   0  0  0  0  0  0  0  0  0  0  0  0
  161.4080  205.1170  153.8710 C   0  0  0  0  0  1  0  0  0  0  0  0
  160.9210  205.8010  150.1900 C   0  0  0  0  0  0  0  0  0  0  0  0
  161.4140  207.2770  152.5590 C   0  0  0  0  0  0  0  0  0  0  0  0
  160.4610  204.9270  149.1310 N   0  0  0  0  0  0  0  0  0  0  0  0
  162.1940  205.3410  147.5240 C   0  0  0  0  0  0  0  0  0  0  0  0
  161.0720  205.1710  151.4250 C   0  0  0  0  0  3  0  0  0  0  0  0
  162.7190  205.2030  145.1280 C   0  0  0  0  0  2  0  0  0  0  0  0
  163.0660  204.6780  146.5080 C   0  0  0  0  0  3  0  0  0  0  0  0
  162.2280  203.8400  145.5600 C   0  0  0  0  0  2  0  0  0  0  0  0
  162.3200  209.9350  150.3210 C   0  0  1  0  0  3  0  0  0  0  0  0
  162.5920  209.9200  151.6970 O   0  0  0  0  0  0  0  0  0  0  0  0
  161.3140  209.4660  151.3060 C   0  0  2  0  0  3  0  0  0  0  0  0
  161.9980  211.3260  149.9000 C   0  0  0  0  0  3  0  0  0  0  0  0
  161.9140  211.6280  148.6060 C   0  0  0  0  0  3  0  0  0  0  0  0
  161.0370  213.9130  145.8690 O   0  0  0  0  0  0  0  0  0  0  0  0
  159.6990  214.0720  146.1980 N   0  0  0  0  0  2  0  0  0  0  0  0
  160.1190  213.3020  148.4530 C   0  0  0  0  0  2  0  0  0  0  0  0
  161.9320  213.2400  146.7070 C   0  0  0  0  0  0  0  0  0  0  0  0
  161.5930  213.0200  148.1620 C   0  0  2  0  0  3  0  0  0  0  0  0
  159.6020  214.4530  147.6030 C   0  0  0  0  0  2  0  0  0  0  0  0
  163.0710  212.9280  146.2680 O   0  0  0  0  0  0  0  0  0  0  0  0
  161.6120  208.0160  153.7340 O   0  0  0  0  0  0  0  0  0  0  0  0
  160.5750  208.4290  154.5760 C   0  0  0  0  0  0  0  0  0  0  0  0
  159.9820  207.6080  155.3280 O   0  0  0  0  0  0  0  0  0  0  0  0
  160.1700  209.8590  154.5870 C   0  0  0  0  0  2  0  0  0  0  0  0
  159.2250  210.1130  155.7470 C   0  0  0  0  0  2  0  0  0  0  0  0
  158.2510  211.1860  155.3990 C   0  0  0  0  0  0  0  0  0  0  0  0
  157.3450  211.6800  156.2260 C   0  0  0  0  0  2  0  0  0  0  0  0
  158.1190  211.8100  154.0570 C   0  0  0  0  0  3  0  0  0  0  0  0
  156.5590  212.6560  155.5580 N   0  0  0  0  0  0  0  0  0  0  0  0
  156.9860  212.7360  154.3410 C   0  0  0  0  0  0  0  0  0  0  0  0
  157.1450  214.3980  152.6620 O   0  0  0  0  0  0  0  0  0  0  0  0
  156.4040  213.6510  153.3550 C   0  0  0  0  0  0  0  0  0  0  0  0
  155.0270  213.7000  153.1800 O   0  0  0  0  0  1  0  0  0  0  0  0
  1  5  1  0  0  0  0
  2  8  1  0  0  0  0
  3 10  2  0  0  0  0
  4  9  2  0  0  0  0
  4  3  1  0  0  0  0
  5  4  1  0  0  0  0
  6 11  2  0  0  0  0
  7  1  2  0  0  0  0
  9 13  1  0  0  0  0
 10  2  1  0  0  0  0
 10 29  1  0  0  0  0
 11  9  1  0  0  0  0
 12  7  2  0  0  0  0
 12  6  1  0  0  0  0
 13  2  2  0  0  0  0
 14 16  1  0  0  0  0
 14 15  1  0  0  0  0
 15 12  1  0  0  0  0
 16 15  1  0  0  0  0
 17 20  1  1  0  0  0
 17 19  1  0  0  0  0
 17 18  1  0  0  0  0
 19  3  1  6  0  0  0
 19 18  1  0  0  0  0
 21 20  2  0  0  0  0
 22 23  1  0  0  0  0
 22 25  1  0  0  0  0
 23 27  1  0  0  0  0
 25 26  1  0  0  0  0
 26 24  1  0  0  0  0
 26 21  1  6  0  0  0
 27 24  1  0  0  0  0
 28 25  2  0  0  0  0
 29 30  1  0  0  0  0
 30 32  1  0  0  0  0
 30 31  2  0  0  0  0
 32 33  1  0  0  0  0
 34 33  1  0  0  0  0
 34 35  1  0  0  0  0
 36 38  1  0  0  0  0
 36 34  2  0  0  0  0
 37 35  1  0  0  0  0
 38 37  2  0  0  0  0
 39 40  2  0  0  0  0
 40 38  1  0  0  0  0
 41 40  1  0  0  0  0
M  END
>  <MODEL>
3

>  <REMARK>
 VINA RESULT:      -6.7      1.355      1.554
  Name = 
  10 active torsions:
  status: ('A' for Active; 'I' for Inactive)
    1  A    between atoms: C_3  and  C_4
    2  A    between atoms: C_3  and  C_28
    3  A    between atoms: C_7  and  C_28
    4  A    between atoms: C_7  and  O_40
    5  A    between atoms: C_10  and  C_39
    6  A    between atoms: C_20  and  C_33
    7  A    between atoms: CA_21  and  C_36
    8  A    between atoms: C_22  and  C_30
    9  A    between atoms: C_25  and  C_35
   10  A    between atoms: C_27  and  O_40
                            x       y       z     vdW  Elec       q    Type
                         _______ _______ _______ _____ _____    ______ ____

>  <TORSDO>
F 10

$$$$
=
 OpenBabel11052412143D

 41 46  0  0  1  0  0  0  0  0999 V2000
  160.8120  205.8920  150.2080 C   0  0  0  0  0  3  0  0  0  0  0  0
  161.9410  210.9410  149.4320 C   0  0  0  0  0  0  0  0  0  0  0  0
  161.1900  209.3700  151.1280 C   0  0  0  0  0  0  0  0  0  0  0  0
  161.6710  208.2840  150.3510 C   0  0  0  0  0  0  0  0  0  0  0  0
  161.4660  206.9610  150.8930 N   0  0  0  0  0  2  0  0  0  0  0  0
  162.5590  206.6190  147.5990 N   0  0  0  0  0  0  0  0  0  0  0  0
  160.8540  205.9120  148.9240 C   0  0  0  0  0  0  0  0  0  0  0  0
  162.1910  212.3260  148.9410 C   0  0  0  0  0  1  0  0  0  0  0  0
  162.2920  208.5540  149.0830 C   0  0  0  0  0  0  0  0  0  0  0  0
  161.3300  210.6960  150.6700 C   0  0  0  0  0  0  0  0  0  0  0  0
  163.0250  207.6090  148.2660 N   0  0  0  0  0  0  0  0  0  0  0  0
  161.2280  206.1200  147.7100 C   0  0  0  0  0  0  0  0  0  0  0  0
  162.4230  209.8810  148.6750 C   0  0  0  0  0  3  0  0  0  0  0  0
  161.5810  205.3530  145.4030 C   0  0  0  0  0  2  0  0  0  0  0  0
  160.6500  205.3050  146.6000 C   0  0  0  0  0  3  0  0  0  0  0  0
  160.3230  206.1910  145.4100 C   0  0  0  0  0  2  0  0  0  0  0  0
  161.3570  209.7290  153.5610 C   0  0  1  0  0  3  0  0  0  0  0  0
  161.4230  208.3540  153.2950 O   0  0  0  0  0  0  0  0  0  0  0  0
  160.5570  209.1100  152.4750 C   0  0  2  0  0  3  0  0  0  0  0  0
  160.4920  209.9570  154.7520 C   0  0  0  0  0  3  0  0  0  0  0  0
  160.2270  211.1970  155.1560 C   0  0  0  0  0  3  0  0  0  0  0  0
  158.4080  213.6020  157.2520 O   0  0  0  0  0  0  0  0  0  0  0  0
  157.1310  213.2800  156.8170 N   0  0  0  0  0  2  0  0  0  0  0  0
  157.9090  211.1480  155.9780 C   0  0  0  0  0  2  0  0  0  0  0  0
  159.5290  212.8500  156.8840 C   0  0  0  0  0  0  0  0  0  0  0  0
  159.3610  211.4470  156.3500 C   0  0  2  0  0  3  0  0  0  0  0  0
  156.9450  211.8370  156.9320 C   0  0  0  0  0  2  0  0  0  0  0  0
  160.6800  213.3050  157.1160 O   0  0  0  0  0  0  0  0  0  0  0  0
  160.8930  211.7540  151.4810 O   0  0  0  0  0  0  0  0  0  0  0  0
  159.6200  212.3260  151.3930 C   0  0  0  0  0  0  0  0  0  0  0  0
  158.6440  211.8390  152.0270 O   0  0  0  0  0  0  0  0  0  0  0  0
  159.4170  213.5270  150.5430 C   0  0  0  0  0  2  0  0  0  0  0  0
  158.0340  213.4830  149.9190 C   0  0  0  0  0  2  0  0  0  0  0  0
  158.1310  213.2140  148.4560 C   0  0  0  0  0  0  0  0  0  0  0  0
  157.1340  212.7920  147.6980 C   0  0  0  0  0  2  0  0  0  0  0  0
  159.3780  213.3220  147.6550 C   0  0  0  0  0  3  0  0  0  0  0  0
  157.5840  212.6000  146.3650 N   0  0  0  0  0  0  0  0  0  0  0  0
  158.8420  212.8960  146.3310 C   0  0  0  0  0  0  0  0  0  0  0  0
  160.9010  212.8360  145.1630 O   0  0  0  0  0  1  0  0  0  0  0  0
  159.6420  212.8140  145.1060 C   0  0  0  0  0  0  0  0  0  0  0  0
  159.0150  212.7120  143.8710 O   0  0  0  0  0  0  0  0  0  0  0  0
  1  5  1  0  0  0  0
  2 10  1  0  0  0  0
  4  5  1  0  0  0  0
  4  3  1  0  0  0  0
  6 12  1  0  0  0  0
  6 11  2  0  0  0  0
  7  1  2  0  0  0  0
  8  2  1  0  0  0  0
  9  4  2  0  0  0  0
 10  3  2  0  0  0  0
 10 29  1  0  0  0  0
 11  9  1  0  0  0  0
 12  7  2  0  0  0  0
 13  9  1  0  0  0  0
 13  2  2  0  0  0  0
 14 16  1  0  0  0  0
 14 15  1  0  0  0  0
 15 12  1  0  0  0  0
 16 15  1  0  0  0  0
 17 20  1  1  0  0  0
 18 17  1  0  0  0  0
 19  3  1  6  0  0  0
 19 18  1  0  0  0  0
 19 17  1  0  0  0  0
 20 21  2  0  0  0  0
 23 27  1  0  0  0  0
 23 22  1  0  0  0  0
 24 26  1  0  0  0  0
 24 27  1  0  0  0  0
 25 28  2  0  0  0  0
 25 22  1  0  0  0  0
 26 21  1  6  0  0  0
 26 25  1  0  0  0  0
 30 29  1  0  0  0  0
 30 31  2  0  0  0  0
 32 30  1  0  0  0  0
 33 32  1  0  0  0  0
 34 33  1  0  0  0  0
 35 34  1  0  0  0  0
 36 34  2  0  0  0  0
 37 35  1  0  0  0  0
 38 37  2  0  0  0  0
 38 36  1  0  0  0  0
 40 39  1  0  0  0  0
 40 38  1  0  0  0  0
 41 40  2  0  0  0  0
M  END
>  <MODEL>
4

>  <REMARK>
 VINA RESULT:      -6.4      2.372      6.174
  Name = 
  10 active torsions:
  status: ('A' for Active; 'I' for Inactive)
    1  A    between atoms: C_3  and  C_4
    2  A    between atoms: C_3  and  C_28
    3  A    between atoms: C_7  and  C_28
    4  A    between atoms: C_7  and  O_40
    5  A    between atoms: C_10  and  C_39
    6  A    between atoms: C_20  and  C_33
    7  A    between atoms: CA_21  and  C_36
    8  A    between atoms: C_22  and  C_30
    9  A    between atoms: C_25  and  C_35
   10  A    between atoms: C_27  and  O_40
                            x       y       z     vdW  Elec       q    Type
                         _______ _______ _______ _____ _____    ______ ____

>  <TORSDO>
F 10

$$$$
=
 OpenBabel11052412143D

 41 46  0  0  1  0  0  0  0  0999 V2000
  161.1440  206.8220  147.4190 C   0  0  0  0  0  3  0  0  0  0  0  0
  161.5990  206.2280  152.5970 C   0  0  0  0  0  0  0  0  0  0  0  0
  161.2300  207.8990  150.8710 C   0  0  0  0  0  0  0  0  0  0  0  0
  160.8670  206.8830  149.9490 C   0  0  0  0  0  0  0  0  0  0  0  0
  160.5310  207.3140  148.6120 N   0  0  0  0  0  2  0  0  0  0  0  0
  160.8020  203.8370  148.5880 N   0  0  0  0  0  0  0  0  0  0  0  0
  161.6250  205.6300  147.4620 C   0  0  0  0  0  0  0  0  0  0  0  0
  161.8880  205.8330  154.0050 C   0  0  0  0  0  1  0  0  0  0  0  0
  160.8850  205.5110  150.3790 C   0  0  0  0  0  0  0  0  0  0  0  0
  161.5910  207.5710  152.1940 C   0  0  0  0  0  0  0  0  0  0  0  0
  160.3470  204.3770  149.6570 N   0  0  0  0  0  0  0  0  0  0  0  0
  161.8270  204.3970  147.7690 C   0  0  0  0  0  0  0  0  0  0  0  0
  161.2340  205.2320  151.7000 C   0  0  0  0  0  3  0  0  0  0  0  0
  163.2600  204.3600  145.7740 C   0  0  0  0  0  2  0  0  0  0  0  0
  162.5990  203.5130  146.8450 C   0  0  0  0  0  3  0  0  0  0  0  0
  162.0120  203.5720  145.4460 C   0  0  0  0  0  2  0  0  0  0  0  0
  162.3200  209.6590  149.5320 C   0  0  1  0  0  3  0  0  0  0  0  0
  162.3520  210.0250  150.8850 O   0  0  0  0  0  0  0  0  0  0  0  0
  161.1930  209.3490  150.4470 C   0  0  2  0  0  3  0  0  0  0  0  0
  161.9810  210.8530  148.7090 C   0  0  0  0  0  3  0  0  0  0  0  0
  161.7430  212.0220  149.2980 C   0  0  0  0  0  3  0  0  0  0  0  0
  162.1840  213.9440  146.2000 O   0  0  0  0  0  0  0  0  0  0  0  0
  160.9600  213.6320  145.6270 N   0  0  0  0  0  2  0  0  0  0  0  0
  160.0660  212.9920  147.7830 C   0  0  0  0  0  2  0  0  0  0  0  0
  162.4980  213.5920  147.5170 C   0  0  0  0  0  0  0  0  0  0  0  0
  161.4000  213.2340  148.4900 C   0  0  2  0  0  3  0  0  0  0  0  0
  159.9020  213.9220  146.5900 C   0  0  0  0  0  2  0  0  0  0  0  0
  163.6880  213.6970  147.9160 O   0  0  0  0  0  0  0  0  0  0  0  0
  161.8940  208.5980  153.1000 O   0  0  0  0  0  0  0  0  0  0  0  0
  160.9480  209.2030  153.9330 C   0  0  0  0  0  0  0  0  0  0  0  0
  160.2930  208.5260  154.7720 O   0  0  0  0  0  0  0  0  0  0  0  0
  160.7160  210.6670  153.8300 C   0  0  0  0  0  2  0  0  0  0  0  0
  159.5440  210.9340  152.9030 C   0  0  0  0  0  2  0  0  0  0  0  0
  158.4900  211.7170  153.6090 C   0  0  0  0  0  0  0  0  0  0  0  0
  158.2390  212.9990  153.4050 C   0  0  0  0  0  3  0  0  0  0  0  0
  157.6150  211.1850  154.6850 C   0  0  0  0  0  2  0  0  0  0  0  0
  157.2010  213.4350  154.2720 N   0  0  0  0  0  0  0  0  0  0  0  0
  156.8450  212.4240  154.9930 C   0  0  0  0  0  0  0  0  0  0  0  0
  155.3770  213.6270  156.4080 O   0  0  0  0  0  0  0  0  0  0  0  0
  155.7890  212.5060  156.0060 C   0  0  0  0  0  0  0  0  0  0  0  0
  155.2350  211.3450  156.5290 O   0  0  0  0  0  1  0  0  0  0  0  0
  1  7  2  0  0  0  0
  1  5  1  0  0  0  0
  2  8  1  0  0  0  0
  3 10  2  0  0  0  0
  4  9  2  0  0  0  0
  4  3  1  0  0  0  0
  5  4  1  0  0  0  0
  6 11  2  0  0  0  0
  7 12  2  0  0  0  0
  9 13  1  0  0  0  0
 10  2  1  0  0  0  0
 10 29  1  0  0  0  0
 11  9  1  0  0  0  0
 12  6  1  0  0  0  0
 13  2  2  0  0  0  0
 14 15  1  0  0  0  0
 15 12  1  0  0  0  0
 16 14  1  0  0  0  0
 16 15  1  0  0  0  0
 17 20  1  6  0  0  0
 17 19  1  0  0  0  0
 17 18  1  0  0  0  0
 19  3  1  1  0  0  0
 19 18  1  0  0  0  0
 20 21  2  0  0  0  0
 22 25  1  0  0  0  0
 23 22  1  0  0  0  0
 23 27  1  0  0  0  0
 24 26  1  0  0  0  0
 25 28  2  0  0  0  0
 25 26  1  0  0  0  0
 26 21  1  6  0  0  0
 27 24  1  0  0  0  0
 29 30  1  0  0  0  0
 30 31  2  0  0  0  0
 32 30  1  0  0  0  0
 33 34  1  0  0  0  0
 33 32  1  0  0  0  0
 34 36  1  0  0  0  0
 35 34  2  0  0  0  0
 35 37  1  0  0  0  0
 36 38  1  0  0  0  0
 37 38  2  0  0  0  0
 38 40  1  0  0  0  0
 40 39  2  0  0  0  0
 40 41  1  0  0  0  0
M  END
>  <MODEL>
5

>  <REMARK>
 VINA RESULT:      -6.0      1.649      2.151
  Name = 
  10 active torsions:
  status: ('A' for Active; 'I' for Inactive)
    1  A    between atoms: C_3  and  C_4
    2  A    between atoms: C_3  and  C_28
    3  A    between atoms: C_7  and  C_28
    4  A    between atoms: C_7  and  O_40
    5  A    between atoms: C_10  and  C_39
    6  A    between atoms: C_20  and  C_33
    7  A    between atoms: CA_21  and  C_36
    8  A    between atoms: C_22  and  C_30
    9  A    between atoms: C_25  and  C_35
   10  A    between atoms: C_27  and  O_40
                            x       y       z     vdW  Elec       q    Type
                         _______ _______ _______ _____ _____    ______ ____

>  <TORSDO>
F 10

$$$$
=
 OpenBabel11052412143D

 41 46  0  0  1  0  0  0  0  0999 V2000
  160.4190  202.1580  149.8830 C   0  0  0  0  0  3  0  0  0  0  0  0
  161.4180  207.0940  148.4670 C   0  0  0  0  0  0  0  0  0  0  0  0
  160.9360  205.7000  150.3990 C   0  0  0  0  0  0  0  0  0  0  0  0
  161.2920  204.5390  149.6640 C   0  0  0  0  0  0  0  0  0  0  0  0
  161.1720  203.2760  150.3550 N   0  0  0  0  0  2  0  0  0  0  0  0
  161.7450  202.6100  146.9790 N   0  0  0  0  0  0  0  0  0  0  0  0
  160.2630  202.0560  148.6110 C   0  0  0  0  0  0  0  0  0  0  0  0
  161.5900  208.4220  147.8140 C   0  0  0  0  0  1  0  0  0  0  0  0
  161.7100  204.6800  148.2960 C   0  0  0  0  0  0  0  0  0  0  0  0
  161.0040  206.9750  149.8020 C   0  0  0  0  0  0  0  0  0  0  0  0
  162.3080  203.6520  147.4710 N   0  0  0  0  0  0  0  0  0  0  0  0
  160.4460  202.1440  147.3400 C   0  0  0  0  0  0  0  0  0  0  0  0
  161.7770  205.9610  147.7490 C   0  0  0  0  0  3  0  0  0  0  0  0
  160.6650  200.6720  145.3860 C   0  0  0  0  0  2  0  0  0  0  0  0
  159.7040  201.2370  146.4140 C   0  0  0  0  0  3  0  0  0  0  0  0
  159.7270  201.7930  145.0010 C   0  0  0  0  0  2  0  0  0  0  0  0
  161.6000  206.0440  152.7490 C   0  0  1  0  0  3  0  0  0  0  0  0
  161.3620  204.6790  152.5340 O   0  0  0  0  0  0  0  0  0  0  0  0
  160.5180  205.5770  151.8460 C   0  0  2  0  0  3  0  0  0  0  0  0
  161.0200  206.4420  154.0610 C   0  0  0  0  0  3  0  0  0  0  0  0
  161.1600  207.6900  154.5010 C   0  0  0  0  0  3  0  0  0  0  0  0
  161.1030  210.1170  157.2560 O   0  0  0  0  0  0  0  0  0  0  0  0
  159.9060  210.7310  156.9210 N   0  0  0  0  0  2  0  0  0  0  0  0
  159.2610  208.8310  155.5680 C   0  0  0  0  0  2  0  0  0  0  0  0
  161.5510  208.9610  156.6070 C   0  0  0  0  0  0  0  0  0  0  0  0
  160.5860  208.1110  155.8170 C   0  0  2  0  0  3  0  0  0  0  0  0
  158.8810  209.7050  156.7540 C   0  0  0  0  0  2  0  0  0  0  0  0
  162.7360  208.5730  156.7880 O   0  0  0  0  0  0  0  0  0  0  0  0
  160.6980  208.1110  150.5650 O   0  0  0  0  0  0  0  0  0  0  0  0
  161.6550  209.0270  151.0130 C   0  0  0  0  0  0  0  0  0  0  0  0
  162.8470  208.6710  151.2240 O   0  0  0  0  0  0  0  0  0  0  0  0
  161.2610  210.4420  151.2400 C   0  0  0  0  0  2  0  0  0  0  0  0
  160.6940  210.5960  152.6390 C   0  0  0  0  0  2  0  0  0  0  0  0
  159.6500  211.6600  152.6630 C   0  0  0  0  0  0  0  0  0  0  0  0
  159.6570  212.7420  151.9030 C   0  0  0  0  0  3  0  0  0  0  0  0
  158.4880  211.6870  153.5890 C   0  0  0  0  0  2  0  0  0  0  0  0
  158.5390  213.5600  152.2130 N   0  0  0  0  0  0  0  0  0  0  0  0
  157.8770  212.9760  153.1580 C   0  0  0  0  0  0  0  0  0  0  0  0
  156.5830  213.7920  154.9650 O   0  0  0  0  0  1  0  0  0  0  0  0
  156.6520  213.5400  153.7320 C   0  0  0  0  0  0  0  0  0  0  0  0
  155.5580  213.8000  152.9170 O   0  0  0  0  0  0  0  0  0  0  0  0
  1  5  1  0  0  0  0
  2 10  1  0  0  0  0
  4  5  1  0  0  0  0
  4  3  1  0  0  0  0
  6 12  1  0  0  0  0
  6 11  2  0  0  0  0
  7  1  2  0  0  0  0
  8  2  1  0  0  0  0
  9  4  2  0  0  0  0
 10  3  2  0  0  0  0
 10 29  1  0  0  0  0
 11  9  1  0  0  0  0
 12  7  2  0  0  0  0
 13  9  1  0  0  0  0
 13  2  2  0  0  0  0
 14 15  1  0  0  0  0
 15 12  1  0  0  0  0
 16 14  1  0  0  0  0
 16 15  1  0  0  0  0
 17 20  1  1  0  0  0
 18 17  1  0  0  0  0
 19  3  1  6  0  0  0
 19 18  1  0  0  0  0
 19 17  1  0  0  0  0
 20 21  2  0  0  0  0
 23 22  1  0  0  0  0
 24 26  1  0  0  0  0
 24 27  1  0  0  0  0
 25 28  2  0  0  0  0
 25 22  1  0  0  0  0
 26 21  1  6  0  0  0
 26 25  1  0  0  0  0
 27 23  1  0  0  0  0
 29 30  1  0  0  0  0
 30 31  2  0  0  0  0
 30 32  1  0  0  0  0
 32 33  1  0  0  0  0
 33 34  1  0  0  0  0
 34 36  1  0  0  0  0
 35 37  1  0  0  0  0
 35 34  2  0  0  0  0
 37 38  2  0  0  0  0
 38 36  1  0  0  0  0
 38 40  1  0  0  0  0
 40 39  1  0  0  0  0
 41 40  2  0  0  0  0
M  END
>  <MODEL>
6

>  <REMARK>
 VINA RESULT:      -5.8      3.063      5.891
  Name = 
  10 active torsions:
  status: ('A' for Active; 'I' for Inactive)
    1  A    between atoms: C_3  and  C_4
    2  A    between atoms: C_3  and  C_28
    3  A    between atoms: C_7  and  C_28
    4  A    between atoms: C_7  and  O_40
    5  A    between atoms: C_10  and  C_39
    6  A    between atoms: C_20  and  C_33
    7  A    between atoms: CA_21  and  C_36
    8  A    between atoms: C_22  and  C_30
    9  A    between atoms: C_25  and  C_35
   10  A    between atoms: C_27  and  O_40
                            x       y       z     vdW  Elec       q    Type
                         _______ _______ _______ _____ _____    ______ ____

>  <TORSDO>
F 10

$$$$
=
 OpenBabel11052412143D

 41 46  0  0  1  0  0  0  0  0999 V2000
  161.1070  207.3940  155.6840 C   0  0  0  0  0  3  0  0  0  0  0  0
  161.9360  209.4240  150.9340 C   0  0  0  0  0  0  0  0  0  0  0  0
  161.7420  207.3130  152.1240 C   0  0  0  0  0  0  0  0  0  0  0  0
  161.0950  207.9690  153.2040 C   0  0  0  0  0  0  0  0  0  0  0  0
  160.7240  207.1440  154.3310 N   0  0  0  0  0  2  0  0  0  0  0  0
  160.2910  210.4820  155.2470 N   0  0  0  0  0  0  0  0  0  0  0  0
  161.3420  208.6160  156.0060 C   0  0  0  0  0  0  0  0  0  0  0  0
  162.2760  210.2250  149.7240 C   0  0  0  0  0  1  0  0  0  0  0  0
  160.8800  209.3880  153.1320 C   0  0  0  0  0  0  0  0  0  0  0  0
  162.1570  208.0400  150.9900 C   0  0  0  0  0  0  0  0  0  0  0  0
  160.0580  210.1800  154.0230 N   0  0  0  0  0  0  0  0  0  0  0  0
  161.3210  209.9020  156.0440 C   0  0  0  0  0  0  0  0  0  0  0  0
  161.2940  210.0660  151.9850 C   0  0  0  0  0  3  0  0  0  0  0  0
  161.6610  212.1170  157.0510 C   0  0  0  0  0  2  0  0  0  0  0  0
  161.8080  210.6220  157.2590 C   0  0  0  0  0  3  0  0  0  0  0  0
  163.0210  211.4700  156.9190 C   0  0  0  0  0  2  0  0  0  0  0  0
  160.7070  205.0970  151.8140 C   0  0  1  0  0  3  0  0  0  0  0  0
  161.1260  205.2260  153.1470 O   0  0  0  0  0  0  0  0  0  0  0  0
  161.9550  205.8180  152.1690 C   0  0  2  0  0  3  0  0  0  0  0  0
  161.0400  203.7310  151.3260 C   0  0  0  0  0  3  0  0  0  0  0  0
  160.2010  203.0890  150.5170 C   0  0  0  0  0  3  0  0  0  0  0  0
  160.0060  200.6300  147.7960 O   0  0  0  0  0  0  0  0  0  0  0  0
  161.3290  200.7140  147.3920 N   0  0  0  0  0  2  0  0  0  0  0  0
  161.9590  201.6930  149.5130 C   0  0  0  0  0  2  0  0  0  0  0  0
  159.5420  201.2650  148.9530 C   0  0  0  0  0  0  0  0  0  0  0  0
  160.5160  201.7150  150.0160 C   0  0  2  0  0  3  0  0  0  0  0  0
  162.1900  200.5320  148.5570 C   0  0  0  0  0  2  0  0  0  0  0  0
  158.3010  201.3460  149.1560 O   0  0  0  0  0  0  0  0  0  0  0  0
  162.7460  207.3600  149.9140 O   0  0  0  0  0  0  0  0  0  0  0  0
  162.0400  206.9290  148.7870 C   0  0  0  0  0  0  0  0  0  0  0  0
  160.8470  206.5280  148.8820 O   0  0  0  0  0  0  0  0  0  0  0  0
  162.7040  206.9460  147.4580 C   0  0  0  0  0  2  0  0  0  0  0  0
  163.1300  205.5390  147.0810 C   0  0  0  0  0  2  0  0  0  0  0  0
  162.2080  204.9720  146.0570 C   0  0  0  0  0  0  0  0  0  0  0  0
  161.9630  205.5180  144.8780 C   0  0  0  0  0  3  0  0  0  0  0  0
  161.3870  203.7480  146.2400 C   0  0  0  0  0  2  0  0  0  0  0  0
  161.0080  204.7390  144.1720 N   0  0  0  0  0  0  0  0  0  0  0  0
  160.6800  203.7430  144.9280 C   0  0  0  0  0  0  0  0  0  0  0  0
  158.5760  203.0610  144.0840 O   0  0  0  0  0  0  0  0  0  0  0  0
  159.7090  202.7240  144.5190 C   0  0  0  0  0  0  0  0  0  0  0  0
  160.0350  201.3770  144.6110 O   0  0  0  0  0  1  0  0  0  0  0  0
  1  7  2  0  0  0  0
  2 10  2  0  0  0  0
  2 13  1  0  0  0  0
  3  4  2  0  0  0  0
  4  5  1  0  0  0  0
  5  1  1  0  0  0  0
  6 12  1  0  0  0  0
  7 12  2  0  0  0  0
  8  2  1  0  0  0  0
  9  4  1  0  0  0  0
  9 11  1  0  0  0  0
 10  3  1  0  0  0  0
 11  6  2  0  0  0  0
 12 15  1  0  0  0  0
 13  9  2  0  0  0  0
 14 15  1  0  0  0  0
 16 14  1  0  0  0  0
 16 15  1  0  0  0  0
 17 20  1  6  0  0  0
 17 19  1  0  0  0  0
 17 18  1  0  0  0  0
 19  3  1  1  0  0  0
 19 18  1  0  0  0  0
 21 20  2  0  0  0  0
 22 25  1  0  0  0  0
 23 22  1  0  0  0  0
 23 27  1  0  0  0  0
 24 26  1  0  0  0  0
 25 28  2  0  0  0  0
 25 26  1  0  0  0  0
 26 21  1  6  0  0  0
 27 24  1  0  0  0  0
 29 10  1  0  0  0  0
 30 31  2  0  0  0  0
 30 29  1  0  0  0  0
 32 30  1  0  0  0  0
 33 32  1  0  0  0  0
 34 36  1  0  0  0  0
 34 33  1  0  0  0  0
 35 34  2  0  0  0  0
 37 35  1  0  0  0  0
 37 38  2  0  0  0  0
 38 36  1  0  0  0  0
 39 40  2  0  0  0  0
 40 41  1  0  0  0  0
 40 38  1  0  0  0  0
M  END
>  <MODEL>
7

>  <REMARK>
 VINA RESULT:      -5.6      4.188      9.603
  Name = 
  10 active torsions:
  status: ('A' for Active; 'I' for Inactive)
    1  A    between atoms: C_3  and  C_4
    2  A    between atoms: C_3  and  C_28
    3  A    between atoms: C_7  and  C_28
    4  A    between atoms: C_7  and  O_40
    5  A    between atoms: C_10  and  C_39
    6  A    between atoms: C_20  and  C_33
    7  A    between atoms: CA_21  and  C_36
    8  A    between atoms: C_22  and  C_30
    9  A    between atoms: C_25  and  C_35
   10  A    between atoms: C_27  and  O_40
                            x       y       z     vdW  Elec       q    Type
                         _______ _______ _______ _____ _____    ______ ____

>  <TORSDO>
F 10

$$$$
=
 OpenBabel11052412143D

 41 46  0  0  1  0  0  0  0  0999 V2000
  160.8630  205.5990  147.9290 C   0  0  0  0  0  3  0  0  0  0  0  0
  161.3030  205.6790  153.1410 C   0  0  0  0  0  0  0  0  0  0  0  0
  161.1060  207.1270  151.1980 C   0  0  0  0  0  0  0  0  0  0  0  0
  160.6220  206.0410  150.4240 C   0  0  0  0  0  0  0  0  0  0  0  0
  160.3220  206.3180  149.0380 N   0  0  0  0  0  2  0  0  0  0  0  0
  160.1980  202.8630  149.4980 N   0  0  0  0  0  0  0  0  0  0  0  0
  161.2070  204.3780  148.1380 C   0  0  0  0  0  0  0  0  0  0  0  0
  161.5600  205.4530  154.5910 C   0  0  0  0  0  1  0  0  0  0  0  0
  160.4890  204.7480  151.0400 C   0  0  0  0  0  0  0  0  0  0  0  0
  161.4420  206.9460  152.5560 C   0  0  0  0  0  0  0  0  0  0  0  0
  159.8180  203.5940  150.4800 N   0  0  0  0  0  0  0  0  0  0  0  0
  161.2710  203.1840  148.6140 C   0  0  0  0  0  0  0  0  0  0  0  0
  160.8180  204.6170  152.3890 C   0  0  0  0  0  3  0  0  0  0  0  0
  160.8930  201.4090  146.9600 C   0  0  0  0  0  2  0  0  0  0  0  0
  161.9280  202.0990  147.8260 C   0  0  0  0  0  3  0  0  0  0  0  0
  161.3730  200.7440  148.2300 C   0  0  0  0  0  2  0  0  0  0  0  0
  162.3000  208.5180  149.5490 C   0  0  1  0  0  3  0  0  0  0  0  0
  162.5040  209.0480  150.8310 O   0  0  0  0  0  0  0  0  0  0  0  0
  161.2290  208.4990  150.5770 C   0  0  2  0  0  3  0  0  0  0  0  0
  162.0540  209.6320  148.5920 C   0  0  0  0  0  3  0  0  0  0  0  0
  161.7250  210.8390  149.0450 C   0  0  0  0  0  3  0  0  0  0  0  0
  161.8170  214.4530  148.3980 O   0  0  0  0  0  0  0  0  0  0  0  0
  162.9260  214.4510  147.5650 N   0  0  0  0  0  2  0  0  0  0  0  0
  162.6560  212.0850  147.1400 C   0  0  0  0  0  2  0  0  0  0  0  0
  161.2120  213.2680  148.8310 C   0  0  0  0  0  0  0  0  0  0  0  0
  161.4720  211.9720  148.1000 C   0  0  2  0  0  3  0  0  0  0  0  0
  162.7190  213.4670  146.5070 C   0  0  0  0  0  2  0  0  0  0  0  0
  160.3580  213.3130  149.7540 O   0  0  0  0  0  0  0  0  0  0  0  0
  161.8690  208.0470  153.3120 O   0  0  0  0  0  0  0  0  0  0  0  0
  161.0000  208.9130  153.9830 C   0  0  0  0  0  0  0  0  0  0  0  0
  160.2300  208.4880  154.8870 O   0  0  0  0  0  0  0  0  0  0  0  0
  160.9880  210.3550  153.6270 C   0  0  0  0  0  2  0  0  0  0  0  0
  159.7650  210.6620  152.7820 C   0  0  0  0  0  2  0  0  0  0  0  0
  158.9260  211.7040  153.4380 C   0  0  0  0  0  0  0  0  0  0  0  0
  158.9570  212.9930  153.1460 C   0  0  0  0  0  3  0  0  0  0  0  0
  157.9810  211.4510  154.5570 C   0  0  0  0  0  2  0  0  0  0  0  0
  158.0610  213.7040  153.9890 N   0  0  0  0  0  0  0  0  0  0  0  0
  157.5090  212.8470  154.7830 C   0  0  0  0  0  0  0  0  0  0  0  0
  156.4110  214.4290  156.1610 O   0  0  0  0  0  0  0  0  0  0  0  0
  156.5200  213.2280  155.7960 C   0  0  0  0  0  0  0  0  0  0  0  0
  155.6950  212.2630  156.3600 O   0  0  0  0  0  1  0  0  0  0  0  0
  1  7  2  0  0  0  0
  1  5  1  0  0  0  0
  2  8  1  0  0  0  0
  3 10  2  0  0  0  0
  4  9  2  0  0  0  0
  4  3  1  0  0  0  0
  5  4  1  0  0  0  0
  6 11  2  0  0  0  0
  7 12  2  0  0  0  0
  9 13  1  0  0  0  0
 10  2  1  0  0  0  0
 10 29  1  0  0  0  0
 11  9  1  0  0  0  0
 12  6  1  0  0  0  0
 13  2  2  0  0  0  0
 14 15  1  0  0  0  0
 14 16  1  0  0  0  0
 15 16  1  0  0  0  0
 15 12  1  0  0  0  0
 17 20  1  6  0  0  0
 17 19  1  0  0  0  0
 17 18  1  0  0  0  0
 19 18  1  0  0  0  0
 19  3  1  1  0  0  0
 20 21  2  0  0  0  0
 22 25  1  0  0  0  0
 23 22  1  0  0  0  0
 24 26  1  0  0  0  0
 25 28  2  0  0  0  0
 26 25  1  0  0  0  0
 26 21  1  1  0  0  0
 27 24  1  0  0  0  0
 27 23  1  0  0  0  0
 29 30  1  0  0  0  0
 30 31  2  0  0  0  0
 32 30  1  0  0  0  0
 33 34  1  0  0  0  0
 33 32  1  0  0  0  0
 34 36  1  0  0  0  0
 35 34  2  0  0  0  0
 35 37  1  0  0  0  0
 36 38  1  0  0  0  0
 37 38  2  0  0  0  0
 38 40  1  0  0  0  0
 40 39  2  0  0  0  0
 40 41  1  0  0  0  0
M  END
>  <MODEL>
8

>  <REMARK>
 VINA RESULT:      -5.5      2.019      2.588
  Name = 
  10 active torsions:
  status: ('A' for Active; 'I' for Inactive)
    1  A    between atoms: C_3  and  C_4
    2  A    between atoms: C_3  and  C_28
    3  A    between atoms: C_7  and  C_28
    4  A    between atoms: C_7  and  O_40
    5  A    between atoms: C_10  and  C_39
    6  A    between atoms: C_20  and  C_33
    7  A    between atoms: CA_21  and  C_36
    8  A    between atoms: C_22  and  C_30
    9  A    between atoms: C_25  and  C_35
   10  A    between atoms: C_27  and  O_40
                            x       y       z     vdW  Elec       q    Type
                         _______ _______ _______ _____ _____    ______ ____

>  <TORSDO>
F 10

$$$$
=
 OpenBabel11052412143D

 41 46  0  0  1  0  0  0  0  0999 V2000
  161.5800  204.9660  147.5060 C   0  0  0  0  0  3  0  0  0  0  0  0
  161.5190  206.6190  152.4690 C   0  0  0  0  0  0  0  0  0  0  0  0
  161.7950  207.3910  150.1800 C   0  0  0  0  0  0  0  0  0  0  0  0
  161.1870  206.2040  149.6950 C   0  0  0  0  0  0  0  0  0  0  0  0
  161.0830  206.0730  148.2600 N   0  0  0  0  0  2  0  0  0  0  0  0
  160.2510  203.0020  149.6890 N   0  0  0  0  0  0  0  0  0  0  0  0
  161.6590  203.8360  148.1130 C   0  0  0  0  0  0  0  0  0  0  0  0
  161.5870  206.8260  153.9430 C   0  0  0  0  0  1  0  0  0  0  0  0
  160.7490  205.2090  150.6350 C   0  0  0  0  0  0  0  0  0  0  0  0
  161.9570  207.5990  151.5650 C   0  0  0  0  0  0  0  0  0  0  0  0
  159.9250  204.0550  150.3430 N   0  0  0  0  0  0  0  0  0  0  0  0
  161.4450  202.8590  148.9230 C   0  0  0  0  0  0  0  0  0  0  0  0
  160.9140  205.4620  151.9970 C   0  0  0  0  0  3  0  0  0  0  0  0
  160.9450  200.7760  147.7210 C   0  0  0  0  0  2  0  0  0  0  0  0
  161.9540  201.4930  148.5970 C   0  0  0  0  0  3  0  0  0  0  0  0
  161.0410  200.4350  149.1910 C   0  0  0  0  0  2  0  0  0  0  0  0
  161.1750  209.4760  149.0190 C   0  0  1  0  0  3  0  0  0  0  0  0
  161.4120  208.4730  148.0680 O   0  0  0  0  0  0  0  0  0  0  0  0
  162.2410  208.4610  149.2100 C   0  0  2  0  0  3  0  0  0  0  0  0
  161.7780  210.7520  148.5470 C   0  0  0  0  0  3  0  0  0  0  0  0
  161.0430  211.6240  147.8620 C   0  0  0  0  0  3  0  0  0  0  0  0
  163.5300  213.3370  145.7720 O   0  0  0  0  0  0  0  0  0  0  0  0
  162.6620  213.7480  144.7720 N   0  0  0  0  0  2  0  0  0  0  0  0
  160.7620  213.4520  146.2410 C   0  0  0  0  0  2  0  0  0  0  0  0
  163.0720  212.7510  146.9570 C   0  0  0  0  0  0  0  0  0  0  0  0
  161.6300  212.9120  147.3770 C   0  0  2  0  0  3  0  0  0  0  0  0
  161.5340  214.4440  145.3840 C   0  0  0  0  0  2  0  0  0  0  0  0
  163.8980  212.1950  147.7290 O   0  0  0  0  0  0  0  0  0  0  0  0
  162.5130  208.8030  152.0210 O   0  0  0  0  0  0  0  0  0  0  0  0
  161.8060  209.7520  152.7660 C   0  0  0  0  0  0  0  0  0  0  0  0
  162.3390  210.3320  153.7520 O   0  0  0  0  0  0  0  0  0  0  0  0
  160.4090  210.0860  152.3860 C   0  0  0  0  0  2  0  0  0  0  0  0
  160.2850  211.5810  152.1590 C   0  0  0  0  0  2  0  0  0  0  0  0
  159.0210  212.0960  152.7580 C   0  0  0  0  0  0  0  0  0  0  0  0
  158.3630  213.1610  152.3320 C   0  0  0  0  0  3  0  0  0  0  0  0
  158.3540  211.5220  153.9560 C   0  0  0  0  0  2  0  0  0  0  0  0
  157.2260  213.3890  153.1530 N   0  0  0  0  0  0  0  0  0  0  0  0
  157.2130  212.4740  154.0660 C   0  0  0  0  0  0  0  0  0  0  0  0
  155.4760  213.4090  155.3750 O   0  0  0  0  0  0  0  0  0  0  0  0
  156.1740  212.3980  155.0960 C   0  0  0  0  0  0  0  0  0  0  0  0
  155.9520  211.2060  155.7730 O   0  0  0  0  0  1  0  0  0  0  0  0
  1  7  2  0  0  0  0
  1  5  1  0  0  0  0
  2  8  1  0  0  0  0
  3 10  1  0  0  0  0
  4  3  2  0  0  0  0
  4  9  1  0  0  0  0
  5  4  1  0  0  0  0
  6 11  2  0  0  0  0
  7 12  2  0  0  0  0
  9 13  2  0  0  0  0
 10 29  1  0  0  0  0
 10  2  2  0  0  0  0
 11  9  1  0  0  0  0
 12  6  1  0  0  0  0
 13  2  1  0  0  0  0
 14 15  1  0  0  0  0
 14 16  1  0  0  0  0
 15 12  1  0  0  0  0
 15 16  1  0  0  0  0
 17 20  1  6  0  0  0
 17 19  1  0  0  0  0
 18 17  1  0  0  0  0
 18 19  1  0  0  0  0
 19  3  1  1  0  0  0
 21 20  2  0  0  0  0
 22 25  1  0  0  0  0
 23 27  1  0  0  0  0
 23 22  1  0  0  0  0
 24 26  1  0  0  0  0
 25 26  1  0  0  0  0
 25 28  2  0  0  0  0
 26 21  1  6  0  0  0
 27 24  1  0  0  0  0
 29 30  1  0  0  0  0
 30 31  2  0  0  0  0
 32 30  1  0  0  0  0
 33 32  1  0  0  0  0
 33 34  1  0  0  0  0
 34 36  1  0  0  0  0
 35 34  2  0  0  0  0
 35 37  1  0  0  0  0
 36 38  1  0  0  0  0
 37 38  2  0  0  0  0
 38 40  1  0  0  0  0
 40 39  2  0  0  0  0
 40 41  1  0  0  0  0
M  END
>  <MODEL>
9

>  <REMARK>
 VINA RESULT:      -5.4      2.046      2.642
  Name = 
  10 active torsions:
  status: ('A' for Active; 'I' for Inactive)
    1  A    between atoms: C_3  and  C_4
    2  A    between atoms: C_3  and  C_28
    3  A    between atoms: C_7  and  C_28
    4  A    between atoms: C_7  and  O_40
    5  A    between atoms: C_10  and  C_39
    6  A    between atoms: C_20  and  C_33
    7  A    between atoms: CA_21  and  C_36
    8  A    between atoms: C_22  and  C_30
    9  A    between atoms: C_25  and  C_35
   10  A    between atoms: C_27  and  O_40
                            x       y       z     vdW  Elec       q    Type
                         _______ _______ _______ _____ _____    ______ ____

>  <TORSDO>
F 10

$$$$
