=
 OpenBabel11042423123D

 29 32  0  0  1  0  0  0  0  0999 V2000
  160.8420  202.9190  149.9570 C   0  0  0  0  0  0  0  0  0  0  0  0
  162.0380  207.4450  150.5680 C   0  0  0  0  0  2  0  0  0  0  0  0
  161.9770  208.9290  150.1930 C   0  0  0  0  0  0  0  0  0  0  0  0
  162.0750  209.9270  151.2100 N   0  0  0  0  0  2  0  0  0  0  0  0
  161.3890  204.8690  148.0390 C   0  0  0  0  0  0  0  0  0  0  0  0
  162.1040  207.0080  148.1840 C   0  0  1  0  0  3  0  0  0  0  0  0
  160.9970  204.2650  150.3520 C   0  0  0  0  0  3  0  0  0  0  0  0
  161.3090  205.2050  149.3730 C   0  0  0  0  0  0  0  0  0  0  0  0
  161.6880  205.9970  147.2110 N   0  0  0  0  0  0  0  0  0  0  0  0
  161.7780  208.3860  147.8730 N   0  0  0  0  0  2  0  0  0  0  0  0
  161.2360  203.5450  147.6220 C   0  0  0  0  0  3  0  0  0  0  0  0
  161.8450  209.3100  148.9410 N   0  0  0  0  0  0  0  0  0  0  0  0
  160.9650  202.5700  148.5950 C   0  0  0  0  0  3  0  0  0  0  0  0
  161.3640  206.6770  149.4520 C   0  0  1  0  0  3  0  0  0  0  0  0
  160.5570  201.9150  150.8860 O   0  0  0  0  0  0  0  0  0  0  0  0
  160.5610  200.5340  150.5490 C   0  0  0  0  0  1  0  0  0  0  0  0
  162.2260  209.5970  152.6180 C   0  0  0  0  0  2  0  0  0  0  0  0
  159.7620  209.4230  155.4240 O   0  0  0  0  0  0  0  0  0  0  0  0
  160.6590  211.2130  153.4150 O   0  0  0  0  0  0  0  0  0  0  0  0
  159.4200  211.3820  154.0660 C   0  0  0  0  0  2  0  0  0  0  0  0
  161.0000  209.2550  154.7730 C   0  0  0  0  0  2  0  0  0  0  0  0
  160.9170  209.8290  153.3490 C   0  0  2  0  0  3  0  0  0  0  0  0
  159.5010  210.8070  155.4860 C   0  0  0  0  0  2  0  0  0  0  0  0
  162.2160  205.8550  145.8530 C   0  0  2  0  0  3  0  0  0  0  0  0
  159.9550  206.1870  145.1200 O   0  0  0  0  0  1  0  0  0  0  0  0
  161.4290  205.4800  143.5170 O   0  0  0  0  0  0  0  0  0  0  0  0
  161.1330  205.8570  144.8190 C   0  0  0  0  0  0  0  0  0  0  0  0
  164.2230  204.7560  146.6060 F   0  0  0  0  0  0  0  0  0  0  0  0
  163.1700  204.6710  145.7130 C   0  0  0  0  0  2  0  0  0  0  0  0
  1  7  1  0  0  0  0
  1 15  1  0  0  0  0
  3  2  1  0  0  0  0
  3  4  1  0  0  0  0
  4 17  1  0  0  0  0
  5  8  1  0  0  0  0
  6 10  1  6  0  0  0
  6 14  1  0  0  0  0
  8 14  1  0  0  0  0
  8  7  2  0  0  0  0
  9  5  1  0  0  0  0
  9  6  1  0  0  0  0
 10 12  1  0  0  0  0
 11  5  2  0  0  0  0
 11 13  1  0  0  0  0
 12  3  2  0  0  0  0
 13  1  2  0  0  0  0
 14  2  1  1  0  0  0
 16 15  1  0  0  0  0
 18 23  1  0  0  0  0
 19 20  1  0  0  0  0
 20 23  1  0  0  0  0
 21 18  1  0  0  0  0
 22 17  1  1  0  0  0
 22 19  1  0  0  0  0
 22 21  1  0  0  0  0
 24 29  1  1  0  0  0
 24  9  1  0  0  0  0
 26 27  2  0  0  0  0
 27 25  1  0  0  0  0
 27 24  1  0  0  0  0
 29 28  1  0  0  0  0
M  END
>  <MODEL>
1

>  <REMARK>
 VINA RESULT:      -8.3      0.000      0.000
  Name = 
  6 active torsions:
  status: ('A' for Active; 'I' for Inactive)
    1  A    between atoms: C_1  and  N_15
    2  A    between atoms: C_1  and  C_23
    3  A    between atoms: C_2  and  O_6
    4  A    between atoms: C_5  and  C_12
    5  A    between atoms: C_5  and  N_21
    6  A    between atoms: C_5  and  C_24
                            x       y       z     vdW  Elec       q    Type
                         _______ _______ _______ _____ _____    ______ ____

>  <TORSDO>
F 6

$$$$
=
 OpenBabel11042423123D

 29 32  0  0  1  0  0  0  0  0999 V2000
  161.5910  204.8540  146.5790 C   0  0  0  0  0  0  0  0  0  0  0  0
  161.6540  209.1710  148.4900 C   0  0  0  0  0  2  0  0  0  0  0  0
  162.1010  210.1800  149.5520 C   0  0  0  0  0  0  0  0  0  0  0  0
  162.2900  211.5510  149.2000 N   0  0  0  0  0  2  0  0  0  0  0  0
  161.5480  205.5880  149.2700 C   0  0  0  0  0  0  0  0  0  0  0  0
  161.4300  207.5890  150.3150 C   0  0  1  0  0  3  0  0  0  0  0  0
  161.8070  206.2010  146.9410 C   0  0  0  0  0  3  0  0  0  0  0  0
  161.7380  206.5380  148.2900 C   0  0  0  0  0  0  0  0  0  0  0  0
  161.5450  206.1550  150.5830 N   0  0  0  0  0  0  0  0  0  0  0  0
  162.1060  208.4820  151.2350 N   0  0  0  0  0  2  0  0  0  0  0  0
  161.3350  204.2480  148.9380 C   0  0  0  0  0  3  0  0  0  0  0  0
  162.3060  209.8110  150.7980 N   0  0  0  0  0  0  0  0  0  0  0  0
  161.3550  203.8890  147.5810 C   0  0  0  0  0  3  0  0  0  0  0  0
  162.0790  207.8000  148.9720 C   0  0  1  0  0  3  0  0  0  0  0  0
  161.6150  204.4440  145.2430 O   0  0  0  0  0  0  0  0  0  0  0  0
  161.3360  205.3260  144.1650 C   0  0  0  0  0  1  0  0  0  0  0  0
  162.0820  212.0470  147.8490 C   0  0  0  0  0  2  0  0  0  0  0  0
  158.7710  213.4560  146.8330 O   0  0  0  0  0  0  0  0  0  0  0  0
  160.4070  213.1650  149.1320 O   0  0  0  0  0  0  0  0  0  0  0  0
  159.3610  214.1080  149.0750 C   0  0  0  0  0  2  0  0  0  0  0  0
  159.8170  212.5150  146.8910 C   0  0  0  0  0  2  0  0  0  0  0  0
  160.9230  213.0260  147.8280 C   0  0  2  0  0  3  0  0  0  0  0  0
  158.2580  213.5990  148.1380 C   0  0  0  0  0  2  0  0  0  0  0  0
  160.9730  205.4580  151.7370 C   0  0  2  0  0  3  0  0  0  0  0  0
  162.5840  206.0020  153.4320 O   0  0  0  0  0  0  0  0  0  0  0  0
  160.4460  206.7240  153.8200 O   0  0  0  0  0  1  0  0  0  0  0  0
  161.3900  206.0750  153.0370 C   0  0  0  0  0  0  0  0  0  0  0  0
  160.5320  203.2970  152.7050 F   0  0  0  0  0  0  0  0  0  0  0  0
  161.2100  203.9500  151.6910 C   0  0  0  0  0  2  0  0  0  0  0  0
  1  7  2  0  0  0  0
  1 13  1  0  0  0  0
  2  3  1  0  0  0  0
  3 12  2  0  0  0  0
  4  3  1  0  0  0  0
  5  9  1  0  0  0  0
  6  9  1  0  0  0  0
  6 10  1  1  0  0  0
  7  8  1  0  0  0  0
  8 14  1  0  0  0  0
  8  5  2  0  0  0  0
  9 24  1  0  0  0  0
 11  5  1  0  0  0  0
 12 10  1  0  0  0  0
 13 11  2  0  0  0  0
 14  2  1  6  0  0  0
 14  6  1  0  0  0  0
 15  1  1  0  0  0  0
 16 15  1  0  0  0  0
 17  4  1  0  0  0  0
 18 21  1  0  0  0  0
 18 23  1  0  0  0  0
 20 19  1  0  0  0  0
 21 22  1  0  0  0  0
 22 17  1  1  0  0  0
 22 19  1  0  0  0  0
 23 20  1  0  0  0  0
 24 29  1  1  0  0  0
 24 27  1  0  0  0  0
 27 25  2  0  0  0  0
 27 26  1  0  0  0  0
 29 28  1  0  0  0  0
M  END
>  <MODEL>
2

>  <REMARK>
 VINA RESULT:      -7.5      3.474      5.664
  Name = 
  6 active torsions:
  status: ('A' for Active; 'I' for Inactive)
    1  A    between atoms: C_1  and  N_15
    2  A    between atoms: C_1  and  C_23
    3  A    between atoms: C_2  and  O_6
    4  A    between atoms: C_5  and  C_12
    5  A    between atoms: C_5  and  N_21
    6  A    between atoms: C_5  and  C_24
                            x       y       z     vdW  Elec       q    Type
                         _______ _______ _______ _____ _____    ______ ____

>  <TORSDO>
F 6

$$$$
=
 OpenBabel11042423123D

 29 32  0  0  1  0  0  0  0  0999 V2000
  161.2430  205.4650  144.8900 C   0  0  0  0  0  0  0  0  0  0  0  0
  160.9010  206.3900  149.5070 C   0  0  0  0  0  2  0  0  0  0  0  0
  161.2700  206.1430  150.9730 C   0  0  0  0  0  0  0  0  0  0  0  0
  161.2990  207.2330  151.8950 N   0  0  0  0  0  2  0  0  0  0  0  0
  161.2080  203.6910  147.0420 C   0  0  0  0  0  0  0  0  0  0  0  0
  160.9080  203.9770  149.2640 C   0  0  1  0  0  3  0  0  0  0  0  0
  161.3240  205.9620  146.2080 C   0  0  0  0  0  3  0  0  0  0  0  0
  161.2620  205.0510  147.2590 C   0  0  0  0  0  0  0  0  0  0  0  0
  161.1860  202.9460  148.2630 N   0  0  0  0  0  0  0  0  0  0  0  0
  161.5120  203.7990  150.5690 N   0  0  0  0  0  2  0  0  0  0  0  0
  161.1300  203.1740  145.7470 C   0  0  0  0  0  3  0  0  0  0  0  0
  161.5540  204.9360  151.4090 N   0  0  0  0  0  0  0  0  0  0  0  0
  161.1450  204.0750  144.6700 C   0  0  0  0  0  3  0  0  0  0  0  0
  161.4860  205.2490  148.7030 C   0  0  1  0  0  3  0  0  0  0  0  0
  161.2680  206.3210  143.7850 O   0  0  0  0  0  0  0  0  0  0  0  0
  161.6470  205.8860  142.4870 C   0  0  0  0  0  1  0  0  0  0  0  0
  160.9950  208.6000  151.5010 C   0  0  0  0  0  2  0  0  0  0  0  0
  160.6690  209.4970  155.1160 O   0  0  0  0  0  0  0  0  0  0  0  0
  161.0250  210.7270  152.5860 O   0  0  0  0  0  0  0  0  0  0  0  0
  160.5660  211.4470  153.7070 C   0  0  0  0  0  2  0  0  0  0  0  0
  161.1270  208.7790  153.9950 C   0  0  0  0  0  2  0  0  0  0  0  0
  160.5570  209.4040  152.7110 C   0  0  2  0  0  3  0  0  0  0  0  0
  161.1330  210.8220  154.9880 C   0  0  0  0  0  2  0  0  0  0  0  0
  160.7300  201.5560  148.3260 C   0  0  2  0  0  3  0  0  0  0  0  0
  158.6440  201.3330  149.4930 O   0  0  0  0  0  0  0  0  0  0  0  0
  160.5290  200.9870  150.7460 O   0  0  0  0  0  1  0  0  0  0  0  0
  159.9020  201.2850  149.5450 C   0  0  0  0  0  0  0  0  0  0  0  0
  161.6470  199.7240  147.0590 F   0  0  0  0  0  0  0  0  0  0  0  0
  161.8670  200.5540  148.1440 C   0  0  0  0  0  2  0  0  0  0  0  0
  1  7  1  0  0  0  0
  2  3  1  0  0  0  0
  3 12  2  0  0  0  0
  3  4  1  0  0  0  0
  5  8  1  0  0  0  0
  5  9  1  0  0  0  0
  6 10  1  1  0  0  0
  7  8  2  0  0  0  0
  8 14  1  0  0  0  0
  9 24  1  0  0  0  0
  9  6  1  0  0  0  0
 10 12  1  0  0  0  0
 11  5  2  0  0  0  0
 13  1  2  0  0  0  0
 13 11  1  0  0  0  0
 14  6  1  0  0  0  0
 14  2  1  1  0  0  0
 15  1  1  0  0  0  0
 16 15  1  0  0  0  0
 17  4  1  0  0  0  0
 19 22  1  0  0  0  0
 19 20  1  0  0  0  0
 20 23  1  0  0  0  0
 21 18  1  0  0  0  0
 22 17  1  6  0  0  0
 22 21  1  0  0  0  0
 23 18  1  0  0  0  0
 24 29  1  1  0  0  0
 24 27  1  0  0  0  0
 25 27  2  0  0  0  0
 27 26  1  0  0  0  0
 28 29  1  0  0  0  0
M  END
>  <MODEL>
3

>  <REMARK>
 VINA RESULT:      -7.3      2.129      4.560
  Name = 
  6 active torsions:
  status: ('A' for Active; 'I' for Inactive)
    1  A    between atoms: C_1  and  N_15
    2  A    between atoms: C_1  and  C_23
    3  A    between atoms: C_2  and  O_6
    4  A    between atoms: C_5  and  C_12
    5  A    between atoms: C_5  and  N_21
    6  A    between atoms: C_5  and  C_24
                            x       y       z     vdW  Elec       q    Type
                         _______ _______ _______ _____ _____    ______ ____

>  <TORSDO>
F 6

$$$$
=
 OpenBabel11042423123D

 29 32  0  0  1  0  0  0  0  0999 V2000
  159.1930  212.9530  152.6880 C   0  0  0  0  0  0  0  0  0  0  0  0
  161.2160  208.8920  151.3800 C   0  0  0  0  0  2  0  0  0  0  0  0
  161.3880  207.3720  151.4600 C   0  0  0  0  0  0  0  0  0  0  0  0
  161.7430  206.6310  150.2920 N   0  0  0  0  0  2  0  0  0  0  0  0
  159.9180  210.7630  154.2560 C   0  0  0  0  0  0  0  0  0  0  0  0
  161.0100  208.8380  153.7950 C   0  0  1  0  0  3  0  0  0  0  0  0
  159.6150  211.7570  152.0680 C   0  0  0  0  0  3  0  0  0  0  0  0
  160.0080  210.6980  152.8820 C   0  0  0  0  0  0  0  0  0  0  0  0
  160.3440  209.5510  154.8860 N   0  0  0  0  0  0  0  0  0  0  0  0
  160.9080  207.3920  153.8030 N   0  0  0  0  0  2  0  0  0  0  0  0
  159.5010  211.9330  154.8930 C   0  0  0  0  0  3  0  0  0  0  0  0
  161.2240  206.7280  152.5950 N   0  0  0  0  0  0  0  0  0  0  0  0
  159.1420  213.0320  154.0960 C   0  0  0  0  0  3  0  0  0  0  0  0
  160.3280  209.3010  152.5360 C   0  0  1  0  0  3  0  0  0  0  0  0
  158.8120  214.0680  151.9380 O   0  0  0  0  0  0  0  0  0  0  0  0
  157.5930  214.1240  151.2110 C   0  0  0  0  0  1  0  0  0  0  0  0
  161.9480  207.2610  148.9980 C   0  0  0  0  0  2  0  0  0  0  0  0
  161.8450  203.9040  147.3560 O   0  0  0  0  0  0  0  0  0  0  0  0
  161.7860  206.6610  146.6930 O   0  0  0  0  0  0  0  0  0  0  0  0
  162.1090  205.6720  145.7420 C   0  0  0  0  0  2  0  0  0  0  0  0
  161.5230  204.8930  148.3050 C   0  0  0  0  0  2  0  0  0  0  0  0
  162.2390  206.2060  147.9470 C   0  0  2  0  0  3  0  0  0  0  0  0
  161.3970  204.3610  146.1000 C   0  0  0  0  0  2  0  0  0  0  0  0
  160.7270  209.4940  156.2980 C   0  0  2  0  0  3  0  0  0  0  0  0
  162.8590  208.9450  157.2550 O   0  0  0  0  0  1  0  0  0  0  0  0
  162.8330  210.7500  155.8450 O   0  0  0  0  0  0  0  0  0  0  0  0
  162.1970  209.7030  156.4960 C   0  0  0  0  0  0  0  0  0  0  0  0
  159.2560  207.5870  156.2360 F   0  0  0  0  0  0  0  0  0  0  0  0
  160.2040  208.2430  157.0010 C   0  0  0  0  0  2  0  0  0  0  0  0
  1 13  1  0  0  0  0
  2  3  1  0  0  0  0
  3 12  2  0  0  0  0
  4  3  1  0  0  0  0
  5  9  1  0  0  0  0
  5 11  1  0  0  0  0
  6 10  1  1  0  0  0
  6  9  1  0  0  0  0
  7  1  2  0  0  0  0
  7  8  1  0  0  0  0
  8  5  2  0  0  0  0
  9 24  1  0  0  0  0
 12 10  1  0  0  0  0
 13 11  2  0  0  0  0
 14  2  1  6  0  0  0
 14  8  1  0  0  0  0
 14  6  1  0  0  0  0
 15  1  1  0  0  0  0
 16 15  1  0  0  0  0
 17  4  1  0  0  0  0
 18 21  1  0  0  0  0
 19 22  1  0  0  0  0
 20 23  1  0  0  0  0
 20 19  1  0  0  0  0
 22 21  1  0  0  0  0
 22 17  1  1  0  0  0
 23 18  1  0  0  0  0
 24 27  1  0  0  0  0
 24 29  1  6  0  0  0
 26 27  2  0  0  0  0
 27 25  1  0  0  0  0
 28 29  1  0  0  0  0
M  END
>  <MODEL>
4

>  <REMARK>
 VINA RESULT:      -7.0      3.183      9.359
  Name = 
  6 active torsions:
  status: ('A' for Active; 'I' for Inactive)
    1  A    between atoms: C_1  and  N_15
    2  A    between atoms: C_1  and  C_23
    3  A    between atoms: C_2  and  O_6
    4  A    between atoms: C_5  and  C_12
    5  A    between atoms: C_5  and  N_21
    6  A    between atoms: C_5  and  C_24
                            x       y       z     vdW  Elec       q    Type
                         _______ _______ _______ _____ _____    ______ ____

>  <TORSDO>
F 6

$$$$
=
 OpenBabel11042423123D

 29 32  0  0  1  0  0  0  0  0999 V2000
  160.8730  207.9870  154.7570 C   0  0  0  0  0  0  0  0  0  0  0  0
  162.0330  209.5050  150.4390 C   0  0  0  0  0  2  0  0  0  0  0  0
  161.8900  209.5020  148.9140 C   0  0  0  0  0  0  0  0  0  0  0  0
  162.0940  210.7060  148.1750 N   0  0  0  0  0  2  0  0  0  0  0  0
  161.1250  206.5340  152.3890 C   0  0  0  0  0  0  0  0  0  0  0  0
  161.8040  207.0940  150.3070 C   0  0  1  0  0  3  0  0  0  0  0  0
  161.0460  208.6680  153.5330 C   0  0  0  0  0  3  0  0  0  0  0  0
  161.2090  207.9100  152.3760 C   0  0  0  0  0  0  0  0  0  0  0  0
  161.2890  205.9670  151.0860 N   0  0  0  0  0  0  0  0  0  0  0  0
  161.4090  207.1600  148.9140 N   0  0  0  0  0  2  0  0  0  0  0  0
  160.9510  205.8370  153.5860 C   0  0  0  0  0  3  0  0  0  0  0  0
  161.5910  208.4000  148.2610 N   0  0  0  0  0  0  0  0  0  0  0  0
  160.8290  206.5770  154.7740 C   0  0  0  0  0  3  0  0  0  0  0  0
  161.2390  208.3270  150.9620 C   0  0  1  0  0  3  0  0  0  0  0  0
  160.7330  208.6790  155.9620 O   0  0  0  0  0  0  0  0  0  0  0  0
  161.8400  209.0250  156.7820 C   0  0  0  0  0  1  0  0  0  0  0  0
  162.4320  211.9680  148.8140 C   0  0  0  0  0  2  0  0  0  0  0  0
  159.5460  213.5960  147.0820 O   0  0  0  0  0  0  0  0  0  0  0  0
  160.4530  212.9720  149.6950 O   0  0  0  0  0  0  0  0  0  0  0  0
  159.4640  213.9480  149.4620 C   0  0  0  0  0  2  0  0  0  0  0  0
  160.5360  212.6210  147.3160 C   0  0  0  0  0  2  0  0  0  0  0  0
  161.3230  212.9790  148.5870 C   0  0  2  0  0  3  0  0  0  0  0  0
  158.6790  213.5930  148.1920 C   0  0  0  0  0  2  0  0  0  0  0  0
  161.6430  204.5610  150.8810 C   0  0  2  0  0  3  0  0  0  0  0  0
  160.0810  203.2140  149.6530 O   0  0  0  0  0  1  0  0  0  0  0  0
  161.6110  204.3630  148.3950 O   0  0  0  0  0  0  0  0  0  0  0  0
  161.0600  204.0060  149.6170 C   0  0  0  0  0  0  0  0  0  0  0  0
  161.9560  202.4560  152.0110 F   0  0  0  0  0  0  0  0  0  0  0  0
  161.3470  203.6950  152.1030 C   0  0  0  0  0  2  0  0  0  0  0  0
  1 13  1  0  0  0  0
  1 15  1  0  0  0  0
  3  2  1  0  0  0  0
  4 17  1  0  0  0  0
  4  3  1  0  0  0  0
  5 11  1  0  0  0  0
  6 10  1  6  0  0  0
  6 14  1  0  0  0  0
  6  9  1  0  0  0  0
  7  1  2  0  0  0  0
  8  5  2  0  0  0  0
  8  7  1  0  0  0  0
  9  5  1  0  0  0  0
 11 13  2  0  0  0  0
 12  3  2  0  0  0  0
 12 10  1  0  0  0  0
 14  2  1  1  0  0  0
 14  8  1  0  0  0  0
 15 16  1  0  0  0  0
 18 21  1  0  0  0  0
 18 23  1  0  0  0  0
 20 19  1  0  0  0  0
 21 22  1  0  0  0  0
 22 17  1  1  0  0  0
 22 19  1  0  0  0  0
 23 20  1  0  0  0  0
 24  9  1  0  0  0  0
 24 29  1  1  0  0  0
 26 27  2  0  0  0  0
 27 25  1  0  0  0  0
 27 24  1  0  0  0  0
 28 29  1  0  0  0  0
M  END
>  <MODEL>
5

>  <REMARK>
 VINA RESULT:      -6.8      3.258      5.715
  Name = 
  6 active torsions:
  status: ('A' for Active; 'I' for Inactive)
    1  A    between atoms: C_1  and  N_15
    2  A    between atoms: C_1  and  C_23
    3  A    between atoms: C_2  and  O_6
    4  A    between atoms: C_5  and  C_12
    5  A    between atoms: C_5  and  N_21
    6  A    between atoms: C_5  and  C_24
                            x       y       z     vdW  Elec       q    Type
                         _______ _______ _______ _____ _____    ______ ____

>  <TORSDO>
F 6

$$$$
=
 OpenBabel11042423123D

 29 32  0  0  1  0  0  0  0  0999 V2000
  161.0310  205.5130  145.9110 C   0  0  0  0  0  0  0  0  0  0  0  0
  160.7270  206.9640  150.3940 C   0  0  0  0  0  2  0  0  0  0  0  0
  161.2050  206.9890  151.8490 C   0  0  0  0  0  0  0  0  0  0  0  0
  161.0630  208.1780  152.6270 N   0  0  0  0  0  2  0  0  0  0  0  0
  161.4420  204.0670  148.2610 C   0  0  0  0  0  0  0  0  0  0  0  0
  161.1950  204.5850  150.4470 C   0  0  1  0  0  3  0  0  0  0  0  0
  161.0730  206.1870  147.1500 C   0  0  0  0  0  3  0  0  0  0  0  0
  161.2400  205.4300  148.3060 C   0  0  0  0  0  0  0  0  0  0  0  0
  161.6230  203.5010  149.5620 N   0  0  0  0  0  0  0  0  0  0  0  0
  161.8820  204.7000  151.7180 N   0  0  0  0  0  2  0  0  0  0  0  0
  161.4070  203.3760  147.0470 C   0  0  0  0  0  3  0  0  0  0  0  0
  161.7390  205.9250  152.4080 N   0  0  0  0  0  0  0  0  0  0  0  0
  161.1960  204.1120  145.8700 C   0  0  0  0  0  3  0  0  0  0  0  0
  161.4870  205.8570  149.6950 C   0  0  1  0  0  3  0  0  0  0  0  0
  160.8370  206.2020  144.7110 O   0  0  0  0  0  0  0  0  0  0  0  0
  161.2380  205.6800  143.4520 C   0  0  0  0  0  1  0  0  0  0  0  0
  160.4800  209.3980  152.0920 C   0  0  0  0  0  2  0  0  0  0  0  0
  159.5650  212.4310  154.0770 O   0  0  0  0  0  0  0  0  0  0  0  0
  161.0290  210.0150  154.3320 O   0  0  0  0  0  0  0  0  0  0  0  0
  161.2310  211.1060  155.2020 C   0  0  0  0  0  2  0  0  0  0  0  0
  159.3640  211.3410  153.2080 C   0  0  0  0  0  2  0  0  0  0  0  0
  160.6690  210.5390  153.0740 C   0  0  2  0  0  3  0  0  0  0  0  0
  159.9300  211.9080  155.3340 C   0  0  0  0  0  2  0  0  0  0  0  0
  161.4500  202.0710  149.8260 C   0  0  2  0  0  3  0  0  0  0  0  0
  159.2010  201.6940  149.0750 O   0  0  0  0  0  1  0  0  0  0  0  0
  160.8370  200.5780  147.9240 O   0  0  0  0  0  0  0  0  0  0  0  0
  160.4280  201.4470  148.9260 C   0  0  0  0  0  0  0  0  0  0  0  0
  162.3930  201.6980  152.0110 F   0  0  0  0  0  0  0  0  0  0  0  0
  161.2070  201.7690  151.3030 C   0  0  0  0  0  2  0  0  0  0  0  0
  1  7  1  0  0  0  0
  2  3  1  0  0  0  0
  3 12  2  0  0  0  0
  3  4  1  0  0  0  0
  5  8  1  0  0  0  0
  5  9  1  0  0  0  0
  6 10  1  1  0  0  0
  7  8  2  0  0  0  0
  8 14  1  0  0  0  0
  9 24  1  0  0  0  0
  9  6  1  0  0  0  0
 10 12  1  0  0  0  0
 11  5  2  0  0  0  0
 13  1  2  0  0  0  0
 13 11  1  0  0  0  0
 14  2  1  1  0  0  0
 14  6  1  0  0  0  0
 15  1  1  0  0  0  0
 16 15  1  0  0  0  0
 17  4  1  0  0  0  0
 18 23  1  0  0  0  0
 19 20  1  0  0  0  0
 20 23  1  0  0  0  0
 21 18  1  0  0  0  0
 22 17  1  6  0  0  0
 22 21  1  0  0  0  0
 22 19  1  0  0  0  0
 24 29  1  1  0  0  0
 26 27  2  0  0  0  0
 27 25  1  0  0  0  0
 27 24  1  0  0  0  0
 29 28  1  0  0  0  0
M  END
>  <MODEL>
6

>  <REMARK>
 VINA RESULT:      -6.6      2.276      4.317
  Name = 
  6 active torsions:
  status: ('A' for Active; 'I' for Inactive)
    1  A    between atoms: C_1  and  N_15
    2  A    between atoms: C_1  and  C_23
    3  A    between atoms: C_2  and  O_6
    4  A    between atoms: C_5  and  C_12
    5  A    between atoms: C_5  and  N_21
    6  A    between atoms: C_5  and  C_24
                            x       y       z     vdW  Elec       q    Type
                         _______ _______ _______ _____ _____    ______ ____

>  <TORSDO>
F 6

$$$$
=
 OpenBabel11042423123D

 29 32  0  0  1  0  0  0  0  0999 V2000
  161.0540  205.4270  153.2330 C   0  0  0  0  0  0  0  0  0  0  0  0
  161.9990  208.5440  149.8150 C   0  0  0  0  0  2  0  0  0  0  0  0
  161.7820  209.1390  148.4200 C   0  0  0  0  0  0  0  0  0  0  0  0
  161.9490  210.5410  148.2080 N   0  0  0  0  0  2  0  0  0  0  0  0
  161.1900  205.0280  150.4760 C   0  0  0  0  0  0  0  0  0  0  0  0
  161.7660  206.3760  148.7550 C   0  0  1  0  0  3  0  0  0  0  0  0
  161.1670  206.5380  152.3700 C   0  0  0  0  0  3  0  0  0  0  0  0
  161.2730  206.2990  151.0020 C   0  0  0  0  0  0  0  0  0  0  0  0
  161.2910  205.0230  149.0490 N   0  0  0  0  0  0  0  0  0  0  0  0
  161.3030  206.9760  147.5200 N   0  0  0  0  0  2  0  0  0  0  0  0
  161.0760  203.9130  151.3080 C   0  0  0  0  0  3  0  0  0  0  0  0
  161.4510  208.3770  147.4000 N   0  0  0  0  0  0  0  0  0  0  0  0
  161.0120  204.1230  152.6950 C   0  0  0  0  0  3  0  0  0  0  0  0
  161.2330  207.2400  149.8670 C   0  0  1  0  0  3  0  0  0  0  0  0
  160.9730  205.5860  154.6190 O   0  0  0  0  0  0  0  0  0  0  0  0
  160.8580  206.8580  155.2410 C   0  0  0  0  0  1  0  0  0  0  0  0
  162.3170  211.4560  149.2760 C   0  0  0  0  0  2  0  0  0  0  0  0
  160.9690  214.3760  147.3700 O   0  0  0  0  0  0  0  0  0  0  0  0
  160.3590  212.7770  149.6310 O   0  0  0  0  0  0  0  0  0  0  0  0
  159.7900  214.0520  149.4440 C   0  0  0  0  0  2  0  0  0  0  0  0
  161.5380  213.1010  147.5580 C   0  0  0  0  0  2  0  0  0  0  0  0
  161.6480  212.8010  149.0610 C   0  0  2  0  0  3  0  0  0  0  0  0
  159.6820  214.3530  147.9440 C   0  0  0  0  0  2  0  0  0  0  0  0
  161.6350  203.8190  148.2910 C   0  0  2  0  0  3  0  0  0  0  0  0
  160.8890  204.0490  146.0210 O   0  0  0  0  0  0  0  0  0  0  0  0
  163.1200  204.4220  146.3800 O   0  0  0  0  0  1  0  0  0  0  0  0
  161.8490  204.1040  146.8360 C   0  0  0  0  0  0  0  0  0  0  0  0
  161.2470  201.6440  149.2530 F   0  0  0  0  0  0  0  0  0  0  0  0
  160.6590  202.6700  148.5350 C   0  0  0  0  0  2  0  0  0  0  0  0
  1 15  1  0  0  0  0
  3  2  1  0  0  0  0
  4  3  1  0  0  0  0
  4 17  1  0  0  0  0
  5  8  2  0  0  0  0
  5 11  1  0  0  0  0
  6 10  1  6  0  0  0
  6  9  1  0  0  0  0
  6 14  1  0  0  0  0
  7  1  2  0  0  0  0
  8  7  1  0  0  0  0
  9  5  1  0  0  0  0
 11 13  2  0  0  0  0
 12 10  1  0  0  0  0
 12  3  2  0  0  0  0
 13  1  1  0  0  0  0
 14  2  1  1  0  0  0
 14  8  1  0  0  0  0
 15 16  1  0  0  0  0
 18 21  1  0  0  0  0
 18 23  1  0  0  0  0
 20 19  1  0  0  0  0
 21 22  1  0  0  0  0
 22 17  1  6  0  0  0
 22 19  1  0  0  0  0
 23 20  1  0  0  0  0
 24 29  1  6  0  0  0
 24  9  1  0  0  0  0
 25 27  2  0  0  0  0
 26 27  1  0  0  0  0
 27 24  1  0  0  0  0
 29 28  1  0  0  0  0
M  END
>  <MODEL>
7

>  <REMARK>
 VINA RESULT:      -5.9      3.138      4.474
  Name = 
  6 active torsions:
  status: ('A' for Active; 'I' for Inactive)
    1  A    between atoms: C_1  and  N_15
    2  A    between atoms: C_1  and  C_23
    3  A    between atoms: C_2  and  O_6
    4  A    between atoms: C_5  and  C_12
    5  A    between atoms: C_5  and  N_21
    6  A    between atoms: C_5  and  C_24
                            x       y       z     vdW  Elec       q    Type
                         _______ _______ _______ _____ _____    ______ ____

>  <TORSDO>
F 6

$$$$
=
 OpenBabel11042423123D

 29 32  0  0  1  0  0  0  0  0999 V2000
  160.8680  207.8590  155.0910 C   0  0  0  0  0  0  0  0  0  0  0  0
  161.4160  207.7050  150.4040 C   0  0  0  0  0  2  0  0  0  0  0  0
  161.9910  208.2310  149.0850 C   0  0  0  0  0  0  0  0  0  0  0  0
  162.3080  207.3220  148.0310 N   0  0  0  0  0  2  0  0  0  0  0  0
  160.9710  209.9610  153.2610 C   0  0  0  0  0  0  0  0  0  0  0  0
  161.0830  210.0300  151.0050 C   0  0  1  0  0  3  0  0  0  0  0  0
  161.2280  207.6030  153.7510 C   0  0  0  0  0  3  0  0  0  0  0  0
  161.2300  208.6700  152.8560 C   0  0  0  0  0  0  0  0  0  0  0  0
  161.0600  210.8980  152.1830 N   0  0  0  0  0  0  0  0  0  0  0  0
  161.8690  210.4850  149.8750 N   0  0  0  0  0  2  0  0  0  0  0  0
  160.6150  210.2410  154.5820 C   0  0  0  0  0  3  0  0  0  0  0  0
  162.1910  209.5170  148.8960 N   0  0  0  0  0  0  0  0  0  0  0  0
  160.5620  209.1750  155.4960 C   0  0  0  0  0  3  0  0  0  0  0  0
  161.7130  208.7430  151.4650 C   0  0  1  0  0  3  0  0  0  0  0  0
  160.8150  206.8340  156.0400 O   0  0  0  0  0  0  0  0  0  0  0  0
  160.0860  206.9490  157.2540 C   0  0  0  0  0  1  0  0  0  0  0  0
  162.1150  205.8860  148.1520 C   0  0  0  0  0  2  0  0  0  0  0  0
  161.5850  203.1960  145.6100 O   0  0  0  0  0  0  0  0  0  0  0  0
  161.1650  205.9780  145.9630 O   0  0  0  0  0  0  0  0  0  0  0  0
  161.1710  205.3810  144.6870 C   0  0  0  0  0  2  0  0  0  0  0  0
  161.5800  203.7940  146.8850 C   0  0  0  0  0  2  0  0  0  0  0  0
  162.0580  205.2510  146.7750 C   0  0  2  0  0  3  0  0  0  0  0  0
  160.6960  203.9270  144.7960 C   0  0  0  0  0  2  0  0  0  0  0  0
  160.4510  212.2280  152.2480 C   0  0  2  0  0  3  0  0  0  0  0  0
  158.1860  211.4560  152.4420 O   0  0  0  0  0  0  0  0  0  0  0  0
  158.8430  213.0180  153.9830 O   0  0  0  0  0  1  0  0  0  0  0  0
  159.0980  212.2020  152.8900 C   0  0  0  0  0  0  0  0  0  0  0  0
  159.3160  213.7080  150.7230 F   0  0  0  0  0  0  0  0  0  0  0  0
  160.4570  212.9450  150.8990 C   0  0  0  0  0  2  0  0  0  0  0  0
  1 13  1  0  0  0  0
  1 15  1  0  0  0  0
  3  2  1  0  0  0  0
  4 17  1  0  0  0  0
  4  3  1  0  0  0  0
  5 11  1  0  0  0  0
  6 10  1  6  0  0  0
  6 14  1  0  0  0  0
  6  9  1  0  0  0  0
  7  1  2  0  0  0  0
  8  5  2  0  0  0  0
  8  7  1  0  0  0  0
  9 24  1  0  0  0  0
  9  5  1  0  0  0  0
 11 13  2  0  0  0  0
 12  3  2  0  0  0  0
 12 10  1  0  0  0  0
 14  2  1  6  0  0  0
 14  8  1  0  0  0  0
 15 16  1  0  0  0  0
 18 21  1  0  0  0  0
 19 22  1  0  0  0  0
 20 23  1  0  0  0  0
 20 19  1  0  0  0  0
 22 21  1  0  0  0  0
 22 17  1  1  0  0  0
 23 18  1  0  0  0  0
 24 29  1  6  0  0  0
 24 27  1  0  0  0  0
 25 27  2  0  0  0  0
 27 26  1  0  0  0  0
 28 29  1  0  0  0  0
M  END
>  <MODEL>
8

>  <REMARK>
 VINA RESULT:      -5.8      2.953      8.212
  Name = 
  6 active torsions:
  status: ('A' for Active; 'I' for Inactive)
    1  A    between atoms: C_1  and  N_15
    2  A    between atoms: C_1  and  C_23
    3  A    between atoms: C_2  and  O_6
    4  A    between atoms: C_5  and  C_12
    5  A    between atoms: C_5  and  N_21
    6  A    between atoms: C_5  and  C_24
                            x       y       z     vdW  Elec       q    Type
                         _______ _______ _______ _____ _____    ______ ____

>  <TORSDO>
F 6

$$$$
=
 OpenBabel11042423123D

 29 32  0  0  1  0  0  0  0  0999 V2000
  160.8740  202.9020  150.6270 C   0  0  0  0  0  0  0  0  0  0  0  0
  162.1140  207.4440  150.2780 C   0  0  0  0  0  2  0  0  0  0  0  0
  161.9600  208.8540  149.6980 C   0  0  0  0  0  0  0  0  0  0  0  0
  162.2500  209.9940  150.5070 N   0  0  0  0  0  2  0  0  0  0  0  0
  160.9980  204.5230  148.3610 C   0  0  0  0  0  0  0  0  0  0  0  0
  161.7030  206.6440  148.0260 C   0  0  1  0  0  3  0  0  0  0  0  0
  161.0890  204.2890  150.7700 C   0  0  0  0  0  3  0  0  0  0  0  0
  161.1860  205.0610  149.6150 C   0  0  0  0  0  0  0  0  0  0  0  0
  161.1110  205.5040  147.3250 N   0  0  0  0  0  0  0  0  0  0  0  0
  161.3040  207.9640  147.5780 N   0  0  0  0  0  2  0  0  0  0  0  0
  160.7810  203.1540  148.1930 C   0  0  0  0  0  3  0  0  0  0  0  0
  161.5740  209.0390  148.4550 N   0  0  0  0  0  0  0  0  0  0  0  0
  160.7240  202.3450  149.3400 C   0  0  0  0  0  3  0  0  0  0  0  0
  161.2380  206.5260  149.4530 C   0  0  1  0  0  3  0  0  0  0  0  0
  160.7950  202.0580  151.7380 O   0  0  0  0  0  0  0  0  0  0  0  0
  160.2250  202.4670  152.9740 C   0  0  0  0  0  1  0  0  0  0  0  0
  162.6860  209.8820  151.8900 C   0  0  0  0  0  2  0  0  0  0  0  0
  159.3620  210.5860  153.4490 O   0  0  0  0  0  0  0  0  0  0  0  0
  162.1060  210.4140  154.1440 O   0  0  0  0  0  0  0  0  0  0  0  0
  161.1710  211.0850  154.9570 C   0  0  0  0  0  2  0  0  0  0  0  0
  160.2970  209.9160  152.6370 C   0  0  0  0  0  2  0  0  0  0  0  0
  161.6840  210.5570  152.8070 C   0  0  2  0  0  3  0  0  0  0  0  0
  159.7860  210.4470  154.7860 C   0  0  0  0  0  2  0  0  0  0  0  0
  161.3560  205.1440  145.9280 C   0  0  2  0  0  3  0  0  0  0  0  0
  163.2010  205.8310  144.5540 O   0  0  0  0  0  0  0  0  0  0  0  0
  163.7360  204.5460  146.3720 O   0  0  0  0  0  1  0  0  0  0  0  0
  162.8110  205.2020  145.5730 C   0  0  0  0  0  0  0  0  0  0  0  0
  159.1360  205.8280  145.2880 F   0  0  0  0  0  0  0  0  0  0  0  0
  160.4760  205.9250  144.9540 C   0  0  0  0  0  2  0  0  0  0  0  0
  1  7  1  0  0  0  0
  1 15  1  0  0  0  0
  3  2  1  0  0  0  0
  3  4  1  0  0  0  0
  4 17  1  0  0  0  0
  5  8  1  0  0  0  0
  6 10  1  6  0  0  0
  6 14  1  0  0  0  0
  8  7  2  0  0  0  0
  9  6  1  0  0  0  0
  9  5  1  0  0  0  0
 10 12  1  0  0  0  0
 11  5  2  0  0  0  0
 11 13  1  0  0  0  0
 12  3  2  0  0  0  0
 13  1  2  0  0  0  0
 14  8  1  0  0  0  0
 14  2  1  1  0  0  0
 15 16  1  0  0  0  0
 18 23  1  0  0  0  0
 19 20  1  0  0  0  0
 21 22  1  0  0  0  0
 21 18  1  0  0  0  0
 22 17  1  6  0  0  0
 22 19  1  0  0  0  0
 23 20  1  0  0  0  0
 24 29  1  6  0  0  0
 24  9  1  0  0  0  0
 25 27  2  0  0  0  0
 27 24  1  0  0  0  0
 27 26  1  0  0  0  0
 29 28  1  0  0  0  0
M  END
>  <MODEL>
9

>  <REMARK>
 VINA RESULT:      -5.7      1.632      1.906
  Name = 
  6 active torsions:
  status: ('A' for Active; 'I' for Inactive)
    1  A    between atoms: C_1  and  N_15
    2  A    between atoms: C_1  and  C_23
    3  A    between atoms: C_2  and  O_6
    4  A    between atoms: C_5  and  C_12
    5  A    between atoms: C_5  and  N_21
    6  A    between atoms: C_5  and  C_24
                            x       y       z     vdW  Elec       q    Type
                         _______ _______ _______ _____ _____    ______ ____

>  <TORSDO>
F 6

$$$$
