=
 OpenBabel11042421173D

 39 45  0  0  1  0  0  0  0  0999 V2000
  158.9340  212.4400  153.3640 C   0  0  0  0  0  0  0  0  0  0  0  0
  159.2660  213.4910  155.8930 C   0  0  0  0  0  0  0  0  0  0  0  0
  158.2090  213.5440  153.7410 C   0  0  0  0  0  0  0  0  0  0  0  0
  160.0720  212.4180  155.4610 C   0  0  0  0  0  3  0  0  0  0  0  0
  160.8840  211.3450  151.0190 C   0  0  0  0  0  2  0  0  0  0  0  0
  160.0410  212.5940  151.2340 C   0  0  2  0  0  3  0  0  0  0  0  0
  160.9500  210.8380  153.6390 C   0  0  2  0  0  3  0  0  0  0  0  0
  157.9720  213.4580  151.5840 C   0  0  2  0  0  3  0  0  0  0  0  0
  159.4450  214.0430  157.2610 C   0  0  0  0  0  1  0  0  0  0  0  0
  160.6920  214.3400  149.7940 C   0  0  0  0  0  1  0  0  0  0  0  0
  159.9350  211.8770  154.1670 C   0  0  0  0  0  0  0  0  0  0  0  0
  157.6660  214.2050  152.6030 N   0  0  0  0  0  2  0  0  0  0  0  0
  160.7610  210.3150  152.1720 C   0  0  2  0  0  3  0  0  0  0  0  0
  158.7490  212.2620  151.9270 C   0  0  2  0  0  3  0  0  0  0  0  0
  159.6730  213.3280  150.0130 N   0  0  0  0  0  0  0  0  0  0  0  0
  158.4970  214.0090  150.3910 N   0  0  0  0  0  2  0  0  0  0  0  0
  158.3640  214.1040  155.0070 C   0  0  0  0  0  3  0  0  0  0  0  0
  161.6290  209.0930  151.8530 C   0  0  0  0  0  2  0  0  0  0  0  0
  162.6520  208.2600  149.8520 O   0  0  0  0  0  0  0  0  0  0  0  0
  160.4970  207.3310  150.4610 C   0  0  0  0  0  2  0  0  0  0  0  0
  162.4050  208.1070  148.4750 C   0  0  0  0  0  2  0  0  0  0  0  0
  161.4120  208.5670  150.4400 C   0  0  1  0  0  3  0  0  0  0  0  0
  160.9680  206.2630  149.4700 C   0  0  0  0  0  2  0  0  0  0  0  0
  161.5080  206.8910  148.1830 C   0  0  2  0  0  3  0  0  0  0  0  0
  162.8510  205.0980  146.8220 N   0  0  0  0  0  0  0  0  0  0  0  0
  162.2580  205.8900  147.4230 C   0  0  0  0  0  0  0  0  0  0  0  0
  161.1680  209.7030  154.5660 N   0  0  0  0  0  0  0  0  0  0  0  0
  161.0290  209.3350  156.9240 O   0  0  0  0  0  0  0  0  0  0  0  0
  161.5170  210.1850  155.9110 C   0  0  2  0  0  0  0  0  0  0  0  0
  163.0020  210.4280  156.0930 C   0  0  0  0  0  2  0  0  0  0  0  0
  162.3680  209.1380  156.5490 C   0  0  1  0  0  3  0  0  0  0  0  0
  159.9760  208.8510  154.6260 C   0  0  0  0  0  2  0  0  0  0  0  0
  160.2960  206.7660  155.7300 O   0  0  0  0  0  1  0  0  0  0  0  0
  160.3640  207.3910  154.4840 C   0  0  2  0  0  3  0  0  0  0  0  0
  161.7800  207.3060  153.9400 C   0  0  0  0  0  2  0  0  0  0  0  0
  162.0980  205.8980  153.4630 C   0  0  2  0  0  3  0  0  0  0  0  0
  162.9740  205.9510  152.3770 O   0  0  0  0  0  1  0  0  0  0  0  0
  160.8720  204.1730  152.4290 O   0  0  0  0  0  0  0  0  0  0  0  0
  160.8350  205.2220  153.0500 C   0  0  0  0  0  3  0  0  0  0  0  0
  1  3  2  0  0  0  0
  1 11  1  0  0  0  0
  2  9  1  0  0  0  0
  3 17  1  0  0  0  0
  4  2  1  0  0  0  0
  5 13  1  0  0  0  0
  6  5  1  6  0  0  0
  6 14  1  0  0  0  0
  7 11  1  0  0  0  0
  7 27  1  1  0  0  0
  8 16  1  6  0  0  0
  8 14  1  0  0  0  0
  8 12  1  0  0  0  0
 10 15  1  0  0  0  0
 11  4  2  0  0  0  0
 12  3  1  0  0  0  0
 13 18  1  6  0  0  0
 13  7  1  0  0  0  0
 14  1  1  1  0  0  0
 15 16  1  0  0  0  0
 15  6  1  0  0  0  0
 17  2  2  0  0  0  0
 19 22  1  0  0  0  0
 21 19  1  0  0  0  0
 22 20  1  0  0  0  0
 22 18  1  1  0  0  0
 23 20  1  0  0  0  0
 24 26  1  1  0  0  0
 24 21  1  0  0  0  0
 24 23  1  0  0  0  0
 25 26  3  0  0  0  0
 27 32  1  0  0  0  0
 29 27  1  6  0  0  0
 29 30  1  0  0  0  0
 29 31  1  0  0  0  0
 29 28  1  0  0  0  0
 31 30  1  1  0  0  0
 31 28  1  0  0  0  0
 34 32  1  0  0  0  0
 34 33  1  1  0  0  0
 35 34  1  0  0  0  0
 36 37  1  6  0  0  0
 36 35  1  0  0  0  0
 38 39  2  0  0  0  0
 39 36  1  0  0  0  0
M  END
>  <MODEL>
1

>  <REMARK>
 VINA RESULT:      -5.1      0.000      0.000
  Name = 
  10 active torsions:
  status: ('A' for Active; 'I' for Inactive)
    1  A    between atoms: C_1  and  C_13
    2  A    between atoms: C_1  and  C_33
    3  A    between atoms: C_6  and  N_11
    4  A    between atoms: C_8  and  C_17
    5  A    between atoms: C_8  and  C_37
    6  A    between atoms: N_11  and  C_14
    7  A    between atoms: N_11  and  C_19
    8  A    between atoms: C_14  and  C_37
    9  A    between atoms: C_17  and  C_32
   10  A    between atoms: C_23  and  C_35
                            x       y       z     vdW  Elec       q    Type
                         _______ _______ _______ _____ _____    ______ ____

>  <TORSDO>
F 10

$$$$
=
 OpenBabel11042421173D

 39 45  0  0  1  0  0  0  0  0999 V2000
  161.2600  211.0400  155.0600 C   0  0  0  0  0  0  0  0  0  0  0  0
  159.7060  213.2540  155.5980 C   0  0  0  0  0  0  0  0  0  0  0  0
  161.3040  211.6130  156.3070 C   0  0  0  0  0  0  0  0  0  0  0  0
  159.5990  212.6000  154.3530 C   0  0  0  0  0  3  0  0  0  0  0  0
  160.8280  208.1930  153.5730 C   0  0  0  0  0  2  0  0  0  0  0  0
  160.9680  208.6520  155.0170 C   0  0  2  0  0  3  0  0  0  0  0  0
  160.1010  210.6350  152.7800 C   0  0  2  0  0  3  0  0  0  0  0  0
  162.2620  209.6820  156.5710 C   0  0  2  0  0  3  0  0  0  0  0  0
  158.8730  214.4530  155.8740 C   0  0  0  0  0  1  0  0  0  0  0  0
  160.1890  207.0200  156.5260 C   0  0  0  0  0  1  0  0  0  0  0  0
  160.3670  211.4550  154.0630 C   0  0  0  0  0  0  0  0  0  0  0  0
  161.8790  210.7190  157.2550 N   0  0  0  0  0  2  0  0  0  0  0  0
  160.9640  209.3460  152.5450 C   0  0  2  0  0  3  0  0  0  0  0  0
  161.9700  209.7660  155.1360 C   0  0  2  0  0  3  0  0  0  0  0  0
  161.3920  207.6170  155.9720 N   0  0  0  0  0  0  0  0  0  0  0  0
  161.9910  208.3630  157.0080 N   0  0  0  0  0  2  0  0  0  0  0  0
  160.5220  212.7240  156.6110 C   0  0  0  0  0  3  0  0  0  0  0  0
  160.8260  208.7810  151.1280 C   0  0  0  0  0  2  0  0  0  0  0  0
  160.5230  206.4520  151.6040 O   0  0  0  0  0  0  0  0  0  0  0  0
  161.6190  207.0200  149.5170 C   0  0  0  0  0  2  0  0  0  0  0  0
  161.2520  205.2550  151.7390 C   0  0  0  0  0  2  0  0  0  0  0  0
  161.3950  207.3730  150.9960 C   0  0  1  0  0  3  0  0  0  0  0  0
  161.2300  205.5690  149.2180 C   0  0  0  0  0  2  0  0  0  0  0  0
  161.6050  204.6380  150.3740 C   0  0  2  0  0  3  0  0  0  0  0  0
  160.3770  202.3400  150.0900 N   0  0  0  0  0  0  0  0  0  0  0  0
  160.9190  203.3550  150.2150 C   0  0  0  0  0  0  0  0  0  0  0  0
  160.0640  211.4610  151.5500 N   0  0  0  0  0  0  0  0  0  0  0  0
  159.9400  213.7990  151.0650 O   0  0  0  0  0  0  0  0  0  0  0  0
  159.3710  212.7350  151.7950 C   0  0  2  0  0  0  0  0  0  0  0  0
  157.8780  212.6610  151.5470 C   0  0  0  0  0  2  0  0  0  0  0  0
  158.8120  213.1920  150.4890 C   0  0  1  0  0  3  0  0  0  0  0  0
  161.4230  211.7100  151.0570 C   0  0  0  0  0  2  0  0  0  0  0  0
  162.2890  210.3960  149.2700 O   0  0  0  0  0  1  0  0  0  0  0  0
  161.4860  211.5010  149.5550 C   0  0  2  0  0  3  0  0  0  0  0  0
  162.0700  212.7450  148.9070 C   0  0  0  0  0  2  0  0  0  0  0  0
  161.2780  213.1400  147.6710 C   0  0  2  0  0  3  0  0  0  0  0  0
  160.3700  212.1290  147.3470 O   0  0  0  0  0  1  0  0  0  0  0  0
  161.8980  213.0200  145.4010 O   0  0  0  0  0  0  0  0  0  0  0  0
  162.2170  213.3480  146.5310 C   0  0  0  0  0  3  0  0  0  0  0  0
  1  3  1  0  0  0  0
  2  9  1  0  0  0  0
  2 17  1  0  0  0  0
  3 17  2  0  0  0  0
  3 12  1  0  0  0  0
  4  2  2  0  0  0  0
  6  5  1  6  0  0  0
  6 14  1  0  0  0  0
  6 15  1  0  0  0  0
  7 27  1  6  0  0  0
  7 11  1  0  0  0  0
  8 16  1  1  0  0  0
  8 12  1  0  0  0  0
 11  4  1  0  0  0  0
 11  1  2  0  0  0  0
 13 18  1  6  0  0  0
 13  7  1  0  0  0  0
 13  5  1  0  0  0  0
 14  1  1  1  0  0  0
 14  8  1  0  0  0  0
 15 10  1  0  0  0  0
 15 16  1  0  0  0  0
 19 21  1  0  0  0  0
 20 22  1  0  0  0  0
 22 18  1  6  0  0  0
 22 19  1  0  0  0  0
 23 20  1  0  0  0  0
 23 24  1  0  0  0  0
 24 26  1  6  0  0  0
 24 21  1  0  0  0  0
 25 26  3  0  0  0  0
 28 29  1  0  0  0  0
 29 27  1  6  0  0  0
 30 29  1  0  0  0  0
 31 28  1  0  0  0  0
 31 30  1  1  0  0  0
 31 29  1  0  0  0  0
 32 27  1  0  0  0  0
 34 33  1  1  0  0  0
 34 32  1  0  0  0  0
 35 34  1  0  0  0  0
 36 37  1  6  0  0  0
 36 35  1  0  0  0  0
 38 39  2  0  0  0  0
 39 36  1  0  0  0  0
M  END
>  <MODEL>
2

>  <REMARK>
 VINA RESULT:      -4.8      2.492      5.916
  Name = 
  10 active torsions:
  status: ('A' for Active; 'I' for Inactive)
    1  A    between atoms: C_1  and  C_13
    2  A    between atoms: C_1  and  C_33
    3  A    between atoms: C_6  and  N_11
    4  A    between atoms: C_8  and  C_17
    5  A    between atoms: C_8  and  C_37
    6  A    between atoms: N_11  and  C_14
    7  A    between atoms: N_11  and  C_19
    8  A    between atoms: C_14  and  C_37
    9  A    between atoms: C_17  and  C_32
   10  A    between atoms: C_23  and  C_35
                            x       y       z     vdW  Elec       q    Type
                         _______ _______ _______ _____ _____    ______ ____

>  <TORSDO>
F 10

$$$$
=
 OpenBabel11042421173D

 39 45  0  0  1  0  0  0  0  0999 V2000
  161.7800  207.3320  152.4770 C   0  0  0  0  0  0  0  0  0  0  0  0
  160.2590  206.9990  154.7540 C   0  0  0  0  0  0  0  0  0  0  0  0
  161.6160  206.0750  153.0060 C   0  0  0  0  0  0  0  0  0  0  0  0
  160.3570  208.2690  154.1480 C   0  0  0  0  0  3  0  0  0  0  0  0
  161.5020  208.9920  149.7080 C   0  0  0  0  0  2  0  0  0  0  0  0
  161.3880  207.5290  150.1120 C   0  0  2  0  0  3  0  0  0  0  0  0
  161.0530  209.8030  152.2120 C   0  0  2  0  0  3  0  0  0  0  0  0
  162.4140  205.7190  151.0180 C   0  0  2  0  0  3  0  0  0  0  0  0
  159.4470  206.8330  155.9870 C   0  0  0  0  0  1  0  0  0  0  0  0
  160.2620  206.2630  148.4770 C   0  0  0  0  0  1  0  0  0  0  0  0
  161.1120  208.4590  152.9730 C   0  0  0  0  0  0  0  0  0  0  0  0
  161.9580  205.0750  152.0520 N   0  0  0  0  0  2  0  0  0  0  0  0
  161.8830  209.9260  150.8860 C   0  0  2  0  0  3  0  0  0  0  0  0
  162.4020  207.1780  151.1650 C   0  0  2  0  0  3  0  0  0  0  0  0
  161.5760  206.5560  149.0240 N   0  0  0  0  0  0  0  0  0  0  0  0
  162.0030  205.3960  149.7030 N   0  0  0  0  0  2  0  0  0  0  0  0
  160.8440  205.8750  154.1480 C   0  0  0  0  0  3  0  0  0  0  0  0
  161.9880  211.3670  150.3750 C   0  0  0  0  0  2  0  0  0  0  0  0
  160.7040  212.1640  148.5150 O   0  0  0  0  0  0  0  0  0  0  0  0
  163.1160  212.1580  148.2710 C   0  0  0  0  0  2  0  0  0  0  0  0
  160.4960  211.9290  147.1430 C   0  0  0  0  0  2  0  0  0  0  0  0
  161.8750  211.4660  148.8590 C   0  0  1  0  0  3  0  0  0  0  0  0
  162.7430  213.1140  147.1340 C   0  0  0  0  0  2  0  0  0  0  0  0
  161.6060  212.5510  146.2780 C   0  0  2  0  0  3  0  0  0  0  0  0
  160.6050  214.4530  144.7780 N   0  0  0  0  0  0  0  0  0  0  0  0
  161.0480  213.6130  145.4410 C   0  0  0  0  0  0  0  0  0  0  0  0
  161.2880  210.9820  153.0780 N   0  0  0  0  0  0  0  0  0  0  0  0
  160.1140  213.0610  153.2020 O   0  0  0  0  0  0  0  0  0  0  0  0
  160.0230  211.6660  153.3860 C   0  0  2  0  0  0  0  0  0  0  0  0
  158.8400  211.1070  152.6210 C   0  0  0  0  0  2  0  0  0  0  0  0
  159.5660  212.3350  152.1320 C   0  0  1  0  0  3  0  0  0  0  0  0
  161.9640  210.5830  154.3170 C   0  0  0  0  0  2  0  0  0  0  0  0
  162.3910  211.7520  156.3480 O   0  0  0  0  0  1  0  0  0  0  0  0
  161.3680  211.3180  155.5030 C   0  0  2  0  0  3  0  0  0  0  0  0
  160.4420  210.3750  156.2550 C   0  0  0  0  0  2  0  0  0  0  0  0
  159.2260  211.1140  156.7880 C   0  0  2  0  0  3  0  0  0  0  0  0
  158.0940  210.7590  156.0510 O   0  0  0  0  0  1  0  0  0  0  0  0
  158.5140  213.3590  156.7280 O   0  0  0  0  0  0  0  0  0  0  0  0
  159.4530  212.5830  156.6720 C   0  0  0  0  0  3  0  0  0  0  0  0
  1 11  2  0  0  0  0
  1  3  1  0  0  0  0
  2  9  1  0  0  0  0
  3 17  2  0  0  0  0
  4  2  2  0  0  0  0
  5 13  1  0  0  0  0
  6  5  1  6  0  0  0
  6 14  1  0  0  0  0
  7 11  1  0  0  0  0
  7 27  1  1  0  0  0
  8 16  1  6  0  0  0
  8 14  1  0  0  0  0
  8 12  1  0  0  0  0
 10 15  1  0  0  0  0
 11  4  1  0  0  0  0
 12  3  1  0  0  0  0
 13 18  1  6  0  0  0
 13  7  1  0  0  0  0
 14  1  1  1  0  0  0
 15 16  1  0  0  0  0
 15  6  1  0  0  0  0
 17  2  1  0  0  0  0
 19 22  1  0  0  0  0
 20 22  1  0  0  0  0
 21 19  1  0  0  0  0
 22 18  1  1  0  0  0
 23 20  1  0  0  0  0
 24 26  1  1  0  0  0
 24 23  1  0  0  0  0
 24 21  1  0  0  0  0
 25 26  3  0  0  0  0
 27 32  1  0  0  0  0
 28 29  1  0  0  0  0
 29 27  1  6  0  0  0
 30 29  1  0  0  0  0
 31 30  1  1  0  0  0
 31 28  1  0  0  0  0
 31 29  1  0  0  0  0
 32 34  1  0  0  0  0
 34 35  1  0  0  0  0
 34 33  1  1  0  0  0
 35 36  1  0  0  0  0
 36 37  1  6  0  0  0
 39 38  2  0  0  0  0
 39 36  1  0  0  0  0
M  END
>  <MODEL>
3

>  <REMARK>
 VINA RESULT:      -4.5      2.828      6.388
  Name = 
  10 active torsions:
  status: ('A' for Active; 'I' for Inactive)
    1  A    between atoms: C_1  and  C_13
    2  A    between atoms: C_1  and  C_33
    3  A    between atoms: C_6  and  N_11
    4  A    between atoms: C_8  and  C_17
    5  A    between atoms: C_8  and  C_37
    6  A    between atoms: N_11  and  C_14
    7  A    between atoms: N_11  and  C_19
    8  A    between atoms: C_14  and  C_37
    9  A    between atoms: C_17  and  C_32
   10  A    between atoms: C_23  and  C_35
                            x       y       z     vdW  Elec       q    Type
                         _______ _______ _______ _____ _____    ______ ____

>  <TORSDO>
F 10

$$$$
=
 OpenBabel11042421173D

 39 45  0  0  1  0  0  0  0  0999 V2000
  161.3240  211.3320  150.8380 C   0  0  0  0  0  0  0  0  0  0  0  0
  161.9280  208.7860  149.9640 C   0  0  0  0  0  0  0  0  0  0  0  0
  161.7070  211.1350  149.5340 C   0  0  0  0  0  0  0  0  0  0  0  0
  161.4420  208.9880  151.2730 C   0  0  0  0  0  3  0  0  0  0  0  0
  158.9940  212.6880  152.6370 C   0  0  0  0  0  2  0  0  0  0  0  0
  159.3430  212.6600  151.1560 C   0  0  2  0  0  3  0  0  0  0  0  0
  160.3940  210.4620  153.0940 C   0  0  2  0  0  3  0  0  0  0  0  0
  160.8740  213.1400  149.5510 C   0  0  2  0  0  3  0  0  0  0  0  0
  162.2610  207.4120  149.5060 C   0  0  0  0  0  1  0  0  0  0  0  0
  157.5150  213.3090  149.8210 C   0  0  0  0  0  1  0  0  0  0  0  0
  161.1070  210.2770  151.7350 C   0  0  0  0  0  0  0  0  0  0  0  0
  161.3580  212.2560  148.7300 N   0  0  0  0  0  2  0  0  0  0  0  0
  160.0100  211.9220  153.5220 C   0  0  2  0  0  3  0  0  0  0  0  0
  160.8310  212.7020  150.9500 C   0  0  2  0  0  3  0  0  0  0  0  0
  158.7880  213.7620  150.3540 N   0  0  0  0  0  0  0  0  0  0  0  0
  159.6800  213.8440  149.2640 N   0  0  0  0  0  2  0  0  0  0  0  0
  162.0070  209.8600  149.0620 C   0  0  0  0  0  3  0  0  0  0  0  0
  159.5810  212.0240  154.9900 C   0  0  0  0  0  2  0  0  0  0  0  0
  157.4980  210.8440  155.0840 O   0  0  0  0  0  0  0  0  0  0  0  0
  157.7220  212.8040  156.4920 C   0  0  0  0  0  2  0  0  0  0  0  0
  156.1150  211.0410  154.9110 C   0  0  0  0  0  2  0  0  0  0  0  0
  158.0700  212.1260  155.1570 C   0  0  1  0  0  3  0  0  0  0  0  0
  156.5200  212.1370  157.1670 C   0  0  0  0  0  2  0  0  0  0  0  0
  155.4700  211.7030  156.1420 C   0  0  2  0  0  3  0  0  0  0  0  0
  153.7770  210.0430  157.2600 N   0  0  0  0  0  0  0  0  0  0  0  0
  154.5250  210.7760  156.7660 C   0  0  0  0  0  0  0  0  0  0  0  0
  161.0640  209.7570  154.2120 N   0  0  0  0  0  0  0  0  0  0  0  0
  161.3100  210.4790  156.4780 O   0  0  0  0  0  0  0  0  0  0  0  0
  161.6840  210.7160  155.1390 C   0  0  2  0  0  0  0  0  0  0  0  0
  163.1940  210.7770  155.0140 C   0  0  0  0  0  2  0  0  0  0  0  0
  162.5400  209.9320  156.0780 C   0  0  1  0  0  3  0  0  0  0  0  0
  160.1090  208.9040  154.9280 C   0  0  0  0  0  2  0  0  0  0  0  0
  161.6100  207.1940  155.6280 O   0  0  0  0  0  1  0  0  0  0  0  0
  160.5110  207.4460  154.8060 C   0  0  2  0  0  3  0  0  0  0  0  0
  160.8680  207.1500  153.3590 C   0  0  0  0  0  2  0  0  0  0  0  0
  161.5960  205.8220  153.2370 C   0  0  2  0  0  3  0  0  0  0  0  0
  162.8180  206.0090  152.5870 O   0  0  0  0  0  1  0  0  0  0  0  0
  160.9980  203.6760  152.4720 O   0  0  0  0  0  0  0  0  0  0  0  0
  160.7570  204.8710  152.4530 C   0  0  0  0  0  3  0  0  0  0  0  0
  1 11  1  0  0  0  0
  2  4  1  0  0  0  0
  3  1  2  0  0  0  0
  4 11  2  0  0  0  0
  5 13  1  0  0  0  0
  6  5  1  1  0  0  0
  7 13  1  0  0  0  0
  7 27  1  1  0  0  0
  8 12  1  6  0  0  0
  8 14  1  0  0  0  0
  9  2  1  0  0  0  0
 10 15  1  0  0  0  0
 11  7  1  0  0  0  0
 12  3  1  0  0  0  0
 13 18  1  1  0  0  0
 14  1  1  6  0  0  0
 14  6  1  0  0  0  0
 15  6  1  0  0  0  0
 16  8  1  0  0  0  0
 16 15  1  0  0  0  0
 17  3  1  0  0  0  0
 17  2  2  0  0  0  0
 19 22  1  0  0  0  0
 20 23  1  0  0  0  0
 21 19  1  0  0  0  0
 21 24  1  0  0  0  0
 22 18  1  1  0  0  0
 22 20  1  0  0  0  0
 24 26  1  1  0  0  0
 24 23  1  0  0  0  0
 26 25  3  0  0  0  0
 27 32  1  0  0  0  0
 29 27  1  6  0  0  0
 29 31  1  0  0  0  0
 29 28  1  0  0  0  0
 30 29  1  0  0  0  0
 31 30  1  1  0  0  0
 31 28  1  0  0  0  0
 34 32  1  0  0  0  0
 34 33  1  1  0  0  0
 35 34  1  0  0  0  0
 36 37  1  6  0  0  0
 36 35  1  0  0  0  0
 39 38  2  0  0  0  0
 39 36  1  0  0  0  0
M  END
>  <MODEL>
4

>  <REMARK>
 VINA RESULT:      -4.3      2.149      5.858
  Name = 
  10 active torsions:
  status: ('A' for Active; 'I' for Inactive)
    1  A    between atoms: C_1  and  C_13
    2  A    between atoms: C_1  and  C_33
    3  A    between atoms: C_6  and  N_11
    4  A    between atoms: C_8  and  C_17
    5  A    between atoms: C_8  and  C_37
    6  A    between atoms: N_11  and  C_14
    7  A    between atoms: N_11  and  C_19
    8  A    between atoms: C_14  and  C_37
    9  A    between atoms: C_17  and  C_32
   10  A    between atoms: C_23  and  C_35
                            x       y       z     vdW  Elec       q    Type
                         _______ _______ _______ _____ _____    ______ ____

>  <TORSDO>
F 10

$$$$
=
 OpenBabel11042421173D

 39 45  0  0  1  0  0  0  0  0999 V2000
  161.8650  209.8830  150.2530 C   0  0  0  0  0  0  0  0  0  0  0  0
  161.3830  207.4050  149.1420 C   0  0  0  0  0  0  0  0  0  0  0  0
  162.0810  209.6880  148.9110 C   0  0  0  0  0  0  0  0  0  0  0  0
  161.0750  207.6440  150.4970 C   0  0  0  0  0  3  0  0  0  0  0  0
  160.3390  211.8420  152.3350 C   0  0  0  0  0  2  0  0  0  0  0  0
  160.5810  211.8330  150.8320 C   0  0  2  0  0  3  0  0  0  0  0  0
  160.7740  209.2140  152.5050 C   0  0  2  0  0  3  0  0  0  0  0  0
  162.1020  211.8460  149.1480 C   0  0  2  0  0  3  0  0  0  0  0  0
  161.1300  206.0630  148.5550 C   0  0  0  0  0  1  0  0  0  0  0  0
  159.0940  213.2700  149.7050 C   0  0  0  0  0  1  0  0  0  0  0  0
  161.2940  208.9080  151.0820 C   0  0  0  0  0  0  0  0  0  0  0  0
  162.1630  210.9330  148.2250 N   0  0  0  0  0  2  0  0  0  0  0  0
  161.0130  210.6570  153.0730 C   0  0  2  0  0  3  0  0  0  0  0  0
  161.9550  211.3180  150.5090 C   0  0  2  0  0  3  0  0  0  0  0  0
  160.4660  213.1390  150.1650 N   0  0  0  0  0  0  0  0  0  0  0  0
  161.2680  212.9820  149.0150 N   0  0  0  0  0  2  0  0  0  0  0  0
  161.8350  208.4510  148.3200 C   0  0  0  0  0  3  0  0  0  0  0  0
  160.7260  210.7660  154.5740 C   0  0  0  0  0  2  0  0  0  0  0  0
  158.3620  211.0910  154.7910 O   0  0  0  0  0  0  0  0  0  0  0  0
  159.7910  212.3460  156.2930 C   0  0  0  0  0  2  0  0  0  0  0  0
  157.3850  212.1040  154.7630 C   0  0  0  0  0  2  0  0  0  0  0  0
  159.6020  211.7460  154.8900 C   0  0  1  0  0  3  0  0  0  0  0  0
  158.4590  212.4770  157.0350 C   0  0  0  0  0  2  0  0  0  0  0  0
  157.3260  212.8830  156.0890 C   0  0  2  0  0  3  0  0  0  0  0  0
  155.0140  212.4820  157.2560 N   0  0  0  0  0  0  0  0  0  0  0  0
  156.0350  212.6590  156.7410 C   0  0  0  0  0  0  0  0  0  0  0  0
  161.1650  208.1950  153.5070 N   0  0  0  0  0  0  0  0  0  0  0  0
  159.5810  207.7270  155.2360 O   0  0  0  0  0  0  0  0  0  0  0  0
  160.6550  208.5500  154.8400 C   0  0  2  0  0  0  0  0  0  0  0  0
  161.7320  208.5650  155.9070 C   0  0  0  0  0  2  0  0  0  0  0  0
  160.8480  207.3590  155.7190 C   0  0  1  0  0  3  0  0  0  0  0  0
  160.6720  206.8710  153.1130 C   0  0  0  0  0  2  0  0  0  0  0  0
  162.7640  206.0590  152.3150 O   0  0  0  0  0  1  0  0  0  0  0  0
  161.7690  205.8330  153.2670 C   0  0  2  0  0  3  0  0  0  0  0  0
  161.1700  204.4490  153.0720 C   0  0  0  0  0  2  0  0  0  0  0  0
  161.3260  203.9860  151.6330 C   0  0  2  0  0  3  0  0  0  0  0  0
  160.1200  204.1520  150.9480 O   0  0  0  0  0  1  0  0  0  0  0  0
  161.1590  201.7670  150.8590 O   0  0  0  0  0  0  0  0  0  0  0  0
  161.7110  202.5460  151.6190 C   0  0  0  0  0  3  0  0  0  0  0  0
  1 11  1  0  0  0  0
  2  4  1  0  0  0  0
  3  1  2  0  0  0  0
  4 11  2  0  0  0  0
  5 13  1  0  0  0  0
  6  5  1  1  0  0  0
  7 13  1  0  0  0  0
  7 27  1  1  0  0  0
  8 12  1  6  0  0  0
  8 14  1  0  0  0  0
  9  2  1  0  0  0  0
 10 15  1  0  0  0  0
 11  7  1  0  0  0  0
 12  3  1  0  0  0  0
 13 18  1  1  0  0  0
 14  1  1  6  0  0  0
 14  6  1  0  0  0  0
 15  6  1  0  0  0  0
 16  8  1  0  0  0  0
 16 15  1  0  0  0  0
 17  3  1  0  0  0  0
 17  2  2  0  0  0  0
 19 22  1  0  0  0  0
 20 23  1  0  0  0  0
 21 19  1  0  0  0  0
 21 24  1  0  0  0  0
 22 18  1  1  0  0  0
 22 20  1  0  0  0  0
 24 26  1  1  0  0  0
 24 23  1  0  0  0  0
 26 25  3  0  0  0  0
 28 31  1  0  0  0  0
 29 27  1  6  0  0  0
 29 28  1  0  0  0  0
 29 31  1  0  0  0  0
 29 30  1  0  0  0  0
 31 30  1  1  0  0  0
 32 34  1  0  0  0  0
 32 27  1  0  0  0  0
 34 33  1  6  0  0  0
 35 34  1  0  0  0  0
 36 37  1  6  0  0  0
 36 35  1  0  0  0  0
 38 39  2  0  0  0  0
 39 36  1  0  0  0  0
M  END
>  <MODEL>
5

>  <REMARK>
 VINA RESULT:      -4.3      1.949      6.269
  Name = 
  10 active torsions:
  status: ('A' for Active; 'I' for Inactive)
    1  A    between atoms: C_1  and  C_13
    2  A    between atoms: C_1  and  C_33
    3  A    between atoms: C_6  and  N_11
    4  A    between atoms: C_8  and  C_17
    5  A    between atoms: C_8  and  C_37
    6  A    between atoms: N_11  and  C_14
    7  A    between atoms: N_11  and  C_19
    8  A    between atoms: C_14  and  C_37
    9  A    between atoms: C_17  and  C_32
   10  A    between atoms: C_23  and  C_35
                            x       y       z     vdW  Elec       q    Type
                         _______ _______ _______ _____ _____    ______ ____

>  <TORSDO>
F 10

$$$$
=
 OpenBabel11042421173D

 39 45  0  0  1  0  0  0  0  0999 V2000
  160.4870  209.6770  152.0850 C   0  0  0  0  0  0  0  0  0  0  0  0
  161.9580  209.2430  149.7920 C   0  0  0  0  0  0  0  0  0  0  0  0
  160.9760  208.4210  151.8200 C   0  0  0  0  0  0  0  0  0  0  0  0
  161.5320  210.5460  150.1230 C   0  0  0  0  0  3  0  0  0  0  0  0
  160.3930  211.9420  154.4010 C   0  0  0  0  0  2  0  0  0  0  0  0
  160.8940  210.5080  154.3060 C   0  0  2  0  0  3  0  0  0  0  0  0
  160.5070  212.2450  151.7520 C   0  0  2  0  0  3  0  0  0  0  0  0
  160.3810  208.3340  153.9060 C   0  0  2  0  0  3  0  0  0  0  0  0
  162.7390  209.0180  148.5480 C   0  0  0  0  0  1  0  0  0  0  0  0
  162.3860  209.9930  156.0530 C   0  0  0  0  0  1  0  0  0  0  0  0
  160.7970  210.7960  151.3000 C   0  0  0  0  0  0  0  0  0  0  0  0
  160.9600  207.6130  152.9920 N   0  0  0  0  0  2  0  0  0  0  0  0
  159.7240  212.4470  153.0960 C   0  0  2  0  0  3  0  0  0  0  0  0
  159.9810  209.6710  153.4550 C   0  0  2  0  0  3  0  0  0  0  0  0
  161.0240  209.7970  155.5870 N   0  0  0  0  0  0  0  0  0  0  0  0
  160.9120  208.4410  155.2140 N   0  0  0  0  0  2  0  0  0  0  0  0
  161.7310  208.1750  150.6760 C   0  0  0  0  0  3  0  0  0  0  0  0
  159.2410  213.8870  153.3000 C   0  0  0  0  0  2  0  0  0  0  0  0
  157.2190  212.7930  153.9770 O   0  0  0  0  0  0  0  0  0  0  0  0
  158.3180  214.1980  155.6180 C   0  0  0  0  0  2  0  0  0  0  0  0
  155.9400  213.0710  154.4950 C   0  0  0  0  0  2  0  0  0  0  0  0
  157.9710  213.9700  154.1380 C   0  0  1  0  0  3  0  0  0  0  0  0
  157.4100  213.3830  156.5430 C   0  0  0  0  0  2  0  0  0  0  0  0
  155.9760  213.3250  156.0120 C   0  0  2  0  0  3  0  0  0  0  0  0
  154.6480  211.4410  157.2610 N   0  0  0  0  0  0  0  0  0  0  0  0
  155.2350  212.2730  156.7090 C   0  0  0  0  0  0  0  0  0  0  0  0
  159.9220  213.0890  150.6830 N   0  0  0  0  0  0  0  0  0  0  0  0
  160.1380  212.9240  148.3080 O   0  0  0  0  0  0  0  0  0  0  0  0
  160.8190  213.1580  149.5200 C   0  0  2  0  0  0  0  0  0  0  0  0
  161.6030  214.4530  149.4450 C   0  0  0  0  0  2  0  0  0  0  0  0
  160.3340  214.2710  148.6520 C   0  0  1  0  0  3  0  0  0  0  0  0
  158.6090  212.5730  150.2820 C   0  0  0  0  0  2  0  0  0  0  0  0
  156.9790  214.1170  151.0770 O   0  0  0  0  0  1  0  0  0  0  0  0
  157.6760  213.7190  149.9350 C   0  0  2  0  0  3  0  0  0  0  0  0
  156.6980  213.2540  148.8680 C   0  0  0  0  0  2  0  0  0  0  0  0
  157.0730  213.8090  147.5040 C   0  0  2  0  0  3  0  0  0  0  0  0
  155.9630  214.4230  146.9200 O   0  0  0  0  0  1  0  0  0  0  0  0
  156.7550  211.8500  146.2350 O   0  0  0  0  0  0  0  0  0  0  0  0
  157.5410  212.6940  146.6320 C   0  0  0  0  0  3  0  0  0  0  0  0
  2  4  2  0  0  0  0
  2 17  1  0  0  0  0
  3  1  1  0  0  0  0
  3 12  1  0  0  0  0
  4 11  1  0  0  0  0
  6  5  1  1  0  0  0
  6 15  1  0  0  0  0
  7 27  1  6  0  0  0
  7 13  1  0  0  0  0
  8 12  1  6  0  0  0
  8 16  1  0  0  0  0
  9  2  1  0  0  0  0
 11  7  1  0  0  0  0
 11  1  2  0  0  0  0
 13 18  1  1  0  0  0
 13  5  1  0  0  0  0
 14  1  1  6  0  0  0
 14  8  1  0  0  0  0
 14  6  1  0  0  0  0
 15 10  1  0  0  0  0
 16 15  1  0  0  0  0
 17  3  2  0  0  0  0
 19 22  1  0  0  0  0
 19 21  1  0  0  0  0
 20 23  1  0  0  0  0
 21 24  1  0  0  0  0
 22 18  1  6  0  0  0
 22 20  1  0  0  0  0
 24 23  1  0  0  0  0
 24 26  1  1  0  0  0
 26 25  3  0  0  0  0
 28 31  1  0  0  0  0
 28 29  1  0  0  0  0
 29 27  1  1  0  0  0
 30 29  1  0  0  0  0
 31 30  1  6  0  0  0
 31 29  1  0  0  0  0
 32 27  1  0  0  0  0
 34 32  1  0  0  0  0
 34 33  1  1  0  0  0
 35 34  1  0  0  0  0
 36 37  1  6  0  0  0
 36 35  1  0  0  0  0
 38 39  2  0  0  0  0
 39 36  1  0  0  0  0
M  END
>  <MODEL>
6

>  <REMARK>
 VINA RESULT:      -3.6      3.361      8.333
  Name = 
  10 active torsions:
  status: ('A' for Active; 'I' for Inactive)
    1  A    between atoms: C_1  and  C_13
    2  A    between atoms: C_1  and  C_33
    3  A    between atoms: C_6  and  N_11
    4  A    between atoms: C_8  and  C_17
    5  A    between atoms: C_8  and  C_37
    6  A    between atoms: N_11  and  C_14
    7  A    between atoms: N_11  and  C_19
    8  A    between atoms: C_14  and  C_37
    9  A    between atoms: C_17  and  C_32
   10  A    between atoms: C_23  and  C_35
                            x       y       z     vdW  Elec       q    Type
                         _______ _______ _______ _____ _____    ______ ____

>  <TORSDO>
F 10

$$$$
=
 OpenBabel11042421173D

 39 45  0  0  1  0  0  0  0  0999 V2000
  161.7760  209.4290  151.3020 C   0  0  0  0  0  0  0  0  0  0  0  0
  161.1240  206.7550  151.1220 C   0  0  0  0  0  0  0  0  0  0  0  0
  162.0760  208.7330  150.1570 C   0  0  0  0  0  0  0  0  0  0  0  0
  160.7370  207.5030  152.2530 C   0  0  0  0  0  3  0  0  0  0  0  0
  160.3040  212.1240  152.3400 C   0  0  0  0  0  2  0  0  0  0  0  0
  160.6630  211.5380  150.9820 C   0  0  2  0  0  3  0  0  0  0  0  0
  160.4440  209.7250  153.5040 C   0  0  2  0  0  3  0  0  0  0  0  0
  162.3060  210.8180  149.5930 C   0  0  2  0  0  3  0  0  0  0  0  0
  160.7780  205.3120  151.0390 C   0  0  0  0  0  1  0  0  0  0  0  0
  159.4310  212.5500  149.2490 C   0  0  0  0  0  1  0  0  0  0  0  0
  161.0400  208.8750  152.3590 C   0  0  0  0  0  0  0  0  0  0  0  0
  162.3430  209.6240  149.0790 N   0  0  0  0  0  2  0  0  0  0  0  0
  160.7880  211.2560  153.5310 C   0  0  2  0  0  3  0  0  0  0  0  0
  161.9960  210.8460  151.0260 C   0  0  2  0  0  3  0  0  0  0  0  0
  160.7410  212.5050  149.8770 N   0  0  0  0  0  0  0  0  0  0  0  0
  161.6110  211.8760  148.9620 N   0  0  0  0  0  2  0  0  0  0  0  0
  161.7490  207.3850  150.0330 C   0  0  0  0  0  3  0  0  0  0  0  0
  160.3960  211.9360  154.8460 C   0  0  0  0  0  2  0  0  0  0  0  0
  158.0700  211.5740  155.2990 O   0  0  0  0  0  0  0  0  0  0  0  0
  158.9250  213.8180  155.6340 C   0  0  0  0  0  2  0  0  0  0  0  0
  156.7940  212.0410  154.9310 C   0  0  0  0  0  2  0  0  0  0  0  0
  158.9890  212.5210  154.8110 C   0  0  1  0  0  3  0  0  0  0  0  0
  157.6230  213.9150  156.4340 C   0  0  0  0  0  2  0  0  0  0  0  0
  156.4360  213.3570  155.6450 C   0  0  2  0  0  3  0  0  0  0  0  0
  154.4060  212.9730  157.2570 N   0  0  0  0  0  0  0  0  0  0  0  0
  155.3030  213.1420  156.5450 C   0  0  0  0  0  0  0  0  0  0  0  0
  160.6430  209.1290  154.8460 N   0  0  0  0  0  0  0  0  0  0  0  0
  161.3470  206.9310  155.4700 O   0  0  0  0  0  0  0  0  0  0  0  0
  160.3470  207.6880  154.8270 C   0  0  2  0  0  0  0  0  0  0  0  0
  158.9810  207.3510  155.3930 C   0  0  0  0  0  2  0  0  0  0  0  0
  160.2190  207.2450  156.2470 C   0  0  1  0  0  3  0  0  0  0  0  0
  162.0140  209.3590  155.3130 C   0  0  0  0  0  2  0  0  0  0  0  0
  161.0470  210.3300  157.2600 O   0  0  0  0  0  1  0  0  0  0  0  0
  162.0460  209.4570  156.8270 C   0  0  2  0  0  3  0  0  0  0  0  0
  163.4080  209.9740  157.2600 C   0  0  0  0  0  2  0  0  0  0  0  0
  163.7300  211.2960  156.5830 C   0  0  2  0  0  3  0  0  0  0  0  0
  164.0310  211.0800  155.2370 O   0  0  0  0  0  1  0  0  0  0  0  0
  165.8920  212.2320  156.6190 O   0  0  0  0  0  0  0  0  0  0  0  0
  164.9020  211.9220  157.2610 C   0  0  0  0  0  3  0  0  0  0  0  0
  1 11  1  0  0  0  0
  2  4  1  0  0  0  0
  3  1  2  0  0  0  0
  4 11  2  0  0  0  0
  5 13  1  0  0  0  0
  6 14  1  0  0  0  0
  6  5  1  1  0  0  0
  7 13  1  0  0  0  0
  7 27  1  1  0  0  0
  8 16  1  6  0  0  0
  8 14  1  0  0  0  0
  9  2  1  0  0  0  0
 10 15  1  0  0  0  0
 11  7  1  0  0  0  0
 12  8  1  0  0  0  0
 12  3  1  0  0  0  0
 13 18  1  1  0  0  0
 14  1  1  6  0  0  0
 15  6  1  0  0  0  0
 16 15  1  0  0  0  0
 17  3  1  0  0  0  0
 17  2  2  0  0  0  0
 20 23  1  0  0  0  0
 21 19  1  0  0  0  0
 21 24  1  0  0  0  0
 22 18  1  1  0  0  0
 22 19  1  0  0  0  0
 22 20  1  0  0  0  0
 24 23  1  0  0  0  0
 24 26  1  1  0  0  0
 26 25  3  0  0  0  0
 27 32  1  0  0  0  0
 28 31  1  0  0  0  0
 29 27  1  6  0  0  0
 29 30  1  0  0  0  0
 29 28  1  0  0  0  0
 29 31  1  0  0  0  0
 31 30  1  6  0  0  0
 32 34  1  0  0  0  0
 34 33  1  6  0  0  0
 34 35  1  0  0  0  0
 36 37  1  6  0  0  0
 36 35  1  0  0  0  0
 36 39  1  0  0  0  0
 38 39  2  0  0  0  0
M  END
>  <MODEL>
7

>  <REMARK>
 VINA RESULT:      -3.3      2.274      6.866
  Name = 
  10 active torsions:
  status: ('A' for Active; 'I' for Inactive)
    1  A    between atoms: C_1  and  C_13
    2  A    between atoms: C_1  and  C_33
    3  A    between atoms: C_6  and  N_11
    4  A    between atoms: C_8  and  C_17
    5  A    between atoms: C_8  and  C_37
    6  A    between atoms: N_11  and  C_14
    7  A    between atoms: N_11  and  C_19
    8  A    between atoms: C_14  and  C_37
    9  A    between atoms: C_17  and  C_32
   10  A    between atoms: C_23  and  C_35
                            x       y       z     vdW  Elec       q    Type
                         _______ _______ _______ _____ _____    ______ ____

>  <TORSDO>
F 10

$$$$
=
 OpenBabel11042421173D

 39 45  0  0  1  0  0  0  0  0999 V2000
  161.8290  205.1120  149.1370 C   0  0  0  0  0  0  0  0  0  0  0  0
  160.4500  203.6790  151.0500 C   0  0  0  0  0  0  0  0  0  0  0  0
  161.6380  203.7620  148.9670 C   0  0  0  0  0  0  0  0  0  0  0  0
  160.5710  205.0800  151.1650 C   0  0  0  0  0  3  0  0  0  0  0  0
  161.4470  207.9530  147.6260 C   0  0  0  0  0  2  0  0  0  0  0  0
  161.2890  206.4890  147.2400 C   0  0  2  0  0  3  0  0  0  0  0  0
  161.2100  207.3800  150.2220 C   0  0  2  0  0  3  0  0  0  0  0  0
  162.2810  204.4610  147.0150 C   0  0  2  0  0  3  0  0  0  0  0  0
  159.7160  202.9150  152.0910 C   0  0  0  0  0  1  0  0  0  0  0  0
  159.9930  206.2420  145.2900 C   0  0  0  0  0  1  0  0  0  0  0  0
  161.2530  205.8350  150.1890 C   0  0  0  0  0  0  0  0  0  0  0  0
  161.8650  203.3850  147.6140 N   0  0  0  0  0  2  0  0  0  0  0  0
  161.9540  208.1540  149.0780 C   0  0  2  0  0  3  0  0  0  0  0  0
  162.3520  205.6420  147.8810 C   0  0  2  0  0  3  0  0  0  0  0  0
  161.3530  206.2040  145.7980 N   0  0  0  0  0  0  0  0  0  0  0  0
  161.7670  204.8570  145.7570 N   0  0  0  0  0  2  0  0  0  0  0  0
  160.9360  203.0150  149.9110 C   0  0  0  0  0  3  0  0  0  0  0  0
  162.0960  209.6530  149.3610 C   0  0  0  0  0  2  0  0  0  0  0  0
  160.5760  210.7510  147.8690 O   0  0  0  0  0  0  0  0  0  0  0  0
  162.7120  211.8290  148.2610 C   0  0  0  0  0  2  0  0  0  0  0  0
  160.4920  211.2430  146.5530 C   0  0  0  0  0  2  0  0  0  0  0  0
  161.9400  210.5080  148.1100 C   0  0  1  0  0  3  0  0  0  0  0  0
  161.9300  213.0100  147.6780 C   0  0  0  0  0  2  0  0  0  0  0  0
  161.1800  212.6120  146.4050 C   0  0  2  0  0  3  0  0  0  0  0  0
  159.3990  214.4440  145.8210 N   0  0  0  0  0  0  0  0  0  0  0  0
  160.1850  213.6350  146.0790 C   0  0  0  0  0  0  0  0  0  0  0  0
  161.5620  207.9510  151.5440 N   0  0  0  0  0  0  0  0  0  0  0  0
  160.3350  209.9340  152.0720 O   0  0  0  0  0  0  0  0  0  0  0  0
  161.5200  209.4210  151.5060 C   0  0  2  0  0  0  0  0  0  0  0  0
  162.7340  210.0710  152.1410 C   0  0  0  0  0  2  0  0  0  0  0  0
  161.4540  209.8980  152.9190 C   0  0  1  0  0  3  0  0  0  0  0  0
  160.6580  207.4440  152.5810 C   0  0  0  0  0  2  0  0  0  0  0  0
  162.3180  206.0350  153.5440 O   0  0  0  0  0  1  0  0  0  0  0  0
  161.4390  207.0810  153.8300 C   0  0  2  0  0  3  0  0  0  0  0  0
  160.4640  206.6550  154.9160 C   0  0  0  0  0  2  0  0  0  0  0  0
  160.4480  207.6570  156.0590 C   0  0  2  0  0  3  0  0  0  0  0  0
  159.7030  208.7810  155.6940 O   0  0  0  0  0  1  0  0  0  0  0  0
  162.1260  209.2470  156.5140 O   0  0  0  0  0  0  0  0  0  0  0  0
  161.8470  208.0680  156.3710 C   0  0  0  0  0  3  0  0  0  0  0  0
  1 11  1  0  0  0  0
  2  4  1  0  0  0  0
  2  9  1  0  0  0  0
  3  1  2  0  0  0  0
  3 17  1  0  0  0  0
  5 13  1  0  0  0  0
  6  5  1  6  0  0  0
  6 14  1  0  0  0  0
  7 27  1  1  0  0  0
  8 16  1  6  0  0  0
  8 12  1  0  0  0  0
  8 14  1  0  0  0  0
 10 15  1  0  0  0  0
 11  7  1  0  0  0  0
 11  4  2  0  0  0  0
 12  3  1  0  0  0  0
 13 18  1  1  0  0  0
 13  7  1  0  0  0  0
 14  1  1  1  0  0  0
 15  6  1  0  0  0  0
 16 15  1  0  0  0  0
 17  2  2  0  0  0  0
 19 22  1  0  0  0  0
 21 19  1  0  0  0  0
 22 20  1  0  0  0  0
 22 18  1  1  0  0  0
 23 20  1  0  0  0  0
 24 26  1  1  0  0  0
 24 21  1  0  0  0  0
 24 23  1  0  0  0  0
 25 26  3  0  0  0  0
 27 32  1  0  0  0  0
 28 31  1  0  0  0  0
 29 27  1  6  0  0  0
 29 28  1  0  0  0  0
 29 30  1  0  0  0  0
 29 31  1  0  0  0  0
 31 30  1  6  0  0  0
 32 34  1  0  0  0  0
 34 33  1  6  0  0  0
 34 35  1  0  0  0  0
 35 36  1  0  0  0  0
 36 37  1  6  0  0  0
 36 39  1  0  0  0  0
 39 38  2  0  0  0  0
M  END
>  <MODEL>
8

>  <REMARK>
 VINA RESULT:      -3.3      3.148      7.255
  Name = 
  10 active torsions:
  status: ('A' for Active; 'I' for Inactive)
    1  A    between atoms: C_1  and  C_13
    2  A    between atoms: C_1  and  C_33
    3  A    between atoms: C_6  and  N_11
    4  A    between atoms: C_8  and  C_17
    5  A    between atoms: C_8  and  C_37
    6  A    between atoms: N_11  and  C_14
    7  A    between atoms: N_11  and  C_19
    8  A    between atoms: C_14  and  C_37
    9  A    between atoms: C_17  and  C_32
   10  A    between atoms: C_23  and  C_35
                            x       y       z     vdW  Elec       q    Type
                         _______ _______ _______ _____ _____    ______ ____

>  <TORSDO>
F 10

$$$$
=
 OpenBabel11042421173D

 39 45  0  0  1  0  0  0  0  0999 V2000
  159.9260  212.0330  151.0790 C   0  0  0  0  0  0  0  0  0  0  0  0
  159.6650  212.7850  153.7200 C   0  0  0  0  0  0  0  0  0  0  0  0
  159.2370  213.1800  151.3930 C   0  0  0  0  0  0  0  0  0  0  0  0
  160.4490  211.6650  153.3780 C   0  0  0  0  0  3  0  0  0  0  0  0
  162.3200  210.9310  149.1930 C   0  0  0  0  0  2  0  0  0  0  0  0
  161.5760  212.2500  149.3410 C   0  0  2  0  0  3  0  0  0  0  0  0
  161.6280  210.1690  151.6560 C   0  0  2  0  0  3  0  0  0  0  0  0
  159.5840  213.3330  149.2550 C   0  0  2  0  0  3  0  0  0  0  0  0
  159.5210  213.1760  155.1460 C   0  0  0  0  0  1  0  0  0  0  0  0
  162.7590  214.0290  148.3500 C   0  0  0  0  0  1  0  0  0  0  0  0
  160.6140  211.2730  152.0330 C   0  0  0  0  0  0  0  0  0  0  0  0
  159.0890  214.0110  150.2470 N   0  0  0  0  0  2  0  0  0  0  0  0
  161.7920  209.8180  150.1360 C   0  0  2  0  0  3  0  0  0  0  0  0
  160.1200  212.0200  149.6310 C   0  0  2  0  0  3  0  0  0  0  0  0
  161.6250  213.1390  148.1700 N   0  0  0  0  0  0  0  0  0  0  0  0
  160.4630  213.9250  148.3160 N   0  0  0  0  0  2  0  0  0  0  0  0
  159.0990  213.5900  152.7170 C   0  0  0  0  0  3  0  0  0  0  0  0
  162.5910  208.5320  149.8990 C   0  0  0  0  0  2  0  0  0  0  0  0
  162.9910  206.6850  148.4260 O   0  0  0  0  0  0  0  0  0  0  0  0
  160.8390  207.7880  148.2550 C   0  0  0  0  0  2  0  0  0  0  0  0
  163.0080  206.3560  147.0570 C   0  0  0  0  0  2  0  0  0  0  0  0
  162.3470  207.9320  148.5200 C   0  0  1  0  0  3  0  0  0  0  0  0
  160.5150  206.4760  147.5350 C   0  0  0  0  0  2  0  0  0  0  0  0
  161.5900  206.1210  146.5050 C   0  0  2  0  0  3  0  0  0  0  0  0
  161.3220  203.6180  145.7760 N   0  0  0  0  0  0  0  0  0  0  0  0
  161.4400  204.7230  146.0980 C   0  0  0  0  0  0  0  0  0  0  0  0
  161.4770  208.9310  152.4570 N   0  0  0  0  0  0  0  0  0  0  0  0
  160.1970  208.1480  154.3190 O   0  0  0  0  0  0  0  0  0  0  0  0
  160.9250  209.2320  153.7870 C   0  0  2  0  0  0  0  0  0  0  0  0
  161.9720  209.7040  154.7760 C   0  0  0  0  0  2  0  0  0  0  0  0
  161.5300  208.2620  154.7470 C   0  0  1  0  0  3  0  0  0  0  0  0
  160.6190  207.9680  151.7580 C   0  0  0  0  0  2  0  0  0  0  0  0
  162.4840  206.5170  152.0500 O   0  0  0  0  0  1  0  0  0  0  0  0
  161.0890  206.5510  152.0280 C   0  0  2  0  0  3  0  0  0  0  0  0
  160.5670  205.6390  150.9300 C   0  0  0  0  0  2  0  0  0  0  0  0
  161.4470  204.4100  150.7770 C   0  0  2  0  0  3  0  0  0  0  0  0
  161.3790  203.9390  149.4630 O   0  0  0  0  0  1  0  0  0  0  0  0
  161.6950  202.4040  151.9870 O   0  0  0  0  0  0  0  0  0  0  0  0
  160.9740  203.3480  151.7100 C   0  0  0  0  0  3  0  0  0  0  0  0
  1  3  2  0  0  0  0
  1 11  1  0  0  0  0
  2  9  1  0  0  0  0
  3 17  1  0  0  0  0
  4  2  1  0  0  0  0
  5 13  1  0  0  0  0
  6  5  1  6  0  0  0
  6 14  1  0  0  0  0
  7 11  1  0  0  0  0
  7 27  1  1  0  0  0
  8 16  1  1  0  0  0
  8 14  1  0  0  0  0
  8 12  1  0  0  0  0
 11  4  2  0  0  0  0
 12  3  1  0  0  0  0
 13 18  1  1  0  0  0
 13  7  1  0  0  0  0
 14  1  1  1  0  0  0
 15 16  1  0  0  0  0
 15 10  1  0  0  0  0
 15  6  1  0  0  0  0
 17  2  2  0  0  0  0
 19 22  1  0  0  0  0
 20 22  1  0  0  0  0
 21 19  1  0  0  0  0
 22 18  1  1  0  0  0
 23 20  1  0  0  0  0
 24 26  1  1  0  0  0
 24 21  1  0  0  0  0
 24 23  1  0  0  0  0
 25 26  3  0  0  0  0
 28 31  1  0  0  0  0
 29 27  1  6  0  0  0
 29 28  1  0  0  0  0
 29 31  1  0  0  0  0
 29 30  1  0  0  0  0
 31 30  1  1  0  0  0
 32 34  1  0  0  0  0
 32 27  1  0  0  0  0
 34 33  1  6  0  0  0
 35 34  1  0  0  0  0
 36 37  1  6  0  0  0
 36 35  1  0  0  0  0
 36 39  1  0  0  0  0
 39 38  2  0  0  0  0
M  END
>  <MODEL>
9

>  <REMARK>
 VINA RESULT:      -3.3      1.676      2.579
  Name = 
  10 active torsions:
  status: ('A' for Active; 'I' for Inactive)
    1  A    between atoms: C_1  and  C_13
    2  A    between atoms: C_1  and  C_33
    3  A    between atoms: C_6  and  N_11
    4  A    between atoms: C_8  and  C_17
    5  A    between atoms: C_8  and  C_37
    6  A    between atoms: N_11  and  C_14
    7  A    between atoms: N_11  and  C_19
    8  A    between atoms: C_14  and  C_37
    9  A    between atoms: C_17  and  C_32
   10  A    between atoms: C_23  and  C_35
                            x       y       z     vdW  Elec       q    Type
                         _______ _______ _______ _____ _____    ______ ____

>  <TORSDO>
F 10

$$$$
