=
 OpenBabel11052410263D

 36 39  0  0  1  0  0  0  0  0999 V2000
  161.2620  206.2180  152.7540 C   0  0  2  0  0  3  0  0  0  0  0  0
  161.0690  204.7180  152.8630 C   0  0  0  0  0  1  0  0  0  0  0  0
  162.2320  206.5060  151.7530 O   0  0  0  0  0  0  0  0  0  0  0  0
  161.7830  208.5450  148.6880 C   0  0  0  0  0  3  0  0  0  0  0  0
  162.1190  207.5980  150.8860 C   0  0  0  0  0  0  0  0  0  0  0  0
  162.2810  208.8620  151.3740 N   0  0  0  0  0  0  0  0  0  0  0  0
  162.2060  209.9620  150.5810 C   0  0  0  0  0  3  0  0  0  0  0  0
  161.8550  207.4060  149.5060 C   0  0  0  0  0  0  0  0  0  0  0  0
  161.8560  211.2290  148.1860 Cl  0  0  0  0  0  0  0  0  0  0  0  0
  161.9580  209.8210  149.2200 C   0  0  0  0  0  0  0  0  0  0  0  0
  160.7950  203.7820  148.9570 C   0  0  0  0  0  3  0  0  0  0  0  0
  161.9650  204.5550  146.9910 C   0  0  0  0  0  3  0  0  0  0  0  0
  162.1460  205.8030  147.5930 C   0  0  0  0  0  3  0  0  0  0  0  0
  161.2910  203.5340  147.6700 C   0  0  0  0  0  0  0  0  0  0  0  0
  160.9750  205.0300  149.5550 C   0  0  0  0  0  3  0  0  0  0  0  0
  161.6570  206.0610  148.8860 C   0  0  0  0  0  0  0  0  0  0  0  0
  161.1150  202.2520  147.0540 N   0  0  0  0  0  0  0  0  0  0  0  0
  161.1940  201.2060  147.7310 O   0  0  0  0  0  0  0  0  0  0  0  0
  160.8760  202.1590  145.7020 O   0  0  0  0  0  0  0  0  0  0  0  0
  161.7370  206.7550  154.0900 C   0  0  0  0  0  2  0  0  0  0  0  0
  160.6420  207.5720  154.7750 C   0  0  1  0  0  3  0  0  0  0  0  0
  159.8120  206.7650  155.7760 C   0  0  0  0  0  2  0  0  0  0  0  0
  160.1750  207.0620  157.2240 C   0  0  0  0  0  1  0  0  0  0  0  0
  161.1400  208.9070  155.3410 C   0  0  0  0  0  2  0  0  0  0  0  0
  161.3820  209.9750  154.2770 C   0  0  1  0  0  3  0  0  0  0  0  0
  160.1630  210.8260  154.1190 C   0  0  0  0  0  0  0  0  0  0  0  0
  159.0840  210.7100  154.8880 O   0  0  0  0  0  0  0  0  0  0  0  0
  156.7500  213.0170  153.8110 N   0  0  0  0  0  0  0  0  0  0  0  0
  157.8260  213.1970  152.9920 C   0  0  0  0  0  3  0  0  0  0  0  0
  160.0290  211.8360  153.1420 C   0  0  0  0  0  3  0  0  0  0  0  0
  158.2570  211.6060  154.4340 C   0  0  0  0  0  0  0  0  0  0  0  0
  156.9880  212.0310  154.7200 C   0  0  0  0  0  3  0  0  0  0  0  0
  155.5080  213.7570  153.7110 C   0  0  0  0  0  1  0  0  0  0  0  0
  158.7600  212.2870  153.4210 C   0  0  0  0  0  0  0  0  0  0  0  0
  162.7180  210.5810  155.9960 O   0  0  0  0  0  1  0  0  0  0  0  0
  162.5110  210.7990  154.6750 N   0  0  0  0  0  2  0  0  0  0  0  0
  1  2  1  1  0  0  0
  1 20  1  0  0  0  0
  3  1  1  0  0  0  0
  4 10  1  0  0  0  0
  4  8  2  0  0  0  0
  5  6  2  0  0  0  0
  5  3  1  0  0  0  0
  7  6  1  0  0  0  0
  8  5  1  0  0  0  0
  9 10  1  0  0  0  0
 10  7  2  0  0  0  0
 11 15  1  0  0  0  0
 12 13  2  0  0  0  0
 12 14  1  0  0  0  0
 13 16  1  0  0  0  0
 14 11  2  0  0  0  0
 16  8  1  0  0  0  0
 16 15  2  0  0  0  0
 17 14  1  0  0  0  0
 17 18  2  0  0  0  0
 19 17  2  0  0  0  0
 21 20  1  1  0  0  0
 21 24  1  0  0  0  0
 21 22  1  0  0  0  0
 22 23  1  0  0  0  0
 25 36  1  0  0  0  0
 25 24  1  1  0  0  0
 26 25  1  0  0  0  0
 26 27  1  0  0  0  0
 28 32  1  0  0  0  0
 29 34  2  0  0  0  0
 29 28  1  0  0  0  0
 30 34  1  0  0  0  0
 30 26  2  0  0  0  0
 31 32  2  0  0  0  0
 31 27  1  0  0  0  0
 33 28  1  0  0  0  0
 34 31  1  0  0  0  0
 36 35  1  0  0  0  0
M  END
>  <MODEL>
1

>  <REMARK>
 VINA RESULT:      -8.3      0.000      0.000
  Name = 
  11 active torsions:
  status: ('A' for Active; 'I' for Inactive)
    1  A    between atoms: N_1  and  C_20
    2  A    between atoms: C_2  and  C_10
    3  A    between atoms: C_10  and  C_14
    4  A    between atoms: C_10  and  N_18
    5  A    between atoms: C_11  and  O_28
    6  A    between atoms: C_12  and  C_27
    7  A    between atoms: C_14  and  C_27
    8  A    between atoms: C_22  and  O_28
    9  A    between atoms: C_22  and  C_35
   10  A    between atoms: C_26  and  C_36
   11  A    between atoms: C_27  and  C_35
                            x       y       z     vdW  Elec       q    Type
                         _______ _______ _______ _____ _____    ______ ____

>  <TORSDO>
F 11

$$$$
=
 OpenBabel11052410263D

 36 39  0  0  1  0  0  0  0  0999 V2000
  161.8060  208.8670  150.1280 C   0  0  2  0  0  3  0  0  0  0  0  0
  161.7780  208.8580  148.6120 C   0  0  0  0  0  1  0  0  0  0  0  0
  162.2160  210.1480  150.5940 O   0  0  0  0  0  0  0  0  0  0  0  0
  159.9810  213.0560  151.1340 C   0  0  0  0  0  3  0  0  0  0  0  0
  161.3300  211.0520  151.1890 C   0  0  0  0  0  0  0  0  0  0  0  0
  160.9430  210.8610  152.4830 N   0  0  0  0  0  0  0  0  0  0  0  0
  160.1040  211.7160  153.1230 C   0  0  0  0  0  3  0  0  0  0  0  0
  160.8450  212.1730  150.4670 C   0  0  0  0  0  0  0  0  0  0  0  0
  158.5260  213.9420  153.2700 Cl  0  0  0  0  0  0  0  0  0  0  0  0
  159.6100  212.8330  152.4580 C   0  0  0  0  0  0  0  0  0  0  0  0
  162.8610  212.6820  147.2680 C   0  0  0  0  0  3  0  0  0  0  0  0
  160.5210  213.0210  146.7740 C   0  0  0  0  0  3  0  0  0  0  0  0
  160.2040  212.7590  148.1100 C   0  0  0  0  0  3  0  0  0  0  0  0
  161.8520  212.9880  146.3440 C   0  0  0  0  0  0  0  0  0  0  0  0
  162.5410  212.4190  148.6010 C   0  0  0  0  0  3  0  0  0  0  0  0
  161.2090  212.4570  149.0460 C   0  0  0  0  0  0  0  0  0  0  0  0
  162.1750  213.2670  144.9750 N   0  0  0  0  0  0  0  0  0  0  0  0
  161.3020  213.6920  144.1910 O   0  0  0  0  0  0  0  0  0  0  0  0
  163.4510  213.0500  144.5070 O   0  0  0  0  0  0  0  0  0  0  0  0
  162.7830  207.8140  150.6120 C   0  0  0  0  0  2  0  0  0  0  0  0
  162.1690  206.9590  151.7200 C   0  0  1  0  0  3  0  0  0  0  0  0
  160.8620  207.5270  152.2780 C   0  0  0  0  0  2  0  0  0  0  0  0
  160.7120  207.3080  153.7770 C   0  0  0  0  0  1  0  0  0  0  0  0
  162.0770  205.4710  151.3630 C   0  0  0  0  0  2  0  0  0  0  0  0
  160.7650  205.0780  150.6910 C   0  0  1  0  0  3  0  0  0  0  0  0
  160.9220  205.1100  149.2040 C   0  0  0  0  0  0  0  0  0  0  0  0
  160.4290  206.0760  148.4360 O   0  0  0  0  0  0  0  0  0  0  0  0
  161.2120  205.3390  145.1540 N   0  0  0  0  0  0  0  0  0  0  0  0
  161.7530  204.3200  145.8820 C   0  0  0  0  0  3  0  0  0  0  0  0
  161.6060  204.1200  148.4640 C   0  0  0  0  0  3  0  0  0  0  0  0
  160.7640  205.7390  147.2250 C   0  0  0  0  0  0  0  0  0  0  0  0
  160.5880  206.2390  145.9630 C   0  0  0  0  0  3  0  0  0  0  0  0
  161.2690  205.4370  143.7080 C   0  0  0  0  0  1  0  0  0  0  0  0
  161.4500  204.6130  147.1880 C   0  0  0  0  0  0  0  0  0  0  0  0
  160.7200  203.6340  152.4290 O   0  0  0  0  0  1  0  0  0  0  0  0
  160.3900  203.7400  151.1190 N   0  0  0  0  0  2  0  0  0  0  0  0
  1  2  1  6  0  0  0
  1  3  1  0  0  0  0
  1 20  1  0  0  0  0
  3  5  1  0  0  0  0
  4 10  1  0  0  0  0
  5  6  2  0  0  0  0
  6  7  1  0  0  0  0
  8  4  2  0  0  0  0
  8  5  1  0  0  0  0
 10  7  2  0  0  0  0
 10  9  1  0  0  0  0
 11 15  1  0  0  0  0
 12 13  2  0  0  0  0
 13 16  1  0  0  0  0
 14 12  1  0  0  0  0
 14 11  2  0  0  0  0
 15 16  2  0  0  0  0
 16  8  1  0  0  0  0
 17 14  1  0  0  0  0
 18 17  2  0  0  0  0
 19 17  2  0  0  0  0
 21 20  1  6  0  0  0
 21 22  1  0  0  0  0
 22 23  1  0  0  0  0
 24 21  1  0  0  0  0
 25 36  1  0  0  0  0
 25 24  1  1  0  0  0
 26 25  1  0  0  0  0
 27 26  1  0  0  0  0
 28 29  1  0  0  0  0
 28 32  1  0  0  0  0
 29 34  2  0  0  0  0
 30 26  2  0  0  0  0
 31 27  1  0  0  0  0
 32 31  2  0  0  0  0
 33 28  1  0  0  0  0
 34 31  1  0  0  0  0
 34 30  1  0  0  0  0
 36 35  1  0  0  0  0
M  END
>  <MODEL>
2

>  <REMARK>
 VINA RESULT:      -7.9      3.791      8.037
  Name = 
  11 active torsions:
  status: ('A' for Active; 'I' for Inactive)
    1  A    between atoms: N_1  and  C_20
    2  A    between atoms: C_2  and  C_10
    3  A    between atoms: C_10  and  C_14
    4  A    between atoms: C_10  and  N_18
    5  A    between atoms: C_11  and  O_28
    6  A    between atoms: C_12  and  C_27
    7  A    between atoms: C_14  and  C_27
    8  A    between atoms: C_22  and  O_28
    9  A    between atoms: C_22  and  C_35
   10  A    between atoms: C_26  and  C_36
   11  A    between atoms: C_27  and  C_35
                            x       y       z     vdW  Elec       q    Type
                         _______ _______ _______ _____ _____    ______ ____

>  <TORSDO>
F 11

$$$$
=
 OpenBabel11052410263D

 36 39  0  0  1  0  0  0  0  0999 V2000
  162.1100  208.2300  150.2930 C   0  0  2  0  0  3  0  0  0  0  0  0
  162.3090  208.2360  148.7910 C   0  0  0  0  0  1  0  0  0  0  0  0
  162.4280  209.5110  150.8260 O   0  0  0  0  0  0  0  0  0  0  0  0
  160.4100  212.6140  150.6180 C   0  0  0  0  0  3  0  0  0  0  0  0
  161.8480  210.6910  150.3500 C   0  0  0  0  0  0  0  0  0  0  0  0
  162.1100  211.1010  149.0760 N   0  0  0  0  0  0  0  0  0  0  0  0
  161.5610  212.2250  148.5460 C   0  0  0  0  0  3  0  0  0  0  0  0
  160.9800  211.4560  151.1700 C   0  0  0  0  0  0  0  0  0  0  0  0
  159.9820  214.4530  148.6440 Cl  0  0  0  0  0  0  0  0  0  0  0  0
  160.6960  213.0010  149.3110 C   0  0  0  0  0  0  0  0  0  0  0  0
  161.2900  210.3290  154.8030 C   0  0  0  0  0  3  0  0  0  0  0  0
  158.9760  210.8440  154.3440 C   0  0  0  0  0  3  0  0  0  0  0  0
  159.3130  211.1760  153.0290 C   0  0  0  0  0  3  0  0  0  0  0  0
  159.9620  210.4160  155.2400 C   0  0  0  0  0  0  0  0  0  0  0  0
  161.6240  210.6630  153.4890 C   0  0  0  0  0  3  0  0  0  0  0  0
  160.6420  211.0880  152.5780 C   0  0  0  0  0  0  0  0  0  0  0  0
  159.6110  210.0660  156.5850 N   0  0  0  0  0  0  0  0  0  0  0  0
  158.8680  210.8080  157.2610 O   0  0  0  0  0  0  0  0  0  0  0  0
  160.1070  208.9150  157.1540 O   0  0  0  0  0  0  0  0  0  0  0  0
  163.0170  207.1840  150.9110 C   0  0  0  0  0  2  0  0  0  0  0  0
  162.2560  206.3170  151.9140 C   0  0  1  0  0  3  0  0  0  0  0  0
  161.0010  206.9890  152.4750 C   0  0  0  0  0  2  0  0  0  0  0  0
  160.8340  206.7780  153.9730 C   0  0  0  0  0  1  0  0  0  0  0  0
  162.0080  204.8880  151.4210 C   0  0  0  0  0  2  0  0  0  0  0  0
  160.6750  204.7080  150.6990 C   0  0  1  0  0  3  0  0  0  0  0  0
  160.8700  204.8370  149.2230 C   0  0  0  0  0  0  0  0  0  0  0  0
  160.3680  205.8350  148.5020 O   0  0  0  0  0  0  0  0  0  0  0  0
  161.2600  205.3280  145.2040 N   0  0  0  0  0  0  0  0  0  0  0  0
  161.8130  204.2820  145.8830 C   0  0  0  0  0  3  0  0  0  0  0  0
  161.6040  203.9170  148.4420 C   0  0  0  0  0  3  0  0  0  0  0  0
  160.7460  205.5850  147.2830 C   0  0  0  0  0  0  0  0  0  0  0  0
  160.5880  206.1570  146.0500 C   0  0  0  0  0  3  0  0  0  0  0  0
  161.3530  205.5180  143.7700 C   0  0  0  0  0  1  0  0  0  0  0  0
  161.4670  204.4830  147.1960 C   0  0  0  0  0  0  0  0  0  0  0  0
  160.8850  202.8860  152.0200 O   0  0  0  0  0  1  0  0  0  0  0  0
  160.1350  203.3950  151.0130 N   0  0  0  0  0  2  0  0  0  0  0  0
  1  2  1  6  0  0  0
  1  3  1  0  0  0  0
  1 20  1  0  0  0  0
  4  8  2  0  0  0  0
  5  3  1  0  0  0  0
  5  8  1  0  0  0  0
  6  5  2  0  0  0  0
  7  6  1  0  0  0  0
  7 10  2  0  0  0  0
  8 16  1  0  0  0  0
  9 10  1  0  0  0  0
 10  4  1  0  0  0  0
 11 14  1  0  0  0  0
 12 14  2  0  0  0  0
 13 12  1  0  0  0  0
 14 17  1  0  0  0  0
 15 11  2  0  0  0  0
 16 13  2  0  0  0  0
 16 15  1  0  0  0  0
 17 19  2  0  0  0  0
 17 18  2  0  0  0  0
 21 20  1  6  0  0  0
 21 22  1  0  0  0  0
 22 23  1  0  0  0  0
 24 21  1  0  0  0  0
 25 36  1  0  0  0  0
 25 24  1  1  0  0  0
 26 25  1  0  0  0  0
 27 26  1  0  0  0  0
 28 29  1  0  0  0  0
 28 32  1  0  0  0  0
 29 34  2  0  0  0  0
 30 26  2  0  0  0  0
 31 27  1  0  0  0  0
 32 31  2  0  0  0  0
 33 28  1  0  0  0  0
 34 31  1  0  0  0  0
 34 30  1  0  0  0  0
 36 35  1  0  0  0  0
M  END
>  <MODEL>
3

>  <REMARK>
 VINA RESULT:      -7.6      2.459      8.199
  Name = 
  11 active torsions:
  status: ('A' for Active; 'I' for Inactive)
    1  A    between atoms: N_1  and  C_20
    2  A    between atoms: C_2  and  C_10
    3  A    between atoms: C_10  and  C_14
    4  A    between atoms: C_10  and  N_18
    5  A    between atoms: C_11  and  O_28
    6  A    between atoms: C_12  and  C_27
    7  A    between atoms: C_14  and  C_27
    8  A    between atoms: C_22  and  O_28
    9  A    between atoms: C_22  and  C_35
   10  A    between atoms: C_26  and  C_36
   11  A    between atoms: C_27  and  C_35
                            x       y       z     vdW  Elec       q    Type
                         _______ _______ _______ _____ _____    ______ ____

>  <TORSDO>
F 11

$$$$
=
 OpenBabel11052410263D

 36 39  0  0  1  0  0  0  0  0999 V2000
  160.6070  207.8810  154.4560 C   0  0  2  0  0  3  0  0  0  0  0  0
  160.0780  206.7430  155.3060 C   0  0  0  0  0  1  0  0  0  0  0  0
  161.2660  207.3590  153.3070 O   0  0  0  0  0  0  0  0  0  0  0  0
  161.7600  208.3260  149.7620 C   0  0  0  0  0  3  0  0  0  0  0  0
  161.4880  208.1180  152.1550 C   0  0  0  0  0  0  0  0  0  0  0  0
  161.7080  209.4600  152.2670 N   0  0  0  0  0  0  0  0  0  0  0  0
  161.9520  210.2490  151.1880 C   0  0  0  0  0  3  0  0  0  0  0  0
  161.5030  207.5080  150.8750 C   0  0  0  0  0  0  0  0  0  0  0  0
  162.2960  210.6960  148.5150 Cl  0  0  0  0  0  0  0  0  0  0  0  0
  161.9850  209.6920  149.9140 C   0  0  0  0  0  0  0  0  0  0  0  0
  160.9440  203.7860  151.5040 C   0  0  0  0  0  3  0  0  0  0  0  0
  160.8830  204.1900  149.1230 C   0  0  0  0  0  3  0  0  0  0  0  0
  161.1140  205.5490  149.3500 C   0  0  0  0  0  3  0  0  0  0  0  0
  160.8000  203.2970  150.1980 C   0  0  0  0  0  0  0  0  0  0  0  0
  161.1730  205.1450  151.7270 C   0  0  0  0  0  3  0  0  0  0  0  0
  161.2660  206.0490  150.6560 C   0  0  0  0  0  0  0  0  0  0  0  0
  160.5730  201.9020  149.9610 N   0  0  0  0  0  0  0  0  0  0  0  0
  161.3320  201.0430  150.4570 O   0  0  0  0  0  0  0  0  0  0  0  0
  159.5250  201.4950  149.1680 O   0  0  0  0  0  0  0  0  0  0  0  0
  161.5860  208.6980  155.2750 C   0  0  0  0  0  2  0  0  0  0  0  0
  160.8990  209.9050  155.9130 C   0  0  1  0  0  3  0  0  0  0  0  0
  161.8590  211.0500  156.2470 C   0  0  0  0  0  2  0  0  0  0  0  0
  163.1600  210.5700  156.8740 C   0  0  0  0  0  1  0  0  0  0  0  0
  159.6490  210.3670  155.1560 C   0  0  0  0  0  2  0  0  0  0  0  0
  159.4590  211.8810  155.1450 C   0  0  1  0  0  3  0  0  0  0  0  0
  159.2150  212.3570  153.7490 C   0  0  0  0  0  0  0  0  0  0  0  0
  160.1880  212.5810  152.8710 O   0  0  0  0  0  0  0  0  0  0  0  0
  158.7460  213.6880  149.9340 N   0  0  0  0  0  0  0  0  0  0  0  0
  157.6990  213.4690  150.7800 C   0  0  0  0  0  3  0  0  0  0  0  0
  157.9320  212.6170  153.2180 C   0  0  0  0  0  3  0  0  0  0  0  0
  159.5770  212.9850  151.7960 C   0  0  0  0  0  0  0  0  0  0  0  0
  159.9310  213.3960  150.5400 C   0  0  0  0  0  3  0  0  0  0  0  0
  158.6190  214.1900  148.5800 C   0  0  0  0  0  1  0  0  0  0  0  0
  158.2670  213.0220  151.9470 C   0  0  0  0  0  0  0  0  0  0  0  0
  158.5120  213.5060  156.4000 O   0  0  0  0  0  1  0  0  0  0  0  0
  158.3270  212.2280  155.9890 N   0  0  0  0  0  2  0  0  0  0  0  0
  1 20  1  0  0  0  0
  1  2  1  1  0  0  0
  3  1  1  0  0  0  0
  4 10  1  0  0  0  0
  4  8  2  0  0  0  0
  5  6  2  0  0  0  0
  5  3  1  0  0  0  0
  7  6  1  0  0  0  0
  8  5  1  0  0  0  0
  9 10  1  0  0  0  0
 10  7  2  0  0  0  0
 11 15  1  0  0  0  0
 12 13  2  0  0  0  0
 12 14  1  0  0  0  0
 13 16  1  0  0  0  0
 14 11  2  0  0  0  0
 16  8  1  0  0  0  0
 16 15  2  0  0  0  0
 17 14  1  0  0  0  0
 17 18  2  0  0  0  0
 19 17  2  0  0  0  0
 20 21  1  0  0  0  0
 21 24  1  6  0  0  0
 21 22  1  0  0  0  0
 22 23  1  0  0  0  0
 25 24  1  6  0  0  0
 25 36  1  0  0  0  0
 26 25  1  0  0  0  0
 27 26  1  0  0  0  0
 28 32  1  0  0  0  0
 28 29  1  0  0  0  0
 29 34  2  0  0  0  0
 30 26  2  0  0  0  0
 31 34  1  0  0  0  0
 31 27  1  0  0  0  0
 32 31  2  0  0  0  0
 33 28  1  0  0  0  0
 34 30  1  0  0  0  0
 36 35  1  0  0  0  0
M  END
>  <MODEL>
4

>  <REMARK>
 VINA RESULT:      -7.4      2.029      3.016
  Name = 
  11 active torsions:
  status: ('A' for Active; 'I' for Inactive)
    1  A    between atoms: N_1  and  C_20
    2  A    between atoms: C_2  and  C_10
    3  A    between atoms: C_10  and  C_14
    4  A    between atoms: C_10  and  N_18
    5  A    between atoms: C_11  and  O_28
    6  A    between atoms: C_12  and  C_27
    7  A    between atoms: C_14  and  C_27
    8  A    between atoms: C_22  and  O_28
    9  A    between atoms: C_22  and  C_35
   10  A    between atoms: C_26  and  C_36
   11  A    between atoms: C_27  and  C_35
                            x       y       z     vdW  Elec       q    Type
                         _______ _______ _______ _____ _____    ______ ____

>  <TORSDO>
F 11

$$$$
=
 OpenBabel11052410263D

 36 39  0  0  1  0  0  0  0  0999 V2000
  161.7560  209.7230  149.4940 C   0  0  2  0  0  3  0  0  0  0  0  0
  161.9550  210.5830  150.7260 C   0  0  0  0  0  1  0  0  0  0  0  0
  162.5700  208.5580  149.5830 O   0  0  0  0  0  0  0  0  0  0  0  0
  161.1960  205.1180  149.4540 C   0  0  0  0  0  3  0  0  0  0  0  0
  162.1540  207.3100  149.1110 C   0  0  0  0  0  0  0  0  0  0  0  0
  162.3310  206.9950  147.7960 N   0  0  0  0  0  0  0  0  0  0  0  0
  161.9690  205.7910  147.2820 C   0  0  0  0  0  3  0  0  0  0  0  0
  161.5650  206.3630  149.9880 C   0  0  0  0  0  0  0  0  0  0  0  0
  160.9220  203.2730  147.4570 Cl  0  0  0  0  0  0  0  0  0  0  0  0
  161.3960  204.8280  148.1060 C   0  0  0  0  0  0  0  0  0  0  0  0
  160.6080  208.0780  153.2600 C   0  0  0  0  0  3  0  0  0  0  0  0
  161.3580  205.8340  153.7480 C   0  0  0  0  0  3  0  0  0  0  0  0
  161.5820  205.6150  152.3870 C   0  0  0  0  0  3  0  0  0  0  0  0
  160.8720  207.0680  154.1950 C   0  0  0  0  0  0  0  0  0  0  0  0
  160.8310  207.8550  151.9000 C   0  0  0  0  0  3  0  0  0  0  0  0
  161.3260  206.6230  151.4400 C   0  0  0  0  0  0  0  0  0  0  0  0
  160.6530  207.2930  155.5940 N   0  0  0  0  0  0  0  0  0  0  0  0
  161.5790  207.7030  156.3240 O   0  0  0  0  0  0  0  0  0  0  0  0
  159.4190  207.0420  156.1510 O   0  0  0  0  0  0  0  0  0  0  0  0
  162.1440  210.5200  148.2640 C   0  0  0  0  0  2  0  0  0  0  0  0
  161.4510  211.8820  148.2490 C   0  0  1  0  0  3  0  0  0  0  0  0
  162.4240  213.0640  148.2240 C   0  0  0  0  0  2  0  0  0  0  0  0
  163.8300  212.6660  147.7990 C   0  0  0  0  0  1  0  0  0  0  0  0
  160.3420  211.9910  147.1980 C   0  0  0  0  0  2  0  0  0  0  0  0
  160.4430  213.2380  146.3220 C   0  0  1  0  0  3  0  0  0  0  0  0
  160.8040  212.8530  144.9230 C   0  0  0  0  0  0  0  0  0  0  0  0
  159.9800  212.2020  144.1070 O   0  0  0  0  0  0  0  0  0  0  0  0
  161.6260  211.6900  141.1140 N   0  0  0  0  0  0  0  0  0  0  0  0
  162.5170  212.3660  141.8940 C   0  0  0  0  0  3  0  0  0  0  0  0
  162.0510  213.1380  144.3250 C   0  0  0  0  0  3  0  0  0  0  0  0
  160.6580  212.0520  143.0070 C   0  0  0  0  0  0  0  0  0  0  0  0
  160.4570  211.4780  141.7800 C   0  0  0  0  0  3  0  0  0  0  0  0
  161.8950  211.2340  139.7640 C   0  0  0  0  0  1  0  0  0  0  0  0
  161.8650  212.5790  143.0830 C   0  0  0  0  0  0  0  0  0  0  0  0
  158.2430  213.0640  146.8120 O   0  0  0  0  0  1  0  0  0  0  0  0
  159.1650  213.9310  146.3290 N   0  0  0  0  0  2  0  0  0  0  0  0
  1  3  1  0  0  0  0
  1  2  1  1  0  0  0
  4  8  2  0  0  0  0
  5  3  1  0  0  0  0
  5  8  1  0  0  0  0
  6  5  2  0  0  0  0
  7  6  1  0  0  0  0
  7 10  2  0  0  0  0
  8 16  1  0  0  0  0
  9 10  1  0  0  0  0
 10  4  1  0  0  0  0
 11 14  1  0  0  0  0
 12 14  2  0  0  0  0
 13 12  1  0  0  0  0
 14 17  1  0  0  0  0
 15 11  2  0  0  0  0
 16 15  1  0  0  0  0
 16 13  2  0  0  0  0
 17 19  2  0  0  0  0
 17 18  2  0  0  0  0
 20  1  1  0  0  0  0
 21 24  1  6  0  0  0
 21 20  1  0  0  0  0
 22 21  1  0  0  0  0
 23 22  1  0  0  0  0
 25 36  1  0  0  0  0
 25 24  1  1  0  0  0
 26 25  1  0  0  0  0
 27 26  1  0  0  0  0
 28 32  1  0  0  0  0
 28 29  1  0  0  0  0
 29 34  2  0  0  0  0
 30 26  2  0  0  0  0
 31 34  1  0  0  0  0
 31 27  1  0  0  0  0
 32 31  2  0  0  0  0
 33 28  1  0  0  0  0
 34 30  1  0  0  0  0
 36 35  1  0  0  0  0
M  END
>  <MODEL>
5

>  <REMARK>
 VINA RESULT:      -7.1      5.036      8.752
  Name = 
  11 active torsions:
  status: ('A' for Active; 'I' for Inactive)
    1  A    between atoms: N_1  and  C_20
    2  A    between atoms: C_2  and  C_10
    3  A    between atoms: C_10  and  C_14
    4  A    between atoms: C_10  and  N_18
    5  A    between atoms: C_11  and  O_28
    6  A    between atoms: C_12  and  C_27
    7  A    between atoms: C_14  and  C_27
    8  A    between atoms: C_22  and  O_28
    9  A    between atoms: C_22  and  C_35
   10  A    between atoms: C_26  and  C_36
   11  A    between atoms: C_27  and  C_35
                            x       y       z     vdW  Elec       q    Type
                         _______ _______ _______ _____ _____    ______ ____

>  <TORSDO>
F 11

$$$$
=
 OpenBabel11052410263D

 36 39  0  0  1  0  0  0  0  0999 V2000
  161.1880  211.2990  150.0800 C   0  0  2  0  0  3  0  0  0  0  0  0
  160.5990  212.3150  151.0390 C   0  0  0  0  0  1  0  0  0  0  0  0
  162.0940  210.4500  150.7740 O   0  0  0  0  0  0  0  0  0  0  0  0
  160.8910  207.4350  152.5670 C   0  0  0  0  0  3  0  0  0  0  0  0
  161.6850  209.5820  151.7920 C   0  0  0  0  0  0  0  0  0  0  0  0
  161.6200  210.0370  153.0760 N   0  0  0  0  0  0  0  0  0  0  0  0
  161.2090  209.2520  154.1060 C   0  0  0  0  0  3  0  0  0  0  0  0
  161.3200  208.2430  151.5010 C   0  0  0  0  0  0  0  0  0  0  0  0
  160.3040  206.9100  155.1830 Cl  0  0  0  0  0  0  0  0  0  0  0  0
  160.8340  207.9340  153.8660 C   0  0  0  0  0  0  0  0  0  0  0  0
  162.3370  207.5190  147.8950 C   0  0  0  0  0  3  0  0  0  0  0  0
  160.4930  206.0760  148.4880 C   0  0  0  0  0  3  0  0  0  0  0  0
  160.4620  206.6430  149.7640 C   0  0  0  0  0  3  0  0  0  0  0  0
  161.4280  206.5120  147.5430 C   0  0  0  0  0  0  0  0  0  0  0  0
  162.3050  208.0820  149.1720 C   0  0  0  0  0  3  0  0  0  0  0  0
  161.3660  207.6580  150.1270 C   0  0  0  0  0  0  0  0  0  0  0  0
  161.4500  205.9350  146.2300 N   0  0  0  0  0  0  0  0  0  0  0  0
  162.4400  205.2810  145.8410 O   0  0  0  0  0  0  0  0  0  0  0  0
  160.3840  206.1120  145.3780 O   0  0  0  0  0  0  0  0  0  0  0  0
  161.9240  212.0300  148.9740 C   0  0  0  0  0  2  0  0  0  0  0  0
  160.9540  212.8130  148.0890 C   0  0  1  0  0  3  0  0  0  0  0  0
  161.4480  214.2160  147.7310 C   0  0  0  0  0  2  0  0  0  0  0  0
  162.9590  214.3610  147.8440 C   0  0  0  0  0  1  0  0  0  0  0  0
  160.4580  212.0190  146.8760 C   0  0  0  0  0  2  0  0  0  0  0  0
  159.8260  212.8850  145.7890 C   0  0  1  0  0  3  0  0  0  0  0  0
  160.4720  212.6040  144.4700 C   0  0  0  0  0  0  0  0  0  0  0  0
  159.9270  211.8260  143.5390 O   0  0  0  0  0  0  0  0  0  0  0  0
  162.0960  211.6940  140.8540 N   0  0  0  0  0  0  0  0  0  0  0  0
  162.7070  212.5090  141.7600 C   0  0  0  0  0  3  0  0  0  0  0  0
  161.7220  213.1300  144.0770 C   0  0  0  0  0  3  0  0  0  0  0  0
  160.7870  211.8280  142.5630 C   0  0  0  0  0  0  0  0  0  0  0  0
  160.8970  211.2520  141.3260 C   0  0  0  0  0  3  0  0  0  0  0  0
  162.6580  211.3230  139.5700 C   0  0  0  0  0  1  0  0  0  0  0  0
  161.8460  212.5710  142.8260 C   0  0  0  0  0  0  0  0  0  0  0  0
  157.8320  213.1120  146.8280 O   0  0  0  0  0  1  0  0  0  0  0  0
  158.4040  212.5950  145.7130 N   0  0  0  0  0  2  0  0  0  0  0  0
  1  3  1  0  0  0  0
  1  2  1  1  0  0  0
  3  5  1  0  0  0  0
  4 10  1  0  0  0  0
  5  6  2  0  0  0  0
  6  7  1  0  0  0  0
  8  5  1  0  0  0  0
  8  4  2  0  0  0  0
 10  7  2  0  0  0  0
 10  9  1  0  0  0  0
 11 15  1  0  0  0  0
 12 13  2  0  0  0  0
 13 16  1  0  0  0  0
 14 11  2  0  0  0  0
 14 12  1  0  0  0  0
 15 16  2  0  0  0  0
 16  8  1  0  0  0  0
 17 14  1  0  0  0  0
 18 17  2  0  0  0  0
 19 17  2  0  0  0  0
 20  1  1  0  0  0  0
 21 24  1  6  0  0  0
 21 20  1  0  0  0  0
 22 23  1  0  0  0  0
 22 21  1  0  0  0  0
 25 24  1  1  0  0  0
 26 25  1  0  0  0  0
 27 26  1  0  0  0  0
 28 32  1  0  0  0  0
 28 29  1  0  0  0  0
 29 34  2  0  0  0  0
 30 26  2  0  0  0  0
 31 34  1  0  0  0  0
 31 27  1  0  0  0  0
 32 31  2  0  0  0  0
 33 28  1  0  0  0  0
 34 30  1  0  0  0  0
 36 25  1  0  0  0  0
 36 35  1  0  0  0  0
M  END
>  <MODEL>
6

>  <REMARK>
 VINA RESULT:      -7.1      5.249      8.372
  Name = 
  11 active torsions:
  status: ('A' for Active; 'I' for Inactive)
    1  A    between atoms: N_1  and  C_20
    2  A    between atoms: C_2  and  C_10
    3  A    between atoms: C_10  and  C_14
    4  A    between atoms: C_10  and  N_18
    5  A    between atoms: C_11  and  O_28
    6  A    between atoms: C_12  and  C_27
    7  A    between atoms: C_14  and  C_27
    8  A    between atoms: C_22  and  O_28
    9  A    between atoms: C_22  and  C_35
   10  A    between atoms: C_26  and  C_36
   11  A    between atoms: C_27  and  C_35
                            x       y       z     vdW  Elec       q    Type
                         _______ _______ _______ _____ _____    ______ ____

>  <TORSDO>
F 11

$$$$
=
 OpenBabel11052410263D

 36 39  0  0  1  0  0  0  0  0999 V2000
  162.1330  211.4550  148.8510 C   0  0  2  0  0  3  0  0  0  0  0  0
  163.3770  211.8310  148.0710 C   0  0  0  0  0  1  0  0  0  0  0  0
  162.1230  210.0530  149.0960 O   0  0  0  0  0  0  0  0  0  0  0  0
  161.2460  207.6520  151.7820 C   0  0  0  0  0  3  0  0  0  0  0  0
  161.8350  209.5090  150.3520 C   0  0  0  0  0  0  0  0  0  0  0  0
  161.8060  210.3240  151.4450 N   0  0  0  0  0  0  0  0  0  0  0  0
  161.5100  209.8610  152.6880 C   0  0  0  0  0  3  0  0  0  0  0  0
  161.5550  208.1260  150.4970 C   0  0  0  0  0  0  0  0  0  0  0  0
  160.8400  207.9030  154.4720 Cl  0  0  0  0  0  0  0  0  0  0  0  0
  161.2210  208.5140  152.8760 C   0  0  0  0  0  0  0  0  0  0  0  0
  162.3320  206.4780  147.1440 C   0  0  0  0  0  3  0  0  0  0  0  0
  160.8350  205.0460  148.3860 C   0  0  0  0  0  3  0  0  0  0  0  0
  160.8290  205.9680  149.4360 C   0  0  0  0  0  3  0  0  0  0  0  0
  161.5840  205.2950  147.2310 C   0  0  0  0  0  0  0  0  0  0  0  0
  162.3250  207.3960  148.1960 C   0  0  0  0  0  3  0  0  0  0  0  0
  161.5710  207.1600  149.3580 C   0  0  0  0  0  0  0  0  0  0  0  0
  161.5810  204.3530  146.1510 N   0  0  0  0  0  0  0  0  0  0  0  0
  161.4340  203.1330  146.3740 O   0  0  0  0  0  0  0  0  0  0  0  0
  161.7570  204.7830  144.8550 O   0  0  0  0  0  0  0  0  0  0  0  0
  160.9070  211.8370  148.0440 C   0  0  0  0  0  2  0  0  0  0  0  0
  160.8350  213.3490  147.8340 C   0  0  1  0  0  3  0  0  0  0  0  0
  160.4400  213.7510  146.4110 C   0  0  0  0  0  2  0  0  0  0  0  0
  160.3270  212.5620  145.4680 C   0  0  0  0  0  1  0  0  0  0  0  0
  160.0280  214.0780  148.9130 C   0  0  0  0  0  2  0  0  0  0  0  0
  158.7460  213.3550  149.3180 C   0  0  1  0  0  3  0  0  0  0  0  0
  158.6100  213.3490  150.8070 C   0  0  0  0  0  0  0  0  0  0  0  0
  159.4190  212.6700  151.6140 O   0  0  0  0  0  0  0  0  0  0  0  0
  158.3660  213.1800  154.8630 N   0  0  0  0  0  0  0  0  0  0  0  0
  157.5050  213.9080  154.0960 C   0  0  0  0  0  3  0  0  0  0  0  0
  157.6110  214.0590  151.5090 C   0  0  0  0  0  3  0  0  0  0  0  0
  158.9710  212.9120  152.8110 C   0  0  0  0  0  0  0  0  0  0  0  0
  159.2910  212.5470  154.0900 C   0  0  0  0  0  3  0  0  0  0  0  0
  158.2900  213.0720  156.3070 C   0  0  0  0  0  1  0  0  0  0  0  0
  157.9240  213.7140  152.8030 C   0  0  0  0  0  0  0  0  0  0  0  0
  157.1520  213.2410  147.7200 O   0  0  0  0  0  1  0  0  0  0  0  0
  157.6060  214.0330  148.7210 N   0  0  0  0  0  2  0  0  0  0  0  0
  1  2  1  6  0  0  0
  1  3  1  0  0  0  0
  3  5  1  0  0  0  0
  4 10  1  0  0  0  0
  5  8  1  0  0  0  0
  5  6  2  0  0  0  0
  6  7  1  0  0  0  0
  7 10  2  0  0  0  0
  8  4  2  0  0  0  0
 10  9  1  0  0  0  0
 11 14  2  0  0  0  0
 11 15  1  0  0  0  0
 12 13  2  0  0  0  0
 14 12  1  0  0  0  0
 15 16  2  0  0  0  0
 16 13  1  0  0  0  0
 16  8  1  0  0  0  0
 17 18  2  0  0  0  0
 17 14  1  0  0  0  0
 19 17  2  0  0  0  0
 20  1  1  0  0  0  0
 21 22  1  6  0  0  0
 21 20  1  0  0  0  0
 21 24  1  0  0  0  0
 23 22  1  0  0  0  0
 25 24  1  1  0  0  0
 25 26  1  0  0  0  0
 26 30  2  0  0  0  0
 26 27  1  0  0  0  0
 27 31  1  0  0  0  0
 28 33  1  0  0  0  0
 29 28  1  0  0  0  0
 30 34  1  0  0  0  0
 31 32  2  0  0  0  0
 32 28  1  0  0  0  0
 34 31  1  0  0  0  0
 34 29  2  0  0  0  0
 35 36  1  0  0  0  0
 36 25  1  0  0  0  0
M  END
>  <MODEL>
7

>  <REMARK>
 VINA RESULT:      -7.0      3.109      5.550
  Name = 
  11 active torsions:
  status: ('A' for Active; 'I' for Inactive)
    1  A    between atoms: N_1  and  C_20
    2  A    between atoms: C_2  and  C_10
    3  A    between atoms: C_10  and  C_14
    4  A    between atoms: C_10  and  N_18
    5  A    between atoms: C_11  and  O_28
    6  A    between atoms: C_12  and  C_27
    7  A    between atoms: C_14  and  C_27
    8  A    between atoms: C_22  and  O_28
    9  A    between atoms: C_22  and  C_35
   10  A    between atoms: C_26  and  C_36
   11  A    between atoms: C_27  and  C_35
                            x       y       z     vdW  Elec       q    Type
                         _______ _______ _______ _____ _____    ______ ____

>  <TORSDO>
F 11

$$$$
=
 OpenBabel11052410263D

 36 39  0  0  1  0  0  0  0  0999 V2000
  161.6660  209.4290  151.5540 C   0  0  2  0  0  3  0  0  0  0  0  0
  162.4700  209.8710  152.7610 C   0  0  0  0  0  1  0  0  0  0  0  0
  160.8260  210.4930  151.1190 O   0  0  0  0  0  0  0  0  0  0  0  0
  161.0010  213.5460  149.0230 C   0  0  0  0  0  3  0  0  0  0  0  0
  161.2280  211.4240  150.1560 C   0  0  0  0  0  0  0  0  0  0  0  0
  162.2610  211.1200  149.3180 N   0  0  0  0  0  0  0  0  0  0  0  0
  162.6840  211.9710  148.3480 C   0  0  0  0  0  3  0  0  0  0  0  0
  160.5640  212.6700  150.0300 C   0  0  0  0  0  0  0  0  0  0  0  0
  162.5920  214.3090  146.9370 Cl  0  0  0  0  0  0  0  0  0  0  0  0
  162.0560  213.2010  148.1820 C   0  0  0  0  0  0  0  0  0  0  0  0
  157.2090  214.0510  151.2140 C   0  0  0  0  0  3  0  0  0  0  0  0
  158.4520  213.2750  153.1340 C   0  0  0  0  0  3  0  0  0  0  0  0
  159.5050  212.8960  152.2970 C   0  0  0  0  0  3  0  0  0  0  0  0
  157.2980  213.8570  152.6000 C   0  0  0  0  0  0  0  0  0  0  0  0
  158.2620  213.6700  150.3800 C   0  0  0  0  0  3  0  0  0  0  0  0
  159.4290  213.0900  150.9060 C   0  0  0  0  0  0  0  0  0  0  0  0
  156.2240  214.2540  153.4630 N   0  0  0  0  0  0  0  0  0  0  0  0
  155.0800  214.4530  153.0020 O   0  0  0  0  0  0  0  0  0  0  0  0
  156.4480  214.4360  154.8080 O   0  0  0  0  0  0  0  0  0  0  0  0
  160.8130  208.2350  151.9370 C   0  0  0  0  0  2  0  0  0  0  0  0
  161.6520  207.1540  152.6200 C   0  0  1  0  0  3  0  0  0  0  0  0
  160.9240  206.4480  153.7660 C   0  0  0  0  0  2  0  0  0  0  0  0
  160.7140  207.3450  154.9770 C   0  0  0  0  0  1  0  0  0  0  0  0
  162.3160  206.1840  151.6370 C   0  0  0  0  0  2  0  0  0  0  0  0
  161.3860  205.0820  151.1360 C   0  0  1  0  0  3  0  0  0  0  0  0
  161.3990  205.0420  149.6410 C   0  0  0  0  0  0  0  0  0  0  0  0
  161.3840  206.1310  148.8790 O   0  0  0  0  0  0  0  0  0  0  0  0
  161.3850  205.1250  145.5750 N   0  0  0  0  0  0  0  0  0  0  0  0
  161.4110  203.9670  146.2950 C   0  0  0  0  0  3  0  0  0  0  0  0
  161.4260  203.8490  148.8860 C   0  0  0  0  0  3  0  0  0  0  0  0
  161.3920  205.6800  147.6590 C   0  0  0  0  0  0  0  0  0  0  0  0
  161.3720  206.2100  146.3970 C   0  0  0  0  0  3  0  0  0  0  0  0
  161.3490  205.1920  144.1270 C   0  0  0  0  0  1  0  0  0  0  0  0
  161.4180  204.3620  147.6100 C   0  0  0  0  0  0  0  0  0  0  0  0
  160.7590  203.2270  152.2640 O   0  0  0  0  0  1  0  0  0  0  0  0
  161.8300  203.8040  151.6670 N   0  0  0  0  0  2  0  0  0  0  0  0
  1 20  1  0  0  0  0
  1  2  1  1  0  0  0
  3  1  1  0  0  0  0
  4  8  2  0  0  0  0
  5  3  1  0  0  0  0
  6  5  2  0  0  0  0
  7  6  1  0  0  0  0
  8  5  1  0  0  0  0
  8 16  1  0  0  0  0
  9 10  1  0  0  0  0
 10  7  2  0  0  0  0
 10  4  1  0  0  0  0
 11 14  1  0  0  0  0
 13 12  1  0  0  0  0
 14 12  2  0  0  0  0
 14 17  1  0  0  0  0
 15 16  1  0  0  0  0
 15 11  2  0  0  0  0
 16 13  2  0  0  0  0
 17 19  2  0  0  0  0
 18 17  2  0  0  0  0
 20 21  1  0  0  0  0
 21 24  1  6  0  0  0
 21 22  1  0  0  0  0
 22 23  1  0  0  0  0
 25 24  1  6  0  0  0
 25 36  1  0  0  0  0
 26 25  1  0  0  0  0
 27 26  1  0  0  0  0
 28 29  1  0  0  0  0
 28 32  1  0  0  0  0
 29 34  2  0  0  0  0
 30 26  2  0  0  0  0
 31 27  1  0  0  0  0
 32 31  2  0  0  0  0
 33 28  1  0  0  0  0
 34 31  1  0  0  0  0
 34 30  1  0  0  0  0
 36 35  1  0  0  0  0
M  END
>  <MODEL>
8

>  <REMARK>
 VINA RESULT:      -7.0      2.634      8.685
  Name = 
  11 active torsions:
  status: ('A' for Active; 'I' for Inactive)
    1  A    between atoms: N_1  and  C_20
    2  A    between atoms: C_2  and  C_10
    3  A    between atoms: C_10  and  C_14
    4  A    between atoms: C_10  and  N_18
    5  A    between atoms: C_11  and  O_28
    6  A    between atoms: C_12  and  C_27
    7  A    between atoms: C_14  and  C_27
    8  A    between atoms: C_22  and  O_28
    9  A    between atoms: C_22  and  C_35
   10  A    between atoms: C_26  and  C_36
   11  A    between atoms: C_27  and  C_35
                            x       y       z     vdW  Elec       q    Type
                         _______ _______ _______ _____ _____    ______ ____

>  <TORSDO>
F 11

$$$$
=
 OpenBabel11052410263D

 36 39  0  0  1  0  0  0  0  0999 V2000
  160.9030  210.4260  152.6580 C   0  0  2  0  0  3  0  0  0  0  0  0
  161.2510  211.0690  153.9860 C   0  0  0  0  0  1  0  0  0  0  0  0
  159.5110  210.5750  152.4010 O   0  0  0  0  0  0  0  0  0  0  0  0
  157.5800  213.6300  153.2300 C   0  0  0  0  0  3  0  0  0  0  0  0
  158.7140  211.5010  153.0820 C   0  0  0  0  0  0  0  0  0  0  0  0
  158.2880  211.2190  154.3460 N   0  0  0  0  0  0  0  0  0  0  0  0
  157.5310  212.0860  155.0680 C   0  0  0  0  0  3  0  0  0  0  0  0
  158.3590  212.7350  152.4790 C   0  0  0  0  0  0  0  0  0  0  0  0
  156.1890  214.4370  155.4380 Cl  0  0  0  0  0  0  0  0  0  0  0  0
  157.1660  213.3110  154.5210 C   0  0  0  0  0  0  0  0  0  0  0  0
  160.4870  213.7290  149.4720 C   0  0  0  0  0  3  0  0  0  0  0  0
  158.1770  213.5980  148.7800 C   0  0  0  0  0  3  0  0  0  0  0  0
  157.8100  213.2420  150.0800 C   0  0  0  0  0  3  0  0  0  0  0  0
  159.5180  213.8470  148.4660 C   0  0  0  0  0  0  0  0  0  0  0  0
  160.1180  213.3710  150.7690 C   0  0  0  0  0  3  0  0  0  0  0  0
  158.7740  213.1250  151.0980 C   0  0  0  0  0  0  0  0  0  0  0  0
  159.8900  214.2230  147.1340 N   0  0  0  0  0  0  0  0  0  0  0  0
  159.0160  214.4480  146.2710 O   0  0  0  0  0  0  0  0  0  0  0  0
  161.2180  214.3210  146.7870 O   0  0  0  0  0  0  0  0  0  0  0  0
  161.2530  208.9520  152.7140 C   0  0  0  0  0  2  0  0  0  0  0  0
  161.3690  208.3590  151.3110 C   0  0  1  0  0  3  0  0  0  0  0  0
  161.9260  209.3400  150.2760 C   0  0  0  0  0  2  0  0  0  0  0  0
  162.3210  208.6650  148.9710 C   0  0  0  0  0  1  0  0  0  0  0  0
  162.0610  206.9920  151.2800 C   0  0  0  0  0  2  0  0  0  0  0  0
  161.1980  205.8530  151.8170 C   0  0  1  0  0  3  0  0  0  0  0  0
  161.1820  204.7190  150.8430 C   0  0  0  0  0  0  0  0  0  0  0  0
  161.1820  203.4410  151.2060 O   0  0  0  0  0  0  0  0  0  0  0  0
  161.1810  201.5140  148.3400 N   0  0  0  0  0  0  0  0  0  0  0  0
  161.1700  202.8030  147.8970 C   0  0  0  0  0  3  0  0  0  0  0  0
  161.1650  204.8870  149.4400 C   0  0  0  0  0  3  0  0  0  0  0  0
  161.1750  202.7790  150.0860 C   0  0  0  0  0  0  0  0  0  0  0  0
  161.1860  201.4660  149.7010 C   0  0  0  0  0  3  0  0  0  0  0  0
  161.2130  200.3480  147.4780 C   0  0  0  0  0  1  0  0  0  0  0  0
  161.1630  203.5730  149.0330 C   0  0  0  0  0  0  0  0  0  0  0  0
  160.9540  205.9220  154.0640 O   0  0  0  0  0  1  0  0  0  0  0  0
  161.7390  205.4020  153.0890 N   0  0  0  0  0  2  0  0  0  0  0  0
  1 20  1  0  0  0  0
  1  2  1  1  0  0  0
  3  1  1  0  0  0  0
  3  5  1  0  0  0  0
  4 10  1  0  0  0  0
  5  6  2  0  0  0  0
  6  7  1  0  0  0  0
  8  5  1  0  0  0  0
  8  4  2  0  0  0  0
 10  7  2  0  0  0  0
 10  9  1  0  0  0  0
 11 15  1  0  0  0  0
 12 13  2  0  0  0  0
 13 16  1  0  0  0  0
 14 12  1  0  0  0  0
 14 11  2  0  0  0  0
 15 16  2  0  0  0  0
 16  8  1  0  0  0  0
 17 14  1  0  0  0  0
 18 17  2  0  0  0  0
 19 17  2  0  0  0  0
 21 22  1  6  0  0  0
 21 20  1  0  0  0  0
 23 22  1  0  0  0  0
 24 21  1  0  0  0  0
 25 24  1  6  0  0  0
 25 36  1  0  0  0  0
 26 27  1  0  0  0  0
 26 25  1  0  0  0  0
 28 32  1  0  0  0  0
 29 28  1  0  0  0  0
 29 34  2  0  0  0  0
 30 26  2  0  0  0  0
 31 27  1  0  0  0  0
 32 31  2  0  0  0  0
 33 28  1  0  0  0  0
 34 30  1  0  0  0  0
 34 31  1  0  0  0  0
 36 35  1  0  0  0  0
M  END
>  <MODEL>
9

>  <REMARK>
 VINA RESULT:      -6.9      3.660      8.864
  Name = 
  11 active torsions:
  status: ('A' for Active; 'I' for Inactive)
    1  A    between atoms: N_1  and  C_20
    2  A    between atoms: C_2  and  C_10
    3  A    between atoms: C_10  and  C_14
    4  A    between atoms: C_10  and  N_18
    5  A    between atoms: C_11  and  O_28
    6  A    between atoms: C_12  and  C_27
    7  A    between atoms: C_14  and  C_27
    8  A    between atoms: C_22  and  O_28
    9  A    between atoms: C_22  and  C_35
   10  A    between atoms: C_26  and  C_36
   11  A    between atoms: C_27  and  C_35
                            x       y       z     vdW  Elec       q    Type
                         _______ _______ _______ _____ _____    ______ ____

>  <TORSDO>
F 11

$$$$
